#------------------------------------------------------------------------------
#$Date: 2020-04-10 08:30:36 +0300 (Fri, 10 Apr 2020) $
#$Revision: 250644 $
#$URL: file:///home/coder/svn-repositories/cod/cif/2/02/20/2022065.cif $
#------------------------------------------------------------------------------
#
# This file is available in the Crystallography Open Database (COD),
# http://www.crystallography.net/. The original data for this entry
# were provided by IUCr Journals, http://journals.iucr.org/.
#
# The file may be used within the scientific community so long as
# proper attribution is given to the journal article from which the
# data were obtained.
#
data_2022065
loop_
_publ_author_name
'Jha, Kunal Kumar'
'Gruza, Barbara'
'Kumar, Prashant'
'Chodkiewicz, Michal Leszek'
'Dominiak, Paulina Maria'
_publ_section_title
;
 TAAM: a reliable and user friendly tool for hydrogen-atom location using
 routine X-ray diffraction data
;
_journal_issue                   3
_journal_name_full
'Acta Crystallographica Section B Structural Science, Crystal Engineering and Materials'
_journal_paper_doi               10.1107/S2052520620002917
_journal_volume                  76
_journal_year                    2020
_chemical_absolute_configuration unk
_chemical_formula_moiety         '2(Cl), C6 H16 N2 O3'
_chemical_formula_sum            'C6 H16 Cl2 N2 O3'
_chemical_formula_weight         235.11
_space_group_crystal_system      monoclinic
_space_group_IT_number           4
_space_group_name_Hall           'P 2yb'
_space_group_name_H-M_alt        'P 1 21 1'
_symmetry_Int_Tables_number      4
_audit_creation_date             2019-09-26
_audit_creation_method
;
Olex2 1.2
(compiled 2018.05.29 svn.r3508 for OlexSys, GUI svn.r5506)
;
_cell_angle_alpha                90
_cell_angle_beta                 106.486(2)
_cell_angle_gamma                90
_cell_formula_units_Z            2
_cell_length_a                   8.6224(2)
_cell_length_b                   7.0489(2)
_cell_length_c                   9.8061(2)
_cell_measurement_temperature    100
_cell_volume                     571.50(2)
_computing_molecular_graphics    'Olex2 (Dolomanov et al., 2009)'
_computing_publication_material  'Olex2 (Dolomanov et al., 2009)'
_computing_structure_refinement  'olex2.refine (Bourhis et al., 2015)'
_diffrn_ambient_temperature      100
_diffrn_measured_fraction_theta_full 0.9408
_diffrn_measured_fraction_theta_max 0.9408
_diffrn_measurement_device_type  'Oxford Diffraction Xcalibur S'
_diffrn_radiation_type           'Mo K\a'
_diffrn_radiation_wavelength     0.7107
_diffrn_reflns_av_R_equivalents  0.0000
_diffrn_reflns_av_unetI/netI     0.0354
_diffrn_reflns_limit_h_max       16
_diffrn_reflns_limit_h_min       -17
_diffrn_reflns_limit_k_max       14
_diffrn_reflns_limit_k_min       -13
_diffrn_reflns_limit_l_max       19
_diffrn_reflns_limit_l_min       0
_diffrn_reflns_number            9032
_diffrn_reflns_theta_full        45.2943
_diffrn_reflns_theta_max         45.29
_diffrn_reflns_theta_min         2.78
_exptl_absorpt_coefficient_mu    0.550
_exptl_crystal_density_diffrn    1.3662
_exptl_crystal_F_000             248.6988
_refine_diff_density_max         0.7411
_refine_diff_density_min         -0.2599
_refine_diff_density_rms         0.0763
_refine_ls_abs_structure_details
'Flack, H. D. (1983). Acta Cryst. A39, 876-881.'
_refine_ls_abs_structure_Flack   -0.20(3)
_refine_ls_d_res_high            0.5000
_refine_ls_d_res_low             7.3248
_refine_ls_goodness_of_fit_ref   1.0417
_refine_ls_hydrogen_treatment    refall
_refine_ls_matrix_type           full
_refine_ls_number_constraints    0
_refine_ls_number_parameters     182
_refine_ls_number_reflns         9032
_refine_ls_number_restraints     1
_refine_ls_restrained_S_all      1.0417
_refine_ls_R_factor_all          0.0369
_refine_ls_R_factor_gt           0.0248
_refine_ls_shift/su_max          0.0005
_refine_ls_shift/su_mean         0.0000
_refine_ls_structure_factor_coef Fsqd
_refine_ls_weighting_details
'w=1/[\s^2^(Fo^2^)+(0.0215P)^2^+0.0162P] where P=(Fo^2^+2Fc^2^)/3'
_refine_ls_weighting_scheme      calc
_refine_ls_wR_factor_gt          0.0479
_refine_ls_wR_factor_ref         0.0556
_reflns_Friedel_coverage         0.883
_reflns_limit_h_max              17
_reflns_limit_h_min              -17
_reflns_limit_k_max              14
_reflns_limit_k_min              -13
_reflns_limit_l_max              19
_reflns_limit_l_min              -19
_reflns_number_gt                7061
_reflns_number_total             9032
_reflns_threshold_expression     I>=2u(I)
_iucr_refine_instructions_details
;
TITL L-hydroxylysine2
CELL 0.71073 8.6224 7.0489 9.8061 90 106.486 90
ZERR 2 0 0 0 0 0 0
LATT -1
SYMM -X,0.5+Y,-Z
SFAC C H N O Cl
UNIT 12 32 4 6 4

ACTA 
BOND $H
WGHT 0.021497 0.016203
FVAR 0.995166
REM <olex2.extras>
REM <HklSrc "%.\\c9903803f7633277f69c7d6b5d73dd1b.hkl">
REM </olex2.extras>

Cl(1  5     0.68108  0.74636  0.88734  11.00000  0.02045  0.01365  0.01887 =
 0.00224  0.00758  0.00010 

Cl(2  5    -0.65510  0.26087  0.58001  11.00000  0.01876  0.01620  0.01740 =
 -0.00252  0.00385  0.00191 
O(1)  4     0.16843  0.93386  0.91332  11.00000  0.02884  0.01945  0.03213 =
 -0.00785 -0.00794  0.00875 
H(1)  2     0.21346  1.02655  0.98888  11.00000  0.03379 
O(2)  4     0.36107  0.75309  1.05532  11.00000  0.02287  0.01656  0.01550 =
 -0.00197  0.00059  0.00125 
O(3)  4    -0.24658  0.33146  0.48070  11.00000  0.02008  0.01632  0.01450 =
 -0.00103  0.00200 -0.00177 
H(3)  2    -0.28659  0.45283  0.43944  11.00000  0.02784 
N(1)  3     0.35365  0.49907  0.84946  11.00000  0.01504  0.01653  0.01673 =
 -0.00246  0.00348  0.00039 
H(1a  2     0.34176  0.40628  0.76245  11.00000  0.03644 
H(1b  2     0.46751  0.56296  0.86894  11.00000  0.04176 
H(1c  2     0.36099  0.41609  0.94466  11.00000  0.04309 
N(2)  3    -0.31381  0.06891  0.66325  11.00000  0.01873  0.01531  0.01781 =
 0.00245  0.00530 -0.00056 
H(2a  2    -0.34040 -0.00656  0.56445  11.00000  0.03374 
H(2b  2    -0.32077 -0.04246  0.73763  11.00000  0.04120 
H(2c  2    -0.41461  0.16113  0.65280  11.00000  0.04737 
C(1)  1     0.25973  0.78020  0.94389  11.00000  0.01614  0.01262  0.01659 =
 -0.00159  0.00263 -0.00047 
C(2)  1     0.22092  0.64084  0.82121  11.00000  0.01557  0.01356  0.01334 =
 -0.00103  0.00336 -0.00117 
H(2)  2     0.22084  0.71360  0.72999  11.00000  0.02428 
C(3)  1     0.05571  0.54634  0.80233  11.00000  0.01465  0.01764  0.01525 =
 -0.00247  0.00399 -0.00170 
H(3a  2     0.06519  0.44188  0.87575  11.00000  0.04462 
H(3b  2    -0.02990  0.64438  0.81869  11.00000  0.03537 
C(4)  1    -0.01264  0.46456  0.65310  11.00000  0.01493  0.02033  0.01371 =
 -0.00140  0.00361 -0.00268 
H(4a  2    -0.03209  0.58469  0.57940  11.00000  0.03112 
H(4b  2     0.06976  0.37033  0.62844  11.00000  0.02823 
C(5)  1    -0.17533  0.36459  0.62859  11.00000  0.01299  0.01393  0.01387 =
 -0.00031  0.00284 -0.00015 
H(5)  2    -0.25385  0.45238  0.66961  11.00000  0.03012 
C(6)  1    -0.15647  0.17167  0.70041  11.00000  0.01692  0.01669  0.01741 =
 0.00310  0.00425  0.00175 
H(6a  2    -0.11506  0.18882  0.81366  11.00000  0.03352 
H(6b  2    -0.07112  0.08763  0.67149  11.00000  0.04067 
HKLF 4

END
Q1 1 -0.711111 0.25 0.64 11 0.05 0.74
Q2 1 0.622222 0.75 0.88 11 0.05 0.61
Q3 1 0.755556 0.75 0.9 11 0.05 0.59
Q4 1 0 0.25 0.74 11 0.05 0.59
Q5 1 -0.577778 0.277778 0.62 11 0.05 0.53
Q6 1 -0.022222 0.75 0.8 11 0.05 0.5
Q7 1 -0.688889 0.277778 0.54 11 0.05 0.48
Q8 1 0.222222 0.944444 0.9 11 0.05 0.36
Q9 1 0.288889 0.75 1.04 11 0.05 0.35
Q10 1 -0.288889 0.25 0.36 11 0.05 0.34
Q11 1 -0.222222 0.138889 0.66 11 0.05 0.3
Q12 1 0.288889 0.555556 0.88 11 0.05 0.3
Q13 1 -0.022222 0.027778 0.66 11 0.05 0.3
Q14 1 -0.377778 0.25 0.46 11 0.05 0.29
Q15 1 -0.244444 0.361111 0.58 11 0.05 0.28
Q16 1 0.355556 0.25 0.98 11 0.05 0.27
Q17 1 0.022222 0.555556 0.98 11 0.05 0.27
Q18 1 0.688889 0.694444 0.8 11 0.05 0.27
Q19 1 0.044444 0.555556 0.84 11 0.05 0.27
Q20 1 -0.155556 0.333333 0.7 11 0.05 0.26

  REM The information below was added by Olex2.
  REM
  REM R1 = 0.0248 for 7061 Fo > 4sig(Fo) and 0.0369 for all 9032 data
  REM 182 parameters refined using 1 restraints
  REM Highest difference peak 0.7411, deepest hole -0.2599
  REM Mean Shift 0.0000, Max Shift 0.0005.

  REM +++ Tabular Listing of Refinement Information +++
  REM R1_all = 0.0369
  REM R1_gt = 0.0248
  REM wR_ref = 0.0556
  REM GOOF = 1.0417
  REM Shift_max = 0.0005
  REM Shift_mean = 0.0000
  REM Reflections_all = 9032
  REM Reflections_gt = 7061
  REM Parameters = 182
  REM Hole = -0.2599
  REM Peak = 0.7411
  REM Flack = -0.20(3)

  
;
_cod_data_source_file            40_TAAM_iso_max.cif
_cod_data_source_block           40_TAAM_iso_max
_cod_original_cell_volume        571.50(3)
_cod_original_sg_symbol_Hall     ' P 2yb'
_cod_database_code               2022065
_olex2_refinement_description
;
;
_iucr_refine_fcf_details
;
data_L-hydroxylysine2
_computing_structure_refinement   'olex2.refine (Bourhis et al., 2015)'
_shelx_refln_list_code            4
loop_
  _space_group_symop_id
  _space_group_symop_operation_xyz
  1  x,y,z
  2  -x,y+1/2,-z

_space_group_crystal_system       monoclinic
_space_group_IT_number            4
_space_group_name_H-M_alt         'P 1 21 1'
_space_group_name_Hall            ' P 2yb'
_symmetry_space_group_name_H-M    'P 1 21 1'
_symmetry_space_group_name_Hall   ' P 2yb'
_symmetry_Int_Tables_number       4
_cell_length_a                    8.6224
_cell_length_b                    7.0489
_cell_length_c                    9.8061
_cell_angle_alpha                 90
_cell_angle_beta                  106.486
_cell_angle_gamma                 90
_cell_volume                      571.497345
loop_
  _refln_index_h
  _refln_index_k
  _refln_index_l
  _refln_F_squared_calc
  _refln_F_squared_meas
  _refln_F_squared_sigma
  _refln_F_squared_weight
  _refln_observed_status
-17 0 4 1.802 2.433 4.948 6.708 o
-17 0 5 7.968 7.482 4.241 9.065 o
-17 0 6 1.277 2.736 2.595 24.310 o
-17 0 7 0.189 -0.666 36.260 0.125 o
-17 0 8 2.583 1.222 2.635 23.551 o
-17 1 3 9.530 12.107 3.060 17.167 o
-17 1 4 0.898 0.838 1.717 55.532 o
-17 1 5 4.765 4.988 2.211 33.025 o
-17 1 6 0.896 0.333 0.788 260.178 o
-17 1 7 6.688 7.018 2.676 22.552 o
-17 1 8 2.297 2.444 2.444 27.353 o
-17 2 4 0.144 1.050 3.696 12.033 o
-17 2 5 10.395 11.127 2.151 33.902 o
-17 2 6 3.949 3.817 2.373 28.844 o
-17 2 7 4.527 2.090 1.929 43.432 o
-16 -3 0 2.274 2.322 4.594 7.776 o
-16 -2 0 1.960 0.343 1.070 140.598 o
-16 0 1 17.209 21.316 4.483 7.998 o
-16 0 2 3.969 5.523 3.999 10.232 o
-16 0 3 0.244 0.131 1.040 151.550 o
-16 0 4 4.320 3.373 1.696 55.742 o
-16 0 5 36.605 40.592 2.666 19.609 o
-16 0 6 1.252 2.646 2.312 30.588 o
-16 0 7 28.362 31.766 2.625 21.157 o
-16 0 8 4.324 4.261 2.161 34.636 o
-16 0 9 6.219 6.483 3.453 13.651 o
-16 0 10 3.924 2.171 2.343 29.644 o
-16 0 11 3.408 3.221 3.221 15.759 o
-16 0 12 0.848 1.262 4.423 8.400 o
-16 1 1 2.149 2.141 2.282 31.354 o
-16 1 2 0.740 0.222 1.252 104.269 o
-16 1 3 21.741 24.759 3.221 14.972 o
-16 1 4 1.375 2.333 2.171 34.678 o
-16 1 5 10.076 10.532 2.090 35.881 o
-16 1 6 9.256 8.785 1.979 40.082 o
-16 1 7 5.232 4.291 1.908 44.051 o
-16 1 8 1.687 1.343 1.373 85.984 o
-16 1 9 9.945 8.684 2.868 19.530 o
-16 1 10 3.986 7.109 3.302 14.955 o
-16 1 11 4.139 4.786 3.070 17.306 o
-16 1 12 3.859 2.211 2.474 26.614 o
-16 2 1 7.105 9.148 2.767 21.058 o
-16 2 2 0.509 4.402 2.969 18.594 o
-16 2 3 2.783 3.403 2.161 34.825 o
-16 2 4 2.481 0.424 0.838 224.347 o
-16 2 5 14.310 14.974 2.110 34.353 o
-16 2 6 4.364 4.009 1.908 44.214 o
-16 2 7 15.093 15.641 1.818 44.943 o
-16 2 8 9.824 9.552 1.828 46.428 o
-16 2 9 4.099 3.352 2.292 30.892 o
-16 2 10 2.953 1.414 2.706 22.326 o
-16 2 11 10.144 10.814 2.827 20.026 o
-16 3 1 5.183 7.028 2.847 20.011 o
-16 3 2 2.663 2.726 2.898 19.472 o
-16 3 3 19.113 21.709 2.211 30.462 o
-16 3 4 1.309 0.616 0.586 455.517 o
-16 3 5 3.990 4.140 1.979 41.214 o
-16 3 6 3.130 3.060 1.818 48.966 o
-16 3 7 8.161 9.845 1.878 44.397 o
-16 3 8 5.337 6.796 2.181 33.786 o
-16 3 9 10.616 11.440 1.807 47.008 o
-16 3 10 7.889 7.563 2.252 31.476 o
-16 4 1 30.080 34.715 2.837 18.220 o
-16 4 2 2.675 4.463 2.504 25.983 o
-16 4 3 0.795 1.454 2.635 23.618 o
-16 4 4 1.681 0.788 1.101 133.185 o
-16 4 5 31.529 36.583 2.252 26.877 o
-16 4 6 2.004 1.242 1.868 46.725 o
-16 4 7 14.798 16.772 1.989 38.084 o
-16 4 8 0.525 1.181 1.616 62.704 o
-16 4 9 6.998 7.613 1.828 47.240 o
-16 5 3 24.292 24.850 2.060 33.446 o
-16 5 4 14.253 15.792 1.989 38.269 o
-16 5 5 3.747 3.312 1.727 53.990 o
-16 5 6 1.671 0.222 0.172 3330.560 o
-16 5 7 9.881 12.208 1.999 38.945 o
-15 -5 -1 3.113 3.726 3.605 12.597 o
-15 -5 0 6.235 5.271 3.160 16.280 o
-15 -4 -2 8.406 11.632 4.281 8.877 o
-15 -4 -1 3.318 3.706 4.291 8.899 o
-15 -4 0 8.071 9.603 4.514 8.004 o
-15 -3 -3 2.431 4.382 3.867 10.955 o
-15 -3 -2 14.441 17.418 4.423 8.255 o
-15 -3 -1 10.861 10.814 4.362 8.539 o
-15 -3 0 15.169 13.934 4.180 9.230 o
-15 -2 -3 4.688 3.049 4.615 7.695 o
-15 -2 -2 2.281 2.969 4.049 10.003 o
-15 -2 -1 4.605 5.069 3.807 11.279 o
-15 -2 0 1.796 -0.404 2.898 19.534 o
-15 -1 -4 10.548 13.026 4.615 7.635 o
-15 -1 -1 16.097 12.945 4.140 9.403 o
-15 -1 0 0.919 -0.364 1.696 56.943 o
-15 0 1 12.690 14.358 2.746 20.977 o
-15 0 2 0.001 1.454 1.939 43.657 o
-15 0 3 37.353 41.712 2.504 21.649 o
-15 0 4 8.568 7.735 1.717 52.828 o
-15 0 5 17.220 17.792 1.929 39.703 o
-15 0 6 0.815 -0.121 0.939 184.602 o
-15 0 7 34.123 36.785 2.151 28.551 o
-15 0 8 6.759 6.806 2.211 32.750 o
-15 0 9 7.463 9.148 2.716 21.816 o
-15 0 10 11.118 10.966 2.878 19.306 o
-15 0 11 0.243 0.212 1.414 82.130 o
-15 0 12 4.530 5.634 3.999 10.227 o
-15 0 13 19.580 19.569 5.018 6.404 o
-15 0 14 0.212 -0.020 2.605 24.221 o
-15 1 1 34.892 41.692 4.594 7.358 o
-15 1 2 1.127 0.525 1.060 144.307 o
-15 1 3 7.778 7.432 1.807 48.108 o
-15 1 4 3.060 1.737 1.868 46.516 o
-15 1 5 27.941 28.828 1.908 36.803 o
-15 1 6 5.117 5.200 1.616 60.774 o
-15 1 7 10.162 11.228 1.777 48.653 o
-15 1 8 3.544 4.059 1.908 44.339 o
-15 1 9 27.095 31.807 2.252 27.803 o
-15 1 10 1.309 1.525 2.070 38.170 o
-15 1 11 10.712 13.026 2.484 25.625 o
-15 1 12 12.746 12.995 3.009 17.609 o
-15 1 13 11.390 9.744 3.009 17.712 o
-15 1 14 9.690 8.078 3.312 14.740 o
-15 2 1 6.155 5.271 2.060 37.768 o
-15 2 2 2.984 2.232 2.302 30.748 o
-15 2 3 20.324 18.902 1.949 38.228 o
-15 2 4 1.161 2.706 2.302 30.859 o
-15 2 5 1.447 0.555 1.303 95.830 o
-15 2 6 0.586 0.919 1.737 54.309 o
-15 2 7 51.116 58.878 2.262 22.468 o
-15 2 8 9.755 9.704 1.757 50.004 o
-15 2 9 14.022 13.995 1.848 44.058 o
-15 2 10 16.022 18.468 2.131 33.266 o
-15 2 11 14.290 14.379 2.110 34.398 o
-15 2 12 14.815 17.327 2.575 23.502 o
-15 2 13 6.094 5.140 2.504 25.775 o
-15 3 1 19.241 19.215 2.151 32.190 o
-15 3 2 2.061 0.636 1.545 68.130 o
-15 3 3 0.363 0.252 1.222 109.765 o
-15 3 4 0.935 2.070 1.868 46.827 o
-15 3 5 16.998 17.489 1.696 49.953 o
-15 3 6 3.733 2.807 1.626 60.818 o
-15 3 7 5.926 5.917 1.717 53.759 o
-15 3 8 8.157 9.017 1.929 42.280 o
-15 3 9 16.065 17.125 2.060 35.487 o
-15 3 10 4.539 5.402 2.070 37.596 o
-15 3 11 3.987 4.402 2.312 30.331 o
-15 3 12 17.191 19.528 2.343 27.738 o
-15 3 13 3.544 3.574 2.928 19.036 o
-15 4 1 6.393 6.614 2.040 38.381 o
-15 4 2 10.334 10.703 1.848 45.244 o
-15 4 3 12.944 13.248 1.686 52.477 o
-15 4 4 2.234 1.202 0.818 234.505 o
-15 4 5 1.820 0.687 1.111 130.712 o
-15 4 6 20.556 22.729 1.787 43.870 o
-15 4 7 17.591 17.317 1.747 47.299 o
-15 4 8 4.635 5.796 1.656 57.997 o
-15 4 9 2.422 2.615 1.878 46.055 o
-15 4 10 11.536 11.612 2.201 32.277 o
-15 4 11 4.656 5.574 2.373 28.736 o
-15 4 12 1.435 2.464 2.383 28.804 o
-15 5 1 2.124 1.030 1.030 150.763 o
-15 5 2 17.056 18.589 2.009 36.829 o
-15 5 3 2.297 1.262 0.747 277.902 o
-15 5 4 2.633 1.686 1.151 120.461 o
-15 5 5 18.299 19.831 1.818 43.598 o
-15 5 6 0.755 1.626 1.191 114.423 o
-15 5 7 3.061 3.544 1.666 58.048 o
-15 5 8 23.576 27.495 1.908 37.965 o
-15 5 9 5.639 6.967 2.141 35.001 o
-15 5 10 0.734 0.808 0.899 200.492 o
-15 5 11 4.671 4.625 2.383 28.528 o
-15 6 1 9.252 9.633 1.757 50.141 o
-15 6 2 2.770 2.585 1.757 52.467 o
-15 6 3 18.121 20.175 1.717 48.156 o
-15 6 4 7.666 8.088 1.626 58.780 o
-15 6 5 1.888 0.889 1.383 84.764 o
-15 6 6 8.352 8.532 1.828 46.858 o
-15 6 7 16.651 18.014 1.858 42.553 o
-15 6 8 4.756 5.877 1.807 48.909 o
-15 6 9 8.683 10.188 1.797 48.106 o
-14 -7 -1 0.074 3.100 3.948 10.537 o
-14 -7 0 0.966 1.595 3.070 17.415 o
-14 -6 -2 8.353 7.825 3.665 12.092 o
-14 -6 -1 18.689 21.659 3.564 12.455 o
-14 -6 0 7.864 8.149 3.332 14.602 o
-14 -5 -4 3.115 5.846 4.251 9.063 o
-14 -5 -3 30.819 38.623 3.776 10.734 o
-14 -5 -2 15.183 14.520 3.322 14.447 o
-14 -5 -1 0.472 0.868 2.343 29.910 o
-14 -5 0 1.056 2.302 3.807 11.328 o
-14 -4 -5 1.653 3.988 3.706 11.938 o
-14 -4 -4 4.080 2.545 4.170 9.421 o
-14 -4 -3 6.731 7.603 4.211 9.204 o
-14 -4 -2 1.649 2.555 3.918 10.690 o
-14 -4 -1 41.602 54.273 5.150 5.824 o
-14 -3 -5 13.995 14.773 3.160 15.944 o
-14 -3 -4 1.856 -0.555 3.251 15.524 o
-14 -3 -3 6.832 5.675 3.898 10.737 o
-14 -3 -2 7.930 9.300 3.827 11.100 o
-14 -3 -1 8.168 6.483 3.585 12.650 o
-14 -2 -6 2.154 2.635 2.676 22.839 o
-14 -2 -5 0.762 2.221 4.130 9.629 o
-14 -2 -4 4.396 2.100 4.857 6.952 o
-14 -2 -3 1.447 -0.162 0.737 293.955 o
-14 -2 -2 1.587 0.576 3.322 14.872 o
-14 -2 -1 14.218 15.096 3.968 10.226 o
-14 -1 -6 9.389 11.168 4.392 8.432 o
-14 -1 -5 13.966 18.145 4.635 7.530 o
-14 -1 -4 1.709 0.606 30.747 0.174 o
-14 -1 -3 25.064 26.849 4.201 8.954 o
-14 -1 -2 10.697 7.704 3.988 10.208 o
-14 -1 -1 8.346 8.805 3.827 11.098 o
-14 -1 0 19.138 19.680 3.635 12.003 o
-14 0 1 17.508 18.407 2.100 33.931 o
-14 0 2 27.040 29.323 1.919 36.637 o
-14 0 3 13.526 12.036 1.767 48.194 o
-14 0 4 4.423 3.140 1.434 77.274 o
-14 0 5 41.963 45.711 1.757 35.364 o
-14 0 6 2.246 1.838 1.383 84.332 o
-14 0 7 14.147 13.884 1.646 54.304 o
-14 0 8 27.213 26.738 1.818 40.303 o
-14 0 9 52.167 55.839 2.837 16.069 o
-14 0 10 2.101 2.009 2.009 40.371 o
-14 0 11 7.688 9.027 2.757 21.187 o
-14 0 12 23.171 25.102 3.231 14.830 o
-14 0 13 0.135 -0.162 3.534 13.164 o
-14 0 14 0.119 -0.040 0.444 827.643 o
-14 0 15 3.400 4.140 2.726 21.931 o
-14 1 1 53.336 55.808 2.221 22.941 o
-14 1 2 8.988 6.977 1.626 58.527 o
-14 1 3 27.928 27.414 1.939 36.026 o
-14 1 4 6.411 5.210 1.454 73.796 o
-14 1 5 9.183 8.068 1.626 58.280 o
-14 1 6 10.019 8.209 1.706 52.950 o
-14 1 7 55.563 60.877 2.555 18.323 o
-14 1 8 3.564 3.241 1.494 71.656 o
-14 1 9 0.693 -0.111 0.353 1241.150 o
-14 1 10 9.448 10.471 1.919 42.342 o
-14 1 11 20.569 20.609 2.504 24.182 o
-14 1 12 5.095 4.402 2.666 22.852 o
-14 1 13 7.508 5.836 2.999 18.014 o
-14 1 14 30.052 37.290 3.554 12.050 o
-14 1 15 0.549 0.586 0.838 231.072 o
-14 2 1 9.602 8.300 1.585 60.891 o
-14 2 2 0.944 1.141 1.252 103.777 o
-14 2 3 75.372 82.233 2.131 19.155 o
-14 2 4 9.022 8.441 1.424 74.538 o
-14 2 5 76.263 87.807 2.201 18.052 o
-14 2 6 9.608 9.582 1.777 48.993 o
-14 2 7 7.597 7.250 1.646 57.576 o
-14 2 8 1.936 0.949 1.605 63.128 o
-14 2 9 44.903 46.862 2.433 21.582 o
-14 2 10 4.385 4.968 1.828 48.023 o
-14 2 11 12.236 11.168 1.979 39.391 o
-14 2 12 9.311 8.179 2.100 35.804 o
-14 2 13 1.597 1.111 2.242 32.568 o
-14 2 14 2.944 1.545 3.756 11.619 o
-14 2 15 1.053 0.495 2.302 30.941 o
-14 3 1 52.646 60.140 2.191 23.161 o
-14 3 2 3.946 2.666 1.454 75.536 o
-14 3 3 50.076 52.951 1.757 32.133 o
-14 3 4 2.298 1.737 1.404 81.965 o
-14 3 5 29.031 30.343 1.575 48.940 o
-14 3 6 5.962 5.756 1.474 71.968 o
-14 3 7 34.703 37.805 1.969 32.587 o
-14 3 8 6.722 6.846 1.717 53.436 o
-14 3 9 5.397 5.453 1.757 51.577 o
-14 3 10 0.351 0.252 1.404 83.254 o
-14 3 11 11.404 12.016 2.040 37.282 o
-14 3 12 1.098 0.030 1.080 139.402 o
-14 3 13 4.975 4.150 1.999 40.269 o
-14 3 14 18.638 18.498 2.454 25.370 o
-14 4 1 4.899 4.887 1.545 66.383 o
-14 4 2 2.936 2.938 1.515 70.104 o
-14 4 3 37.867 39.794 1.585 43.019 o
-14 4 4 5.981 5.251 1.252 98.120 o
-14 4 5 32.703 35.452 1.696 41.686 o
-14 4 6 2.153 1.434 1.282 98.044 o
-14 4 7 5.601 4.746 1.616 60.693 o
-14 4 8 0.051 0.485 1.353 89.663 o
-14 4 9 33.743 42.389 2.757 18.660 o
-14 4 10 3.299 3.474 2.646 23.297 o
-14 4 11 12.361 12.258 2.120 34.500 o
-14 4 12 9.431 9.269 2.191 32.929 o
-14 4 13 8.832 7.523 2.151 34.298 o
-14 4 14 2.393 1.141 1.000 159.169 o
-14 5 1 48.714 52.274 2.262 23.242 o
-14 5 2 0.338 0.313 0.252 2379.280 o
-14 5 3 19.428 18.428 1.424 65.646 o
-14 5 4 4.342 3.231 1.292 94.390 o
-14 5 5 6.382 5.432 1.464 72.794 o
-14 5 6 3.648 3.332 1.646 59.318 o
-14 5 7 29.183 31.211 1.999 33.607 o
-14 5 8 1.546 0.707 2.110 36.747 o
-14 5 9 4.114 3.282 1.969 41.673 o
-14 5 10 11.156 10.582 2.383 27.815 o
-14 5 11 9.916 10.007 2.403 27.488 o
-14 5 12 6.478 7.078 2.353 29.032 o
-14 5 13 1.261 0.949 1.727 54.799 o
-14 6 1 13.358 13.046 1.696 51.814 o
-14 6 2 4.500 4.261 1.333 88.542 o
-14 6 3 26.373 27.939 1.686 45.506 o
-14 6 4 2.427 1.646 0.889 198.874 o
-14 6 5 29.280 30.464 1.717 42.886 o
-14 6 6 0.596 0.505 0.919 192.633 o
-14 6 7 4.160 2.454 1.555 66.247 o
-14 6 8 3.208 3.312 1.898 44.916 o
-14 6 9 20.263 19.710 2.181 31.211 o
-14 6 10 2.085 0.868 1.262 101.404 o
-14 6 11 4.717 3.474 3.534 13.084 o
-14 6 12 3.438 3.857 2.676 22.763 o
-14 7 1 5.121 3.029 1.393 81.308 o
-14 7 2 10.780 9.461 1.858 44.820 o
-14 7 3 25.195 26.536 1.767 42.803 o
-14 7 4 2.751 1.303 0.697 313.486 o
-14 7 5 11.299 12.026 1.646 55.601 o
-14 7 6 9.156 8.330 1.858 45.272 o
-14 7 7 18.040 18.004 1.878 41.424 o
-14 7 8 3.534 2.858 1.737 53.476 o
-14 7 9 1.455 0.525 0.404 902.060 o
-14 7 10 4.235 4.423 2.555 24.898 o
-14 8 2 0.013 -0.222 0.959 178.677 o
-14 8 3 7.918 8.108 1.777 49.574 o
-14 8 4 2.006 0.788 0.798 247.861 o
-14 8 5 16.597 17.014 1.797 45.287 o
-14 8 6 0.299 0.333 1.807 50.258 o
-14 8 7 4.265 5.675 2.191 33.640 o
-13 -8 -2 9.408 11.491 4.312 8.746 o
-13 -8 -1 3.327 1.505 4.332 8.741 o
-13 -8 0 9.434 10.875 3.312 14.715 o
-13 -7 -3 7.294 10.905 4.201 9.230 o
-13 -7 -2 5.878 5.543 3.383 14.236 o
-13 -7 -1 17.555 21.447 3.524 12.759 o
-13 -7 0 13.705 15.863 3.342 14.298 o
-13 -6 -5 5.102 6.210 2.333 29.666 o
-13 -6 -4 2.502 2.242 4.241 9.122 o
-13 -6 -3 1.165 2.302 4.180 9.396 o
-13 -6 -2 3.833 2.706 2.736 21.782 o
-13 -6 -1 18.421 25.153 3.292 14.465 o
-13 -6 0 3.187 5.846 4.281 8.935 o
-13 -5 -6 14.456 19.377 3.332 14.319 o
-13 -5 -5 2.542 3.484 2.615 23.868 o
-13 -5 -4 7.352 12.501 4.503 8.035 o
-13 -5 -3 3.751 1.181 2.282 31.272 o
-13 -5 -2 1.213 2.474 3.423 14.001 o
-13 -5 -1 3.728 2.746 3.171 16.260 o
-13 -5 0 19.495 24.385 4.655 7.402 o
-13 -4 -6 18.642 20.447 3.373 13.868 o
-13 -4 -5 1.716 0.263 3.605 12.634 o
-13 -4 -4 1.076 2.201 3.494 13.445 o
-13 -4 -3 0.164 -0.666 3.605 12.653 o
-13 -4 -2 16.117 15.308 3.898 10.565 o
-13 -4 -1 3.509 3.231 3.373 14.380 o
-13 -3 -7 3.589 3.463 3.261 15.367 o
-13 -3 -6 7.984 9.128 2.999 17.949 o
-13 -3 -5 8.456 7.745 3.908 10.654 o
-13 -3 -4 31.525 34.230 4.413 8.028 o
-13 -3 -3 30.813 28.949 4.312 8.433 o
-13 -3 -2 28.591 34.937 4.281 8.537 o
-13 -3 -1 22.766 17.701 3.817 10.879 o
-13 -2 -7 14.907 15.025 2.484 25.238 o
-13 -2 -6 34.857 39.774 3.423 12.723 o
-13 -2 -5 8.046 6.836 4.009 10.138 o
-13 -2 -3 15.792 14.005 3.655 11.991 o
-13 -2 -2 42.677 44.227 4.362 7.986 o
-13 -2 -1 37.845 39.188 4.281 8.378 o
-13 -1 -8 0.132 0.141 1.131 128.351 o
-13 -1 -7 4.710 5.392 2.746 21.539 o
-13 -1 -6 10.107 11.460 2.343 28.796 o
-13 -1 -5 2.707 1.313 4.847 6.989 o
-13 -1 -4 41.536 45.994 4.554 7.377 o
-13 -1 -3 12.899 9.855 3.645 12.140 o
-13 -1 -2 0.734 1.091 5.039 6.473 o
-13 -1 -1 47.230 47.458 3.039 14.897 o
-13 -1 0 33.685 34.846 3.847 10.349 o
-13 0 1 92.018 99.601 2.201 15.649 o
-13 0 2 8.026 5.806 1.484 70.099 o
-13 0 3 2.041 0.475 0.707 313.056 o
-13 0 4 3.653 4.069 1.242 102.097 o
-13 0 5 288.345 324.550 4.786 2.367 o
-13 0 6 21.017 20.165 1.737 46.309 o
-13 0 7 43.662 47.094 1.888 31.507 o
-13 0 8 0.541 0.020 0.050 19188.900 o
-13 0 9 21.942 21.548 1.969 36.951 o
-13 0 10 19.440 20.447 2.272 29.038 o
-13 0 11 51.046 56.798 2.878 15.757 o
-13 0 12 7.890 3.776 3.625 12.396 o
-13 0 13 0.197 0.818 2.646 23.473 o
-13 0 14 19.130 19.791 3.090 16.389 o
-13 0 15 4.828 3.443 2.696 22.378 o
-13 0 16 0.085 2.423 3.029 17.892 o
-13 1 1 7.026 5.735 1.272 94.198 o
-13 1 2 1.508 1.515 0.909 193.143 o
-13 1 3 120.207 126.389 2.282 11.665 o
-13 1 4 10.934 10.915 1.323 82.968 o
-13 1 5 8.310 6.654 1.636 58.120 o
-13 1 6 0.345 -0.485 1.656 59.882 o
-13 1 7 64.363 69.177 2.363 18.982 o
-13 1 8 1.332 -0.172 1.050 147.144 o
-13 1 9 43.633 44.802 2.272 24.287 o
-13 1 10 2.175 2.757 1.838 48.106 o
-13 1 11 1.653 1.020 2.646 23.414 o
-13 1 12 20.591 19.670 2.383 26.533 o
-13 1 13 33.539 33.978 2.292 26.002 o
-13 1 14 1.394 0.464 0.757 277.944 o
-13 1 15 2.106 2.444 4.190 9.344 o
-13 1 16 16.139 17.115 3.716 11.581 o
-13 2 1 22.208 21.184 1.424 63.190 o
-13 2 2 3.087 1.585 1.313 93.003 o
-13 2 3 8.042 7.401 1.101 120.332 o
-13 2 4 3.983 3.736 1.252 100.393 o
-13 2 5 61.551 63.169 1.828 26.835 o
-13 2 6 2.323 1.222 0.828 228.695 o
-13 2 7 61.438 62.685 2.151 22.234 o
-13 2 8 22.089 23.315 1.898 39.133 o
-13 2 9 5.830 5.624 1.989 40.446 o
-13 2 10 18.825 18.276 1.939 38.955 o
-13 2 11 50.811 55.839 2.514 19.472 o
-13 2 12 3.108 2.918 1.535 68.253 o
-13 2 13 16.533 17.721 2.171 32.118 o
-13 2 14 5.935 5.776 2.221 32.587 o
-13 2 15 14.703 14.046 2.635 22.597 o
-13 2 16 1.089 0.202 0.525 569.298 o
-13 3 1 10.461 10.067 1.242 93.473 o
-13 3 2 24.040 26.092 1.313 68.341 o
-13 3 3 22.094 21.104 1.282 74.205 o
-13 3 4 12.842 11.521 1.282 85.801 o
-13 3 5 21.777 19.074 1.363 68.578 o
-13 3 6 2.652 2.141 1.444 77.273 o
-13 3 7 16.763 17.075 1.616 54.542 o
-13 3 8 18.132 17.388 1.636 52.817 o
-13 3 9 53.698 53.334 2.302 21.940 o
-13 3 10 34.236 40.652 2.575 20.999 o
-13 3 11 3.575 3.463 1.777 51.046 o
-13 3 12 13.308 13.763 2.080 35.527 o
-13 3 13 16.423 15.540 1.878 42.068 o
-13 3 14 4.441 3.847 2.211 33.106 o
-13 3 15 5.518 4.079 3.211 15.806 o
-13 4 1 15.843 15.994 1.333 76.456 o
-13 4 2 4.490 3.352 1.252 100.137 o
-13 4 3 1.967 2.080 1.282 97.949 o
-13 4 4 0.606 0.364 1.323 93.519 o
-13 4 5 59.752 66.643 1.838 26.687 o
-13 4 6 23.891 25.758 1.757 43.713 o
-13 4 7 46.729 53.748 2.383 21.675 o
-13 4 8 10.423 9.502 1.767 49.327 o
-13 4 9 23.997 25.657 2.019 34.585 o
-13 4 10 20.234 21.538 2.363 26.890 o
-13 4 11 34.118 32.605 2.262 26.597 o
-13 4 12 6.597 6.371 2.060 37.642 o
-13 4 13 1.618 0.061 0.364 1092.650 o
-13 4 14 17.315 15.883 2.373 27.250 o
-13 4 15 0.838 -0.151 1.282 99.438 o
-13 5 1 2.554 1.060 0.454 680.239 o
-13 5 2 2.979 3.635 1.424 78.921 o
-13 5 3 50.992 54.051 1.666 33.775 o
-13 5 4 10.025 9.724 1.343 81.816 o
-13 5 5 17.788 17.872 1.454 64.497 o
-13 5 6 5.008 3.595 1.353 85.923 o
-13 5 7 24.626 23.163 1.777 43.062 o
-13 5 8 6.168 5.897 2.060 37.727 o
-13 5 9 25.103 25.223 2.504 23.591 o
-13 5 10 1.431 3.130 2.494 26.291 o
-13 5 11 5.739 3.918 2.898 19.360 o
-13 5 12 18.237 19.104 2.252 29.741 o
-13 5 13 2.884 1.565 2.191 33.950 o
-13 5 14 2.342 2.757 2.393 28.499 o
-13 6 1 15.748 16.469 1.636 53.861 o
-13 6 2 5.834 5.483 1.464 73.038 o
-13 6 3 3.989 3.564 1.282 95.957 o
-13 6 4 5.255 4.887 1.353 85.374 o
-13 6 5 23.460 24.274 1.555 53.689 o
-13 6 6 1.971 1.737 1.454 76.606 o
-13 6 7 21.226 21.093 1.676 48.938 o
-13 6 8 3.280 2.120 1.848 47.454 o
-13 6 9 12.562 9.360 1.868 44.005 o
-13 6 10 1.802 0.767 0.929 185.269 o
-13 6 11 27.763 30.363 2.676 20.548 o
-13 6 12 0.012 -0.313 9.047 2.009 o
-13 6 13 9.934 12.783 2.918 18.800 o
-13 7 1 13.348 14.197 1.555 60.349 o
-13 7 2 10.674 12.289 1.434 71.630 o
-13 7 3 18.333 17.852 1.575 56.155 o
-13 7 4 3.973 2.635 1.757 52.206 o
-13 7 5 16.396 16.045 1.727 48.830 o
-13 7 6 5.160 3.261 1.383 82.364 o
-13 7 7 6.697 5.543 1.777 50.150 o
-13 7 8 4.221 3.231 2.090 37.045 o
-13 7 9 25.553 26.152 2.060 33.107 o
-13 7 10 10.710 11.309 2.040 37.440 o
-13 7 11 5.793 6.957 2.969 18.413 o
-13 7 12 5.335 3.443 3.423 13.931 o
-13 8 1 22.764 23.163 1.706 46.645 o
-13 8 2 3.367 1.818 1.111 128.103 o
-13 8 3 3.026 1.070 0.979 164.372 o
-13 8 4 3.344 2.292 1.676 57.452 o
-13 8 5 15.844 15.439 1.919 40.609 o
-13 8 6 5.137 3.928 1.838 47.466 o
-13 8 7 18.197 17.913 2.019 36.355 o
-13 8 8 1.980 0.172 1.434 79.092 o
-13 8 9 13.699 14.389 2.030 37.081 o
-13 8 10 0.979 -0.162 0.677 351.019 o
-13 9 2 1.019 -0.141 0.777 267.060 o
-13 9 3 28.539 27.788 1.929 36.158 o
-13 9 4 15.465 16.257 2.060 35.652 o
-13 9 5 1.684 0.394 0.687 333.887 o
-13 9 6 0.298 -0.061 1.656 59.894 o
-13 9 7 4.285 3.362 2.918 19.149 o
-12 -9 -2 4.585 6.200 4.463 8.216 o
-12 -9 -1 13.082 13.228 3.534 12.864 o
-12 -9 0 17.055 17.398 3.403 13.710 o
-12 -8 -4 20.958 24.213 3.292 14.402 o
-12 -8 -3 11.036 11.460 2.999 17.811 o
-12 -8 -2 11.980 13.965 3.746 11.489 o
-12 -8 -1 0.609 1.929 5.513 5.407 o
-12 -8 0 3.303 1.202 1.989 41.087 o
-12 -7 -5 4.242 5.321 2.221 32.762 o
-12 -7 -4 10.744 11.693 3.019 17.585 o
-12 -7 -3 0.312 1.959 2.333 30.145 o
-12 -7 -2 13.918 14.651 3.272 14.915 o
-12 -7 -1 12.862 14.641 3.019 17.462 o
-12 -7 0 5.784 3.918 3.615 12.492 o
-12 -6 -7 1.982 4.281 1.858 46.983 o
-12 -6 -6 13.861 15.176 2.484 25.313 o
-12 -6 -5 3.273 5.584 2.100 36.671 o
-12 -6 -4 18.201 22.174 3.029 17.007 o
-12 -6 -3 12.990 10.148 2.262 30.576 o
-12 -6 -2 0.614 0.242 0.798 255.193 o
-12 -6 -1 15.927 16.863 2.878 18.974 o
-12 -6 0 8.147 5.109 3.988 10.247 o
-12 -5 -7 5.600 5.543 2.322 29.907 o
-12 -5 -6 1.391 2.009 3.292 15.138 o
-12 -5 -5 16.388 18.993 4.251 8.894 o
-12 -5 -4 24.755 25.950 4.089 9.438 o
-12 -5 -3 7.947 10.017 2.858 19.716 o
-12 -5 -2 18.549 18.781 2.938 18.078 o
-12 -4 -8 0.397 1.383 1.232 107.508 o
-12 -4 -7 0.513 -0.505 2.423 27.973 o
-12 -4 -6 23.003 23.022 2.534 23.355 o
-12 -4 -4 36.574 38.249 4.544 7.514 o
-12 -4 -3 20.595 22.638 3.746 11.273 o
-12 -4 -2 12.322 16.075 3.675 11.904 o
-12 -3 -9 9.431 10.168 2.494 25.612 o
-12 -3 -8 2.256 1.929 1.888 45.648 o
-12 -3 -7 15.472 15.964 2.484 25.157 o
-12 -3 -6 4.959 3.655 2.009 39.908 o
-12 -3 -5 4.224 3.423 3.766 11.534 o
-12 -3 -4 15.443 17.802 3.988 10.093 o
-12 -3 -3 0.875 1.040 3.574 12.854 o
-12 -3 -2 25.155 27.091 3.797 10.861 o
-12 -2 -9 10.868 12.248 2.595 23.568 o
-12 -2 -8 2.990 2.161 2.252 32.132 o
-12 -2 -7 4.523 4.180 2.060 38.033 o
-12 -2 -6 14.026 14.419 2.151 33.235 o
-12 -2 -5 9.203 9.027 2.423 27.137 o
-12 -2 -4 22.630 18.680 3.696 11.569 o
-12 -2 -3 10.524 10.279 3.282 14.964 o
-12 -2 -2 23.763 18.438 3.574 12.311 o
-12 -2 0 55.544 52.294 2.787 16.411 o
-12 -1 -9 10.386 9.239 2.262 30.885 o
-12 -1 -8 31.689 34.543 2.706 19.707 o
-12 -1 -7 28.135 29.686 2.534 22.628 o
-12 -1 -6 5.287 4.726 1.868 45.879 o
-12 -1 -5 33.836 32.150 2.797 18.530 o
-12 -1 -4 38.310 36.159 4.069 9.227 o
-12 -1 -3 10.019 9.179 2.343 28.902 o
-12 -1 -2 51.742 51.275 2.959 15.200 o
-12 -1 -1 103.039 103.428 5.170 4.935 o
-12 -1 0 13.933 11.148 2.080 35.627 o
-12 0 1 69.278 72.206 1.868 23.802 o
-12 0 2 8.442 8.896 1.121 115.024 o
-12 0 3 47.924 47.286 1.666 35.741 o
-12 0 4 34.570 33.109 1.737 40.054 o
-12 0 5 12.555 12.167 1.525 63.308 o
-12 0 6 35.806 36.058 1.858 35.526 o
-12 0 7 69.650 68.783 1.979 22.638 o
-12 0 8 0.143 -0.222 1.262 103.119 o
-12 0 9 24.695 23.699 1.838 40.639 o
-12 0 10 58.508 59.130 2.666 17.039 o
-12 0 11 4.625 2.817 1.757 52.045 o
-12 0 12 0.014 -0.091 0.727 311.022 o
-12 0 13 17.286 16.499 2.221 30.767 o
-12 0 14 7.787 7.048 2.181 33.522 o
-12 0 15 6.490 5.170 2.454 26.801 o
-12 0 16 7.443 7.977 3.504 13.232 o
-12 0 17 13.701 12.975 3.484 13.221 o
-12 1 1 49.190 48.609 1.565 37.778 o
-12 1 2 90.237 92.139 1.757 19.634 o
-12 1 3 8.334 7.179 1.060 128.258 o
-12 1 4 4.138 2.979 1.171 114.253 o
-12 1 5 56.319 55.990 1.838 28.608 o
-12 1 6 11.098 10.370 1.525 64.357 o
-12 1 7 37.020 36.139 1.908 33.832 o
-12 1 8 10.703 9.956 1.535 63.846 o
-12 1 9 46.703 47.892 2.120 26.165 o
-12 1 10 3.450 4.291 1.525 68.756 o
-12 1 11 36.302 38.108 1.898 34.039 o
-12 1 12 55.094 61.816 2.454 19.417 o
-12 1 13 3.781 3.655 1.777 50.984 o
-12 1 14 27.807 30.928 2.545 22.444 o
-12 1 15 7.199 6.765 2.484 26.071 o
-12 1 16 3.190 1.111 1.646 59.746 o
-12 1 17 2.686 1.121 1.828 48.687 o
-12 2 1 43.117 45.267 1.454 44.295 o
-12 2 2 14.105 12.198 1.050 117.049 o
-12 2 3 87.164 90.806 1.646 21.217 o
-12 2 4 9.807 9.199 1.202 100.141 o
-12 2 5 2.081 1.343 0.717 301.579 o
-12 2 6 1.202 1.292 1.484 73.942 o
-12 2 7 111.285 119.927 2.464 11.793 o
-12 2 8 3.238 4.190 1.282 96.279 o
-12 2 9 47.512 52.395 2.524 19.849 o
-12 2 10 5.015 5.513 1.737 52.828 o
-12 2 11 42.173 43.994 2.242 25.052 o
-12 2 12 34.527 36.563 1.979 32.498 o
-12 2 13 15.343 14.773 1.959 39.255 o
-12 2 14 13.489 13.430 1.979 38.977 o
-12 2 15 0.496 0.666 3.746 11.710 o
-12 2 16 25.656 30.009 2.757 19.628 o
-12 2 17 0.859 -0.576 3.039 17.783 o
-12 3 1 129.907 137.022 2.019 11.493 o
-12 3 2 12.043 10.966 1.101 112.339 o
-12 3 3 11.452 9.663 1.151 105.720 o
-12 3 4 3.931 3.504 1.191 110.533 o
-12 3 5 106.299 109.880 2.100 14.308 o
-12 3 6 10.650 9.471 1.383 77.257 o
-12 3 7 39.750 38.885 2.019 30.242 o
-12 3 8 2.708 0.677 1.212 109.406 o
-12 3 9 57.108 58.484 2.272 21.564 o
-12 3 10 4.328 5.836 1.706 54.793 o
-12 3 11 17.398 17.458 1.888 41.235 o
-12 3 12 16.298 15.409 1.929 40.135 o
-12 3 13 33.544 33.968 2.272 26.387 o
-12 3 14 29.679 31.706 2.363 25.296 o
-12 3 15 5.643 5.745 2.928 18.941 o
-12 3 16 2.077 1.545 4.635 7.644 o
-12 4 1 29.928 31.514 1.444 54.683 o
-12 4 2 30.451 31.191 1.454 53.966 o
-12 4 3 124.220 134.416 2.191 11.423 o
-12 4 4 0.505 1.070 1.575 65.968 o
-12 4 5 8.221 7.220 1.282 91.303 o
-12 4 6 2.624 2.221 1.242 103.699 o
-12 4 7 93.174 98.985 2.353 14.608 o
-12 4 8 12.449 13.773 1.686 52.550 o
-12 4 9 20.800 19.882 1.838 42.127 o
-12 4 10 10.869 11.339 2.120 34.756 o
-12 4 11 24.143 26.193 3.049 16.467 o
-12 4 12 0.020 -0.232 1.797 50.899 o
-12 4 13 33.200 33.796 2.302 25.868 o
-12 4 14 1.137 0.576 5.978 4.600 o
-12 4 15 1.262 0.565 0.767 271.313 o
-12 4 16 10.251 9.572 2.413 27.257 o
-12 5 1 73.324 76.457 1.888 22.445 o
-12 5 2 31.579 32.029 1.484 51.669 o
-12 5 3 5.708 5.735 1.232 101.175 o
-12 5 4 27.511 28.727 1.454 56.186 o
-12 5 5 101.285 104.670 2.242 14.260 o
-12 5 6 0.107 0.889 1.121 130.274 o
-12 5 7 10.897 9.845 1.727 51.329 o
-12 5 8 4.829 4.806 1.656 58.082 o
-12 5 9 6.174 5.321 1.494 70.130 o
-12 5 10 2.452 1.818 2.151 35.254 o
-12 5 11 23.139 19.700 2.373 26.477 o
-12 5 12 16.532 15.752 2.454 25.667 o
-12 5 13 4.440 3.332 2.999 18.135 o
-12 5 14 2.072 0.323 0.242 1960.300 o
-12 5 15 28.649 26.879 2.413 24.756 o
-12 6 1 3.638 2.545 1.323 90.966 o
-12 6 2 6.700 6.018 1.444 74.434 o
-12 6 3 52.202 53.001 1.747 31.783 o
-12 6 4 13.553 12.087 1.444 69.223 o
-12 6 5 14.111 13.288 1.494 64.588 o
-12 6 6 11.229 10.077 1.404 74.744 o
-12 6 7 47.654 50.204 2.353 22.196 o
-12 6 8 16.331 15.267 1.858 42.949 o
-12 6 9 27.476 27.929 2.141 30.549 o
-12 6 10 8.901 7.553 1.858 45.402 o
-12 6 11 6.591 5.745 2.030 38.784 o
-12 6 12 8.766 8.411 2.635 23.095 o
-12 6 13 32.701 32.120 2.787 18.725 o
-12 6 14 7.309 6.301 3.322 14.719 o
-12 7 1 41.202 39.642 1.868 33.467 o
-12 7 2 7.670 6.018 1.303 89.590 o
-12 7 3 11.614 10.895 1.404 74.271 o
-12 7 4 18.180 19.538 1.636 52.400 o
-12 7 5 49.497 50.861 1.959 28.353 o
-12 7 6 20.247 20.952 1.636 51.362 o
-12 7 7 7.041 5.735 1.807 48.449 o
-12 7 8 1.089 1.252 2.575 24.731 o
-12 7 9 4.546 2.625 1.888 45.229 o
-12 7 10 16.906 17.963 2.050 35.601 o
-12 7 11 7.608 6.018 2.847 19.942 o
-12 7 12 10.622 9.764 3.241 15.335 o
-12 7 13 4.092 2.656 3.716 11.854 o
-12 8 1 7.156 7.613 1.575 62.658 o
-12 8 2 21.118 22.547 1.616 51.783 o
-12 8 3 18.017 18.468 1.706 48.956 o
-12 8 4 0.085 0.000 0.091 17909.200 o
-12 8 5 6.485 5.715 1.585 62.476 o
-12 8 6 8.327 7.381 1.515 67.021 o
-12 8 7 37.198 41.127 2.181 27.108 o
-12 8 8 8.456 7.906 1.787 48.941 o
-12 8 9 6.727 4.645 2.363 28.862 o
-12 8 10 5.129 5.311 2.333 29.697 o
-12 8 11 5.744 6.028 3.474 13.505 o
-12 8 12 3.010 1.898 3.484 13.499 o
-12 9 1 0.961 0.293 1.030 153.253 o
-12 9 2 11.964 12.188 1.949 40.503 o
-12 9 3 0.467 1.161 1.505 72.277 o
-12 9 4 13.461 12.985 1.747 49.103 o
-12 9 5 23.902 25.153 1.838 40.656 o
-12 9 6 4.571 3.696 1.969 41.580 o
-12 9 7 11.221 11.309 2.131 34.401 o
-12 9 8 5.115 4.776 2.201 33.300 o
-12 9 9 13.681 12.157 2.090 35.269 o
-12 9 10 0.554 -0.333 1.313 95.098 o
-12 10 2 1.831 1.717 1.535 68.913 o
-12 10 3 5.682 4.089 1.565 64.605 o
-12 10 4 8.069 7.684 1.939 41.987 o
-12 10 5 1.800 0.081 0.545 517.281 o
-11 -10 -2 14.157 16.923 4.726 7.250 o
-11 -10 -1 7.534 9.078 3.847 10.991 o
-11 -10 0 11.401 14.631 3.474 13.326 o
-11 -9 -4 6.932 9.360 4.211 9.195 o
-11 -9 -3 12.739 13.520 3.070 16.933 o
-11 -9 -2 14.353 14.146 4.897 6.765 o
-11 -9 -1 12.093 13.086 3.443 13.558 o
-11 -9 0 12.914 13.753 3.292 14.774 o
-11 -8 -6 13.738 13.662 3.120 16.372 o
-11 -8 -5 10.909 11.794 3.039 17.351 o
-11 -8 -4 13.148 12.076 2.918 18.689 o
-11 -8 -3 4.846 5.988 2.868 19.762 o
-11 -8 -2 5.821 5.947 2.322 29.873 o
-11 -8 -1 16.712 16.711 3.090 16.532 o
-11 -8 0 0.176 0.111 2.928 19.172 o
-11 -7 -7 4.845 3.302 2.474 26.527 o
-11 -7 -6 12.963 14.490 3.120 16.383 o
-11 -7 -5 8.059 8.552 2.282 30.610 o
-11 -7 -4 4.806 6.563 2.706 22.150 o
-11 -7 -3 13.466 12.662 2.292 29.638 o
-11 -7 -2 24.109 26.324 2.322 27.039 o
-11 -7 -1 16.637 14.914 2.928 18.364 o
-11 -7 0 22.475 21.820 4.089 9.498 o
-11 -6 -8 28.748 32.483 2.847 18.251 o
-11 -6 -7 0.219 1.515 2.908 19.420 o
-11 -6 -6 3.371 0.737 1.585 64.323 o
-11 -6 -5 5.162 7.159 3.766 11.503 o
-11 -6 -4 28.671 32.665 4.473 7.864 o
-11 -6 -3 8.643 6.614 2.141 34.686 o
-11 -6 -2 35.479 38.996 2.444 22.884 o
-11 -6 -1 26.393 27.283 4.059 9.539 o
-11 -6 0 20.854 19.125 3.867 10.626 o
-11 -5 -9 0.159 1.040 2.201 33.885 o
-11 -5 -8 0.219 0.616 1.060 145.542 o
-11 -5 -7 5.346 7.341 2.232 32.282 o
-11 -5 -6 13.027 13.783 2.211 31.704 o
-11 -5 -5 3.374 3.837 3.362 14.464 o
-11 -5 -4 21.582 21.154 2.736 20.433 o
-11 -5 -3 23.387 26.889 2.807 19.219 o
-11 -5 -2 40.260 42.470 4.251 8.428 o
-11 -4 -9 1.579 0.747 1.262 101.821 o
-11 -4 -8 57.851 64.815 3.181 12.882 o
-11 -4 -7 0.217 0.384 10.299 1.550 o
-11 -4 -6 0.878 0.878 1.908 44.970 o
-11 -4 -5 10.089 8.229 2.524 25.039 o
-11 -4 -4 47.257 49.215 4.574 7.225 o
-11 -4 -3 13.637 13.894 3.463 13.364 o
-11 -4 -2 24.610 27.152 3.706 11.384 o
-11 -3 -10 23.829 27.536 2.746 19.957 o
-11 -3 -9 0.393 0.626 0.687 343.163 o
-11 -3 -8 10.454 9.794 2.343 28.839 o
-11 -3 -7 1.312 0.545 0.323 1347.480 o
-11 -3 -6 81.523 83.102 3.645 9.276 o
-11 -3 -5 17.691 16.307 2.555 23.685 o
-11 -3 -4 0.721 1.949 3.867 10.981 o
-11 -3 -3 27.533 25.274 3.776 10.943 o
-11 -3 0 38.789 35.179 3.241 13.974 o
-11 -2 -10 11.101 11.319 2.060 36.690 o
-11 -2 -9 0.970 1.323 1.494 73.036 o
-11 -2 -8 53.833 60.685 2.545 18.603 o
-11 -2 -7 11.239 12.642 1.828 45.763 o
-11 -2 -6 11.710 12.157 2.433 26.613 o
-11 -2 -5 0.099 0.071 0.394 1050.510 o
-11 -2 -4 105.480 109.234 3.625 8.167 o
-11 -2 -3 1.318 -0.030 0.151 4380.970 o
-11 -2 -1 13.037 11.612 2.797 20.302 o
-11 -2 0 60.723 60.837 2.726 16.244 o
-11 -1 -10 0.507 1.282 2.292 31.224 o
-11 -1 -9 16.881 17.630 2.131 33.203 o
-11 -1 -8 3.679 2.959 1.777 51.077 o
-11 -1 -7 7.522 6.937 1.828 47.201 o
-11 -1 -6 24.551 24.314 1.898 38.448 o
-11 -1 -5 22.767 22.285 2.050 34.229 o
-11 -1 -4 26.313 27.475 2.100 31.787 o
-11 -1 -3 28.956 26.526 2.454 24.031 o
-11 -1 -2 83.110 90.978 2.232 16.839 o
-11 -1 -1 5.155 4.635 1.474 72.583 o
-11 -1 0 5.291 4.443 1.050 137.545 o
-11 0 1 0.584 0.000 0.364 1187.140 o
-11 0 2 1.023 1.555 0.868 212.398 o
-11 0 3 273.500 283.989 3.191 3.280 o
-11 0 4 17.572 15.045 1.414 68.550 o
-11 0 5 113.536 114.626 2.403 12.077 o
-11 0 6 0.940 0.192 0.424 859.720 o
-11 0 7 0.621 0.111 0.777 268.730 o
-11 0 8 6.309 5.644 1.393 79.923 o
-11 0 9 135.025 147.028 2.575 9.231 o
-11 0 10 17.270 17.408 1.444 65.668 o
-11 0 11 68.063 73.085 2.373 18.255 o
-11 0 12 3.978 3.554 1.585 63.683 o
-11 0 13 53.085 51.345 2.676 17.711 o
-11 0 14 0.811 0.242 1.464 76.344 o
-11 0 15 24.294 24.729 2.464 24.390 o
-11 0 16 5.105 4.493 3.272 15.235 o
-11 0 17 0.696 0.374 2.797 20.993 o
-11 0 18 13.820 14.833 3.706 11.700 o
-11 1 1 148.031 148.129 1.787 10.458 o
-11 1 2 19.448 18.226 1.010 109.946 o
-11 1 3 107.073 107.275 1.706 16.522 o
-11 1 4 27.287 27.818 1.252 69.640 o
-11 1 5 135.532 136.254 2.252 10.415 o
-11 1 6 10.384 9.582 1.262 91.136 o
-11 1 7 183.624 188.205 3.019 5.882 o
-11 1 8 0.400 1.070 1.070 142.262 o
-11 1 9 28.301 27.273 1.767 41.770 o
-11 1 10 6.787 6.836 1.494 69.532 o
-11 1 11 57.409 58.373 1.999 25.405 o
-11 1 12 1.395 0.212 0.384 1003.240 o
-11 1 13 31.616 33.241 2.110 30.158 o
-11 1 14 14.911 14.651 1.908 41.277 o
-11 1 15 11.430 9.098 2.181 33.007 o
-11 1 16 11.238 9.451 3.120 16.510 o
-11 1 17 1.233 0.071 0.616 417.971 o
-11 2 1 40.549 39.935 1.212 57.215 o
-11 2 2 23.493 22.598 1.060 94.043 o
-11 2 3 173.867 177.876 2.141 7.611 o
-11 2 4 11.593 10.592 1.121 109.827 o
-11 2 5 294.341 304.083 2.948 3.021 o
-11 2 6 0.677 0.757 1.161 120.908 o
-11 2 7 39.312 38.501 1.807 35.718 o
-11 2 8 21.676 21.144 1.656 49.767 o
-11 2 9 114.056 123.804 3.474 8.090 o
-11 2 10 1.374 1.050 0.969 171.130 o
-11 2 11 25.647 23.446 1.878 38.986 o
-11 2 12 3.574 3.797 1.676 57.200 o
-11 2 13 9.793 7.805 1.585 60.911 o
-11 2 14 1.253 0.848 1.999 40.947 o
-11 2 15 17.796 13.975 1.979 38.147 o
-11 2 16 6.171 4.079 3.251 15.405 o
-11 2 17 1.527 0.364 3.393 14.262 o
-11 3 1 68.260 67.612 1.575 28.731 o
-11 3 2 8.919 7.250 1.020 136.136 o
-11 3 3 118.573 123.117 1.929 13.337 o
-11 3 4 43.565 43.055 1.494 43.198 o
-11 3 5 45.758 48.205 1.535 39.983 o
-11 3 6 27.466 29.888 1.353 61.859 o
-11 3 7 185.900 192.234 2.868 5.957 o
-11 3 8 1.481 0.707 1.202 112.295 o
-11 3 9 13.989 12.955 1.908 41.639 o
-11 3 10 15.674 13.419 2.555 23.932 o
-11 3 11 36.524 36.118 2.454 22.769 o
-11 3 12 0.155 1.717 2.120 36.481 o
-11 3 13 24.986 23.052 1.999 35.246 o
-11 3 14 21.735 21.093 2.070 33.922 o
-11 3 15 2.235 2.534 3.918 10.685 o
-11 3 16 7.798 7.149 2.625 23.352 o
-11 3 17 6.535 5.422 4.201 9.258 o
-11 4 1 27.691 29.303 1.303 65.194 o
-11 4 2 15.389 15.176 1.151 97.781 o
-11 4 3 49.195 49.124 1.605 36.610 o
-11 4 4 2.707 2.676 1.292 95.741 o
-11 4 5 49.781 48.589 1.737 33.264 o
-11 4 6 32.924 33.826 1.636 44.153 o
-11 4 7 36.146 36.886 1.838 35.912 o
-11 4 8 15.782 14.793 1.595 56.586 o
-11 4 9 152.723 163.749 3.100 7.013 o
-11 4 10 7.697 6.816 1.908 43.418 o
-11 4 11 41.443 42.459 3.100 14.823 o
-11 4 12 43.344 46.054 2.676 18.725 o
-11 4 13 5.050 3.373 2.252 31.915 o
-11 4 14 6.267 6.442 1.939 42.386 o
-11 4 15 16.843 16.519 2.131 33.288 o
-11 4 16 12.895 12.076 2.807 20.157 o
-11 4 17 6.275 4.059 4.453 8.250 o
-11 5 1 123.309 128.560 2.302 11.299 o
-11 5 2 12.352 11.491 1.303 83.921 o
-11 5 3 7.388 6.392 1.222 100.876 o
-11 5 4 11.695 10.037 1.171 102.144 o
-11 5 5 1.628 1.000 0.919 189.394 o
-11 5 6 7.866 6.573 1.373 80.931 o
-11 5 7 100.379 104.932 2.666 12.131 o
-11 5 8 14.714 17.499 1.727 49.117 o
-11 5 9 12.163 10.471 1.626 56.840 o
-11 5 10 22.573 22.093 1.868 40.256 o
-11 5 11 49.057 48.245 2.646 18.499 o
-11 5 12 2.485 2.837 2.726 21.989 o
-11 5 13 3.350 3.019 3.787 11.423 o
-11 5 14 30.425 33.584 2.726 19.574 o
-11 5 15 7.892 7.795 2.312 29.883 o
-11 5 16 0.668 -0.010 0.040 18398.600 o
-11 6 1 5.233 3.736 1.484 71.798 o
-11 6 2 10.163 9.259 1.616 58.418 o
-11 6 3 53.822 56.293 1.676 32.402 o
-11 6 4 28.949 29.616 1.444 55.726 o
-11 6 5 61.501 63.583 1.908 25.544 o
-11 6 6 1.587 1.393 1.353 88.574 o
-11 6 7 8.735 8.058 1.595 60.531 o
-11 6 8 8.312 8.058 1.636 57.893 o
-11 6 9 166.017 179.027 3.453 5.853 o
-11 6 10 2.371 2.575 2.120 36.231 o
-11 6 11 22.311 19.852 2.302 28.052 o
-11 6 12 10.429 9.088 3.009 17.754 o
-11 6 13 16.771 14.308 2.474 25.314 o
-11 6 14 3.181 2.575 3.918 10.677 o
-11 6 15 10.171 8.987 4.059 9.859 o
-11 7 1 54.644 55.667 2.373 20.766 o
-11 7 2 15.452 15.308 1.656 53.019 o
-11 7 3 62.457 64.017 1.949 24.724 o
-11 7 4 4.798 4.009 1.464 73.850 o
-11 7 5 11.735 9.502 1.353 79.644 o
-11 7 6 1.835 1.656 1.363 87.078 o
-11 7 7 81.098 82.869 2.696 14.084 o
-11 7 8 2.979 1.565 1.242 103.677 o
-11 7 9 8.456 7.199 1.797 48.499 o
-11 7 10 1.761 1.303 2.363 29.311 o
-11 7 11 28.224 26.869 3.211 14.792 o
-11 7 12 1.194 1.908 4.776 7.201 o
-11 7 13 22.224 21.881 2.726 20.512 o
-11 7 14 3.226 2.201 3.261 15.386 o
-11 8 1 7.548 6.563 1.535 65.862 o
-11 8 2 15.103 13.268 1.525 61.898 o
-11 8 3 33.563 33.008 1.727 40.732 o
-11 8 4 1.346 1.747 1.818 49.404 o
-11 8 5 31.585 28.485 1.706 42.840 o
-11 8 6 0.581 0.464 1.222 109.502 o
-11 8 7 6.663 5.877 1.646 58.073 o
-11 8 8 3.964 2.706 2.070 37.819 o
-11 8 9 42.206 43.954 2.393 22.630 o
-11 8 10 1.068 0.000 0.172 3987.250 o
-11 8 11 28.160 27.889 3.272 14.272 o
-11 8 12 0.737 -0.535 289.219 0.002 o
-11 8 13 7.053 6.583 3.999 10.199 o
-11 9 1 50.044 52.517 2.040 26.607 o
-11 9 2 2.476 1.252 2.060 38.433 o
-11 9 3 24.912 25.041 1.908 37.940 o
-11 9 4 10.908 9.037 1.686 53.755 o
-11 9 5 11.744 10.431 1.616 57.649 o
-11 9 6 3.390 1.545 2.635 23.511 o
-11 9 7 18.498 16.802 1.888 41.063 o
-11 9 8 0.906 1.262 5.745 4.979 o
-11 9 9 4.347 2.464 1.878 45.754 o
-11 9 10 0.234 0.000 0.131 8319.850 o
-11 9 11 7.816 5.776 4.049 9.945 o
-11 10 1 4.368 4.009 1.858 46.595 o
-11 10 2 1.466 0.010 0.252 2054.040 o
-11 10 3 25.987 25.869 2.009 34.479 o
-11 10 4 4.777 4.423 1.939 42.777 o
-11 10 5 12.294 11.693 1.686 52.924 o
-11 10 6 0.382 0.515 1.858 47.541 o
-11 10 7 4.259 3.241 2.383 28.602 o
-11 10 8 3.785 3.049 1.848 47.285 o
-11 10 9 19.313 18.246 2.706 21.092 o
-10 -11 -1 9.211 7.987 5.190 6.064 o
-10 -11 0 13.414 15.691 3.494 13.125 o
-10 -10 -4 9.775 9.815 3.191 15.836 o
-10 -10 -3 1.249 0.525 5.947 4.647 o
-10 -10 -2 15.953 17.428 3.140 16.038 o
-10 -10 -1 4.816 4.877 3.625 12.430 o
-10 -10 0 2.360 1.908 5.543 5.344 o
-10 -9 -6 11.839 11.854 3.150 16.150 o
-10 -9 -5 1.443 2.322 3.029 17.863 o
-10 -9 -4 11.480 10.471 3.019 17.581 o
-10 -9 -3 26.001 28.263 3.160 15.292 o
-10 -9 -2 6.211 5.170 2.454 26.819 o
-10 -9 -1 6.830 5.927 2.252 31.648 o
-10 -9 0 23.270 19.962 2.969 17.495 o
-10 -8 -7 0.057 0.222 7.694 2.778 o
-10 -8 -6 25.168 31.453 3.403 13.299 o
-10 -8 -5 11.403 11.976 3.029 17.445 o
-10 -8 -4 3.716 4.473 2.514 25.721 o
-10 -8 -3 5.099 4.413 2.464 26.694 o
-10 -8 -2 34.031 33.008 2.413 23.851 o
-10 -8 -1 13.908 15.035 2.171 32.635 o
-10 -8 0 27.646 28.727 4.312 8.473 o
-10 -7 -8 5.562 5.887 2.444 27.055 o
-10 -7 -7 0.280 1.000 2.312 30.706 o
-10 -7 -6 2.888 2.383 2.635 23.515 o
-10 -7 -5 2.059 1.626 2.009 40.399 o
-10 -7 -4 59.313 69.187 3.564 10.588 o
-10 -7 -3 28.511 30.080 2.312 26.493 o
-10 -7 -2 10.505 11.471 2.070 36.425 o
-10 -7 -1 26.653 27.152 2.625 21.469 o
-10 -7 0 49.657 44.944 4.493 7.462 o
-10 -6 -9 0.816 3.716 3.686 12.079 o
-10 -6 -8 44.164 46.862 2.999 15.422 o
-10 -6 -7 1.836 2.080 1.757 52.711 o
-10 -6 -6 69.642 76.892 3.019 12.966 o
-10 -6 -5 9.485 10.259 2.464 26.218 o
-10 -6 -4 10.665 9.310 2.494 25.557 o
-10 -6 -3 22.939 23.729 2.686 20.977 o
-10 -6 -2 66.873 69.652 2.646 16.087 o
-10 -6 -1 5.538 4.816 2.272 31.259 o
-10 -6 0 2.489 1.828 7.735 2.747 o
-10 -5 -10 16.957 18.892 2.646 22.140 o
-10 -5 -9 1.392 1.989 1.898 45.293 o
-10 -5 -8 1.502 1.505 2.090 37.422 o
-10 -5 -7 3.868 3.928 1.979 41.246 o
-10 -5 -6 54.877 57.676 2.746 16.632 o
-10 -5 -5 4.297 4.514 2.302 30.566 o
-10 -5 -4 46.941 51.386 2.433 21.109 o
-10 -5 -3 3.736 2.646 3.524 13.178 o
-10 -4 -11 0.244 0.101 0.444 819.769 o
-10 -4 -10 6.728 6.170 2.100 36.245 o
-10 -4 -9 1.884 3.282 2.333 30.000 o
-10 -4 -8 47.499 49.669 2.363 22.106 o
-10 -4 -7 2.664 2.545 2.100 36.896 o
-10 -4 -6 22.149 20.801 2.585 22.678 o
-10 -4 -5 6.892 3.867 2.090 36.704 o
-10 -4 -4 0.103 0.596 2.100 37.241 o
-10 -4 -3 40.383 41.349 3.847 10.134 o
-10 -3 -11 9.589 9.017 2.252 31.242 o
-10 -3 -10 6.880 6.917 2.120 35.516 o
-10 -3 -9 6.284 4.776 1.949 42.089 o
-10 -3 -8 0.805 0.030 0.121 6944.570 o
-10 -3 -7 20.693 20.599 1.868 40.889 o
-10 -3 -6 15.119 15.197 1.999 37.815 o
-10 -3 -5 19.188 18.751 1.949 38.474 o
-10 -3 -4 61.957 64.977 2.999 13.882 o
-10 -3 -3 43.819 45.236 3.988 9.379 o
-10 -3 0 122.750 124.551 4.584 5.473 o
-10 -2 -11 1.540 1.595 1.706 55.962 o
-10 -2 -10 1.932 1.747 2.161 34.978 o
-10 -2 -9 8.205 6.917 1.929 42.453 o
-10 -2 -8 30.505 30.928 2.100 30.784 o
-10 -2 -7 10.089 10.410 1.737 50.916 o
-10 -2 -6 69.380 70.086 2.686 15.540 o
-10 -2 -5 2.568 2.585 1.656 59.001 o
-10 -2 -4 7.369 7.109 1.787 49.281 o
-10 -2 -3 64.318 61.857 2.746 15.758 o
-10 -2 -2 260.263 267.732 6.856 1.977 o
-10 -2 -1 116.810 118.321 3.494 8.034 o
-10 -2 0 57.178 57.404 3.090 13.715 o
-10 -1 -12 0.770 1.706 2.524 25.732 o
-10 -1 -11 4.934 4.483 2.131 35.536 o
-10 -1 -10 27.833 28.525 2.232 28.359 o
-10 -1 -9 11.914 13.874 1.838 45.004 o
-10 -1 -8 37.394 36.795 2.100 29.088 o
-10 -1 -7 9.142 8.330 1.464 70.763 o
-10 -1 -6 73.548 78.285 2.343 17.656 o
-10 -1 -5 5.744 4.150 1.494 70.565 o
-10 -1 -4 116.649 114.928 1.979 13.676 o
-10 -1 -3 44.178 41.197 1.494 43.332 o
-10 -1 -2 10.651 9.794 1.464 69.639 o
-10 -1 -1 100.844 100.580 2.181 14.840 o
-10 -1 0 142.849 143.686 2.040 10.312 o
-10 0 1 71.725 68.612 1.232 33.073 o
-10 0 2 14.115 11.673 0.828 167.309 o
-10 0 3 78.210 78.739 1.383 27.301 o
-10 0 4 23.002 20.851 1.060 95.901 o
-10 0 5 136.342 132.427 2.221 10.575 o
-10 0 6 0.644 0.040 0.434 839.888 o
-10 0 7 138.680 140.556 2.141 10.403 o
-10 0 8 0.101 0.384 0.737 300.883 o
-10 0 9 100.960 103.478 1.868 16.563 o
-10 0 10 26.508 27.647 1.535 52.614 o
-10 0 11 103.369 105.053 2.545 12.505 o
-10 0 12 4.050 2.948 1.595 62.974 o
-10 0 13 0.942 1.676 1.999 40.935 o
-10 0 14 88.038 104.427 3.251 10.197 o
-10 0 15 2.825 0.404 1.727 54.523 o
-10 0 17 19.551 17.024 3.332 14.215 o
-10 0 18 24.619 27.182 3.635 11.808 o
-10 1 1 3.344 2.696 0.818 227.078 o
-10 1 2 76.717 76.185 1.303 29.135 o
-10 1 3 76.608 75.276 1.393 28.078 o
-10 1 4 26.710 26.455 1.151 78.903 o
-10 1 5 78.916 78.315 1.575 24.840 o
-10 1 6 23.544 21.770 1.252 75.325 o
-10 1 7 71.475 71.853 1.787 24.457 o
-10 1 8 11.592 13.884 1.565 60.449 o
-10 1 9 157.053 158.044 2.847 7.439 o
-10 1 10 18.111 19.276 1.605 54.172 o
-10 1 11 8.052 6.079 1.383 79.874 o
-10 1 12 61.841 61.745 2.272 20.740 o
-10 1 13 20.276 19.811 1.797 43.926 o
-10 1 14 1.196 1.787 1.949 43.032 o
-10 1 15 8.362 7.048 2.635 23.151 o
-10 1 16 41.368 44.519 3.675 10.942 o
-10 1 17 2.253 1.424 6.866 3.485 o
-10 1 18 6.121 6.291 3.544 12.969 o
-10 2 1 83.532 83.839 1.515 23.896 o
-10 2 2 7.853 6.412 0.909 169.446 o
-10 2 3 32.206 32.786 1.222 65.701 o
-10 2 4 2.022 0.384 0.515 566.817 o
-10 2 5 40.367 40.036 1.282 53.991 o
-10 2 6 1.214 0.626 0.889 203.883 o
-10 2 7 97.928 99.076 1.919 16.883 o
-10 2 8 19.897 18.246 1.464 62.521 o
-10 2 9 25.308 22.083 1.848 40.318 o
-10 2 10 23.900 23.396 1.969 36.366 o
-10 2 11 160.449 164.537 3.120 6.724 o
-10 2 12 11.589 9.976 1.656 55.222 o
-10 2 13 18.905 17.782 1.686 49.793 o
-10 2 14 14.588 13.500 1.807 45.794 o
-10 2 15 24.374 22.497 2.423 25.227 o
-10 2 16 2.095 2.575 3.140 16.609 o
-10 2 17 23.978 25.516 3.585 12.160 o
-10 2 18 3.216 1.777 6.018 4.534 o
-10 3 1 34.375 33.998 1.202 64.718 o
-10 3 2 46.639 46.327 1.303 47.644 o
-10 3 3 122.889 124.420 2.161 11.998 o
-10 3 4 19.223 19.902 1.272 77.984 o
-10 3 5 55.775 52.527 1.585 34.390 o
-10 3 6 2.013 1.717 1.080 137.029 o
-10 3 7 34.572 33.715 1.646 43.185 o
-10 3 8 0.209 0.091 1.535 69.724 o
-10 3 9 146.453 154.621 2.777 8.056 o
-10 3 10 55.432 60.716 2.484 19.102 o
-10 3 11 29.343 27.071 2.201 28.919 o
-10 3 12 24.770 23.709 2.191 30.050 o
-10 3 13 70.731 69.682 2.464 17.310 o
-10 3 14 2.199 0.959 0.535 519.039 o
-10 3 15 5.590 4.231 2.171 34.198 o
-10 3 16 9.346 10.451 2.605 23.532 o
-10 3 17 12.548 9.683 3.241 15.288 o
-10 3 18 10.404 10.148 3.968 10.301 o
-10 4 1 100.389 102.256 2.080 15.399 o
-10 4 2 29.132 29.727 1.333 62.069 o
-10 4 3 26.200 24.002 1.373 63.290 o
-10 4 4 14.953 13.187 1.101 106.815 o
-10 4 5 300.843 305.062 3.352 2.818 o
-10 4 6 4.813 4.554 1.131 120.391 o
-10 4 7 109.922 113.848 2.494 11.968 o
-10 4 8 10.569 10.410 1.474 68.663 o
-10 4 9 53.171 52.920 2.019 26.349 o
-10 4 10 4.359 3.938 1.555 65.917 o
-10 4 11 115.818 121.482 3.261 8.679 o
-10 4 12 0.936 0.384 4.312 8.840 o
-10 4 13 14.939 16.095 2.181 32.156 o
-10 4 14 15.653 16.469 1.898 41.328 o
-10 4 15 25.126 22.931 2.131 31.565 o
-10 4 16 7.024 5.321 2.716 21.920 o
-10 4 17 1.779 1.111 5.503 5.425 o
-10 5 1 61.521 60.483 2.090 23.195 o
-10 5 2 27.580 26.829 1.706 44.443 o
-10 5 3 322.777 326.085 3.887 2.389 o
-10 5 4 58.475 59.252 1.626 31.692 o
-10 5 5 75.753 74.287 1.979 21.207 o
-10 5 6 8.092 7.159 1.292 90.126 o
-10 5 7 91.176 89.958 2.393 14.942 o
-10 5 8 34.880 36.300 1.848 36.022 o
-10 5 9 17.967 16.146 1.616 54.258 o
-10 5 10 3.993 3.716 1.585 63.652 o
-10 5 11 2.542 1.666 1.727 54.447 o
-10 5 12 0.842 0.596 2.868 19.965 o
-10 5 13 45.691 46.741 2.736 17.848 o
-10 5 14 3.167 2.050 3.090 17.136 o
-10 5 15 5.910 5.029 2.161 34.438 o
-10 5 16 25.924 29.393 3.433 13.088 o
-10 5 17 3.620 2.726 6.190 4.285 o
-10 6 1 48.455 48.185 1.797 32.274 o
-10 6 2 42.810 43.540 1.737 35.978 o
-10 6 3 1.859 0.434 0.687 332.359 o
-10 6 4 34.336 32.857 1.474 50.581 o
-10 6 5 155.964 159.165 2.969 7.227 o
-10 6 6 40.006 39.965 1.575 42.508 o
-10 6 7 37.559 34.856 1.919 33.589 o
-10 6 8 0.307 0.384 0.626 413.822 o
-10 6 9 10.024 8.058 1.626 57.999 o
-10 6 10 2.407 1.040 1.060 142.068 o
-10 6 11 54.537 55.243 3.373 12.049 o
-10 6 12 4.415 0.252 0.878 199.317 o
-10 6 13 17.986 16.620 2.393 26.725 o
-10 6 14 7.482 5.493 3.241 15.458 o
-10 6 15 15.867 11.905 3.615 12.271 o
-10 6 16 5.714 6.230 4.958 6.660 o
-10 7 1 6.595 5.786 1.404 78.644 o
-10 7 2 60.340 62.998 1.858 26.624 o
-10 7 3 59.430 60.867 1.828 27.546 o
-10 7 4 18.470 16.328 1.404 68.421 o
-10 7 5 36.931 36.855 1.787 37.189 o
-10 7 6 12.773 11.178 1.464 68.196 o
-10 7 7 4.594 3.928 1.605 61.882 o
-10 7 8 19.304 17.670 1.919 39.650 o
-10 7 9 48.446 45.670 2.211 24.530 o
-10 7 10 15.336 16.186 1.888 41.829 o
-10 7 11 6.007 3.514 3.332 14.683 o
-10 7 12 8.793 8.088 2.878 19.451 o
-10 7 13 35.467 33.998 3.352 13.293 o
-10 7 14 14.964 14.348 3.514 12.961 o
-10 8 1 5.931 5.776 1.353 84.675 o
-10 8 2 11.380 10.249 1.414 73.653 o
-10 8 3 5.833 5.008 1.393 80.370 o
-10 8 4 18.106 17.660 1.636 52.776 o
-10 8 5 29.551 28.980 1.757 41.515 o
-10 8 6 37.558 39.693 1.888 33.819 o
-10 8 7 46.850 45.337 2.635 18.925 o
-10 8 8 14.790 13.076 1.908 41.464 o
-10 8 9 7.655 6.594 1.929 42.573 o
-10 8 10 40.646 43.520 2.746 18.236 o
-10 8 11 59.726 64.462 3.797 9.591 o
-10 8 12 10.798 8.734 4.554 7.849 o
-10 8 13 2.032 1.494 3.837 11.145 o
-10 8 14 6.611 4.160 5.796 4.879 o
-10 9 1 8.470 6.664 1.424 75.322 o
-10 9 2 10.757 10.925 1.515 65.168 o
-10 9 3 31.192 29.969 1.868 37.151 o
-10 9 4 29.132 29.272 1.898 36.788 o
-10 9 5 17.361 15.166 1.686 50.741 o
-10 9 6 12.598 10.471 1.686 53.019 o
-10 9 7 8.205 6.452 1.848 46.128 o
-10 9 8 17.041 16.671 1.828 43.890 o
-10 9 9 27.788 29.050 2.201 29.000 o
-10 9 10 0.722 0.596 1.636 61.197 o
-10 9 11 0.347 0.050 0.424 894.128 o
-10 9 12 4.177 1.848 5.311 5.817 o
-10 10 1 11.947 10.562 1.565 60.980 o
-10 10 2 4.361 2.948 1.676 57.105 o
-10 10 3 2.787 1.696 1.717 55.022 o
-10 10 4 0.912 0.464 1.818 49.588 o
-10 10 5 23.826 23.375 1.848 40.531 o
-10 10 6 15.703 14.934 2.030 36.707 o
-10 10 7 13.029 10.794 2.454 26.146 o
-10 10 8 2.996 1.656 2.706 22.320 o
-10 10 9 3.218 2.575 3.726 11.800 o
-10 11 1 0.743 0.172 0.990 166.384 o
-10 11 2 8.283 8.421 2.110 35.588 o
-10 11 3 11.774 10.380 1.989 39.159 o
-10 11 4 8.751 7.755 2.221 32.218 o
-10 11 5 11.646 10.592 2.646 22.710 o
-10 11 6 7.608 6.412 2.928 18.867 o
-10 11 7 5.918 3.716 2.757 21.369 o
-9 -11 -3 7.552 8.421 3.130 16.520 o
-9 -11 -2 3.825 5.342 2.635 23.410 o
-9 -11 -1 9.604 8.866 2.625 23.211 o
-9 -11 0 2.152 -0.202 2.686 22.718 o
-9 -10 -6 11.377 11.390 3.019 17.569 o
-9 -10 -5 1.576 0.626 1.222 108.618 o
-9 -10 -4 12.367 13.450 3.110 16.521 o
-9 -10 -3 3.171 4.938 4.655 7.565 o
-9 -10 -2 0.395 0.697 6.149 4.348 o
-9 -10 -1 0.992 0.404 3.544 13.077 o
-9 -10 0 13.012 11.844 2.898 18.953 o
-9 -9 -7 1.085 1.605 2.080 37.821 o
-9 -9 -6 2.676 3.150 3.554 12.966 o
-9 -9 -5 0.575 1.706 2.514 25.947 o
-9 -9 -4 16.712 19.771 2.999 17.445 o
-9 -9 -3 15.528 17.085 2.706 21.350 o
-9 -9 -2 26.169 27.445 2.363 25.934 o
-9 -9 -1 23.158 23.123 2.242 29.117 o
-9 -9 0 15.742 14.379 2.151 33.010 o
-9 -8 -9 3.156 3.675 2.807 20.713 o
-9 -8 -8 1.168 2.221 2.656 23.232 o
-9 -8 -7 1.852 3.171 2.625 23.722 o
-9 -8 -6 43.472 44.681 3.474 12.033 o
-9 -8 -5 20.220 23.749 2.908 18.240 o
-9 -8 -4 28.988 29.929 2.868 18.080 o
-9 -8 -3 0.971 0.818 1.757 53.007 o
-9 -8 -2 7.305 6.796 1.898 43.935 o
-9 -8 -1 41.267 42.288 2.413 22.532 o
-9 -8 0 73.452 76.407 3.312 11.159 o
-9 -7 -10 3.906 6.190 2.767 21.244 o
-9 -7 -9 3.468 1.929 1.535 68.301 o
-9 -7 -8 26.335 26.910 2.282 27.578 o
-9 -7 -7 21.998 19.448 1.969 37.150 o
-9 -7 -6 8.019 7.624 1.797 48.550 o
-9 -7 -5 4.168 4.695 2.777 21.110 o
-9 -7 -4 24.006 23.234 2.696 20.778 o
-9 -7 -3 54.227 55.788 2.545 18.800 o
-9 -7 -2 52.394 54.243 2.433 20.353 o
-9 -7 -1 60.768 61.362 2.989 14.129 o
-9 -7 0 2.416 2.696 3.039 17.718 o
-9 -6 -10 34.840 44.691 2.989 16.086 o
-9 -6 -9 5.084 5.624 2.252 31.816 o
-9 -6 -8 1.598 0.919 1.686 57.363 o
-9 -6 -7 0.260 0.990 6.382 4.037 o
-9 -6 -6 39.294 41.187 2.494 21.625 o
-9 -6 -5 70.879 75.387 3.403 10.837 o
-9 -6 -4 19.546 16.206 1.939 39.020 o
-9 -6 -3 28.008 26.940 2.555 22.441 o
-9 -6 -2 3.865 3.221 1.999 40.477 o
-9 -6 -1 25.835 25.900 2.353 26.255 o
-9 -6 0 76.179 75.054 2.918 13.262 o
-9 -5 -11 1.338 2.787 2.898 19.508 o
-9 -5 -10 8.039 8.936 2.090 36.252 o
-9 -5 -9 17.561 17.711 1.989 37.495 o
-9 -5 -8 15.849 14.914 1.838 43.961 o
-9 -5 -7 17.015 16.227 2.120 33.576 o
-9 -5 -6 17.031 13.995 2.454 25.699 o
-9 -5 -5 5.548 4.392 2.019 39.393 o
-9 -5 -4 73.299 76.841 2.575 15.811 o
-9 -5 -3 18.534 17.580 2.262 29.552 o
-9 -4 -12 2.202 2.292 2.444 27.363 o
-9 -4 -11 3.862 3.746 4.201 9.283 o
-9 -4 -10 24.801 24.577 2.191 29.984 o
-9 -4 -9 0.587 0.040 0.222 2937.290 o
-9 -4 -8 34.024 35.361 2.090 30.027 o
-9 -4 -7 23.415 24.143 1.828 41.293 o
-9 -4 -6 122.603 129.196 3.211 8.420 o
-9 -4 -5 12.966 12.198 1.818 45.881 o
-9 -4 -4 150.250 149.785 3.877 5.899 o
-9 -4 -3 64.436 68.682 2.858 14.634 o
-9 -3 -12 17.671 17.701 2.302 28.692 o
-9 -3 -11 8.057 8.502 2.050 37.666 o
-9 -3 -10 0.396 0.909 2.363 29.405 o
-9 -3 -9 43.631 47.761 2.292 23.766 o
-9 -3 -8 80.433 85.060 2.585 14.793 o
-9 -3 -7 14.418 12.763 1.676 52.652 o
-9 -3 -6 16.203 16.540 1.858 42.831 o
-9 -3 -5 9.334 9.118 1.636 57.385 o
-9 -3 -4 99.132 100.025 2.635 12.528 o
-9 -3 -3 69.252 70.611 2.767 14.909 o
-9 -3 0 45.856 43.368 3.019 15.252 o
-9 -2 -12 18.309 20.165 2.585 22.985 o
-9 -2 -11 2.222 2.888 1.878 46.065 o
-9 -2 -10 60.853 61.927 2.514 18.180 o
-9 -2 -9 4.442 3.423 1.777 50.870 o
-9 -2 -8 8.573 7.926 1.585 61.338 o
-9 -2 -7 9.904 9.189 1.555 62.815 o
-9 -2 -6 119.352 120.472 3.049 9.206 o
-9 -2 -5 20.796 20.165 1.797 43.736 o
-9 -2 -4 65.891 63.916 2.232 20.547 o
-9 -2 -3 6.616 5.150 1.535 66.513 o
-9 -2 -2 13.645 12.622 1.767 48.084 o
-9 -2 -1 19.048 17.024 1.605 54.246 o
-9 -2 0 131.858 128.247 2.363 10.549 o
-9 -1 -13 0.551 0.283 0.384 1062.250 o
-9 -1 -12 17.765 17.711 2.444 25.677 o
-9 -1 -11 31.110 34.008 1.999 32.938 o
-9 -1 -10 7.488 7.795 1.555 64.042 o
-9 -1 -9 23.690 22.850 1.686 47.306 o
-9 -1 -8 22.057 20.407 1.585 53.469 o
-9 -1 -7 24.250 23.103 1.363 65.561 o
-9 -1 -6 21.413 21.063 1.404 65.135 o
-9 -1 -5 14.748 13.147 1.161 98.344 o
-9 -1 -4 32.032 29.848 1.252 65.053 o
-9 -1 -3 31.006 29.535 1.181 70.864 o
-9 -1 -2 46.051 44.459 1.353 46.637 o
-9 -1 -1 84.156 80.941 1.959 19.638 o
-9 -1 0 47.990 47.155 1.383 43.983 o
-9 0 1 165.167 170.414 1.868 8.623 o
-9 0 2 3.603 2.494 0.788 242.702 o
-9 0 3 424.312 427.998 2.888 1.662 o
-9 0 4 18.080 17.034 1.020 111.661 o
-9 0 5 7.396 6.523 0.899 173.813 o
-9 0 6 18.400 18.397 1.151 92.401 o
-9 0 7 268.946 273.165 3.140 3.425 o
-9 0 8 9.335 8.684 1.020 134.100 o
-9 0 9 57.871 57.464 1.605 32.539 o
-9 0 10 31.719 29.848 1.454 53.653 o
-9 0 11 27.578 26.465 1.686 45.345 o
-9 0 12 33.261 31.948 1.807 38.272 o
-9 0 13 155.951 168.566 3.595 6.008 o
-9 0 14 4.983 5.311 2.545 25.032 o
-9 0 15 3.960 4.635 2.746 21.582 o
-9 0 16 1.667 -0.192 0.838 228.081 o
-9 0 17 16.208 14.197 3.080 16.698 o
-9 0 18 14.807 14.621 3.221 15.347 o
-9 1 1 261.826 260.906 2.221 4.033 o
-9 1 2 180.860 183.581 2.050 7.336 o
-9 1 3 51.847 50.618 1.222 46.335 o
-9 1 4 48.413 47.488 1.222 49.210 o
-9 1 5 582.500 586.598 3.797 0.906 o
-9 1 6 59.378 57.192 1.585 32.543 o
-9 1 7 114.137 112.152 2.050 13.714 o
-9 1 8 8.835 8.149 1.626 58.383 o
-9 1 9 54.816 53.456 1.828 29.434 o
-9 1 10 7.670 6.493 1.282 92.026 o
-9 1 11 122.713 128.641 2.656 10.115 o
-9 1 12 25.508 25.698 1.747 43.641 o
-9 1 13 18.567 18.246 1.727 47.830 o
-9 1 14 5.776 5.018 1.888 44.819 o
-9 1 15 36.097 34.826 3.160 14.741 o
-9 1 16 0.770 -0.394 1.949 43.202 o
-9 1 17 7.179 5.846 3.322 14.726 o
-9 1 18 21.060 23.507 3.605 12.118 o
-9 2 1 30.689 27.717 1.000 87.092 o
-9 2 2 31.178 29.737 1.101 76.689 o
-9 2 3 438.575 435.167 3.585 1.517 o
-9 2 4 50.632 48.821 1.404 41.766 o
-9 2 5 26.717 24.416 1.161 79.055 o
-9 2 6 37.471 35.886 1.272 57.739 o
-9 2 7 241.256 240.146 2.585 4.397 o
-9 2 8 21.233 19.377 1.313 72.971 o
-9 2 9 102.943 104.841 2.181 14.434 o
-9 2 10 32.718 31.160 1.979 33.438 o
-9 2 11 59.038 57.616 2.413 19.675 o
-9 2 12 23.485 24.708 1.777 43.169 o
-9 2 13 101.951 104.952 2.686 11.933 o
-9 2 14 8.145 8.300 1.696 54.064 o
-9 2 15 0.474 0.232 0.969 173.808 o
-9 2 16 44.887 50.568 3.645 10.921 o
-9 2 17 6.266 4.907 3.191 15.979 o
-9 2 18 0.973 2.161 5.463 5.506 o
-9 3 1 212.529 211.490 2.484 5.407 o
-9 3 2 152.141 150.744 2.161 9.260 o
-9 3 3 20.118 19.720 1.151 89.688 o
-9 3 4 50.407 52.405 1.494 38.544 o
-9 3 5 339.467 341.958 3.504 2.306 o
-9 3 6 21.556 20.104 1.181 84.661 o
-9 3 7 88.403 88.201 2.100 17.404 o
-9 3 8 49.959 46.246 1.717 34.024 o
-9 3 9 51.509 49.982 1.777 31.704 o
-9 3 10 5.787 5.432 1.313 89.867 o
-9 3 11 65.567 66.643 2.565 17.032 o
-9 3 12 6.172 4.615 1.828 47.710 o
-9 3 13 4.093 4.483 1.959 42.013 o
-9 3 14 31.486 30.848 2.040 32.123 o
-9 3 15 13.884 13.096 2.242 30.843 o
-9 3 16 13.274 12.814 3.049 17.145 o
-9 3 17 5.268 4.392 3.524 13.144 o
-9 3 18 28.461 31.756 3.686 11.367 o
-9 4 1 144.834 145.473 2.757 8.359 o
-9 4 2 54.746 55.051 1.565 34.777 o
-9 4 3 49.553 47.225 1.646 35.757 o
-9 4 4 41.824 39.652 1.383 48.937 o
-9 4 5 23.687 21.921 1.131 86.557 o
-9 4 6 8.320 8.583 1.111 117.240 o
-9 4 7 186.073 186.479 2.918 5.967 o
-9 4 8 3.360 1.959 1.191 111.832 o
-9 4 9 101.286 97.581 2.312 14.183 o
-9 4 10 21.566 21.709 1.585 53.402 o
-9 4 11 18.455 17.206 1.888 41.027 o
-9 4 12 13.164 13.096 1.969 39.436 o
-9 4 13 30.840 27.384 2.272 27.180 o
-9 4 14 16.286 16.610 2.686 21.625 o
-9 4 15 19.249 17.256 2.403 26.369 o
-9 4 16 5.646 5.786 3.756 11.567 o
-9 4 17 5.154 3.686 4.130 9.593 o
-9 5 1 21.319 20.922 1.323 71.482 o
-9 5 2 118.631 116.160 2.131 12.785 o
-9 5 3 7.955 7.886 1.232 98.163 o
-9 5 4 8.905 10.501 1.141 109.921 o
-9 5 5 53.187 51.870 1.787 30.824 o
-9 5 6 76.078 75.730 1.828 22.720 o
-9 5 7 137.706 138.122 2.282 10.137 o
-9 5 8 1.210 1.515 1.505 71.945 o
-9 5 9 68.251 66.542 2.131 21.210 o
-9 5 10 6.980 5.099 1.484 70.732 o
-9 5 11 66.679 67.400 3.312 11.643 o
-9 5 12 37.665 36.250 2.413 23.272 o
-9 5 13 4.713 3.585 2.242 32.218 o
-9 5 14 3.548 2.676 3.009 18.046 o
-9 5 15 19.294 18.246 2.534 23.845 o
-9 5 16 11.197 7.523 3.645 12.185 o
-9 5 17 2.717 2.555 7.684 2.783 o
-9 6 1 86.581 87.777 2.040 18.138 o
-9 6 2 17.735 16.055 1.333 75.047 o
-9 6 3 20.578 16.913 1.212 84.113 o
-9 6 4 54.847 54.183 1.757 30.731 o
-9 6 5 0.677 0.434 0.737 297.271 o
-9 6 6 11.556 10.027 1.434 71.768 o
-9 6 7 141.531 143.807 2.736 8.587 o
-9 6 8 38.430 37.078 1.878 34.192 o
-9 6 9 119.407 121.966 2.757 10.131 o
-9 6 10 8.188 6.927 1.565 63.166 o
-9 6 11 29.494 28.707 2.726 19.809 o
-9 6 12 36.069 33.665 2.454 22.945 o
-9 6 13 38.303 38.007 3.211 14.171 o
-9 6 14 4.401 2.938 3.605 12.586 o
-9 6 16 9.489 8.966 4.786 7.119 o
-9 7 1 152.459 154.944 2.676 8.021 o
-9 7 2 63.905 63.129 1.757 27.452 o
-9 7 3 12.324 10.733 1.252 90.198 o
-9 7 4 8.546 6.897 1.232 98.075 o
-9 7 5 140.302 139.142 2.938 8.244 o
-9 7 6 14.714 14.338 1.595 57.096 o
-9 7 7 18.132 14.732 1.565 57.526 o
-9 7 8 17.214 14.611 1.908 40.800 o
-9 7 9 45.499 40.198 2.050 28.381 o
-9 7 10 18.403 17.802 2.171 31.861 o
-9 7 11 24.759 22.558 2.787 19.523 o
-9 7 12 0.246 0.192 5.008 6.555 o
-9 7 13 16.047 15.550 2.928 18.376 o
-9 7 14 14.084 12.440 4.877 6.826 o
-9 8 1 9.283 7.533 1.303 87.812 o
-9 8 2 7.309 7.119 1.323 86.942 o
-9 8 3 115.137 114.858 2.242 12.644 o
-9 8 4 3.170 1.999 1.424 79.223 o
-9 8 5 4.437 3.918 1.404 80.315 o
-9 8 6 15.077 13.601 1.696 51.190 o
-9 8 7 127.617 133.114 3.383 7.726 o
-9 8 8 16.182 14.035 2.110 34.153 o
-9 8 9 17.426 14.995 1.858 42.726 o
-9 8 10 3.262 1.676 2.060 38.323 o
-9 8 11 29.323 29.030 3.049 16.173 o
-9 8 13 12.854 12.541 4.625 7.589 o
-9 9 1 39.687 37.815 1.747 37.461 o
-9 9 2 30.594 29.737 1.636 45.787 o
-9 9 3 1.231 1.020 1.979 41.775 o
-9 9 4 31.446 32.736 1.807 38.665 o
-9 9 5 71.570 69.581 2.211 19.664 o
-9 9 6 3.733 1.868 1.919 44.020 o
-9 9 7 17.517 17.044 1.848 42.878 o
-9 9 8 7.441 6.220 2.151 34.527 o
-9 9 9 31.388 29.727 2.959 16.966 o
-9 9 10 6.706 3.574 2.292 30.677 o
-9 9 11 13.895 16.459 4.110 9.544 o
-9 9 12 5.272 4.019 5.039 6.454 o
-9 9 13 5.254 4.180 8.239 2.419 o
-9 10 1 6.177 4.604 1.797 49.280 o
-9 10 2 14.778 15.166 1.545 60.212 o
-9 10 3 14.190 11.471 1.747 49.111 o
-9 10 4 3.660 2.151 1.979 41.393 o
-9 10 5 0.095 -0.323 8.845 2.102 o
-9 10 6 12.586 10.764 2.161 33.357 o
-9 10 7 37.689 38.683 3.261 13.794 o
-9 10 8 10.185 10.239 2.413 27.237 o
-9 10 9 21.916 24.779 3.070 16.387 o
-9 10 10 4.665 4.806 3.726 11.771 o
-9 10 11 18.029 19.720 4.928 6.646 o
-9 11 1 15.044 13.490 2.060 35.935 o
-9 11 2 19.624 19.387 2.120 32.956 o
-9 11 3 10.951 10.027 2.070 36.464 o
-9 11 4 5.144 4.483 2.191 33.613 o
-9 11 5 28.408 25.132 2.504 23.297 o
-9 11 6 14.378 14.187 2.423 26.525 o
-9 11 7 0.797 0.283 3.463 13.697 o
-9 11 8 1.914 0.374 3.251 15.520 o
-9 11 9 4.855 2.797 4.554 7.900 o
-9 12 2 3.136 2.110 2.575 24.621 o
-9 12 3 15.902 16.368 2.353 27.802 o
-8 -12 -2 10.097 10.946 4.483 8.093 o
-8 -12 -1 6.047 3.887 3.696 11.953 o
-8 -12 0 3.356 4.322 4.352 8.652 o
-8 -11 -5 5.320 5.725 2.888 19.479 o
-8 -11 -4 0.040 -0.464 3.171 16.357 o
-8 -11 -2 33.233 38.885 3.383 13.070 o
-8 -11 -1 17.146 18.216 2.928 18.271 o
-8 -11 0 19.317 18.852 2.959 17.809 o
-8 -10 -7 4.903 4.564 2.918 19.112 o
-8 -10 -6 0.627 0.454 2.363 29.405 o
-8 -10 -5 0.554 1.999 2.272 31.752 o
-8 -10 -4 44.994 52.254 3.564 11.331 o
-8 -10 -3 8.407 8.512 3.877 10.815 o
-8 -10 -2 44.567 50.436 2.686 18.336 o
-8 -10 -1 17.157 16.772 2.181 31.825 o
-8 -10 0 29.138 29.494 2.322 26.255 o
-8 -9 -8 1.067 0.151 3.564 12.930 o
-8 -9 -7 15.830 19.801 3.322 14.361 o
-8 -9 -6 18.939 19.649 3.100 16.297 o
-8 -9 -5 6.115 6.139 2.524 25.341 o
-8 -9 -4 21.122 22.012 2.787 19.750 o
-8 -9 -3 20.881 18.933 2.625 22.193 o
-8 -9 -2 40.149 40.046 2.454 22.179 o
-8 -9 -1 10.937 9.946 1.999 38.957 o
-8 -9 0 36.585 37.310 2.797 18.177 o
-8 -8 -10 10.571 11.976 3.140 16.286 o
-8 -8 -9 4.157 2.706 2.534 25.340 o
-8 -8 -8 52.091 59.009 3.887 9.471 o
-8 -8 -7 0.686 0.151 2.272 31.806 o
-8 -8 -6 0.046 0.303 2.565 24.990 o
-8 -8 -5 12.467 10.178 2.646 22.676 o
-8 -8 -4 87.365 88.796 3.706 8.783 o
-8 -8 -3 4.300 4.079 2.050 38.435 o
-8 -8 -2 8.450 7.664 1.807 47.934 o
-8 -8 -1 13.959 11.531 2.302 29.400 o
-8 -8 0 7.729 5.756 1.989 40.160 o
-8 -7 -11 2.183 1.969 2.514 25.864 o
-8 -7 -10 4.905 6.321 2.423 27.529 o
-8 -7 -9 10.905 12.975 2.383 27.736 o
-8 -7 -8 17.940 18.529 2.252 29.810 o
-8 -7 -7 0.962 0.111 0.303 1596.950 o
-8 -7 -6 117.119 129.105 3.453 7.957 o
-8 -7 -5 25.209 27.515 2.736 20.003 o
-8 -7 -4 7.113 8.007 1.989 40.084 o
-8 -7 -3 18.745 16.459 1.939 39.157 o
-8 -7 -2 100.703 103.670 2.847 11.313 o
-8 -7 -1 8.694 7.361 2.211 32.529 o
-8 -7 0 19.686 18.933 2.221 30.316 o
-8 -6 -12 8.549 9.532 2.363 28.533 o
-8 -6 -11 2.524 2.393 2.625 23.710 o
-8 -6 -10 46.063 53.133 3.019 14.972 o
-8 -6 -9 5.241 3.564 2.019 39.487 o
-8 -6 -8 43.096 42.823 2.524 20.752 o
-8 -6 -7 22.335 24.234 2.221 29.625 o
-8 -6 -6 10.824 9.603 1.888 43.453 o
-8 -6 -5 12.213 10.744 2.353 28.407 o
-8 -6 -4 154.397 161.427 3.302 6.632 o
-8 -6 -3 12.637 11.885 1.706 51.651 o
-8 -6 -2 95.891 93.118 3.130 10.606 o
-8 -6 -1 15.943 14.288 2.040 36.387 o
-8 -6 0 154.819 157.479 3.635 6.104 o
-8 -5 -12 32.565 40.642 2.959 16.612 o
-8 -5 -11 17.339 19.023 2.191 31.386 o
-8 -5 -10 5.956 4.291 2.110 36.103 o
-8 -5 -9 8.970 8.492 1.797 48.235 o
-8 -5 -8 45.642 46.650 2.110 26.628 o
-8 -5 -7 0.553 1.292 2.696 22.582 o
-8 -5 -6 48.345 48.377 2.252 23.714 o
-8 -5 -5 9.441 10.623 2.232 31.722 o
-8 -5 -4 37.409 36.704 1.989 31.636 o
-8 -5 -3 10.962 9.340 1.656 55.529 o
-8 -5 -2 119.293 119.866 4.352 5.985 o
-8 -4 -13 1.081 0.414 0.868 214.020 o
-8 -4 -12 0.632 1.636 1.908 44.951 o
-8 -4 -11 8.037 7.361 2.019 38.846 o
-8 -4 -10 101.679 113.798 2.989 10.400 o
-8 -4 -9 12.309 11.844 1.747 49.579 o
-8 -4 -8 60.230 65.572 2.302 20.346 o
-8 -4 -7 19.177 18.185 1.646 51.736 o
-8 -4 -6 22.654 21.608 1.888 39.560 o
-8 -4 -5 47.343 48.599 2.120 26.001 o
-8 -4 -4 123.055 126.823 2.777 9.750 o
-8 -4 -3 89.204 87.665 2.898 12.207 o
-8 -4 -2 133.038 135.305 4.312 5.664 o
-8 -3 -13 10.156 10.976 2.514 25.140 o
-8 -3 -12 15.315 15.954 2.120 33.839 o
-8 -3 -11 3.850 2.807 1.878 45.808 o
-8 -3 -10 29.295 30.363 2.090 31.289 o
-8 -3 -9 34.011 33.483 2.030 31.644 o
-8 -3 -8 13.951 13.803 1.696 51.512 o
-8 -3 -7 20.566 20.225 1.646 50.853 o
-8 -3 -6 108.948 110.556 2.817 10.783 o
-8 -3 -5 56.712 55.212 2.151 23.502 o
-8 -3 -4 6.450 6.291 1.444 74.490 o
-8 -3 -3 55.389 55.758 2.322 21.308 o
-8 -2 -13 1.586 4.251 2.969 18.569 o
-8 -2 -12 1.088 1.969 1.898 45.339 o
-8 -2 -11 4.119 3.352 1.838 47.708 o
-8 -2 -10 20.177 20.467 1.929 38.801 o
-8 -2 -9 8.637 7.401 1.575 62.151 o
-8 -2 -8 121.114 125.046 2.777 9.894 o
-8 -2 -7 10.529 10.592 1.525 64.558 o
-8 -2 -6 4.760 4.301 1.454 74.790 o
-8 -2 -5 3.858 3.352 1.515 69.673 o
-8 -2 -4 359.810 364.576 4.009 1.998 o
-8 -2 -3 9.936 9.845 1.060 123.644 o
-8 -2 -2 264.236 263.582 3.110 3.562 o
-8 -2 -1 35.206 31.908 1.636 43.664 o
-8 -2 0 25.752 25.688 1.222 74.218 o
-8 -1 -14 3.483 2.696 2.373 28.912 o
-8 -1 -13 7.588 10.178 2.444 26.777 o
-8 -1 -12 24.376 24.213 2.131 31.582 o
-8 -1 -11 8.179 8.956 1.616 59.156 o
-8 -1 -10 54.332 56.374 2.040 25.494 o
-8 -1 -9 0.554 1.525 2.504 26.162 o
-8 -1 -8 7.736 6.624 1.353 83.253 o
-8 -1 -7 0.447 0.040 2.272 31.826 o
-8 -1 -6 189.411 190.497 2.878 5.873 o
-8 -1 -5 7.755 6.432 1.080 125.472 o
-8 -1 -4 21.561 18.902 1.121 91.930 o
-8 -1 -3 61.696 61.059 1.585 31.284 o
-8 -1 -2 255.938 256.292 2.666 3.957 o
-8 -1 -1 27.473 26.304 0.878 106.123 o
-8 -1 0 291.347 288.805 2.242 3.374 o
-8 0 1 11.927 11.097 0.808 181.894 o
-8 0 2 97.050 96.026 1.454 20.547 o
-8 0 3 39.997 37.562 0.929 74.491 o
-8 0 4 0.843 0.545 0.646 382.482 o
-8 0 5 7.212 6.159 0.878 181.769 o
-8 0 6 4.455 4.493 0.990 155.009 o
-8 0 7 0.068 -0.252 0.656 381.080 o
-8 0 8 9.085 7.997 0.949 152.627 o
-8 0 9 395.239 390.183 3.292 1.852 o
-8 0 10 49.465 45.509 1.515 39.668 o
-8 0 11 123.387 123.350 2.464 10.888 o
-8 0 12 29.302 30.454 1.706 43.270 o
-8 0 13 58.985 58.716 3.080 13.655 o
-8 0 14 39.735 41.228 3.019 15.638 o
-8 0 15 66.433 69.722 3.665 9.884 o
-8 0 16 35.959 36.219 3.322 13.456 o
-8 0 17 15.446 15.944 3.060 16.907 o
-8 0 18 4.775 3.443 4.635 7.627 o
-8 0 19 2.747 3.736 6.220 4.244 o
-8 1 1 202.132 194.668 2.181 6.226 o
-8 1 2 81.840 79.951 1.414 25.847 o
-8 1 3 46.090 42.167 1.161 54.799 o
-8 1 4 320.757 312.534 2.575 2.810 o
-8 1 5 68.127 65.956 1.161 36.220 o
-8 1 6 33.014 31.837 1.020 79.808 o
-8 1 7 431.556 430.431 3.130 1.601 o
-8 1 8 2.652 1.656 1.030 149.374 o
-8 1 9 74.952 72.297 2.201 19.164 o
-8 1 10 62.956 62.382 1.858 26.146 o
-8 1 11 171.003 169.868 2.817 6.808 o
-8 1 12 25.179 23.365 1.676 47.160 o
-8 1 13 34.923 33.968 1.848 36.312 o
-8 1 14 33.725 33.483 2.292 26.010 o
-8 1 15 9.235 6.442 2.716 21.797 o
-8 1 16 6.650 5.140 2.898 19.311 o
-8 1 17 28.696 27.818 3.403 13.248 o
-8 1 18 14.037 14.530 3.221 15.370 o
-8 1 19 4.722 2.393 4.665 7.531 o
-8 2 1 24.454 23.507 1.030 95.540 o
-8 2 2 166.391 160.407 1.959 8.659 o
-8 2 3 74.522 75.225 1.454 27.833 o
-8 2 4 2.601 2.656 0.848 214.946 o
-8 2 5 275.369 267.308 2.625 3.600 o
-8 2 6 39.113 37.845 1.191 60.051 o
-8 2 7 120.363 119.947 2.050 12.818 o
-8 2 8 58.253 55.051 1.585 33.213 o
-8 2 9 522.238 534.000 4.342 1.059 o
-8 2 10 3.469 3.595 1.474 73.544 o
-8 2 11 30.860 30.444 1.939 35.043 o
-8 2 12 24.209 21.931 1.888 39.157 o
-8 2 13 50.707 47.821 2.019 27.280 o
-8 2 14 7.848 5.271 1.979 40.576 o
-8 2 15 84.188 86.585 3.080 11.581 o
-8 2 16 2.986 2.090 4.301 8.865 o
-8 2 17 6.245 5.937 3.453 13.655 o
-8 2 18 8.153 6.957 3.595 12.576 o
-8 2 19 1.315 2.595 6.563 3.815 o
-8 3 1 198.647 193.415 2.817 5.662 o
-8 3 2 1.290 1.414 1.494 72.900 o
-8 3 3 182.434 176.129 2.343 7.016 o
-8 3 4 121.534 119.291 1.676 14.288 o
-8 3 5 148.385 144.312 2.009 10.021 o
-8 3 6 18.406 20.356 1.121 94.898 o
-8 3 7 397.119 401.250 4.140 1.696 o
-8 3 8 25.787 26.799 1.404 60.710 o
-8 3 9 30.639 31.453 1.484 52.276 o
-8 3 10 4.567 4.241 1.424 77.990 o
-8 3 11 91.428 90.735 2.676 13.175 o
-8 3 12 1.533 1.525 1.535 69.048 o
-8 3 13 74.135 74.125 2.666 15.160 o
-8 3 14 8.782 6.331 2.120 35.327 o
-8 3 15 6.376 6.260 2.252 31.674 o
-8 3 16 11.746 12.309 2.888 19.123 o
-8 3 17 25.289 26.304 3.292 14.232 o
-8 3 18 1.124 1.858 5.705 5.049 o
-8 4 1 18.106 15.893 1.080 103.541 o
-8 4 2 152.597 147.089 2.413 8.761 o
-8 4 3 248.487 240.217 2.858 4.106 o
-8 4 4 31.542 31.938 1.222 66.585 o
-8 4 5 140.925 136.759 2.211 10.183 o
-8 4 6 35.392 35.371 1.282 58.802 o
-8 4 7 44.720 42.045 1.605 39.382 o
-8 4 8 2.376 2.514 1.070 138.467 o
-8 4 9 204.680 209.480 3.110 5.032 o
-8 4 10 12.995 13.551 1.373 75.442 o
-8 4 11 98.561 98.853 3.453 9.124 o
-8 4 12 2.158 1.333 2.272 31.661 o
-8 4 13 51.230 49.003 3.049 14.559 o
-8 4 14 14.351 13.924 2.615 22.957 o
-8 4 15 74.177 82.395 3.948 8.404 o
-8 4 16 0.778 0.707 2.292 31.225 o
-8 4 17 4.320 2.888 7.189 3.177 o
-8 4 18 9.308 9.794 5.271 5.878 o
-8 5 1 143.600 138.859 2.191 10.013 o
-8 5 2 33.962 34.523 1.353 56.257 o
-8 5 3 264.813 262.896 3.140 3.545 o
-8 5 4 51.016 47.872 1.444 40.618 o
-8 5 5 94.598 90.876 2.009 17.169 o
-8 5 6 8.686 7.583 1.202 102.098 o
-8 5 7 165.139 165.345 2.696 7.290 o
-8 5 8 19.429 19.942 1.505 59.607 o
-8 5 9 9.238 8.371 1.404 76.414 o
-8 5 10 15.852 14.106 1.454 66.591 o
-8 5 11 96.229 97.874 3.524 8.978 o
-8 5 12 4.071 2.676 1.717 54.612 o
-8 5 13 55.735 52.365 3.181 13.283 o
-8 5 14 8.509 7.230 2.575 24.214 o
-8 5 15 6.322 5.160 2.918 19.058 o
-8 5 16 9.520 7.926 4.241 9.051 o
-8 5 17 3.653 2.817 5.059 6.410 o
-8 6 1 46.648 45.024 1.727 34.907 o
-8 6 2 125.754 125.914 2.423 10.800 o
-8 6 3 92.350 90.160 1.908 18.259 o
-8 6 4 85.445 84.131 1.858 20.131 o
-8 6 5 217.410 217.982 3.049 4.738 o
-8 6 6 2.975 2.343 1.252 101.754 o
-8 6 7 26.658 25.132 1.717 44.608 o
-8 6 8 6.975 4.837 1.616 60.240 o
-8 6 9 167.571 169.111 3.110 6.461 o
-8 6 10 1.327 0.687 1.111 131.308 o
-8 6 11 23.223 19.256 2.423 25.497 o
-8 6 12 3.323 2.100 3.443 13.810 o
-8 6 13 35.116 32.877 2.938 16.889 o
-8 6 14 2.396 1.101 4.877 6.904 o
-8 6 17 3.063 2.646 4.837 7.014 o
-8 7 1 41.515 41.016 1.807 34.788 o
-8 7 2 110.157 113.010 2.191 13.362 o
-8 7 3 102.479 103.902 2.100 14.980 o
-8 7 4 45.003 43.308 1.626 38.461 o
-8 7 5 10.223 9.108 1.393 76.620 o
-8 7 6 53.312 57.929 1.999 26.200 o
-8 7 7 101.310 104.447 2.938 10.866 o
-8 7 8 9.593 6.210 1.838 46.353 o
-8 7 9 3.225 2.252 2.433 27.532 o
-8 7 10 3.157 1.333 1.807 49.662 o
-8 7 11 51.609 50.295 3.140 13.818 o
-8 7 12 7.230 3.978 2.938 18.791 o
-8 7 13 38.099 36.351 4.463 7.765 o
-8 7 16 9.221 8.421 5.029 6.457 o
-8 8 1 26.134 24.880 1.535 53.425 o
-8 8 2 29.936 27.152 1.535 51.155 o
-8 8 3 57.170 57.878 1.838 28.204 o
-8 8 4 53.996 55.081 1.858 28.859 o
-8 8 5 23.285 22.366 1.505 57.099 o
-8 8 6 56.615 57.121 2.221 22.388 o
-8 8 7 5.639 3.908 1.666 57.302 o
-8 8 8 17.805 16.257 2.383 26.971 o
-8 8 9 66.594 67.854 3.383 11.260 o
-8 8 10 11.374 11.097 2.110 35.022 o
-8 8 11 33.725 30.403 4.322 8.348 o
-8 8 12 11.952 10.178 4.342 8.611 o
-8 8 13 13.619 10.532 4.726 7.273 o
-8 9 1 86.404 88.221 2.252 16.479 o
-8 9 2 10.746 8.603 1.505 66.504 o
-8 9 3 14.861 13.682 1.474 65.657 o
-8 9 4 72.417 69.440 2.090 20.858 o
-8 9 5 11.865 11.289 1.474 67.797 o
-8 9 7 28.689 27.616 2.211 28.748 o
-8 9 8 49.808 51.759 3.160 13.723 o
-8 9 9 12.969 12.147 2.494 25.296 o
-8 9 10 7.324 3.908 3.019 17.810 o
-8 9 11 28.694 28.798 4.423 8.058 o
-8 9 12 4.601 4.685 3.706 11.901 o
-8 10 1 42.235 42.914 2.201 25.828 o
-8 10 2 29.870 28.636 1.999 33.727 o
-8 10 3 21.689 20.992 2.232 29.681 o
-8 10 4 5.910 5.432 1.757 51.462 o
-8 10 5 15.713 17.307 1.858 42.855 o
-8 10 6 28.343 28.707 2.353 25.811 o
-8 10 7 0.603 -0.323 1.515 71.475 o
-8 10 9 45.598 44.307 3.332 12.869 o
-8 10 10 8.439 10.178 4.483 8.107 o
-8 10 11 8.725 9.138 3.120 16.585 o
-8 10 12 5.560 1.999 6.301 4.134 o
-8 11 1 9.554 6.190 2.171 33.679 o
-8 11 2 29.309 30.938 2.534 22.467 o
-8 11 3 19.363 17.590 2.080 34.303 o
-8 11 4 14.230 12.541 1.949 40.052 o
-8 11 5 0.900 0.666 9.885 1.683 o
-8 11 6 2.509 0.414 1.292 96.653 o
-8 11 7 43.405 45.347 4.827 6.602 o
-8 11 8 2.478 3.191 3.544 13.042 o
-8 11 10 3.298 1.414 3.241 15.583 o
-8 12 1 2.804 0.858 1.313 93.422 o
-8 12 2 10.741 8.027 2.232 31.721 o
-8 12 3 2.510 0.273 0.687 327.903 o
-8 12 4 3.810 3.060 2.888 19.568 o
-8 12 5 13.025 9.714 2.656 22.491 o
-8 12 6 1.214 0.707 2.827 20.527 o
-8 12 7 1.325 3.039 4.988 6.600 o
-7 -12 -3 0.433 1.626 3.574 12.856 o
-7 -12 -2 27.055 30.696 4.584 7.528 o
-7 -12 -1 12.521 13.298 4.110 9.576 o
-7 -12 0 3.777 3.726 3.484 13.475 o
-7 -11 -6 0.802 -0.151 1.222 109.511 o
-7 -11 -5 17.395 20.346 3.140 15.941 o
-7 -11 -4 9.241 9.966 2.837 19.942 o
-7 -11 -3 2.918 1.807 4.170 9.431 o
-7 -11 -2 2.320 0.061 1.807 49.930 o
-7 -11 -1 2.236 -0.394 1.555 67.304 o
-7 -11 0 17.052 18.529 3.534 12.731 o
-7 -10 -8 30.353 33.766 3.484 12.549 o
-7 -10 -7 7.874 8.290 2.817 20.311 o
-7 -10 -6 30.138 31.686 3.292 13.975 o
-7 -10 -5 0.078 0.121 0.222 3234.110 o
-7 -10 -4 21.087 19.811 2.797 19.681 o
-7 -10 -3 2.272 2.363 2.585 24.464 o
-7 -10 -2 23.514 23.870 2.252 28.792 o
-7 -10 -1 2.179 -0.050 1.363 87.341 o
-7 -10 0 10.177 6.392 2.060 37.167 o
-7 -9 -10 19.791 22.497 3.241 14.896 o
-7 -9 -9 3.191 1.848 2.363 29.204 o
-7 -9 -8 4.409 3.887 2.888 19.537 o
-7 -9 -7 1.664 2.918 2.464 26.931 o
-7 -9 -6 38.047 40.228 3.140 14.702 o
-7 -9 -5 5.627 6.412 2.444 27.035 o
-7 -9 -4 25.918 27.960 2.787 19.290 o
-7 -9 -3 29.608 29.575 2.272 27.198 o
-7 -9 -2 2.597 1.323 1.727 54.473 o
-7 -9 -1 21.763 18.387 2.030 35.360 o
-7 -9 0 52.090 51.477 2.928 15.427 o
-7 -8 -11 1.962 1.727 2.605 24.115 o
-7 -8 -10 4.203 5.463 2.827 20.355 o
-7 -8 -9 1.505 2.817 3.403 14.160 o
-7 -8 -8 46.931 47.660 3.413 12.234 o
-7 -8 -7 4.508 4.180 2.393 28.317 o
-7 -8 -6 9.836 8.128 2.393 27.792 o
-7 -8 -5 33.963 35.371 2.847 17.847 o
-7 -8 -4 0.350 -0.111 1.979 41.942 o
-7 -8 -3 25.328 22.901 1.999 35.194 o
-7 -8 -2 132.051 139.859 3.191 7.928 o
-7 -8 -1 29.601 25.738 2.403 24.898 o
-7 -8 0 100.334 100.802 3.352 9.379 o
-7 -7 -12 0.105 1.303 2.726 22.099 o
-7 -7 -11 3.229 2.585 1.979 41.422 o
-7 -7 -10 17.442 19.922 2.545 23.746 o
-7 -7 -9 7.817 7.694 2.019 38.853 o
-7 -7 -8 11.020 11.087 2.080 36.046 o
-7 -7 -7 27.096 26.677 2.282 27.497 o
-7 -7 -6 21.251 22.436 2.090 33.314 o
-7 -7 -5 79.622 82.051 3.413 10.316 o
-7 -7 -4 78.614 80.173 2.585 15.145 o
-7 -7 -3 88.979 90.038 2.646 13.552 o
-7 -7 -2 37.536 36.421 2.009 31.155 o
-7 -7 -1 158.877 158.529 3.766 5.789 o
-7 -7 0 168.058 159.216 3.696 5.684 o
-7 -6 -12 4.947 5.644 2.040 38.631 o
-7 -6 -11 3.533 2.696 2.504 25.984 o
-7 -6 -10 19.758 20.791 2.292 28.517 o
-7 -6 -9 7.261 5.382 1.818 47.923 o
-7 -6 -8 42.863 43.136 2.464 21.583 o
-7 -6 -7 58.284 59.999 2.565 18.006 o
-7 -6 -6 89.120 92.785 2.807 12.538 o
-7 -6 -5 14.797 13.015 2.221 31.273 o
-7 -6 -4 41.607 42.803 2.040 29.072 o
-7 -6 -3 61.723 61.786 2.191 21.742 o
-7 -6 -2 205.247 205.553 3.221 4.955 o
-7 -6 -1 47.201 43.924 2.272 23.862 o
-7 -6 0 21.479 20.447 1.939 38.175 o
-7 -5 -13 2.085 2.898 3.060 17.491 o
-7 -5 -12 16.138 19.104 2.615 22.673 o
-7 -5 -11 14.061 12.692 1.858 43.758 o
-7 -5 -10 9.438 6.816 1.757 50.448 o
-7 -5 -9 26.868 28.101 1.888 37.791 o
-7 -5 -8 81.290 84.273 2.403 16.062 o
-7 -5 -7 28.649 27.334 1.727 43.203 o
-7 -5 -6 105.528 114.020 2.817 10.877 o
-7 -5 -5 28.265 28.061 1.515 52.733 o
-7 -5 -4 141.379 145.867 2.423 9.332 o
-7 -5 -3 96.804 95.249 2.363 14.390 o
-7 -5 -2 20.330 18.044 1.838 42.477 o
-7 -5 -1 94.164 90.372 3.887 7.980 o
-7 -5 0 109.141 104.629 4.059 6.975 o
-7 -4 -14 4.292 4.907 2.686 22.537 o
-7 -4 -13 1.048 1.787 2.322 30.365 o
-7 -4 -12 14.136 15.540 1.999 37.956 o
-7 -4 -11 6.158 6.462 1.939 42.402 o
-7 -4 -10 4.757 3.029 1.757 51.993 o
-7 -4 -9 10.009 9.350 1.616 58.456 o
-7 -4 -8 98.173 101.105 2.615 12.660 o
-7 -4 -7 3.748 3.160 1.363 85.575 o
-7 -4 -6 141.949 140.283 2.969 8.083 o
-7 -4 -5 4.571 3.766 1.323 89.956 o
-7 -4 -4 47.348 47.882 1.848 31.451 o
-7 -4 -3 30.495 27.424 1.878 37.319 o
-7 -4 -2 392.799 370.281 28.515 0.185 o
-7 -4 -1 18.005 12.491 17.347 0.546 o
-7 -4 0 163.041 153.945 11.067 1.201 o
-7 -3 -14 15.684 17.196 2.201 31.448 o
-7 -3 -13 21.575 21.841 2.474 24.587 o
-7 -3 -12 8.983 7.573 1.868 44.917 o
-7 -3 -11 22.083 22.406 1.949 37.501 o
-7 -3 -10 33.547 32.594 1.999 32.589 o
-7 -3 -9 12.167 11.259 1.616 57.347 o
-7 -3 -8 17.363 15.853 1.595 55.745 o
-7 -3 -7 1.388 -0.111 0.848 223.786 o
-7 -3 -6 12.539 11.238 1.565 60.602 o
-7 -3 -5 14.118 13.530 1.484 65.296 o
-7 -3 -4 376.824 384.751 4.059 1.844 o
-7 -3 -3 81.834 82.051 3.383 10.362 o
-7 -3 -2 0.062 0.252 1.000 164.219 o
-7 -3 -1 206.783 202.685 21.598 0.336 o
-7 -3 0 732.951 808.589 20.346 0.238 o
-7 -2 -14 1.851 2.050 2.019 39.999 o
-7 -2 -13 16.479 16.004 2.403 26.682 o
-7 -2 -12 23.328 24.718 2.050 33.914 o
-7 -2 -11 22.455 22.356 1.939 37.765 o
-7 -2 -10 16.867 16.933 1.727 48.552 o
-7 -2 -9 33.316 33.645 1.908 34.987 o
-7 -2 -8 98.008 97.339 2.393 14.019 o
-7 -2 -7 26.293 24.163 1.565 51.930 o
-7 -2 -6 202.060 201.039 3.292 4.997 o
-7 -2 -5 15.917 14.873 1.474 64.800 o
-7 -2 -4 17.193 16.802 1.414 68.249 o
-7 -2 -3 131.752 123.218 2.514 10.220 o
-7 -2 -2 882.443 865.457 5.927 0.406 o
-7 -2 -1 45.627 40.531 1.545 41.210 o
-7 -2 0 85.109 81.658 1.828 20.663 o
-7 -1 -14 17.072 17.448 2.171 32.065 o
-7 -1 -13 30.870 32.029 2.615 21.089 o
-7 -1 -12 0.945 0.868 1.989 41.397 o
-7 -1 -11 64.644 68.248 2.151 21.366 o
-7 -1 -10 52.275 52.597 1.908 28.554 o
-7 -1 -9 7.476 7.068 1.313 88.080 o
-7 -1 -8 30.902 29.808 1.505 51.559 o
-7 -1 -7 12.254 12.127 1.202 96.129 o
-7 -1 -6 46.139 43.540 1.636 37.746 o
-7 -1 -5 21.352 20.488 1.444 62.494 o
-7 -1 -4 70.220 66.633 3.231 11.950 o
-7 -1 -3 30.073 29.081 1.252 66.888 o
-7 -1 -2 97.941 95.945 1.636 19.066 o
-7 -1 -1 64.820 58.282 1.080 41.155 o
-7 -1 0 385.674 372.796 2.272 2.093 o
-7 0 1 163.127 155.500 1.777 9.302 o
-7 0 2 0.992 0.172 0.151 4722.190 o
-7 0 3 420.564 400.584 2.514 1.784 o
-7 0 4 264.106 258.998 2.242 4.001 o
-7 0 5 767.255 755.194 4.352 0.547 o
-7 0 6 4.711 4.756 0.737 260.918 o
-7 0 7 153.924 148.008 2.343 8.831 o
-7 0 8 13.830 12.127 1.030 121.182 o
-7 0 9 283.943 279.980 2.696 3.372 o
-7 0 10 1.464 1.605 1.252 103.209 o
-7 0 11 225.306 230.332 3.049 4.470 o
-7 0 12 8.244 7.694 1.585 61.500 o
-7 0 13 24.218 23.901 2.403 25.555 o
-7 0 14 24.029 24.123 2.615 21.934 o
-7 0 15 37.558 37.784 3.029 15.750 o
-7 0 16 32.603 33.119 3.191 14.671 o
-7 0 17 8.975 6.028 2.938 18.701 o
-7 0 18 11.809 10.229 4.352 8.573 o
-7 0 19 0.557 0.757 6.432 3.974 o
-7 1 1 142.945 141.202 1.575 11.618 o
-7 1 2 348.738 336.930 2.585 2.447 o
-7 1 3 1102.150 1069.880 4.453 0.280 o
-7 1 4 124.919 122.168 1.484 14.529 o
-7 1 5 412.170 406.915 2.635 1.798 o
-7 1 6 196.224 191.194 1.919 6.761 o
-7 1 7 145.571 139.960 1.717 11.098 o
-7 1 8 59.002 56.142 1.646 31.582 o
-7 1 9 177.506 173.887 2.908 6.404 o
-7 1 10 7.639 7.300 1.323 86.645 o
-7 1 11 11.855 10.289 1.181 100.347 o
-7 1 12 3.333 2.696 1.383 83.525 o
-7 1 13 75.868 74.620 2.575 15.686 o
-7 1 14 2.131 -0.283 2.242 32.569 o
-7 1 15 16.628 14.550 2.696 21.512 o
-7 1 16 17.440 17.650 2.837 19.400 o
-7 1 17 22.237 23.870 3.191 15.240 o
-7 1 18 16.345 15.055 4.524 7.891 o
-7 1 19 8.794 12.188 4.948 6.661 o
-7 2 1 346.637 334.173 3.312 2.325 o
-7 2 2 208.331 202.160 2.504 5.617 o
-7 2 3 5.921 4.776 0.777 232.110 o
-7 2 4 146.267 142.939 1.757 10.835 o
-7 2 5 121.293 118.574 1.636 14.521 o
-7 2 6 38.190 36.775 1.252 57.976 o
-7 2 7 101.037 102.014 1.797 17.092 o
-7 2 8 10.929 10.178 1.050 123.777 o
-7 2 9 16.687 16.146 1.363 73.033 o
-7 2 10 30.763 29.313 1.686 43.759 o
-7 2 11 344.765 344.220 4.261 2.092 o
-7 2 12 24.561 23.476 1.767 43.442 o
-7 2 13 43.864 43.439 2.252 24.683 o
-7 2 14 15.035 12.460 1.868 43.136 o
-7 2 15 44.409 44.055 3.150 14.238 o
-7 2 16 3.667 3.766 2.847 20.116 o
-7 2 17 23.824 25.637 3.120 15.801 o
-7 2 18 2.114 2.322 3.322 14.850 o
-7 2 19 0.962 0.858 49.841 0.066 o
-7 3 1 40.747 37.209 1.242 56.564 o
-7 3 2 294.460 298.580 2.746 3.116 o
-7 3 3 205.454 204.886 2.312 5.843 o
-7 3 4 132.456 130.478 1.747 12.444 o
-7 3 5 242.860 239.732 2.232 4.578 o
-7 3 6 188.128 187.206 1.939 7.117 o
-7 3 7 5.337 5.301 0.939 167.585 o
-7 3 8 12.646 11.622 1.111 109.404 o
-7 3 9 297.072 294.955 3.675 2.792 o
-7 3 10 0.846 0.919 1.202 112.762 o
-7 3 11 12.524 11.158 1.595 58.558 o
-7 3 12 10.903 10.390 1.666 54.759 o
-7 3 13 94.446 94.017 3.453 9.363 o
-7 3 14 18.496 16.166 2.050 35.487 o
-7 3 15 4.466 4.524 2.736 21.723 o
-7 3 16 26.662 30.363 3.160 15.225 o
-7 3 17 7.401 4.332 3.423 13.889 o
-7 3 18 10.406 9.582 4.574 7.781 o
-7 4 1 45.721 43.247 1.605 38.814 o
-7 4 2 111.884 111.334 1.919 14.608 o
-7 4 3 33.746 30.938 1.242 63.944 o
-7 4 4 222.218 218.235 2.232 5.286 o
-7 4 5 104.835 104.629 1.848 16.146 o
-7 4 6 7.491 7.038 0.969 151.769 o
-7 4 7 252.118 248.860 4.059 3.311 o
-7 4 8 8.596 6.886 1.121 116.125 o
-7 4 9 31.535 29.252 1.424 55.491 o
-7 4 10 52.242 52.577 2.009 26.727 o
-7 4 11 172.797 179.269 3.362 5.813 o
-7 4 12 8.733 9.088 1.676 55.011 o
-7 4 13 17.547 15.530 2.353 27.682 o
-7 4 14 57.314 63.836 3.413 11.542 o
-7 4 15 27.546 27.657 2.999 16.793 o
-7 4 17 14.671 13.369 4.635 7.541 o
-7 4 18 17.671 18.993 4.695 7.311 o
-7 5 1 19.586 19.589 1.242 80.718 o
-7 5 2 40.411 39.854 1.646 40.025 o
-7 5 3 167.609 171.898 2.797 6.919 o
-7 5 4 91.351 91.038 1.676 20.212 o
-7 5 5 115.444 113.121 2.060 13.504 o
-7 5 6 105.120 103.710 1.999 15.291 o
-7 5 7 107.030 108.204 2.322 13.190 o
-7 5 8 73.909 74.731 2.211 19.043 o
-7 5 9 136.843 133.629 2.454 9.824 o
-7 5 10 7.928 7.603 1.979 40.385 o
-7 5 11 2.114 1.757 1.656 59.227 o
-7 5 12 11.823 10.097 2.141 34.094 o
-7 5 13 32.703 34.321 2.736 19.261 o
-7 5 14 0.825 -0.091 2.444 27.497 o
-7 5 15 23.058 27.485 4.483 7.915 o
-7 5 16 62.785 69.722 5.766 4.536 o
-7 5 17 1.787 1.131 37.027 0.120 o
-7 5 18 3.233 -0.050 0.212 2004.420 o
-7 6 1 87.892 83.354 1.959 18.934 o
-7 6 2 68.885 65.966 1.767 25.879 o
-7 6 3 15.608 15.318 1.222 88.632 o
-7 6 4 38.765 36.280 1.505 46.408 o
-7 6 5 141.844 145.554 2.444 9.264 o
-7 6 6 33.081 32.301 1.474 51.340 o
-7 6 7 95.415 98.369 2.716 12.425 o
-7 6 8 3.437 3.322 1.585 63.895 o
-7 6 9 12.608 8.391 1.525 64.127 o
-7 6 10 14.992 12.612 1.767 47.723 o
-7 6 11 60.257 57.828 2.938 14.643 o
-7 6 12 21.559 19.639 2.514 23.961 o
-7 6 13 10.872 8.966 2.494 25.555 o
-7 6 15 24.490 26.778 4.786 6.964 o
-7 6 16 0.234 -0.515 3.039 17.796 o
-7 6 17 37.592 40.289 5.281 5.632 o
-7 7 1 11.755 11.743 1.323 82.058 o
-7 7 2 33.841 32.514 1.404 54.332 o
-7 7 3 74.485 72.519 1.747 24.301 o
-7 7 4 89.153 88.534 2.120 17.140 o
-7 7 5 51.658 46.438 1.787 31.902 o
-7 7 6 60.656 58.898 1.898 26.334 o
-7 7 7 13.087 13.228 1.616 56.651 o
-7 7 8 4.830 3.574 1.959 41.972 o
-7 7 9 156.939 162.295 4.251 5.093 o
-7 7 10 33.468 28.121 2.524 22.373 o
-7 7 11 2.013 1.605 3.827 11.204 o
-7 7 12 3.652 2.666 2.545 25.168 o
-7 7 13 36.183 34.008 4.100 9.155 o
-7 7 16 11.459 7.947 5.796 4.864 o
-7 8 1 25.769 22.234 1.404 62.103 o
-7 8 2 94.385 93.270 2.040 16.834 o
-7 8 3 13.119 12.289 1.262 87.589 o
-7 8 4 72.006 69.207 2.080 21.048 o
-7 8 5 56.186 57.181 2.019 25.415 o
-7 8 6 1.541 1.676 1.404 82.351 o
-7 8 7 137.458 137.537 3.160 7.849 o
-7 8 8 20.974 17.034 2.343 27.475 o
-7 8 9 24.197 21.740 2.514 23.650 o
-7 8 10 2.666 -0.081 0.252 1749.590 o
-7 8 11 91.955 95.410 5.604 4.454 o
-7 8 12 14.413 12.026 2.423 26.612 o
-7 9 1 14.161 11.178 1.404 72.652 o
-7 9 2 34.344 30.666 1.585 46.234 o
-7 9 3 78.361 74.226 2.696 14.611 o
-7 9 4 28.616 27.182 2.080 31.939 o
-7 9 5 78.112 77.881 2.746 14.149 o
-7 9 6 23.989 23.416 2.030 34.498 o
-7 9 7 46.590 46.034 2.363 22.434 o
-7 9 8 35.275 40.874 4.180 8.787 o
-7 9 9 52.623 54.819 3.241 12.962 o
-7 9 11 13.393 13.036 2.656 22.376 o
-7 9 12 11.514 10.350 2.989 17.931 o
-7 10 1 20.684 18.428 1.777 44.870 o
-7 10 2 22.073 19.175 2.110 32.878 o
-7 10 3 7.933 6.311 1.868 45.243 o
-7 10 4 38.497 34.382 2.353 24.276 o
-7 10 5 85.140 84.949 2.615 14.221 o
-7 10 6 61.719 65.845 2.787 15.471 o
-7 10 7 10.997 10.057 1.999 38.939 o
-7 10 8 0.950 2.252 5.018 6.523 o
-7 10 11 19.410 16.398 2.928 18.211 o
-7 10 12 2.867 1.535 4.201 9.297 o
-7 11 1 0.675 0.263 2.040 39.442 o
-7 11 2 10.277 8.361 2.070 36.673 o
-7 11 3 57.637 53.940 2.777 16.290 o
-7 11 4 35.169 33.342 2.504 22.273 o
-7 11 5 11.199 9.512 2.211 32.150 o
-7 11 6 24.295 20.710 2.343 26.919 o
-7 11 7 14.405 12.369 2.868 19.271 o
-7 11 8 24.275 27.939 4.312 8.519 o
-7 11 10 4.232 1.545 6.472 3.920 o
-7 12 1 7.023 4.322 2.484 26.157 o
-7 12 2 5.150 3.171 2.575 24.500 o
-7 12 3 5.949 6.745 2.403 27.900 o
-7 12 4 7.217 5.998 2.635 23.235 o
-7 12 5 7.947 6.674 2.282 30.704 o
-7 12 6 24.625 27.455 3.120 15.733 o
-7 12 7 5.460 3.887 3.948 10.488 o
-7 12 8 11.498 11.723 3.999 10.127 o
-6 -12 -5 13.160 20.417 4.564 7.758 o
-6 -12 -4 8.524 5.644 3.797 11.291 o
-6 -12 -3 0.637 0.394 3.645 12.367 o
-6 -12 -2 1.210 0.333 1.494 73.131 o
-6 -12 -1 35.415 39.663 4.655 7.183 o
-6 -12 0 41.039 41.278 4.715 6.943 o
-6 -11 -7 8.927 8.835 3.049 17.346 o
-6 -11 -4 14.586 14.066 3.908 10.541 o
-6 -11 -3 36.044 35.916 4.402 7.996 o
-6 -11 -2 44.301 42.207 4.322 8.116 o
-6 -11 -1 21.030 23.830 3.837 10.746 o
-6 -11 0 8.504 7.603 3.615 12.428 o
-6 -10 -9 0.987 2.555 2.716 22.212 o
-6 -10 -8 0.542 0.273 1.484 74.385 o
-6 -10 -7 0.757 0.222 0.889 205.780 o
-6 -10 -6 39.070 44.418 3.282 13.476 o
-6 -10 -5 12.091 9.360 3.474 13.364 o
-6 -10 -4 62.890 60.362 3.302 12.014 o
-6 -10 -3 14.350 11.248 2.353 28.192 o
-6 -10 -2 33.868 33.806 2.312 25.595 o
-6 -10 -1 69.398 73.115 3.393 10.991 o
-6 -10 0 99.193 104.114 3.766 8.014 o
-6 -9 -10 11.294 11.683 3.019 17.567 o
-6 -9 -9 14.314 16.600 3.080 16.721 o
-6 -9 -8 12.654 13.177 2.736 21.158 o
-6 -9 -7 8.561 7.644 2.373 28.372 o
-6 -9 -6 49.952 56.242 3.302 12.652 o
-6 -9 -5 3.683 3.272 2.534 25.350 o
-6 -9 -4 62.772 68.561 3.302 11.843 o
-6 -9 -3 18.930 20.518 1.949 38.347 o
-6 -9 -2 80.392 82.688 2.696 14.143 o
-6 -9 -1 88.367 91.159 2.746 12.973 o
-6 -9 0 62.781 65.582 3.049 13.470 o
-6 -8 -12 8.655 6.977 3.474 13.449 o
-6 -8 -11 7.164 7.119 2.989 18.125 o
-6 -8 -10 12.062 10.421 3.049 17.224 o
-6 -8 -9 4.146 5.352 2.363 29.022 o
-6 -8 -8 20.590 21.265 2.706 20.919 o
-6 -8 -7 21.918 20.861 2.666 21.438 o
-6 -8 -6 82.622 82.354 3.534 9.687 o
-6 -8 -5 1.402 2.211 1.838 48.284 o
-6 -8 -4 106.067 108.052 3.625 8.167 o
-6 -8 -3 8.447 8.552 1.666 55.808 o
-6 -8 -2 75.663 82.294 2.524 15.756 o
-6 -8 -1 8.999 8.916 1.828 46.678 o
-6 -8 0 138.743 137.193 3.615 6.813 o
-6 -7 -13 0.018 2.050 3.403 14.187 o
-6 -7 -12 13.866 17.085 2.474 25.434 o
-6 -7 -11 29.870 35.482 2.807 18.560 o
-6 -7 -10 3.046 2.746 1.959 42.282 o
-6 -7 -9 29.533 28.687 2.353 25.675 o
-6 -7 -8 93.958 96.157 3.120 10.669 o
-6 -7 -7 0.528 0.222 1.868 47.029 o
-6 -7 -6 42.111 40.884 2.272 24.761 o
-6 -7 -5 13.985 14.500 2.393 27.185 o
-6 -7 -4 66.931 68.440 2.343 18.941 o
-6 -7 -3 9.927 9.522 1.555 62.738 o
-6 -7 -2 66.420 63.886 2.181 21.064 o
-6 -7 -1 7.222 6.311 1.767 50.492 o
-6 -7 0 1.627 0.929 1.848 47.830 o
-6 -6 -13 12.211 14.490 2.383 27.560 o
-6 -6 -12 45.651 51.153 2.969 15.478 o
-6 -6 -11 0.387 0.374 1.030 154.108 o
-6 -6 -10 67.475 73.358 2.888 14.063 o
-6 -6 -9 16.988 15.944 2.060 35.434 o
-6 -6 -8 7.617 6.553 1.807 48.238 o
-6 -6 -7 18.619 17.620 1.848 42.542 o
-6 -6 -6 136.877 140.616 3.423 7.221 o
-6 -6 -5 21.387 20.447 2.211 30.246 o
-6 -6 -4 77.871 74.448 2.252 18.202 o
-6 -6 -3 2.216 1.242 1.030 150.437 o
-6 -6 -2 39.209 37.290 2.100 28.730 o
-6 -6 -1 14.849 12.076 1.666 53.198 o
-6 -6 0 308.703 301.134 4.231 2.485 o
-6 -5 -14 24.641 27.899 3.302 14.145 o
-6 -5 -13 4.153 1.999 2.030 39.336 o
-6 -5 -12 20.276 21.487 2.302 28.192 o
-6 -5 -11 78.781 88.140 2.625 14.527 o
-6 -5 -10 42.804 44.540 2.100 27.481 o
-6 -5 -9 5.379 5.109 1.595 62.195 o
-6 -5 -8 76.670 80.194 2.272 17.829 o
-6 -5 -7 4.182 4.827 1.212 106.200 o
-6 -5 -6 57.111 56.767 1.828 28.524 o
-6 -5 -5 0.572 0.081 0.889 206.515 o
-6 -5 -4 59.333 59.019 1.646 31.087 o
-6 -5 -3 79.872 82.152 2.110 18.762 o
-6 -5 -2 245.259 235.784 5.129 2.869 o
-6 -5 -1 85.741 83.071 3.383 10.186 o
-6 -5 0 19.547 16.025 2.282 29.046 o
-6 -4 -14 3.579 3.312 2.221 32.908 o
-6 -4 -13 22.793 25.355 2.524 23.445 o
-6 -4 -12 33.911 37.906 2.181 27.862 o
-6 -4 -11 3.758 1.999 1.555 66.464 o
-6 -4 -10 45.494 46.872 2.090 27.005 o
-6 -4 -9 19.498 18.569 1.646 51.548 o
-6 -4 -8 6.044 5.564 1.373 82.337 o
-6 -4 -7 31.383 31.373 1.605 46.437 o
-6 -4 -6 174.621 179.037 3.080 6.166 o
-6 -4 -5 57.538 57.828 1.939 26.405 o
-6 -4 -4 273.916 277.214 3.342 3.251 o
-6 -4 -3 14.653 13.480 1.908 41.450 o
-6 -4 -2 105.618 99.116 12.521 1.006 o
-6 -4 -1 23.729 18.822 9.088 1.977 o
-6 -4 0 560.281 611.165 16.630 0.374 o
-6 -3 -15 11.402 13.642 2.464 25.956 o
-6 -3 -14 6.601 5.877 2.110 35.940 o
-6 -3 -13 5.548 5.241 2.019 39.337 o
-6 -3 -12 40.994 41.712 2.201 26.104 o
-6 -3 -11 56.494 58.565 2.292 21.379 o
-6 -3 -10 2.460 2.767 1.565 65.931 o
-6 -3 -9 34.240 32.907 1.767 39.172 o
-6 -3 -8 191.628 194.991 3.009 5.603 o
-6 -3 -7 0.885 0.131 0.192 3478.950 o
-6 -3 -6 29.141 27.828 1.666 45.405 o
-6 -3 -5 52.277 51.093 1.797 30.939 o
-6 -3 -4 78.211 76.306 2.343 17.262 o
-6 -3 -3 114.377 115.060 3.524 8.082 o
-6 -3 -2 68.978 67.218 2.686 15.685 o
-6 -3 -1 48.221 40.864 11.097 1.317 o
-6 -3 0 8.788 5.947 5.614 5.192 o
-6 -2 -15 1.217 1.616 3.352 14.602 o
-6 -2 -14 1.442 1.454 1.858 47.303 o
-6 -2 -13 8.203 7.987 1.757 50.609 o
-6 -2 -12 7.521 6.937 1.454 72.834 o
-6 -2 -11 14.320 14.863 1.404 71.431 o
-6 -2 -10 145.107 153.884 2.413 8.962 o
-6 -2 -9 11.503 10.713 1.191 99.049 o
-6 -2 -8 4.002 1.595 1.010 152.801 o
-6 -2 -7 42.373 41.874 1.323 50.491 o
-6 -2 -6 491.198 493.661 4.625 1.164 o
-6 -2 -5 113.115 110.748 2.343 12.516 o
-6 -2 -4 207.538 201.362 4.574 3.757 o
-6 -2 -3 7.963 6.553 1.737 51.977 o
-6 -2 -2 6.431 6.371 0.979 151.948 o
-6 -2 -1 9.746 7.957 0.929 156.621 o
-6 -2 0 157.987 159.236 2.100 8.854 o
-6 -1 -15 10.059 11.077 2.383 27.885 o
-6 -1 -14 27.902 30.807 2.201 28.857 o
-6 -1 -13 5.678 5.210 1.656 57.782 o
-6 -1 -12 49.754 54.900 2.030 26.619 o
-6 -1 -11 9.251 8.431 1.262 92.599 o
-6 -1 -10 4.286 3.938 1.121 123.468 o
-6 -1 -9 106.094 108.163 1.979 15.063 o
-6 -1 -8 144.328 142.888 2.211 9.798 o
-6 -1 -7 23.189 22.568 1.131 86.756 o
-6 -1 -6 95.383 90.775 2.171 15.959 o
-6 -1 -5 72.364 68.440 3.160 12.205 o
-6 -1 -4 151.689 143.595 3.877 5.935 o
-6 -1 -3 151.858 143.474 2.393 8.932 o
-6 -1 -2 552.887 537.605 3.746 1.018 o
-6 -1 -1 490.195 472.639 2.534 1.340 o
-6 -1 0 46.433 46.014 0.979 60.908 o
-6 0 1 279.261 270.499 2.171 3.697 o
-6 0 2 23.950 20.811 0.727 143.981 o
-6 0 3 20.901 18.700 0.687 166.741 o
-6 0 4 364.968 355.600 2.353 2.287 o
-6 0 5 16.756 15.883 0.838 150.247 o
-6 0 6 28.605 25.587 0.939 97.821 o
-6 0 7 286.428 279.930 2.575 3.385 o
-6 0 8 6.224 4.443 0.848 199.248 o
-6 0 9 419.969 408.136 3.080 1.709 o
-6 0 10 7.121 6.846 1.373 81.302 o
-6 0 11 56.401 52.547 1.999 26.126 o
-6 0 12 8.388 6.876 1.424 75.309 o
-6 0 13 189.371 194.021 4.493 4.098 o
-6 0 14 22.329 23.012 2.595 22.419 o
-6 0 15 27.820 29.656 2.847 18.389 o
-6 0 16 0.744 -0.323 1.717 55.652 o
-6 0 17 7.516 5.402 4.312 8.783 o
-6 0 18 0.075 0.364 1.373 87.068 o
-6 0 19 5.308 6.755 3.150 16.388 o
-6 1 1 77.931 74.397 1.101 31.761 o
-6 1 2 763.023 760.596 3.181 0.565 o
-6 1 3 257.897 248.567 2.211 4.215 o
-6 1 4 60.858 58.959 0.959 46.034 o
-6 1 5 538.465 528.144 2.767 1.107 o
-6 1 6 78.246 76.609 1.191 30.070 o
-6 1 7 420.662 416.830 2.928 1.701 o
-6 1 8 45.446 45.236 1.555 40.060 o
-6 1 9 87.698 85.242 2.040 18.158 o
-6 1 10 15.678 16.923 1.363 73.455 o
-6 1 11 215.043 214.004 2.928 4.930 o
-6 1 12 7.724 7.199 1.484 69.918 o
-6 1 13 1.974 -0.071 0.293 1524.340 o
-6 1 14 3.075 4.251 2.242 32.328 o
-6 1 15 58.624 60.867 3.332 12.008 o
-6 1 16 27.997 26.203 2.959 17.230 o
-6 1 17 11.670 10.017 2.736 21.286 o
-6 1 18 23.082 22.103 4.503 7.872 o
-6 1 19 2.024 1.464 3.524 13.208 o
-6 2 1 159.437 146.665 1.706 9.933 o
-6 2 2 114.778 106.447 1.494 16.703 o
-6 2 3 147.190 142.828 1.717 10.873 o
-6 2 4 98.393 101.358 1.212 21.516 o
-6 2 5 38.389 38.380 0.889 78.586 o
-6 2 6 66.245 64.967 1.343 33.752 o
-6 2 7 717.367 720.610 4.584 0.606 o
-6 2 8 2.925 2.888 0.889 195.601 o
-6 2 9 166.267 164.093 3.231 6.377 o
-6 2 10 44.295 39.976 1.696 37.197 o
-6 2 11 84.387 81.274 2.232 17.236 o
-6 2 12 65.761 67.430 2.312 19.452 o
-6 2 13 176.351 185.226 3.484 5.500 o
-6 2 14 1.295 0.586 1.908 44.932 o
-6 2 15 27.651 28.364 2.767 19.424 o
-6 2 16 57.302 63.785 3.534 10.899 o
-6 2 17 12.556 8.613 3.120 16.484 o
-6 2 18 2.667 0.939 6.957 3.395 o
-6 2 19 4.690 2.524 7.038 3.315 o
-6 3 1 198.757 192.365 2.282 6.262 o
-6 3 2 181.934 180.218 2.009 7.415 o
-6 3 3 179.912 179.097 2.019 7.508 o
-6 3 4 27.601 26.061 0.909 102.527 o
-6 3 5 1231.270 1234.320 5.715 0.218 o
-6 3 6 46.518 47.347 1.202 51.164 o
-6 3 7 63.294 62.644 1.484 32.473 o
-6 3 8 105.658 104.629 1.848 16.049 o
-6 3 9 244.014 241.519 3.140 3.998 o
-6 3 10 6.207 3.615 1.191 108.223 o
-6 3 11 125.726 127.591 2.686 9.883 o
-6 3 12 18.484 16.227 2.050 35.484 o
-6 3 13 7.855 7.644 1.686 54.856 o
-6 3 14 29.122 28.071 2.656 20.812 o
-6 3 15 32.672 33.655 2.888 17.535 o
-6 3 16 2.507 4.726 3.191 16.061 o
-6 3 17 25.116 27.475 4.695 7.220 o
-6 3 18 26.723 22.053 4.665 7.320 o
-6 3 19 3.686 2.161 12.561 1.042 o
-6 4 1 81.712 81.557 1.797 21.537 o
-6 4 2 46.702 46.589 1.474 41.781 o
-6 4 3 376.353 376.723 3.433 1.972 o
-6 4 4 50.380 49.164 1.171 49.295 o
-6 4 5 104.720 103.922 1.737 16.864 o
-6 4 6 10.797 11.238 0.949 145.062 o
-6 4 7 517.556 520.722 4.392 1.082 o
-6 4 8 12.814 9.885 1.070 117.274 o
-6 4 9 111.318 107.588 2.019 14.348 o
-6 4 10 26.678 23.961 1.959 36.047 o
-6 4 11 70.081 68.107 2.211 19.951 o
-6 4 12 5.295 4.423 1.949 42.267 o
-6 4 13 119.760 122.633 3.655 7.457 o
-6 4 14 4.893 2.646 2.948 18.753 o
-6 4 15 16.745 15.267 3.827 10.940 o
-6 4 17 16.963 16.418 4.352 8.502 o
-6 4 18 6.243 5.170 4.382 8.513 o
-6 5 1 177.356 173.786 2.676 6.751 o
-6 5 2 260.762 260.573 3.049 3.660 o
-6 5 3 54.840 51.719 1.434 38.554 o
-6 5 4 67.045 69.500 1.585 28.643 o
-6 5 5 272.599 268.358 2.817 3.550 o
-6 5 6 182.379 185.550 2.585 6.524 o
-6 5 7 150.110 152.370 2.615 8.304 o
-6 5 8 30.493 28.909 1.636 45.981 o
-6 5 9 106.964 103.387 2.100 14.559 o
-6 5 10 9.461 7.785 1.727 52.001 o
-6 5 11 272.027 275.578 4.948 2.594 o
-6 5 12 18.832 15.015 2.171 31.992 o
-6 5 13 0.282 -0.172 0.444 820.349 o
-6 5 15 33.215 33.695 4.736 7.003 o
-6 5 16 2.034 2.252 3.504 13.355 o
-6 5 18 1.571 -0.091 0.717 309.415 o
-6 6 1 16.062 13.379 1.010 119.884 o
-6 6 2 198.227 198.414 2.252 6.216 o
-6 6 3 170.520 167.112 2.403 7.551 o
-6 6 4 66.261 64.118 1.686 27.913 o
-6 6 5 3.856 5.372 1.232 102.967 o
-6 6 6 42.040 42.571 1.515 43.254 o
-6 6 7 122.059 122.148 2.575 10.611 o
-6 6 8 66.271 65.784 2.575 16.916 o
-6 6 9 129.718 131.306 3.494 7.422 o
-6 6 10 6.041 4.433 1.959 41.730 o
-6 6 11 25.581 25.355 3.373 13.604 o
-6 6 12 12.393 10.855 2.312 29.340 o
-6 6 15 0.011 -0.444 2.757 21.640 o
-6 6 16 1.318 -0.010 0.141 4756.000 o
-6 6 17 17.966 20.387 4.988 6.487 o
-6 7 1 134.744 133.588 2.060 11.139 o
-6 7 2 109.376 109.122 1.747 15.900 o
-6 7 3 16.201 15.358 1.010 117.906 o
-6 7 4 24.535 21.851 1.575 52.661 o
-6 7 5 272.315 283.302 3.817 3.032 o
-6 7 6 115.810 120.129 2.343 11.967 o
-6 7 7 1.294 1.636 1.585 64.819 o
-6 7 8 63.987 61.463 2.686 16.313 o
-6 7 9 52.874 51.002 2.716 17.335 o
-6 7 11 84.715 81.506 4.816 5.918 o
-6 7 12 2.077 0.323 3.009 18.111 o
-6 7 15 15.826 14.974 4.493 8.000 o
-6 7 16 1.808 0.727 13.248 0.937 o
-6 8 1 78.311 74.589 1.646 24.534 o
-6 8 2 34.903 33.796 1.292 59.126 o
-6 8 3 121.232 121.017 1.999 12.903 o
-6 8 4 72.292 69.228 1.999 21.927 o
-6 8 5 13.623 12.389 1.605 57.249 o
-6 8 6 21.716 19.841 1.747 45.692 o
-6 8 7 106.423 109.244 2.757 11.213 o
-6 8 8 13.727 13.510 3.140 16.171 o
-6 8 9 17.480 15.651 2.282 29.299 o
-6 8 11 14.684 13.783 2.484 25.303 o
-6 8 12 10.196 10.319 3.373 14.190 o
-6 9 1 41.816 42.631 1.646 39.064 o
-6 9 2 57.201 56.263 1.757 29.875 o
-6 9 3 39.491 37.451 2.110 28.456 o
-6 9 4 7.783 7.210 1.717 53.109 o
-6 9 5 40.254 41.207 2.211 26.068 o
-6 9 6 30.950 33.846 2.605 21.151 o
-6 9 7 38.607 39.269 2.181 27.034 o
-6 9 8 29.610 28.545 3.807 10.705 o
-6 9 11 67.584 71.378 3.564 10.270 o
-6 9 12 4.650 3.463 3.110 16.866 o
-6 10 1 69.130 69.914 2.312 18.909 o
-6 10 2 7.689 5.644 1.575 62.823 o
-6 10 3 0.770 0.677 182.985 0.005 o
-6 10 4 25.279 23.274 2.080 32.852 o
-6 10 5 4.140 4.675 2.282 31.107 o
-6 10 6 37.041 35.715 2.322 24.894 o
-6 10 7 14.793 14.076 2.433 26.287 o
-6 10 8 12.986 12.884 3.544 12.798 o
-6 10 10 2.383 4.564 3.898 10.786 o
-6 10 11 14.203 10.249 2.928 18.559 o
-6 10 12 12.925 10.552 4.019 10.017 o
-6 10 13 35.712 38.360 4.453 7.815 o
-6 11 1 25.564 22.699 1.898 38.400 o
-6 11 2 91.539 91.816 3.130 10.845 o
-6 11 3 6.003 4.847 2.070 37.454 o
-6 11 4 13.195 10.572 2.110 34.813 o
-6 11 5 30.937 30.605 2.969 16.863 o
-6 11 6 10.617 10.532 2.181 33.017 o
-6 11 7 21.936 20.387 2.706 20.862 o
-6 11 9 3.653 1.050 3.413 14.058 o
-6 11 10 17.733 16.519 3.948 10.273 o
-6 11 11 8.726 9.906 3.978 10.269 o
-6 12 1 5.069 3.120 2.524 25.482 o
-6 12 2 7.861 5.432 2.494 25.865 o
-6 12 3 13.589 12.743 2.797 20.250 o
-6 12 4 17.346 14.803 2.908 18.581 o
-6 12 6 2.208 1.989 4.756 7.258 o
-6 12 7 32.916 34.584 3.120 15.233 o
-6 12 8 7.097 8.482 4.019 10.089 o
-6 12 9 0.439 0.505 6.997 3.358 o
-6 13 1 8.083 7.220 2.868 19.628 o
-6 13 2 20.780 19.872 3.080 16.427 o
-6 13 3 2.975 2.433 4.574 7.841 o
-6 13 4 15.736 14.692 3.171 15.794 o
-6 13 5 28.788 26.899 2.575 22.065 o
-5 -13 -3 2.149 2.171 3.564 12.905 o
-5 -12 -6 5.825 6.765 4.180 9.347 o
-5 -12 -5 5.165 7.290 3.948 10.475 o
-5 -12 -4 61.832 74.196 5.695 4.631 o
-5 -12 -3 1.075 0.424 6.493 3.900 o
-5 -12 -2 2.495 0.969 2.898 19.501 o
-5 -12 -1 4.159 4.837 3.635 12.370 o
-5 -11 -8 7.255 11.743 4.140 9.496 o
-5 -11 -7 6.067 6.483 4.332 8.708 o
-5 -11 -6 22.735 24.779 4.524 7.795 o
-5 -11 -5 3.498 4.917 3.433 13.867 o
-5 -11 -4 1.345 1.666 3.706 11.953 o
-5 -11 -3 11.450 13.026 3.635 12.204 o
-5 -11 -2 42.672 45.004 4.322 8.119 o
-5 -11 -1 10.609 11.885 3.373 14.165 o
-5 -11 0 11.986 12.046 3.373 14.133 o
-5 -10 -10 15.029 15.368 3.009 17.483 o
-5 -10 -9 0.188 -0.010 8.310 2.381 o
-5 -10 -8 22.255 21.952 3.110 16.030 o
-5 -10 -7 0.750 0.555 1.898 45.489 o
-5 -10 -6 7.606 5.756 2.474 26.285 o
-5 -10 -5 0.871 -0.323 0.969 173.237 o
-5 -10 -4 53.206 52.062 4.473 7.422 o
-5 -10 -3 4.290 2.433 5.352 5.728 o
-5 -10 -2 46.278 47.023 4.140 8.703 o
-5 -10 -1 2.969 2.736 2.807 20.735 o
-5 -10 0 7.040 4.251 2.979 18.293 o
-5 -9 -11 1.478 1.898 2.363 29.310 o
-5 -9 -10 30.757 35.169 3.393 13.142 o
-5 -9 -9 32.264 33.574 3.160 14.932 o
-5 -9 -8 38.089 40.773 3.090 15.113 o
-5 -9 -7 4.001 2.928 2.454 27.020 o
-5 -9 -6 36.870 36.573 2.817 17.957 o
-5 -9 -5 59.685 64.815 3.171 12.857 o
-5 -9 -4 6.179 6.109 2.282 30.881 o
-5 -9 -3 6.057 5.442 1.656 57.639 o
-5 -9 -2 14.620 13.056 1.767 47.764 o
-5 -9 -1 13.132 12.601 1.818 45.793 o
-5 -9 0 110.027 108.375 3.494 8.425 o
-5 -8 -12 4.438 6.452 3.393 14.169 o
-5 -8 -11 5.204 3.898 2.565 24.669 o
-5 -8 -10 38.748 38.703 3.160 14.540 o
-5 -8 -9 1.693 0.485 2.080 37.816 o
-5 -8 -8 57.458 61.463 3.332 12.044 o
-5 -8 -7 55.822 55.455 3.120 13.622 o
-5 -8 -6 59.436 58.565 2.999 14.214 o
-5 -8 -5 21.043 19.195 2.302 28.235 o
-5 -8 -4 185.611 191.184 3.403 5.329 o
-5 -8 -3 83.246 83.475 2.454 15.544 o
-5 -8 -2 60.996 59.231 2.201 21.894 o
-5 -8 -1 48.487 45.468 2.484 20.603 o
-5 -8 0 19.777 16.651 2.050 35.232 o
-5 -7 -13 7.764 10.966 4.362 8.561 o
-5 -7 -12 8.321 9.451 2.322 29.525 o
-5 -7 -11 4.464 3.484 1.777 50.859 o
-5 -7 -10 21.669 21.558 2.232 29.647 o
-5 -7 -9 24.983 25.466 2.221 29.185 o
-5 -7 -8 22.185 22.507 2.070 33.727 o
-5 -7 -7 31.919 33.685 2.141 29.377 o
-5 -7 -6 163.585 166.839 3.403 6.141 o
-5 -7 -5 48.595 47.619 2.646 18.565 o
-5 -7 -4 26.200 26.061 1.717 44.606 o
-5 -7 -3 44.977 39.925 1.868 32.516 o
-5 -7 -2 125.639 125.339 2.676 9.980 o
-5 -7 -1 57.912 57.898 2.383 20.136 o
-5 -7 0 63.448 60.180 2.383 19.378 o
-5 -6 -14 2.309 2.060 2.575 24.660 o
-5 -6 -13 2.080 3.019 2.232 32.749 o
-5 -6 -12 1.076 2.009 1.616 62.441 o
-5 -6 -10 8.261 5.756 1.898 43.857 o
-5 -6 -9 22.754 21.800 2.030 34.873 o
-5 -6 -8 37.340 35.452 2.131 28.564 o
-5 -6 -7 7.014 4.806 1.969 41.142 o
-5 -6 -6 14.054 12.753 2.070 35.816 o
-5 -6 -5 8.889 8.098 1.898 43.528 o
-5 -6 -4 313.810 315.170 3.241 2.685 o
-5 -6 -3 20.803 19.882 1.262 77.590 o
-5 -6 -2 301.036 296.358 4.201 2.572 o
-5 -6 -1 29.356 25.900 1.777 41.287 o
-5 -6 0 228.941 226.686 4.827 3.221 o
-5 -5 -15 13.293 12.501 2.353 28.231 o
-5 -5 -14 5.892 7.775 4.170 9.388 o
-5 -5 -13 16.372 18.307 2.746 20.677 o
-5 -5 -12 3.866 3.494 1.838 47.741 o
-5 -5 -11 5.119 5.150 1.646 58.640 o
-5 -5 -10 37.243 36.603 1.878 34.539 o
-5 -5 -9 49.664 49.689 1.949 28.634 o
-5 -5 -8 15.354 15.045 1.474 65.048 o
-5 -5 -7 56.394 55.303 1.797 29.422 o
-5 -5 -6 153.351 155.722 2.433 8.477 o
-5 -5 -5 19.388 18.266 1.171 89.025 o
-5 -5 -4 86.408 89.736 1.757 20.441 o
-5 -5 -3 22.953 21.376 1.282 73.400 o
-5 -5 -2 174.499 164.517 3.948 5.155 o
-5 -5 -1 17.232 14.187 1.969 38.589 o
-5 -5 0 419.770 410.348 5.836 1.359 o
-5 -4 -15 12.054 12.238 2.494 25.359 o
-5 -4 -14 8.257 8.714 2.322 29.562 o
-5 -4 -13 4.076 3.867 1.848 47.160 o
-5 -4 -12 16.027 16.408 1.565 58.067 o
-5 -4 -11 7.049 4.453 1.474 71.769 o
-5 -4 -10 51.766 52.900 1.848 29.812 o
-5 -4 -9 1.037 0.616 0.878 209.044 o
-5 -4 -8 143.110 143.565 2.312 9.587 o
-5 -4 -7 50.197 49.467 1.515 38.631 o
-5 -4 -6 35.614 34.099 1.505 48.335 o
-5 -4 -5 28.556 26.495 1.434 57.368 o
-5 -4 -4 726.766 725.093 5.826 0.568 o
-5 -4 -3 19.798 17.994 1.828 43.029 o
-5 -4 -2 434.805 439.378 5.463 1.317 o
-5 -4 -1 119.480 110.657 7.563 2.516 o
-5 -4 0 273.276 286.594 9.542 1.253 o
-5 -3 -15 22.883 22.275 2.141 31.698 o
-5 -3 -14 2.443 1.666 1.080 136.474 o
-5 -3 -13 5.436 4.503 1.908 44.000 o
-5 -3 -12 35.828 35.926 1.828 36.416 o
-5 -3 -11 0.727 0.232 0.555 517.618 o
-5 -3 -10 38.750 40.632 1.676 39.489 o
-5 -3 -9 26.085 25.052 1.464 57.357 o
-5 -3 -8 21.829 21.437 1.292 73.422 o
-5 -3 -7 21.668 21.053 1.191 83.036 o
-5 -3 -6 408.023 415.619 3.585 1.688 o
-5 -3 -5 23.626 20.659 2.060 33.928 o
-5 -3 -4 74.202 68.077 2.706 15.088 o
-5 -3 -3 62.088 59.696 2.444 18.901 o
-5 -3 -2 853.001 829.076 7.593 0.410 o
-5 -3 -1 39.447 40.793 1.908 32.730 o
-5 -3 0 498.128 506.081 9.593 0.761 o
-5 -2 -16 1.798 1.282 1.575 65.544 o
-5 -2 -15 4.607 3.716 1.797 49.696 o
-5 -2 -14 4.070 4.049 1.565 65.175 o
-5 -2 -13 1.666 2.746 1.969 42.038 o
-5 -2 -12 21.664 21.194 1.787 43.774 o
-5 -2 -11 11.834 11.077 1.252 90.482 o
-5 -2 -10 113.167 114.979 2.040 13.720 o
-5 -2 -9 114.572 116.312 2.120 13.166 o
-5 -2 -8 146.028 144.191 2.070 10.019 o
-5 -2 -7 25.281 24.587 1.181 78.620 o
-5 -2 -6 6.084 5.665 0.939 165.351 o
-5 -2 -5 8.105 8.552 1.212 100.671 o
-5 -2 -4 1170.070 1150.090 9.168 0.226 o
-5 -2 -3 174.380 162.881 3.585 5.660 o
-5 -2 -2 528.795 515.886 5.503 0.991 o
-5 -2 -1 149.855 146.210 2.928 7.759 o
-5 -2 0 239.676 237.894 7.018 2.067 o
-5 -1 -16 8.966 8.381 2.030 38.269 o
-5 -1 -15 6.742 5.735 1.939 42.366 o
-5 -1 -14 0.342 -0.141 1.091 137.841 o
-5 -1 -13 96.658 103.599 2.898 11.318 o
-5 -1 -12 46.768 46.044 1.848 31.814 o
-5 -1 -11 52.620 52.345 1.656 33.776 o
-5 -1 -10 63.516 61.402 1.636 29.807 o
-5 -1 -9 72.967 71.055 1.666 25.833 o
-5 -1 -8 21.317 20.134 1.101 93.822 o
-5 -1 -7 77.399 75.619 1.605 25.112 o
-5 -1 -6 259.689 259.473 3.696 3.355 o
-5 -1 -5 132.082 129.529 2.575 9.838 o
-5 -1 -4 10.326 8.098 1.151 107.986 o
-5 -1 -3 38.607 37.128 1.262 57.058 o
-5 -1 -2 639.271 623.473 3.999 0.776 o
-5 -1 -1 42.747 40.672 1.010 65.296 o
-5 -1 0 583.781 578.237 2.484 0.956 o
-5 0 1 219.010 218.962 1.717 5.738 o
-5 0 2 389.383 413.690 2.444 1.925 o
-5 0 3 170.626 166.092 1.575 8.919 o
-5 0 4 148.373 149.108 1.575 10.893 o
-5 0 5 139.045 140.768 1.575 11.958 o
-5 0 6 25.042 23.840 0.818 121.914 o
-5 0 7 303.218 298.327 2.474 3.100 o
-5 0 8 72.812 67.723 1.414 29.965 o
-5 0 9 505.704 500.063 4.231 1.147 o
-5 0 10 19.374 18.276 1.191 86.792 o
-5 0 11 139.578 142.848 2.353 9.696 o
-5 0 12 7.004 6.583 1.494 69.492 o
-5 0 13 98.431 95.552 2.686 12.473 o
-5 0 14 47.739 54.910 2.363 21.762 o
-5 0 15 104.110 112.737 3.191 9.558 o
-5 0 16 3.217 1.333 1.363 86.399 o
-5 0 17 0.122 0.273 3.696 12.037 o
-5 0 18 16.355 12.551 4.019 9.966 o
-5 0 19 17.307 17.357 3.221 15.233 o
-5 1 1 731.458 716.844 3.494 0.614 o
-5 1 2 190.953 190.275 1.515 7.409 o
-5 1 3 1181.510 1181.400 4.291 0.241 o
-5 1 4 397.109 401.553 2.292 1.932 o
-5 1 5 89.028 89.564 1.141 25.595 o
-5 1 6 29.188 27.263 0.798 111.450 o
-5 1 7 519.758 513.129 3.797 1.122 o
-5 1 8 55.219 51.083 1.484 37.244 o
-5 1 9 25.690 25.617 1.303 68.035 o
-5 1 10 39.838 37.249 1.545 44.201 o
-5 1 11 199.461 193.365 3.080 5.357 o
-5 1 12 9.942 7.805 1.434 73.253 o
-5 1 13 84.749 82.172 3.130 11.412 o
-5 1 14 14.123 12.692 2.272 30.069 o
-5 1 15 19.023 14.934 2.454 25.491 o
-5 1 16 11.971 10.037 2.625 23.046 o
-5 1 17 35.622 34.493 4.554 7.514 o
-5 1 19 3.432 4.322 5.049 6.434 o
-5 2 1 378.099 364.970 3.403 2.001 o
-5 2 2 1414.450 1406.290 7.795 0.164 o
-5 2 3 27.918 27.283 0.858 106.756 o
-5 2 4 154.271 152.359 1.646 10.210 o
-5 2 5 282.515 280.687 1.929 3.653 o
-5 2 6 201.266 198.404 2.019 6.357 o
-5 2 7 59.506 58.121 1.262 39.520 o
-5 2 8 30.473 30.868 1.252 65.870 o
-5 2 9 597.826 601.552 4.534 0.839 o
-5 2 10 15.953 16.105 1.292 80.287 o
-5 2 11 52.475 50.972 1.797 30.904 o
-5 2 12 56.595 57.404 2.090 24.237 o
-5 2 13 86.836 85.535 3.241 10.709 o
-5 2 14 2.783 0.616 2.060 38.434 o
-5 2 15 65.723 64.472 3.282 11.917 o
-5 2 16 2.159 0.909 3.120 16.840 o
-5 2 17 2.356 -0.333 4.291 8.916 o
-5 2 18 8.830 7.220 4.049 9.929 o
-5 2 19 8.983 8.653 3.554 12.834 o
-5 3 1 395.082 387.568 3.049 1.893 o
-5 3 2 37.581 38.431 1.151 63.219 o
-5 3 3 190.940 191.507 1.919 6.950 o
-5 3 4 1069.030 1059.010 5.109 0.289 o
-5 3 5 60.920 58.514 1.191 40.463 o
-5 3 6 151.647 150.825 1.727 10.263 o
-5 3 7 282.565 287.119 3.090 3.196 o
-5 3 8 145.602 143.857 2.151 9.850 o
-5 3 9 76.898 76.397 1.858 22.174 o
-5 3 10 117.567 119.018 2.403 11.639 o
-5 3 11 117.339 116.696 3.070 9.312 o
-5 3 12 6.355 5.523 1.686 55.571 o
-5 3 13 93.338 98.369 3.403 9.510 o
-5 3 14 15.429 12.339 2.302 29.211 o
-5 3 15 12.425 11.046 3.625 12.271 o
-5 3 16 4.166 4.251 3.191 16.031 o
-5 3 17 30.898 31.009 4.746 7.008 o
-5 3 18 2.469 1.262 6.472 3.922 o
-5 4 1 7.769 7.512 0.747 231.572 o
-5 4 2 592.031 602.824 3.362 0.889 o
-5 4 3 234.858 232.513 2.575 4.601 o
-5 4 4 82.415 84.384 1.464 24.622 o
-5 4 5 4.452 5.463 0.777 237.387 o
-5 4 6 107.152 105.417 1.838 15.883 o
-5 4 7 3.247 2.080 0.727 284.185 o
-5 4 8 198.030 198.656 2.696 5.741 o
-5 4 9 130.825 128.701 2.948 8.829 o
-5 4 10 74.502 78.760 2.100 19.800 o
-5 4 11 92.863 93.411 2.928 11.676 o
-5 4 12 8.714 6.513 1.807 48.003 o
-5 4 13 63.268 63.876 4.019 8.636 o
-5 4 14 47.839 44.610 4.544 7.336 o
-5 4 15 132.465 145.705 6.614 3.011 o
-5 4 16 18.679 17.751 4.110 9.482 o
-5 4 17 1.448 0.404 2.726 22.069 o
-5 4 18 9.123 11.693 4.958 6.634 o
-5 5 1 150.265 145.433 1.939 10.040 o
-5 5 2 292.465 294.490 2.595 3.212 o
-5 5 3 28.836 28.848 0.969 91.798 o
-5 5 4 199.749 200.332 2.030 6.365 o
-5 5 5 105.658 107.012 2.040 14.838 o
-5 5 6 39.714 39.551 1.444 47.602 o
-5 5 7 220.097 224.717 2.787 4.828 o
-5 5 8 25.350 26.051 1.555 52.452 o
-5 5 9 55.472 53.900 3.100 13.824 o
-5 5 10 23.356 19.619 1.848 41.123 o
-5 5 11 75.662 75.074 2.211 18.805 o
-5 5 12 35.979 34.695 2.343 24.735 o
-5 5 14 40.742 41.228 4.443 7.766 o
-5 5 15 9.695 7.805 3.857 10.917 o
-5 5 16 18.806 18.377 4.392 8.323 o
-5 5 17 13.416 15.227 4.776 7.110 o
-5 5 18 14.994 13.601 5.846 4.764 o
-5 6 1 68.506 69.541 1.575 28.413 o
-5 6 2 371.292 374.138 2.837 2.105 o
-5 6 3 32.478 32.514 1.101 73.884 o
-5 6 4 55.794 57.323 1.434 37.093 o
-5 6 5 226.070 232.452 3.100 4.400 o
-5 6 6 9.433 8.088 1.363 80.565 o
-5 6 7 25.332 24.032 1.393 62.486 o
-5 6 8 7.138 4.483 1.575 63.230 o
-5 6 9 262.384 268.005 6.170 2.204 o
-5 6 11 4.933 2.252 1.807 49.236 o
-5 6 15 56.104 58.322 5.251 5.484 o
-5 6 16 10.106 13.399 4.281 8.855 o
-5 6 17 15.256 12.915 5.362 5.655 o
-5 7 1 45.403 44.681 1.484 42.408 o
-5 7 2 126.950 129.327 1.929 12.336 o
-5 7 3 95.762 96.662 1.706 18.830 o
-5 7 4 198.441 201.958 3.150 5.208 o
-5 7 5 26.029 26.475 1.605 49.553 o
-5 7 6 34.518 36.835 2.131 28.917 o
-5 7 7 376.567 390.375 4.827 1.702 o
-5 7 8 18.744 21.568 2.959 17.775 o
-5 7 9 17.638 17.378 2.736 20.776 o
-5 7 11 79.031 78.033 3.160 11.641 o
-5 7 12 12.034 12.511 3.191 15.740 o
-5 7 15 4.819 4.211 4.534 7.967 o
-5 7 16 1.880 0.596 13.611 0.887 o
-5 7 17 21.090 20.084 5.049 6.319 o
-5 8 1 10.953 9.633 1.091 116.569 o
-5 8 2 234.850 237.218 2.686 4.482 o
-5 8 3 17.017 18.367 1.151 94.015 o
-5 8 4 50.930 50.113 2.040 26.664 o
-5 8 5 86.699 85.262 2.444 15.221 o
-5 8 6 39.700 39.036 2.373 23.523 o
-5 8 7 2.256 2.353 1.777 51.423 o
-5 8 8 4.772 5.442 2.726 21.852 o
-5 8 10 18.007 19.316 3.302 14.477 o
-5 8 11 11.169 10.340 2.393 27.599 o
-5 8 12 1.367 -0.283 0.717 310.773 o
-5 8 15 58.155 70.985 5.675 4.696 o
-5 9 1 48.674 47.225 1.595 37.378 o
-5 9 2 6.548 4.635 1.373 82.313 o
-5 9 3 98.076 97.198 2.716 12.289 o
-5 9 4 155.430 156.994 3.292 6.684 o
-5 9 5 30.919 32.635 2.030 32.321 o
-5 9 6 35.743 38.845 2.615 20.401 o
-5 9 7 102.546 105.376 3.544 8.570 o
-5 9 8 48.800 53.839 4.271 8.125 o
-5 9 10 5.199 3.362 3.474 13.535 o
-5 9 11 16.230 16.156 3.605 12.291 o
-5 9 12 13.328 14.237 3.645 12.096 o
-5 9 13 19.212 19.690 4.201 9.069 o
-5 10 1 33.495 31.878 1.807 38.217 o
-5 10 2 91.213 90.594 2.403 14.845 o
-5 10 3 17.071 17.408 1.919 40.150 o
-5 10 4 88.287 88.039 2.837 12.576 o
-5 10 5 62.597 67.410 3.241 12.225 o
-5 10 6 22.476 22.416 2.545 23.253 o
-5 10 7 18.808 17.176 2.524 24.102 o
-5 10 9 60.896 66.350 4.867 6.200 o
-5 10 10 7.655 5.947 3.756 11.542 o
-5 10 11 5.002 2.696 4.978 6.615 o
-5 10 13 14.822 12.157 4.524 7.914 o
-5 11 1 22.343 20.225 1.787 43.720 o
-5 11 2 42.923 42.338 2.454 21.761 o
-5 11 3 49.985 51.891 2.565 19.160 o
-5 11 4 10.443 6.523 2.555 24.496 o
-5 11 5 8.675 7.916 2.585 24.002 o
-5 11 6 65.423 71.076 3.554 10.396 o
-5 11 7 53.270 54.627 3.312 12.483 o
-5 11 8 17.466 18.842 3.827 10.901 o
-5 11 9 3.809 3.746 3.918 10.666 o
-5 11 10 5.144 3.211 3.746 11.649 o
-5 11 11 18.513 18.115 4.039 9.807 o
-5 11 12 4.457 3.463 5.170 6.135 o
-5 12 1 3.901 3.554 2.555 24.937 o
-5 12 2 2.901 1.797 2.646 23.348 o
-5 12 3 12.796 10.835 2.605 23.319 o
-5 12 4 27.510 25.657 2.948 17.376 o
-5 12 5 6.083 4.746 3.251 15.400 o
-5 12 6 20.518 19.417 2.373 26.761 o
-5 12 7 1.591 0.545 2.221 33.182 o
-5 12 8 3.717 2.302 4.241 9.114 o
-5 12 9 27.951 28.333 4.301 8.510 o
-5 13 1 26.335 24.961 3.160 15.343 o
-5 13 2 3.914 1.989 2.676 22.782 o
-5 13 3 8.795 8.290 3.312 14.757 o
-5 13 4 21.556 19.357 2.433 25.456 o
-5 13 5 3.843 3.160 3.494 13.401 o
-5 13 6 2.826 0.899 3.070 17.382 o
-4 -13 -4 6.148 8.472 3.988 10.250 o
-4 -13 -3 14.236 17.085 4.503 7.969 o
-4 -12 -7 0.904 1.919 3.342 14.693 o
-4 -12 -6 3.620 4.897 3.615 12.514 o
-4 -12 -5 9.135 6.654 4.362 8.567 o
-4 -12 -4 0.036 2.514 2.928 19.145 o
-4 -12 -3 17.677 17.832 4.140 9.358 o
-4 -12 -2 26.689 30.726 4.352 8.323 o
-4 -12 -1 46.321 45.650 4.594 7.201 o
-4 -11 -9 4.859 8.664 3.938 10.524 o
-4 -11 -8 4.676 4.816 3.978 10.333 o
-4 -11 -7 19.334 21.598 4.221 8.973 o
-4 -11 -6 17.248 24.062 4.100 9.506 o
-4 -11 -5 39.455 43.308 4.423 7.835 o
-4 -11 -4 45.329 44.469 4.413 7.779 o
-4 -11 -3 25.970 21.982 3.776 11.006 o
-4 -11 -2 6.725 6.503 3.150 16.357 o
-4 -11 -1 31.519 35.916 4.069 9.345 o
-4 -11 0 58.164 62.109 4.645 6.803 o
-4 -10 -10 5.161 6.604 3.675 12.078 o
-4 -10 -9 6.165 6.180 2.878 19.578 o
-4 -10 -8 26.366 28.242 2.868 18.276 o
-4 -10 -7 28.964 30.363 2.817 18.657 o
-4 -10 -6 108.544 118.604 5.816 3.969 o
-4 -10 -5 7.740 4.493 3.443 13.721 o
-4 -10 -4 19.876 19.872 3.524 12.724 o
-4 -10 -3 76.023 82.445 4.887 5.878 o
-4 -10 -2 185.844 184.651 6.371 2.764 o
-4 -10 -1 73.608 73.650 4.514 6.832 o
-4 -10 0 16.710 14.692 3.231 15.199 o
-4 -9 -12 1.073 3.665 3.090 17.165 o
-4 -9 -11 17.884 15.217 4.241 8.940 o
-4 -9 -10 7.987 6.028 2.383 28.243 o
-4 -9 -9 18.802 20.397 2.666 21.659 o
-4 -9 -8 47.199 47.054 3.039 14.910 o
-4 -9 -7 32.631 30.555 2.736 19.399 o
-4 -9 -6 0.664 0.030 1.232 107.830 o
-4 -9 -5 13.447 12.440 2.221 31.461 o
-4 -9 -4 165.337 169.798 4.120 5.054 o
-4 -9 -3 28.197 24.183 3.322 13.930 o
-4 -9 -2 1.580 2.433 2.181 34.338 o
-4 -9 -1 3.863 2.706 1.959 42.172 o
-4 -9 0 149.356 146.321 3.766 6.145 o
-4 -8 -13 5.256 6.210 3.857 10.975 o
-4 -8 -12 9.791 10.360 3.655 12.119 o
-4 -8 -11 6.226 6.624 2.716 21.927 o
-4 -8 -10 8.028 7.654 2.545 24.796 o
-4 -8 -9 15.159 14.298 2.383 27.307 o
-4 -8 -8 9.268 8.855 2.221 32.109 o
-4 -8 -7 1.550 2.383 2.322 30.313 o
-4 -8 -6 59.437 54.617 2.868 15.359 o
-4 -8 -5 3.672 2.252 1.777 51.150 o
-4 -8 -4 0.313 0.586 0.939 185.083 o
-4 -8 -3 18.831 17.065 1.616 53.747 o
-4 -8 -2 375.641 378.349 4.190 1.844 o
-4 -8 -1 133.914 132.801 2.686 9.333 o
-4 -8 0 110.601 111.011 3.171 9.389 o
-4 -7 -14 8.581 6.785 2.635 23.146 o
-4 -7 -13 45.132 47.650 4.907 6.373 o
-4 -7 -12 28.410 32.695 3.110 15.561 o
-4 -7 -11 36.584 37.885 2.464 22.516 o
-4 -7 -10 57.131 55.606 2.646 17.497 o
-4 -7 -9 12.219 10.602 1.949 40.601 o
-4 -7 -8 52.244 53.466 2.383 21.047 o
-4 -7 -7 5.679 4.857 1.676 56.496 o
-4 -7 -6 2.290 0.444 1.464 75.705 o
-4 -7 -5 35.961 36.785 2.333 24.785 o
-4 -7 -4 150.507 148.825 2.847 7.857 o
-4 -7 -3 9.241 7.957 1.353 81.832 o
-4 -7 -2 15.831 13.308 1.404 70.981 o
-4 -7 -1 11.372 9.653 1.585 59.969 o
-4 -7 0 258.934 257.413 3.908 3.268 o
-4 -6 -15 5.230 3.706 2.282 31.059 o
-4 -6 -14 4.885 4.938 2.565 24.659 o
-4 -6 -13 19.941 20.780 2.868 18.814 o
-4 -6 -12 19.981 20.518 2.191 30.935 o
-4 -6 -11 10.677 8.552 2.433 26.828 o
-4 -6 -10 12.072 10.188 2.272 30.409 o
-4 -6 -9 20.916 18.559 2.353 27.186 o
-4 -6 -8 100.967 101.529 3.484 8.887 o
-4 -6 -7 62.327 64.381 2.858 14.920 o
-4 -6 -6 194.471 200.716 4.079 4.364 o
-4 -6 -5 39.912 39.774 1.838 34.563 o
-4 -6 -4 167.657 172.675 2.423 7.520 o
-4 -6 -3 30.298 30.232 1.505 51.747 o
-4 -6 -2 643.419 641.911 7.311 0.645 o
-4 -6 -1 11.436 9.471 1.949 40.842 o
-4 -6 0 177.134 166.819 3.827 5.237 o
-4 -5 -15 3.547 3.302 2.262 31.760 o
-4 -5 -14 10.306 10.118 2.232 31.658 o
-4 -5 -13 40.707 42.147 2.565 20.480 o
-4 -5 -12 0.793 0.777 1.464 76.245 o
-4 -5 -11 70.411 74.549 2.232 19.290 o
-4 -5 -10 118.208 125.561 2.373 11.488 o
-4 -5 -9 7.993 7.280 1.191 104.530 o
-4 -5 -8 183.141 188.781 2.878 6.068 o
-4 -5 -7 98.414 98.500 1.908 16.925 o
-4 -5 -6 139.256 146.170 2.595 8.991 o
-4 -5 -5 74.136 71.974 1.666 25.470 o
-4 -5 -4 227.114 227.615 2.969 4.522 o
-4 -5 -3 4.373 4.059 1.121 123.284 o
-4 -5 -2 107.852 102.781 2.989 10.367 o
-4 -5 -1 20.201 17.711 1.848 42.145 o
-4 -5 0 94.839 89.847 2.746 12.586 o
-4 -4 -16 1.882 2.545 2.413 28.061 o
-4 -4 -15 21.037 20.841 2.151 31.814 o
-4 -4 -14 4.024 3.029 2.110 36.382 o
-4 -4 -13 22.210 22.800 1.868 40.258 o
-4 -4 -12 37.073 36.492 1.747 38.442 o
-4 -4 -11 22.100 21.619 1.505 57.870 o
-4 -4 -10 1.831 1.171 1.030 151.128 o
-4 -4 -9 69.793 72.045 1.807 24.508 o
-4 -4 -8 183.431 188.215 2.565 6.475 o
-4 -4 -7 37.095 36.371 1.303 56.286 o
-4 -4 -6 128.118 125.763 2.040 11.989 o
-4 -4 -5 27.856 24.799 1.181 76.010 o
-4 -4 -4 130.085 126.298 2.232 11.159 o
-4 -4 -3 42.289 39.410 1.444 46.400 o
-4 -4 -2 596.067 587.042 4.816 0.842 o
-4 -4 -1 37.026 36.048 1.969 32.281 o
-4 -4 0 361.368 349.259 4.554 1.923 o
-4 -3 -16 10.946 9.936 2.141 34.213 o
-4 -3 -15 6.640 6.331 1.848 46.450 o
-4 -3 -14 28.485 27.980 1.818 39.789 o
-4 -3 -13 101.831 108.496 2.827 11.199 o
-4 -3 -12 0.299 -0.141 0.364 1214.590 o
-4 -3 -11 110.790 112.980 2.312 12.746 o
-4 -3 -10 85.874 87.393 1.999 18.591 o
-4 -3 -9 56.151 56.252 1.626 32.809 o
-4 -3 -8 46.909 45.489 1.434 43.219 o
-4 -3 -7 108.721 106.265 1.797 15.874 o
-4 -3 -6 2.300 3.029 1.222 106.989 o
-4 -3 -5 185.255 184.833 2.807 6.155 o
-4 -3 -4 109.843 108.093 2.120 13.955 o
-4 -3 -3 321.262 297.873 4.049 2.459 o
-4 -3 -2 52.809 54.193 1.969 27.173 o
-4 -3 -1 178.691 175.260 2.969 6.263 o
-4 -3 0 647.438 652.099 11.915 0.474 o
-4 -2 -16 3.367 2.858 2.272 31.513 o
-4 -2 -15 34.583 35.654 2.232 26.913 o
-4 -2 -14 1.671 0.273 0.222 2364.760 o
-4 -2 -13 47.570 47.215 2.161 25.381 o
-4 -2 -12 16.596 15.944 1.626 54.230 o
-4 -2 -11 65.247 68.137 1.919 24.256 o
-4 -2 -10 1.076 0.757 0.798 252.025 o
-4 -2 -9 127.563 124.713 1.898 12.588 o
-4 -2 -8 140.717 140.687 2.070 10.465 o
-4 -2 -7 1.841 1.131 0.666 348.895 o
-4 -2 -6 317.540 309.142 3.706 2.545 o
-4 -2 -5 201.840 191.891 2.595 5.839 o
-4 -2 -4 27.424 24.123 1.272 69.517 o
-4 -2 -3 115.922 109.032 1.878 14.508 o
-4 -2 -2 1399.040 1423.770 16.580 0.136 o
-4 -2 -1 67.679 67.592 1.908 23.995 o
-4 -2 0 187.426 180.390 5.937 3.041 o
-4 -1 -16 11.550 13.561 2.292 29.785 o
-4 -1 -15 11.680 10.481 1.888 43.194 o
-4 -1 -14 31.562 31.322 1.818 38.496 o
-4 -1 -13 32.290 30.373 1.717 41.923 o
-4 -1 -12 24.294 24.860 1.575 52.121 o
-4 -1 -11 12.835 10.057 1.282 86.411 o
-4 -1 -10 67.449 62.917 1.595 29.244 o
-4 -1 -9 28.691 26.263 1.171 75.328 o
-4 -1 -8 153.618 150.471 2.221 9.053 o
-4 -1 -7 318.076 316.361 4.029 2.420 o
-4 -1 -6 97.211 100.378 2.322 14.364 o
-4 -1 -5 104.378 100.711 2.161 14.606 o
-4 -1 -4 828.697 825.764 5.018 0.463 o
-4 -1 -3 59.413 55.283 1.444 35.889 o
-4 -1 -2 16.974 15.772 1.262 82.692 o
-4 -1 -1 298.511 296.187 3.352 2.883 o
-4 -1 0 2112.780 2135.400 15.893 0.070 o
-4 0 1 2.095 0.838 0.949 176.937 o
-4 0 2 990.135 1054.710 4.564 0.322 o
-4 0 3 40.614 43.025 1.020 65.673 o
-4 0 4 2163.560 2260.490 19.649 0.062 o
-4 0 5 264.561 274.962 2.272 3.851 o
-4 0 6 51.394 49.285 1.040 53.209 o
-4 0 7 610.347 607.560 3.332 0.854 o
-4 0 8 184.860 178.219 2.353 6.877 o
-4 0 9 36.212 33.877 1.393 53.113 o
-4 0 10 0.140 0.273 0.525 590.026 o
-4 0 11 185.406 182.086 2.989 5.955 o
-4 0 12 21.500 18.983 1.565 55.151 o
-4 0 13 46.174 46.064 2.110 26.587 o
-4 0 14 53.989 56.263 2.383 20.682 o
-4 0 15 16.017 16.378 2.444 25.884 o
-4 0 16 2.614 2.494 2.161 34.883 o
-4 0 17 33.983 35.149 3.090 15.440 o
-4 0 18 24.907 25.344 2.545 22.932 o
-4 1 1 513.169 521.116 3.615 1.139 o
-4 1 2 273.348 287.341 2.676 3.470 o
-4 1 3 1149.350 1171.110 10.633 0.219 o
-4 1 4 367.995 393.465 2.494 2.113 o
-4 1 5 721.813 732.232 3.514 0.615 o
-4 1 6 503.404 507.636 2.736 1.232 o
-4 1 7 50.746 48.255 1.272 45.947 o
-4 1 8 27.916 27.788 1.111 80.435 o
-4 1 9 296.999 303.810 2.999 2.977 o
-4 1 10 159.473 163.386 2.262 8.361 o
-4 1 11 17.820 16.772 1.202 88.032 o
-4 1 12 46.310 45.196 1.949 29.803 o
-4 1 13 63.407 65.764 2.333 19.611 o
-4 1 14 9.235 8.441 1.747 50.846 o
-4 1 15 65.298 68.056 2.656 16.198 o
-4 1 16 58.541 62.987 3.433 11.400 o
-4 1 17 13.073 10.744 3.787 11.258 o
-4 1 18 5.253 3.373 3.362 14.436 o
-4 1 19 5.456 3.474 4.857 6.945 o
-4 2 1 513.534 505.546 3.817 1.146 o
-4 2 2 1572.260 1569.190 8.502 0.133 o
-4 2 3 260.491 246.134 2.181 4.204 o
-4 2 4 248.898 262.986 2.757 3.969 o
-4 2 5 381.119 380.015 2.716 2.042 o
-4 2 6 14.728 14.429 0.757 180.816 o
-4 2 7 177.852 178.916 1.807 7.894 o
-4 2 8 6.604 5.917 0.727 252.738 o
-4 2 9 21.453 19.932 1.151 88.068 o
-4 2 10 13.530 11.733 1.101 109.761 o
-4 2 11 292.738 302.760 3.160 2.974 o
-4 2 12 13.323 12.501 1.545 61.429 o
-4 2 13 52.573 51.073 2.151 24.461 o
-4 2 14 11.878 10.229 2.131 34.386 o
-4 2 15 54.435 54.031 3.120 13.729 o
-4 2 16 0.348 0.434 2.767 21.465 o
-4 2 17 34.460 35.563 4.786 6.842 o
-4 2 18 1.166 0.273 6.937 3.416 o
-4 2 19 2.876 0.596 1.121 127.217 o
-4 3 1 299.318 297.196 2.161 3.242 o
-4 3 2 428.504 418.517 2.494 1.701 o
-4 3 3 655.621 661.924 3.130 0.746 o
-4 3 4 407.334 410.842 2.635 1.813 o
-4 3 5 351.307 344.997 2.746 2.364 o
-4 3 6 197.513 191.901 2.221 6.375 o
-4 3 7 88.865 86.393 1.595 21.769 o
-4 3 8 167.543 164.052 2.171 8.140 o
-4 3 9 555.457 554.165 4.534 0.957 o
-4 3 10 26.305 25.041 1.121 82.832 o
-4 3 11 16.182 13.844 1.585 57.248 o
-4 3 12 14.494 12.925 1.959 39.587 o
-4 3 13 123.402 127.449 3.585 7.453 o
-4 3 14 47.870 47.458 4.180 8.519 o
-4 3 15 21.740 21.447 3.887 10.487 o
-4 3 16 8.034 9.330 3.968 10.331 o
-4 3 17 8.484 6.937 3.585 12.642 o
-4 3 18 2.330 0.868 2.353 29.540 o
-4 3 19 4.649 1.484 5.897 4.720 o
-4 4 1 34.519 32.928 0.929 84.435 o
-4 4 2 42.746 43.813 1.000 64.331 o
-4 4 3 461.818 466.408 2.474 1.457 o
-4 4 4 745.446 756.971 4.160 0.569 o
-4 4 5 368.412 372.190 3.049 2.096 o
-4 4 6 13.539 12.127 0.919 144.882 o
-4 4 7 509.203 498.114 3.474 1.189 o
-4 4 8 67.542 63.916 1.888 24.640 o
-4 4 9 123.240 120.462 2.666 10.277 o
-4 4 10 20.606 17.711 1.292 75.883 o
-4 4 11 309.110 322.864 4.574 2.300 o
-4 4 12 37.899 37.946 3.150 14.677 o
-4 4 13 21.587 18.922 3.514 12.766 o
-4 4 14 0.514 1.282 2.615 23.998 o
-4 4 15 37.138 35.179 4.372 8.091 o
-4 4 16 4.110 4.776 4.342 8.686 o
-4 4 17 20.740 19.175 4.473 8.011 o
-4 4 18 1.721 -0.232 2.191 34.114 o
-4 5 1 107.208 107.931 1.656 16.748 o
-4 5 2 247.376 244.488 2.524 4.280 o
-4 5 3 693.255 690.813 3.251 0.676 o
-4 5 4 133.803 135.416 1.717 12.214 o
-4 5 5 488.996 496.650 3.827 1.225 o
-4 5 6 629.673 634.399 4.261 0.774 o
-4 5 7 253.579 251.364 2.979 3.868 o
-4 5 8 28.434 28.394 1.757 41.941 o
-4 5 9 319.079 330.770 6.008 1.837 o
-4 5 10 1.540 1.434 1.474 74.787 o
-4 5 11 11.495 11.905 1.767 48.745 o
-4 5 14 8.232 7.866 3.302 14.862 o
-4 5 15 14.161 12.076 3.615 12.300 o
-4 5 17 6.562 5.402 5.503 5.409 o
-4 5 18 5.053 3.746 4.100 9.735 o
-4 6 1 255.940 254.454 2.504 4.054 o
-4 6 2 22.503 21.235 0.929 113.715 o
-4 6 3 77.392 78.366 1.373 27.701 o
-4 6 4 281.370 288.331 2.928 3.265 o
-4 6 5 163.537 168.374 3.272 6.329 o
-4 6 6 132.504 136.406 4.372 5.563 o
-4 6 7 41.715 40.632 1.565 42.057 o
-4 6 8 52.655 55.717 3.433 11.756 o
-4 6 10 88.462 97.561 4.180 7.204 o
-4 6 11 111.693 115.353 4.594 5.704 o
-4 6 12 3.401 1.605 1.999 40.640 o
-4 6 14 2.147 0.162 5.826 4.841 o
-4 6 15 25.392 25.284 4.342 8.407 o
-4 6 16 1.465 0.454 36.916 0.121 o
-4 7 1 14.699 15.308 0.969 128.095 o
-4 7 2 70.458 71.207 1.474 29.211 o
-4 7 3 211.012 215.943 2.272 5.573 o
-4 7 4 125.748 128.297 2.514 10.421 o
-4 7 5 18.246 18.569 1.807 44.205 o
-4 7 7 22.788 21.204 1.434 62.157 o
-4 7 8 112.956 118.594 4.857 5.213 o
-4 7 10 3.262 3.898 2.433 27.481 o
-4 7 11 57.639 59.958 3.908 9.242 o
-4 7 12 12.566 11.753 2.797 20.320 o
-4 7 14 3.681 0.677 5.230 6.000 o
-4 7 15 9.319 8.896 4.120 9.583 o
-4 7 16 3.967 2.736 5.392 5.644 o
-4 7 17 7.617 2.635 6.210 4.252 o
-4 8 1 35.413 33.210 1.282 59.533 o
-4 8 2 83.147 82.546 1.676 22.424 o
-4 8 3 9.280 9.552 1.161 106.722 o
-4 8 4 54.462 56.586 2.019 25.779 o
-4 8 5 18.991 16.832 1.595 54.893 o
-4 8 6 18.326 20.053 2.030 35.821 o
-4 8 7 33.846 35.058 2.272 26.274 o
-4 8 8 19.086 15.318 1.959 38.482 o
-4 8 10 33.130 31.928 3.605 11.729 o
-4 8 11 162.336 189.185 6.503 2.805 o
-4 8 12 12.020 10.703 3.140 16.263 o
-4 8 13 5.930 3.362 4.382 8.521 o
-4 8 15 34.123 33.614 4.907 6.534 o
-4 9 1 106.443 107.335 2.312 13.324 o
-4 9 2 7.379 6.301 1.282 92.329 o
-4 9 3 69.825 68.097 1.959 22.917 o
-4 9 4 46.137 45.600 2.100 26.817 o
-4 9 5 34.051 35.775 2.474 22.728 o
-4 9 6 47.695 43.187 2.646 18.829 o
-4 9 7 35.559 36.603 2.514 21.928 o
-4 9 8 30.135 30.363 3.272 14.158 o
-4 9 9 86.680 92.997 5.170 5.170 o
-4 9 10 22.378 22.285 3.564 12.366 o
-4 9 11 8.315 6.422 3.413 13.936 o
-4 9 12 1.674 4.453 3.817 11.252 o
-4 9 13 35.656 41.834 4.312 8.281 o
-4 10 1 18.083 16.105 1.525 59.853 o
-4 10 2 48.218 44.630 2.131 26.007 o
-4 10 3 5.022 4.796 1.787 50.047 o
-4 10 4 46.702 43.883 2.232 24.583 o
-4 10 5 32.643 33.443 2.676 20.069 o
-4 10 6 3.378 3.615 2.262 31.761 o
-4 10 7 17.794 15.318 2.413 26.386 o
-4 10 8 9.499 6.755 2.141 34.578 o
-4 10 9 9.904 9.158 3.282 14.991 o
-4 10 10 5.389 5.877 3.463 13.591 o
-4 10 11 20.863 21.063 3.918 10.348 o
-4 10 12 5.720 3.787 3.988 10.276 o
-4 10 13 11.298 13.541 4.483 8.076 o
-4 11 1 17.029 14.358 1.888 41.659 o
-4 11 2 43.347 44.903 3.009 15.434 o
-4 11 3 27.736 25.365 2.706 20.313 o
-4 11 4 12.924 12.491 2.504 25.092 o
-4 11 5 22.548 24.042 2.767 19.875 o
-4 11 6 41.721 38.835 3.039 15.418 o
-4 11 7 3.795 4.534 2.484 26.339 o
-4 11 8 10.330 9.542 3.686 11.922 o
-4 11 9 21.206 23.486 4.110 9.414 o
-4 11 10 16.719 15.045 3.958 10.245 o
-4 11 11 2.493 0.273 5.766 4.942 o
-4 12 1 0.408 0.000 0.020 33877.500 o
-4 12 2 29.465 29.121 2.969 16.976 o
-4 12 3 4.050 1.686 2.817 20.569 o
-4 12 4 38.735 39.168 3.181 14.367 o
-4 12 5 5.244 4.988 2.191 33.579 o
-4 12 6 2.223 -0.061 0.252 1852.810 o
-4 12 7 15.221 14.712 2.878 19.054 o
-4 12 8 2.746 2.555 3.514 13.267 o
-4 12 9 3.792 2.878 5.513 5.399 o
-4 12 10 6.581 5.705 4.736 7.293 o
-4 13 1 16.487 16.499 2.343 27.962 o
-4 13 2 9.255 8.512 2.363 28.517 o
-4 13 3 5.392 3.221 2.646 23.211 o
-4 13 4 3.825 2.878 2.272 31.476 o
-4 13 5 17.192 16.196 3.049 16.946 o
-4 13 7 4.124 2.565 3.877 10.891 o
-3 -13 -5 7.110 6.806 4.019 10.096 o
-3 -13 -4 20.320 22.860 4.534 7.791 o
-3 -12 -8 11.913 18.185 4.281 8.818 o
-3 -12 -7 6.813 7.836 4.140 9.517 o
-3 -12 -6 17.471 16.328 4.301 8.694 o
-3 -12 -5 9.649 12.440 3.938 10.453 o
-3 -12 -4 22.583 17.792 4.251 8.834 o
-3 -12 -3 4.055 4.887 4.089 9.787 o
-3 -12 -2 17.471 15.469 3.716 11.572 o
-3 -11 -10 15.578 15.903 4.312 8.674 o
-3 -11 -9 14.159 15.469 4.443 8.192 o
-3 -11 -8 6.425 5.190 3.928 10.580 o
-3 -11 -7 6.912 7.724 3.696 11.917 o
-3 -11 -6 7.848 8.593 3.463 13.527 o
-3 -11 -5 9.636 9.805 3.241 15.359 o
-3 -11 -4 12.688 8.189 3.595 12.494 o
-3 -11 -3 9.081 8.775 3.564 12.759 o
-3 -11 -2 34.187 31.837 3.928 9.975 o
-3 -11 -1 13.856 14.409 3.312 14.568 o
-3 -10 -11 1.703 2.211 3.827 11.204 o
-3 -10 -10 20.624 18.660 4.190 9.101 o
-3 -10 -9 11.067 11.945 2.545 24.476 o
-3 -10 -8 22.430 27.505 3.877 10.478 o
-3 -10 -7 0.653 -0.333 16.873 0.578 o
-3 -10 -6 49.208 52.365 4.322 7.960 o
-3 -10 -5 3.343 2.141 2.736 21.810 o
-3 -10 -4 37.721 35.684 3.827 10.355 o
-3 -10 -3 0.587 1.212 3.817 11.277 o
-3 -10 -2 13.887 11.360 3.120 16.403 o
-3 -10 -1 6.488 6.523 3.160 16.259 o
-3 -10 0 108.745 108.870 5.079 4.979 o
-3 -9 -13 1.055 2.353 2.272 31.703 o
-3 -9 -12 8.712 6.917 3.635 12.294 o
-3 -9 -11 38.609 42.217 4.726 6.936 o
-3 -9 -10 39.671 43.025 3.060 15.239 o
-3 -9 -9 6.554 5.574 2.343 29.329 o
-3 -9 -8 81.415 83.536 3.494 9.874 o
-3 -9 -7 14.448 12.167 2.242 30.833 o
-3 -9 -6 13.386 11.824 2.110 34.702 o
-3 -9 -5 11.165 11.006 2.827 19.979 o
-3 -9 -4 48.998 44.731 3.726 10.474 o
-3 -9 -3 3.544 3.524 2.686 22.596 o
-3 -9 -2 72.462 72.610 4.130 7.959 o
-3 -9 -1 1.194 0.192 2.565 24.944 o
-3 -9 0 3.391 2.605 2.191 33.861 o
-3 -8 -14 1.017 1.373 1.979 41.780 o
-3 -8 -13 3.543 1.787 3.928 10.622 o
-3 -8 -12 0.834 0.919 8.219 2.434 o
-3 -8 -11 6.807 5.584 3.534 13.038 o
-3 -8 -10 25.957 24.345 2.757 19.790 o
-3 -8 -9 14.883 12.521 2.312 29.017 o
-3 -8 -8 13.498 12.177 2.262 30.416 o
-3 -8 -7 24.137 20.154 2.363 26.553 o
-3 -8 -6 324.141 341.595 5.422 1.933 o
-3 -8 -5 74.114 76.690 2.898 13.467 o
-3 -8 -4 96.266 95.127 2.938 11.391 o
-3 -8 -3 12.125 12.147 1.494 65.831 o
-3 -8 -2 51.346 52.971 2.413 20.792 o
-3 -8 -1 65.705 63.654 2.534 17.436 o
-3 -8 0 326.220 330.417 4.756 2.121 o
-3 -7 -15 5.489 4.120 2.605 23.901 o
-3 -7 -14 3.282 3.797 2.898 19.438 o
-3 -7 -13 1.605 0.343 21.982 0.340 o
-3 -7 -12 34.313 33.523 4.160 8.940 o
-3 -7 -11 32.303 30.969 2.878 17.745 o
-3 -7 -10 1.212 0.252 1.060 144.383 o
-3 -7 -9 74.172 72.964 3.221 11.674 o
-3 -7 -8 229.722 224.768 4.655 3.329 o
-3 -7 -7 41.711 39.864 2.514 21.169 o
-3 -7 -6 46.457 47.286 2.433 21.388 o
-3 -7 -5 21.542 20.841 1.949 37.776 o
-3 -7 -4 75.607 72.388 1.999 21.158 o
-3 -7 -3 99.394 98.298 2.181 15.095 o
-3 -7 -2 74.945 70.500 2.333 18.021 o
-3 -7 -1 0.621 -0.010 1.545 68.701 o
-3 -7 0 14.571 11.996 1.636 55.091 o
-3 -6 -15 0.025 0.111 0.212 3587.810 o
-3 -6 -14 28.847 29.999 2.252 27.689 o
-3 -6 -13 17.538 14.510 2.181 31.923 o
-3 -6 -12 1.311 -0.525 1.484 74.147 o
-3 -6 -11 2.069 1.858 1.363 86.893 o
-3 -6 -10 39.234 37.461 1.898 33.424 o
-3 -6 -9 24.773 23.426 1.656 48.225 o
-3 -6 -8 33.689 34.574 1.666 42.599 o
-3 -6 -7 38.631 37.148 1.616 42.162 o
-3 -6 -6 251.382 258.796 4.009 3.291 o
-3 -6 -5 34.566 34.644 1.686 41.557 o
-3 -6 -4 211.916 209.894 3.261 4.741 o
-3 -6 -3 38.860 37.007 1.737 38.137 o
-3 -6 -2 14.733 15.328 2.019 37.176 o
-3 -6 -1 214.662 207.572 3.948 4.126 o
-3 -6 0 731.430 729.970 8.563 0.495 o
-3 -5 -16 2.675 3.857 2.120 36.137 o
-3 -5 -15 34.249 38.188 2.444 23.057 o
-3 -5 -14 7.102 5.503 1.989 40.271 o
-3 -5 -13 9.029 7.321 2.403 27.658 o
-3 -5 -12 23.425 22.255 1.727 45.680 o
-3 -5 -11 55.096 55.990 1.818 29.265 o
-3 -5 -10 25.960 24.395 1.424 60.052 o
-3 -5 -9 49.409 50.255 1.585 36.875 o
-3 -5 -8 85.603 84.818 1.838 20.237 o
-3 -5 -7 3.621 3.807 1.060 138.180 o
-3 -5 -6 200.103 204.038 2.444 5.877 o
-3 -5 -5 52.074 49.174 1.383 41.643 o
-3 -5 -4 18.996 18.014 1.191 87.318 o
-3 -5 -3 53.289 52.264 1.464 38.268 o
-3 -5 -2 775.470 756.436 8.977 0.449 o
-3 -5 -1 219.022 207.350 3.463 4.460 o
-3 -5 0 184.031 181.864 3.352 5.530 o
-3 -4 -16 1.683 2.403 2.060 38.456 o
-3 -4 -15 3.022 2.050 1.878 46.004 o
-3 -4 -14 2.735 1.141 1.706 55.742 o
-3 -4 -13 10.599 9.653 1.595 59.562 o
-3 -4 -12 48.973 51.537 2.060 26.532 o
-3 -4 -11 1.951 1.424 1.424 79.931 o
-3 -4 -10 43.517 43.903 1.575 40.415 o
-3 -4 -9 18.602 16.287 1.191 88.623 o
-3 -4 -8 54.132 54.152 1.464 37.583 o
-3 -4 -7 44.875 43.207 1.434 44.664 o
-3 -4 -6 343.468 338.717 3.938 2.191 o
-3 -4 -5 73.643 64.906 1.393 30.454 o
-3 -4 -4 1145.290 1141.850 12.410 0.212 o
-3 -4 -3 38.288 33.352 1.161 64.169 o
-3 -4 -2 155.753 151.017 1.979 9.451 o
-3 -4 -1 161.571 153.127 2.827 7.403 o
-3 -4 0 2798.820 2987.270 23.042 0.038 o
-3 -3 -17 17.408 17.004 2.201 31.243 o
-3 -3 -16 1.777 2.716 2.221 33.082 o
-3 -3 -15 6.291 6.018 1.767 50.742 o
-3 -3 -14 14.486 12.672 1.777 47.358 o
-3 -3 -13 7.891 8.209 1.535 65.389 o
-3 -3 -12 27.409 26.001 1.717 44.222 o
-3 -3 -11 51.394 52.264 1.727 32.541 o
-3 -3 -10 29.912 29.979 1.414 56.752 o
-3 -3 -9 54.172 51.598 1.494 37.282 o
-3 -3 -8 440.798 447.021 3.837 1.461 o
-3 -3 -7 35.956 34.987 1.303 57.480 o
-3 -3 -6 243.543 238.460 3.100 4.054 o
-3 -3 -5 400.185 383.337 3.585 1.803 o
-3 -3 -4 712.039 683.825 4.584 0.631 o
-3 -3 -3 52.653 50.709 1.313 43.097 o
-3 -3 -2 1180.920 1189.450 12.591 0.199 o
-3 -3 -1 72.104 58.595 4.089 8.250 o
-3 -3 0 29.265 22.850 1.616 48.511 o
-3 -2 -17 13.148 11.834 2.120 34.423 o
-3 -2 -16 2.724 2.484 1.868 46.509 o
-3 -2 -15 8.202 9.401 1.686 54.503 o
-3 -2 -14 9.424 8.734 1.656 56.117 o
-3 -2 -13 39.438 37.673 1.777 36.662 o
-3 -2 -12 42.527 42.853 1.919 31.553 o
-3 -2 -11 34.174 32.564 1.727 40.610 o
-3 -2 -10 198.881 198.787 2.565 5.858 o
-3 -2 -9 43.248 42.692 1.383 47.411 o
-3 -2 -8 1.102 0.111 0.717 312.175 o
-3 -2 -7 29.157 28.525 2.322 26.311 o
-3 -2 -6 1302.000 1294.030 9.613 0.184 o
-3 -2 -5 71.145 65.138 1.727 26.056 o
-3 -2 -4 352.861 338.404 3.049 2.319 o
-3 -2 -3 76.545 69.127 1.424 28.535 o
-3 -2 -2 516.274 516.613 3.261 1.156 o
-3 -2 -1 32.521 29.131 3.898 10.179 o
-3 -2 0 775.020 838.820 16.146 0.290 o
-3 -1 -17 0.641 0.707 2.060 38.655 o
-3 -1 -16 0.048 -0.313 1.626 62.208 o
-3 -1 -15 35.866 36.452 2.151 28.298 o
-3 -1 -14 23.788 21.437 1.838 41.166 o
-3 -1 -13 6.187 5.008 1.555 65.061 o
-3 -1 -12 39.487 37.855 2.141 27.804 o
-3 -1 -11 209.262 205.431 3.352 4.753 o
-3 -1 -10 15.912 14.752 1.202 91.013 o
-3 -1 -9 26.136 26.607 1.313 66.612 o
-3 -1 -8 188.580 192.557 2.827 5.929 o
-3 -1 -7 103.652 100.933 3.302 9.426 o
-3 -1 -6 113.035 111.505 2.908 10.194 o
-3 -1 -5 229.567 221.688 3.605 4.063 o
-3 -1 -4 377.326 360.790 3.130 2.063 o
-3 -1 -3 573.375 566.524 3.605 0.951 o
-3 -1 -2 1243.850 1247.740 10.219 0.196 o
-3 -1 -1 383.288 360.396 5.382 1.640 o
-3 -1 0 467.296 465.984 6.846 1.060 o
-3 0 1 16.307 16.943 2.211 31.121 o
-3 0 2 278.676 305.547 5.846 2.134 o
-3 0 3 47.108 47.205 3.191 13.735 o
-3 0 4 527.958 545.622 4.625 1.017 o
-3 0 5 395.279 390.426 2.252 1.980 o
-3 0 6 68.014 67.481 1.101 37.060 o
-3 0 7 724.274 739.674 4.413 0.593 o
-3 0 8 4.617 3.787 0.788 235.131 o
-3 0 9 408.060 401.634 3.534 1.727 o
-3 0 10 143.385 141.050 2.484 9.197 o
-3 0 11 179.504 182.268 2.938 6.182 o
-3 0 12 0.005 0.899 1.222 109.792 o
-3 0 13 278.778 280.586 4.019 2.898 o
-3 0 14 0.011 0.777 2.676 22.952 o
-3 0 15 2.505 2.252 1.515 70.393 o
-3 0 16 28.238 28.121 2.322 26.446 o
-3 0 17 26.632 26.607 2.413 24.980 o
-3 0 18 10.291 10.007 2.262 30.857 o
-3 0 19 24.009 27.162 2.666 21.076 o
-3 1 1 597.364 625.301 8.835 0.637 o
-3 1 2 873.989 960.080 14.328 0.276 o
-3 1 3 48.620 46.478 2.615 18.953 o
-3 1 4 71.950 78.598 1.414 28.638 o
-3 1 5 681.986 704.515 5.503 0.630 o
-3 1 6 432.123 440.933 2.868 1.601 o
-3 1 7 111.665 108.496 1.818 15.297 o
-3 1 8 118.334 119.129 1.757 14.288 o
-3 1 9 325.420 329.266 3.100 2.560 o
-3 1 10 6.818 6.533 0.919 168.804 o
-3 1 11 452.163 457.745 4.413 1.347 o
-3 1 12 11.769 10.784 1.464 68.816 o
-3 1 13 6.021 5.432 1.565 64.244 o
-3 1 14 19.660 17.549 1.868 41.496 o
-3 1 15 99.501 105.972 3.857 7.720 o
-3 1 16 0.140 -0.010 0.040 52250.800 o
-3 1 17 12.703 11.794 2.181 32.699 o
-3 1 18 4.869 5.029 2.979 18.345 o
-3 1 19 1.285 2.575 3.524 13.210 o
-3 2 1 729.522 747.752 5.119 0.571 o
-3 2 2 2242.830 2370.270 20.710 0.057 o
-3 2 3 151.786 158.489 1.898 9.638 o
-3 2 4 274.003 280.112 2.545 3.562 o
-3 2 5 70.666 70.904 1.171 34.038 o
-3 2 6 809.789 821.170 3.675 0.494 o
-3 2 7 707.203 702.374 4.877 0.620 o
-3 2 8 123.042 120.987 1.898 13.150 o
-3 2 9 124.738 121.562 1.595 14.154 o
-3 2 10 18.758 16.499 1.222 85.011 o
-3 2 11 54.478 51.759 1.838 29.514 o
-3 2 12 22.657 21.023 1.545 55.348 o
-3 2 13 185.447 186.852 3.352 5.441 o
-3 2 14 33.154 33.756 2.615 20.831 o
-3 2 15 14.628 11.895 2.464 25.776 o
-3 2 16 16.996 14.843 2.605 22.925 o
-3 2 17 41.471 46.943 3.393 12.573 o
-3 2 18 3.292 1.727 3.171 16.279 o
-3 2 19 19.780 21.851 3.504 12.845 o
-3 3 1 693.987 697.214 2.908 0.677 o
-3 3 2 897.857 950.134 4.766 0.387 o
-3 3 3 1.205 1.404 0.646 374.601 o
-3 3 4 466.934 471.326 4.827 1.243 o
-3 3 5 868.817 902.262 8.805 0.366 o
-3 3 6 235.656 245.841 2.696 4.379 o
-3 3 7 81.682 80.022 1.626 23.495 o
-3 3 8 337.475 342.120 3.564 2.306 o
-3 3 9 185.695 186.539 2.393 6.651 o
-3 3 10 22.787 23.507 1.212 78.817 o
-3 3 11 136.271 139.293 4.211 5.737 o
-3 3 12 33.283 32.625 2.110 29.928 o
-3 3 13 16.122 15.994 3.211 15.382 o
-3 3 14 6.119 3.272 2.948 18.709 o
-3 3 15 44.928 44.348 4.392 7.852 o
-3 3 16 6.075 4.211 3.756 11.571 o
-3 3 17 24.292 26.990 3.120 15.756 o
-3 3 18 21.610 21.497 3.150 15.676 o
-3 3 19 4.149 3.322 4.241 9.108 o
-3 4 1 42.635 44.762 0.939 67.054 o
-3 4 2 56.161 56.889 1.000 48.602 o
-3 4 3 126.491 125.490 1.393 14.500 o
-3 4 4 167.429 174.604 2.454 7.441 o
-3 4 5 47.849 48.498 2.262 23.619 o
-3 4 6 91.599 91.189 1.858 18.687 o
-3 4 7 129.978 129.610 2.333 10.722 o
-3 4 8 97.783 102.630 3.060 10.584 o
-3 4 9 83.472 82.768 1.828 20.840 o
-3 4 10 8.137 6.038 1.091 123.146 o
-3 4 11 56.349 54.486 2.918 15.150 o
-3 4 13 189.638 185.449 6.371 2.740 o
-3 4 14 1.877 -0.182 1.343 90.126 o
-3 4 15 18.487 17.943 3.756 11.293 o
-3 4 16 11.781 11.774 4.120 9.545 o
-3 4 17 15.524 13.096 3.029 17.282 o
-3 4 18 2.065 0.515 5.715 5.030 o
-3 5 1 138.729 141.464 1.878 11.110 o
-3 5 2 813.204 842.173 3.797 0.483 o
-3 5 3 423.654 425.534 2.878 1.672 o
-3 5 4 11.921 12.501 0.878 158.751 o
-3 5 5 176.356 177.724 3.797 5.183 o
-3 5 6 33.903 30.605 2.343 25.234 o
-3 5 7 135.418 130.064 2.514 9.824 o
-3 5 8 40.392 35.735 2.282 25.166 o
-3 5 9 38.325 36.643 2.696 19.256 o
-3 5 10 14.708 16.136 1.666 52.563 o
-3 5 14 3.935 3.029 4.897 6.838 o
-3 5 15 59.936 63.109 4.907 6.138 o
-3 5 16 5.471 3.049 4.958 6.667 o
-3 5 17 4.584 2.817 4.201 9.282 o
-3 5 18 0.927 0.808 7.634 2.821 o
-3 6 1 79.609 77.245 1.454 26.258 o
-3 6 2 127.737 131.034 1.747 12.837 o
-3 6 3 49.923 48.437 1.212 48.392 o
-3 6 4 51.030 50.578 1.444 40.052 o
-3 6 5 15.790 16.610 2.191 31.741 o
-3 6 6 39.164 41.349 2.787 17.974 o
-3 6 7 100.286 97.935 3.837 7.864 o
-3 6 9 82.256 89.736 3.999 7.951 o
-3 6 10 77.815 82.475 3.948 8.311 o
-3 6 11 76.686 83.132 4.079 7.909 o
-3 6 12 9.196 9.098 2.555 24.494 o
-3 6 14 1.932 2.555 3.988 10.313 o
-3 6 15 23.661 24.213 4.019 9.788 o
-3 6 16 16.390 15.762 4.402 8.320 o
-3 7 1 56.505 57.777 1.434 36.738 o
-3 7 2 364.577 374.906 3.110 2.102 o
-3 7 3 49.590 52.133 1.646 34.974 o
-3 7 4 111.137 114.626 2.161 13.351 o
-3 7 5 485.107 513.563 8.270 0.868 o
-3 7 6 43.421 45.054 3.221 13.725 o
-3 7 7 123.934 135.325 4.827 4.997 o
-3 7 9 141.751 142.908 5.230 4.217 o
-3 7 11 43.609 52.658 3.817 10.071 o
-3 7 12 33.819 38.602 3.625 11.504 o
-3 7 14 0.951 0.535 7.139 3.226 o
-3 7 15 15.125 11.652 4.655 7.480 o
-3 8 1 54.874 51.325 1.818 29.868 o
-3 8 2 137.747 136.638 2.575 9.355 o
-3 8 3 129.568 137.324 2.575 9.764 o
-3 8 4 99.189 102.711 2.948 10.981 o
-3 8 5 81.051 84.374 4.130 7.646 o
-3 8 6 72.016 73.782 4.029 8.286 o
-3 8 7 203.208 212.075 6.240 2.656 o
-3 8 9 5.560 4.342 2.777 21.065 o
-3 8 10 15.156 14.934 3.241 15.148 o
-3 8 11 48.899 49.285 4.150 8.597 o
-3 8 12 1.774 1.686 2.070 38.113 o
-3 8 13 28.580 27.465 3.686 11.413 o
-3 9 1 38.834 39.390 1.868 34.078 o
-3 9 2 119.440 123.743 2.676 10.361 o
-3 9 3 64.716 65.249 2.120 21.943 o
-3 9 4 123.930 129.499 3.463 7.704 o
-3 9 5 107.401 109.607 4.887 5.298 o
-3 9 6 47.559 47.993 3.918 9.575 o
-3 9 8 55.511 61.291 4.382 7.592 o
-3 9 9 39.822 38.148 4.009 9.441 o
-3 9 10 2.760 2.141 3.564 12.898 o
-3 9 11 60.270 69.470 4.867 6.189 o
-3 9 12 2.989 1.000 5.523 5.383 o
-3 10 1 8.127 6.371 1.313 87.861 o
-3 10 2 51.201 50.982 1.888 29.355 o
-3 10 3 3.732 2.333 2.080 37.504 o
-3 10 4 35.567 29.828 3.564 11.939 o
-3 10 5 13.058 13.621 3.373 14.091 o
-3 10 6 43.519 43.015 4.100 8.948 o
-3 10 7 20.873 14.379 3.221 15.169 o
-3 10 8 13.596 13.379 3.494 13.145 o
-3 10 9 46.851 46.256 4.433 7.680 o
-3 10 10 2.609 1.262 5.957 4.628 o
-3 10 11 17.323 15.136 3.867 10.711 o
-3 10 12 24.423 25.304 4.190 9.014 o
-3 10 13 52.817 59.080 5.039 5.943 o
-3 11 1 22.679 21.144 2.009 35.563 o
-3 11 2 40.270 37.653 2.242 25.772 o
-3 11 3 24.886 25.102 2.666 21.086 o
-3 11 4 9.948 9.027 2.333 29.157 o
-3 11 5 43.161 46.408 2.494 20.969 o
-3 11 6 74.154 77.669 3.564 9.937 o
-3 11 7 15.778 13.934 2.565 23.729 o
-3 11 8 14.811 13.864 2.595 23.271 o
-3 11 9 11.884 6.089 3.787 11.306 o
-3 11 10 24.149 24.729 4.211 8.938 o
-3 11 11 27.114 26.465 4.332 8.418 o
-3 11 12 1.188 -0.202 1.141 125.045 o
-3 12 1 6.251 5.705 2.141 35.004 o
-3 12 2 10.547 9.724 2.625 23.136 o
-3 12 3 22.419 21.942 2.252 29.053 o
-3 12 4 74.924 79.052 3.029 12.550 o
-3 12 5 20.735 20.286 2.716 20.796 o
-3 12 6 11.253 10.471 2.585 23.777 o
-3 12 7 25.968 26.223 2.312 27.034 o
-3 12 8 16.621 18.993 4.019 9.922 o
-3 12 9 4.900 5.513 3.696 11.957 o
-3 12 10 0.677 2.019 3.686 12.089 o
-3 13 1 20.886 21.881 2.938 17.901 o
-3 13 2 27.487 29.787 3.009 16.642 o
-3 13 3 13.641 13.803 2.333 28.602 o
-3 13 4 7.054 7.008 2.868 19.669 o
-3 13 5 10.132 11.400 3.029 17.496 o
-3 13 6 35.269 41.117 2.656 19.823 o
-3 13 7 3.985 4.726 3.766 11.530 o
-2 -13 -6 9.843 9.007 3.908 10.631 o
-2 -13 -5 21.767 21.396 4.493 7.922 o
-2 -12 -8 22.792 28.343 4.665 7.327 o
-2 -12 -7 5.409 5.574 3.948 10.481 o
-2 -12 -6 9.054 11.996 4.069 9.807 o
-2 -12 -5 4.154 5.170 3.857 10.992 o
-2 -12 -4 52.673 56.232 4.867 6.349 o
-2 -12 -3 35.229 31.999 4.140 9.019 o
-2 -11 -10 13.054 14.348 4.160 9.338 o
-2 -11 -9 13.020 12.157 4.150 9.394 o
-2 -11 -8 4.091 6.260 4.089 9.781 o
-2 -11 -7 5.534 3.070 3.857 10.988 o
-2 -11 -6 72.919 80.194 5.261 5.217 o
-2 -11 -5 8.848 9.300 3.312 14.745 o
-2 -11 -4 29.550 30.605 3.857 10.423 o
-2 -11 -3 9.447 6.997 3.191 15.880 o
-2 -11 -2 66.256 68.864 4.756 6.376 o
-2 -11 -1 49.312 50.850 4.423 7.643 o
-2 -10 -12 0.310 0.697 2.019 40.249 o
-2 -10 -11 3.187 2.161 4.332 8.740 o
-2 -10 -10 10.797 13.066 3.968 10.280 o
-2 -10 -9 10.417 14.005 3.564 12.693 o
-2 -10 -8 29.464 30.292 3.999 9.742 o
-2 -10 -7 4.993 6.119 3.282 15.128 o
-2 -10 -6 15.732 14.035 3.514 12.948 o
-2 -10 -5 13.266 14.490 3.261 15.024 o
-2 -10 -4 89.134 89.190 4.816 5.807 o
-2 -10 -3 100.409 107.749 5.129 5.003 o
-2 -10 -2 112.085 118.180 5.200 4.711 o
-2 -10 -1 30.095 26.809 3.443 12.933 o
-2 -10 0 52.968 56.717 4.120 8.560 o
-2 -9 -13 7.713 8.694 2.726 21.657 o
-2 -9 -12 15.102 12.874 2.898 18.844 o
-2 -9 -11 8.949 10.319 3.716 11.745 o
-2 -9 -10 24.561 21.285 3.797 10.927 o
-2 -9 -9 45.567 45.418 2.989 15.472 o
-2 -9 -8 0.613 1.272 2.120 36.459 o
-2 -9 -7 37.740 40.733 3.918 9.864 o
-2 -9 -6 54.377 55.233 4.009 8.968 o
-2 -9 -5 54.399 55.798 4.049 8.805 o
-2 -9 -4 50.507 48.326 3.706 10.484 o
-2 -9 -3 20.615 20.791 2.999 17.262 o
-2 -9 -2 45.371 48.043 3.544 11.499 o
-2 -9 -1 93.187 101.549 4.574 6.151 o
-2 -9 0 161.913 162.871 5.422 3.721 o
-2 -8 -14 0.600 0.222 52.446 0.060 o
-2 -8 -13 3.191 3.504 2.686 22.611 o
-2 -8 -12 6.685 6.432 3.918 10.625 o
-2 -8 -11 28.480 28.465 3.978 9.868 o
-2 -8 -10 11.054 7.684 2.383 27.941 o
-2 -8 -9 14.989 13.319 2.232 30.969 o
-2 -8 -8 28.147 27.162 2.383 25.349 o
-2 -8 -7 17.032 18.317 2.242 30.179 o
-2 -8 -6 41.628 42.591 2.444 22.031 o
-2 -8 -5 28.514 27.808 2.080 31.902 o
-2 -8 -4 298.991 304.184 6.836 1.761 o
-2 -8 -3 62.933 61.281 3.534 10.748 o
-2 -8 -2 164.673 168.384 5.018 4.051 o
-2 -8 -1 58.619 59.272 3.383 11.749 o
-2 -8 0 86.290 85.747 3.837 8.414 o
-2 -7 -15 30.032 31.443 3.282 14.062 o
-2 -7 -14 0.179 -0.141 1.080 140.635 o
-2 -7 -13 40.005 43.025 2.565 20.504 o
-2 -7 -12 55.354 54.021 3.181 13.261 o
-2 -7 -11 13.018 12.400 2.302 29.450 o
-2 -7 -10 30.893 29.979 2.070 31.545 o
-2 -7 -9 27.317 26.718 1.939 36.237 o
-2 -7 -8 55.189 56.868 2.171 23.316 o
-2 -7 -7 32.465 31.787 2.221 27.695 o
-2 -7 -6 145.975 139.223 3.373 7.073 o
-2 -7 -5 9.346 7.482 1.575 61.870 o
-2 -7 -4 75.468 77.770 3.655 9.515 o
-2 -7 -3 58.326 54.435 2.120 23.751 o
-2 -7 -2 366.741 368.827 4.392 1.876 o
-2 -7 -1 5.330 3.776 1.464 73.662 o
-2 -7 0 114.524 117.170 3.706 7.558 o
-2 -6 -16 2.429 1.070 1.383 84.437 o
-2 -6 -15 13.216 13.268 2.019 37.597 o
-2 -6 -14 18.651 18.377 1.959 38.266 o
-2 -6 -13 4.665 3.918 1.807 49.124 o
-2 -6 -12 5.474 4.645 1.868 45.853 o
-2 -6 -11 48.014 47.286 2.060 27.083 o
-2 -6 -10 69.696 71.328 2.191 20.007 o
-2 -6 -9 38.184 38.289 1.757 37.533 o
-2 -6 -8 101.361 102.650 2.211 14.517 o
-2 -6 -7 10.186 8.896 1.181 102.918 o
-2 -6 -6 40.954 39.895 1.454 46.532 o
-2 -6 -5 50.520 51.416 3.070 14.375 o
-2 -6 -4 881.183 874.767 6.311 0.400 o
-2 -6 -3 23.146 19.407 1.212 80.423 o
-2 -6 -2 332.289 335.486 4.635 2.102 o
-2 -6 -1 65.891 62.503 2.504 17.761 o
-2 -6 0 107.450 105.255 2.656 11.708 o
-2 -5 -16 10.083 10.007 2.060 36.929 o
-2 -5 -15 10.306 9.138 1.888 43.600 o
-2 -5 -14 7.526 6.836 1.868 45.271 o
-2 -5 -13 105.578 112.747 4.069 6.940 o
-2 -5 -12 41.045 40.339 2.847 17.239 o
-2 -5 -11 1.166 1.050 0.727 300.396 o
-2 -5 -10 158.718 165.395 2.555 7.792 o
-2 -5 -9 215.867 222.344 2.858 4.885 o
-2 -5 -8 9.232 9.057 1.131 112.130 o
-2 -5 -7 94.343 94.946 1.818 18.340 o
-2 -5 -6 411.759 419.153 3.312 1.696 o
-2 -5 -5 95.931 89.483 1.393 21.851 o
-2 -5 -4 5.804 4.029 0.636 327.777 o
-2 -5 -3 95.945 90.150 1.626 19.930 o
-2 -5 -2 308.264 301.266 3.726 2.648 o
-2 -5 -1 14.138 12.612 1.515 63.227 o
-2 -5 0 257.402 263.007 3.585 3.418 o
-2 -4 -17 9.508 9.976 2.393 27.746 o
-2 -4 -16 5.595 4.635 1.787 49.942 o
-2 -4 -15 50.062 48.841 2.343 22.126 o
-2 -4 -14 4.393 4.352 1.888 45.111 o
-2 -4 -13 0.274 0.424 2.363 29.426 o
-2 -4 -12 18.374 19.337 1.626 52.920 o
-2 -4 -11 284.905 308.637 3.716 2.827 o
-2 -4 -10 67.820 67.067 1.979 23.091 o
-2 -4 -9 4.517 3.766 1.091 129.807 o
-2 -4 -8 185.214 186.650 2.948 5.950 o
-2 -4 -7 285.362 288.503 3.171 3.126 o
-2 -4 -6 179.388 170.626 2.110 7.577 o
-2 -4 -5 4.717 3.574 0.586 389.721 o
-2 -4 -4 932.318 912.703 5.604 0.372 o
-2 -4 -3 321.518 311.323 2.716 2.773 o
-2 -4 -2 334.929 329.942 3.585 2.363 o
-2 -4 -1 352.905 343.251 3.605 2.188 o
-2 -4 0 142.262 144.403 2.403 9.376 o
-2 -3 -17 1.698 0.343 0.545 516.731 o
-2 -3 -16 2.796 2.191 2.181 34.243 o
-2 -3 -15 39.829 41.430 2.201 26.300 o
-2 -3 -14 4.391 4.827 1.656 58.203 o
-2 -3 -13 100.500 105.407 3.070 10.343 o
-2 -3 -12 88.312 89.251 2.757 12.984 o
-2 -3 -11 17.298 15.499 1.676 51.243 o
-2 -3 -10 67.043 65.663 1.898 24.429 o
-2 -3 -9 294.898 298.125 3.211 2.958 o
-2 -3 -8 10.233 10.410 1.262 90.910 o
-2 -3 -7 231.962 225.505 4.402 3.461 o
-2 -3 -6 285.325 281.949 4.352 2.701 o
-2 -3 -5 333.021 315.281 4.069 2.306 o
-2 -3 -4 81.969 77.397 1.505 25.076 o
-2 -3 -3 39.751 36.280 1.464 47.562 o
-2 -3 -2 305.530 308.647 3.120 2.829 o
-2 -3 -1 660.787 686.117 4.503 0.691 o
-2 -3 0 415.285 440.317 3.978 1.557 o
-2 -2 -17 54.753 60.817 2.635 17.578 o
-2 -2 -16 1.385 1.706 1.818 49.401 o
-2 -2 -15 33.480 32.746 2.060 31.073 o
-2 -2 -14 1.455 0.242 0.798 251.490 o
-2 -2 -13 27.770 24.617 2.030 33.682 o
-2 -2 -12 0.352 0.515 1.898 45.547 o
-2 -2 -11 62.653 61.271 2.242 21.028 o
-2 -2 -10 58.293 58.545 1.898 26.850 o
-2 -2 -9 125.588 125.521 2.161 11.754 o
-2 -2 -8 49.357 51.860 2.797 16.779 o
-2 -2 -7 19.229 17.721 1.818 43.630 o
-2 -2 -6 2.806 2.878 1.262 100.105 o
-2 -2 -5 134.478 125.410 2.635 9.638 o
-2 -2 -4 583.978 594.009 5.463 0.827 o
-2 -2 -3 153.245 139.859 2.403 8.929 o
-2 -2 -2 1150.800 1167.640 12.491 0.207 o
-2 -2 -1 11.434 9.249 2.262 30.780 o
-2 -2 0 1921.350 2142.400 16.398 0.077 o
-2 -1 -17 4.666 3.958 1.979 41.133 o
-2 -1 -16 6.251 5.594 1.818 48.110 o
-2 -1 -15 62.417 64.573 2.827 15.144 o
-2 -1 -14 8.895 7.502 1.929 42.283 o
-2 -1 -13 25.805 24.920 2.019 34.312 o
-2 -1 -12 23.249 22.628 1.616 50.928 o
-2 -1 -11 26.084 24.799 1.474 56.836 o
-2 -1 -10 92.003 88.675 1.787 19.380 o
-2 -1 -9 245.028 242.135 2.736 4.220 o
-2 -1 -8 71.870 71.883 2.120 20.432 o
-2 -1 -7 224.216 212.096 2.827 4.842 o
-2 -1 -6 593.055 594.090 4.261 0.863 o
-2 -1 -5 10.979 8.633 0.889 163.973 o
-2 -1 -4 305.594 309.677 2.615 2.971 o
-2 -1 -3 97.129 96.258 1.929 17.089 o
-2 -1 -2 1002.490 1068.590 10.198 0.272 o
-2 -1 -1 457.740 446.729 4.584 1.330 o
-2 -1 0 3403.220 3745.630 23.113 0.026 o
-2 0 1 79.356 101.620 2.656 13.774 o
-2 0 2 7558.030 8626.320 43.277 0.005 o
-2 0 3 31.378 30.585 2.868 17.922 o
-2 0 4 697.007 714.895 12.379 0.418 o
-2 0 5 464.951 475.284 3.292 1.372 o
-2 0 6 40.786 47.377 1.080 60.510 o
-2 0 7 0.042 -0.192 0.263 2370.210 o
-2 0 8 466.826 465.096 3.241 1.387 o
-2 0 9 28.291 26.344 1.585 49.617 o
-2 0 10 0.556 1.515 1.181 116.603 o
-2 0 11 43.051 45.852 1.777 34.510 o
-2 0 12 34.935 34.452 2.242 26.750 o
-2 0 13 2.516 1.383 3.110 16.937 o
-2 0 14 64.927 64.664 3.049 13.377 o
-2 0 15 155.531 169.939 3.726 5.798 o
-2 0 16 16.113 15.550 2.131 33.460 o
-2 0 17 0.214 -0.626 2.272 31.843 o
-2 0 18 16.470 16.620 2.373 27.295 o
-2 0 19 31.044 37.986 2.817 18.289 o
-2 1 1 935.766 1055.290 9.572 0.300 o
-2 1 2 1665.040 1778.710 12.208 0.108 o
-2 1 3 891.788 949.599 10.683 0.321 o
-2 1 4 1892.270 1934.910 23.618 0.072 o
-2 1 5 47.947 40.157 5.937 4.452 o
-2 1 6 50.139 50.487 1.303 44.708 o
-2 1 7 422.927 435.026 2.807 1.660 o
-2 1 8 389.411 387.336 3.060 1.924 o
-2 1 9 23.026 22.224 1.091 91.488 o
-2 1 10 377.664 371.998 3.696 1.935 o
-2 1 11 75.864 76.821 2.070 20.050 o
-2 1 12 9.976 8.956 1.393 76.814 o
-2 1 13 144.911 146.957 3.847 6.100 o
-2 1 14 53.509 56.192 2.928 15.192 o
-2 1 15 11.246 9.966 2.353 28.526 o
-2 1 16 20.879 20.942 2.221 30.033 o
-2 1 17 26.383 25.536 2.403 25.247 o
-2 1 18 12.312 11.723 2.312 29.307 o
-2 1 19 2.227 1.636 6.230 4.233 o
-2 2 1 144.470 143.716 4.675 4.864 o
-2 2 2 4530.310 5053.280 26.475 0.015 o
-2 2 3 182.111 187.963 4.978 3.787 o
-2 2 4 398.259 408.217 3.817 1.720 o
-2 2 5 320.198 318.795 3.524 2.536 o
-2 2 6 385.514 397.978 7.018 1.308 o
-2 2 7 56.820 54.556 0.949 50.412 o
-2 2 8 59.995 56.949 1.050 44.855 o
-2 2 9 458.864 457.402 3.362 1.420 o
-2 2 10 1.002 0.606 1.333 91.815 o
-2 2 11 28.747 27.323 1.525 52.165 o
-2 2 12 48.970 50.568 1.929 29.083 o
-2 2 13 130.372 133.346 3.706 6.899 o
-2 2 14 15.205 13.833 2.292 29.399 o
-2 2 15 60.455 60.564 3.241 12.479 o
-2 2 16 3.111 2.484 2.181 34.202 o
-2 2 17 3.802 2.070 2.504 25.986 o
-2 2 18 1.476 -0.222 1.717 55.498 o
-2 2 19 15.942 16.115 3.514 12.922 o
-2 3 1 1012.510 1028.760 11.168 0.265 o
-2 3 2 196.171 202.867 2.090 6.380 o
-2 3 3 96.871 100.974 1.636 18.842 o
-2 3 4 799.388 818.726 7.997 0.436 o
-2 3 5 52.825 49.437 1.797 31.008 o
-2 3 6 33.545 27.909 2.666 20.345 o
-2 3 7 690.152 700.456 6.442 0.598 o
-2 3 8 161.975 164.456 1.979 8.745 o
-2 3 9 106.674 106.840 1.818 15.970 o
-2 3 10 37.586 34.725 1.363 53.530 o
-2 3 11 206.650 209.349 3.938 4.241 o
-2 3 12 74.840 75.761 2.868 13.646 o
-2 3 13 87.042 87.898 3.221 10.738 o
-2 3 14 1.821 1.414 2.757 21.559 o
-2 3 15 9.747 5.291 2.494 25.751 o
-2 3 16 8.409 7.664 2.736 21.493 o
-2 3 17 23.165 22.992 3.060 16.474 o
-2 4 1 325.215 337.041 2.403 2.688 o
-2 4 2 889.480 918.893 3.938 0.407 o
-2 4 3 63.160 66.017 1.454 32.546 o
-2 4 4 209.127 211.470 2.817 5.187 o
-2 4 5 154.441 149.815 2.858 7.667 o
-2 4 6 337.099 333.517 3.070 2.454 o
-2 4 7 18.367 13.732 7.199 3.148 o
-2 4 8 122.241 121.492 2.353 11.428 o
-2 4 9 196.548 201.402 2.504 5.952 o
-2 4 10 40.851 45.499 2.736 18.259 o
-2 4 11 48.931 53.223 2.979 15.140 o
-2 4 12 4.937 4.170 2.938 18.858 o
-2 4 13 63.303 60.362 4.110 8.350 o
-2 4 14 0.210 0.646 2.666 23.122 o
-2 4 15 90.343 91.280 5.392 4.788 o
-2 4 17 0.302 0.394 5.372 5.697 o
-2 4 18 9.292 9.986 5.311 5.789 o
-2 5 1 25.041 27.192 0.848 113.925 o
-2 5 2 25.972 25.496 0.848 113.752 o
-2 5 3 532.346 547.177 3.292 1.075 o
-2 5 4 959.232 976.316 4.827 0.350 o
-2 5 5 53.855 53.758 2.363 21.099 o
-2 5 6 140.843 140.414 3.352 7.255 o
-2 5 7 528.520 582.286 14.076 0.477 o
-2 5 8 71.084 73.681 3.211 11.857 o
-2 5 9 59.446 62.937 3.191 12.786 o
-2 5 10 62.109 59.635 3.261 12.303 o
-2 5 11 48.450 48.548 3.100 14.322 o
-2 5 12 23.184 23.830 2.131 31.797 o
-2 5 13 31.223 28.010 3.554 12.143 o
-2 5 14 15.517 15.287 3.585 12.448 o
-2 5 15 5.147 2.928 2.928 18.999 o
-2 6 1 363.198 368.817 2.565 2.220 o
-2 6 2 641.249 661.571 3.373 0.762 o
-2 6 3 141.927 145.221 2.060 10.269 o
-2 6 4 119.957 124.258 1.929 13.159 o
-2 6 5 172.991 168.546 4.170 4.870 o
-2 6 6 279.509 287.816 5.543 2.280 o
-2 6 7 2.771 -0.464 2.868 19.920 o
-2 6 8 133.587 140.394 4.594 5.165 o
-2 6 9 219.111 233.946 5.826 2.706 o
-2 6 10 13.375 12.965 2.464 25.832 o
-2 6 11 19.760 19.720 2.736 20.585 o
-2 6 12 0.282 -0.222 2.060 38.726 o
-2 6 13 64.926 63.785 4.503 7.072 o
-2 6 14 8.351 6.260 3.898 10.718 o
-2 6 15 21.556 23.194 4.140 9.278 o
-2 7 1 155.063 156.732 1.727 9.850 o
-2 7 2 49.397 51.487 1.585 36.669 o
-2 7 3 26.523 26.122 1.303 67.225 o
-2 7 4 282.060 288.775 3.110 3.185 o
-2 7 5 35.744 36.623 2.837 17.806 o
-2 7 6 160.794 179.431 5.129 3.924 o
-2 7 8 76.262 81.930 2.615 15.047 o
-2 7 9 100.616 101.378 4.534 6.115 o
-2 7 10 37.644 36.835 3.383 12.955 o
-2 7 11 52.633 52.163 3.797 9.943 o
-2 7 12 22.910 26.051 3.282 14.396 o
-2 7 13 24.332 19.619 3.655 11.771 o
-2 8 1 5.997 5.432 1.161 112.775 o
-2 8 2 175.010 179.622 2.777 6.584 o
-2 8 3 56.608 57.161 1.818 28.777 o
-2 8 4 2.770 1.828 2.444 27.344 o
-2 8 5 5.244 5.564 2.383 28.456 o
-2 8 6 91.294 93.340 4.291 6.905 o
-2 8 7 7.270 8.664 2.706 21.995 o
-2 8 8 67.859 71.045 2.757 15.071 o
-2 8 9 29.255 27.828 3.373 13.453 o
-2 8 10 62.478 71.873 4.443 7.215 o
-2 8 11 49.833 49.871 4.100 8.764 o
-2 8 12 3.854 3.423 3.332 14.722 o
-2 8 13 25.152 26.687 3.706 11.378 o
-2 9 1 62.499 59.110 2.009 24.280 o
-2 9 2 38.687 38.269 1.777 36.791 o
-2 9 3 16.092 15.540 1.474 64.535 o
-2 9 4 185.357 197.424 5.947 2.989 o
-2 9 5 64.489 61.594 3.968 8.821 o
-2 9 6 20.697 21.023 3.302 14.375 o
-2 9 7 67.801 70.066 4.473 7.060 o
-2 9 8 91.482 98.662 3.342 9.809 o
-2 9 9 20.616 20.356 3.574 12.360 o
-2 9 10 10.222 6.392 3.231 15.480 o
-2 9 11 4.945 4.251 2.817 20.495 o
-2 9 12 7.874 4.211 3.585 12.671 o
-2 9 13 50.675 56.505 4.746 6.670 o
-2 10 1 49.077 50.164 2.635 18.526 o
-2 10 2 243.562 259.917 4.766 2.968 o
-2 10 3 2.423 2.454 2.050 38.748 o
-2 10 4 3.243 2.444 3.211 15.868 o
-2 10 5 41.913 45.983 2.777 17.726 o
-2 10 6 32.053 34.402 3.857 10.336 o
-2 10 7 11.521 12.036 2.252 30.892 o
-2 10 8 28.665 28.192 3.797 10.781 o
-2 10 9 28.047 29.605 4.100 9.319 o
-2 10 10 8.531 8.229 3.282 15.033 o
-2 10 11 11.581 11.370 3.706 11.762 o
-2 10 12 3.278 2.232 3.312 14.921 o
-2 10 13 7.773 7.916 4.221 9.151 o
-2 11 1 25.949 24.749 2.433 24.774 o
-2 11 2 19.737 16.035 2.252 29.745 o
-2 11 3 46.799 50.113 2.969 15.441 o
-2 11 4 30.345 30.151 2.666 20.502 o
-2 11 5 2.205 2.534 3.736 11.747 o
-2 11 6 36.646 41.268 4.312 8.270 o
-2 11 7 47.403 51.355 3.120 14.150 o
-2 11 8 13.281 14.843 3.504 13.063 o
-2 11 9 3.506 4.110 3.776 11.477 o
-2 11 10 32.840 34.513 4.423 7.976 o
-2 11 11 18.944 19.952 4.089 9.556 o
-2 11 12 1.861 -0.293 4.100 9.772 o
-2 12 1 13.462 12.501 1.696 51.867 o
-2 12 2 49.366 50.356 2.605 18.829 o
-2 12 3 0.642 0.404 1.000 163.043 o
-2 12 4 18.032 15.853 3.877 10.641 o
-2 12 5 12.320 8.815 3.938 10.443 o
-2 12 6 4.993 4.049 2.312 30.268 o
-2 12 7 2.527 1.555 2.413 28.052 o
-2 12 8 13.419 12.289 2.858 19.447 o
-2 12 9 25.996 30.120 4.483 7.872 o
-2 12 10 7.322 7.189 4.715 7.348 o
-2 13 1 2.666 2.969 2.474 26.658 o
-2 13 2 0.720 1.404 1.515 71.191 o
-2 13 3 2.521 1.787 3.827 11.198 o
-2 13 4 18.970 19.690 2.858 19.016 o
-2 13 5 0.275 -0.131 0.394 1040.340 o
-2 13 6 2.355 1.303 2.191 34.007 o
-2 13 7 24.659 25.496 3.049 16.460 o
-2 14 1 3.057 4.089 4.140 9.561 o
-1 -12 -9 1.032 -0.454 19.841 0.418 o
-1 -12 -8 5.502 6.897 3.938 10.527 o
-1 -12 -7 5.028 7.987 4.019 10.110 o
-1 -12 -6 5.348 9.037 3.958 10.412 o
-1 -12 -5 0.503 1.636 3.605 12.640 o
-1 -12 -4 4.347 4.221 3.585 12.720 o
-1 -11 -11 12.351 9.946 4.180 9.278 o
-1 -11 -10 18.730 18.367 4.140 9.343 o
-1 -11 -9 2.890 5.594 3.282 15.173 o
-1 -11 -8 14.352 15.772 3.776 11.260 o
-1 -11 -7 34.547 37.906 4.190 8.782 o
-1 -11 -6 12.671 13.864 3.413 13.774 o
-1 -11 -5 47.876 58.030 4.544 7.247 o
-1 -11 -3 1.112 0.979 2.272 31.748 o
-1 -11 -2 3.476 2.726 2.484 26.407 o
-1 -10 -12 1.528 2.302 3.019 17.980 o
-1 -10 -11 0.885 -0.333 5.331 5.783 o
-1 -10 -10 21.270 18.882 3.736 11.354 o
-1 -10 -9 33.146 34.109 4.231 8.673 o
-1 -10 -8 43.263 43.843 4.271 8.297 o
-1 -10 -7 17.233 18.751 3.605 12.247 o
-1 -10 -6 64.324 69.470 4.615 6.745 o
-1 -10 -5 32.922 32.635 3.605 11.725 o
-1 -10 -4 50.151 55.142 4.100 8.707 o
-1 -10 -3 37.749 35.119 3.756 10.723 o
-1 -10 -2 151.636 162.719 5.917 3.378 o
-1 -10 -1 9.716 7.765 2.979 18.154 o
-1 -9 -14 1.249 2.050 3.675 12.149 o
-1 -9 -13 15.852 18.983 4.291 8.737 o
-1 -9 -12 21.892 24.850 4.140 9.263 o
-1 -9 -11 24.025 21.841 2.615 22.020 o
-1 -9 -10 30.563 26.233 3.988 9.805 o
-1 -9 -9 11.898 12.894 3.322 14.548 o
-1 -9 -8 57.117 57.242 4.342 7.724 o
-1 -9 -7 77.173 75.912 4.635 6.462 o
-1 -9 -6 32.979 31.665 3.383 13.198 o
-1 -9 -5 0.839 1.373 1.989 41.380 o
-1 -9 -4 165.779 165.072 5.604 3.517 o
-1 -9 -3 20.326 19.347 3.039 16.872 o
-1 -9 -2 20.139 17.458 2.736 20.630 o
-1 -9 -1 5.092 4.483 2.444 27.129 o
-1 -9 0 107.402 107.759 4.604 5.814 o
-1 -8 -15 14.385 13.914 2.787 20.324 o
-1 -8 -14 7.833 8.280 2.676 22.468 o
-1 -8 -13 12.807 9.481 2.504 25.207 o
-1 -8 -12 3.653 3.019 2.383 28.648 o
-1 -8 -11 38.513 36.401 4.089 9.137 o
-1 -8 -10 20.082 19.902 3.474 13.077 o
-1 -8 -9 49.856 48.175 2.787 16.973 o
-1 -8 -8 144.361 145.372 3.797 6.221 o
-1 -8 -7 14.273 10.653 1.949 40.220 o
-1 -8 -6 94.826 96.450 4.514 6.295 o
-1 -8 -5 4.703 4.604 2.534 25.262 o
-1 -8 -4 23.231 24.829 2.777 19.678 o
-1 -8 -3 18.565 19.347 2.676 21.555 o
-1 -8 -2 307.835 316.977 6.634 1.755 o
-1 -8 -1 114.503 118.523 4.342 6.106 o
-1 -8 0 175.262 179.915 5.109 3.787 o
-1 -7 -15 0.967 0.616 1.828 49.022 o
-1 -7 -14 6.135 5.665 2.201 33.161 o
-1 -7 -13 40.917 42.348 2.514 21.125 o
-1 -7 -12 7.045 5.927 1.979 40.647 o
-1 -7 -11 55.839 55.253 2.938 14.995 o
-1 -7 -10 100.923 106.063 3.474 8.843 o
-1 -7 -9 39.050 36.785 1.979 31.532 o
-1 -7 -8 72.406 72.328 2.252 18.980 o
-1 -7 -7 131.602 130.206 2.898 8.903 o
-1 -7 -6 17.551 13.874 1.807 44.996 o
-1 -7 -5 55.040 55.849 2.070 24.935 o
-1 -7 -4 83.552 83.182 2.322 16.507 o
-1 -7 -3 154.053 153.218 4.433 4.973 o
-1 -7 -2 46.062 44.843 2.787 17.365 o
-1 -7 -1 240.161 242.539 10.269 1.207 o
-1 -7 0 449.732 488.330 14.187 0.534 o
-1 -6 -16 14.172 12.995 2.464 25.769 o
-1 -6 -15 22.002 20.064 2.433 25.382 o
-1 -6 -14 12.203 10.481 2.131 34.328 o
-1 -6 -13 5.145 3.948 1.636 59.512 o
-1 -6 -12 9.611 7.078 1.777 49.295 o
-1 -6 -11 11.444 10.279 1.807 46.949 o
-1 -6 -10 8.455 7.583 1.484 69.492 o
-1 -6 -9 178.813 179.986 2.817 6.403 o
-1 -6 -8 147.393 149.684 2.161 9.553 o
-1 -6 -7 24.366 22.770 1.121 86.323 o
-1 -6 -6 200.493 198.908 2.706 5.662 o
-1 -6 -5 157.746 152.834 2.262 8.697 o
-1 -6 -4 8.744 8.189 1.474 70.097 o
-1 -6 -3 197.186 193.214 7.270 2.229 o
-1 -6 -2 605.081 626.664 5.968 0.752 o
-1 -6 -1 140.852 140.182 2.736 8.698 o
-1 -6 0 216.364 222.021 3.544 4.315 o
-1 -5 -17 33.519 38.895 3.484 12.379 o
-1 -5 -16 2.744 3.999 2.393 28.436 o
-1 -5 -15 12.957 12.541 1.888 42.722 o
-1 -5 -14 18.784 18.660 1.868 41.572 o
-1 -5 -13 54.577 54.798 2.211 22.980 o
-1 -5 -12 4.578 2.868 1.838 47.669 o
-1 -5 -11 9.038 8.229 2.040 37.907 o
-1 -5 -10 115.469 116.100 2.807 10.317 o
-1 -5 -9 7.350 5.745 1.313 88.647 o
-1 -5 -8 171.012 172.534 2.423 7.392 o
-1 -5 -7 308.786 314.099 2.565 2.927 o
-1 -5 -6 54.843 55.091 1.383 39.173 o
-1 -5 -5 99.486 97.551 2.050 15.937 o
-1 -5 -4 360.959 350.268 3.282 2.175 o
-1 -5 -3 108.030 105.689 1.505 17.650 o
-1 -5 -2 36.129 33.422 1.535 46.984 o
-1 -5 -1 67.208 59.201 1.535 30.873 o
-1 -5 0 536.794 568.523 5.029 0.953 o
-1 -4 -17 1.551 0.192 0.818 239.254 o
-1 -4 -16 1.863 1.454 2.070 38.116 o
-1 -4 -15 70.316 75.367 2.585 16.052 o
-1 -4 -14 12.939 13.894 1.989 38.665 o
-1 -4 -13 2.784 2.312 1.888 45.536 o
-1 -4 -12 60.164 60.645 3.019 13.966 o
-1 -4 -11 48.203 46.913 2.090 26.533 o
-1 -4 -10 9.021 7.795 1.262 93.065 o
-1 -4 -9 23.283 21.760 1.313 70.519 o
-1 -4 -8 232.970 235.491 3.171 4.205 o
-1 -4 -7 32.900 30.464 1.545 48.615 o
-1 -4 -6 331.740 318.411 3.605 2.425 o
-1 -4 -5 176.443 165.203 2.464 7.260 o
-1 -4 -4 6.771 5.786 0.868 187.361 o
-1 -4 -3 91.443 84.990 1.242 24.640 o
-1 -4 -2 1622.420 1759.540 17.075 0.102 o
-1 -4 -1 12.205 12.097 1.000 130.002 o
-1 -4 0 831.272 861.792 6.220 0.433 o
-1 -3 -18 2.558 2.938 2.030 39.471 o
-1 -3 -17 8.549 7.300 2.090 36.291 o
-1 -3 -16 9.928 10.673 1.838 45.804 o
-1 -3 -15 2.468 1.080 2.312 30.558 o
-1 -3 -14 21.898 19.326 2.090 33.461 o
-1 -3 -13 109.030 112.041 3.049 9.860 o
-1 -3 -12 30.002 29.525 1.979 34.173 o
-1 -3 -11 51.982 49.922 2.060 26.142 o
-1 -3 -10 201.598 201.675 3.171 5.122 o
-1 -3 -9 207.506 212.863 2.767 5.256 o
-1 -3 -8 286.857 286.261 5.513 2.252 o
-1 -3 -7 234.146 220.062 4.039 3.707 o
-1 -3 -6 53.537 49.821 1.494 37.849 o
-1 -3 -5 61.268 61.473 1.464 33.724 o
-1 -3 -4 1274.390 1268.220 7.735 0.198 o
-1 -3 -3 27.752 28.475 1.393 59.636 o
-1 -3 -2 982.219 1038.940 12.662 0.257 o
-1 -3 -1 333.548 324.358 3.908 2.313 o
-1 -3 0 2196.520 2398.220 13.571 0.064 o
-1 -2 -18 0.086 0.030 0.222 3260.080 o
-1 -2 -17 0.106 1.010 1.565 66.948 o
-1 -2 -16 3.884 2.716 2.191 33.812 o
-1 -2 -15 41.800 43.176 2.484 21.411 o
-1 -2 -14 28.657 27.616 2.161 29.907 o
-1 -2 -13 132.879 138.253 3.241 7.805 o
-1 -2 -12 26.638 27.354 1.595 49.611 o
-1 -2 -11 91.215 87.605 2.100 17.105 o
-1 -2 -10 3.521 3.150 1.091 131.590 o
-1 -2 -9 139.022 141.343 2.494 9.388 o
-1 -2 -8 161.968 162.194 2.817 7.245 o
-1 -2 -7 134.479 127.177 2.383 10.358 o
-1 -2 -6 664.627 690.782 5.140 0.666 o
-1 -2 -5 151.705 150.804 1.696 10.326 o
-1 -2 -4 91.352 88.605 1.848 18.990 o
-1 -2 -3 460.452 465.833 9.067 0.873 o
-1 -2 -2 5413.660 6003.790 33.180 0.010 o
-1 -2 -1 298.707 310.565 4.514 2.432 o
-1 -2 0 1527.790 1809.880 14.106 0.114 o
-1 -1 -18 1.656 0.656 1.373 86.181 o
-1 -1 -17 4.574 3.857 2.656 23.059 o
-1 -1 -16 4.913 3.928 1.959 41.935 o
-1 -1 -15 1.354 1.818 1.939 43.455 o
-1 -1 -14 23.722 20.114 1.727 45.925 o
-1 -1 -13 84.728 84.525 2.292 16.547 o
-1 -1 -12 7.307 7.361 1.333 85.645 o
-1 -1 -11 147.554 148.846 2.221 9.422 o
-1 -1 -10 134.812 134.225 2.221 10.616 o
-1 -1 -9 118.003 115.989 2.666 10.699 o
-1 -1 -8 259.862 259.806 3.756 3.321 o
-1 -1 -7 858.892 840.264 5.543 0.432 o
-1 -1 -6 196.292 195.364 2.918 5.585 o
-1 -1 -5 698.853 693.398 4.857 0.634 o
-1 -1 -4 1447.820 1446.650 11.733 0.146 o
-1 -1 -3 25.867 22.972 2.191 29.946 o
-1 -1 -2 107.781 111.112 3.201 9.402 o
-1 -1 -1 121.297 138.970 2.757 9.597 o
-1 -1 0 460.746 410.227 5.483 1.282 o
-1 0 1 26.312 21.831 1.757 43.575 o
-1 0 2 1296.260 1215.020 13.955 0.171 o
-1 0 3 16.713 12.935 1.414 69.703 o
-1 0 4 3569.490 3500.040 16.953 0.027 o
-1 0 5 561.619 587.183 6.291 0.826 o
-1 0 6 135.497 133.679 1.888 11.613 o
-1 0 7 716.637 717.490 4.453 0.611 o
-1 0 8 210.155 199.353 2.827 5.295 o
-1 0 9 55.344 57.535 1.919 27.215 o
-1 0 10 47.038 45.388 1.605 37.980 o
-1 0 11 460.625 473.507 5.614 1.184 o
-1 0 12 4.278 4.493 1.323 89.910 o
-1 0 13 0.865 0.788 0.889 204.655 o
-1 0 14 9.533 8.664 1.525 65.409 o
-1 0 15 71.888 77.386 2.807 14.193 o
-1 0 16 0.505 0.909 1.424 80.703 o
-1 0 17 40.037 41.137 2.635 19.683 o
-1 0 18 0.033 -0.182 1.272 101.565 o
-1 0 19 2.388 0.485 2.444 27.402 o
-1 1 1 238.790 264.592 3.958 3.429 o
-1 1 2 2975.230 3184.010 20.175 0.035 o
-1 1 3 1023.350 1048.970 9.512 0.274 o
-1 1 4 381.479 376.754 5.241 1.639 o
-1 1 5 101.168 90.664 2.797 11.904 o
-1 1 6 1766.760 1875.810 19.710 0.086 o
-1 1 7 601.116 623.292 4.251 0.826 o
-1 1 8 167.227 158.943 1.949 8.672 o
-1 1 9 818.347 833.640 5.826 0.456 o
-1 1 10 81.932 80.002 1.908 20.522 o
-1 1 11 25.515 24.173 1.434 59.743 o
-1 1 12 87.169 81.546 2.373 15.850 o
-1 1 13 133.207 131.831 2.959 8.633 o
-1 1 14 21.497 19.094 1.908 39.383 o
-1 1 15 36.075 36.431 2.312 25.149 o
-1 1 16 2.603 1.727 2.706 22.333 o
-1 1 17 0.125 -0.666 2.565 24.993 o
-1 1 18 2.596 1.010 1.323 92.113 o
-1 1 19 5.628 4.635 2.847 20.037 o
-1 2 1 207.514 222.496 3.999 4.080 o
-1 2 2 2311.970 2619.830 16.206 0.055 o
-1 2 3 18.983 18.519 1.565 56.345 o
-1 2 4 1750.510 1949.800 19.619 0.085 o
-1 2 5 609.482 638.215 10.855 0.539 o
-1 2 6 181.572 177.825 2.019 7.465 o
-1 2 7 161.797 155.712 1.605 9.694 o
-1 2 8 153.468 152.471 2.110 9.253 o
-1 2 9 8.232 7.624 0.899 169.962 o
-1 2 10 86.563 86.383 1.939 19.081 o
-1 2 11 192.272 187.791 3.706 4.888 o
-1 2 12 35.430 33.008 2.232 26.981 o
-1 2 13 47.565 47.397 2.646 18.662 o
-1 2 14 22.607 22.962 1.989 36.031 o
-1 2 15 65.610 63.432 2.656 16.363 o
-1 2 16 0.109 0.929 2.948 18.902 o
-1 2 17 42.157 46.448 2.706 18.461 o
-1 2 18 1.911 0.959 2.706 22.372 o
-1 3 1 62.281 59.706 2.272 20.814 o
-1 3 2 581.227 618.526 4.493 0.853 o
-1 3 3 488.691 497.731 3.160 1.268 o
-1 3 4 870.669 879.250 6.351 0.404 o
-1 3 5 128.844 128.186 3.999 6.394 o
-1 3 6 330.093 339.101 4.241 2.203 o
-1 3 7 80.156 79.456 1.676 23.303 o
-1 3 8 66.381 65.492 1.383 32.871 o
-1 3 9 370.807 374.199 5.473 1.646 o
-1 3 10 102.133 103.195 1.868 16.437 o
-1 3 11 93.762 93.159 2.827 12.132 o
-1 3 12 62.671 58.757 2.615 17.175 o
-1 3 13 79.495 75.367 3.039 12.342 o
-1 3 14 3.753 1.908 1.848 47.390 o
-1 3 15 53.423 54.798 2.575 18.592 o
-1 3 16 3.801 2.837 2.868 19.846 o
-1 3 17 1.596 -0.252 0.919 190.747 o
-1 3 18 2.182 0.818 5.190 6.098 o
-1 4 1 34.474 33.594 1.101 71.337 o
-1 4 2 470.103 498.811 3.352 1.312 o
-1 4 3 82.663 80.052 1.464 25.065 o
-1 4 4 808.805 812.224 6.129 0.465 o
-1 4 5 20.930 20.356 1.575 54.521 o
-1 4 6 33.086 33.675 1.959 33.638 o
-1 4 7 147.601 146.907 1.818 10.456 o
-1 4 8 175.425 175.351 3.908 5.086 o
-1 4 9 37.029 34.695 1.818 36.557 o
-1 4 10 28.156 26.263 1.484 54.825 o
-1 4 11 233.453 246.992 3.383 3.966 o
-1 4 12 15.372 12.763 1.888 42.190 o
-1 4 13 36.754 36.361 2.454 22.732 o
-1 4 14 8.017 7.391 2.070 37.040 o
-1 4 15 24.049 22.669 2.676 21.084 o
-1 4 16 29.109 27.677 2.979 16.925 o
-1 4 17 36.551 38.764 4.655 7.176 o
-1 4 18 5.872 6.089 5.756 4.947 o
-1 5 1 375.148 386.982 2.646 2.067 o
-1 5 2 168.831 170.474 1.767 8.598 o
-1 5 3 447.262 452.474 3.625 1.448 o
-1 5 4 45.539 43.197 1.949 30.179 o
-1 5 5 139.797 137.436 3.029 8.077 o
-1 5 6 193.440 172.261 7.735 2.084 o
-1 5 7 173.789 172.191 2.757 6.773 o
-1 5 8 26.822 25.284 2.363 25.982 o
-1 5 9 205.112 206.219 3.655 4.542 o
-1 5 10 120.896 125.268 3.150 8.735 o
-1 5 11 6.516 5.968 2.322 29.818 o
-1 5 12 10.565 8.896 1.797 47.817 o
-1 5 13 27.317 22.578 3.383 13.517 o
-1 5 14 8.477 6.755 2.545 24.796 o
-1 6 1 117.516 118.028 1.929 13.673 o
-1 6 2 269.178 275.194 2.494 3.687 o
-1 6 3 69.377 72.085 1.888 23.536 o
-1 6 4 147.515 149.825 3.585 6.471 o
-1 6 5 144.861 152.814 3.898 5.950 o
-1 6 6 11.824 9.774 2.110 35.050 o
-1 6 7 8.729 8.058 1.393 77.825 o
-1 6 8 81.046 77.003 1.969 20.292 o
-1 6 9 76.643 75.589 2.635 15.126 o
-1 6 10 21.428 19.357 1.989 36.610 o
-1 6 11 90.582 94.188 4.271 6.961 o
-1 6 13 61.410 64.118 4.342 7.593 o
-1 7 1 292.080 313.584 3.039 2.965 o
-1 7 2 244.172 263.098 2.807 4.017 o
-1 7 3 147.419 148.755 2.191 9.505 o
-1 7 4 92.465 96.339 3.696 8.547 o
-1 7 5 119.217 123.208 4.150 6.351 o
-1 7 6 92.747 96.693 4.049 7.472 o
-1 7 7 31.676 31.887 1.929 34.989 o
-1 7 8 4.615 4.352 1.585 63.343 o
-1 7 9 151.889 151.764 3.605 6.298 o
-1 7 10 70.508 74.791 4.180 7.818 o
-1 7 11 20.855 20.629 3.150 15.719 o
-1 7 12 12.243 8.754 2.959 18.293 o
-1 7 13 37.507 39.572 3.797 10.469 o
-1 8 1 9.916 7.896 0.959 148.222 o
-1 8 2 150.515 160.750 3.140 7.056 o
-1 8 3 196.508 205.744 5.362 3.263 o
-1 8 4 234.269 245.740 5.947 2.513 o
-1 8 5 7.644 8.048 1.777 49.645 o
-1 8 6 10.810 9.229 2.595 23.661 o
-1 8 7 124.735 132.932 3.443 7.673 o
-1 8 8 75.904 83.364 2.948 12.844 o
-1 8 9 16.940 15.247 3.039 17.081 o
-1 8 10 28.216 25.910 3.474 12.789 o
-1 8 11 137.258 149.108 5.917 3.535 o
-1 8 12 21.956 21.073 3.494 12.873 o
-1 8 13 9.737 9.027 3.605 12.467 o
-1 9 1 81.196 83.798 2.787 13.469 o
-1 9 2 71.971 73.953 2.635 15.572 o
-1 9 3 76.656 77.386 2.686 14.691 o
-1 9 4 24.797 27.707 2.211 29.289 o
-1 9 5 147.583 159.821 5.715 3.594 o
-1 9 6 110.685 118.715 5.190 4.737 o
-1 9 7 16.398 14.611 2.019 36.954 o
-1 9 8 9.734 9.219 1.969 40.361 o
-1 9 9 139.305 156.843 6.240 3.222 o
-1 9 10 23.279 25.869 3.736 11.249 o
-1 9 11 6.250 6.402 3.352 14.477 o
-1 9 12 21.666 21.800 3.817 10.863 o
-1 9 13 14.055 11.764 4.059 9.803 o
-1 10 1 13.293 12.703 1.959 39.828 o
-1 10 2 28.519 26.899 2.242 28.157 o
-1 10 3 13.535 12.480 1.676 52.985 o
-1 10 4 113.514 116.221 3.675 7.680 o
-1 10 5 36.204 39.652 3.827 10.345 o
-1 10 6 14.820 12.258 2.221 31.314 o
-1 10 7 35.483 36.684 2.686 19.598 o
-1 10 8 15.180 14.126 2.433 26.253 o
-1 10 9 14.532 12.309 3.746 11.463 o
-1 10 10 24.330 26.314 4.201 8.967 o
-1 10 11 25.838 27.859 4.231 8.815 o
-1 10 12 6.907 7.937 4.079 9.798 o
-1 10 13 8.792 9.057 4.746 7.243 o
-1 11 1 7.240 6.483 1.777 49.920 o
-1 11 2 34.199 34.684 2.120 29.371 o
-1 11 3 52.005 53.062 2.979 14.965 o
-1 11 4 35.447 39.339 4.110 9.081 o
-1 11 5 2.172 0.747 3.261 15.417 o
-1 11 6 81.183 89.968 3.716 8.918 o
-1 11 7 17.209 17.660 2.615 22.650 o
-1 11 8 19.806 18.832 3.817 10.919 o
-1 11 9 20.453 19.215 4.029 9.822 o
-1 11 10 7.775 7.825 4.453 8.229 o
-1 11 11 6.148 4.130 4.675 7.488 o
-1 11 12 10.935 10.047 4.645 7.543 o
-1 12 1 2.942 1.565 2.605 24.076 o
-1 12 2 37.376 32.756 4.140 8.979 o
-1 12 3 19.565 20.609 3.827 10.853 o
-1 12 4 85.740 94.643 5.574 4.550 o
-1 12 5 21.811 20.730 2.797 19.615 o
-1 12 6 7.346 8.219 2.464 26.433 o
-1 12 7 0.808 1.959 5.099 6.319 o
-1 12 8 11.273 11.046 3.756 11.460 o
-1 12 9 5.780 7.240 4.251 9.040 o
-1 12 10 12.058 12.733 4.837 6.949 o
-1 13 1 40.623 44.742 3.221 13.852 o
-1 13 2 7.725 5.675 2.585 24.115 o
-1 13 3 7.621 7.492 2.524 25.214 o
-1 13 4 27.794 28.253 3.080 15.967 o
-1 13 5 6.682 6.371 2.686 22.401 o
-1 13 6 19.416 23.234 2.999 17.261 o
-1 13 7 5.633 4.322 3.524 13.139 o
-1 14 1 1.822 -0.131 0.818 238.553 o
-1 14 2 23.548 23.779 2.555 22.944 o
0 -12 -9 5.842 6.987 4.019 10.107 o
0 -12 -8 5.312 5.059 3.383 14.250 o
0 -12 -7 18.092 22.739 4.564 7.710 o
0 -12 -6 38.755 45.610 4.756 6.834 o
0 -12 -5 26.588 29.767 4.190 8.956 o
0 -11 -11 29.987 34.270 4.736 7.030 o
0 -11 -9 16.268 16.772 3.958 10.240 o
0 -11 -8 38.087 33.978 4.312 8.302 o
0 -11 -7 19.358 20.245 3.696 11.617 o
0 -11 -6 25.116 28.232 3.958 10.022 o
0 -11 -5 15.184 16.832 3.494 13.076 o
0 -11 -4 17.632 14.974 3.433 13.493 o
0 -11 -3 8.985 10.461 3.322 14.641 o
0 -10 -12 0.151 -0.525 1.505 72.593 o
0 -10 -11 4.991 2.706 3.675 12.104 o
0 -10 -10 31.965 35.603 4.231 8.679 o
0 -10 -9 19.447 16.469 3.726 11.468 o
0 -10 -8 15.178 15.510 3.574 12.521 o
0 -10 -7 2.324 1.181 3.312 14.946 o
0 -10 -6 32.274 31.302 3.706 11.169 o
0 -10 -5 13.377 13.258 3.251 15.128 o
0 -10 -4 75.053 76.447 4.584 6.611 o
0 -10 -3 78.856 75.932 4.473 6.831 o
0 -10 -2 9.815 8.421 3.110 16.670 o
0 -9 -13 10.131 8.462 2.565 24.270 o
0 -9 -12 16.957 14.924 2.524 24.330 o
0 -9 -11 44.789 47.811 4.453 7.634 o
0 -9 -10 7.438 6.816 3.574 12.729 o
0 -9 -9 1.711 0.838 3.887 10.864 o
0 -9 -8 31.384 30.232 3.655 11.493 o
0 -9 -7 4.228 6.170 2.928 18.978 o
0 -9 -6 132.919 139.425 5.493 4.031 o
0 -9 -5 62.542 63.109 4.110 8.337 o
0 -9 -4 10.946 9.047 1.706 52.565 o
0 -9 -3 78.090 82.576 4.332 7.155 o
0 -9 -2 219.811 232.846 6.341 2.452 o
0 -9 -1 46.372 47.468 3.514 11.650 o
0 -8 -15 8.014 5.776 2.565 24.470 o
0 -8 -14 1.739 1.545 2.292 31.131 o
0 -8 -13 19.997 18.185 2.595 22.768 o
0 -8 -12 2.095 0.616 1.181 115.570 o
0 -8 -11 10.743 7.825 3.039 17.419 o
0 -8 -10 2.529 3.474 2.858 20.015 o
0 -8 -9 13.769 11.511 3.181 15.802 o
0 -8 -8 120.269 125.531 5.251 4.514 o
0 -8 -7 97.233 100.590 3.060 10.661 o
0 -8 -6 132.565 128.883 3.282 7.880 o
0 -8 -5 58.477 56.414 2.363 20.395 o
0 -8 -4 208.965 205.876 3.776 4.372 o
0 -8 -3 42.629 42.157 3.110 14.690 o
0 -8 -2 45.688 40.632 3.130 14.417 o
0 -8 -1 25.835 22.719 2.736 20.118 o
0 -8 0 283.797 289.765 6.311 2.000 o
0 -7 -16 2.024 0.565 3.221 15.809 o
0 -7 -15 15.865 16.832 2.383 27.126 o
0 -7 -14 13.470 10.562 2.141 33.855 o
0 -7 -13 0.560 0.232 1.141 125.592 o
0 -7 -12 21.063 18.569 2.009 36.104 o
0 -7 -11 47.512 44.893 2.252 24.072 o
0 -7 -10 50.333 53.334 2.696 17.647 o
0 -7 -9 42.216 41.339 1.878 32.764 o
0 -7 -8 62.814 60.554 1.828 26.844 o
0 -7 -7 46.980 43.853 1.494 41.600 o
0 -7 -6 133.889 132.155 3.029 8.412 o
0 -7 -5 227.338 223.657 3.665 4.038 o
0 -7 -4 267.015 265.592 3.827 3.175 o
0 -7 -3 17.335 14.490 2.403 26.673 o
0 -7 -2 222.663 225.394 4.827 3.288 o
0 -7 -1 33.491 23.325 10.784 1.403 o
0 -6 -17 11.594 10.814 3.322 14.579 o
0 -6 -16 1.377 0.868 1.848 47.875 o
0 -6 -15 1.571 0.636 6.099 4.418 o
0 -6 -14 2.019 1.605 1.838 48.231 o
0 -6 -13 109.596 111.586 3.140 9.524 o
0 -6 -12 37.865 36.270 2.171 27.581 o
0 -6 -11 28.057 26.879 2.333 26.342 o
0 -6 -10 24.617 22.871 1.656 48.383 o
0 -6 -9 128.705 130.650 2.322 10.803 o
0 -6 -8 57.195 55.727 1.605 33.004 o
0 -6 -7 12.414 11.733 1.101 111.298 o
0 -6 -6 515.428 525.418 5.241 1.026 o
0 -6 -5 4.265 2.757 1.101 128.581 o
0 -6 -4 318.914 314.927 3.342 2.613 o
0 -6 -3 10.307 4.827 8.795 2.121 o
0 -6 -2 209.832 219.588 6.361 2.534 o
0 -6 -1 97.001 88.746 4.180 7.116 o
0 -6 0 606.151 669.416 19.952 0.279 o
0 -5 -17 1.877 3.039 2.565 24.851 o
0 -5 -16 5.156 3.867 2.938 18.856 o
0 -5 -15 57.649 59.544 2.837 15.565 o
0 -5 -14 37.519 36.633 2.080 29.521 o
0 -5 -13 17.184 15.005 1.676 51.365 o
0 -5 -12 22.976 22.608 1.686 47.592 o
0 -5 -11 279.271 284.544 4.059 2.858 o
0 -5 -10 49.766 50.921 2.019 27.166 o
0 -5 -9 10.015 9.209 1.050 126.045 o
0 -5 -8 105.585 105.851 1.807 16.218 o
0 -5 -7 232.191 231.059 2.928 4.425 o
0 -5 -6 102.636 104.821 2.302 13.804 o
0 -5 -5 134.242 134.265 2.353 10.252 o
0 -5 -4 231.531 222.274 2.706 4.679 o
0 -5 -3 50.168 49.043 1.706 33.803 o
0 -5 -2 864.258 945.853 12.258 0.309 o
0 -5 -1 50.139 47.761 3.120 14.103 o
0 -4 -18 1.735 0.727 1.222 108.444 o
0 -4 -17 15.758 14.146 2.433 26.203 o
0 -4 -16 1.183 0.162 0.646 380.999 o
0 -4 -15 6.356 5.705 2.100 36.316 o
0 -4 -14 4.888 4.534 1.565 64.807 o
0 -4 -13 134.665 136.476 3.292 7.654 o
0 -4 -12 5.164 3.453 1.424 77.888 o
0 -4 -11 114.305 112.222 3.352 8.635 o
0 -4 -10 5.511 5.463 1.646 58.479 o
0 -4 -9 87.218 86.413 1.858 19.683 o
0 -4 -8 9.669 8.987 1.323 84.593 o
0 -4 -7 200.912 198.616 3.110 5.232 o
0 -4 -6 492.989 497.397 4.413 1.171 o
0 -4 -5 81.856 83.243 1.828 21.067 o
0 -4 -4 509.186 500.982 3.726 1.169 o
0 -4 -3 79.356 64.108 6.341 3.740 o
0 -4 -2 397.182 410.287 7.856 1.152 o
0 -4 -1 572.647 595.746 7.735 0.731 o
0 -4 0 1747.990 1894.410 17.004 0.091 o
0 -3 -18 1.902 2.242 1.747 53.285 o
0 -3 -17 19.738 23.012 2.494 24.331 o
0 -3 -16 0.272 0.040 0.868 217.151 o
0 -3 -15 53.095 53.425 2.625 18.145 o
0 -3 -14 4.910 3.837 1.787 50.171 o
0 -3 -13 0.713 0.091 0.545 538.043 o
0 -3 -12 58.962 59.181 2.282 21.151 o
0 -3 -11 106.838 107.608 2.262 13.533 o
0 -3 -10 7.109 7.856 1.393 78.832 o
0 -3 -9 362.051 354.550 5.978 1.623 o
0 -3 -8 333.461 330.104 3.362 2.428 o
0 -3 -7 161.066 156.843 2.211 8.539 o
0 -3 -6 175.478 173.675 2.100 7.692 o
0 -3 -5 790.169 780.841 4.675 0.512 o
0 -3 -4 711.843 725.931 4.190 0.617 o
0 -3 -3 95.239 91.220 9.956 1.570 o
0 -3 -2 67.843 76.669 3.373 11.083 o
0 -3 -1 69.930 63.513 2.333 18.982 o
0 -2 -18 2.762 2.373 2.575 24.632 o
0 -2 -17 57.549 64.007 2.989 14.240 o
0 -2 -16 18.500 20.326 2.252 29.636 o
0 -2 -15 15.850 13.308 1.959 39.298 o
0 -2 -14 13.293 12.511 1.605 57.351 o
0 -2 -13 102.218 102.650 2.454 13.133 o
0 -2 -12 4.100 3.443 1.424 78.421 o
0 -2 -11 91.817 88.372 2.040 17.441 o
0 -2 -10 96.544 97.076 1.959 16.904 o
0 -2 -9 11.382 8.744 1.393 76.029 o
0 -2 -8 75.222 75.498 2.100 19.925 o
0 -2 -7 228.477 226.676 2.948 4.520 o
0 -2 -6 1004.350 1005.510 5.493 0.321 o
0 -2 -5 84.432 80.194 1.767 21.488 o
0 -2 -4 16.332 20.296 0.919 129.036 o
0 -2 -3 41.243 39.309 3.716 10.799 o
0 -2 -2 2985.760 3319.240 30.868 0.030 o
0 -2 -1 109.053 115.211 2.989 10.004 o
0 -2 0 1732.100 2096.650 12.844 0.092 o
0 -1 -18 1.234 0.212 1.535 69.369 o
0 -1 -17 8.547 9.007 2.221 32.175 o
0 -1 -15 52.371 53.355 2.211 23.400 o
0 -1 -14 1.586 0.707 0.485 640.760 o
0 -1 -13 33.484 34.180 1.757 39.543 o
0 -1 -12 28.996 27.919 1.535 51.409 o
0 -1 -11 242.439 244.942 3.060 4.045 o
0 -1 -10 47.399 45.852 1.474 41.643 o
0 -1 -9 138.769 136.305 3.928 6.215 o
0 -1 -8 415.454 423.949 5.988 1.332 o
0 -1 -7 40.456 40.319 2.131 27.643 o
0 -1 -6 437.846 445.012 5.281 1.320 o
0 -1 -5 449.655 460.532 4.766 1.315 o
0 -1 -4 694.692 687.683 10.118 0.491 o
0 -1 -3 41.036 34.018 3.100 15.047 o
0 -1 -2 6140.040 6996.190 156.106 0.004 o
0 -1 -1 458.621 494.186 6.644 1.067 o
0 0 2 390.989 439.368 7.825 1.139 o
0 0 3 99.838 101.307 5.008 5.243 o
0 0 4 2259.750 2240.990 15.308 0.063 o
0 0 5 186.343 167.829 4.211 4.613 o
0 0 6 61.702 66.188 1.525 31.657 o
0 0 7 5.342 4.059 0.919 175.851 o
0 0 8 66.113 65.502 2.706 15.814 o
0 0 9 25.679 27.485 2.252 28.277 o
0 0 10 22.647 22.739 1.777 43.694 o
0 0 11 20.871 19.023 1.323 72.520 o
0 0 12 7.313 5.554 1.161 111.235 o
0 0 13 178.430 179.996 2.959 6.217 o
0 0 14 1.589 1.818 1.616 62.325 o
0 0 15 2.497 2.131 2.131 35.901 o
0 0 16 1.395 0.030 0.252 2072.010 o
0 0 17 47.254 50.275 2.787 17.084 o
0 0 18 0.056 0.010 0.020 153625.000 o
0 1 1 454.122 514.209 4.342 1.261 o
0 1 2 6110.380 7037.040 98.864 0.006 o
0 1 3 39.817 37.683 2.221 26.205 o
0 1 4 730.931 742.269 9.805 0.460 o
0 1 5 428.966 410.620 11.562 0.737 o
0 1 6 447.268 448.556 3.564 1.461 o
0 1 7 41.234 39.895 1.030 66.028 o
0 1 8 422.904 418.587 3.756 1.596 o
0 1 9 135.229 132.942 3.756 6.673 o
0 1 10 46.532 42.631 1.646 37.481 o
0 1 11 243.975 246.265 4.413 3.217 o
0 1 12 27.729 26.092 1.515 53.459 o
0 1 13 33.377 32.574 1.727 40.860 o
0 1 14 1.614 0.374 1.747 53.535 o
0 1 15 52.107 50.699 2.181 24.091 o
0 1 16 0.033 1.060 2.040 39.467 o
0 1 17 8.831 7.694 2.221 32.213 o
0 1 18 1.255 0.020 0.464 715.759 o
0 2 0 1747.430 2175.720 19.266 0.080 o
0 2 1 110.619 118.907 2.444 11.960 o
0 2 2 3011.440 3275.310 14.449 0.035 o
0 2 3 41.125 37.724 1.858 33.982 o
0 2 4 18.172 21.861 1.111 95.492 o
0 2 5 86.043 83.041 1.979 19.039 o
0 2 6 1015.960 1014.480 6.563 0.307 o
0 2 7 217.736 207.946 2.343 5.441 o
0 2 8 76.130 74.024 1.444 27.701 o
0 2 9 9.110 7.230 0.889 171.240 o
0 2 10 93.829 90.907 1.747 19.254 o
0 2 11 91.318 89.443 2.282 15.694 o
0 2 12 4.308 3.100 1.353 86.497 o
0 2 13 100.053 99.066 2.343 14.055 o
0 2 14 13.259 11.188 1.595 58.271 o
0 2 15 15.947 13.379 1.727 49.364 o
0 2 16 18.543 17.297 2.242 30.059 o
0 2 17 57.238 64.492 3.615 10.488 o
0 2 18 2.846 1.383 5.210 6.048 o
0 3 1 72.037 68.016 2.413 17.721 o
0 3 2 75.428 80.103 2.585 15.414 o
0 3 3 94.131 93.017 1.767 18.892 o
0 3 4 711.315 729.950 5.301 0.592 o
0 3 5 787.694 765.029 4.059 0.530 o
0 3 6 182.076 174.695 2.322 7.084 o
0 3 7 156.069 149.482 2.131 9.149 o
0 3 8 333.712 334.001 4.917 2.028 o
0 3 9 362.911 360.103 3.494 2.092 o
0 3 10 7.869 7.724 1.040 132.970 o
0 3 11 108.508 110.152 2.090 14.137 o
0 3 12 56.937 54.798 2.080 24.549 o
0 3 13 0.724 0.040 0.788 261.648 o
0 3 14 4.577 3.352 1.646 59.055 o
0 3 15 49.743 51.174 2.565 19.217 o
0 3 17 19.513 21.285 2.979 17.521 o
0 4 0 1750.600 1956.800 25.718 0.074 o
0 4 1 580.180 613.235 6.765 0.758 o
0 4 2 401.773 415.447 4.019 1.660 o
0 4 3 82.108 74.842 1.838 21.629 o
0 4 4 499.857 512.261 7.462 0.907 o
0 4 5 81.610 82.385 1.727 22.206 o
0 4 6 483.381 492.419 4.140 1.224 o
0 4 7 195.140 189.790 2.676 5.964 o
0 4 8 8.874 8.169 1.141 111.380 o
0 4 9 86.155 86.020 2.484 14.960 o
0 4 10 4.243 3.827 1.070 134.798 o
0 4 11 115.147 115.090 2.433 11.820 o
0 4 12 4.954 3.463 1.373 83.589 o
0 4 13 136.725 140.192 3.070 8.044 o
0 4 14 4.530 3.494 1.949 42.450 o
0 4 15 5.693 2.787 4.059 9.928 o
0 4 17 15.355 17.357 4.857 6.861 o
0 5 1 49.718 51.688 1.091 51.741 o
0 5 2 856.218 964.614 14.419 0.279 o
0 5 3 49.699 49.386 1.999 27.695 o
0 5 4 230.511 231.028 3.605 3.979 o
0 5 5 127.853 126.975 3.140 8.455 o
0 5 6 101.415 105.851 2.292 13.920 o
0 5 7 232.902 232.311 3.261 4.170 o
0 5 8 104.881 103.034 2.060 15.009 o
0 5 9 10.365 9.441 1.626 57.646 o
0 5 10 50.059 52.214 2.383 21.375 o
0 5 11 283.381 285.938 4.796 2.532 o
0 5 12 22.606 23.062 1.535 55.483 o
0 6 0 613.510 643.234 4.625 0.779 o
0 6 1 101.252 99.833 1.434 19.617 o
0 6 2 211.726 216.316 2.767 5.119 o
0 6 3 10.322 8.088 1.656 55.934 o
0 6 4 319.384 323.015 3.867 2.431 o
0 6 5 5.043 4.301 1.747 52.371 o
0 6 6 513.685 520.692 5.180 1.039 o
0 6 7 13.322 12.571 1.494 65.148 o
0 6 8 55.119 55.627 1.807 29.494 o
0 6 9 127.710 128.742 3.292 8.026 o
0 6 10 22.753 23.184 2.110 32.453 o
0 6 11 28.240 25.880 2.242 28.264 o
0 6 12 38.154 38.511 3.474 12.306 o
0 7 1 35.270 31.746 1.040 75.732 o
0 7 2 229.492 231.786 2.232 4.951 o
0 7 3 15.391 13.844 1.979 38.600 o
0 7 4 268.228 268.732 4.009 3.062 o
0 7 5 230.450 232.280 5.685 2.708 o
0 7 6 132.077 137.203 3.150 8.075 o
0 7 7 46.364 48.468 2.252 23.983 o
0 7 8 62.670 61.392 2.009 24.053 o
0 7 9 42.916 44.025 2.403 22.395 o
0 7 10 51.579 54.122 2.686 17.617 o
0 7 11 43.763 44.661 2.656 18.981 o
0 7 12 21.394 22.537 3.332 14.084 o
0 8 0 286.958 304.487 5.796 2.109 o
0 8 1 28.104 27.192 1.706 44.208 o
0 8 2 44.596 45.681 1.929 30.553 o
0 8 3 43.346 40.612 1.363 48.681 o
0 8 4 206.824 209.935 5.766 2.906 o
0 8 5 55.851 61.301 3.655 10.386 o
0 8 6 134.839 140.081 3.504 7.115 o
0 8 7 97.465 105.821 3.201 9.957 o
0 8 8 119.432 130.913 3.514 7.696 o
0 8 9 11.524 9.391 2.908 18.931 o
0 8 10 3.396 1.171 2.716 22.149 o
0 8 11 10.838 15.015 3.191 15.738 o
0 8 12 2.410 1.818 4.301 8.869 o
0 8 13 19.982 19.508 3.696 11.612 o
0 9 1 45.902 47.034 1.828 32.371 o
0 9 2 221.348 227.747 3.322 4.358 o
0 9 3 74.950 81.839 2.858 13.506 o
0 9 4 11.831 14.429 2.777 20.578 o
0 9 5 60.811 61.533 4.009 8.755 o
0 9 6 130.293 140.121 3.797 6.624 o
0 9 7 3.809 2.292 1.717 54.719 o
0 9 8 31.379 30.464 2.413 24.276 o
0 9 9 1.471 1.010 3.352 14.603 o
0 9 10 7.887 9.108 3.342 14.505 o
0 9 11 44.172 49.942 4.524 7.410 o
0 9 12 17.779 13.581 3.585 12.421 o
0 9 13 10.080 8.108 4.312 8.754 o
0 10 0 362.356 381.419 5.483 1.663 o
0 10 1 30.363 31.827 1.898 36.194 o
0 10 2 9.161 7.472 1.616 59.074 o
0 10 3 76.065 76.720 2.959 12.970 o
0 10 4 77.176 80.032 4.625 6.455 o
0 10 5 13.037 16.893 2.282 29.712 o
0 10 6 32.144 31.251 2.585 21.449 o
0 10 7 3.189 2.262 2.343 29.691 o
0 10 8 14.301 13.884 2.373 27.624 o
0 10 9 19.730 20.185 3.726 11.429 o
0 10 10 30.724 30.837 4.140 9.098 o
0 10 11 5.520 5.281 3.726 11.759 o
0 10 13 36.824 44.328 4.776 6.805 o
0 11 1 36.523 35.068 2.615 20.494 o
0 11 2 109.237 118.180 3.726 7.641 o
0 11 3 9.292 11.531 3.160 16.125 o
0 11 4 19.344 17.135 2.494 24.610 o
0 11 5 14.476 13.419 2.504 24.946 o
0 11 6 26.192 27.808 2.736 19.929 o
0 11 7 20.283 22.457 2.706 20.901 o
0 11 8 36.838 42.177 3.090 15.139 o
0 11 9 16.447 16.610 4.110 9.515 o
0 11 10 1.863 0.333 0.959 174.387 o
0 11 11 28.697 27.414 4.362 8.282 o
0 12 0 78.959 83.425 5.049 5.521 o
0 12 1 4.402 3.282 2.484 26.340 o
0 12 2 27.804 27.526 2.696 20.370 o
0 12 3 11.721 11.642 2.534 24.631 o
0 12 4 12.795 9.441 2.656 22.512 o
0 12 5 28.034 27.748 2.989 16.871 o
0 12 6 40.488 39.279 3.181 14.288 o
0 12 7 17.679 17.105 2.827 19.534 o
0 12 8 5.253 5.311 3.605 12.559 o
0 12 9 5.283 2.151 6.775 3.576 o
0 13 1 0.824 0.576 2.131 36.128 o
0 13 2 1.910 -0.505 4.978 6.630 o
0 13 3 6.263 3.787 2.575 24.428 o
0 13 4 18.365 18.539 3.029 17.073 o
0 13 5 12.728 14.126 2.888 19.045 o
0 13 6 15.314 16.883 2.888 18.874 o
0 13 7 13.208 11.289 3.181 15.821 o
0 14 0 10.603 10.461 3.130 16.410 o
0 14 1 4.024 3.797 2.534 25.319 o
0 14 2 5.729 5.877 2.706 22.125 o
1 -12 -10 11.301 9.966 3.908 10.608 o
1 -12 -9 5.407 4.857 4.019 10.121 o
1 -12 -8 12.198 14.278 4.180 9.258 o
1 -12 -7 1.041 0.777 1.696 56.830 o
1 -11 -12 10.485 7.533 4.251 9.002 o
1 -11 -11 6.017 4.877 3.574 12.764 o
1 -11 -10 7.464 6.119 3.686 11.986 o
1 -11 -9 19.916 20.265 3.928 10.317 o
1 -11 -8 18.834 19.942 3.696 11.630 o
1 -11 -7 17.243 18.498 3.645 11.987 o
1 -11 -6 83.313 89.412 5.362 4.909 o
1 -11 -5 2.355 1.151 5.604 5.230 o
1 -10 -12 7.585 5.604 4.019 10.098 o
1 -10 -11 24.642 19.852 4.029 9.759 o
1 -10 -10 23.482 20.679 3.827 10.786 o
1 -10 -9 14.972 14.005 3.574 12.540 o
1 -10 -8 14.547 14.035 3.362 14.134 o
1 -10 -7 36.611 36.209 4.009 9.519 o
1 -10 -6 16.015 17.872 3.292 14.639 o
1 -10 -5 35.009 33.301 2.444 23.235 o
1 -10 -4 114.269 118.170 3.574 7.897 o
1 -10 -3 12.928 13.015 3.160 16.002 o
1 -9 -12 21.868 20.639 3.918 10.336 o
1 -9 -11 5.984 2.565 3.352 14.517 o
1 -9 -10 23.088 20.740 3.776 11.071 o
1 -9 -9 140.390 151.178 6.028 3.408 o
1 -9 -8 11.201 10.824 3.383 14.081 o
1 -9 -7 16.589 13.833 2.009 37.330 o
1 -9 -6 109.548 107.002 3.342 8.941 o
1 -9 -5 146.434 146.281 3.706 6.323 o
1 -9 -4 26.471 25.708 2.090 32.172 o
1 -9 -3 73.550 79.961 4.190 7.672 o
1 -9 -2 69.462 73.691 4.049 8.278 o
1 -8 -15 22.902 20.710 4.170 9.147 o
1 -8 -14 0.679 1.424 3.110 16.974 o
1 -8 -13 8.950 6.725 2.292 30.351 o
1 -8 -12 22.364 19.720 2.474 24.611 o
1 -8 -11 135.468 140.727 4.029 6.055 o
1 -8 -10 30.341 25.758 2.343 25.944 o
1 -8 -9 17.137 13.106 2.030 36.620 o
1 -8 -8 73.635 73.065 2.878 13.744 o
1 -8 -7 124.769 129.610 3.423 7.776 o
1 -8 -6 11.776 11.117 1.706 52.021 o
1 -8 -5 6.079 4.705 1.616 60.548 o
1 -8 -4 233.248 251.203 6.159 2.409 o
1 -8 -3 194.876 202.725 5.523 3.179 o
1 -8 -2 154.371 158.509 4.978 4.270 o
1 -8 -1 10.167 7.260 1.626 58.085 o
1 -7 -16 0.906 2.050 3.524 13.218 o
1 -7 -15 24.726 26.193 4.413 8.151 o
1 -7 -14 2.188 1.858 2.696 22.513 o
1 -7 -13 36.574 34.311 2.252 26.337 o
1 -7 -12 12.985 11.572 1.818 45.951 o
1 -7 -11 20.881 20.114 1.565 55.174 o
1 -7 -10 68.501 69.218 1.999 22.543 o
1 -7 -9 147.466 149.068 2.878 7.905 o
1 -7 -8 5.662 4.281 1.565 64.579 o
1 -7 -7 31.504 30.615 1.989 33.473 o
1 -7 -6 93.279 92.341 2.666 13.044 o
1 -7 -5 117.785 117.322 2.847 10.022 o
1 -7 -4 91.388 92.573 3.716 8.570 o
1 -7 -3 150.239 153.319 4.322 5.187 o
1 -7 -2 245.354 245.740 4.736 3.031 o
1 -7 -1 296.666 299.186 9.451 1.218 o
1 -6 -17 36.349 40.703 3.494 12.200 o
1 -6 -16 2.924 4.069 3.009 18.044 o
1 -6 -15 10.970 8.209 4.301 8.788 o
1 -6 -14 6.078 4.312 2.444 27.073 o
1 -6 -13 61.981 65.784 2.595 17.115 o
1 -6 -12 0.611 0.172 2.343 29.923 o
1 -6 -11 89.164 87.777 2.191 16.653 o
1 -6 -10 21.737 19.841 1.444 62.459 o
1 -6 -9 76.944 76.427 2.151 19.136 o
1 -6 -8 82.247 77.174 2.009 19.713 o
1 -6 -7 7.465 6.119 1.202 104.058 o
1 -6 -6 11.367 9.976 1.131 108.859 o
1 -6 -5 143.527 144.070 2.494 9.089 o
1 -6 -4 153.813 139.788 10.360 1.370 o
1 -6 -3 71.963 61.766 7.351 2.869 o
1 -6 -2 269.633 275.921 7.563 1.718 o
1 -6 -1 119.996 115.625 5.160 4.693 o
1 -5 -17 5.657 4.665 2.757 21.360 o
1 -5 -16 1.278 3.857 3.635 12.410 o
1 -5 -15 55.244 60.423 3.474 11.350 o
1 -5 -14 8.273 5.069 1.999 39.739 o
1 -5 -13 30.096 26.718 1.767 41.319 o
1 -5 -12 10.393 8.482 1.474 69.226 o
1 -5 -11 6.333 5.796 1.303 90.655 o
1 -5 -10 119.339 116.857 2.009 13.210 o
1 -5 -9 206.676 213.439 2.696 5.334 o
1 -5 -8 24.923 24.628 1.404 61.890 o
1 -5 -7 171.892 165.446 2.959 6.626 o
1 -5 -6 192.129 184.762 2.878 5.877 o
1 -5 -5 141.704 138.859 2.333 9.743 o
1 -5 -4 43.755 41.036 1.706 36.913 o
1 -5 -3 448.462 463.894 5.422 1.247 o
1 -5 -2 176.023 179.087 3.393 5.697 o
1 -5 -1 383.088 391.900 4.453 1.732 o
1 -4 -18 5.989 6.684 3.090 17.013 o
1 -4 -17 34.749 37.280 2.716 19.255 o
1 -4 -16 28.898 26.809 2.383 25.286 o
1 -4 -15 24.247 24.991 2.262 28.400 o
1 -4 -14 7.880 7.795 1.828 47.036 o
1 -4 -13 35.989 35.603 2.120 28.993 o
1 -4 -12 14.642 11.723 1.414 71.303 o
1 -4 -11 239.164 243.711 3.090 4.089 o
1 -4 -10 30.219 27.212 1.242 68.220 o
1 -4 -9 38.023 34.402 1.575 44.393 o
1 -4 -8 172.639 169.848 3.110 6.305 o
1 -4 -7 143.042 140.121 2.635 8.853 o
1 -4 -6 33.713 33.059 1.424 53.247 o
1 -4 -5 19.601 21.427 1.151 89.309 o
1 -4 -4 792.749 783.507 3.857 0.521 o
1 -4 -3 83.258 83.122 2.282 16.856 o
1 -4 -2 466.779 496.256 4.837 1.208 o
1 -4 -1 32.955 31.635 1.515 49.687 o
1 -3 -18 2.355 1.424 1.767 52.078 o
1 -3 -17 1.329 1.161 3.029 17.878 o
1 -3 -16 3.710 2.959 1.888 45.338 o
1 -3 -15 51.908 53.496 2.595 18.571 o
1 -3 -14 3.590 2.090 1.333 89.808 o
1 -3 -13 78.982 78.113 2.262 17.772 o
1 -3 -12 63.366 61.776 1.939 24.910 o
1 -3 -11 93.611 89.614 2.060 16.999 o
1 -3 -10 99.833 96.975 1.979 16.383 o
1 -3 -9 362.727 366.828 3.706 2.033 o
1 -3 -8 65.210 66.542 2.060 22.529 o
1 -3 -7 78.194 79.123 2.030 19.958 o
1 -3 -6 321.290 330.235 3.463 2.497 o
1 -3 -5 128.289 130.539 2.110 11.548 o
1 -3 -4 865.875 877.180 8.825 0.372 o
1 -3 -3 500.471 507.424 4.433 1.137 o
1 -3 -2 590.509 624.220 4.645 0.828 o
1 -3 -1 64.497 65.189 3.494 10.825 o
1 -2 -18 1.714 2.333 2.423 27.844 o
1 -2 -17 42.505 43.833 3.362 12.793 o
1 -2 -16 0.107 0.404 1.091 137.883 o
1 -2 -15 63.498 65.532 2.363 19.287 o
1 -2 -14 22.455 22.699 1.727 45.917 o
1 -2 -13 48.508 49.891 1.919 29.457 o
1 -2 -12 34.409 32.211 1.595 45.487 o
1 -2 -11 191.211 190.204 2.696 6.046 o
1 -2 -10 83.566 80.153 2.514 15.230 o
1 -2 -9 7.364 8.007 2.019 38.896 o
1 -2 -8 165.399 166.415 2.878 6.950 o
1 -2 -7 151.269 147.442 2.484 8.656 o
1 -2 -6 181.380 181.339 2.504 6.736 o
1 -2 -5 596.618 628.865 4.786 0.809 o
1 -2 -4 1800.850 1960.050 18.630 0.084 o
1 -2 -3 18.800 20.932 3.231 15.041 o
1 -2 -2 2295.650 2540.460 19.791 0.054 o
1 -2 -1 211.765 225.081 4.766 3.439 o
1 -1 -19 6.355 4.938 2.827 20.289 o
1 -1 -18 2.415 3.716 3.534 13.113 o
1 -1 -17 0.174 1.080 1.545 68.672 o
1 -1 -16 2.644 2.050 1.676 57.658 o
1 -1 -15 36.709 38.178 2.019 30.906 o
1 -1 -14 21.721 20.427 1.686 48.394 o
1 -1 -13 131.600 135.305 2.615 9.591 o
1 -1 -12 84.953 84.485 2.373 15.922 o
1 -1 -11 25.927 23.345 1.565 52.268 o
1 -1 -10 82.740 81.557 2.514 15.241 o
1 -1 -9 816.958 842.748 9.360 0.395 o
1 -1 -8 161.511 158.600 2.736 7.475 o
1 -1 -7 591.920 598.220 4.594 0.849 o
1 -1 -6 1804.760 1839.650 20.296 0.084 o
1 -1 -5 101.079 111.667 1.474 18.424 o
1 -1 -4 374.961 393.939 8.563 1.121 o
1 -1 -3 1016.860 1113.370 12.985 0.237 o
1 -1 -2 3068.140 3313.190 20.033 0.033 o
1 -1 -1 240.234 254.949 3.827 3.545 o
1 0 1 140.601 147.705 3.373 7.107 o
1 0 2 415.340 516.794 10.643 0.769 o
1 0 3 493.560 503.072 9.825 0.752 o
1 0 4 1321.890 1336.700 17.953 0.142 o
1 0 5 669.069 684.785 5.321 0.659 o
1 0 6 310.348 312.645 4.059 2.482 o
1 0 7 17.234 17.347 1.202 88.335 o
1 0 8 170.527 162.578 2.605 7.298 o
1 0 9 131.447 127.742 2.716 9.493 o
1 0 10 11.519 10.441 0.919 151.880 o
1 0 11 4.175 2.827 1.050 140.598 o
1 0 12 71.560 72.237 2.019 21.572 o
1 0 13 66.342 62.614 2.070 22.532 o
1 0 14 6.111 5.584 1.555 64.983 o
1 0 15 80.188 80.860 2.524 15.421 o
1 0 17 5.353 3.837 2.625 23.552 o
1 0 18 10.225 8.815 2.474 26.010 o
1 1 0 484.910 431.552 5.059 1.227 o
1 1 1 121.548 140.404 3.534 7.436 o
1 1 2 111.246 116.251 3.272 8.925 o
1 1 3 25.478 28.616 3.474 12.826 o
1 1 4 1449.980 1555.300 20.346 0.113 o
1 1 5 702.130 688.359 3.837 0.655 o
1 1 6 195.115 192.113 3.766 4.733 o
1 1 7 863.082 888.600 7.300 0.393 o
1 1 8 260.666 273.639 4.463 2.902 o
1 1 9 118.181 116.039 1.888 13.882 o
1 1 10 133.079 128.237 1.919 11.918 o
1 1 11 149.326 146.715 2.413 8.930 o
1 1 12 7.064 6.291 1.292 91.245 o
1 1 13 85.216 79.032 2.221 17.350 o
1 1 14 23.202 21.386 1.737 45.445 o
1 1 15 1.512 0.141 0.677 345.970 o
1 1 16 4.914 3.686 1.979 41.118 o
1 1 17 4.489 2.656 2.817 20.539 o
1 1 18 1.675 0.808 3.625 12.492 o
1 2 0 1524.070 1826.820 12.793 0.117 o
1 2 1 301.800 333.850 6.281 1.835 o
1 2 2 5402.550 5898.890 27.950 0.011 o
1 2 3 468.091 482.524 3.898 1.303 o
1 2 4 89.212 87.544 1.919 18.794 o
1 2 5 156.113 152.400 2.837 7.597 o
1 2 6 650.839 664.014 5.372 0.691 o
1 2 7 135.902 132.548 2.181 10.722 o
1 2 8 160.467 159.882 2.575 7.794 o
1 2 9 137.970 137.395 1.767 11.640 o
1 2 10 3.791 2.878 1.030 146.442 o
1 2 11 90.193 88.907 1.999 17.922 o
1 2 12 28.241 28.232 1.575 49.720 o
1 2 13 133.469 130.923 2.989 8.560 o
1 2 14 28.515 28.000 1.828 39.427 o
1 2 15 44.475 44.146 2.484 21.086 o
1 2 16 3.830 2.979 2.474 26.594 o
1 2 17 0.078 -0.192 2.070 38.370 o
1 2 18 0.064 0.010 0.061 37188.800 o
1 3 0 2170.970 2521.660 17.872 0.059 o
1 3 1 331.518 323.429 3.484 2.439 o
1 3 2 990.154 1022.480 6.159 0.318 o
1 3 3 26.294 27.091 0.990 94.748 o
1 3 4 1266.540 1316.660 11.420 0.180 o
1 3 5 62.344 61.927 1.404 34.502 o
1 3 6 57.633 53.395 1.494 35.710 o
1 3 7 243.193 237.521 2.868 4.212 o
1 3 8 280.181 285.776 2.726 3.372 o
1 3 9 208.102 214.287 2.817 5.179 o
1 3 10 206.488 206.421 2.302 5.801 o
1 3 11 49.227 47.670 1.636 36.050 o
1 3 12 29.840 27.717 1.575 49.152 o
1 3 13 109.935 115.090 2.534 11.751 o
1 3 14 22.782 20.457 2.393 26.071 o
1 3 15 2.265 1.202 2.565 24.875 o
1 3 16 9.723 6.735 2.120 35.189 o
1 3 17 9.397 7.442 3.090 16.911 o
1 4 0 838.418 883.602 9.653 0.371 o
1 4 1 13.254 13.096 1.131 104.512 o
1 4 2 1626.160 1814.520 20.942 0.092 o
1 4 3 87.932 83.849 2.070 17.970 o
1 4 4 7.364 7.179 0.969 151.891 o
1 4 5 185.992 175.624 2.353 6.883 o
1 4 6 326.350 322.652 3.282 2.534 o
1 4 7 31.797 30.878 1.484 51.845 o
1 4 8 234.913 237.733 2.868 4.356 o
1 4 9 24.150 23.396 1.171 81.280 o
1 4 10 8.213 7.260 1.101 120.194 o
1 4 11 45.353 45.761 1.656 37.073 o
1 4 12 62.984 65.128 2.908 14.470 o
1 4 13 2.123 1.989 2.605 24.103 o
1 4 14 13.511 15.378 3.413 13.738 o
1 4 15 71.117 80.375 5.079 5.566 o
1 5 0 536.592 563.394 2.959 1.060 o
1 5 1 65.775 59.070 1.393 33.996 o
1 5 2 37.658 38.340 1.393 51.087 o
1 5 3 110.182 107.820 2.807 10.831 o
1 5 4 373.595 368.393 3.514 1.999 o
1 5 5 96.761 95.582 2.181 15.498 o
1 5 6 60.428 59.161 1.908 26.192 o
1 5 7 314.055 315.119 3.908 2.490 o
1 5 8 175.153 181.288 2.726 6.627 o
1 5 9 6.881 6.028 1.565 63.822 o
1 5 10 115.984 113.798 3.241 8.883 o
1 5 11 8.287 8.118 1.807 47.920 o
1 5 12 5.188 5.483 1.868 45.829 o
1 5 13 52.807 52.224 4.382 7.707 o
1 6 0 215.823 222.062 2.221 5.408 o
1 6 1 140.619 140.677 1.666 11.584 o
1 6 2 601.434 615.971 5.018 0.803 o
1 6 3 201.425 200.161 4.382 3.998 o
1 6 4 9.388 10.158 1.848 45.504 o
1 6 5 155.037 147.452 2.868 7.669 o
1 6 6 205.539 203.796 3.524 4.678 o
1 6 7 23.114 21.831 1.383 65.277 o
1 6 8 146.892 153.743 2.736 8.145 o
1 6 9 176.031 180.390 3.877 5.065 o
1 6 10 9.376 6.674 1.898 43.570 o
1 6 11 12.073 11.693 1.999 38.631 o
1 6 12 8.423 6.684 2.181 33.474 o
1 6 13 4.869 5.049 3.393 14.174 o
1 7 0 442.699 466.318 4.039 1.400 o
1 7 1 239.079 244.811 2.423 4.491 o
1 7 2 46.616 44.782 1.222 51.128 o
1 7 3 152.137 148.926 4.382 5.107 o
1 7 4 82.046 83.889 3.625 9.323 o
1 7 5 56.855 57.848 2.292 21.379 o
1 7 6 16.384 15.055 1.393 70.958 o
1 7 7 127.826 127.580 2.585 10.093 o
1 7 8 75.675 71.681 2.191 19.210 o
1 7 9 40.649 40.299 2.524 21.113 o
1 7 10 99.297 102.246 3.403 9.212 o
1 7 11 54.946 54.657 2.918 15.233 o
1 7 12 7.204 7.785 2.242 31.806 o
1 7 13 41.494 43.378 4.201 8.588 o
1 8 0 174.300 181.511 2.322 7.248 o
1 8 1 114.686 120.068 1.979 13.619 o
1 8 2 306.270 311.565 3.029 2.834 o
1 8 3 19.762 17.580 1.636 52.175 o
1 8 4 22.042 21.831 1.908 38.956 o
1 8 5 3.980 4.776 1.666 57.638 o
1 8 6 100.088 102.125 3.140 10.159 o
1 8 7 15.460 16.671 1.939 39.797 o
1 8 8 141.444 149.835 3.787 6.255 o
1 8 9 51.197 53.304 2.777 16.786 o
1 8 10 19.028 16.863 2.353 27.467 o
1 8 11 39.897 42.217 2.888 16.843 o
1 8 12 3.382 1.969 4.009 10.200 o
1 8 13 12.611 12.844 3.706 11.735 o
1 9 0 106.679 112.616 2.464 12.376 o
1 9 1 4.717 4.049 1.333 88.471 o
1 9 2 19.074 19.246 1.868 41.434 o
1 9 3 22.296 17.913 1.484 59.983 o
1 9 4 168.549 168.243 3.110 6.445 o
1 9 5 1.185 0.606 0.919 191.020 o
1 9 6 31.582 32.261 2.413 24.157 o
1 9 7 78.697 87.635 3.272 10.883 o
1 9 8 59.324 62.957 2.979 14.241 o
1 9 9 12.347 11.400 3.110 16.553 o
1 9 10 31.146 27.344 3.908 10.171 o
1 9 11 24.038 21.942 3.807 10.875 o
1 9 12 21.631 22.598 4.120 9.369 o
1 9 13 15.346 11.026 4.705 7.323 o
1 10 0 8.796 8.391 1.898 43.518 o
1 10 1 11.412 9.724 2.030 37.807 o
1 10 2 149.385 150.209 3.787 6.065 o
1 10 3 39.177 38.653 2.625 19.987 o
1 10 4 48.985 50.386 2.847 16.379 o
1 10 5 34.110 35.078 2.625 20.559 o
1 10 6 65.756 68.248 3.181 12.415 o
1 10 7 17.059 17.983 2.413 26.332 o
1 10 8 45.107 47.730 3.039 15.004 o
1 10 9 32.883 35.422 4.281 8.475 o
1 10 10 20.835 20.599 4.019 9.855 o
1 10 12 1.912 0.838 9.017 2.022 o
1 11 0 10.169 10.017 2.090 35.903 o
1 11 1 50.265 50.638 2.868 16.100 o
1 11 2 3.534 0.737 0.505 547.790 o
1 11 3 1.567 1.464 2.292 31.145 o
1 11 4 39.449 38.330 2.847 17.407 o
1 11 5 47.011 51.921 3.191 13.632 o
1 11 6 12.655 14.086 2.585 23.577 o
1 11 7 33.631 34.059 2.948 16.835 o
1 11 8 14.134 15.197 2.545 24.159 o
1 11 9 3.062 3.524 3.615 12.529 o
1 11 10 19.763 19.498 4.110 9.458 o
1 11 11 11.842 11.632 4.322 8.686 o
1 12 0 37.576 35.987 2.858 17.493 o
1 12 1 19.208 18.963 2.080 34.218 o
1 12 2 51.036 53.183 2.595 18.664 o
1 12 3 25.264 24.910 2.807 19.167 o
1 12 4 3.858 3.857 2.413 27.902 o
1 12 5 0.309 1.636 2.272 31.781 o
1 12 6 5.008 5.321 2.868 19.768 o
1 12 7 5.022 5.210 2.898 19.363 o
1 12 8 5.350 3.756 3.867 10.930 o
1 12 9 1.427 1.363 325.479 0.002 o
1 13 0 40.766 41.016 2.545 20.795 o
1 13 1 1.771 0.899 2.454 27.200 o
1 13 2 4.505 3.635 2.605 23.959 o
1 13 3 4.079 4.715 2.999 18.127 o
1 13 4 53.679 66.047 3.766 9.867 o
1 13 5 8.239 8.653 3.049 17.369 o
1 13 6 0.710 -0.636 1.908 45.054 o
1 14 0 2.580 2.696 4.019 10.153 o
1 14 1 20.587 20.730 3.100 16.216 o
2 -11 -12 1.834 -0.192 3.393 14.260 o
2 -11 -11 20.061 19.831 4.261 8.810 o
2 -11 -10 33.681 40.480 4.604 7.347 o
2 -11 -9 3.321 3.675 3.261 15.370 o
2 -11 -8 12.363 11.925 3.615 12.332 o
2 -11 -7 47.867 50.719 4.564 7.237 o
2 -11 -5 1.788 2.100 3.908 10.746 o
2 -11 -4 28.259 29.414 3.504 12.533 o
2 -10 -13 8.226 6.089 3.463 13.542 o
2 -10 -12 3.536 -0.242 13.470 0.906 o
2 -10 -11 12.680 10.421 3.655 12.073 o
2 -10 -10 8.217 7.058 3.564 12.787 o
2 -10 -9 27.290 29.222 3.938 10.075 o
2 -10 -8 27.622 26.284 2.555 22.502 o
2 -10 -7 12.028 9.936 2.141 34.078 o
2 -10 -6 31.270 32.928 2.514 22.510 o
2 -10 -5 42.104 41.662 2.635 19.486 o
2 -9 -13 52.905 56.636 4.685 6.800 o
2 -9 -12 7.268 5.957 3.150 16.350 o
2 -9 -11 5.330 5.372 3.837 11.094 o
2 -9 -10 10.017 6.412 2.353 28.778 o
2 -9 -9 20.863 17.226 2.343 27.477 o
2 -9 -8 92.695 98.217 3.453 9.350 o
2 -9 -7 63.623 65.906 2.918 14.331 o
2 -9 -6 18.973 18.054 2.060 34.938 o
2 -9 -5 66.959 69.036 2.858 14.454 o
2 -9 -4 184.324 180.986 5.927 3.067 o
2 -9 -3 15.075 15.621 2.928 18.415 o
2 -9 -1 64.845 61.523 3.837 9.326 o
2 -8 -15 50.187 51.194 4.897 6.329 o
2 -8 -14 5.412 1.515 3.908 10.716 o
2 -8 -13 24.612 23.911 2.625 21.745 o
2 -8 -12 3.483 1.252 1.696 56.208 o
2 -8 -11 50.180 49.396 2.868 16.147 o
2 -8 -10 63.662 66.158 3.039 13.473 o
2 -8 -9 29.195 29.070 2.343 25.884 o
2 -8 -8 65.357 63.169 2.787 15.305 o
2 -8 -7 7.739 6.382 1.797 48.751 o
2 -8 -6 93.769 89.190 2.938 11.695 o
2 -8 -5 5.448 4.917 1.636 59.278 o
2 -8 -4 3.423 4.059 2.484 26.373 o
2 -8 -3 59.843 57.010 3.474 11.245 o
2 -8 -2 173.413 170.303 3.595 5.584 o
2 -8 -1 5.111 2.716 2.888 19.534 o
2 -7 -15 7.896 9.007 3.686 11.960 o
2 -7 -14 3.023 1.848 2.333 29.972 o
2 -7 -13 23.631 19.458 3.474 12.995 o
2 -7 -12 23.439 23.961 2.009 35.152 o
2 -7 -11 55.049 52.517 2.252 22.506 o
2 -7 -10 35.587 31.625 1.888 35.263 o
2 -7 -9 99.019 100.651 3.160 10.161 o
2 -7 -8 77.847 78.335 2.777 13.951 o
2 -7 -7 176.252 176.361 3.655 5.378 o
2 -7 -6 158.287 158.024 3.696 5.918 o
2 -7 -5 36.876 35.805 1.949 32.849 o
2 -7 -4 281.642 278.304 5.685 2.246 o
2 -7 -3 26.488 25.425 2.484 23.800 o
2 -7 -2 47.784 49.285 2.060 26.945 o
2 -7 -1 153.654 153.349 4.059 5.507 o
2 -6 -17 1.909 1.919 3.282 15.223 o
2 -6 -16 2.700 2.221 2.908 19.343 o
2 -6 -15 21.371 20.467 2.767 20.051 o
2 -6 -14 8.587 7.634 2.322 29.580 o
2 -6 -13 64.683 65.168 3.160 12.666 o
2 -6 -12 0.401 1.060 1.505 72.319 o
2 -6 -11 19.115 19.023 1.474 62.032 o
2 -6 -10 14.615 11.925 1.303 81.976 o
2 -6 -9 222.922 224.546 2.918 4.670 o
2 -6 -8 131.111 130.791 2.110 11.335 o
2 -6 -7 3.126 2.484 1.030 147.892 o
2 -6 -6 276.455 265.188 5.483 2.389 o
2 -6 -5 174.261 171.676 4.382 4.579 o
2 -6 -4 120.240 125.389 3.665 7.379 o
2 -6 -3 135.107 134.568 3.484 7.233 o
2 -6 -2 637.994 669.447 6.674 0.659 o
2 -6 -1 354.575 360.971 4.877 1.861 o
2 -5 -18 5.240 6.260 3.352 14.497 o
2 -5 -17 17.602 20.972 3.110 16.221 o
2 -5 -16 0.308 -0.111 0.535 567.525 o
2 -5 -15 4.938 4.736 2.322 29.988 o
2 -5 -14 15.293 17.075 2.555 23.831 o
2 -5 -13 32.024 29.989 2.545 22.112 o
2 -5 -12 23.683 25.112 2.242 28.919 o
2 -5 -11 45.786 44.408 1.686 36.321 o
2 -5 -10 61.958 59.433 1.737 28.684 o
2 -5 -9 60.196 57.565 1.605 31.838 o
2 -5 -8 69.275 67.915 2.221 19.959 o
2 -5 -7 527.944 540.059 6.725 0.891 o
2 -5 -6 142.615 139.617 2.514 9.195 o
2 -5 -5 54.259 54.667 1.656 32.947 o
2 -5 -4 956.813 987.383 8.290 0.318 o
2 -5 -3 523.636 528.023 5.735 0.974 o
2 -5 -2 26.587 26.183 1.908 37.423 o
2 -5 -1 23.803 23.123 1.646 49.118 o
2 -4 -18 8.887 8.179 3.433 13.748 o
2 -4 -17 0.397 1.868 3.150 16.544 o
2 -4 -16 0.651 -0.333 2.595 24.392 o
2 -4 -15 91.952 95.885 3.100 10.861 o
2 -4 -14 0.248 0.131 1.494 73.518 o
2 -4 -13 61.994 60.827 2.403 19.284 o
2 -4 -12 4.573 2.847 1.444 76.231 o
2 -4 -11 49.761 51.133 1.555 37.397 o
2 -4 -10 42.481 41.268 1.363 48.967 o
2 -4 -9 197.720 191.689 2.464 6.104 o
2 -4 -8 124.993 124.693 2.847 9.483 o
2 -4 -7 18.778 19.195 1.424 65.804 o
2 -4 -6 345.344 338.929 4.180 2.123 o
2 -4 -5 145.897 144.665 2.393 9.204 o
2 -4 -4 211.472 218.629 3.494 4.468 o
2 -4 -3 59.576 61.140 2.090 23.452 o
2 -4 -2 887.193 919.064 6.684 0.381 o
2 -4 -1 323.062 329.407 3.938 2.361 o
2 -3 -18 1.530 1.828 2.635 23.582 o
2 -3 -17 23.986 24.224 3.049 16.516 o
2 -3 -16 8.224 7.058 2.403 27.727 o
2 -3 -15 9.779 10.077 1.979 39.893 o
2 -3 -14 1.910 1.232 2.948 18.853 o
2 -3 -13 84.768 88.039 2.302 16.284 o
2 -3 -12 75.695 74.529 2.030 20.658 o
2 -3 -11 206.582 210.329 3.251 4.851 o
2 -3 -10 36.601 36.270 1.626 42.717 o
2 -3 -9 106.978 105.619 2.676 11.638 o
2 -3 -8 160.118 153.167 2.878 7.359 o
2 -3 -7 704.459 706.979 5.483 0.606 o
2 -3 -6 36.010 36.633 1.151 65.303 o
2 -3 -5 54.842 53.042 1.212 44.362 o
2 -3 -4 802.001 836.932 5.210 0.475 o
2 -3 -3 97.364 98.692 2.131 15.594 o
2 -3 -2 197.310 205.007 2.878 5.485 o
2 -3 -1 1018.270 1046.430 6.069 0.304 o
2 -2 -19 15.287 15.661 3.171 15.793 o
2 -2 -18 1.676 2.403 3.110 16.944 o
2 -2 -17 3.554 4.059 2.120 36.037 o
2 -2 -16 3.122 3.675 1.807 49.448 o
2 -2 -15 61.898 64.512 2.716 16.097 o
2 -2 -14 15.327 14.056 1.595 56.911 o
2 -2 -13 131.601 132.437 2.585 9.755 o
2 -2 -12 50.264 49.679 2.009 27.373 o
2 -2 -11 28.233 25.971 1.555 51.191 o
2 -2 -10 0.772 1.222 1.020 155.805 o
2 -2 -9 468.942 468.478 4.998 1.226 o
2 -2 -8 64.513 63.947 1.636 29.207 o
2 -2 -7 57.346 55.717 1.151 44.009 o
2 -2 -6 367.570 373.311 2.454 2.190 o
2 -2 -5 325.591 331.497 2.464 2.697 o
2 -2 -4 394.263 411.267 3.292 1.802 o
2 -2 -3 174.773 172.453 5.675 3.355 o
2 -2 -2 4471.850 4966.220 23.426 0.016 o
2 -2 -1 147.593 148.119 4.352 5.233 o
2 -1 -19 1.863 2.464 3.049 17.616 o
2 -1 -18 12.371 12.036 2.413 26.992 o
2 -1 -17 27.054 27.031 2.433 24.550 o
2 -1 -16 21.178 21.921 2.211 30.176 o
2 -1 -15 11.846 12.127 1.888 42.994 o
2 -1 -14 53.393 59.847 2.433 19.938 o
2 -1 -13 146.481 155.288 3.938 5.822 o
2 -1 -12 9.949 9.522 1.464 70.063 o
2 -1 -11 75.845 78.689 2.656 14.919 o
2 -1 -10 382.870 390.325 3.877 1.829 o
2 -1 -9 22.692 23.537 1.575 53.089 o
2 -1 -8 379.163 376.219 4.291 1.814 o
2 -1 -7 433.209 438.893 3.292 1.561 o
2 -1 -6 50.516 51.870 1.202 47.388 o
2 -1 -5 51.866 55.990 1.111 48.276 o
2 -1 -4 1842.580 1988.580 20.892 0.078 o
2 -1 -3 888.004 941.571 10.421 0.327 o
2 -1 -2 1669.970 1774.140 14.490 0.104 o
2 -1 -1 929.074 988.352 8.199 0.330 o
2 0 0 5725.780 6159.890 43.308 0.009 o
2 0 1 9.434 9.986 1.525 65.167 o
2 0 2 700.859 811.123 10.835 0.432 o
2 0 3 311.935 299.458 10.612 1.019 o
2 0 4 1640.490 1661.730 18.599 0.101 o
2 0 5 248.891 245.326 2.575 4.217 o
2 0 6 55.850 54.566 1.515 35.658 o
2 0 7 13.062 11.794 1.141 104.041 o
2 0 8 423.996 416.002 4.372 1.523 o
2 0 9 21.856 19.256 1.131 90.220 o
2 0 10 56.830 54.334 1.464 36.541 o
2 0 11 105.549 104.538 1.807 16.302 o
2 0 12 10.840 9.875 1.262 90.617 o
2 0 13 18.852 17.287 1.646 52.017 o
2 0 14 0.781 0.010 0.545 537.500 o
2 0 15 28.124 24.910 2.282 27.479 o
2 0 16 0.003 0.050 1.141 126.277 o
2 0 17 49.634 53.991 2.534 19.444 o
2 0 18 0.603 0.030 0.505 628.460 o
2 1 0 3453.880 3742.120 21.528 0.026 o
2 1 1 456.864 470.548 7.008 1.061 o
2 1 2 999.424 1095.040 12.440 0.248 o
2 1 3 93.984 90.846 5.372 4.787 o
2 1 4 310.524 318.714 2.726 2.842 o
2 1 5 12.333 11.259 0.878 159.336 o
2 1 6 591.961 586.789 4.160 0.875 o
2 1 7 224.960 216.801 2.888 4.730 o
2 1 8 74.305 75.357 2.050 20.589 o
2 1 9 245.237 240.227 2.807 4.190 o
2 1 10 89.610 87.474 1.696 20.632 o
2 1 11 26.065 25.405 1.282 69.326 o
2 1 12 25.343 23.426 1.272 71.464 o
2 1 13 23.666 21.366 1.686 47.568 o
2 1 14 8.955 7.472 1.706 53.351 o
2 1 15 60.981 62.018 2.757 15.918 o
2 1 16 6.337 4.877 2.716 21.959 o
2 1 17 4.309 3.948 2.161 34.653 o
2 2 0 1932.330 2149.480 14.369 0.078 o
2 2 1 11.316 11.370 2.494 25.442 o
2 2 2 1139.090 1199.300 12.026 0.210 o
2 2 3 155.515 146.856 1.818 9.941 o
2 2 4 585.958 593.858 3.918 0.889 o
2 2 5 128.970 124.380 1.343 14.458 o
2 2 6 2.591 2.403 0.606 400.116 o
2 2 7 16.290 13.985 0.939 132.115 o
2 2 8 51.832 50.568 1.767 31.764 o
2 2 9 124.501 122.269 1.999 12.572 o
2 2 10 58.934 57.596 1.484 34.752 o
2 2 11 64.447 60.796 1.616 29.995 o
2 2 12 0.370 -0.081 0.293 1831.820 o
2 2 13 27.154 24.678 1.959 35.870 o
2 2 14 1.491 1.282 2.635 23.594 o
2 2 15 33.151 30.454 2.373 24.788 o
2 2 16 1.441 0.111 0.949 179.219 o
2 2 17 54.064 60.312 2.565 18.384 o
2 3 0 388.926 424.141 8.977 1.020 o
2 3 1 656.935 672.476 3.938 0.719 o
2 3 2 317.357 328.418 2.797 2.711 o
2 3 3 38.311 35.411 1.111 66.219 o
2 3 4 79.902 76.538 1.585 24.699 o
2 3 5 326.813 317.795 2.504 2.742 o
2 3 6 303.986 302.386 2.272 3.124 o
2 3 7 228.061 228.928 2.131 5.085 o
2 3 8 8.871 7.361 0.909 165.465 o
2 3 9 298.105 296.732 2.656 3.113 o
2 3 10 67.453 64.502 1.545 29.868 o
2 3 11 17.952 13.854 1.585 56.527 o
2 3 12 83.896 86.252 2.545 14.734 o
2 3 13 101.639 104.023 2.918 10.945 o
2 3 14 4.652 3.938 2.161 34.620 o
2 3 15 38.545 38.915 2.484 21.961 o
2 3 16 2.771 1.605 7.250 3.126 o
2 3 17 1.685 -0.061 1.202 112.427 o
2 4 0 148.081 149.674 1.656 10.708 o
2 4 1 350.502 344.977 4.281 2.051 o
2 4 2 314.807 318.148 3.120 2.697 o
2 4 3 320.045 321.440 3.191 2.617 o
2 4 4 929.403 917.610 5.634 0.372 o
2 4 5 5.714 4.554 0.798 223.495 o
2 4 6 176.807 171.736 2.100 7.677 o
2 4 7 278.117 269.590 2.545 3.578 o
2 4 8 188.340 193.042 2.333 6.530 o
2 4 9 4.419 4.170 1.222 104.624 o
2 4 10 63.173 62.806 2.040 23.428 o
2 4 11 287.609 296.813 4.938 2.413 o
2 4 12 18.176 17.307 2.211 30.865 o
2 4 13 0.545 0.131 1.343 90.839 o
2 4 14 3.878 3.504 2.868 19.834 o
2 4 16 5.790 4.130 3.635 12.353 o
2 4 17 10.421 9.784 3.201 15.722 o
2 5 0 253.343 257.938 1.969 4.324 o
2 5 1 14.423 12.803 1.010 123.304 o
2 5 2 306.770 301.710 4.756 2.330 o
2 5 3 96.730 93.078 1.959 17.128 o
2 5 4 5.522 4.615 1.151 115.621 o
2 5 5 93.786 89.917 2.242 15.695 o
2 5 6 404.858 399.695 4.524 1.611 o
2 5 7 98.370 96.440 2.100 15.799 o
2 5 8 9.247 7.947 1.222 98.379 o
2 5 9 215.963 216.963 4.180 3.860 o
2 5 10 156.177 160.488 3.847 5.703 o
2 5 11 1.145 1.757 1.807 49.988 o
2 5 12 40.984 44.701 4.079 9.060 o
2 5 13 105.418 118.069 5.776 4.041 o
2 5 16 10.312 8.401 2.948 18.490 o
2 6 0 110.783 112.020 1.515 16.763 o
2 6 1 66.888 67.117 1.292 34.061 o
2 6 2 330.527 336.293 5.483 1.901 o
2 6 3 23.567 20.730 1.474 59.228 o
2 6 4 874.584 860.600 6.493 0.405 o
2 6 5 50.931 49.861 2.019 27.047 o
2 6 6 40.183 39.158 1.616 41.221 o
2 6 7 11.283 10.007 1.343 80.847 o
2 6 8 95.354 95.683 2.373 14.438 o
2 6 9 39.288 38.047 2.383 23.468 o
2 6 10 72.839 74.054 3.029 12.805 o
2 6 11 48.964 51.143 2.847 16.355 o
2 6 12 4.784 2.595 2.989 18.258 o
2 6 13 4.744 5.321 3.352 14.514 o
2 6 14 19.497 18.357 3.847 10.762 o
2 6 15 13.649 10.410 4.049 9.863 o
2 6 16 2.318 -0.687 2.898 19.519 o
2 7 0 116.184 117.665 1.565 15.468 o
2 7 1 4.359 3.655 0.939 171.912 o
2 7 2 369.641 364.607 3.554 2.026 o
2 7 3 56.554 52.517 2.131 24.032 o
2 7 4 74.587 74.024 2.464 16.722 o
2 7 5 10.813 9.360 1.343 81.397 o
2 7 6 141.799 142.030 2.858 8.319 o
2 7 7 32.605 31.908 1.777 39.461 o
2 7 8 58.652 61.806 2.191 22.174 o
2 7 9 28.383 25.748 2.333 26.370 o
2 7 10 31.088 32.120 2.575 21.649 o
2 7 11 12.947 11.895 2.282 29.979 o
2 7 12 56.325 59.453 3.231 12.756 o
2 7 13 40.819 43.489 4.554 7.401 o
2 8 0 87.768 84.626 2.070 17.942 o
2 8 1 58.476 56.263 1.797 28.816 o
2 8 2 166.367 156.338 3.342 6.302 o
2 8 3 62.335 63.725 1.686 28.933 o
2 8 4 297.587 296.712 3.787 2.741 o
2 8 5 28.712 29.989 2.120 30.674 o
2 8 6 42.006 42.025 2.393 22.765 o
2 8 7 16.844 17.357 1.717 48.997 o
2 8 8 26.185 27.838 1.888 37.986 o
2 8 9 15.145 15.994 2.262 30.030 o
2 8 10 10.824 6.997 2.383 27.987 o
2 8 11 28.466 27.586 2.696 20.322 o
2 8 12 6.895 6.422 2.494 25.894 o
2 9 0 163.540 163.244 2.918 6.995 o
2 9 1 91.722 92.583 2.373 14.903 o
2 9 2 44.990 42.328 1.636 38.337 o
2 9 3 20.491 19.175 1.373 68.615 o
2 9 4 50.121 48.740 2.080 26.222 o
2 9 5 53.343 58.292 2.817 16.082 o
2 9 6 50.830 52.860 2.797 16.637 o
2 9 7 37.413 36.866 2.555 21.163 o
2 9 8 0.519 0.697 0.990 166.313 o
2 9 9 44.234 50.840 4.382 7.848 o
2 9 10 25.275 23.426 3.817 10.784 o
2 9 11 8.680 6.038 2.474 26.207 o
2 9 12 14.296 13.288 3.706 11.705 o
2 10 0 53.151 50.356 2.676 17.746 o
2 10 1 30.506 28.848 1.908 36.204 o
2 10 2 111.895 113.141 2.908 10.210 o
2 10 3 100.304 105.265 3.130 10.117 o
2 10 4 89.274 94.976 3.524 9.271 o
2 10 5 13.571 13.773 1.797 46.486 o
2 10 6 15.653 14.863 1.838 44.014 o
2 10 7 4.641 3.766 1.727 53.728 o
2 10 8 28.872 29.949 2.777 19.167 o
2 10 9 10.396 8.027 3.776 11.372 o
2 10 10 9.693 11.178 3.645 12.180 o
2 10 11 3.449 2.585 5.170 6.140 o
2 11 0 47.977 49.316 2.363 22.069 o
2 11 1 48.335 51.749 2.403 21.334 o
2 11 2 67.124 70.480 3.342 11.397 o
2 11 3 9.010 5.382 2.262 31.201 o
2 11 4 29.304 29.272 2.767 19.287 o
2 11 5 8.860 6.957 2.403 27.684 o
2 11 6 72.509 81.930 3.726 9.263 o
2 11 7 5.405 3.554 2.565 24.668 o
2 11 8 3.947 3.342 3.514 13.245 o
2 11 9 13.134 13.965 3.988 10.145 o
2 11 10 14.068 15.459 4.059 9.782 o
2 12 0 35.465 35.179 2.353 24.593 o
2 12 1 7.943 5.008 2.009 39.406 o
2 12 2 13.602 11.339 2.131 34.089 o
2 12 3 36.240 35.947 3.100 15.228 o
2 12 4 52.767 55.515 3.484 11.469 o
2 12 5 4.727 3.494 3.211 15.828 o
2 12 6 8.951 8.502 2.585 23.969 o
2 12 7 5.369 3.504 3.181 16.115 o
2 12 8 22.930 27.788 4.554 7.679 o
2 13 0 18.933 18.468 2.333 27.834 o
2 13 1 11.989 13.278 2.312 29.263 o
2 13 2 0.401 1.404 3.887 10.872 o
2 13 3 0.501 0.212 1.353 89.496 o
2 13 4 4.858 3.544 3.393 14.186 o
2 13 5 21.997 23.093 3.009 17.044 o
2 13 6 9.833 10.451 3.332 14.536 o
3 -12 -5 21.591 19.569 3.645 11.891 o
3 -12 -4 76.919 80.708 5.140 5.390 o
3 -11 -8 16.157 13.742 3.938 10.364 o
3 -11 -7 16.288 14.177 3.625 12.176 o
3 -11 -6 73.918 75.650 4.816 6.097 o
3 -11 -5 42.133 43.338 4.009 9.346 o
3 -11 -4 9.456 8.361 3.130 16.471 o
3 -10 -12 24.265 26.213 4.019 9.764 o
3 -10 -11 16.942 13.682 3.807 11.063 o
3 -10 -10 3.056 3.494 2.595 24.215 o
3 -10 -9 46.600 45.721 3.039 14.978 o
3 -10 -8 13.833 12.682 2.343 28.404 o
3 -10 -7 22.408 19.609 2.383 26.353 o
3 -10 -6 45.393 43.439 3.837 10.043 o
3 -10 -5 13.074 11.067 2.948 18.341 o
3 -10 -1 8.196 8.149 2.999 17.957 o
3 -9 -12 2.999 1.696 2.353 29.470 o
3 -9 -11 57.577 62.069 3.261 12.451 o
3 -9 -10 3.100 3.504 2.201 33.540 o
3 -9 -9 41.211 39.087 2.716 18.703 o
3 -9 -8 55.637 54.253 2.908 15.286 o
3 -9 -7 62.679 59.534 2.898 14.745 o
3 -9 -6 48.164 49.164 2.706 17.882 o
3 -9 -5 109.306 111.798 3.484 8.422 o
3 -9 -2 120.150 114.262 4.715 5.373 o
3 -9 -1 39.571 36.300 3.332 13.249 o
3 -8 -16 0.671 -0.071 0.969 173.644 o
3 -8 -15 24.721 21.730 4.160 9.160 o
3 -8 -13 27.417 24.961 3.827 10.675 o
3 -8 -12 2.174 1.050 2.847 20.204 o
3 -8 -11 48.137 49.346 2.878 16.190 o
3 -8 -10 15.003 13.036 2.242 30.722 o
3 -8 -9 6.847 5.291 1.908 43.698 o
3 -8 -8 0.195 -0.444 1.626 62.170 o
3 -8 -7 204.303 206.401 4.281 4.004 o
3 -8 -6 71.732 66.380 2.716 15.265 o
3 -8 -5 80.236 80.719 2.847 13.264 o
3 -8 -4 102.795 106.800 4.453 6.199 o
3 -8 -3 128.941 136.608 4.968 4.725 o
3 -8 -2 137.755 136.547 3.352 7.413 o
3 -8 -1 51.372 48.154 2.363 21.731 o
3 -7 -16 0.452 0.111 6.594 3.782 o
3 -7 -15 15.938 17.933 3.787 11.160 o
3 -7 -14 0.888 0.525 4.261 9.050 o
3 -7 -13 10.744 9.946 2.343 28.807 o
3 -7 -12 33.587 30.858 2.575 21.488 o
3 -7 -11 46.650 45.650 2.161 25.649 o
3 -7 -10 0.166 -0.111 2.555 25.189 o
3 -7 -9 139.203 137.395 3.574 6.880 o
3 -7 -8 97.029 97.258 3.060 10.754 o
3 -7 -7 126.443 129.146 3.282 8.090 o
3 -7 -6 41.765 42.762 2.171 26.462 o
3 -7 -5 481.250 506.687 5.735 1.084 o
3 -7 -4 111.166 113.010 2.948 10.101 o
3 -7 -3 49.039 47.660 2.151 25.285 o
3 -7 -2 365.900 365.667 6.139 1.559 o
3 -7 -1 59.303 58.949 3.100 13.493 o
3 -6 -17 17.483 17.055 3.322 14.354 o
3 -6 -16 16.449 16.166 3.060 16.867 o
3 -6 -15 23.316 22.628 2.757 20.006 o
3 -6 -14 1.898 0.586 1.535 69.083 o
3 -6 -13 193.496 215.589 4.766 3.686 o
3 -6 -12 8.468 6.583 1.605 60.167 o
3 -6 -11 76.465 77.730 2.413 16.777 o
3 -6 -10 80.013 78.962 1.969 20.300 o
3 -6 -9 84.756 83.011 1.868 20.232 o
3 -6 -8 8.341 6.664 1.222 99.850 o
3 -6 -7 95.198 91.210 2.646 13.059 o
3 -6 -6 42.775 40.854 1.969 30.564 o
3 -6 -5 16.070 17.055 2.252 30.116 o
3 -6 -4 49.130 48.558 2.807 16.815 o
3 -6 -3 56.305 52.193 2.746 16.732 o
3 -6 -2 126.451 126.066 3.292 8.118 o
3 -6 -1 82.322 74.801 2.827 13.445 o
3 -5 -18 0.869 0.040 0.061 12241.800 o
3 -5 -17 4.260 5.867 3.110 16.847 o
3 -5 -16 5.724 6.119 2.534 25.166 o
3 -5 -15 58.570 58.868 3.342 11.992 o
3 -5 -14 3.747 2.959 2.242 32.325 o
3 -5 -13 2.170 1.181 1.646 60.007 o
3 -5 -12 5.694 4.816 1.565 64.472 o
3 -5 -11 295.375 300.781 4.261 2.578 o
3 -5 -10 13.845 14.217 1.484 65.260 o
3 -5 -9 37.564 37.835 1.616 42.431 o
3 -5 -8 40.381 37.169 1.807 35.609 o
3 -5 -7 133.744 131.801 2.221 10.763 o
3 -5 -6 33.844 35.351 1.706 40.969 o
3 -5 -5 188.165 184.257 2.383 6.619 o
3 -5 -4 9.292 9.815 1.807 47.503 o
3 -5 -3 430.891 449.586 5.594 1.298 o
3 -5 -2 813.846 830.025 7.442 0.434 o
3 -5 -1 145.457 145.877 2.918 7.955 o
3 -4 -18 2.127 2.767 4.604 7.741 o
3 -4 -17 15.461 14.197 3.009 17.489 o
3 -4 -16 12.125 11.723 2.635 22.819 o
3 -4 -15 18.998 17.297 2.625 22.379 o
3 -4 -14 2.088 0.030 0.151 3531.500 o
3 -4 -13 190.981 199.747 3.736 4.770 o
3 -4 -12 10.832 10.037 1.605 58.719 o
3 -4 -11 56.374 56.091 2.100 24.230 o
3 -4 -10 7.478 6.069 1.333 85.968 o
3 -4 -9 78.382 76.690 2.019 20.207 o
3 -4 -8 99.432 100.065 2.070 15.679 o
3 -4 -7 129.252 128.782 2.161 11.370 o
3 -4 -6 85.535 83.606 1.696 21.684 o
3 -4 -5 49.595 48.266 1.616 36.356 o
3 -4 -4 170.167 181.945 3.383 5.817 o
3 -4 -3 135.412 133.982 2.868 8.736 o
3 -4 -2 57.875 58.595 2.100 23.785 o
3 -4 -1 41.800 41.329 1.868 33.115 o
3 -3 -19 4.473 4.675 3.352 14.525 o
3 -3 -18 22.008 24.658 3.201 15.143 o
3 -3 -17 24.005 28.222 3.080 16.130 o
3 -3 -16 6.014 4.120 2.070 37.497 o
3 -3 -15 45.336 45.994 2.504 20.637 o
3 -3 -14 5.895 4.625 1.777 50.430 o
3 -3 -13 16.407 15.812 2.141 33.110 o
3 -3 -12 32.411 29.454 1.797 39.189 o
3 -3 -11 136.805 138.334 2.353 9.982 o
3 -3 -10 22.364 22.154 1.474 59.487 o
3 -3 -9 179.735 177.229 3.393 5.632 o
3 -3 -8 334.018 336.344 3.029 2.477 o
3 -3 -7 85.024 83.637 1.464 24.117 o
3 -3 -6 239.401 246.881 2.171 4.610 o
3 -3 -5 868.751 880.452 4.675 0.424 o
3 -3 -4 480.634 488.451 2.969 1.320 o
3 -3 -3 1.053 1.474 0.666 354.293 o
3 -3 -2 907.196 960.019 7.179 0.356 o
3 -3 -1 679.560 695.690 5.049 0.649 o
3 -2 -19 20.331 21.679 3.110 16.108 o
3 -2 -18 3.312 1.454 1.787 50.733 o
3 -2 -17 39.912 43.116 2.706 18.765 o
3 -2 -16 16.925 17.640 2.120 33.486 o
3 -2 -15 15.050 13.399 1.969 39.068 o
3 -2 -14 32.966 31.756 2.534 22.099 o
3 -2 -13 185.208 193.042 4.413 4.236 o
3 -2 -12 22.359 20.750 2.009 35.660 o
3 -2 -11 54.422 53.375 2.353 21.184 o
3 -2 -10 18.255 17.852 1.161 91.673 o
3 -2 -9 123.174 121.522 2.292 11.589 o
3 -2 -8 124.683 122.582 1.686 13.754 o
3 -2 -7 692.122 695.589 3.756 0.665 o
3 -2 -6 811.024 816.515 3.564 0.496 o
3 -2 -5 71.893 73.832 1.131 33.655 o
3 -2 -4 287.944 300.690 2.242 3.341 o
3 -2 -3 151.553 164.567 2.413 8.398 o
3 -2 -2 2252.620 2393.800 18.357 0.058 o
3 -2 -1 722.410 737.493 9.481 0.475 o
3 -1 -19 1.051 -0.172 1.353 89.255 o
3 -1 -18 4.381 4.201 2.545 25.092 o
3 -1 -17 13.351 12.834 2.221 31.450 o
3 -1 -15 95.372 100.994 3.746 8.230 o
3 -1 -14 19.570 19.417 2.252 29.561 o
3 -1 -13 5.993 3.999 1.888 44.869 o
3 -1 -12 11.327 10.915 1.474 68.161 o
3 -1 -11 449.728 450.020 4.473 1.361 o
3 -1 -10 6.636 7.704 1.171 109.055 o
3 -1 -9 322.044 321.773 4.170 2.332 o
3 -1 -8 117.302 116.655 1.959 13.624 o
3 -1 -7 112.598 111.738 1.767 15.266 o
3 -1 -6 432.987 434.400 2.646 1.631 o
3 -1 -5 683.859 714.309 3.171 0.674 o
3 -1 -4 75.914 83.091 1.080 31.204 o
3 -1 -3 49.858 50.275 3.696 10.525 o
3 -1 -2 924.292 955.233 9.138 0.327 o
3 -1 -1 605.819 629.693 8.078 0.660 o
3 0 0 3840.600 4075.620 32.948 0.020 o
3 0 1 8.155 7.250 2.555 24.609 o
3 0 2 141.475 145.089 2.383 9.452 o
3 0 3 99.412 96.127 1.616 18.966 o
3 0 4 887.112 873.091 6.846 0.391 o
3 0 5 62.741 59.645 1.464 33.536 o
3 0 6 187.896 190.467 2.514 6.363 o
3 0 7 0.395 -0.010 0.606 442.810 o
3 0 8 1.567 0.848 0.727 298.505 o
3 0 9 64.688 61.796 1.454 32.735 o
3 0 10 39.701 38.612 1.373 50.779 o
3 0 11 82.819 81.082 2.120 18.364 o
3 0 12 95.419 99.550 2.161 15.561 o
3 0 13 187.319 190.245 3.423 5.279 o
3 0 14 7.726 6.846 1.979 40.474 o
3 0 15 10.672 9.209 1.777 48.777 o
3 0 16 0.386 -0.040 0.151 6059.360 o
3 0 17 10.237 8.825 2.019 38.414 o
3 1 0 465.995 480.969 6.291 1.098 o
3 1 1 386.264 381.843 6.553 1.398 o
3 1 2 1213.470 1263.200 13.773 0.181 o
3 1 3 572.389 553.922 3.585 0.966 o
3 1 4 379.396 373.694 4.413 1.798 o
3 1 5 229.881 218.366 4.695 3.334 o
3 1 6 109.777 105.184 1.959 14.941 o
3 1 7 104.466 101.034 2.141 14.695 o
3 1 8 187.744 191.729 2.282 6.633 o
3 1 9 26.653 25.940 1.252 70.935 o
3 1 10 15.385 14.661 1.202 91.599 o
3 1 11 209.088 213.025 2.656 5.318 o
3 1 12 38.748 38.511 1.666 40.172 o
3 1 13 6.161 4.201 1.515 68.593 o
3 1 14 23.969 22.790 2.221 29.503 o
3 1 15 37.336 35.371 2.100 29.222 o
3 1 16 0.041 -0.222 0.727 310.849 o
3 1 17 0.955 0.626 2.878 19.822 o
3 2 0 760.000 827.673 5.523 0.504 o
3 2 1 33.879 34.614 1.010 77.911 o
3 2 2 512.779 512.836 3.635 1.150 o
3 2 3 77.563 74.589 1.272 29.528 o
3 2 4 342.519 331.053 3.413 2.344 o
3 2 5 72.773 65.845 1.363 31.059 o
3 2 6 1294.690 1262.870 11.955 0.178 o
3 2 7 32.813 29.081 1.393 56.435 o
3 2 8 1.055 0.889 1.111 131.513 o
3 2 9 40.680 39.612 1.717 37.790 o
3 2 10 199.338 198.919 2.797 5.596 o
3 2 11 35.260 32.786 1.646 43.105 o
3 2 12 43.264 41.854 1.878 32.453 o
3 2 13 39.946 40.319 2.232 25.811 o
3 2 14 8.998 7.593 2.030 38.321 o
3 2 15 8.826 5.604 1.757 50.748 o
3 2 16 2.785 2.545 1.969 41.904 o
3 2 17 13.896 14.237 2.211 31.576 o
3 3 0 29.122 29.454 0.878 100.249 o
3 3 1 74.870 69.904 1.414 29.044 o
3 3 2 1215.480 1202.680 6.583 0.222 o
3 3 3 52.153 50.416 1.131 49.177 o
3 3 4 711.080 683.250 5.241 0.617 o
3 3 5 407.553 386.780 3.029 1.830 o
3 3 6 240.103 231.190 2.534 4.536 o
3 3 7 37.697 34.281 1.191 62.533 o
3 3 8 437.961 447.254 4.120 1.442 o
3 3 9 56.448 54.314 1.898 27.672 o
3 3 10 31.304 32.079 1.787 39.471 o
3 3 11 47.377 49.538 2.161 25.230 o
3 3 12 28.027 26.193 2.353 25.991 o
3 3 13 7.953 7.098 2.201 32.908 o
3 3 14 14.733 16.075 2.565 23.727 o
3 3 15 5.773 3.807 2.292 30.743 o
3 3 16 1.682 -0.263 5.867 4.775 o
3 3 17 16.982 18.337 3.120 16.188 o
3 4 0 2819.760 2995.860 25.223 0.036 o
3 4 1 165.969 162.063 2.333 7.967 o
3 4 2 153.749 149.946 1.787 10.021 o
3 4 3 39.112 36.068 1.121 64.632 o
3 4 4 1148.360 1121.570 6.725 0.248 o
3 4 5 75.474 67.754 1.464 28.446 o
3 4 6 341.031 331.770 3.433 2.348 o
3 4 7 44.533 42.732 1.313 49.428 o
3 4 8 53.346 54.061 1.363 40.569 o
3 4 9 16.136 15.015 1.464 65.412 o
3 4 10 48.198 48.185 2.413 21.416 o
3 4 11 2.291 1.939 3.504 13.354 o
3 4 12 50.511 54.465 2.888 15.780 o
3 4 13 10.697 12.773 3.423 13.747 o
3 4 14 2.423 1.706 2.716 22.175 o
3 4 15 3.137 1.747 5.715 5.027 o
3 4 16 1.533 1.181 3.675 12.151 o
3 5 0 184.313 177.552 1.888 7.532 o
3 5 1 217.789 210.945 2.363 5.385 o
3 5 2 784.745 765.180 5.776 0.505 o
3 5 3 53.215 51.951 1.353 41.377 o
3 5 4 24.232 22.194 1.111 87.856 o
3 5 5 49.769 47.771 1.494 39.690 o
3 5 6 198.497 199.615 2.898 5.500 o
3 5 7 4.278 3.413 1.101 128.130 o
3 5 8 90.146 90.150 2.343 15.363 o
3 5 9 46.543 47.044 1.969 29.145 o
3 5 10 25.738 27.586 3.463 12.904 o
3 5 11 54.721 56.747 4.322 7.833 o
3 5 12 23.798 25.809 3.716 11.356 o
3 5 13 9.113 8.664 2.282 30.508 o
3 5 14 6.918 5.150 2.959 18.530 o
3 5 15 34.296 35.785 4.604 7.366 o
3 5 16 2.654 1.070 2.716 22.178 o
3 6 0 731.900 743.753 5.735 0.557 o
3 6 1 212.233 211.500 2.302 5.574 o
3 6 2 13.652 15.116 1.121 104.225 o
3 6 3 38.008 36.886 1.797 36.585 o
3 6 4 212.914 208.047 3.585 4.456 o
3 6 5 35.081 35.603 1.575 45.339 o
3 6 6 256.187 253.596 2.837 3.886 o
3 6 7 36.072 33.453 1.444 50.944 o
3 6 8 32.461 33.392 1.545 48.166 o
3 6 9 24.982 25.344 1.525 54.401 o
3 6 10 38.671 39.138 2.090 28.877 o
3 6 11 2.197 1.181 2.292 31.111 o
3 6 12 0.935 0.828 2.343 29.883 o
3 6 13 17.158 15.823 2.615 22.715 o
3 6 14 28.576 32.372 3.120 15.469 o
3 6 15 0.020 -0.646 3.746 11.717 o
3 7 0 14.480 13.975 1.000 124.027 o
3 7 1 0.411 1.141 0.798 254.108 o
3 7 2 73.675 72.045 1.666 25.565 o
3 7 3 100.591 99.924 2.232 14.602 o
3 7 4 77.658 71.197 2.030 20.614 o
3 7 5 21.322 20.053 1.535 56.779 o
3 7 6 49.255 48.397 1.949 28.852 o
3 7 7 41.733 40.178 1.919 32.033 o
3 7 8 230.878 237.844 3.766 3.816 o
3 7 9 72.999 75.680 2.494 16.542 o
3 7 10 1.020 -0.535 3.080 17.317 o
3 7 11 31.414 34.129 4.059 9.405 o
3 7 12 33.437 33.584 4.140 9.035 o
3 7 13 1.618 0.040 0.364 1093.420 o
3 8 0 322.188 328.004 3.019 2.614 o
3 8 1 67.531 66.168 1.525 29.948 o
3 8 2 51.504 49.003 1.585 36.375 o
3 8 3 12.711 10.976 1.191 97.631 o
3 8 4 98.222 99.338 2.494 13.358 o
3 8 5 75.711 74.741 2.302 17.975 o
3 8 6 326.372 340.585 4.362 2.191 o
3 8 7 23.501 24.203 1.848 40.508 o
3 8 8 12.888 12.480 1.777 47.801 o
3 8 9 14.740 12.127 2.302 29.292 o
3 8 10 26.063 25.415 2.726 20.151 o
3 8 11 6.284 5.745 2.353 29.097 o
3 8 12 0.972 0.969 2.656 23.264 o
3 8 13 3.108 2.746 4.695 7.441 o
3 9 0 3.514 3.625 1.171 114.566 o
3 9 1 0.978 0.111 0.273 1918.430 o
3 9 2 72.551 70.651 1.989 21.889 o
3 9 3 3.465 2.625 1.404 81.155 o
3 9 4 49.082 47.902 1.828 31.474 o
3 9 5 10.498 10.451 1.414 74.105 o
3 9 6 13.846 11.036 1.696 51.974 o
3 9 7 14.603 13.803 2.252 30.465 o
3 9 8 83.020 89.150 2.868 12.702 o
3 9 9 5.673 3.140 2.858 19.920 o
3 9 10 40.132 42.560 3.140 14.553 o
3 9 11 39.180 40.480 3.140 14.645 o
3 9 12 9.103 8.502 3.898 10.697 o
3 10 0 111.056 108.446 2.413 12.439 o
3 10 1 6.573 5.725 1.444 74.570 o
3 10 2 13.839 11.925 1.474 66.634 o
3 10 3 0.475 0.394 1.303 96.499 o
3 10 4 40.595 37.764 1.868 33.845 o
3 10 5 3.595 3.060 1.676 57.289 o
3 10 6 50.168 49.366 2.474 20.353 o
3 10 7 0.855 -0.061 1.212 111.289 o
3 10 8 21.501 20.074 2.666 21.492 o
3 10 9 11.942 9.986 3.474 13.361 o
3 10 10 19.397 21.063 4.089 9.543 o
3 10 11 1.568 2.060 3.696 12.014 o
3 11 0 0.807 0.767 2.524 25.752 o
3 11 1 12.719 10.744 1.898 42.532 o
3 11 2 34.916 33.473 2.262 26.430 o
3 11 3 7.767 7.008 1.898 43.833 o
3 11 4 12.719 9.865 2.292 29.852 o
3 11 5 9.657 9.794 2.555 24.445 o
3 11 6 8.664 5.998 2.656 22.819 o
3 11 7 7.350 3.877 2.262 31.418 o
3 11 8 6.079 7.381 2.858 19.834 o
3 11 9 14.126 14.611 4.180 9.238 o
3 11 10 16.021 17.489 4.453 8.131 o
3 12 0 54.902 56.535 2.676 17.348 o
3 12 1 11.879 10.723 2.070 36.283 o
3 12 2 17.525 15.187 2.585 23.216 o
3 12 3 4.297 1.717 3.625 12.456 o
3 12 4 22.590 19.700 4.089 9.510 o
3 12 5 9.697 11.592 2.716 21.652 o
3 12 6 17.820 16.651 2.888 18.766 o
3 12 7 7.063 5.796 4.019 10.101 o
3 12 8 12.244 13.117 4.059 9.816 o
3 13 0 4.494 3.080 2.242 32.258 o
3 13 1 3.410 1.616 2.817 20.591 o
3 13 2 24.374 27.041 3.060 16.338 o
3 13 3 12.187 11.592 2.878 19.250 o
3 13 4 20.236 21.336 3.039 16.835 o
3 13 5 7.239 6.573 3.615 12.454 o
4 -13 -4 3.507 3.393 5.412 5.602 o
4 -13 -3 5.456 2.969 6.392 4.017 o
4 -12 -7 14.633 11.662 4.231 9.032 o
4 -12 -6 2.863 0.535 10.592 1.465 o
4 -12 -5 5.656 2.999 4.029 10.076 o
4 -12 -4 39.006 37.542 4.251 8.485 o
4 -11 -10 15.896 11.006 4.352 8.536 o
4 -11 -9 19.944 19.811 3.908 10.424 o
4 -11 -8 10.307 7.401 3.847 10.968 o
4 -11 -7 3.570 3.261 3.403 14.126 o
4 -11 -6 40.725 38.734 4.140 8.874 o
4 -11 -5 21.377 19.165 3.544 12.560 o
4 -10 -12 5.232 3.453 4.120 9.640 o
4 -10 -11 21.917 20.498 3.938 10.234 o
4 -10 -10 5.425 1.656 3.898 10.771 o
4 -10 -9 9.694 10.653 3.211 15.633 o
4 -10 -8 8.578 4.120 3.383 14.200 o
4 -10 -7 17.345 16.055 3.292 14.627 o
4 -10 -6 3.984 4.100 3.130 16.659 o
4 -10 -5 32.196 28.727 3.463 12.704 o
4 -10 -1 17.304 18.195 3.292 14.598 o
4 -9 -13 38.405 37.966 4.544 7.494 o
4 -9 -12 1.785 -0.495 34.674 0.137 o
4 -9 -11 8.307 6.684 2.322 29.643 o
4 -9 -10 22.419 21.245 2.514 23.823 o
4 -9 -9 87.481 90.483 3.554 9.298 o
4 -9 -8 30.085 32.039 2.585 21.590 o
4 -9 -6 47.074 37.865 3.595 11.318 o
4 -9 -2 8.103 6.371 1.989 40.058 o
4 -9 -1 108.256 105.669 3.362 8.949 o
4 -8 -13 5.701 5.937 3.120 16.704 o
4 -8 -12 11.889 11.935 3.373 14.136 o
4 -8 -11 163.365 166.647 6.472 2.882 o
4 -8 -10 32.004 31.474 2.514 22.509 o
4 -8 -9 0.797 -0.010 0.081 10775.700 o
4 -8 -8 18.747 15.893 2.131 33.060 o
4 -8 -7 32.349 33.483 2.353 25.065 o
4 -8 -6 17.657 16.762 1.979 37.912 o
4 -8 -5 20.186 18.125 2.938 18.020 o
4 -8 -4 55.891 58.464 3.827 9.643 o
4 -8 -3 10.158 9.683 1.888 43.576 o
4 -8 -2 82.801 79.527 2.797 13.443 o
4 -8 -1 33.824 29.565 2.120 29.862 o
4 -7 -17 7.295 6.886 3.665 12.114 o
4 -7 -16 3.840 2.757 3.877 10.893 o
4 -7 -15 10.987 8.361 3.696 11.857 o
4 -7 -14 3.970 3.675 3.807 11.293 o
4 -7 -13 51.882 49.982 3.019 14.736 o
4 -7 -12 12.347 10.461 3.282 14.918 o
4 -7 -11 58.186 54.889 4.170 8.296 o
4 -7 -10 2.855 2.373 2.676 22.816 o
4 -7 -9 191.972 191.921 7.512 2.147 o
4 -7 -8 112.118 111.182 3.231 9.121 o
4 -7 -7 25.142 24.870 1.666 47.365 o
4 -7 -6 189.135 187.529 3.241 5.481 o
4 -7 -5 15.627 14.944 1.797 45.810 o
4 -7 -4 123.500 125.016 4.503 5.594 o
4 -7 -3 212.444 210.652 5.170 3.231 o
4 -7 -2 72.520 68.592 3.443 10.710 o
4 -7 -1 15.611 14.268 1.656 53.144 o
4 -6 -17 39.312 50.416 3.655 11.027 o
4 -6 -16 1.450 1.353 2.232 32.864 o
4 -6 -15 24.845 27.899 2.878 18.251 o
4 -6 -14 2.323 2.090 2.514 25.854 o
4 -6 -13 28.643 27.021 2.030 33.290 o
4 -6 -12 3.880 3.060 1.676 57.216 o
4 -6 -11 107.089 113.081 2.959 10.265 o
4 -6 -10 87.524 86.060 2.353 15.742 o
4 -6 -9 30.073 26.031 2.040 32.841 o
4 -6 -8 50.789 46.973 1.858 30.523 o
4 -6 -7 37.858 33.190 2.070 29.996 o
4 -6 -6 132.746 132.831 3.100 8.260 o
4 -6 -5 162.469 162.467 4.312 4.920 o
4 -6 -4 287.717 286.140 5.291 2.324 o
4 -6 -3 75.081 76.134 3.272 11.298 o
4 -6 -2 21.622 19.801 2.292 28.359 o
4 -6 -1 252.531 240.631 4.514 3.105 o
4 -5 -18 4.866 3.322 3.807 11.286 o
4 -5 -17 6.599 4.503 2.969 18.425 o
4 -5 -15 13.704 13.349 2.585 23.534 o
4 -5 -14 8.524 8.411 2.120 35.233 o
4 -5 -13 10.703 8.704 1.686 53.867 o
4 -5 -12 42.820 43.035 2.110 27.412 o
4 -5 -11 11.296 9.744 1.555 62.137 o
4 -5 -10 1.344 1.060 1.848 47.865 o
4 -5 -9 323.506 322.228 3.958 2.378 o
4 -5 -8 28.430 28.697 1.868 37.999 o
4 -5 -7 254.249 253.152 3.817 3.393 o
4 -5 -6 631.488 625.634 7.926 0.642 o
4 -5 -5 488.964 497.448 6.503 1.015 o
4 -5 -4 134.732 134.770 3.524 7.152 o
4 -5 -3 680.697 676.020 7.139 0.598 o
4 -5 -2 255.796 253.535 4.332 3.105 o
4 -5 -1 103.515 98.389 2.282 14.119 o
4 -4 -18 1.696 1.060 1.282 98.493 o
4 -4 -17 20.105 18.498 3.080 16.479 o
4 -4 -16 4.056 3.797 2.444 27.213 o
4 -4 -15 37.640 38.148 2.454 22.545 o
4 -4 -14 0.577 0.717 2.746 21.770 o
4 -4 -13 19.595 19.498 2.322 27.930 o
4 -4 -12 38.484 38.269 2.019 30.550 o
4 -4 -11 314.243 312.999 4.069 2.449 o
4 -4 -10 21.577 19.337 1.505 58.694 o
4 -4 -9 123.939 121.381 2.353 11.317 o
4 -4 -8 67.422 65.512 1.787 25.947 o
4 -4 -7 511.206 508.272 3.797 1.150 o
4 -4 -6 12.732 12.278 0.909 149.102 o
4 -4 -5 357.752 356.004 2.736 2.277 o
4 -4 -4 732.155 735.675 4.958 0.577 o
4 -4 -3 460.336 465.025 3.776 1.366 o
4 -4 -2 47.729 45.893 1.969 29.020 o
4 -4 -1 34.572 29.363 1.757 39.940 o
4 -3 -19 4.627 5.867 3.332 14.686 o
4 -3 -18 2.143 3.211 2.969 18.567 o
4 -3 -17 8.660 7.987 2.161 33.983 o
4 -3 -16 7.614 6.664 1.929 42.574 o
4 -3 -15 20.064 20.306 2.120 32.820 o
4 -3 -14 48.280 48.861 2.918 15.831 o
4 -3 -13 123.421 124.955 3.726 7.153 o
4 -3 -12 14.819 12.975 1.989 38.417 o
4 -3 -11 16.331 14.399 1.494 63.217 o
4 -3 -10 26.473 25.577 1.323 66.029 o
4 -3 -9 561.613 559.284 4.534 0.940 o
4 -3 -8 170.832 166.072 2.272 7.778 o
4 -3 -7 92.185 90.240 1.555 21.154 o
4 -3 -6 189.968 189.477 1.989 6.944 o
4 -3 -5 346.427 342.645 2.464 2.465 o
4 -3 -4 401.628 404.340 2.726 1.851 o
4 -3 -3 655.330 666.226 4.130 0.720 o
4 -3 -2 404.100 397.191 3.736 1.730 o
4 -3 -1 302.641 299.357 6.715 1.787 o
4 -2 -19 2.863 4.271 3.675 12.119 o
4 -2 -18 1.226 0.101 0.364 1124.290 o
4 -2 -17 35.324 37.047 2.605 20.648 o
4 -2 -16 0.281 0.899 6.594 3.782 o
4 -2 -15 56.029 55.455 3.120 13.612 o
4 -2 -14 12.146 12.551 2.211 31.876 o
4 -2 -13 53.004 53.395 2.787 16.556 o
4 -2 -12 13.357 13.167 1.535 61.989 o
4 -2 -11 293.764 296.045 3.817 2.767 o
4 -2 -10 13.833 11.844 1.131 104.571 o
4 -2 -9 23.274 22.134 1.070 93.497 o
4 -2 -8 7.768 8.118 0.818 199.216 o
4 -2 -7 174.154 172.958 1.969 7.965 o
4 -2 -6 15.406 15.611 0.798 164.818 o
4 -2 -5 381.473 378.046 2.393 2.089 o
4 -2 -4 232.546 239.853 2.040 4.911 o
4 -2 -3 263.023 259.563 3.110 3.606 o
4 -2 -2 1553.360 1613.450 14.894 0.118 o
4 -2 -1 528.818 530.779 9.704 0.708 o
4 -1 -19 5.324 3.756 3.322 14.782 o
4 -1 -18 4.752 4.160 2.242 32.190 o
4 -1 -17 13.928 12.975 2.120 34.240 o
4 -1 -16 58.946 59.797 3.322 12.076 o
4 -1 -15 66.267 69.662 3.322 11.558 o
4 -1 -14 9.382 8.229 2.141 34.505 o
4 -1 -13 63.711 63.957 2.363 19.352 o
4 -1 -12 46.303 45.236 1.949 29.801 o
4 -1 -11 17.871 17.388 1.494 61.699 o
4 -1 -10 158.809 162.346 2.696 7.582 o
4 -1 -9 301.635 302.901 3.292 2.840 o
4 -1 -8 27.005 25.627 0.868 108.911 o
4 -1 -7 56.311 52.779 1.010 49.565 o
4 -1 -6 510.953 514.240 2.928 1.191 o
4 -1 -5 718.296 726.507 3.150 0.628 o
4 -1 -4 366.440 396.898 2.343 2.132 o
4 -1 -3 1147.590 1186.310 5.089 0.247 o
4 -1 -2 287.113 296.096 2.514 3.294 o
4 -1 -1 515.977 526.266 4.534 1.070 o
4 0 0 293.505 284.787 3.433 2.962 o
4 0 1 201.801 181.632 2.686 5.881 o
4 0 2 1069.450 1095.150 13.874 0.220 o
4 0 3 181.008 177.754 2.272 7.138 o
4 0 4 78.317 74.711 1.706 23.799 o
4 0 5 12.561 12.006 1.161 101.523 o
4 0 6 684.062 674.172 5.321 0.649 o
4 0 7 59.766 55.687 2.019 24.911 o
4 0 8 379.177 366.616 2.989 2.056 o
4 0 9 38.031 35.684 1.343 53.945 o
4 0 10 8.706 7.179 1.070 125.575 o
4 0 11 3.726 3.443 1.191 110.762 o
4 0 12 31.948 29.878 1.464 53.016 o
4 0 13 22.212 22.416 1.484 58.862 o
4 0 14 2.213 0.788 0.868 209.839 o
4 0 15 39.097 42.379 2.282 24.895 o
4 0 16 0.017 0.121 1.959 42.843 o
4 0 17 19.863 21.407 2.221 30.134 o
4 1 0 2154.250 2298.630 17.580 0.064 o
4 1 1 297.760 286.584 3.352 2.939 o
4 1 2 16.124 15.085 1.292 80.561 o
4 1 3 59.194 54.576 1.404 37.034 o
4 1 4 852.257 816.222 5.543 0.444 o
4 1 5 104.323 98.500 2.100 15.067 o
4 1 6 99.501 98.328 2.262 14.602 o
4 1 7 314.437 319.390 5.342 2.060 o
4 1 8 156.381 150.623 2.847 7.600 o
4 1 9 30.005 28.374 1.646 45.838 o
4 1 10 67.191 62.170 2.201 20.840 o
4 1 11 11.565 9.986 1.242 92.501 o
4 1 12 24.135 25.052 1.414 61.578 o
4 1 13 32.642 30.524 1.575 47.388 o
4 1 14 31.125 31.635 2.060 31.606 o
4 1 15 11.912 11.622 1.858 44.349 o
4 1 16 11.465 11.804 2.312 29.383 o
4 2 0 183.811 185.247 1.797 7.505 o
4 2 1 65.839 66.027 1.333 33.896 o
4 2 2 1405.530 1426.550 13.833 0.145 o
4 2 3 116.645 107.275 1.565 16.052 o
4 2 4 26.233 22.860 0.990 98.033 o
4 2 5 197.843 186.630 2.696 5.910 o
4 2 6 327.529 325.186 4.322 2.243 o
4 2 7 1.922 2.272 1.151 120.910 o
4 2 8 142.189 142.626 2.595 8.936 o
4 2 9 124.062 119.715 2.575 10.565 o
4 2 10 1.257 0.606 0.666 356.330 o
4 2 11 67.533 67.461 1.858 24.721 o
4 2 12 16.435 13.955 1.404 70.411 o
4 2 13 47.676 47.912 2.080 26.719 o
4 2 14 1.493 0.899 1.828 48.911 o
4 2 15 34.075 35.129 2.171 28.261 o
4 2 16 3.244 0.697 7.825 2.683 o
4 3 0 627.500 621.191 3.070 0.821 o
4 3 1 173.542 168.293 1.969 8.101 o
4 3 2 53.038 53.839 1.262 43.619 o
4 3 3 319.969 289.886 2.464 2.964 o
4 3 4 107.195 102.953 1.464 18.213 o
4 3 5 184.552 176.694 1.969 7.434 o
4 3 6 3.309 2.989 0.909 186.335 o
4 3 7 106.915 104.478 1.868 15.795 o
4 3 8 45.672 40.097 1.676 37.317 o
4 3 9 57.578 57.646 2.009 25.282 o
4 3 10 82.706 81.435 2.191 17.752 o
4 3 11 109.692 112.606 2.514 11.938 o
4 3 12 0.376 0.283 1.040 151.232 o
4 3 13 101.337 108.809 3.160 9.875 o
4 3 14 29.379 30.726 2.363 25.387 o
4 3 15 6.674 6.361 2.827 20.251 o
4 3 16 10.889 8.684 2.837 19.901 o
4 4 0 353.101 349.147 2.444 2.388 o
4 4 1 38.288 38.915 1.030 69.401 o
4 4 2 568.189 567.402 4.705 0.912 o
4 4 3 40.764 38.703 1.272 54.625 o
4 4 4 129.200 126.561 2.151 11.488 o
4 4 5 26.698 23.507 1.252 71.910 o
4 4 6 131.498 123.289 2.019 11.893 o
4 4 7 37.505 36.068 1.272 57.654 o
4 4 8 180.126 181.066 3.211 5.815 o
4 4 9 73.104 72.590 2.302 18.393 o
4 4 10 1.730 2.090 1.525 69.786 o
4 4 11 22.429 22.739 2.333 27.224 o
4 4 12 36.703 35.553 2.736 18.931 o
4 4 13 22.573 20.851 2.656 21.545 o
4 4 14 3.914 3.877 2.413 27.898 o
4 4 15 20.924 19.427 3.019 17.060 o
4 4 16 2.023 -0.162 1.929 43.941 o
4 5 0 89.217 87.100 1.484 22.657 o
4 5 1 21.407 19.023 0.909 121.250 o
4 5 2 107.095 102.186 1.757 16.551 o
4 5 3 4.708 4.473 0.868 195.993 o
4 5 4 227.915 227.322 2.797 4.635 o
4 5 5 74.046 72.832 1.636 25.794 o
4 5 6 137.973 137.335 2.211 10.347 o
4 5 7 101.117 99.984 1.818 17.084 o
4 5 8 184.758 189.730 2.474 6.526 o
4 5 9 8.179 7.644 1.515 67.028 o
4 5 10 116.149 118.917 3.686 7.538 o
4 5 11 71.013 73.257 3.261 11.597 o
4 5 12 0.625 -0.515 1.727 55.029 o
4 5 13 40.402 40.622 3.080 15.089 o
4 5 14 10.704 10.855 2.817 20.141 o
4 5 15 3.611 3.312 4.635 7.633 o
4 6 0 171.554 168.596 2.131 7.926 o
4 6 1 12.881 12.056 0.969 135.080 o
4 6 2 645.483 644.506 4.816 0.728 o
4 6 3 30.466 29.747 1.797 39.696 o
4 6 4 166.118 163.002 2.736 7.226 o
4 6 5 41.068 39.380 1.747 36.820 o
4 6 6 193.434 191.669 2.646 6.021 o
4 6 7 63.760 60.968 1.787 27.241 o
4 6 8 100.395 99.671 2.242 14.574 o
4 6 9 21.187 20.003 1.535 56.853 o
4 6 10 11.963 10.572 2.181 32.859 o
4 6 11 11.226 10.249 2.221 31.829 o
4 6 12 20.903 18.519 2.595 22.691 o
4 6 13 19.595 20.205 2.827 19.356 o
4 6 14 4.959 4.423 2.969 18.474 o
4 6 15 5.564 4.322 6.099 4.410 o
4 7 0 263.168 261.835 3.362 3.465 o
4 7 1 11.685 10.723 1.060 120.211 o
4 7 2 16.076 14.268 1.131 100.248 o
4 7 3 8.715 7.846 1.101 119.099 o
4 7 4 148.289 143.544 2.767 8.231 o
4 7 5 34.702 33.776 1.777 38.581 o
4 7 6 1.424 0.303 0.374 1046.640 o
4 7 7 5.976 3.292 1.494 70.648 o
4 7 8 50.708 49.164 2.252 23.332 o
4 7 9 12.570 9.653 1.686 53.155 o
4 7 11 36.157 40.359 4.342 8.176 o
4 7 12 28.201 30.120 4.130 9.183 o
4 7 13 45.918 51.618 5.018 6.087 o
4 7 14 9.138 7.805 4.100 9.683 o
4 8 0 110.527 111.606 1.908 14.787 o
4 8 1 133.321 134.174 2.343 10.341 o
4 8 2 375.342 368.555 3.736 1.950 o
4 8 3 17.282 15.055 1.202 89.454 o
4 8 4 0.497 0.747 1.888 45.998 o
4 8 5 4.007 3.433 1.393 81.800 o
4 8 6 57.293 57.010 2.302 21.248 o
4 8 7 1.443 0.737 1.191 114.201 o
4 8 8 8.424 7.210 1.757 50.651 o
4 8 9 16.912 15.187 1.989 37.846 o
4 8 10 7.330 4.675 3.352 14.473 o
4 8 11 6.079 4.301 4.039 10.017 o
4 8 12 10.108 10.451 3.797 11.241 o
4 8 13 5.183 3.282 4.110 9.688 o
4 9 0 147.210 147.674 2.635 8.490 o
4 9 1 4.425 2.030 1.161 116.355 o
4 9 2 1.542 0.555 1.020 155.070 o
4 9 3 27.255 23.880 1.555 52.088 o
4 9 4 161.606 162.800 2.938 7.031 o
4 9 5 12.434 10.441 1.474 67.724 o
4 9 6 0.557 0.192 0.333 1391.490 o
4 9 7 34.062 31.675 1.919 34.757 o
4 9 8 48.883 49.800 2.191 24.484 o
4 9 9 18.106 18.155 2.666 21.776 o
4 9 10 8.418 9.885 3.766 11.446 o
4 9 11 18.794 18.589 4.039 9.800 o
4 9 12 1.169 1.373 4.736 7.325 o
4 10 0 17.358 16.540 1.555 58.110 o
4 10 1 74.208 72.206 2.201 19.263 o
4 10 2 183.172 179.087 3.524 5.367 o
4 10 3 77.097 80.476 2.383 16.825 o
4 10 4 19.876 17.771 1.696 48.965 o
4 10 5 8.176 6.674 1.848 46.112 o
4 10 6 106.953 113.495 3.332 8.949 o
4 10 7 28.945 28.656 2.292 26.931 o
4 10 8 26.322 26.152 2.030 33.810 o
4 10 9 6.143 6.170 2.847 19.992 o
4 10 10 5.762 3.958 4.655 7.555 o
4 11 0 58.926 59.090 2.221 21.931 o
4 11 1 31.248 29.767 1.888 36.536 o
4 11 2 6.782 3.887 1.595 61.931 o
4 11 3 26.141 23.466 1.878 38.864 o
4 11 4 43.048 43.691 2.353 23.157 o
4 11 5 39.431 35.078 2.120 28.458 o
4 11 6 16.922 15.318 2.272 29.622 o
4 11 7 18.758 17.963 2.343 27.658 o
4 11 8 5.144 4.312 2.918 19.109 o
4 11 9 4.798 4.453 3.191 16.016 o
4 12 0 39.940 38.693 2.454 22.273 o
4 12 1 47.543 50.487 3.221 13.424 o
4 12 2 27.598 26.596 2.363 25.822 o
4 12 3 18.230 15.701 2.757 20.503 o
4 12 5 8.818 8.754 2.676 22.408 o
4 12 6 3.715 2.777 3.433 13.880 o
4 13 0 15.286 15.711 2.979 17.810 o
4 13 1 0.723 0.222 0.878 210.582 o
4 13 2 2.154 0.384 2.646 23.407 o
4 13 3 13.976 12.167 3.251 15.127 o
4 13 4 6.754 8.431 3.312 14.798 o
5 -13 -5 3.783 4.140 5.150 6.184 o
5 -13 -4 21.711 21.982 4.251 8.820 o
5 -13 -3 8.438 9.047 4.352 8.603 o
5 -12 -9 27.951 25.940 4.564 7.607 o
5 -12 -8 3.810 3.110 4.978 6.619 o
5 -12 -7 1.580 2.595 4.524 8.023 o
5 -12 -6 20.833 19.619 3.877 10.569 o
5 -12 -5 6.830 4.887 3.605 12.541 o
5 -12 -4 27.857 30.433 4.140 9.143 o
5 -11 -12 4.717 2.807 5.453 5.517 o
5 -11 -11 18.203 19.973 4.514 7.891 o
5 -11 -10 5.326 5.180 4.231 9.136 o
5 -11 -9 3.793 0.990 4.231 9.161 o
5 -11 -8 17.441 15.429 3.877 10.653 o
5 -11 -7 54.776 55.566 4.816 6.451 o
5 -11 -6 64.329 66.380 4.928 6.026 o
5 -11 -5 8.582 9.471 3.413 13.902 o
5 -11 -1 22.258 19.175 3.605 12.139 o
5 -10 -13 13.870 13.187 4.625 7.580 o
5 -10 -12 1.036 0.606 18.064 0.504 o
5 -10 -11 5.349 2.777 5.836 4.816 o
5 -10 -10 8.084 4.069 3.968 10.357 o
5 -10 -9 62.058 64.381 4.897 6.130 o
5 -10 -8 11.167 10.855 3.342 14.416 o
5 -10 -7 19.180 19.801 3.625 12.066 o
5 -10 -6 23.599 19.034 3.474 13.001 o
5 -10 -5 62.860 66.996 4.584 6.862 o
5 -10 -2 91.569 91.230 4.736 5.921 o
5 -10 -1 31.568 32.090 3.615 11.706 o
5 -9 -14 1.243 0.475 5.099 6.320 o
5 -9 -13 19.566 18.822 3.978 10.080 o
5 -9 -12 13.941 14.005 3.898 10.604 o
5 -9 -11 15.290 13.086 3.574 12.542 o
5 -9 -10 5.404 5.029 3.211 15.798 o
5 -9 -9 4.257 2.635 2.837 20.258 o
5 -9 -8 49.610 46.812 4.130 8.682 o
5 -9 -7 102.405 98.288 5.089 5.098 o
5 -9 -6 35.399 33.049 3.534 12.087 o
5 -9 -5 31.016 29.686 3.645 11.568 o
5 -9 -4 153.610 164.638 6.139 3.182 o
5 -9 -3 95.428 95.531 3.272 9.989 o
5 -9 -2 5.898 5.453 2.100 36.384 o
5 -9 -1 51.954 50.790 2.757 17.017 o
5 -8 -14 4.060 3.231 3.564 12.874 o
5 -8 -13 17.738 17.731 3.766 11.249 o
5 -8 -12 1.345 0.151 8.199 2.446 o
5 -8 -11 10.993 10.845 3.373 14.168 o
5 -8 -10 18.191 15.732 3.373 13.941 o
5 -8 -9 94.098 97.945 3.433 9.377 o
5 -8 -8 5.586 3.615 2.858 19.915 o
5 -8 -7 2.136 0.798 1.484 73.676 o
5 -8 -6 41.105 39.087 2.484 21.692 o
5 -8 -5 86.616 92.512 4.604 6.261 o
5 -8 -4 53.065 51.557 3.736 10.222 o
5 -8 -3 16.590 17.287 1.999 37.368 o
5 -8 -2 231.675 230.574 4.261 3.526 o
5 -8 -1 10.361 8.765 1.929 41.912 o
5 -7 -15 5.234 1.575 3.423 13.948 o
5 -7 -14 3.593 2.272 11.662 1.208 o
5 -7 -13 29.484 30.474 4.019 9.648 o
5 -7 -12 12.539 9.007 3.140 16.273 o
5 -7 -11 81.303 80.597 4.786 6.033 o
5 -7 -10 28.504 21.204 3.191 15.062 o
5 -7 -9 18.263 18.286 2.979 17.637 o
5 -7 -8 18.920 19.064 1.696 49.068 o
5 -7 -7 382.863 384.216 6.917 1.348 o
5 -7 -6 35.471 36.310 2.242 26.544 o
5 -7 -5 24.078 26.213 3.009 16.883 o
5 -7 -4 194.084 200.019 5.675 3.094 o
5 -7 -3 99.832 98.702 4.160 7.001 o
5 -7 -2 126.518 129.943 3.110 8.533 o
5 -7 -1 44.996 43.217 2.201 25.392 o
5 -6 -17 15.548 15.611 4.564 7.758 o
5 -6 -16 10.286 8.845 3.645 12.189 o
5 -6 -15 54.421 52.850 4.413 7.582 o
5 -6 -14 12.979 10.845 2.393 27.428 o
5 -6 -13 92.811 89.776 3.544 9.164 o
5 -6 -12 32.586 30.302 2.474 23.148 o
5 -6 -11 6.372 7.018 2.706 22.073 o
5 -6 -10 26.466 25.647 3.130 15.602 o
5 -6 -9 265.500 280.091 6.674 1.988 o
5 -6 -8 8.053 6.493 1.787 49.196 o
5 -6 -7 24.941 24.537 1.888 38.676 o
5 -6 -6 7.357 7.502 1.434 74.703 o
5 -6 -5 231.551 231.826 5.301 2.903 o
5 -6 -4 55.170 55.334 3.160 13.377 o
5 -6 -3 32.500 32.756 2.726 19.457 o
5 -6 -2 364.329 361.497 5.786 1.638 o
5 -6 -1 71.116 69.288 3.221 11.903 o
5 -5 -18 15.109 17.024 3.251 15.029 o
5 -5 -17 12.915 12.844 2.928 18.559 o
5 -5 -16 18.687 18.276 2.787 19.989 o
5 -5 -15 9.990 6.796 2.433 26.943 o
5 -5 -14 40.722 40.238 2.858 17.159 o
5 -5 -13 73.304 76.225 2.605 15.602 o
5 -5 -12 34.659 34.220 2.423 23.550 o
5 -5 -11 75.596 74.791 2.403 17.097 o
5 -5 -10 23.976 20.498 1.393 64.436 o
5 -5 -9 57.481 55.768 1.898 27.305 o
5 -5 -8 26.163 25.415 1.858 39.320 o
5 -5 -7 218.364 219.739 3.726 4.157 o
5 -5 -6 40.878 39.117 1.939 31.858 o
5 -5 -5 109.300 107.507 3.504 8.433 o
5 -5 -4 196.867 197.151 4.271 4.178 o
5 -5 -3 26.946 25.324 2.211 29.155 o
5 -5 -2 289.476 285.897 4.958 2.430 o
5 -5 -1 152.890 141.818 3.474 6.639 o
5 -4 -18 9.364 11.036 3.231 15.445 o
5 -4 -17 1.635 -0.192 6.856 3.497 o
5 -4 -16 18.972 19.084 2.292 28.704 o
5 -4 -15 134.867 144.655 3.645 6.755 o
5 -4 -14 46.611 48.781 2.959 15.579 o
5 -4 -13 62.078 59.039 2.423 19.153 o
5 -4 -12 8.909 8.138 1.595 60.454 o
5 -4 -11 92.777 92.704 2.504 13.996 o
5 -4 -10 74.027 74.216 1.828 23.234 o
5 -4 -9 123.218 119.745 2.221 11.918 o
5 -4 -8 194.411 191.588 2.514 6.146 o
5 -4 -7 3.400 2.343 0.868 203.574 o
5 -4 -6 114.787 112.545 1.767 14.976 o
5 -4 -5 3.042 3.514 0.798 237.323 o
5 -4 -4 85.039 83.435 1.979 19.152 o
5 -4 -3 245.777 232.412 2.777 4.268 o
5 -4 -2 591.927 585.396 4.170 0.876 o
5 -4 -1 6.655 5.988 1.555 64.704 o
5 -3 -19 0.589 0.545 6.836 3.518 o
5 -3 -18 2.391 3.665 3.585 12.749 o
5 -3 -17 30.827 30.807 2.545 22.182 o
5 -3 -16 3.821 2.615 1.868 46.316 o
5 -3 -15 11.599 11.218 3.716 11.700 o
5 -3 -14 15.993 15.045 2.333 28.311 o
5 -3 -13 92.728 91.502 3.383 9.744 o
5 -3 -12 6.671 5.402 1.313 89.254 o
5 -3 -11 113.134 113.353 2.282 12.684 o
5 -3 -10 115.377 116.463 1.868 14.231 o
5 -3 -9 76.243 79.042 1.706 23.780 o
5 -3 -8 147.670 144.443 2.050 9.961 o
5 -3 -7 286.241 287.392 2.908 3.220 o
5 -3 -6 149.857 152.026 1.868 10.022 o
5 -3 -5 65.936 65.865 1.262 35.221 o
5 -3 -4 1092.110 1073.990 5.241 0.279 o
5 -3 -3 188.557 183.873 2.928 5.923 o
5 -3 -2 36.929 38.340 1.595 43.300 o
5 -3 -1 391.967 379.561 10.148 0.920 o
5 -2 -19 8.614 7.947 3.332 14.588 o
5 -2 -18 9.650 8.724 2.373 28.243 o
5 -2 -17 2.524 3.060 3.362 14.484 o
5 -2 -16 1.994 2.252 2.242 32.494 o
5 -2 -15 65.479 67.865 3.332 11.575 o
5 -2 -14 2.506 2.110 2.979 18.447 o
5 -2 -13 86.671 88.079 2.686 13.551 o
5 -2 -12 56.503 59.585 2.221 22.232 o
5 -2 -11 51.373 49.780 1.696 33.586 o
5 -2 -10 16.712 17.822 1.222 86.347 o
5 -2 -9 590.815 600.310 5.059 0.829 o
5 -2 -8 28.193 27.384 1.091 82.137 o
5 -2 -7 59.172 57.797 1.282 39.256 o
5 -2 -6 200.669 197.858 1.949 6.456 o
5 -2 -5 291.718 289.623 2.474 3.291 o
5 -2 -4 155.299 153.137 1.727 9.949 o
5 -2 -3 23.291 20.932 1.414 63.317 o
5 -2 -2 1428.850 1469.940 16.762 0.130 o
5 -2 -1 377.999 376.824 8.179 1.184 o
5 -1 -19 3.507 3.080 3.039 17.687 o
5 -1 -18 1.111 1.313 1.484 73.973 o
5 -1 -17 34.453 36.775 3.100 15.291 o
5 -1 -16 12.666 15.005 2.514 24.829 o
5 -1 -15 19.077 16.156 2.403 26.437 o
5 -1 -14 13.153 13.662 1.838 44.743 o
5 -1 -13 86.203 85.575 2.635 13.987 o
5 -1 -12 10.146 8.340 1.525 65.215 o
5 -1 -11 198.221 200.453 3.211 5.166 o
5 -1 -10 41.082 39.945 1.464 46.077 o
5 -1 -9 27.491 26.354 1.191 74.791 o
5 -1 -8 53.140 51.254 1.121 48.632 o
5 -1 -7 518.305 515.775 3.251 1.152 o
5 -1 -6 30.579 30.050 0.878 97.215 o
5 -1 -5 86.670 85.424 1.313 25.072 o
5 -1 -4 396.202 398.726 2.817 1.885 o
5 -1 -3 1182.650 1179.780 6.523 0.233 o
5 -1 -2 196.227 189.457 1.605 7.116 o
5 -1 -1 713.591 695.700 3.463 0.645 o
5 0 0 22.924 22.830 0.656 157.527 o
5 0 1 18.750 19.417 0.717 166.484 o
5 0 2 186.269 185.721 2.333 6.723 o
5 0 3 1.772 1.333 0.909 192.682 o
5 0 4 506.118 479.384 3.463 1.224 o
5 0 5 35.210 30.373 1.585 45.943 o
5 0 6 66.704 62.503 2.100 22.102 o
5 0 7 4.837 4.382 1.060 135.883 o
5 0 8 182.441 185.136 2.353 6.840 o
5 0 9 4.206 3.615 1.101 128.092 o
5 0 10 152.974 153.692 2.252 8.937 o
5 0 11 218.437 229.392 3.080 4.583 o
5 0 12 0.135 0.424 0.899 202.664 o
5 0 13 1.177 0.545 0.979 168.582 o
5 0 14 0.208 0.030 1.676 58.478 o
5 0 15 61.115 66.925 2.625 16.863 o
5 0 16 2.444 2.696 1.919 44.149 o
5 1 0 591.048 578.257 3.847 0.897 o
5 1 1 41.991 39.138 1.060 64.049 o
5 1 2 625.892 616.021 4.301 0.792 o
5 1 3 38.401 38.421 1.383 51.105 o
5 1 4 9.237 7.432 0.838 187.550 o
5 1 5 132.734 131.296 2.060 11.365 o
5 1 6 246.333 241.832 3.534 3.724 o
5 1 7 80.057 76.548 1.757 22.709 o
5 1 8 21.326 19.589 1.171 86.228 o
5 1 9 74.603 72.449 1.757 24.158 o
5 1 10 60.729 58.525 1.949 25.561 o
5 1 11 52.097 54.455 2.019 26.405 o
5 1 12 48.579 51.113 1.777 32.320 o
5 1 13 95.633 103.064 2.484 13.470 o
5 1 14 0.369 0.050 1.343 90.959 o
5 1 15 6.616 5.877 1.848 46.498 o
5 1 16 9.369 8.613 2.181 33.266 o
5 2 0 234.049 235.209 2.141 4.868 o
5 2 1 157.107 151.319 1.828 9.683 o
5 2 2 522.807 494.015 4.039 1.124 o
5 2 3 175.793 167.627 2.666 6.923 o
5 2 4 1157.060 1119.210 6.513 0.247 o
5 2 5 8.516 7.987 1.181 105.209 o
5 2 6 6.256 6.129 1.080 127.884 o
5 2 7 27.142 26.506 1.303 66.624 o
5 2 8 143.594 145.180 2.484 9.083 o
5 2 9 115.875 118.887 2.423 11.679 o
5 2 10 115.347 117.715 2.191 12.732 o
5 2 11 12.926 11.127 1.323 81.419 o
5 2 12 20.858 20.447 1.767 44.970 o
5 2 13 1.479 1.151 1.091 135.642 o
5 2 14 4.245 2.817 1.696 55.831 o
5 2 15 4.332 2.272 2.595 24.184 o
5 2 16 1.662 0.414 2.120 36.402 o
5 3 0 502.102 486.290 3.110 1.248 o
5 3 1 39.978 39.521 1.171 59.792 o
5 3 2 866.767 855.612 5.442 0.424 o
5 3 3 62.414 63.553 1.787 27.253 o
5 3 4 71.252 67.400 2.019 22.000 o
5 3 5 24.494 22.931 1.060 92.480 o
5 3 6 406.914 416.154 4.261 1.605 o
5 3 7 20.678 19.347 1.232 80.821 o
5 3 8 22.914 22.022 1.353 67.570 o
5 3 9 25.155 23.527 1.484 57.058 o
5 3 10 40.204 38.845 1.757 36.860 o
5 3 11 0.637 -0.010 0.434 841.188 o
5 3 12 35.073 33.150 1.939 33.805 o
5 3 13 5.850 4.322 2.009 39.745 o
5 3 14 2.533 1.666 2.009 40.340 o
5 3 15 23.278 28.303 3.292 14.265 o
5 4 0 281.730 281.727 2.625 3.416 o
5 4 1 117.255 111.687 1.626 15.416 o
5 4 2 440.659 435.601 3.504 1.516 o
5 4 3 21.153 18.852 1.121 92.455 o
5 4 4 732.016 721.287 6.836 0.541 o
5 4 5 29.048 27.859 1.444 56.150 o
5 4 6 35.427 34.079 1.414 52.528 o
5 4 7 48.477 46.983 1.878 30.630 o
5 4 8 146.759 147.159 3.130 7.424 o
5 4 9 1.083 1.282 1.535 69.241 o
5 4 10 52.386 52.708 2.302 22.149 o
5 4 11 6.699 3.999 1.888 44.747 o
5 4 12 15.602 12.349 2.464 25.682 o
5 4 13 4.660 3.342 2.555 24.904 o
5 4 14 7.256 7.068 2.555 24.666 o
5 4 15 11.949 10.865 2.474 25.815 o
5 5 0 434.059 436.954 3.272 1.563 o
5 5 1 16.632 14.934 0.909 136.410 o
5 5 2 179.818 173.291 2.131 7.474 o
5 5 3 23.050 20.235 1.242 77.319 o
5 5 4 86.588 86.737 1.767 20.568 o
5 5 5 18.246 16.782 1.202 87.593 o
5 5 6 151.706 144.847 2.393 8.905 o
5 5 7 54.974 54.011 1.757 30.720 o
5 5 8 15.776 14.651 1.696 50.802 o
5 5 9 47.779 44.893 2.151 25.705 o
5 5 10 36.658 35.755 2.131 28.652 o
5 5 11 4.924 4.837 2.181 33.923 o
5 5 12 3.976 2.363 2.211 33.212 o
5 5 13 15.787 17.105 2.827 19.627 o
5 5 14 5.983 5.039 3.292 15.028 o
5 5 15 13.252 13.106 3.140 16.191 o
5 6 0 225.849 224.929 2.585 4.859 o
5 6 1 31.117 31.756 1.282 63.106 o
5 6 2 300.149 296.469 3.049 2.966 o
5 6 3 20.987 19.175 1.232 80.615 o
5 6 4 312.328 301.437 3.817 2.585 o
5 6 5 8.156 7.624 1.393 78.290 o
5 6 6 14.292 12.753 1.282 84.091 o
5 6 7 6.741 6.099 1.303 90.245 o
5 6 8 36.677 35.341 1.989 31.926 o
5 6 9 22.602 23.759 2.343 26.937 o
5 6 10 9.156 6.573 2.161 34.007 o
5 6 12 0.969 -0.222 1.000 162.819 o
5 6 13 1.748 1.444 2.736 21.879 o
5 6 14 2.050 2.393 2.262 31.911 o
5 7 0 63.451 59.161 1.474 33.181 o
5 7 1 57.394 58.242 1.505 34.726 o
5 7 2 123.307 119.775 2.009 12.738 o
5 7 3 45.948 42.682 1.626 38.245 o
5 7 4 25.166 23.931 1.484 56.949 o
5 7 5 48.112 46.559 2.040 27.506 o
5 7 6 164.770 165.001 3.342 6.229 o
5 7 7 30.633 26.273 1.959 34.960 o
5 7 8 22.847 23.699 2.413 25.510 o
5 7 9 24.687 20.861 3.736 11.270 o
5 7 10 22.379 19.639 3.766 11.151 o
5 7 11 4.519 4.059 3.726 11.777 o
5 7 12 7.704 6.553 3.675 12.045 o
5 7 13 8.422 7.977 3.534 12.993 o
5 8 0 20.438 18.539 1.191 85.564 o
5 8 1 46.666 45.226 1.505 41.133 o
5 8 2 62.067 57.303 1.656 30.381 o
5 8 3 85.197 81.829 1.919 19.789 o
5 8 4 188.292 188.791 2.746 6.088 o
5 8 5 22.130 21.720 1.626 51.024 o
5 8 6 58.745 60.534 2.141 22.930 o
5 8 7 55.121 54.455 2.494 19.340 o
5 8 8 57.199 60.766 2.635 17.370 o
5 8 9 1.979 0.777 1.242 104.787 o
5 8 10 37.333 37.764 4.362 8.107 o
5 8 11 4.963 0.545 6.048 4.487 o
5 8 12 4.783 5.220 3.817 11.217 o
5 9 0 110.907 105.124 2.110 14.045 o
5 9 1 14.849 11.582 1.282 84.115 o
5 9 2 17.051 14.207 1.494 62.906 o
5 9 3 5.888 5.342 1.434 76.010 o
5 9 4 6.909 6.119 1.363 82.787 o
5 9 5 59.551 61.281 1.989 24.908 o
5 9 6 39.140 38.653 1.828 35.182 o
5 9 7 3.714 1.919 1.444 76.844 o
5 9 8 37.445 37.148 2.131 28.406 o
5 9 9 31.781 28.848 2.898 17.614 o
5 9 10 29.977 33.453 3.070 15.849 o
5 9 11 1.650 0.919 1.525 70.020 o
5 10 0 7.246 6.321 1.484 70.337 o
5 10 1 3.207 1.666 1.616 61.886 o
5 10 2 45.724 44.792 2.070 27.527 o
5 10 3 4.785 3.211 1.585 63.475 o
5 10 4 57.288 56.394 2.666 17.254 o
5 10 5 0.666 0.111 0.323 1464.240 o
5 10 6 7.429 5.291 1.737 52.269 o
5 10 7 0.646 -0.121 0.979 170.157 o
5 10 8 20.956 19.114 2.322 27.803 o
5 10 9 0.271 -0.565 1.535 69.719 o
5 10 10 14.733 14.106 2.524 24.524 o
5 11 0 10.076 8.431 1.656 55.958 o
5 11 1 9.179 7.462 1.666 55.751 o
5 11 2 43.392 41.642 2.141 26.856 o
5 11 3 11.497 9.047 1.787 48.081 o
5 11 4 1.207 -0.081 0.808 246.952 o
5 11 5 2.874 0.616 1.030 149.867 o
5 11 6 23.487 19.962 2.060 34.012 o
5 11 7 5.987 4.806 2.534 25.188 o
5 11 8 8.076 5.160 3.231 15.544 o
5 12 0 20.227 19.064 2.312 28.108 o
5 12 1 4.333 2.736 2.181 34.079 o
5 12 2 2.443 1.888 2.383 28.760 o
5 12 3 0.834 0.545 5.957 4.632 o
5 12 4 61.660 62.786 3.009 13.891 o
5 12 5 5.408 4.726 3.373 14.336 o
5 12 6 6.135 4.524 3.534 13.056 o
5 13 0 13.841 11.491 3.080 16.822 o
5 13 1 3.584 2.757 3.474 13.563 o
5 13 2 26.563 28.505 3.130 15.541 o
5 13 3 2.020 0.020 0.071 5922.230 o
6 -13 -5 28.724 26.889 4.362 8.285 o
6 -13 -4 15.448 17.610 4.211 9.079 o
6 -13 -3 2.636 0.131 0.909 191.979 o
6 -12 -8 8.164 5.160 4.604 7.705 o
6 -12 -7 32.321 29.010 4.201 8.840 o
6 -12 -6 2.166 2.827 3.332 14.755 o
6 -12 -5 0.851 0.535 3.564 12.930 o
6 -12 -4 16.893 14.237 3.797 11.117 o
6 -11 -11 8.717 5.251 4.665 7.505 o
6 -11 -10 18.041 18.438 4.160 9.262 o
6 -11 -9 3.460 0.485 3.332 14.753 o
6 -11 -8 7.503 7.896 3.413 13.937 o
6 -11 -7 22.301 22.083 4.059 9.636 o
6 -11 -6 9.695 8.411 3.524 13.042 o
6 -11 -5 29.815 29.121 4.009 9.699 o
6 -11 -1 25.832 25.213 3.686 11.498 o
6 -10 -13 35.528 37.683 4.695 7.076 o
6 -10 -12 12.440 10.259 4.241 9.016 o
6 -10 -11 14.345 13.490 3.787 11.219 o
6 -10 -10 2.541 2.908 3.655 12.265 o
6 -10 -9 57.827 65.189 5.049 5.842 o
6 -10 -8 12.025 11.622 3.443 13.574 o
6 -10 -7 14.049 13.369 3.383 13.989 o
6 -10 -6 39.566 34.099 3.938 9.801 o
6 -10 -5 4.009 5.685 2.989 18.237 o
6 -10 -4 24.326 22.638 4.120 9.333 o
6 -10 -3 1.456 0.818 2.423 27.901 o
6 -10 -2 8.021 5.261 2.343 29.227 o
6 -10 -1 68.710 71.409 3.342 11.311 o
6 -9 -14 4.779 3.241 3.827 11.169 o
6 -9 -13 6.729 4.291 3.776 11.440 o
6 -9 -12 4.798 5.039 3.898 10.761 o
6 -9 -11 66.309 65.259 5.029 5.797 o
6 -9 -10 7.969 8.785 3.312 14.769 o
6 -9 -9 24.010 22.194 3.716 11.388 o
6 -9 -8 29.215 29.636 3.686 11.374 o
6 -9 -7 37.927 38.431 2.888 17.080 o
6 -9 -6 29.650 30.777 2.726 19.727 o
6 -9 -5 42.575 42.258 4.322 8.141 o
6 -9 -4 7.876 6.331 3.070 17.188 o
6 -9 -3 39.642 34.664 3.867 10.127 o
6 -9 -2 59.655 61.180 2.908 14.809 o
6 -9 -1 44.203 43.863 2.716 18.290 o
6 -8 -14 1.089 0.313 8.068 2.526 o
6 -8 -13 44.313 41.884 4.544 7.398 o
6 -8 -12 9.465 6.977 3.776 11.391 o
6 -8 -11 13.966 12.410 3.453 13.449 o
6 -8 -10 9.349 7.745 3.241 15.390 o
6 -8 -9 16.255 15.176 3.322 14.411 o
6 -8 -8 13.354 13.642 2.292 29.600 o
6 -8 -7 104.899 107.366 3.686 8.037 o
6 -8 -6 20.255 20.568 2.282 28.703 o
6 -8 -5 14.221 12.188 3.352 14.246 o
6 -8 -4 77.148 80.214 4.574 6.574 o
6 -8 -3 121.173 125.056 5.220 4.547 o
6 -8 -2 34.525 34.967 2.333 25.075 o
6 -8 -1 76.656 75.892 2.918 13.207 o
6 -7 -14 9.391 6.806 3.574 12.699 o
6 -7 -13 5.503 2.817 3.120 16.746 o
6 -7 -12 2.298 1.595 3.140 16.615 o
6 -7 -11 84.493 81.173 4.958 5.642 o
6 -7 -10 33.599 35.735 2.676 19.908 o
6 -7 -9 50.802 49.810 2.827 16.463 o
6 -7 -8 62.884 62.765 2.918 14.476 o
6 -7 -7 1.162 1.525 2.131 36.054 o
6 -7 -6 115.932 113.535 3.362 8.521 o
6 -7 -5 268.296 283.666 6.927 1.891 o
6 -7 -4 25.508 23.406 2.959 17.421 o
6 -7 -3 16.279 16.590 2.787 20.161 o
6 -7 -2 113.345 107.840 2.969 10.048 o
6 -7 -1 131.869 126.631 3.171 8.228 o
6 -6 -16 1.583 1.171 3.423 14.005 o
6 -6 -14 0.265 -0.424 1.787 51.433 o
6 -6 -13 139.624 139.819 4.150 5.769 o
6 -6 -12 12.732 13.359 3.221 15.422 o
6 -6 -11 25.600 26.031 3.433 13.145 o
6 -6 -10 5.796 4.493 2.060 37.861 o
6 -6 -9 126.704 131.387 3.635 7.182 o
6 -6 -8 65.200 62.149 2.686 16.188 o
6 -6 -7 119.107 119.543 3.292 8.503 o
6 -6 -6 43.060 40.228 2.252 25.020 o
6 -6 -5 3.841 4.615 2.312 30.334 o
6 -6 -4 68.213 68.692 3.665 9.845 o
6 -6 -3 167.641 166.375 4.857 4.193 o
6 -6 -2 202.638 196.283 5.069 3.460 o
6 -6 -1 16.593 11.117 2.393 27.104 o
6 -5 -18 1.433 0.131 1.838 48.451 o
6 -5 -16 1.837 -0.242 1.767 52.319 o
6 -5 -15 31.616 28.465 2.787 18.915 o
6 -5 -14 18.013 15.005 1.989 37.661 o
6 -5 -13 0.290 0.010 0.071 20046.200 o
6 -5 -12 19.489 18.347 1.787 44.775 o
6 -5 -11 267.120 275.063 3.615 3.220 o
6 -5 -10 10.370 9.078 1.282 88.829 o
6 -5 -9 108.893 107.063 2.514 12.186 o
6 -5 -8 31.011 28.576 1.989 33.782 o
6 -5 -7 147.779 143.958 3.322 7.049 o
6 -5 -6 179.353 181.834 3.585 5.344 o
6 -5 -5 272.143 255.625 5.291 2.523 o
6 -5 -4 66.466 66.683 3.090 12.977 o
6 -5 -3 53.259 48.942 2.858 16.049 o
6 -5 -2 265.359 260.795 5.170 2.603 o
6 -5 -1 179.786 171.797 4.271 4.618 o
6 -4 -18 6.133 2.534 5.129 6.228 o
6 -4 -17 17.468 18.216 2.989 17.558 o
6 -4 -16 2.750 1.959 1.898 45.092 o
6 -4 -15 16.652 14.480 2.605 22.960 o
6 -4 -14 4.478 3.847 2.211 33.102 o
6 -4 -13 118.808 121.270 3.110 9.023 o
6 -4 -12 5.809 3.272 1.656 58.022 o
6 -4 -11 70.402 69.844 2.019 21.942 o
6 -4 -10 27.311 26.213 1.262 69.524 o
6 -4 -9 109.280 103.882 1.696 16.514 o
6 -4 -8 11.816 9.370 0.979 137.779 o
6 -4 -7 517.033 521.682 4.110 1.099 o
6 -4 -6 8.940 9.704 0.969 145.819 o
6 -4 -5 105.895 101.963 1.848 16.179 o
6 -4 -4 48.411 45.327 1.757 33.613 o
6 -4 -3 380.365 377.592 3.706 1.903 o
6 -4 -2 47.239 45.711 1.969 29.139 o
6 -4 -1 79.682 75.417 7.997 2.416 o
6 -3 -19 3.766 1.131 5.675 5.098 o
6 -3 -18 26.394 28.848 3.272 14.316 o
6 -3 -17 23.913 23.547 3.130 15.743 o
6 -3 -16 2.531 2.353 2.444 27.343 o
6 -3 -15 33.332 30.141 2.807 18.510 o
6 -3 -14 30.376 27.687 2.585 21.748 o
6 -3 -13 8.216 7.008 1.717 53.021 o
6 -3 -12 17.845 14.429 1.464 64.655 o
6 -3 -11 131.338 131.983 2.464 10.151 o
6 -3 -10 6.279 4.867 0.919 172.364 o
6 -3 -9 247.771 246.316 2.928 4.026 o
6 -3 -8 108.467 110.263 1.919 15.024 o
6 -3 -7 65.665 64.876 1.484 31.384 o
6 -3 -6 44.487 44.307 1.232 52.211 o
6 -3 -5 1223.330 1214.500 5.533 0.223 o
6 -3 -4 25.258 22.164 1.151 82.682 o
6 -3 -3 176.621 171.080 3.110 6.177 o
6 -3 -2 180.861 173.847 3.009 6.165 o
6 -3 -1 196.957 186.549 2.868 5.738 o
6 -2 -19 4.668 3.847 3.332 14.704 o
6 -2 -18 2.667 1.545 3.221 15.789 o
6 -2 -17 12.982 13.197 4.150 9.389 o
6 -2 -16 57.004 60.877 3.423 11.554 o
6 -2 -15 27.261 26.284 2.736 19.909 o
6 -2 -14 1.175 0.050 0.929 187.666 o
6 -2 -13 176.138 186.792 3.988 4.874 o
6 -2 -12 65.544 66.885 2.019 22.966 o
6 -2 -11 87.232 87.211 2.070 17.847 o
6 -2 -10 44.353 40.511 1.494 43.404 o
6 -2 -9 168.745 168.091 2.040 8.215 o
6 -2 -8 2.816 3.150 0.788 244.804 o
6 -2 -7 715.183 709.685 4.534 0.615 o
6 -2 -6 66.012 64.482 1.515 30.805 o
6 -2 -5 39.032 39.218 1.060 66.741 o
6 -2 -4 90.679 92.603 1.505 21.645 o
6 -2 -3 145.308 138.778 2.181 9.940 o
6 -2 -2 116.854 106.871 1.858 14.620 o
6 -2 -1 167.737 151.945 2.040 8.658 o
6 -1 -19 2.140 1.919 1.929 43.792 o
6 -1 -18 22.097 23.355 4.554 7.707 o
6 -1 -17 11.968 12.743 3.928 10.477 o
6 -1 -16 28.128 31.847 4.291 8.524 o
6 -1 -15 56.546 55.142 3.312 12.335 o
6 -1 -14 3.102 1.747 2.050 38.712 o
6 -1 -13 2.111 1.555 2.221 33.102 o
6 -1 -12 8.042 8.563 1.525 66.065 o
6 -1 -11 214.149 221.951 3.433 4.443 o
6 -1 -10 15.459 13.722 1.333 77.567 o
6 -1 -9 93.143 93.270 1.575 20.545 o
6 -1 -8 46.167 46.357 1.343 46.448 o
6 -1 -7 419.082 409.944 2.767 1.742 o
6 -1 -6 77.403 75.720 1.292 29.134 o
6 -1 -5 535.012 527.548 3.171 1.098 o
6 -1 -4 57.922 56.192 1.313 39.416 o
6 -1 -3 262.363 244.922 3.171 3.685 o
6 -1 -2 753.689 743.642 3.625 0.576 o
6 -1 -1 82.754 78.184 1.222 28.070 o
6 0 0 1369.300 1348.010 5.241 0.181 o
6 0 1 265.714 253.778 1.807 4.199 o
6 0 2 41.312 42.873 1.212 55.654 o
6 0 3 93.319 92.633 1.656 19.919 o
6 0 4 1258.310 1209.980 6.917 0.211 o
6 0 5 84.818 87.029 3.494 9.687 o
6 0 6 390.608 399.443 3.554 1.815 o
6 0 7 46.334 45.994 1.434 43.364 o
6 0 8 3.836 2.969 1.070 136.024 o
6 0 9 10.715 8.149 1.222 96.874 o
6 0 10 39.276 37.885 1.505 45.822 o
6 0 11 0.273 0.717 1.424 80.847 o
6 0 12 37.122 34.069 1.818 36.617 o
6 0 13 0.298 0.979 1.454 77.461 o
6 0 14 2.175 2.242 1.807 49.759 o
6 0 15 3.848 3.080 2.141 35.389 o
6 1 0 46.456 48.286 1.171 52.066 o
6 1 1 484.833 466.893 2.959 1.343 o
6 1 2 555.345 542.634 3.877 1.001 o
6 1 3 151.730 148.644 2.555 8.449 o
6 1 4 156.539 149.876 2.635 8.041 o
6 1 5 71.952 70.662 1.999 21.867 o
6 1 6 95.472 93.179 1.878 17.860 o
6 1 7 23.137 21.689 1.191 81.249 o
6 1 8 148.270 148.583 2.262 9.294 o
6 1 9 102.541 107.668 2.161 14.449 o
6 1 10 3.822 4.110 1.363 85.256 o
6 1 11 9.929 7.371 1.545 63.937 o
6 1 12 50.194 53.072 1.807 30.998 o
6 1 13 5.640 5.594 1.333 87.361 o
6 1 14 27.834 30.262 1.807 40.009 o
6 1 15 10.515 10.865 3.130 16.407 o
6 2 0 159.433 162.608 1.626 9.590 o
6 2 1 8.642 7.422 0.757 222.727 o
6 2 2 4.910 4.958 1.040 140.221 o
6 2 3 8.598 7.512 1.212 100.697 o
6 2 4 215.147 213.479 3.231 4.672 o
6 2 5 113.317 115.605 2.191 12.985 o
6 2 6 497.735 495.045 3.887 1.198 o
6 2 7 40.508 41.652 1.565 42.330 o
6 2 8 3.940 2.555 1.060 138.645 o
6 2 9 12.023 11.117 1.424 72.108 o
6 2 10 145.756 152.602 2.888 7.881 o
6 2 11 13.392 12.016 1.605 57.407 o
6 2 12 6.985 5.756 1.686 55.366 o
6 2 13 8.465 7.129 1.505 67.859 o
6 2 14 1.296 0.242 1.888 45.918 o
6 2 15 1.223 0.939 2.736 21.905 o
6 3 0 9.144 7.563 0.777 211.242 o
6 3 1 47.067 44.832 1.363 45.673 o
6 3 2 73.581 70.015 1.666 25.812 o
6 3 3 112.345 110.364 2.585 11.535 o
6 3 4 78.995 75.518 2.353 17.136 o
6 3 5 52.351 49.184 2.171 24.325 o
6 3 6 31.030 29.040 1.626 46.177 o
6 3 7 0.780 1.000 1.262 102.310 o
6 3 8 188.014 190.952 2.837 5.954 o
6 3 9 33.528 30.504 1.646 44.150 o
6 3 10 2.332 2.201 1.454 76.351 o
6 3 11 55.921 60.049 2.211 22.417 o
6 3 12 42.203 46.559 2.615 19.512 o
6 3 13 5.613 5.099 2.676 22.644 o
6 3 14 6.772 8.613 2.333 29.440 o
6 3 15 11.194 11.541 2.484 25.644 o
6 4 0 544.916 527.387 4.120 1.028 o
6 4 1 23.578 24.072 1.181 80.571 o
6 4 2 101.960 102.812 2.050 15.384 o
6 4 3 15.685 13.440 1.202 91.919 o
6 4 4 277.059 274.366 4.221 2.858 o
6 4 5 58.614 57.131 1.636 31.754 o
6 4 6 171.641 165.224 2.605 7.209 o
6 4 7 32.609 30.989 1.797 38.917 o
6 4 8 5.973 5.271 1.505 69.331 o
6 4 9 20.120 18.206 1.828 42.920 o
6 4 10 44.941 45.721 2.393 22.211 o
6 4 11 3.917 2.706 1.929 43.477 o
6 4 12 34.192 35.684 3.029 15.973 o
6 4 13 22.722 23.689 3.070 16.376 o
6 4 14 3.825 2.333 2.363 29.146 o
6 5 0 19.477 18.155 1.101 97.457 o
6 5 1 85.865 84.424 1.424 24.255 o
6 5 2 239.905 235.552 2.635 4.434 o
6 5 3 79.468 82.092 1.777 22.093 o
6 5 4 57.009 52.163 1.838 28.885 o
6 5 5 0.602 -0.283 0.646 387.648 o
6 5 6 56.952 53.112 2.009 25.807 o
6 5 7 4.621 3.898 1.383 82.488 o
6 5 8 75.102 78.033 2.504 16.156 o
6 5 9 4.937 3.978 1.656 58.168 o
6 5 10 42.305 42.954 2.363 23.136 o
6 5 11 79.565 86.383 3.665 9.209 o
6 5 12 21.059 21.709 2.817 19.367 o
6 5 13 4.292 4.372 3.130 16.649 o
6 5 14 25.017 26.405 3.241 14.658 o
6 6 0 306.030 301.427 2.817 2.951 o
6 6 1 13.877 12.824 1.040 118.696 o
6 6 2 39.084 39.057 1.373 50.996 o
6 6 3 2.500 1.939 1.080 136.207 o
6 6 4 79.619 76.518 2.030 19.941 o
6 6 5 22.722 21.942 1.626 50.753 o
6 6 6 138.409 133.397 2.938 8.437 o
6 6 7 19.383 16.984 1.737 47.293 o
6 6 8 7.261 4.796 2.030 38.758 o
6 6 9 18.040 16.216 2.312 28.500 o
6 6 10 67.217 65.926 3.302 11.707 o
6 6 12 45.301 50.255 3.463 11.938 o
6 6 13 12.148 11.380 3.120 16.455 o
6 7 0 1.879 1.595 0.929 184.067 o
6 7 1 6.861 5.806 1.060 131.641 o
6 7 2 67.643 64.472 1.717 27.071 o
6 7 3 8.787 7.916 1.171 106.572 o
6 7 4 68.214 64.512 2.030 22.595 o
6 7 5 14.042 13.551 1.353 76.674 o
6 7 6 43.700 43.075 2.242 24.901 o
6 7 7 0.519 -0.283 1.212 111.570 o
6 7 8 95.280 93.512 5.170 5.074 o
6 7 9 29.656 27.404 3.847 10.504 o
6 7 10 3.206 3.342 3.261 15.376 o
6 7 11 29.877 30.736 4.443 7.964 o
6 7 12 13.296 12.915 4.029 9.951 o
6 7 13 0.015 -0.151 26.455 0.235 o
6 8 0 135.724 135.063 2.262 10.410 o
6 8 1 8.387 9.138 1.191 103.155 o
6 8 2 76.078 75.488 1.919 21.720 o
6 8 3 8.304 6.967 1.242 96.820 o
6 8 4 105.180 105.790 2.302 13.545 o
6 8 5 1.556 0.596 1.696 56.734 o
6 8 6 81.913 79.790 2.777 13.620 o
6 8 7 22.542 20.235 2.100 33.000 o
6 8 8 21.173 20.457 2.161 31.556 o
6 8 9 3.716 2.423 2.969 18.537 o
6 8 10 12.929 11.683 2.686 21.956 o
6 8 11 6.938 7.321 2.807 20.511 o
6 8 12 9.321 8.734 2.999 17.913 o
6 9 0 63.800 63.523 1.868 25.704 o
6 9 1 88.345 86.090 2.070 17.778 o
6 9 2 78.510 78.588 2.060 19.656 o
6 9 3 17.806 17.206 1.505 61.082 o
6 9 4 59.919 61.998 2.009 24.479 o
6 9 5 3.706 2.252 1.373 84.639 o
6 9 6 49.984 49.053 2.272 23.138 o
6 9 7 7.939 7.119 1.818 47.597 o
6 9 8 13.812 13.551 2.120 34.217 o
6 9 9 14.392 15.843 2.847 19.457 o
6 9 10 11.989 10.107 2.827 19.963 o
6 10 0 101.855 99.399 2.635 12.364 o
6 10 1 68.210 65.885 2.444 17.942 o
6 10 2 32.721 30.656 1.737 41.012 o
6 10 3 14.011 13.137 1.696 51.597 o
6 10 4 62.234 61.079 2.393 19.353 o
6 10 5 12.725 10.400 1.828 45.679 o
6 10 6 37.432 38.400 2.211 26.692 o
6 10 7 0.917 0.000 0.434 827.972 o
6 10 8 0.443 0.232 1.010 160.321 o
6 11 0 8.451 5.281 1.787 49.243 o
6 11 1 20.452 16.651 1.848 42.213 o
6 11 2 45.299 44.398 2.252 24.415 o
6 11 3 36.537 36.361 2.211 26.975 o
6 11 4 13.597 12.258 1.919 41.382 o
6 11 5 0.096 1.434 3.474 13.619 o
6 11 6 1.136 0.394 0.889 204.441 o
6 11 7 9.274 7.674 3.766 11.449 o
6 12 0 41.225 40.854 2.252 25.233 o
6 12 1 35.862 38.663 2.272 25.760 o
6 12 2 0.896 1.161 3.049 17.652 o
6 12 3 0.524 -0.454 1.212 111.565 o
6 12 4 8.511 6.109 2.646 22.994 o
6 12 5 13.595 12.036 2.716 21.443 o
6 13 0 3.673 1.888 3.696 11.992 o
6 13 1 1.047 -0.616 1.323 93.365 o
7 -12 -8 11.411 9.532 4.615 7.640 o
7 -12 -7 5.193 2.979 4.433 8.334 o
7 -12 -6 24.070 21.689 4.211 8.958 o
7 -12 -5 8.383 7.624 4.160 9.413 o
7 -12 -4 7.320 8.441 3.908 10.662 o
7 -11 -11 1.192 0.131 1.262 102.326 o
7 -11 -10 4.063 2.615 3.645 12.316 o
7 -11 -9 18.549 18.842 4.251 8.872 o
7 -11 -8 23.791 21.063 4.120 9.351 o
7 -11 -7 14.943 14.601 3.827 10.972 o
7 -11 -6 23.186 23.386 3.978 9.994 o
7 -11 -5 10.922 8.401 3.413 13.867 o
7 -11 -1 0.955 0.586 28.616 0.201 o
7 -10 -13 8.137 4.968 4.372 8.540 o
7 -10 -12 2.660 2.009 8.381 2.340 o
7 -10 -11 20.008 21.174 4.281 8.722 o
7 -10 -10 4.477 4.201 3.968 10.389 o
7 -10 -9 29.005 24.173 3.938 10.089 o
7 -10 -7 10.616 9.492 3.251 15.246 o
7 -10 -6 62.790 71.479 3.655 10.015 o
7 -10 -5 85.047 88.544 3.857 8.343 o
7 -10 -4 36.392 34.977 4.514 7.630 o
7 -10 -3 7.264 6.856 3.918 10.617 o
7 -10 -2 24.194 20.306 4.110 9.395 o
7 -10 -1 19.482 18.559 2.110 33.326 o
7 -9 -14 3.128 3.948 4.655 7.568 o
7 -9 -13 12.413 9.451 3.898 10.652 o
7 -9 -12 12.098 6.301 3.867 10.841 o
7 -9 -11 13.112 12.713 3.514 13.014 o
7 -9 -10 12.262 13.157 3.776 11.311 o
7 -9 -9 55.812 53.001 4.655 6.866 o
7 -9 -8 36.621 37.966 3.070 15.428 o
7 -9 -7 46.683 44.731 3.060 14.833 o
7 -9 -6 22.443 22.204 2.625 21.967 o
7 -9 -5 78.424 81.880 5.170 5.314 o
7 -9 -4 27.741 30.908 3.948 10.004 o
7 -9 -3 77.445 79.790 4.958 5.734 o
7 -9 -2 34.336 35.926 4.100 9.170 o
7 -9 -1 13.130 11.289 2.211 31.836 o
7 -8 -15 16.489 18.751 4.322 8.612 o
7 -8 -14 2.036 1.545 6.382 4.035 o
7 -8 -13 7.633 7.119 3.726 11.721 o
7 -8 -12 14.372 17.347 3.655 11.986 o
7 -8 -11 94.657 95.956 5.604 4.429 o
7 -8 -10 2.466 3.585 2.767 21.344 o
7 -8 -9 24.886 24.729 2.686 20.811 o
7 -8 -8 22.166 20.892 2.454 24.948 o
7 -8 -7 139.288 144.070 4.231 5.602 o
7 -8 -6 1.560 1.414 2.019 40.069 o
7 -8 -5 54.941 63.300 4.443 7.402 o
7 -8 -4 70.321 70.682 4.615 6.650 o
7 -8 -3 12.596 11.642 3.130 16.335 o
7 -8 -2 90.754 94.612 4.978 5.447 o
7 -8 -1 25.851 22.780 2.292 27.679 o
7 -7 -15 9.784 6.796 3.847 10.978 o
7 -7 -14 12.609 11.289 3.716 11.684 o
7 -7 -13 36.008 32.998 4.190 8.797 o
7 -7 -12 3.421 2.393 3.494 13.412 o
7 -7 -11 2.100 2.353 3.302 15.031 o
7 -7 -10 33.611 33.210 3.847 10.368 o
7 -7 -9 157.646 162.083 4.352 4.950 o
7 -7 -8 5.498 6.170 2.019 39.281 o
7 -7 -7 13.928 13.742 2.030 37.096 o
7 -7 -6 60.678 64.310 2.847 15.113 o
7 -7 -5 51.167 50.962 3.958 9.289 o
7 -7 -4 85.001 86.151 4.503 6.569 o
7 -7 -3 76.340 75.539 4.190 7.660 o
7 -7 -2 32.706 34.422 3.393 13.091 o
7 -7 -1 12.403 10.047 1.949 40.617 o
7 -6 -14 17.432 16.489 3.675 11.812 o
7 -6 -13 11.450 14.217 3.393 13.957 o
7 -6 -12 20.738 21.659 3.534 12.615 o
7 -6 -11 61.138 61.533 3.039 13.743 o
7 -6 -10 14.604 14.268 2.141 33.461 o
7 -6 -9 12.559 10.723 2.100 35.207 o
7 -6 -8 3.876 3.574 1.777 50.972 o
7 -6 -7 96.072 92.654 3.120 10.652 o
7 -6 -6 34.675 36.129 2.252 26.474 o
7 -6 -5 144.881 148.098 5.200 4.189 o
7 -6 -4 39.503 36.522 3.272 13.689 o
7 -6 -3 16.694 17.327 2.837 19.445 o
7 -6 -2 66.299 62.614 3.595 10.321 o
7 -6 -1 88.021 80.496 2.565 14.497 o
7 -5 -18 3.124 0.061 1.494 72.459 o
7 -5 -16 62.582 73.277 5.281 5.308 o
7 -5 -15 22.524 23.537 3.948 10.151 o
7 -5 -14 0.737 -0.273 1.737 54.370 o
7 -5 -13 35.638 34.149 2.686 19.683 o
7 -5 -12 11.883 10.037 2.070 36.332 o
7 -5 -11 1.951 1.060 1.605 63.108 o
7 -5 -10 7.542 7.482 1.414 76.611 o
7 -5 -9 142.474 147.715 2.928 8.012 o
7 -5 -8 74.876 76.892 2.272 18.224 o
7 -5 -7 108.630 110.496 2.514 12.084 o
7 -5 -6 105.482 102.236 2.353 13.409 o
7 -5 -5 114.990 115.161 2.878 10.112 o
7 -5 -4 91.201 89.968 2.534 14.050 o
7 -5 -3 166.181 167.647 4.867 4.192 o
7 -5 -2 38.917 37.885 2.908 16.832 o
7 -5 -1 19.662 17.529 2.635 22.166 o
7 -4 -18 17.612 17.600 4.574 7.702 o
7 -4 -17 14.444 14.116 2.999 17.642 o
7 -4 -16 0.861 0.464 6.291 4.154 o
7 -4 -15 27.966 24.143 4.160 9.101 o
7 -4 -14 56.300 62.786 3.292 12.306 o
7 -4 -13 16.106 15.247 2.312 28.754 o
7 -4 -12 8.385 8.815 1.686 54.534 o
7 -4 -11 175.813 186.913 3.110 5.986 o
7 -4 -10 51.925 52.991 1.585 35.567 o
7 -4 -9 30.750 27.869 1.272 65.475 o
7 -4 -8 8.010 6.291 0.990 146.133 o
7 -4 -7 254.323 252.152 2.524 4.090 o
7 -4 -6 7.804 6.977 0.899 172.045 o
7 -4 -5 107.957 108.961 2.191 13.732 o
7 -4 -4 220.216 223.839 2.928 4.723 o
7 -4 -3 32.176 28.535 2.080 31.194 o
7 -4 -2 110.899 106.921 2.827 10.736 o
7 -4 -1 42.633 31.645 10.319 1.525 o
7 -3 -18 11.138 10.663 3.292 14.855 o
7 -3 -17 6.880 4.514 4.180 9.348 o
7 -3 -16 26.048 27.939 4.201 8.934 o
7 -3 -15 5.197 4.291 3.857 10.986 o
7 -3 -14 18.867 19.185 2.615 22.485 o
7 -3 -13 94.106 98.328 2.959 11.328 o
7 -3 -12 10.557 9.855 1.575 60.954 o
7 -3 -11 13.029 11.460 1.383 75.135 o
7 -3 -10 0.972 1.777 1.181 116.087 o
7 -3 -9 294.066 294.076 2.817 3.122 o
7 -3 -8 12.919 12.753 0.990 130.083 o
7 -3 -7 7.070 6.008 0.899 175.444 o
7 -3 -6 187.442 188.670 2.555 6.355 o
7 -3 -5 235.275 225.232 2.555 4.679 o
7 -3 -4 131.441 124.693 3.181 8.254 o
7 -3 -3 206.390 198.424 3.645 4.597 o
7 -3 -2 285.598 284.050 4.009 2.823 o
7 -3 -1 40.626 31.655 1.696 39.700 o
7 -2 -19 0.937 -0.020 0.111 7264.730 o
7 -2 -18 2.734 1.000 2.292 31.080 o
7 -2 -17 25.095 27.091 4.645 7.374 o
7 -2 -16 3.613 0.091 0.414 769.633 o
7 -2 -15 44.761 43.389 3.211 13.777 o
7 -2 -14 14.277 14.843 2.504 24.908 o
7 -2 -13 45.879 47.427 2.938 15.841 o
7 -2 -12 25.047 25.163 1.868 39.276 o
7 -2 -11 336.281 334.516 3.807 2.284 o
7 -2 -10 31.105 31.564 1.282 63.185 o
7 -2 -9 15.123 15.065 1.040 114.845 o
7 -2 -8 10.114 9.138 0.909 159.844 o
7 -2 -7 96.041 91.644 1.959 17.304 o
7 -2 -6 38.736 36.926 1.272 56.537 o
7 -2 -5 128.898 124.662 1.818 12.767 o
7 -2 -4 151.893 148.674 2.090 9.492 o
7 -2 -3 6.710 4.332 0.949 162.334 o
7 -2 -2 210.690 205.643 3.857 4.276 o
7 -2 -1 344.332 340.060 3.292 2.325 o
7 -1 -19 8.618 9.017 4.473 8.146 o
7 -1 -18 16.075 16.812 4.281 8.785 o
7 -1 -17 22.430 22.840 4.392 8.266 o
7 -1 -16 18.218 19.710 2.948 17.955 o
7 -1 -15 18.388 15.661 2.686 21.527 o
7 -1 -14 2.195 0.374 0.374 987.740 o
7 -1 -13 74.805 76.165 3.312 11.106 o
7 -1 -12 3.858 4.301 1.949 42.489 o
7 -1 -11 12.280 10.925 1.292 85.343 o
7 -1 -10 7.732 6.654 1.010 141.251 o
7 -1 -9 170.860 172.786 1.939 8.169 o
7 -1 -8 58.870 55.788 1.484 35.087 o
7 -1 -7 148.220 143.050 1.828 10.520 o
7 -1 -6 199.862 189.245 2.343 6.210 o
7 -1 -5 412.767 401.654 4.998 1.509 o
7 -1 -4 128.826 125.652 1.989 12.117 o
7 -1 -3 1100.500 1077.260 6.119 0.271 o
7 -1 -2 359.740 347.027 2.514 2.333 o
7 -1 -1 140.329 131.943 1.434 12.624 o
7 0 0 200.227 188.781 1.747 6.834 o
7 0 1 55.532 51.315 1.050 49.328 o
7 0 2 99.832 100.853 1.575 18.811 o
7 0 3 32.486 33.564 1.646 43.971 o
7 0 4 77.059 73.378 2.110 19.718 o
7 0 5 21.055 18.307 1.272 77.114 o
7 0 6 101.382 101.418 2.060 15.459 o
7 0 7 39.325 36.815 1.494 46.432 o
7 0 8 185.446 187.357 2.948 5.934 o
7 0 9 18.992 17.792 1.434 65.334 o
7 0 10 1.315 0.586 0.697 326.708 o
7 0 11 3.624 2.413 1.424 78.905 o
7 0 12 11.030 8.401 1.666 55.033 o
7 0 13 5.948 4.715 1.787 49.858 o
7 0 14 0.195 -0.364 2.151 35.532 o
7 1 0 388.633 385.074 2.555 2.001 o
7 1 1 67.845 62.190 1.171 36.942 o
7 1 2 97.334 95.279 1.605 19.437 o
7 1 3 29.129 26.617 1.232 70.098 o
7 1 4 69.274 66.087 1.787 25.496 o
7 1 5 21.019 19.720 1.474 60.841 o
7 1 6 44.112 42.823 1.454 44.398 o
7 1 7 12.943 12.652 1.202 95.149 o
7 1 8 31.166 30.252 1.666 44.252 o
7 1 9 7.329 6.614 1.484 70.233 o
7 1 10 51.627 52.062 2.444 20.431 o
7 1 11 65.385 70.520 2.474 17.705 o
7 1 12 0.860 1.919 1.393 83.811 o
7 1 13 31.130 33.200 2.272 26.759 o
7 1 14 16.973 19.882 2.161 32.187 o
7 2 0 83.130 79.537 1.737 22.084 o
7 2 1 47.250 45.711 1.454 42.371 o
7 2 2 878.983 867.366 5.261 0.416 o
7 2 3 133.867 128.621 2.302 10.604 o
7 2 4 16.549 15.964 1.313 77.871 o
7 2 5 15.458 15.055 1.060 111.039 o
7 2 6 199.756 196.566 3.070 5.324 o
7 2 7 26.918 24.052 1.727 44.281 o
7 2 8 97.543 101.469 2.787 11.844 o
7 2 9 35.015 36.785 2.211 27.168 o
7 2 10 16.302 16.025 1.959 38.954 o
7 2 11 22.461 21.810 2.151 31.533 o
7 2 12 22.253 21.134 1.989 36.279 o
7 2 13 16.409 17.862 2.050 35.691 o
7 2 14 1.797 3.655 1.939 43.268 o
7 3 0 734.952 715.996 4.635 0.590 o
7 3 1 207.652 198.706 2.393 5.790 o
7 3 2 0.057 0.151 0.364 1231.010 o
7 3 3 80.485 76.659 1.737 22.841 o
7 3 4 365.777 361.608 3.373 2.091 o
7 3 5 14.253 12.945 1.101 107.937 o
7 3 6 12.562 10.188 1.030 124.999 o
7 3 7 1.594 0.737 1.141 124.208 o
7 3 8 16.723 14.318 1.747 47.989 o
7 3 9 12.021 11.874 1.818 46.143 o
7 3 10 33.570 33.261 2.292 26.045 o
7 3 11 22.621 21.124 2.221 29.793 o
7 3 12 9.199 10.188 2.120 35.041 o
7 3 13 21.402 24.436 2.211 29.978 o
7 3 14 15.697 16.227 2.514 24.561 o
7 4 0 164.681 162.083 2.363 7.968 o
7 4 1 18.149 16.206 0.969 120.487 o
7 4 2 389.992 381.257 3.413 1.887 o
7 4 3 32.053 30.989 1.363 57.980 o
7 4 4 48.625 48.437 1.807 31.970 o
7 4 5 4.502 3.352 1.282 95.656 o
7 4 6 141.661 140.041 2.242 9.957 o
7 4 7 3.521 4.524 1.585 63.674 o
7 4 8 101.497 104.972 2.888 11.056 o
7 4 9 10.947 10.188 1.838 45.634 o
7 4 10 4.838 3.766 1.959 41.957 o
7 4 11 5.851 5.695 1.969 41.249 o
7 4 12 12.940 11.713 2.211 31.833 o
7 4 13 0.817 2.787 2.353 29.575 o
7 4 14 4.275 3.342 2.767 21.283 o
7 5 0 114.327 108.991 2.080 13.699 o
7 5 1 96.115 96.501 2.019 16.579 o
7 5 2 20.288 18.044 1.232 81.786 o
7 5 3 94.749 93.774 2.019 16.903 o
7 5 4 140.944 142.111 2.474 9.322 o
7 5 5 27.016 26.475 1.737 43.457 o
7 5 6 106.834 110.930 2.726 11.266 o
7 5 7 28.582 28.485 1.919 36.381 o
7 5 8 82.581 81.052 2.656 14.306 o
7 5 9 26.015 27.950 2.131 31.028 o
7 5 10 10.260 9.885 1.949 41.012 o
7 5 11 13.912 15.146 2.605 23.116 o
7 5 12 16.579 15.722 2.959 17.992 o
7 5 13 2.204 0.707 1.121 127.948 o
7 6 0 21.293 19.670 1.343 70.309 o
7 6 1 46.253 45.428 1.666 36.561 o
7 6 2 208.708 208.885 3.009 5.048 o
7 6 3 61.890 61.241 2.242 21.131 o
7 6 4 41.252 40.925 2.080 28.471 o
7 6 5 15.259 13.147 1.747 48.575 o
7 6 6 87.706 87.817 2.292 16.069 o
7 6 7 58.508 55.980 2.847 15.544 o
7 6 8 42.141 42.318 2.767 17.949 o
7 6 9 6.640 6.392 2.605 23.787 o
7 6 10 20.233 21.376 2.666 21.533 o
7 6 11 3.204 2.787 2.757 21.487 o
7 6 12 4.972 3.564 3.140 16.537 o
7 7 0 171.803 165.880 2.757 6.945 o
7 7 1 158.239 157.125 2.817 7.471 o
7 7 2 37.266 38.764 1.777 37.126 o
7 7 3 89.213 86.605 2.312 15.835 o
7 7 4 77.283 79.214 2.333 17.292 o
7 7 5 79.117 79.163 2.746 14.031 o
7 7 6 19.540 18.236 1.959 38.104 o
7 7 7 26.554 28.576 2.726 20.013 o
7 7 8 9.633 8.724 2.393 27.785 o
7 7 9 7.718 7.654 2.423 27.293 o
7 7 10 16.673 17.479 2.888 18.800 o
7 7 11 3.130 2.575 2.585 24.420 o
7 7 12 0.130 1.757 2.383 28.901 o
7 8 0 99.298 101.883 2.403 13.664 o
7 8 1 31.015 28.071 1.727 42.328 o
7 8 2 132.554 134.851 2.817 8.981 o
7 8 3 25.411 25.809 1.787 42.059 o
7 8 4 0.526 0.464 0.878 210.811 o
7 8 5 34.353 33.473 1.989 32.595 o
7 8 6 8.782 8.149 1.706 53.305 o
7 8 7 5.004 3.645 2.333 29.768 o
7 8 8 45.355 47.811 3.352 12.677 o
7 8 9 1.598 0.020 0.374 1044.130 o
7 8 10 3.917 0.384 1.747 53.056 o
7 8 11 2.088 1.131 2.514 25.889 o
7 9 0 51.057 49.790 1.828 30.762 o
7 9 1 23.265 18.367 1.656 49.694 o
7 9 2 2.392 0.232 0.737 287.621 o
7 9 3 29.978 26.354 1.939 35.691 o
7 9 4 27.680 25.324 1.959 35.691 o
7 9 5 5.357 4.342 1.939 42.694 o
7 9 6 39.145 40.460 2.262 25.371 o
7 9 7 1.678 0.091 0.525 557.571 o
7 9 8 4.475 5.412 2.211 33.032 o
7 9 9 3.579 2.625 2.575 24.589 o
7 9 10 19.044 22.325 2.545 23.530 o
7 10 0 9.199 6.644 1.737 51.649 o
7 10 1 2.646 2.262 1.919 44.151 o
7 10 2 23.948 21.639 1.929 37.860 o
7 10 3 2.233 0.949 1.666 58.591 o
7 10 4 21.841 20.902 1.989 36.381 o
7 10 5 0.121 0.384 5.180 6.128 o
7 10 6 29.994 31.433 2.201 28.507 o
7 10 7 8.181 7.230 2.625 23.330 o
7 10 8 29.723 29.989 2.585 21.706 o
7 11 0 16.106 14.833 2.242 30.493 o
7 11 1 2.715 3.403 2.393 28.456 o
7 11 2 2.590 0.717 2.413 28.073 o
7 11 3 2.958 1.525 11.158 1.320 o
7 11 4 9.700 9.300 2.413 27.310 o
7 11 5 16.758 17.115 2.585 23.203 o
7 11 6 0.788 0.586 14.187 0.817 o
7 12 0 3.398 1.828 3.504 13.340 o
7 12 1 12.742 11.440 2.474 25.736 o
7 12 2 27.125 24.819 2.545 22.767 o
7 12 3 0.425 0.788 5.907 4.711 o
8 -12 -6 1.385 0.939 2.635 23.605 o
8 -12 -5 13.107 12.329 3.686 11.857 o
8 -12 -4 3.754 2.141 3.261 15.377 o
8 -11 -10 3.484 3.362 4.483 8.156 o
8 -11 -9 6.106 3.635 4.483 8.141 o
8 -11 -8 2.796 3.282 4.009 10.200 o
8 -11 -7 44.137 47.155 4.746 6.796 o
8 -11 -6 3.080 1.717 5.624 5.191 o
8 -11 -5 0.648 0.131 40.470 0.100 o
8 -11 -3 19.949 16.701 4.604 7.588 o
8 -11 -2 28.548 27.132 4.544 7.660 o
8 -11 -1 9.598 3.080 6.260 4.180 o
8 -10 -12 5.679 6.967 4.150 9.484 o
8 -10 -11 8.907 10.400 3.675 12.001 o
8 -10 -10 7.954 5.786 3.797 11.297 o
8 -10 -9 45.007 47.246 4.806 6.628 o
8 -10 -8 0.356 -0.374 1.000 163.919 o
8 -10 -7 0.517 1.424 1.777 51.843 o
8 -10 -6 29.192 30.413 3.009 16.545 o
8 -10 -5 15.815 16.025 2.868 19.126 o
8 -10 -4 5.231 2.040 3.393 14.193 o
8 -10 -3 21.507 20.780 4.201 9.036 o
8 -10 -2 29.208 27.000 4.251 8.697 o
8 -10 -1 43.292 48.892 3.352 12.735 o
8 -9 -14 22.768 25.971 4.594 7.558 o
8 -9 -13 15.509 14.914 3.928 10.418 o
8 -9 -12 4.410 4.877 4.019 10.129 o
8 -9 -11 26.374 33.220 4.332 8.386 o
8 -9 -10 7.205 8.118 3.292 14.972 o
8 -9 -9 13.582 10.693 2.595 23.450 o
8 -9 -8 48.919 49.962 3.292 12.891 o
8 -9 -7 27.607 26.829 2.787 19.220 o
8 -9 -6 0.312 0.828 2.575 24.773 o
8 -9 -5 12.201 17.034 3.797 11.166 o
8 -9 -4 74.806 77.821 5.180 5.353 o
8 -9 -3 15.733 16.125 3.686 11.782 o
8 -9 -2 9.923 5.301 4.029 10.027 o
8 -9 -1 87.786 97.521 3.595 9.022 o
8 -8 -15 27.779 28.040 4.514 7.763 o
8 -8 -14 4.995 3.827 3.554 12.930 o
8 -8 -13 12.649 12.238 3.635 12.191 o
8 -8 -12 12.120 11.299 3.665 12.010 o
8 -8 -11 34.200 32.049 4.079 9.289 o
8 -8 -10 10.532 9.562 2.514 25.162 o
8 -8 -9 63.379 64.209 3.413 11.300 o
8 -8 -8 17.065 14.167 2.444 25.889 o
8 -8 -7 5.806 5.776 1.979 40.841 o
8 -8 -6 57.892 57.515 3.130 13.395 o
8 -8 -5 23.493 25.466 3.716 11.365 o
8 -8 -4 55.670 64.139 4.615 6.903 o
8 -8 -3 57.420 62.654 4.524 7.137 o
8 -8 -2 30.673 30.070 3.827 10.562 o
8 -8 -1 27.954 27.424 2.444 24.262 o
8 -7 -15 3.584 4.120 3.595 12.659 o
8 -7 -14 4.688 4.453 4.514 8.038 o
8 -7 -13 37.344 40.622 4.443 7.814 o
8 -7 -12 7.916 7.159 3.171 16.115 o
8 -7 -11 50.131 52.335 3.191 13.477 o
8 -7 -10 3.273 3.120 1.898 44.921 o
8 -7 -9 2.976 2.726 2.161 34.839 o
8 -7 -8 8.833 8.189 2.100 35.864 o
8 -7 -7 101.510 106.265 3.655 8.245 o
8 -7 -6 52.584 57.121 2.888 15.559 o
8 -7 -5 10.693 10.925 3.049 17.260 o
8 -7 -4 45.346 41.823 3.756 10.456 o
8 -7 -3 104.107 103.781 5.008 5.176 o
8 -7 -2 112.672 116.130 5.261 4.631 o
8 -7 -1 40.650 39.370 3.716 10.813 o
8 -6 -15 16.697 15.924 3.847 10.824 o
8 -6 -14 2.525 1.545 4.180 9.389 o
8 -6 -13 35.174 36.654 4.190 8.781 o
8 -6 -12 3.149 1.616 1.535 68.470 o
8 -6 -11 23.065 21.104 2.494 24.127 o
8 -6 -10 1.617 1.292 1.979 41.711 o
8 -6 -9 166.297 171.343 4.312 4.787 o
8 -6 -8 6.409 8.199 1.908 43.523 o
8 -6 -7 26.221 27.253 2.242 28.442 o
8 -6 -6 2.305 3.393 1.757 52.479 o
8 -6 -5 217.743 225.767 6.402 2.454 o
8 -6 -4 86.050 88.160 4.352 6.902 o
8 -6 -3 91.975 93.704 4.503 6.389 o
8 -6 -2 125.648 126.884 4.938 4.870 o
8 -6 -1 46.229 45.913 3.544 11.506 o
8 -5 -14 8.951 4.998 2.959 18.469 o
8 -5 -13 56.698 57.969 3.140 13.374 o
8 -5 -12 4.411 4.938 1.999 40.292 o
8 -5 -11 94.819 96.157 2.757 12.330 o
8 -5 -10 15.665 13.702 1.494 63.720 o
8 -5 -9 9.615 7.462 1.272 91.383 o
8 -5 -8 19.298 20.467 1.676 49.714 o
8 -5 -7 160.599 158.044 3.120 6.819 o
8 -5 -6 9.124 8.371 1.343 82.895 o
8 -5 -5 92.513 93.946 2.807 12.288 o
8 -5 -4 51.050 48.841 2.171 24.550 o
8 -5 -3 263.869 266.470 6.452 2.100 o
8 -5 -2 33.913 35.210 3.080 15.533 o
8 -5 -1 145.228 143.979 4.968 4.478 o
8 -4 -18 8.814 8.623 5.281 5.859 o
8 -4 -17 4.198 3.595 3.938 10.555 o
8 -4 -15 75.101 80.315 5.392 4.976 o
8 -4 -14 14.160 13.450 2.615 22.983 o
8 -4 -13 48.954 48.720 2.464 20.642 o
8 -4 -12 2.394 2.615 1.393 82.862 o
8 -4 -11 97.768 104.548 2.282 14.359 o
8 -4 -10 12.591 12.107 1.202 95.792 o
8 -4 -9 201.070 203.866 2.585 5.707 o
8 -4 -8 2.264 1.807 1.252 102.518 o
8 -4 -7 44.369 41.733 1.545 41.468 o
8 -4 -6 37.862 38.108 1.454 48.445 o
8 -4 -5 143.902 145.725 2.282 9.561 o
8 -4 -4 33.027 35.755 1.878 35.674 o
8 -4 -3 249.891 247.224 3.645 3.577 o
8 -4 -2 160.428 160.104 4.695 4.503 o
8 -3 -18 1.110 0.101 4.968 6.659 o
8 -3 -17 25.097 24.910 4.857 6.771 o
8 -3 -16 11.409 11.107 4.039 9.932 o
8 -3 -15 5.844 2.514 3.564 12.855 o
8 -3 -14 9.930 8.532 2.403 27.544 o
8 -3 -13 72.746 75.619 2.787 14.335 o
8 -3 -12 1.575 1.141 1.343 89.972 o
8 -3 -11 93.105 91.371 2.262 15.555 o
8 -3 -10 4.331 3.322 1.121 123.793 o
8 -3 -9 28.933 29.363 1.313 63.615 o
8 -3 -8 26.497 26.304 1.222 73.281 o
8 -3 -7 401.359 406.430 3.150 1.797 o
8 -3 -6 17.680 19.983 1.363 71.051 o
8 -3 -5 145.928 144.696 2.474 9.004 o
8 -3 -4 124.549 126.904 2.757 9.737 o
8 -3 -3 185.656 185.014 3.282 5.543 o
8 -3 -2 0.975 0.838 1.181 116.527 o
8 -3 -1 204.017 215.044 24.446 0.265 o
8 -2 -19 1.193 1.171 3.140 16.641 o
8 -2 -18 7.570 7.098 4.604 7.703 o
8 -2 -17 6.393 5.039 5.129 6.223 o
8 -2 -16 2.844 0.656 0.828 227.784 o
8 -2 -15 81.197 83.596 3.857 8.514 o
8 -2 -14 8.056 7.048 2.433 27.070 o
8 -2 -13 53.079 50.760 3.100 14.029 o
8 -2 -12 23.505 23.587 1.616 50.638 o
8 -2 -11 29.081 26.990 1.575 49.627 o
8 -2 -10 3.531 3.494 0.929 177.635 o
8 -2 -9 531.763 542.149 4.170 1.038 o
8 -2 -8 57.841 54.748 1.605 32.957 o
8 -2 -7 119.135 119.553 2.019 13.066 o
8 -2 -6 36.343 34.977 1.151 65.731 o
8 -2 -5 280.790 277.022 3.160 3.248 o
8 -2 -4 2.423 3.080 0.798 240.989 o
8 -2 -3 74.496 69.319 2.070 20.786 o
8 -2 -2 163.064 153.773 3.978 5.437 o
8 -2 -1 22.493 19.862 1.353 68.604 o
8 -1 -19 4.782 3.564 5.261 5.925 o
8 -1 -18 13.770 15.227 4.241 8.981 o
8 -1 -17 27.187 28.283 3.403 13.286 o
8 -1 -16 7.176 6.008 2.868 19.682 o
8 -1 -15 9.845 9.290 2.494 25.613 o
8 -1 -14 33.412 37.209 2.999 16.263 o
8 -1 -13 33.565 32.392 2.716 19.520 o
8 -1 -12 25.111 24.325 1.908 37.976 o
8 -1 -11 179.118 170.848 2.858 6.475 o
8 -1 -10 61.760 60.362 1.626 30.610 o
8 -1 -9 76.272 74.842 1.656 24.820 o
8 -1 -8 2.422 2.050 0.717 297.008 o
8 -1 -7 434.638 427.917 3.312 1.575 o
8 -1 -6 34.193 31.958 1.242 63.209 o
8 -1 -5 63.757 60.796 1.666 29.293 o
8 -1 -4 309.767 305.991 3.595 2.656 o
8 -1 -3 42.223 38.814 1.111 61.368 o
8 -1 -2 82.089 79.537 1.303 27.122 o
8 -1 -1 202.242 193.829 1.959 6.461 o
8 0 0 42.679 40.147 1.060 62.986 o
8 0 1 217.488 218.295 1.858 5.691 o
8 0 2 449.001 451.737 3.231 1.478 o
8 0 3 0.832 0.899 0.677 348.479 o
8 0 4 541.806 548.046 4.069 1.015 o
8 0 5 27.529 26.132 1.444 57.457 o
8 0 6 20.755 18.236 1.424 64.918 o
8 0 7 6.321 5.190 1.242 99.348 o
8 0 8 151.663 156.479 2.666 8.043 o
8 0 9 22.067 20.962 1.575 53.907 o
8 0 10 70.586 73.721 2.201 19.629 o
8 0 11 0.508 0.596 1.181 117.076 o
8 0 12 0.907 1.282 1.757 52.974 o
8 0 13 0.472 3.171 2.706 22.384 o
8 0 14 2.718 3.514 2.413 27.983 o
8 1 0 299.238 297.075 2.413 3.172 o
8 1 1 27.279 28.293 0.990 92.425 o
8 1 2 254.269 248.668 2.181 4.295 o
8 1 3 61.659 61.907 1.292 37.099 o
8 1 4 21.715 19.155 1.121 91.590 o
8 1 5 7.232 4.827 1.171 109.974 o
8 1 6 189.863 192.002 2.555 6.229 o
8 1 7 0.377 -0.071 0.212 3351.460 o
8 1 8 7.911 7.280 1.525 66.388 o
8 1 9 0.490 0.141 0.788 262.496 o
8 1 10 54.142 58.464 2.343 21.038 o
8 1 11 8.163 8.674 1.717 52.811 o
8 1 12 25.670 27.172 2.181 29.911 o
8 1 13 7.039 7.755 1.919 43.012 o
8 1 14 3.472 4.180 1.969 41.700 o
8 2 0 22.487 21.629 1.000 103.631 o
8 2 1 34.611 32.231 0.969 81.563 o
8 2 2 267.362 260.139 2.282 3.921 o
8 2 3 10.623 10.410 1.020 130.248 o
8 2 4 364.571 365.021 3.171 2.124 o
8 2 5 3.656 3.110 1.171 114.686 o
8 2 6 4.943 4.312 1.202 107.416 o
8 2 7 10.632 10.895 1.484 67.670 o
8 2 8 121.193 129.792 3.231 8.406 o
8 2 9 8.263 9.047 1.888 44.002 o
8 2 10 21.143 19.670 2.151 31.884 o
8 2 11 3.510 2.868 1.929 43.526 o
8 2 12 1.151 1.636 1.737 54.120 o
8 2 13 1.457 1.626 2.302 30.876 o
8 3 0 76.640 74.095 1.737 23.835 o
8 3 1 24.739 23.779 1.121 85.314 o
8 3 2 71.796 68.955 1.626 26.911 o
8 3 3 52.733 51.032 1.464 38.724 o
8 3 4 7.249 7.492 1.091 123.375 o
8 3 5 57.820 57.394 1.616 32.357 o
8 3 6 109.788 110.031 2.151 13.721 o
8 3 7 19.797 18.630 1.818 43.365 o
8 3 8 13.400 13.177 1.858 43.852 o
8 3 9 32.884 32.756 2.262 26.754 o
8 3 10 30.484 30.464 2.333 25.840 o
8 3 11 3.748 2.474 2.080 37.495 o
8 3 12 15.992 18.206 2.403 26.627 o
8 3 13 10.638 10.663 2.161 33.599 o
8 4 0 8.191 7.603 0.969 149.662 o
8 4 1 36.416 36.997 1.343 54.520 o
8 4 2 136.547 135.739 2.161 10.637 o
8 4 3 91.588 96.107 2.100 16.569 o
8 4 4 127.589 127.692 1.959 12.242 o
8 4 5 47.108 45.872 1.434 43.045 o
8 4 6 22.232 20.982 1.262 75.900 o
8 4 7 19.098 18.125 1.848 42.364 o
8 4 8 58.522 61.382 2.545 18.124 o
8 4 9 12.559 11.976 1.939 40.808 o
8 4 10 100.559 109.839 3.342 9.230 o
8 4 11 7.843 7.119 2.141 34.748 o
8 4 12 0.609 0.464 1.343 90.711 o
8 4 13 1.181 0.707 4.251 9.091 o
8 5 0 151.851 151.784 2.534 8.417 o
8 5 1 39.889 38.592 1.626 41.093 o
8 5 2 119.105 123.663 2.464 11.149 o
8 5 3 10.114 8.704 1.292 87.948 o
8 5 4 37.929 38.350 1.959 32.093 o
8 5 5 8.862 8.633 1.404 76.555 o
8 5 6 47.728 45.358 1.696 35.315 o
8 5 7 0.629 1.272 1.787 51.255 o
8 5 8 44.574 40.521 2.282 24.285 o
8 5 9 9.194 9.542 1.989 39.645 o
8 5 10 5.074 3.544 2.333 29.767 o
8 5 11 17.726 19.841 2.343 27.667 o
8 5 12 32.829 38.744 3.393 13.015 o
8 6 0 150.905 155.278 2.696 8.035 o
8 6 1 18.348 15.388 1.454 64.872 o
8 6 2 93.974 90.887 2.322 15.098 o
8 6 3 13.662 11.350 1.454 68.520 o
8 6 4 155.329 161.195 3.474 6.313 o
8 6 5 12.937 11.693 2.262 30.501 o
8 6 6 11.133 9.199 1.535 63.824 o
8 6 7 22.186 21.649 2.030 34.990 o
8 6 8 43.504 45.681 2.464 21.381 o
8 6 9 5.679 5.220 1.929 43.011 o
8 6 10 46.531 52.203 2.868 16.294 o
8 6 11 2.757 2.918 2.484 26.440 o
8 6 12 8.080 7.684 3.019 17.733 o
8 7 0 19.023 17.014 1.525 59.197 o
8 7 1 7.915 8.088 1.505 67.890 o
8 7 2 99.204 103.842 2.565 12.746 o
8 7 3 20.050 18.266 1.686 49.327 o
8 7 4 6.469 5.816 1.535 66.440 o
8 7 5 23.789 21.881 1.848 40.729 o
8 7 6 119.687 126.722 3.524 7.728 o
8 7 7 0.763 0.889 1.414 81.740 o
8 7 8 19.326 20.023 2.817 19.506 o
8 7 9 11.345 11.006 2.757 20.977 o
8 7 10 5.071 2.746 3.443 13.779 o
8 7 11 2.215 1.353 2.565 24.874 o
8 8 0 7.475 6.452 1.545 65.102 o
8 8 1 13.032 11.531 1.545 61.764 o
8 8 2 9.465 8.694 1.605 59.450 o
8 8 3 3.695 2.292 1.727 54.119 o
8 8 4 87.370 86.656 2.635 13.858 o
8 8 5 12.923 10.653 1.777 48.028 o
8 8 6 0.029 0.212 5.463 5.510 o
8 8 7 0.694 0.283 1.605 63.569 o
8 8 8 52.974 56.374 2.969 14.892 o
8 8 9 4.106 5.230 2.716 22.044 o
8 8 10 11.059 11.541 2.827 19.972 o
8 9 0 38.361 35.078 1.767 37.645 o
8 9 1 10.444 9.067 1.717 52.129 o
8 9 2 40.190 36.684 2.090 28.825 o
8 9 3 20.409 18.579 1.898 40.053 o
8 9 4 21.738 20.255 1.959 37.457 o
8 9 5 5.928 4.221 1.666 57.178 o
8 9 6 19.072 17.317 1.969 37.938 o
8 9 7 15.433 15.924 2.474 25.356 o
8 9 8 1.269 0.061 1.282 99.127 o
8 10 0 29.662 28.050 1.797 40.162 o
8 10 1 16.400 15.711 1.676 51.509 o
8 10 2 44.637 42.470 2.019 28.945 o
8 10 3 8.834 7.492 1.919 42.721 o
8 10 4 43.819 45.670 2.433 21.767 o
8 10 5 0.648 -0.424 1.929 44.125 o
8 10 6 0.565 1.424 2.474 26.807 o
8 10 7 4.869 3.887 2.736 21.719 o
8 11 0 20.096 18.175 2.363 27.077 o
8 11 1 16.777 16.287 2.302 28.864 o
8 11 2 32.696 30.090 2.605 21.162 o
8 11 3 6.652 6.058 2.302 30.317 o
8 11 4 0.054 -0.364 1.393 84.663 o
8 11 5 5.111 3.221 3.140 16.538 o
8 12 0 3.011 1.979 3.968 10.412 o
8 12 1 5.696 4.928 2.908 19.213 o
8 12 2 10.373 7.805 2.635 23.026 o
9 -12 -3 15.579 18.700 4.423 8.240 o
9 -11 -9 5.201 3.797 4.170 9.408 o
9 -11 -7 0.684 0.515 1.656 59.739 o
9 -11 -6 14.303 13.117 3.736 11.521 o
9 -11 -5 28.253 30.232 3.251 14.391 o
9 -11 -4 5.494 5.241 2.868 19.753 o
9 -11 -3 11.240 10.370 4.433 8.271 o
9 -11 -2 20.221 19.660 4.463 8.049 o
9 -11 -1 14.230 15.843 3.261 14.980 o
9 -10 -11 18.273 16.297 4.120 9.450 o
9 -10 -10 4.714 5.039 3.585 12.710 o
9 -10 -9 20.906 22.497 4.089 9.514 o
9 -10 -8 9.943 11.329 2.686 22.123 o
9 -10 -7 38.025 37.633 3.241 13.955 o
9 -10 -6 12.210 10.481 2.686 22.027 o
9 -10 -5 0.098 0.232 0.364 1222.930 o
9 -10 -4 3.363 1.605 2.918 19.201 o
9 -10 -3 13.553 12.945 4.190 9.208 o
9 -10 -2 15.687 17.277 4.433 8.208 o
9 -10 -1 5.959 4.756 3.282 15.123 o
9 -9 -13 5.197 5.069 4.958 6.664 o
9 -9 -12 4.951 5.069 3.807 11.276 o
9 -9 -11 13.488 15.328 3.706 11.701 o
9 -9 -10 7.504 6.816 2.524 25.241 o
9 -9 -9 32.153 33.150 3.140 15.120 o
9 -9 -8 7.372 7.593 2.565 24.455 o
9 -9 -7 17.270 15.641 2.736 20.846 o
9 -9 -6 3.225 2.312 2.343 29.687 o
9 -9 -5 71.621 74.095 3.686 9.570 o
9 -9 -4 30.895 30.898 4.221 8.767 o
9 -9 -3 1.242 1.080 2.545 25.319 o
9 -9 -2 31.175 33.584 4.514 7.697 o
9 -9 -1 38.569 34.432 4.524 7.576 o
9 -8 -14 2.270 1.747 3.029 17.850 o
9 -8 -13 13.714 12.612 3.787 11.235 o
9 -8 -12 2.473 1.121 5.241 5.980 o
9 -8 -11 30.584 30.747 3.049 16.075 o
9 -8 -10 3.023 0.586 4.241 9.124 o
9 -8 -9 17.474 14.258 2.646 22.255 o
9 -8 -8 17.727 19.448 2.605 22.719 o
9 -8 -7 126.642 133.881 4.362 5.707 o
9 -8 -6 14.515 14.460 2.444 26.089 o
9 -8 -5 4.522 5.251 2.989 18.229 o
9 -8 -4 2.637 2.413 3.564 12.898 o
9 -8 -3 113.191 113.586 5.756 4.021 o
9 -8 -2 6.635 6.200 3.625 12.396 o
9 -8 -1 8.563 5.634 3.312 14.790 o
9 -7 -15 9.427 4.988 4.130 9.553 o
9 -7 -14 14.019 13.359 3.867 10.770 o
9 -7 -13 16.301 17.428 3.787 11.159 o
9 -7 -12 0.137 -0.495 1.232 108.252 o
9 -7 -11 25.797 27.526 2.827 18.810 o
9 -7 -10 19.006 22.012 2.646 21.902 o
9 -7 -9 47.343 47.215 3.090 14.491 o
9 -7 -8 17.349 16.499 2.423 26.168 o
9 -7 -7 19.306 18.347 2.373 26.936 o
9 -7 -6 14.864 14.611 2.343 28.214 o
9 -7 -5 137.952 141.586 5.897 3.576 o
9 -7 -4 9.094 5.634 3.251 15.326 o
9 -7 -3 11.850 13.480 3.201 15.635 o
9 -7 -2 63.184 65.411 4.463 7.199 o
9 -7 -1 150.440 149.552 6.048 3.326 o
9 -6 -15 1.590 2.726 4.190 9.347 o
9 -6 -14 4.382 2.555 4.079 9.841 o
9 -6 -13 37.803 45.913 4.483 7.643 o
9 -6 -12 35.821 38.249 2.928 16.800 o
9 -6 -11 30.520 28.141 2.676 20.427 o
9 -6 -10 8.525 9.017 2.211 32.461 o
9 -6 -9 119.647 128.509 4.019 6.556 o
9 -6 -8 38.080 39.097 2.676 19.427 o
9 -6 -7 143.967 148.068 4.322 5.340 o
9 -6 -6 12.465 11.965 2.009 38.181 o
9 -6 -5 0.686 1.878 2.767 21.432 o
9 -6 -4 53.717 53.668 3.948 9.243 o
9 -6 -3 19.009 12.622 3.100 16.420 o
9 -6 -2 19.180 16.661 3.312 14.397 o
9 -6 -1 87.252 79.507 4.594 6.375 o
9 -5 -15 19.144 17.680 3.857 10.719 o
9 -5 -14 3.305 2.635 4.847 6.984 o
9 -5 -13 4.761 3.544 2.161 34.629 o
9 -5 -12 38.086 37.643 2.757 18.520 o
9 -5 -11 65.655 63.856 3.090 13.096 o
9 -5 -10 7.038 5.402 1.848 46.462 o
9 -5 -9 70.248 68.369 2.494 17.150 o
9 -5 -8 1.160 0.838 1.737 54.200 o
9 -5 -7 136.316 140.354 2.999 8.229 o
9 -5 -6 74.094 75.024 2.282 18.329 o
9 -5 -5 54.806 51.022 2.444 20.143 o
9 -5 -4 8.474 8.128 2.959 18.433 o
9 -5 -3 7.996 6.785 2.635 23.176 o
9 -5 -2 114.646 107.164 4.806 5.351 o
9 -4 -17 5.127 3.292 3.716 11.838 o
9 -4 -16 5.529 3.827 4.958 6.665 o
9 -4 -15 19.242 18.347 3.999 9.989 o
9 -4 -14 15.887 16.499 2.565 23.632 o
9 -4 -13 32.082 32.534 2.272 26.677 o
9 -4 -12 13.589 12.389 1.575 59.249 o
9 -4 -11 18.069 14.671 1.414 68.363 o
9 -4 -10 22.070 24.062 1.434 61.748 o
9 -4 -9 101.954 98.015 2.393 13.660 o
9 -4 -8 2.966 1.393 1.181 114.350 o
9 -4 -7 187.115 191.972 2.878 5.915 o
9 -4 -6 7.688 6.291 1.191 105.356 o
9 -4 -5 23.561 20.871 1.434 61.807 o
9 -4 -4 40.307 37.946 2.040 29.777 o
9 -4 -3 49.821 48.720 3.292 12.880 o
9 -4 -2 53.008 52.809 3.322 12.468 o
9 -3 -18 29.216 34.079 4.998 6.344 o
9 -3 -17 5.038 6.210 4.827 7.028 o
9 -3 -16 13.343 13.288 4.039 9.899 o
9 -3 -15 15.757 11.380 2.777 20.461 o
9 -3 -14 31.814 35.977 3.060 15.799 o
9 -3 -13 4.182 3.261 1.626 60.620 o
9 -3 -12 6.197 6.230 1.515 68.162 o
9 -3 -11 69.059 68.672 1.878 24.041 o
9 -3 -10 5.950 5.907 1.121 120.143 o
9 -3 -9 48.826 45.822 1.545 38.979 o
9 -3 -8 49.927 45.862 1.706 34.335 o
9 -3 -7 86.788 83.960 2.272 16.513 o
9 -3 -6 21.568 19.448 1.454 61.974 o
9 -3 -5 335.087 335.486 3.797 2.291 o
9 -3 -4 49.348 49.215 2.151 25.113 o
9 -3 -3 18.785 18.084 1.595 54.723 o
9 -3 -2 151.314 149.876 4.715 4.672 o
9 -3 -1 212.015 213.923 5.402 3.072 o
9 -2 -18 0.966 0.010 0.121 6483.520 o
9 -2 -17 7.117 5.442 4.534 7.951 o
9 -2 -16 44.734 47.680 3.564 11.410 o
9 -2 -15 0.594 0.040 3.191 16.141 o
9 -2 -14 7.954 9.290 2.514 25.336 o
9 -2 -13 102.553 108.355 3.060 10.214 o
9 -2 -12 23.590 24.002 1.676 47.606 o
9 -2 -11 55.823 53.920 1.929 27.310 o
9 -2 -10 33.694 31.696 1.424 53.628 o
9 -2 -9 101.388 100.944 1.919 16.350 o
9 -2 -8 21.123 19.508 1.303 73.870 o
9 -2 -7 238.512 241.530 2.817 4.290 o
9 -2 -6 37.841 37.128 1.636 41.751 o
9 -2 -5 26.363 25.789 1.424 59.415 o
9 -2 -4 53.573 54.092 1.505 36.793 o
9 -2 -3 437.889 442.195 3.564 1.508 o
9 -2 -2 31.948 30.716 1.555 48.526 o
9 -2 -1 28.654 25.395 1.202 73.355 o
9 -1 -18 21.469 23.456 4.816 6.914 o
9 -1 -17 7.620 6.503 3.312 14.800 o
9 -1 -16 0.642 1.767 3.251 15.530 o
9 -1 -15 36.691 33.402 3.160 14.746 o
9 -1 -14 4.833 4.301 2.585 24.299 o
9 -1 -13 18.012 16.550 2.019 36.508 o
9 -1 -12 26.434 26.799 1.979 35.189 o
9 -1 -11 119.240 120.371 2.524 11.019 o
9 -1 -10 7.861 6.200 1.141 113.800 o
9 -1 -9 51.818 48.488 1.515 38.207 o
9 -1 -8 8.802 6.684 0.939 157.612 o
9 -1 -7 110.724 110.819 1.686 15.954 o
9 -1 -6 60.344 57.414 1.272 39.065 o
9 -1 -5 581.718 592.424 5.796 0.817 o
9 -1 -4 49.179 48.235 1.424 41.925 o
9 -1 -3 52.821 53.254 1.303 42.697 o
9 -1 -2 182.299 184.681 2.333 6.881 o
9 -1 -1 266.120 269.318 2.696 3.688 o
9 0 0 115.325 113.676 1.555 15.864 o
9 0 1 21.506 20.619 0.959 111.731 o
9 0 2 22.747 20.881 1.141 87.161 o
9 0 3 33.576 30.837 1.191 67.339 o
9 0 4 156.363 159.892 2.373 8.367 o
9 0 5 0.237 0.303 0.576 490.138 o
9 0 6 44.789 43.267 1.474 43.308 o
9 0 7 11.755 11.067 1.363 78.069 o
9 0 8 0.246 0.212 1.131 128.188 o
9 0 9 20.135 18.953 1.656 50.718 o
9 0 10 3.316 3.009 1.626 60.910 o
9 0 11 2.910 2.565 1.919 44.090 o
9 0 12 14.690 16.267 2.080 35.135 o
9 0 13 5.701 5.614 1.979 40.868 o
9 1 0 48.377 50.275 1.131 51.661 o
9 1 1 82.699 78.578 1.303 27.087 o
9 1 2 42.470 41.046 1.212 55.485 o
9 1 3 30.710 30.545 1.323 61.342 o
9 1 4 29.039 27.546 1.313 64.184 o
9 1 5 15.170 15.227 1.464 65.870 o
9 1 6 20.906 19.942 1.404 65.794 o
9 1 7 24.413 25.001 1.525 54.752 o
9 1 8 22.003 19.498 2.030 35.217 o
9 1 9 23.305 23.689 2.232 29.295 o
9 1 10 7.241 7.482 1.696 54.431 o
9 1 11 31.581 34.584 2.312 25.834 o
9 1 12 17.444 18.953 2.120 33.314 o
9 1 13 0.512 0.545 0.485 675.269 o
9 2 0 128.538 126.551 1.626 13.400 o
9 2 1 18.684 16.459 0.919 128.087 o
9 2 2 13.098 11.935 0.990 130.526 o
9 2 3 7.577 6.705 0.969 151.943 o
9 2 4 63.675 61.665 1.686 28.855 o
9 2 5 20.435 21.588 1.414 64.841 o
9 2 6 119.543 117.604 2.312 11.911 o
9 2 7 10.016 8.835 1.383 77.846 o
9 2 8 8.522 7.523 1.898 43.649 o
9 2 9 4.625 5.675 1.838 47.398 o
9 2 10 59.915 60.776 2.837 15.367 o
9 2 11 2.355 3.251 2.100 36.891 o
9 2 12 17.409 20.336 2.262 29.523 o
9 3 0 46.725 44.772 1.434 43.463 o
9 3 1 95.671 92.664 1.656 19.535 o
9 3 2 120.838 122.744 1.929 13.148 o
9 3 3 69.377 70.359 1.767 25.309 o
9 3 4 98.852 100.782 2.050 15.829 o
9 3 5 9.158 7.916 1.111 116.564 o
9 3 6 16.282 14.924 1.404 70.207 o
9 3 7 13.826 14.762 1.464 66.706 o
9 3 8 82.034 82.637 2.534 15.112 o
9 3 9 44.482 49.295 2.615 19.193 o
9 3 10 0.416 0.777 1.717 55.640 o
9 3 11 8.146 6.947 2.333 29.396 o
9 3 12 17.351 18.327 1.908 40.374 o
9 4 0 139.276 139.283 2.726 8.815 o
9 4 1 7.366 6.664 1.282 92.197 o
9 4 2 64.626 64.391 1.979 23.873 o
9 4 3 65.639 66.037 1.787 26.272 o
9 4 4 147.475 149.189 2.221 9.417 o
9 4 5 13.089 11.471 1.202 95.606 o
9 4 6 124.150 128.227 2.757 9.723 o
9 4 7 23.442 23.890 1.828 41.319 o
9 4 8 34.200 34.291 1.999 32.285 o
9 4 9 0.671 0.030 0.252 2308.500 o
9 4 10 24.990 26.435 2.110 31.830 o
9 4 11 3.873 4.261 1.949 42.489 o
9 4 12 2.370 3.443 2.070 37.955 o
9 5 0 8.619 8.542 1.202 101.681 o
9 5 1 325.190 331.568 3.564 2.436 o
9 5 2 69.869 69.803 2.131 20.748 o
9 5 3 17.810 15.590 1.323 76.096 o
9 5 4 70.871 74.135 1.969 22.114 o
9 5 5 5.728 3.908 1.252 98.892 o
9 5 6 16.643 15.328 1.454 65.825 o
9 5 7 17.278 17.428 1.969 38.273 o
9 5 8 16.768 15.681 1.777 46.341 o
9 5 9 17.096 17.630 1.919 40.122 o
9 5 10 8.556 8.795 1.969 40.589 o
9 5 11 1.335 0.364 1.676 58.179 o
9 6 0 79.704 78.810 2.100 19.095 o
9 6 1 24.325 23.436 1.484 57.509 o
9 6 2 3.097 2.686 1.151 119.413 o
9 6 3 27.325 25.244 1.757 42.754 o
9 6 4 20.879 19.973 1.727 46.843 o
9 6 5 71.627 73.741 2.433 17.288 o
9 6 6 37.441 37.219 2.030 30.622 o
9 6 7 0.209 0.414 1.484 74.483 o
9 6 8 1.639 2.343 3.797 11.383 o
9 6 9 4.854 4.342 2.454 26.928 o
9 6 10 34.901 37.007 3.433 12.699 o
9 7 0 2.735 1.777 1.414 80.598 o
9 7 1 60.207 59.524 2.201 21.984 o
9 7 2 53.734 55.960 2.312 21.634 o
9 7 3 53.958 57.060 2.272 22.072 o
9 7 4 23.570 23.194 1.898 38.806 o
9 7 5 3.856 3.574 1.353 86.626 o
9 7 6 8.802 7.583 1.706 53.378 o
9 7 7 21.989 21.497 2.343 27.128 o
9 7 8 25.211 26.980 3.171 15.256 o
9 7 9 3.326 3.988 2.807 20.702 o
9 7 10 3.574 2.898 2.827 20.420 o
9 8 0 71.581 75.115 2.444 17.136 o
9 8 1 41.729 41.783 2.090 28.106 o
9 8 2 7.714 7.139 1.636 58.233 o
9 8 3 1.356 1.181 1.797 50.561 o
9 8 4 28.353 28.212 2.060 32.421 o
9 8 5 20.789 20.942 1.999 36.255 o
9 8 6 42.444 43.399 2.333 23.564 o
9 8 7 1.881 2.767 2.454 27.144 o
9 8 8 1.186 2.726 3.060 17.513 o
9 8 9 3.045 4.150 2.827 20.416 o
9 9 0 15.761 18.206 1.646 52.968 o
9 9 1 24.180 23.345 2.009 35.069 o
9 9 2 25.203 28.020 2.080 32.459 o
9 9 3 15.327 17.994 1.969 38.590 o
9 9 4 17.218 16.741 2.040 35.973 o
9 9 5 0.537 1.313 2.646 23.451 o
9 9 6 2.390 2.242 2.393 28.512 o
9 9 7 0.958 0.596 3.665 12.227 o
9 10 0 12.534 11.380 1.666 54.076 o
9 10 1 0.957 0.151 0.818 241.707 o
9 10 2 0.268 0.576 2.534 25.576 o
9 10 3 3.399 3.776 2.615 23.824 o
9 10 4 12.220 9.330 2.030 37.714 o
9 10 5 1.694 0.576 1.292 97.145 o
9 10 6 10.897 9.481 2.282 30.301 o
9 11 0 2.333 1.060 3.494 13.436 o
9 11 1 9.827 7.008 2.524 25.094 o
9 11 2 4.000 2.494 3.322 14.816 o
9 11 3 7.623 7.593 2.181 33.510 o
10 -11 -7 6.067 4.746 3.999 10.217 o
10 -11 -6 7.716 4.190 3.504 13.258 o
10 -11 -5 11.555 11.218 3.171 15.967 o
10 -11 -4 8.366 7.947 3.029 17.604 o
10 -11 -3 12.154 11.228 5.453 5.484 o
10 -11 -2 8.139 7.442 3.938 10.497 o
10 -10 -10 0.710 1.101 3.918 10.703 o
10 -10 -9 2.870 1.191 2.484 26.480 o
10 -10 -8 2.951 2.494 2.252 32.121 o
10 -10 -7 13.135 13.127 2.868 19.309 o
10 -10 -6 15.897 14.348 2.807 19.960 o
10 -10 -5 23.541 24.506 3.090 16.127 o
10 -10 -4 0.771 0.454 1.323 93.394 o
10 -10 -3 2.924 2.726 4.615 7.704 o
10 -10 -2 4.341 1.818 4.625 7.666 o
10 -10 -1 12.448 12.571 3.181 15.825 o
10 -9 -12 4.190 5.049 4.120 9.642 o
10 -9 -11 0.333 -0.020 0.303 1723.920 o
10 -9 -10 0.795 0.697 90.937 0.020 o
10 -9 -9 29.447 29.575 3.181 14.954 o
10 -9 -8 16.917 15.903 2.827 19.601 o
10 -9 -7 8.527 10.188 2.605 23.586 o
10 -9 -6 13.061 13.571 2.736 21.127 o
10 -9 -5 18.013 19.559 2.656 21.892 o
10 -9 -4 29.047 29.666 4.483 7.842 o
10 -9 -3 31.521 32.584 4.594 7.443 o
10 -9 -2 10.446 10.229 4.221 9.119 o
10 -9 -1 8.589 5.029 4.867 6.900 o
10 -8 -14 6.507 5.342 5.392 5.633 o
10 -8 -13 2.071 3.544 3.221 15.781 o
10 -8 -12 11.197 10.693 3.080 16.918 o
10 -8 -11 59.186 68.612 3.807 9.507 o
10 -8 -10 39.957 45.539 3.332 13.062 o
10 -8 -9 7.505 6.836 2.504 25.640 o
10 -8 -8 14.947 15.489 2.646 22.373 o
10 -8 -7 47.050 52.284 3.312 12.787 o
10 -8 -6 36.561 39.764 3.029 15.750 o
10 -8 -5 30.673 32.372 2.847 18.139 o
10 -8 -4 18.103 16.196 3.827 10.912 o
10 -8 -3 6.213 9.754 3.443 13.702 o
10 -8 -2 10.799 9.825 3.736 11.598 o
10 -8 -1 7.186 7.906 3.554 12.868 o
10 -7 -15 5.129 5.685 4.120 9.632 o
10 -7 -14 15.250 15.691 3.807 11.073 o
10 -7 -13 34.566 31.211 4.534 7.608 o
10 -7 -12 8.653 8.361 2.878 19.451 o
10 -7 -11 5.894 3.776 2.383 28.473 o
10 -7 -10 15.466 14.712 2.585 23.373 o
10 -7 -9 46.064 47.407 3.191 13.778 o
10 -7 -8 18.344 19.397 2.545 23.697 o
10 -7 -7 5.274 5.200 2.272 31.265 o
10 -7 -6 12.591 10.552 2.201 32.217 o
10 -7 -5 35.434 36.755 2.847 17.712 o
10 -7 -4 18.998 18.387 3.534 12.690 o
10 -7 -3 62.649 64.724 4.756 6.449 o
10 -7 -2 59.210 60.362 4.645 6.800 o
10 -7 -1 6.992 6.281 3.120 16.668 o
10 -6 -15 16.013 17.893 3.948 10.287 o
10 -6 -14 7.891 7.401 3.463 13.536 o
10 -6 -13 19.191 16.600 3.736 11.411 o
10 -6 -12 4.135 1.919 2.706 22.271 o
10 -6 -11 53.098 53.678 3.302 12.573 o
10 -6 -10 2.216 0.525 1.505 71.757 o
10 -6 -9 9.062 6.715 2.221 32.239 o
10 -6 -8 0.375 0.071 0.788 263.193 o
10 -6 -7 34.710 34.341 2.635 20.405 o
10 -6 -6 41.427 42.288 2.767 18.002 o
10 -6 -5 158.056 157.166 4.241 5.132 o
10 -6 -4 33.343 36.775 3.756 10.806 o
10 -6 -3 1.625 1.292 2.878 19.795 o
10 -6 -2 45.387 47.185 4.261 8.272 o
10 -6 -1 48.703 46.973 4.130 8.698 o
10 -5 -15 5.845 4.241 4.604 7.720 o
10 -5 -14 3.102 2.979 3.261 15.381 o
10 -5 -13 45.603 44.206 4.423 7.744 o
10 -5 -12 0.567 0.697 2.605 24.194 o
10 -5 -11 2.439 1.252 1.545 67.900 o
10 -5 -10 3.596 4.372 1.767 51.519 o
10 -5 -9 18.360 17.468 1.959 38.413 o
10 -5 -8 36.209 37.209 2.110 29.038 o
10 -5 -7 89.723 92.098 2.666 13.305 o
10 -5 -6 7.691 6.634 1.535 65.790 o
10 -5 -5 77.273 77.881 3.100 12.057 o
10 -5 -4 60.552 62.341 4.322 7.686 o
10 -5 -3 323.076 321.218 7.805 1.440 o
10 -4 -16 7.000 4.281 5.856 4.778 o
10 -4 -15 23.991 20.498 4.251 8.802 o
10 -4 -14 15.126 13.399 2.191 32.025 o
10 -4 -13 14.276 13.975 2.100 34.738 o
10 -4 -12 0.754 0.131 0.636 397.514 o
10 -4 -11 116.745 121.148 2.777 10.224 o
10 -4 -10 4.109 4.120 1.484 72.196 o
10 -4 -9 53.149 52.617 1.999 26.729 o
10 -4 -8 10.709 9.502 1.454 70.566 o
10 -4 -7 116.030 118.038 2.464 11.536 o
10 -4 -6 5.270 4.948 1.252 98.841 o
10 -4 -5 298.343 311.636 3.978 2.606 o
10 -4 -4 15.600 16.237 2.827 19.657 o
10 -4 -3 25.797 24.587 2.979 17.160 o
10 -4 -2 30.185 27.859 3.140 15.314 o
10 -3 -18 10.698 8.300 5.311 5.787 o
10 -3 -17 12.046 11.370 4.574 7.764 o
10 -3 -16 9.016 9.431 4.120 9.583 o
10 -3 -15 5.616 6.361 2.847 20.007 o
10 -3 -14 2.262 1.091 4.261 9.040 o
10 -3 -13 69.793 70.621 2.403 17.914 o
10 -3 -12 23.405 24.920 1.757 43.985 o
10 -3 -11 29.084 25.890 1.545 51.330 o
10 -3 -10 55.120 55.697 2.019 25.740 o
10 -3 -9 149.373 151.178 2.767 8.030 o
10 -3 -8 0.136 1.282 1.282 99.478 o
10 -3 -7 33.346 30.827 1.787 39.066 o
10 -3 -6 2.029 1.626 1.575 65.419 o
10 -3 -5 58.625 56.131 1.959 26.030 o
10 -3 -4 18.039 18.024 1.464 63.584 o
10 -3 -3 122.204 127.187 4.776 5.154 o
10 -3 -2 46.122 45.236 3.342 12.763 o
10 -3 -1 35.575 36.088 3.080 15.434 o
10 -2 -18 2.788 1.434 10.643 1.451 o
10 -2 -17 23.878 27.616 3.393 13.468 o
10 -2 -16 1.993 1.091 4.907 6.820 o
10 -2 -15 23.767 25.041 3.029 16.713 o
10 -2 -14 15.015 14.025 2.050 36.226 o
10 -2 -13 18.534 17.559 2.070 34.742 o
10 -2 -12 11.395 9.794 1.565 61.356 o
10 -2 -11 160.999 166.587 2.979 6.918 o
10 -2 -10 23.444 20.811 1.363 66.868 o
10 -2 -9 26.170 27.061 1.565 51.353 o
10 -2 -8 20.028 18.761 1.636 51.856 o
10 -2 -7 102.026 101.772 2.514 12.871 o
10 -2 -6 1.075 1.010 1.040 149.591 o
10 -2 -5 43.225 42.601 1.515 42.754 o
10 -2 -4 2.170 1.626 0.990 162.287 o
10 -2 -3 32.041 31.867 1.353 58.276 o
10 -2 -2 7.680 6.573 1.727 52.628 o
10 -2 -1 82.657 82.940 2.777 13.461 o
10 -1 -18 5.509 4.029 4.150 9.496 o
10 -1 -17 2.210 1.868 12.198 1.105 o
10 -1 -16 42.186 47.973 3.726 10.611 o
10 -1 -15 8.078 7.836 2.868 19.616 o
10 -1 -14 1.244 1.373 1.444 78.060 o
10 -1 -13 21.053 19.185 2.060 34.495 o
10 -1 -12 62.127 67.370 2.625 16.758 o
10 -1 -11 7.859 6.816 1.444 73.649 o
10 -1 -10 17.864 17.529 1.373 70.906 o
10 -1 -9 157.771 161.346 2.433 8.151 o
10 -1 -8 11.887 12.400 1.050 120.437 o
10 -1 -7 73.307 72.600 1.565 26.953 o
10 -1 -6 23.210 21.164 1.091 91.926 o
10 -1 -5 81.106 78.588 1.727 22.652 o
10 -1 -4 27.041 26.395 1.404 60.077 o
10 -1 -3 78.876 74.822 1.858 21.968 o
10 -1 -2 78.443 78.002 1.484 26.082 o
10 -1 -1 3.075 2.080 0.818 229.381 o
10 0 0 173.324 181.965 1.797 8.048 o
10 0 1 0.784 0.061 0.242 2430.430 o
10 0 2 195.276 198.454 2.494 6.042 o
10 0 3 0.045 0.050 1.222 110.101 o
10 0 4 64.387 67.592 1.929 24.325 o
10 0 5 1.054 0.697 0.979 168.677 o
10 0 6 78.165 80.921 1.767 22.544 o
10 0 7 0.049 0.767 1.555 67.872 o
10 0 8 125.480 141.555 2.555 9.932 o
10 0 9 12.889 14.449 1.616 56.499 o
10 0 10 14.005 16.358 2.060 35.874 o
10 0 11 9.102 8.573 1.999 39.352 o
10 0 12 4.556 2.868 2.090 37.028 o
10 1 0 144.823 145.806 1.656 11.088 o
10 1 1 102.597 104.770 1.747 17.025 o
10 1 2 10.410 8.896 1.161 105.800 o
10 1 3 43.828 43.530 1.404 46.163 o
10 1 4 121.515 123.774 2.656 10.315 o
10 1 5 5.818 4.806 1.454 74.175 o
10 1 6 73.582 79.870 2.110 19.749 o
10 1 7 9.189 8.169 1.353 81.797 o
10 1 8 37.851 40.026 2.120 28.307 o
10 1 9 11.893 12.571 1.626 56.564 o
10 1 10 28.715 29.737 1.969 34.707 o
10 1 11 4.750 4.170 1.646 58.889 o
10 1 12 0.861 0.061 0.061 12217.600 o
10 2 0 57.290 57.222 1.232 41.515 o
10 2 1 115.963 120.876 1.929 13.685 o
10 2 2 267.688 278.324 2.807 3.554 o
10 2 3 63.894 66.673 1.656 28.677 o
10 2 4 7.408 6.977 1.262 94.767 o
10 2 5 2.614 1.393 1.444 77.457 o
10 2 6 70.153 70.914 2.131 20.630 o
10 2 7 10.323 10.532 1.505 66.256 o
10 2 8 29.479 29.929 2.019 33.126 o
10 2 9 7.908 7.947 1.818 47.515 o
10 2 10 1.769 2.090 1.565 66.264 o
10 2 11 1.461 2.504 2.353 29.543 o
10 3 0 125.948 130.054 1.858 12.644 o
10 3 1 137.957 139.374 2.262 10.142 o
10 3 2 25.470 24.577 1.282 70.118 o
10 3 3 43.491 42.530 1.494 43.341 o
10 3 4 63.143 65.582 1.888 25.330 o
10 3 5 19.280 18.559 1.505 60.023 o
10 3 6 13.326 12.985 1.474 66.626 o
10 3 7 21.044 20.720 1.646 50.586 o
10 3 8 0.488 0.303 2.171 34.839 o
10 3 9 6.221 4.756 1.767 50.901 o
10 3 10 7.094 7.290 1.868 45.310 o
10 3 11 9.452 10.592 1.838 45.916 o
10 4 0 58.880 58.969 1.737 29.498 o
10 4 1 18.182 16.186 1.212 86.829 o
10 4 2 77.806 78.810 2.019 20.137 o
10 4 3 38.772 40.713 1.696 38.834 o
10 4 4 0.184 -0.091 0.747 293.472 o
10 4 5 7.483 5.321 1.292 91.294 o
10 4 6 21.353 20.589 1.605 52.618 o
10 4 7 2.476 2.868 1.605 62.691 o
10 4 8 46.611 49.164 2.302 23.127 o
10 4 9 1.815 1.848 1.595 63.825 o
10 4 10 6.703 6.765 2.080 36.898 o
10 4 11 0.202 -0.515 9.794 1.714 o
10 5 0 79.494 80.809 2.302 17.223 o
10 5 1 53.973 51.547 2.030 26.156 o
10 5 2 10.565 10.128 1.343 81.303 o
10 5 3 4.246 2.545 1.393 81.910 o
10 5 4 47.673 49.629 1.959 28.852 o
10 5 5 3.931 3.463 1.242 102.118 o
10 5 6 55.754 56.666 2.272 21.861 o
10 5 7 3.872 3.453 1.727 53.945 o
10 5 8 1.850 1.747 2.191 34.031 o
10 5 9 1.431 1.747 2.656 23.231 o
10 5 10 16.972 19.801 2.605 22.759 o
10 6 0 2.757 2.444 1.323 91.562 o
10 6 1 6.361 2.565 0.979 156.029 o
10 6 2 67.269 69.329 2.373 18.548 o
10 6 3 24.189 22.689 1.666 48.096 o
10 6 4 11.358 9.895 1.535 63.578 o
10 6 5 9.036 9.310 1.585 60.913 o
10 6 6 69.535 74.397 2.595 16.079 o
10 6 7 2.121 1.202 2.333 30.053 o
10 6 8 44.336 49.578 2.928 15.961 o
10 6 9 0.892 3.948 3.807 11.322 o
10 7 0 50.060 50.739 2.030 26.946 o
10 7 1 27.450 25.506 1.696 45.127 o
10 7 2 10.806 8.593 1.706 52.671 o
10 7 3 27.825 29.040 2.019 33.531 o
10 7 4 59.316 64.462 2.211 21.636 o
10 7 5 2.190 1.393 0.697 317.252 o
10 7 6 3.378 2.060 2.191 33.886 o
10 7 7 0.253 -0.091 4.130 9.640 o
10 7 8 4.890 2.666 2.333 29.812 o
10 8 0 28.081 30.555 1.818 39.548 o
10 8 1 13.416 13.480 1.676 52.862 o
10 8 2 33.583 32.019 1.888 35.699 o
10 8 3 5.733 5.695 1.757 51.472 o
10 8 4 3.334 2.333 1.747 52.971 o
10 8 5 11.465 11.905 1.959 40.227 o
10 8 6 24.814 24.678 2.221 29.262 o
10 8 7 0.015 1.565 4.332 8.759 o
10 9 0 23.512 21.336 1.636 50.058 o
10 9 1 7.002 5.836 1.676 55.990 o
10 9 2 6.552 6.129 1.706 54.182 o
10 9 3 25.435 23.325 2.171 30.472 o
10 9 4 11.289 11.521 2.100 35.325 o
10 9 5 1.283 0.101 0.242 2237.280 o
10 9 6 12.594 10.643 2.221 31.658 o
10 10 0 2.394 2.757 2.171 34.570 o
10 10 1 4.320 3.060 1.555 66.086 o
10 10 2 15.754 15.045 1.686 51.287 o
10 10 3 1.301 0.303 1.171 118.465 o
10 10 4 9.991 7.422 2.242 31.553 o
10 11 0 14.349 13.046 2.040 36.744 o
10 11 1 9.341 6.836 1.838 46.340 o
11 -10 -9 18.724 16.671 3.181 15.573 o
11 -10 -8 3.735 3.514 4.211 9.241 o
11 -10 -7 4.086 5.968 2.989 18.231 o
11 -10 -6 0.450 -0.020 2.060 38.710 o
11 -10 -5 11.884 12.137 3.120 16.452 o
11 -10 -4 4.866 5.745 3.494 13.367 o
11 -10 -3 26.251 27.869 4.837 6.806 o
11 -10 -2 1.635 0.919 3.574 12.846 o
11 -10 -1 4.300 3.433 3.726 11.783 o
11 -9 -11 7.513 5.311 3.413 13.960 o
11 -9 -10 0.231 0.192 1.666 59.164 o
11 -9 -9 4.279 3.463 2.868 19.822 o
11 -9 -8 0.857 0.071 0.141 5520.180 o
11 -9 -7 17.713 17.166 2.827 19.530 o
11 -9 -6 3.858 2.676 3.383 14.294 o
11 -9 -5 11.742 12.147 2.646 22.661 o
11 -9 -4 11.276 7.624 2.615 23.327 o
11 -9 -3 24.145 26.203 4.574 7.609 o
11 -9 -2 2.449 -0.697 1.363 87.195 o
11 -9 -1 49.877 49.154 5.331 5.415 o
11 -8 -13 7.339 6.018 4.665 7.510 o
11 -8 -12 0.562 -0.384 1.343 90.866 o
11 -8 -11 27.789 27.455 3.241 14.541 o
11 -8 -10 0.940 -0.030 0.364 1154.210 o
11 -8 -9 41.552 43.883 3.373 12.759 o
11 -8 -8 4.345 4.069 2.565 24.708 o
11 -8 -7 6.484 6.604 2.646 23.082 o
11 -8 -6 0.549 1.535 2.080 37.878 o
11 -8 -5 31.619 31.262 2.948 17.019 o
11 -8 -4 1.474 1.626 4.130 9.627 o
11 -8 -3 32.651 32.443 4.574 7.494 o
11 -8 -2 16.343 14.470 4.180 9.215 o
11 -8 -1 7.476 4.978 5.119 6.244 o
11 -7 -14 2.934 2.575 4.524 8.016 o
11 -7 -13 20.854 23.810 4.211 8.984 o
11 -7 -12 1.077 0.141 4.584 7.820 o
11 -7 -11 29.703 26.980 3.009 16.603 o
11 -7 -10 1.891 1.191 4.089 9.816 o
11 -7 -9 8.159 8.936 2.585 24.002 o
11 -7 -8 3.374 2.696 2.302 30.703 o
11 -7 -7 83.321 84.303 3.787 8.688 o
11 -7 -6 1.622 1.060 1.797 50.524 o
11 -7 -5 10.624 9.976 2.565 24.194 o
11 -7 -4 5.068 3.736 3.090 17.073 o
11 -7 -3 63.039 63.937 4.988 5.923 o
11 -7 -2 15.255 12.793 4.089 9.642 o
11 -7 -1 53.639 54.072 4.786 6.547 o
11 -6 -15 9.126 7.644 3.938 10.486 o
11 -6 -14 2.977 1.949 2.464 26.886 o
11 -6 -13 18.046 17.903 3.827 10.900 o
11 -6 -12 10.605 9.926 2.625 23.127 o
11 -6 -11 21.313 21.154 2.787 19.764 o
11 -6 -10 2.634 2.847 2.383 28.718 o
11 -6 -9 169.538 179.269 4.887 4.062 o
11 -6 -8 7.845 6.947 2.312 29.923 o
11 -6 -7 8.257 9.542 2.312 29.777 o
11 -6 -6 1.783 3.039 2.171 34.612 o
11 -6 -5 62.566 62.907 3.201 12.575 o
11 -6 -4 27.358 29.484 3.887 10.322 o
11 -6 -3 51.306 48.912 4.382 7.756 o
11 -6 -2 9.537 9.239 3.423 13.805 o
11 -6 -1 5.884 2.817 3.605 12.568 o
11 -5 -15 8.474 7.724 4.342 8.647 o
11 -5 -14 30.585 32.887 4.413 8.048 o
11 -5 -13 3.156 3.898 3.049 17.569 o
11 -5 -12 2.566 2.524 3.564 12.898 o
11 -5 -11 49.665 50.467 2.646 18.352 o
11 -5 -10 22.620 22.134 2.161 31.225 o
11 -5 -9 12.419 11.057 1.919 41.728 o
11 -5 -8 14.209 13.854 1.908 41.503 o
11 -5 -7 99.406 95.309 3.544 8.845 o
11 -5 -6 7.306 4.615 2.060 37.664 o
11 -5 -5 1.054 1.141 1.777 51.770 o
11 -5 -4 11.588 10.380 3.049 17.240 o
11 -5 -3 7.972 5.634 3.009 17.884 o
11 -4 -14 6.567 7.785 2.605 23.755 o
11 -4 -13 4.475 3.736 2.555 24.904 o
11 -4 -12 44.742 49.437 2.575 19.644 o
11 -4 -11 42.733 41.985 2.080 28.113 o
11 -4 -10 7.285 5.170 1.515 67.930 o
11 -4 -9 147.979 153.672 3.049 7.438 o
11 -4 -8 15.725 13.944 1.545 60.064 o
11 -4 -7 37.315 36.855 1.797 36.781 o
11 -4 -6 32.802 33.624 1.929 34.538 o
11 -4 -5 47.181 46.579 2.534 20.042 o
11 -4 -4 2.697 1.878 1.505 71.322 o
11 -4 -3 50.576 46.125 3.686 10.614 o
11 -4 -2 15.926 13.621 2.898 18.793 o
11 -3 -17 6.961 3.282 8.411 2.321 o
11 -3 -16 7.733 8.613 3.080 17.050 o
11 -3 -15 2.409 1.454 6.240 4.219 o
11 -3 -14 22.300 25.112 2.858 18.704 o
11 -3 -13 26.286 24.163 2.201 29.563 o
11 -3 -12 0.165 -0.050 0.141 7554.490 o
11 -3 -11 33.215 31.534 1.929 34.681 o
11 -3 -10 16.694 16.984 1.676 51.197 o
11 -3 -9 13.616 13.167 1.595 57.753 o
11 -3 -8 1.326 0.777 1.343 90.219 o
11 -3 -7 179.320 183.823 3.403 5.552 o
11 -3 -6 27.287 27.556 1.767 42.030 o
11 -3 -5 48.105 46.599 1.969 28.872 o
11 -3 -4 43.820 40.904 2.302 24.030 o
11 -3 -3 121.086 122.108 3.292 8.383 o
11 -3 -2 8.994 7.856 2.646 22.926 o
11 -3 -1 69.496 67.340 3.968 8.633 o
11 -2 -17 1.583 0.919 5.089 6.344 o
11 -2 -16 5.816 6.069 3.261 15.298 o
11 -2 -15 17.556 15.853 2.242 30.264 o
11 -2 -14 1.437 2.484 3.231 15.704 o
11 -2 -13 9.974 9.199 2.050 37.350 o
11 -2 -12 4.226 4.766 1.555 65.817 o
11 -2 -11 26.956 23.416 2.060 33.101 o
11 -2 -10 1.470 0.404 1.202 112.439 o
11 -2 -9 112.801 112.424 2.928 10.108 o
11 -2 -8 21.348 21.598 1.787 43.806 o
11 -2 -7 38.984 36.916 1.636 41.379 o
11 -2 -6 0.765 1.525 1.070 141.443 o
11 -2 -5 290.855 301.791 3.564 2.857 o
11 -2 -4 11.318 9.774 1.464 69.306 o
11 -2 -3 172.351 182.480 4.069 4.883 o
11 -2 -2 22.490 23.042 2.100 32.782 o
11 -2 -1 40.960 38.966 2.423 22.600 o
11 -1 -17 0.974 0.252 1.434 79.515 o
11 -1 -16 11.643 10.935 3.191 15.772 o
11 -1 -15 11.702 9.603 2.080 36.054 o
11 -1 -14 14.346 15.671 2.837 19.596 o
11 -1 -13 31.662 32.382 2.433 23.800 o
11 -1 -12 1.448 -0.293 0.959 175.636 o
11 -1 -11 59.283 61.958 2.292 20.809 o
11 -1 -10 6.170 5.150 1.353 84.721 o
11 -1 -9 29.227 29.878 1.696 43.787 o
11 -1 -8 0.356 0.000 0.202 3682.850 o
11 -1 -7 181.772 184.600 2.353 6.874 o
11 -1 -6 10.521 11.632 1.232 94.027 o
11 -1 -5 132.389 133.114 2.292 10.587 o
11 -1 -4 25.858 24.678 1.525 54.145 o
11 -1 -3 105.696 105.487 2.272 13.670 o
11 -1 -2 19.576 18.195 1.131 93.560 o
11 -1 -1 146.582 150.421 2.221 9.432 o
11 0 0 3.901 3.837 1.060 137.731 o
11 0 1 65.845 66.643 1.959 23.735 o
11 0 2 42.102 42.510 1.605 40.240 o
11 0 3 6.427 4.988 1.434 75.827 o
11 0 4 30.299 29.747 1.585 48.078 o
11 0 5 0.052 0.111 0.444 828.175 o
11 0 6 6.366 6.856 1.474 71.531 o
11 0 7 1.646 2.534 1.898 45.215 o
11 0 8 1.267 1.171 2.282 31.451 o
11 0 9 6.290 5.634 1.949 42.021 o
11 0 10 31.062 33.675 2.423 23.966 o
11 1 0 6.173 4.483 1.020 143.551 o
11 1 1 5.143 4.635 1.000 150.680 o
11 1 2 78.311 82.819 1.959 20.366 o
11 1 3 29.757 30.009 1.515 51.563 o
11 1 4 25.854 25.789 1.737 43.929 o
11 1 5 22.000 22.608 1.777 43.899 o
11 1 6 23.635 23.224 1.676 47.726 o
11 1 7 7.464 6.664 1.424 75.862 o
11 1 8 3.898 2.474 1.919 43.949 o
11 1 9 16.939 18.650 1.939 39.302 o
11 1 10 0.576 1.151 2.373 29.138 o
11 2 0 58.031 59.161 1.454 35.462 o
11 2 1 14.689 12.874 1.181 95.851 o
11 2 2 39.702 41.944 1.656 39.588 o
11 2 3 1.293 0.313 0.283 1712.370 o
11 2 4 102.011 108.214 2.635 12.058 o
11 2 5 0.053 0.000 0.273 2195.540 o
11 2 6 12.007 12.198 1.515 64.310 o
11 2 7 10.774 9.562 1.616 58.149 o
11 2 8 54.116 57.717 2.474 19.506 o
11 2 9 1.065 2.141 2.201 33.769 o
11 2 10 10.722 10.107 1.898 42.989 o
11 3 0 36.281 36.462 1.232 60.529 o
11 3 1 4.381 3.736 1.141 119.381 o
11 3 2 50.198 51.578 1.636 35.118 o
11 3 3 29.021 28.232 1.605 48.001 o
11 3 4 0.651 0.858 1.555 67.671 o
11 3 5 17.492 16.984 1.434 66.434 o
11 3 6 82.644 87.595 2.464 15.340 o
11 3 7 1.321 0.333 0.404 915.295 o
11 3 8 11.086 10.249 1.939 41.237 o
11 3 9 0.401 0.586 1.444 78.583 o
11 3 10 24.137 25.536 2.040 33.984 o
11 4 0 1.616 0.555 0.737 291.284 o
11 4 1 48.488 48.922 1.666 35.312 o
11 4 2 25.019 24.224 1.424 60.650 o
11 4 3 13.189 11.562 1.353 77.948 o
11 4 4 48.320 45.610 1.717 34.590 o
11 4 5 10.019 8.169 1.525 65.307 o
11 4 6 0.824 -0.202 2.353 29.659 o
11 4 7 0.159 1.010 4.110 9.732 o
11 4 8 57.943 64.159 2.605 17.450 o
11 4 9 1.637 0.798 2.292 31.163 o
11 5 0 47.258 49.922 1.686 35.026 o
11 5 1 30.683 29.383 1.696 43.380 o
11 5 2 39.855 39.794 1.848 34.306 o
11 5 3 23.377 22.527 1.515 56.417 o
11 5 4 22.135 20.538 1.686 48.234 o
11 5 5 3.209 2.333 2.040 39.045 o
11 5 6 13.553 11.460 1.888 42.711 o
11 5 7 5.243 5.180 2.161 34.499 o
11 5 8 0.112 1.565 2.383 28.907 o
11 5 9 0.167 0.404 0.777 270.223 o
11 6 0 20.260 18.407 1.777 44.992 o
11 6 1 25.985 26.132 1.717 44.664 o
11 6 2 35.536 35.563 1.828 36.541 o
11 6 3 8.831 8.098 1.545 64.235 o
11 6 4 27.254 25.244 1.777 41.996 o
11 6 5 4.823 5.069 1.959 41.864 o
11 6 6 3.244 2.746 2.777 21.177 o
11 6 7 0.207 -0.434 2.504 26.213 o
11 6 8 29.093 36.775 2.807 18.569 o
11 7 0 21.709 21.467 1.929 38.365 o
11 7 1 16.482 16.065 1.888 41.592 o
11 7 2 23.400 25.809 1.787 42.632 o
11 7 3 12.479 12.470 1.646 55.125 o
11 7 4 5.113 4.917 1.717 54.089 o
11 7 5 8.228 7.280 2.090 36.333 o
11 7 6 12.916 11.218 1.979 39.270 o
11 7 7 4.796 6.301 2.524 25.411 o
11 8 0 0.072 1.050 1.767 52.553 o
11 8 1 16.172 13.753 1.969 38.828 o
11 8 2 5.787 4.423 1.858 46.302 o
11 8 3 5.336 4.705 1.717 54.060 o
11 8 4 13.666 13.430 2.009 37.862 o
11 8 5 10.598 10.996 1.929 41.666 o
11 8 6 13.614 14.136 2.555 24.049 o
11 9 0 12.701 12.945 1.838 44.930 o
11 9 1 12.657 11.885 1.777 47.938 o
11 9 2 15.576 16.328 2.161 32.617 o
11 9 3 12.152 12.975 1.878 43.273 o
11 9 4 7.115 4.726 1.787 49.603 o
11 10 0 11.093 11.895 1.797 47.332 o
11 10 1 7.269 6.957 1.999 39.748 o
11 10 2 13.831 12.541 1.989 38.627 o
12 -10 -5 1.860 -0.374 1.666 58.799 o
12 -10 -4 7.564 7.886 3.453 13.616 o
12 -10 -3 6.376 4.665 3.766 11.503 o
12 -10 -2 2.196 3.716 3.908 10.735 o
12 -9 -10 0.536 -0.111 1.878 46.541 o
12 -9 -9 13.809 13.298 3.302 14.670 o
12 -9 -8 5.016 4.887 3.100 16.950 o
12 -9 -7 11.252 11.481 3.029 17.458 o
12 -9 -6 4.254 2.858 3.474 13.553 o
12 -9 -5 24.080 24.153 3.049 16.513 o
12 -9 -4 13.308 12.884 2.898 18.919 o
12 -9 -2 11.311 11.046 4.665 7.474 o
12 -9 -1 1.252 2.797 3.877 10.916 o
12 -8 -12 3.060 2.009 6.119 4.386 o
12 -8 -11 5.519 3.716 3.574 12.779 o
12 -8 -10 5.198 2.716 3.494 13.384 o
12 -8 -9 7.276 6.341 3.009 17.894 o
12 -8 -8 8.414 8.512 3.100 16.815 o
12 -8 -7 36.273 39.228 3.312 13.463 o
12 -8 -6 8.296 8.765 2.736 21.473 o
12 -8 -5 6.440 5.998 2.575 24.361 o
12 -8 -4 0.116 0.364 1.727 55.096 o
12 -8 -3 18.102 16.398 4.443 8.155 o
12 -8 -2 20.509 19.852 4.847 6.849 o
12 -8 -1 7.709 8.017 4.271 8.938 o
12 -7 -13 3.664 2.060 4.958 6.675 o
12 -7 -12 10.873 10.158 3.211 15.609 o
12 -7 -11 8.604 5.947 2.918 18.970 o
12 -7 -10 16.853 15.914 2.787 20.149 o
12 -7 -9 4.086 3.857 2.625 23.610 o
12 -7 -8 1.249 0.182 1.414 81.679 o
12 -7 -7 6.685 3.645 2.454 26.837 o
12 -7 -6 20.557 24.547 2.959 17.627 o
12 -7 -5 48.983 49.578 3.241 13.239 o
12 -7 -4 18.639 19.074 2.696 21.256 o
12 -7 -3 12.189 11.733 3.726 11.625 o
12 -7 -2 7.534 5.230 3.756 11.547 o
12 -7 -1 40.376 35.846 4.645 7.180 o
12 -6 -14 7.282 5.927 4.332 8.702 o
12 -6 -13 33.252 32.150 4.402 8.055 o
12 -6 -12 9.028 7.735 3.049 17.360 o
12 -6 -11 5.761 1.767 2.878 19.664 o
12 -6 -10 9.001 7.401 2.767 21.015 o
12 -6 -9 26.803 23.184 2.878 18.273 o
12 -6 -8 16.005 15.792 2.656 22.138 o
12 -6 -7 47.433 51.103 3.221 13.415 o
12 -6 -6 11.528 10.289 2.363 28.254 o
12 -6 -5 14.058 12.743 2.433 26.402 o
12 -6 -4 13.591 12.480 2.353 28.204 o
12 -6 -3 51.714 55.293 4.806 6.512 o
12 -6 -2 7.204 7.159 3.443 13.708 o
12 -6 -1 4.012 3.686 3.574 12.800 o
12 -5 -14 2.009 1.989 7.341 3.050 o
12 -5 -13 4.046 2.656 3.908 10.724 o
12 -5 -12 15.697 18.357 3.029 17.179 o
12 -5 -11 22.407 22.295 2.333 27.251 o
12 -5 -10 2.725 2.252 2.575 24.637 o
12 -5 -9 5.983 5.150 1.999 40.062 o
12 -5 -8 5.007 4.483 2.373 28.749 o
12 -5 -7 10.715 9.683 2.383 27.888 o
12 -5 -6 0.166 0.545 5.412 5.613 o
12 -5 -5 101.761 106.214 3.797 7.825 o
12 -5 -4 27.764 27.071 2.545 22.615 o
12 -5 -3 6.435 6.866 3.352 14.469 o
12 -4 -14 0.850 -0.626 1.575 66.024 o
12 -4 -13 32.723 32.715 3.130 15.193 o
12 -4 -12 0.017 0.141 0.666 369.459 o
12 -4 -11 25.410 25.476 1.979 35.533 o
12 -4 -10 10.107 10.461 1.747 50.356 o
12 -4 -9 22.510 20.982 1.807 42.745 o
12 -4 -8 12.972 12.824 1.636 55.509 o
12 -4 -7 94.712 99.177 2.948 11.318 o
12 -4 -6 2.630 2.878 2.191 33.916 o
12 -4 -5 8.092 7.765 1.979 40.347 o
12 -4 -4 0.636 -0.101 0.232 2700.640 o
12 -4 -3 121.948 130.075 3.716 7.147 o
12 -3 -16 2.174 1.848 7.735 2.747 o
12 -3 -15 5.171 3.898 2.656 23.032 o
12 -3 -14 29.238 31.453 3.171 15.012 o
12 -3 -13 33.760 34.624 2.504 22.348 o
12 -3 -12 15.472 14.288 2.090 34.852 o
12 -3 -11 17.571 16.509 1.818 44.211 o
12 -3 -10 4.581 4.473 1.484 71.920 o
12 -3 -9 59.856 61.493 2.252 21.259 o
12 -3 -8 2.759 1.454 1.696 56.356 o
12 -3 -7 41.994 44.550 2.171 26.287 o
12 -3 -6 11.082 9.522 1.585 60.105 o
12 -3 -5 107.354 110.950 3.413 8.722 o
12 -3 -4 4.074 4.271 2.534 25.304 o
12 -3 -3 10.939 8.825 2.868 19.488 o
12 -3 -2 12.281 12.198 2.979 17.989 o
12 -3 -1 128.156 132.468 5.331 4.295 o
12 -2 -16 25.436 30.060 4.998 6.385 o
12 -2 -15 0.511 1.101 4.120 9.682 o
12 -2 -14 13.381 15.166 2.797 20.202 o
12 -2 -13 14.586 14.954 2.696 21.617 o
12 -2 -12 34.242 38.542 2.444 23.039 o
12 -2 -11 42.720 44.863 2.131 26.892 o
12 -2 -10 5.121 4.211 1.605 61.671 o
12 -2 -9 47.163 46.377 2.302 23.237 o
12 -2 -8 3.154 3.070 1.414 80.075 o
12 -2 -7 115.521 119.937 3.716 7.465 o
12 -2 -6 1.251 1.202 1.919 44.426 o
12 -2 -5 2.132 1.898 1.454 76.503 o
12 -2 -4 10.292 10.118 2.100 35.552 o
12 -2 -3 86.496 86.646 3.282 10.519 o
12 -2 -2 14.724 16.065 2.171 32.464 o
12 -2 -1 43.438 45.317 2.696 18.518 o
12 -1 -17 2.817 2.474 4.322 8.782 o
12 -1 -16 3.109 0.364 2.787 21.070 o
12 -1 -15 7.429 6.624 2.514 25.450 o
12 -1 -14 27.198 25.789 2.474 23.890 o
12 -1 -13 3.537 2.686 3.150 16.473 o
12 -1 -12 54.840 63.220 3.524 11.046 o
12 -1 -11 33.741 35.371 3.039 15.909 o
12 -1 -10 3.521 5.129 2.292 30.868 o
12 -1 -9 47.115 47.771 2.433 21.289 o
12 -1 -8 11.192 11.632 1.797 47.340 o
12 -1 -7 36.001 32.685 1.626 43.606 o
12 -1 -6 11.018 10.077 1.313 84.350 o
12 -1 -5 59.791 61.574 1.838 27.222 o
12 -1 -4 4.369 2.938 1.383 82.894 o
12 -1 -3 9.390 9.047 1.343 82.483 o
12 -1 -2 90.058 92.846 2.302 15.513 o
12 -1 -1 49.807 50.144 1.666 34.719 o
12 0 0 105.986 112.616 2.444 12.520 o
12 0 2 22.116 19.427 1.696 47.947 o
12 0 3 59.214 63.361 2.171 22.246 o
12 0 4 11.901 7.755 1.525 64.579 o
12 0 5 4.618 2.797 2.444 27.209 o
12 0 6 76.673 86.827 3.110 11.804 o
12 0 7 9.284 10.037 2.201 32.614 o
12 0 8 8.373 9.057 2.413 27.418 o
12 0 9 0.367 1.575 2.979 18.506 o
12 1 0 14.097 12.551 1.383 74.106 o
12 1 1 101.140 109.274 2.585 12.319 o
12 1 2 54.808 58.848 2.141 23.662 o
12 1 3 9.920 8.381 1.858 45.111 o
12 1 4 38.482 40.965 2.393 23.233 o
12 1 5 34.043 34.432 2.080 30.339 o
12 1 6 5.940 5.109 1.595 62.009 o
12 1 7 28.741 29.828 2.201 28.806 o
12 1 8 31.009 38.481 2.423 23.714 o
12 1 9 10.204 11.864 2.484 25.702 o
12 2 0 57.865 61.372 1.717 29.824 o
12 2 1 7.824 5.826 1.303 89.546 o
12 2 2 25.105 26.102 1.595 50.496 o
12 2 3 9.531 9.401 1.676 54.724 o
12 2 4 24.636 24.577 1.919 37.719 o
12 2 5 9.409 7.644 1.989 39.760 o
12 2 6 13.274 13.096 1.848 44.331 o
12 2 7 4.753 4.715 1.989 40.661 o
12 2 8 3.051 1.919 1.434 78.211 o
12 2 9 10.941 11.178 1.939 41.179 o
12 3 0 13.674 13.672 1.363 75.913 o
12 3 1 45.304 43.883 1.666 37.111 o
12 3 2 25.701 27.657 1.666 46.666 o
12 3 3 0.948 0.040 0.151 4894.600 o
12 3 4 16.169 16.348 1.616 54.908 o
12 3 5 4.436 3.302 1.706 55.081 o
12 3 6 5.552 3.373 1.565 64.778 o
12 3 7 15.272 15.287 1.807 45.397 o
12 3 8 2.232 0.111 0.626 393.666 o
12 3 9 9.452 10.107 2.131 34.698 o
12 4 0 14.238 13.137 1.383 73.828 o
12 4 1 30.811 30.211 1.575 48.218 o
12 4 2 12.678 11.481 1.535 62.660 o
12 4 3 20.562 17.943 1.525 58.251 o
12 4 4 35.236 38.966 1.919 33.650 o
12 4 5 0.172 0.131 0.384 1097.690 o
12 4 6 22.207 20.498 1.818 42.486 o
12 4 7 0.467 -0.061 2.444 27.516 o
12 4 8 0.394 1.080 2.817 20.692 o
12 5 0 9.382 9.047 1.393 77.142 o
12 5 1 30.004 29.252 1.636 46.100 o
12 5 2 17.987 19.306 1.545 57.855 o
12 5 3 8.032 8.977 1.646 57.169 o
12 5 4 24.469 27.051 1.858 39.540 o
12 5 5 16.731 16.499 1.989 37.759 o
12 5 6 1.135 0.222 1.444 78.352 o
12 5 7 5.856 5.947 2.545 24.967 o
12 6 0 8.581 8.340 1.404 76.802 o
12 6 1 16.296 14.207 1.525 61.130 o
12 6 2 0.758 -0.030 0.333 1377.930 o
12 6 3 13.379 11.915 1.757 48.758 o
12 6 4 18.001 19.003 1.888 40.927 o
12 6 5 3.307 2.343 1.929 43.594 o
12 6 6 13.603 13.430 2.070 35.833 o
12 6 7 2.130 1.444 2.201 33.711 o
12 7 0 6.277 7.240 1.484 70.567 o
12 7 1 13.141 13.389 1.616 56.601 o
12 7 2 13.926 12.995 1.777 47.463 o
12 7 3 0.358 0.162 0.232 2800.400 o
12 7 4 11.376 12.470 2.100 35.249 o
12 7 5 4.576 4.261 2.242 32.201 o
12 8 0 2.985 1.989 1.636 60.410 o
12 8 1 0.812 0.182 0.343 1286.860 o
12 8 2 11.813 11.026 1.838 45.349 o
12 8 3 11.652 10.673 2.009 38.416 o
12 8 4 20.027 19.599 2.050 34.938 o
12 9 0 17.194 17.923 1.939 39.324 o
12 9 1 13.337 13.985 1.818 45.577 o
12 9 2 4.080 3.918 2.080 37.377 o
13 -9 -7 4.390 5.261 4.473 8.183 o
13 -9 -6 0.285 0.091 0.151 6198.430 o
13 -9 -5 1.913 1.494 4.948 6.709 o
13 -9 -4 16.000 15.823 3.140 16.063 o
13 -9 -3 27.983 31.928 3.251 14.370 o
13 -9 -2 1.071 0.040 1.919 44.530 o
13 -8 -10 0.891 0.172 3.675 12.163 o
13 -8 -9 13.938 16.651 3.221 15.343 o
13 -8 -8 2.005 1.404 6.402 4.009 o
13 -8 -7 19.184 21.305 3.181 15.481 o
13 -8 -6 4.710 5.826 3.130 16.623 o
13 -8 -5 16.022 16.489 3.090 16.560 o
13 -8 -4 3.474 1.747 3.776 11.489 o
13 -8 -3 3.189 2.837 3.766 11.548 o
13 -8 -2 3.248 1.595 3.474 13.576 o
13 -8 -1 22.815 24.567 3.544 12.464 o
13 -7 -12 4.944 4.806 3.736 11.705 o
13 -7 -11 5.732 3.080 3.544 12.998 o
13 -7 -10 10.655 12.400 2.989 17.925 o
13 -7 -9 25.431 25.718 3.231 14.741 o
13 -7 -8 3.851 3.716 3.261 15.360 o
13 -7 -7 6.922 4.715 2.868 19.713 o
13 -7 -6 5.097 3.504 2.454 26.939 o
13 -7 -5 17.056 16.257 2.757 20.552 o
13 -7 -4 3.607 4.009 2.656 23.097 o
13 -7 -3 18.541 17.741 2.757 20.429 o
13 -7 -2 11.030 8.754 4.221 9.120 o
13 -7 -1 13.281 14.530 4.473 8.093 o
13 -6 -13 10.059 11.309 4.221 9.118 o
13 -6 -11 27.846 28.000 3.191 14.959 o
13 -6 -9 12.286 10.360 2.726 21.400 o
13 -6 -8 3.139 3.009 2.706 22.289 o
13 -6 -7 21.340 22.174 2.837 19.083 o
13 -6 -6 1.789 1.131 7.088 3.271 o
13 -6 -5 23.601 24.102 2.858 18.661 o
13 -6 -4 5.106 5.594 2.433 27.315 o
13 -6 -3 4.169 1.757 3.474 13.562 o
13 -6 -2 6.294 5.998 3.877 10.852 o
13 -6 -1 16.706 17.630 4.483 8.018 o
13 -5 -14 2.424 1.080 8.391 2.334 o
13 -5 -13 3.111 3.342 4.301 8.860 o
13 -5 -12 18.228 17.680 3.049 16.880 o
13 -5 -11 5.508 3.999 2.635 23.364 o
13 -5 -10 1.745 1.656 2.797 20.941 o
13 -5 -9 25.124 23.789 2.868 18.466 o
13 -5 -8 6.417 7.088 2.635 23.247 o
13 -5 -7 24.589 26.708 2.827 18.903 o
13 -5 -6 4.989 4.372 2.242 32.161 o
13 -5 -5 18.595 17.792 2.524 24.095 o
13 -5 -4 10.249 12.268 2.504 25.287 o
13 -5 -3 52.234 55.839 5.160 5.708 o
13 -5 -2 3.194 3.918 3.342 14.640 o
13 -5 -1 2.417 1.000 4.170 9.437 o
13 -4 -14 17.313 16.408 5.069 6.300 o
13 -4 -13 1.767 0.858 4.241 9.130 o
13 -4 -12 7.106 5.675 2.393 28.087 o
13 -4 -11 33.962 34.402 2.201 27.703 o
13 -4 -10 20.175 21.578 1.999 36.311 o
13 -4 -9 23.794 23.931 1.929 37.642 o
13 -4 -8 10.280 10.935 1.999 38.983 o
13 -4 -7 45.931 46.801 2.464 21.065 o
13 -4 -6 23.380 25.486 2.474 24.260 o
13 -4 -5 59.354 58.090 4.443 7.374 o
13 -4 -4 0.604 -0.535 11.885 1.164 o
13 -3 -15 5.700 5.099 5.644 5.145 o
13 -3 -14 4.424 4.402 3.352 14.528 o
13 -3 -13 16.397 14.621 2.373 27.396 o
13 -3 -12 13.437 12.127 2.262 30.426 o
13 -3 -11 3.589 3.130 1.828 48.344 o
13 -3 -10 34.306 36.643 2.131 28.968 o
13 -3 -9 51.786 51.386 2.333 21.895 o
13 -3 -8 17.840 15.914 2.454 25.550 o
13 -3 -7 15.628 15.550 3.150 15.980 o
13 -3 -6 2.547 1.646 2.393 28.520 o
13 -3 -5 21.269 21.699 3.453 13.172 o
13 -3 -4 12.363 9.794 3.130 16.369 o
13 -3 -3 22.678 23.577 3.514 12.684 o
13 -3 -2 24.024 24.951 3.524 12.566 o
13 -2 -16 1.049 1.373 3.090 17.189 o
13 -2 -15 14.803 15.641 3.302 14.614 o
13 -2 -14 7.166 6.725 2.898 19.267 o
13 -2 -13 17.008 18.195 3.039 17.023 o
13 -2 -12 3.204 4.463 2.736 21.772 o
13 -2 -11 51.138 54.072 2.757 16.955 o
13 -2 -10 18.785 15.096 2.171 31.993 o
13 -2 -9 5.142 4.140 3.312 14.871 o
13 -2 -8 21.643 22.972 2.534 23.469 o
13 -2 -7 58.777 59.938 3.080 13.634 o
13 -2 -6 2.199 1.151 1.686 57.195 o
13 -2 -5 60.526 59.171 4.392 7.497 o
13 -2 -4 3.832 3.736 2.050 38.512 o
13 -2 -3 8.085 4.827 2.131 35.172 o
13 -2 -2 3.466 2.040 2.878 19.731 o
13 -2 -1 23.006 20.972 3.302 14.306 o
13 -1 -16 16.686 16.408 3.383 13.890 o
13 -1 -15 1.905 0.000 2.666 23.071 o
13 -1 -14 1.493 1.717 2.090 37.412 o
13 -1 -13 34.026 39.673 3.474 12.417 o
13 -1 -12 21.583 24.547 3.009 17.031 o
13 -1 -11 1.622 0.818 1.777 51.693 o
13 -1 -10 1.965 0.182 1.202 112.098 o
13 -1 -9 43.042 45.347 3.080 14.839 o
13 -1 -8 1.446 1.191 1.787 51.113 o
13 -1 -7 63.160 67.117 2.615 16.770 o
13 -1 -6 0.401 0.050 2.019 40.274 o
13 -1 -5 7.969 5.432 1.555 64.311 o
13 -1 -4 11.159 10.986 1.575 60.498 o
13 -1 -3 121.793 129.267 2.746 9.849 o
13 -1 -2 1.277 1.515 2.959 18.738 o
13 -1 -1 6.635 5.200 2.090 36.655 o
13 0 0 0.201 -0.555 1.797 50.868 o
13 0 1 8.563 7.583 1.595 60.676 o
13 0 2 19.578 19.387 2.605 22.591 o
13 0 3 1.587 1.212 2.726 22.050 o
13 0 4 2.289 1.929 3.019 17.966 o
13 0 5 1.545 0.252 0.283 1668.450 o
13 0 6 12.720 13.036 2.928 18.563 o
13 0 7 1.900 2.898 3.211 15.889 o
13 0 8 5.488 4.190 2.504 25.837 o
13 1 0 31.564 33.856 1.929 34.792 o
13 1 1 47.947 51.325 2.161 25.001 o
13 1 2 0.674 0.192 0.798 255.038 o
13 1 3 13.709 11.683 2.464 25.856 o
13 1 4 40.356 49.073 2.252 24.779 o
13 1 5 2.728 2.252 1.595 63.491 o
13 1 6 10.870 11.339 2.393 27.582 o
13 1 7 4.327 2.070 2.464 26.808 o
13 1 8 0.217 1.111 2.040 39.445 o
13 2 0 11.967 11.925 1.515 64.391 o
13 2 1 38.129 41.228 2.090 28.788 o
13 2 2 40.501 42.661 2.171 26.668 o
13 2 3 16.212 16.338 2.120 33.684 o
13 2 4 0.374 0.364 1.585 65.273 o
13 2 5 7.577 6.069 1.868 45.334 o
13 2 6 33.973 35.755 2.060 30.705 o
13 2 7 15.042 14.591 2.211 31.419 o
13 3 0 23.640 22.447 1.525 55.723 o
13 3 1 23.382 22.659 1.717 46.074 o
13 3 2 28.717 30.535 1.838 38.694 o
13 3 3 30.404 30.232 1.858 37.636 o
13 3 4 30.912 32.382 1.929 35.106 o
13 3 5 8.596 9.431 1.949 41.337 o
13 3 6 8.235 9.330 1.959 40.999 o
13 3 7 3.498 3.867 2.040 38.920 o
13 4 0 26.060 28.010 1.656 46.919 o
13 4 1 3.113 1.908 1.474 74.049 o
13 4 2 16.187 15.318 1.747 47.999 o
13 4 3 0.112 0.727 4.625 7.687 o
13 4 4 0.938 0.414 1.353 89.204 o
13 4 5 1.581 1.383 1.343 89.899 o
13 4 6 18.448 15.681 1.898 40.808 o
13 5 0 19.000 19.508 1.575 55.522 o
13 5 1 4.004 1.727 0.757 260.615 o
13 5 2 1.327 0.091 1.000 162.087 o
13 5 3 3.738 3.120 1.919 43.924 o
13 5 4 8.168 7.724 2.019 38.801 o
13 5 5 2.375 0.616 0.788 252.682 o
13 5 6 15.090 14.581 2.161 32.797 o
13 6 0 3.127 2.726 1.565 65.718 o
13 6 1 18.350 20.165 1.717 48.085 o
13 6 2 3.943 3.049 2.050 38.539 o
13 6 3 1.079 2.666 3.060 17.516 o
13 6 4 2.550 2.161 1.999 40.712 o
13 6 5 4.669 4.968 2.262 31.601 o
13 7 0 14.248 16.388 1.747 48.402 o
13 7 1 16.953 18.185 1.767 46.410 o
13 7 2 5.980 6.997 1.898 44.151 o
13 7 3 6.948 6.816 1.898 43.997 o
13 8 0 9.017 8.199 1.666 55.688 o
13 8 1 3.383 3.514 2.181 34.131 o
13 8 2 10.050 10.128 1.989 39.461 o
14 -8 -7 4.222 4.039 4.201 9.280 o
14 -8 -5 15.838 16.227 3.241 15.110 o
14 -8 -4 1.968 2.989 4.120 9.666 o
14 -8 -3 8.398 7.573 3.817 11.163 o
14 -7 -10 4.591 4.049 3.918 10.657 o
14 -7 -9 1.530 0.050 0.232 2308.330 o
14 -7 -8 3.788 3.736 3.292 15.081 o
14 -7 -7 17.317 15.863 3.292 14.631 o
14 -7 -6 9.531 8.159 3.261 15.194 o
14 -7 -5 11.263 12.289 3.120 16.468 o
14 -7 -4 2.660 2.575 3.221 15.779 o
14 -7 -3 24.508 25.193 3.049 16.473 o
14 -7 -2 10.688 9.764 4.524 7.951 o
14 -7 -1 5.059 2.494 3.150 16.442 o
14 -6 -12 3.612 2.868 3.867 10.951 o
14 -6 -11 4.720 3.847 4.211 9.233 o
14 -6 -10 2.152 0.202 11.652 1.211 o
14 -6 -9 21.072 22.376 3.171 15.491 o
14 -6 -8 3.431 2.131 3.544 13.036 o
14 -6 -7 3.909 2.595 2.797 20.855 o
14 -6 -6 0.709 1.444 5.594 5.252 o
14 -6 -5 28.366 28.303 3.019 16.534 o
14 -6 -4 2.276 3.887 4.140 9.567 o
14 -6 -3 25.516 27.243 4.604 7.496 o
14 -6 -2 4.203 4.291 3.756 11.591 o
14 -6 -1 12.971 11.986 4.726 7.273 o
14 -5 -12 6.557 2.555 5.099 6.301 o
14 -5 -11 10.182 8.805 3.181 15.937 o
14 -5 -10 11.253 10.360 2.878 19.313 o
14 -5 -9 4.368 1.999 4.160 9.466 o
14 -5 -8 1.452 1.262 2.161 35.041 o
14 -5 -7 29.373 26.021 4.534 7.691 o
14 -5 -6 3.839 3.857 3.635 12.380 o
14 -5 -5 6.056 6.230 4.110 9.670 o
14 -5 -4 4.251 4.493 5.432 5.557 o
14 -5 -3 18.491 20.366 4.715 7.239 o
14 -5 -2 0.241 -0.464 2.868 19.990 o
14 -5 -1 47.979 50.113 5.352 5.387 o
14 -4 -14 2.593 0.848 25.516 0.253 o
14 -4 -13 8.619 6.563 3.686 11.967 o
14 -4 -12 9.359 8.966 3.362 14.305 o
14 -4 -11 12.511 12.258 2.292 29.754 o
14 -4 -10 3.050 5.352 3.302 14.989 o
14 -4 -9 33.283 34.099 3.201 14.540 o
14 -4 -8 0.028 0.333 1.212 111.839 o
14 -4 -7 5.947 4.352 2.646 23.160 o
14 -4 -6 1.960 1.575 2.656 23.214 o
14 -3 -14 18.131 19.973 3.332 14.213 o
14 -3 -13 4.587 6.099 3.665 12.154 o
14 -3 -12 1.076 1.121 2.201 33.809 o
14 -3 -11 10.962 9.926 2.474 25.920 o
14 -3 -10 0.448 0.081 1.333 92.286 o
14 -3 -9 5.235 4.594 2.191 33.599 o
14 -3 -8 7.222 6.775 3.181 16.036 o
14 -3 -7 35.672 39.915 4.140 8.949 o
14 -3 -6 6.238 5.584 3.140 16.484 o
14 -3 -5 30.192 29.525 4.039 9.553 o
14 -3 -4 2.345 2.363 3.181 16.189 o
14 -3 -3 50.430 49.003 4.352 7.867 o
14 -2 -15 0.864 -0.414 15.045 0.726 o
14 -2 -14 2.856 1.919 4.988 6.597 o
14 -2 -13 1.859 1.262 3.615 12.557 o
14 -2 -12 8.383 6.573 3.090 16.951 o
14 -2 -11 11.483 10.107 2.524 24.888 o
14 -2 -10 4.639 3.322 2.403 28.102 o
14 -2 -9 47.611 52.517 3.362 12.434 o
14 -2 -8 1.997 2.999 2.060 38.390 o
14 -2 -7 7.596 7.563 3.140 16.426 o
14 -2 -6 9.817 9.572 3.312 14.721 o
14 -2 -5 77.368 87.544 5.180 5.278 o
14 -2 -4 8.793 7.896 3.140 16.391 o
14 -2 -3 74.025 74.317 4.837 6.060 o
14 -2 -2 0.903 0.485 3.120 16.869 o
14 -2 -1 9.545 7.351 3.080 17.017 o
14 -1 -15 0.658 0.464 1.888 45.995 o
14 -1 -14 28.894 32.514 3.484 12.608 o
14 -1 -13 6.833 4.281 2.726 21.791 o
14 -1 -12 5.130 5.836 2.686 22.482 o
14 -1 -11 22.015 24.819 3.100 16.082 o
14 -1 -10 9.275 11.158 2.757 21.069 o
14 -1 -9 0.687 -0.414 2.777 21.305 o
14 -1 -8 3.739 3.534 1.828 48.280 o
14 -1 -7 58.904 61.150 2.646 17.112 o
14 -1 -6 9.859 8.603 1.979 40.000 o
14 -1 -5 7.927 7.159 1.908 43.347 o
14 -1 -4 6.380 4.443 2.302 30.405 o
14 -1 -3 27.237 25.486 2.676 20.762 o
14 -1 -2 8.825 7.169 3.110 16.715 o
14 -1 -1 51.849 51.103 3.090 14.159 o
14 0 0 2.090 1.565 1.767 52.117 o
14 0 1 36.390 38.825 3.049 15.599 o
14 0 2 2.307 2.252 2.383 28.757 o
14 0 3 11.948 9.128 2.676 22.238 o
14 0 5 11.716 14.591 4.261 8.919 o
14 0 6 0.042 -0.495 1.787 51.472 o
14 1 0 19.566 21.629 2.171 31.437 o
14 1 1 8.242 8.653 1.989 39.863 o
14 1 2 11.196 11.036 2.100 35.370 o
14 1 3 24.925 27.697 3.009 16.810 o
14 1 4 1.892 0.212 1.171 117.932 o
14 1 5 13.832 12.945 3.110 16.483 o
14 1 6 9.581 7.977 2.413 27.368 o
14 2 0 10.794 10.875 1.807 47.032 o
14 2 1 13.640 13.036 1.868 43.379 o
14 2 2 1.495 0.323 2.423 27.912 o
14 2 3 1.377 0.081 0.182 3372.330 o
14 2 4 4.717 2.646 1.777 50.894 o
14 2 5 0.780 0.576 1.101 134.440 o
14 2 6 2.105 0.192 1.757 52.846 o
14 3 0 5.053 3.867 1.959 41.919 o
14 3 1 8.344 7.603 1.807 47.964 o
14 3 2 8.697 9.542 2.211 32.416 o
14 3 3 6.629 6.695 1.999 39.860 o
14 3 4 2.029 0.565 0.475 654.372 o
14 3 5 14.424 15.338 2.161 32.834 o
14 4 0 3.915 4.039 1.908 44.283 o
14 4 1 41.098 45.024 2.151 26.765 o
14 4 2 1.350 1.050 1.222 108.630 o
14 4 3 6.968 7.088 2.191 33.305 o
14 4 4 4.305 5.119 2.393 28.299 o
14 4 5 1.664 0.293 0.545 517.855 o
14 5 0 1.177 0.616 0.969 171.981 o
14 5 1 0.521 0.333 1.464 76.440 o
14 5 2 15.386 14.702 1.898 41.573 o
14 5 3 30.892 34.270 2.363 25.008 o
14 5 4 3.162 3.746 2.363 29.143 o
14 6 0 7.807 8.502 1.767 50.094 o
14 6 1 18.859 18.892 1.989 37.143 o
14 6 2 8.110 8.573 1.959 41.081 o
14 7 0 1.012 0.333 0.767 273.186 o
14 7 1 0.094 0.040 0.111 12119.100 o
15 -6 -9 8.224 5.776 6.644 3.713 o
15 -6 -8 4.529 5.685 4.675 7.492 o
15 -6 -7 17.331 20.286 5.069 6.289 o
15 -6 -6 8.211 5.614 5.655 5.120 o
15 -6 -5 1.947 -0.333 72.994 0.031 o
15 -6 -4 7.479 7.775 5.271 5.887 o
15 -6 -3 19.825 25.142 4.928 6.618 o
15 -6 -2 3.033 0.727 6.816 3.537 o
15 -6 -1 9.165 9.239 3.625 12.337 o
15 -5 -11 4.512 1.161 5.806 4.869 o
15 -5 -10 0.746 0.394 2.373 29.151 o
15 -5 -9 5.377 7.058 4.726 7.327 o
15 -5 -8 23.425 25.809 5.109 6.143 o
15 -5 -7 2.868 -0.101 0.586 437.735 o
15 -5 -6 0.803 -0.727 1.464 76.395 o
15 -5 -5 19.411 20.801 4.928 6.635 o
15 -5 -4 2.542 5.725 3.787 11.418 o
15 -5 -3 2.611 4.049 5.301 5.840 o
15 -5 -2 16.792 18.933 5.220 5.941 o
15 -5 -1 2.308 2.120 8.643 2.200 o
15 -4 -11 5.019 2.817 6.543 3.834 o
15 -4 -10 11.438 12.591 4.806 7.040 o
15 -4 -9 2.709 2.383 6.200 4.273 o
15 -4 -8 4.716 5.200 4.615 7.690 o
15 -4 -7 17.259 16.691 4.756 7.140 o
15 -4 -6 20.427 23.577 4.503 7.890 o
15 -4 -5 1.754 1.777 5.978 4.598 o
15 -3 -13 3.611 4.685 3.070 17.320 o
15 -3 -12 17.906 19.922 3.393 13.736 o
15 -3 -11 4.572 4.726 2.706 22.198 o
15 -3 -10 4.648 6.291 3.655 12.219 o
15 -3 -9 15.850 19.034 3.150 15.917 o
15 -3 -8 8.067 7.442 2.837 20.037 o
15 -3 -7 6.450 5.614 3.474 13.497 o
15 -3 -6 3.731 3.605 3.423 13.955 o
15 -3 -5 16.564 16.974 3.726 11.514 o
15 -3 -4 0.995 1.333 2.656 23.256 o
15 -2 -13 6.664 6.816 3.130 16.563 o
15 -2 -12 15.053 14.146 3.120 16.322 o
15 -2 -11 13.622 11.400 2.787 20.422 o
15 -2 -10 15.946 18.377 2.595 23.045 o
15 -2 -9 13.815 16.095 2.969 17.977 o
15 -2 -8 9.529 6.897 3.595 12.556 o
15 -2 -7 49.342 54.233 4.635 6.995 o
15 -2 -6 0.576 0.777 1.626 61.971 o
15 -2 -5 1.459 -0.293 3.312 14.969 o
15 -2 -4 1.190 0.333 8.007 2.564 o
15 -2 -3 20.751 21.023 3.686 11.644 o
15 -2 -2 3.065 -0.677 1.363 86.856 o
15 -1 -14 10.074 13.056 3.393 13.999 o
15 -1 -13 11.069 7.825 3.746 11.546 o
15 -1 -12 12.786 14.853 3.201 15.590 o
15 -1 -11 10.743 11.955 2.989 17.930 o
15 -1 -10 1.359 -0.475 6.412 3.998 o
15 -1 -9 25.262 26.586 3.060 16.309 o
15 -1 -8 3.431 4.301 2.787 20.992 o
15 -1 -7 9.461 9.926 2.595 23.719 o
15 -1 -6 5.111 4.029 2.181 33.944 o
15 -1 -5 27.974 26.122 2.837 18.602 o
15 -1 -4 3.084 0.777 1.979 41.558 o
15 -1 -3 8.450 8.199 2.373 28.358 o
15 -1 -2 1.212 1.070 3.110 16.967 o
15 0 0 0.004 0.101 0.606 447.285 o
15 0 1 5.460 5.150 3.463 13.595 o
15 0 4 6.109 4.867 3.948 10.477 o
15 1 0 0.903 1.575 2.484 26.570 o
15 1 1 15.949 16.812 4.160 9.295 o
15 1 2 11.514 16.600 3.060 17.031 o
15 1 3 3.146 2.151 3.867 10.959 o
15 1 4 10.373 12.662 4.443 8.231 o
15 2 0 1.769 0.222 1.232 106.876 o
15 2 1 4.658 3.433 3.251 15.442 o
15 2 2 2.151 0.394 0.454 705.872 o
15 2 3 4.674 3.716 2.333 29.790 o
15 2 4 9.361 11.400 2.403 27.477 o
15 3 0 15.211 17.246 2.221 30.974 o
15 3 1 11.346 10.239 2.201 32.376 o
15 3 2 14.198 14.974 2.151 33.176 o
15 3 3 2.496 0.677 1.070 139.607 o
15 4 0 8.203 9.370 2.141 34.577 o
15 4 1 3.728 4.271 2.030 39.249 o
15 4 2 8.173 8.260 2.474 26.168 o
15 5 0 6.091 5.392 2.100 36.365 o
15 5 1 2.995 3.181 2.383 28.685 o
16 -5 -7 9.608 13.379 5.473 5.448 o
16 -5 -6 1.675 1.979 8.199 2.445 o
16 -5 -5 3.631 5.190 6.058 4.471 o
16 -5 -4 14.602 19.670 5.251 5.882 o
16 -5 -3 23.685 25.647 5.453 5.409 o
16 -4 -9 7.110 5.917 6.785 3.561 o
16 -4 -8 0.746 2.413 5.756 4.961 o
16 -4 -7 14.694 15.873 5.271 5.845 o
16 -4 -6 2.007 0.404 3.292 15.141 o
16 -4 -5 31.420 35.088 5.160 5.948 o
16 -4 -4 1.598 2.615 3.988 10.315 o
16 -4 -3 0.869 0.555 9.966 1.655 o
16 -4 -2 2.820 -0.475 1.080 137.099 o
16 -4 -1 30.476 36.664 3.615 11.676 o
16 -3 -10 7.964 9.613 3.292 14.939 o
16 -3 -9 10.531 11.168 3.221 15.509 o
16 -3 -8 5.097 4.988 3.706 11.893 o
16 -3 -7 8.723 8.714 2.928 18.791 o
16 -3 -6 3.065 4.988 3.019 17.910 o
16 -2 -11 10.122 9.764 3.312 14.712 o
16 -2 -10 2.605 1.242 2.151 35.267 o
16 -2 -9 4.504 5.190 3.211 15.815 o
16 -2 -8 10.000 9.320 3.847 10.960 o
16 -2 -7 15.307 11.652 4.130 9.464 o
16 -2 -6 4.265 4.705 3.847 11.050 o
16 -2 -5 14.401 13.450 3.736 11.517 o
16 -2 -4 2.524 3.110 2.959 18.685 o
16 -2 -3 2.794 3.938 3.494 13.410 o
16 -2 -1 7.722 7.240 3.665 12.105 o
16 -1 -12 3.853 2.433 3.908 10.726 o
16 -1 -11 4.201 6.048 3.615 12.499 o
16 -1 -10 4.247 4.897 3.019 17.880 o
16 -1 -9 10.490 11.814 3.655 12.097 o
16 -1 -8 1.618 1.313 4.847 6.992 o
16 -1 -7 5.623 2.969 3.494 13.376 o
16 -1 -6 9.446 8.017 3.655 12.142 o
16 -1 -5 10.194 9.320 3.706 11.797 o
16 -1 -4 1.305 0.313 5.099 6.320 o
16 -1 -3 21.959 22.164 3.877 10.530 o
16 -1 -2 0.714 2.009 4.917 6.795 o
16 1 0 4.753 3.978 3.221 15.724 o
16 1 1 5.885 6.997 2.484 26.145 o
16 2 0 1.837 1.737 1.767 52.150 o
16 2 1 19.922 20.407 3.171 15.565 o
16 3 0 2.478 3.544 2.777 21.190 o
17 -2 -7 4.351 4.766 3.504 13.305 o
17 -2 -6 3.933 7.391 3.645 12.288 o
17 -2 -5 10.451 10.057 4.110 9.613 o
17 -1 -8 2.161 1.626 4.342 8.707 o
17 -1 -7 7.231 8.189 3.706 11.846 o
17 -1 -6 0.914 1.696 3.877 10.923 o
17 -1 -5 4.261 3.887 4.402 8.451 o
17 -1 -4 0.802 2.383 3.029 17.877 o
;
_olex2_submission_special_instructions 'No special instructions were received'
loop_
_space_group_symop_id
_space_group_symop_operation_xyz
1 x,y,z
2 -x,y+1/2,-z
loop_
_atom_site_label
_atom_site_type_symbol
_atom_site_fract_x
_atom_site_fract_y
_atom_site_fract_z
_atom_site_U_iso_or_equiv
_atom_site_adp_type
_atom_site_occupancy
_atom_site_refinement_flags_posn
Cl(1 Cl 0.681078(17) 0.74636(2) 0.887345(15) 0.01725(3) Uani 1.000000 .
Cl(2 Cl -0.655096(17) 0.26087(3) 0.580006(15) 0.01772(3) Uani 1.000000 .
O(1) O 0.16843(8) 0.93386(9) 0.91332(7) 0.03022(14) Uani 1.000000 .
H(1) H 0.2135(18) 1.027(2) 0.9889(17) 0.034(4) Uiso 1.000000 .
O(2) O 0.36107(6) 0.75309(9) 1.05532(5) 0.01931(8) Uani 1.000000 .
O(3) O -0.24658(6) 0.33146(7) 0.48070(5) 0.01757(9) Uani 1.000000 .
H(3) H -0.2866(16) 0.453(2) 0.4394(14) 0.028(3) Uiso 1.000000 .
N(1) N 0.35365(7) 0.49907(9) 0.84946(6) 0.01631(9) Uani 1.000000 .
H(1a H 0.3418(19) 0.406(2) 0.7625(18) 0.036(4) Uiso 1.000000 .
H(1b H 0.468(2) 0.563(3) 0.8689(17) 0.042(4) Uiso 1.000000 .
H(1c H 0.361(2) 0.416(3) 0.9447(19) 0.043(4) Uiso 1.000000 .
N(2) N -0.31381(7) 0.06891(9) 0.66325(6) 0.01726(10) Uani 1.000000 .
H(2a H -0.3404(18) -0.007(2) 0.5645(18) 0.034(4) Uiso 1.000000 .
H(2b H -0.321(2) -0.042(3) 0.7376(19) 0.041(4) Uiso 1.000000 .
H(2c H -0.415(2) 0.161(3) 0.6528(19) 0.047(5) Uiso 1.000000 .
C(1) C 0.25973(7) 0.78020(9) 0.94389(7) 0.01553(10) Uani 1.000000 .
C(2) C 0.22092(7) 0.64084(9) 0.82121(7) 0.01431(10) Uani 1.000000 .
H(2) H 0.2208(13) 0.7136(18) 0.7300(13) 0.024(3) Uiso 1.000000 .
C(3) C 0.05571(8) 0.54634(10) 0.80233(7) 0.01590(10) Uani 1.000000 .
H(3a H 0.0652(17) 0.442(2) 0.8758(17) 0.045(4) Uiso 1.000000 .
H(3b H -0.0299(16) 0.644(2) 0.8187(14) 0.035(3) Uiso 1.000000 .
C(4) C -0.01264(8) 0.46456(11) 0.65310(7) 0.01642(11) Uani 1.000000 .
H(4a H -0.0321(15) 0.585(2) 0.5794(14) 0.031(3) Uiso 1.000000 .
H(4b H 0.0698(15) 0.3703(19) 0.6284(13) 0.028(3) Uiso 1.000000 .
C(5) C -0.17533(7) 0.36459(9) 0.62859(7) 0.01380(10) Uani 1.000000 .
H(5) H -0.2539(16) 0.452(2) 0.6696(14) 0.030(3) Uiso 1.000000 .
C(6) C -0.15647(8) 0.17167(10) 0.70041(7) 0.01713(11) Uani 1.000000 .
H(6a H -0.1151(15) 0.1888(19) 0.8137(15) 0.034(3) Uiso 1.000000 .
H(6b H -0.0711(17) 0.088(2) 0.6715(14) 0.041(4) Uiso 1.000000 .
loop_
_atom_site_aniso_label
_atom_site_aniso_U_11
_atom_site_aniso_U_22
_atom_site_aniso_U_33
_atom_site_aniso_U_12
_atom_site_aniso_U_13
_atom_site_aniso_U_23
Cl(1 0.02045(6) 0.01365(6) 0.01887(6) 0.00010(6) 0.00758(4) 0.00224(6)
Cl(2 0.01876(5) 0.01620(6) 0.01740(5) 0.00191(6) 0.00385(4) -0.00252(6)
O(1) 0.0288(3) 0.0194(3) 0.0321(3) 0.0088(2) -0.0079(2) -0.0078(2)
O(2) 0.02287(18) 0.01656(19) 0.01550(16) 0.0012(2) 0.00059(13) -0.0020(2)
O(3) 0.0201(2) 0.0163(2) 0.01450(18) -0.00177(16) 0.00200(15) -0.00103(16)
N(1) 0.0150(2) 0.0165(2) 0.0167(2) 0.00039(17) 0.00348(17) -0.00246(19)
N(2) 0.0187(2) 0.0153(2) 0.0178(2) -0.00056(18) 0.00530(18) 0.00245(19)
C(1) 0.0161(2) 0.0126(3) 0.0166(2) -0.00047(18) 0.00263(17) -0.00159(19)
C(2) 0.0156(2) 0.0136(2) 0.0133(2) -0.00117(18) 0.00336(17) -0.00103(19)
C(3) 0.0146(2) 0.0176(3) 0.0152(2) -0.0017(2) 0.00399(18) -0.0025(2)
C(4) 0.0149(2) 0.0203(3) 0.0137(2) -0.0027(2) 0.00361(18) -0.0014(2)
C(5) 0.0130(2) 0.0139(2) 0.0139(2) -0.00015(18) 0.00284(17) -0.00031(19)
C(6) 0.0169(2) 0.0167(3) 0.0174(3) 0.0017(2) 0.00425(19) 0.0031(2)
loop_
_atom_type_symbol
_atom_type_description
_atom_type_scat_dispersion_real
_atom_type_scat_dispersion_imag
_atom_type_scat_source
_atom_type_scat_dispersion_source
C C 0.00347 0.00161
'Clementi & Roetti, C., At. Data Nucl. Data Tables 1974, 14, (177-478); Clementi & Raimondi, J. Chem. Phys., 1963, 38, (2686-2689)'
'Henke, Gullikson and Davis, At. Data and Nucl. Data Tables, 1993, 54, 2'
H H 0.00000 0.00000
'Clementi & Roetti, C., At. Data Nucl. Data Tables 1974, 14, (177-478); Clementi & Raimondi, J. Chem. Phys., 1963, 38, (2686-2689)'
'Henke, Gullikson and Davis, At. Data and Nucl. Data Tables, 1993, 54, 2'
N N 0.00653 0.00323
'Clementi & Roetti, C., At. Data Nucl. Data Tables 1974, 14, (177-478); Clementi & Raimondi, J. Chem. Phys., 1963, 38, (2686-2689)'
'Henke, Gullikson and Davis, At. Data and Nucl. Data Tables, 1993, 54, 2'
O O 0.01158 0.00611
'Clementi & Roetti, C., At. Data Nucl. Data Tables 1974, 14, (177-478); Clementi & Raimondi, J. Chem. Phys., 1963, 38, (2686-2689)'
'Henke, Gullikson and Davis, At. Data and Nucl. Data Tables, 1993, 54, 2'
loop_
_geom_angle_atom_site_label_1
_geom_angle_atom_site_label_2
_geom_angle_atom_site_label_3
_geom_angle
_geom_angle_site_symmetry_1
_geom_angle_site_symmetry_3
_geom_angle_publ_flag
C(1) O(1) H(1) 106.9(9) . . ?
C(5) O(3) H(3) 106.3(8) . . ?
H(1b N(1) H(1a 106.5(12) . . ?
H(1c N(1) H(1a 109.2(13) . . ?
H(1c N(1) H(1b 104.6(12) . . ?
C(2) N(1) H(1a 111.9(9) . . ?
C(2) N(1) H(1b 112.2(10) . . ?
C(2) N(1) H(1c 112.1(9) . . ?
H(2b N(2) H(2a 102.1(13) . . ?
H(2c N(2) H(2a 104.8(12) . . ?
H(2c N(2) H(2b 107.9(13) . . ?
C(6) N(2) H(2a 114.1(8) . . ?
C(6) N(2) H(2b 114.1(9) . . ?
C(6) N(2) H(2c 112.8(10) . . ?
O(2) C(1) O(1) 124.56(6) . . ?
C(2) C(1) O(1) 111.58(6) . . ?
C(2) C(1) O(2) 123.85(6) . . ?
C(1) C(2) N(1) 107.66(5) . . ?
H(2) C(2) N(1) 107.9(6) . . ?
H(2) C(2) C(1) 108.2(7) . . ?
C(3) C(2) N(1) 111.72(6) . . ?
C(3) C(2) C(1) 111.43(5) . . ?
C(3) C(2) H(2) 109.8(6) . . ?
H(3a C(3) C(2) 110.1(8) . . ?
H(3b C(3) C(2) 111.2(7) . . ?
H(3b C(3) H(3a 106.6(11) . . ?
C(4) C(3) C(2) 111.83(5) . . ?
C(4) C(3) H(3a 109.7(9) . . ?
C(4) C(3) H(3b 107.2(7) . . ?
H(4a C(4) C(3) 106.6(7) . . ?
H(4b C(4) C(3) 110.9(7) . . ?
H(4b C(4) H(4a 108.9(10) . . ?
C(5) C(4) C(3) 114.37(5) . . ?
C(5) C(4) H(4a 106.9(7) . . ?
C(5) C(4) H(4b 108.9(7) . . ?
C(4) C(5) O(3) 110.33(5) . . ?
H(5) C(5) O(3) 109.8(7) . . ?
H(5) C(5) C(4) 108.9(7) . . ?
C(6) C(5) O(3) 106.49(5) . . ?
C(6) C(5) C(4) 111.56(5) . . ?
C(6) C(5) H(5) 109.7(7) . . ?
C(5) C(6) N(2) 110.60(5) . . ?
H(6a C(6) N(2) 108.7(7) . . ?
H(6a C(6) C(5) 109.9(7) . . ?
H(6b C(6) N(2) 108.7(8) . . ?
H(6b C(6) C(5) 111.9(8) . . ?
H(6b C(6) H(6a 107.0(10) . . ?
loop_
_geom_bond_atom_site_label_1
_geom_bond_atom_site_label_2
_geom_bond_distance
_geom_bond_site_symmetry_2
_geom_bond_publ_flag
O(1) H(1) 0.982(17) . ?
O(1) C(1) 1.3224(9) . ?
O(2) C(1) 1.2050(7) . ?
O(3) H(3) 0.967(16) . ?
O(3) C(5) 1.4246(8) . ?
N(1) H(1a 1.057(18) . ?
N(1) H(1b 1.047(18) . ?
N(1) H(1c 1.088(19) . ?
N(1) C(2) 1.4850(9) . ?
N(2) H(2a 1.071(17) . ?
N(2) H(2b 1.08(2) . ?
N(2) H(2c 1.067(19) . ?
N(2) C(6) 1.4891(9) . ?
C(1) C(2) 1.5152(9) . ?
C(2) H(2) 1.031(12) . ?
C(2) C(3) 1.5354(9) . ?
C(3) H(3a 1.017(17) . ?
C(3) H(3b 1.056(15) . ?
C(3) C(4) 1.5269(9) . ?
C(4) H(4a 1.095(14) . ?
C(4) H(4b 1.050(14) . ?
C(4) C(5) 1.5268(9) . ?
C(5) H(5) 1.076(14) . ?
C(5) C(6) 1.5188(9) . ?
C(6) H(6a 1.073(14) . ?
C(6) H(6b 1.045(15) . ?
loop_
_refln_index_h
_refln_index_k
_refln_index_l
_refln_F_squared_meas
_refln_F_squared_sigma
2 0 0 6100.48 42.89
3 0 0 4036.31 32.63
4 0 0 282.04 3.4
5 0 0 22.61 0.65
6 0 0 1335.01 5.19
7 0 0 186.96 1.73
8 0 0 39.76 1.05
9 0 0 112.58 1.54
10 0 0 180.21 1.78
11 0 0 3.8 1.05
12 0 0 111.53 2.42
13 0 0 -0.55 1.78
14 0 0 1.55 1.75
15 0 0 0.1 0.6
0 -1 0 1.37 0.63
0 1 0 3.16 1.05
1 -1 0 406.27 5.43
1 1 0 427.39 5.01
2 -1 0 3709.5 22.89
2 1 0 3706.03 21.32
3 -1 0 461.49 6.78
3 1 0 476.33 6.23
4 -1 0 2114.8 15.74
4 1 0 2276.46 17.41
5 -1 0 572.66 2.46
5 1 0 572.68 3.81
6 -1 0 45.57 0.97
6 1 0 47.82 1.16
7 -1 0 369.2 2.25
7 1 0 381.36 2.53
8 -1 0 286.02 2.22
8 1 0 294.21 2.39
9 -1 0 46.7 1.37
9 1 0 49.79 1.12
10 -1 0 142.3 2.02
10 1 0 144.4 1.64
11 -1 0 4.4 1.04
11 1 0 4.44 1.01
12 -1 0 11.04 2.06
12 1 0 12.43 1.37
13 -1 0 34.51 3.81
13 1 0 33.53 1.91
14 -1 0 19.49 3.6
14 1 0 21.42 2.15
15 -1 0 -0.36 1.68
15 1 0 1.56 2.46
16 1 0 3.94 3.19
0 -2 0 2076.43 12.72
0 2 0 2154.74 19.08
1 -2 0 1792.42 13.97
1 2 0 1809.2 12.67
2 -2 0 2121.74 16.24
2 2 0 2128.75 14.23
3 -2 0 830.73 15.99
3 2 0 819.69 5.47
4 -2 0 178.65 5.88
4 2 0 183.46 1.78
5 -2 0 235.6 6.95
5 2 0 232.94 2.12
6 -2 0 157.7 2.08
6 2 0 161.04 1.61
7 -2 0 80.87 1.81
7 2 0 78.77 1.72
8 -2 0 25.44 1.21
8 2 0 21.42 0.99
9 -2 0 127.01 2.34
9 2 0 125.33 1.61
10 -2 0 56.85 3.06
10 2 0 56.67 1.22
11 -2 0 60.25 2.7
11 2 0 58.59 1.44
12 -2 0 51.79 2.76
12 2 0 60.78 1.7
13 2 0 11.81 1.5
14 2 0 10.77 1.79
15 -2 0 -0.4 2.87
15 2 0 0.22 1.22
16 -2 0 0.34 1.06
16 2 0 1.72 1.75
0 -3 0 -0.21 1.26
0 3 0 0.56 2.33
1 -3 0 2375.09 13.44
1 3 0 2497.34 17.7
2 -3 0 436.07 3.94
2 3 0 420.05 8.89
3 -3 0 22.63 1.6
3 3 0 29.17 0.87
4 -3 0 645.81 11.8
4 3 0 615.2 3.04
5 -3 0 501.2 9.5
5 3 0 481.6 3.08
6 -3 0 5.89 5.56
6 3 0 7.49 0.77
7 -3 0 800.79 20.15
7 3 0 709.09 4.59
8 3 0 73.38 1.72
9 -3 0 42.95 2.99
9 3 0 44.34 1.42
10 -3 0 123.35 4.54
10 3 0 128.8 1.84
11 -3 0 34.84 3.21
11 3 0 36.11 1.22
12 3 0 13.54 1.35
13 3 0 22.23 1.51
14 3 0 3.83 1.94
15 -3 0 13.8 4.14
15 3 0 17.08 2.2
16 -3 0 2.3 4.55
16 3 0 3.51 2.75
0 -4 0 1876.14 16.84
0 4 0 1937.93 25.47
1 -4 0 853.48 6.16
1 4 0 875.08 9.56
2 -4 0 143.01 2.38
2 4 0 148.23 1.64
3 -4 0 2958.46 22.82
3 4 0 2966.97 24.98
4 -4 0 345.89 4.51
4 4 0 345.78 2.42
5 -4 0 283.83 9.45
5 4 0 279.01 2.6
6 -4 0 605.27 16.47
6 4 0 522.3 4.08
7 -4 0 152.46 10.96
7 4 0 160.52 2.34
8 4 0 7.53 0.96
9 4 0 137.94 2.7
10 4 0 58.4 1.72
11 4 0 0.55 0.73
12 4 0 13.01 1.37
13 4 0 27.74 1.64
14 4 0 4 1.89
15 -4 0 9.51 4.47
15 4 0 9.28 2.12
0 -5 0 0.94 2.65
0 5 0 0.08 0.16
1 -5 0 563.04 4.98
1 5 0 557.96 2.93
2 -5 0 260.47 3.55
2 5 0 255.45 1.95
3 -5 0 180.11 3.32
3 5 0 175.84 1.87
4 -5 0 88.98 2.72
4 5 0 86.26 1.47
5 -5 0 406.39 5.78
5 5 0 432.74 3.24
6 -5 0 15.87 2.26
6 5 0 17.98 1.09
7 -5 0 103.62 4.02
7 5 0 107.94 2.06
8 5 0 150.32 2.51
9 5 0 8.46 1.19
10 5 0 80.03 2.28
11 5 0 49.44 1.67
12 5 0 8.96 1.38
13 -5 0 24.15 4.61
13 5 0 19.32 1.56
14 -5 0 2.28 3.77
14 5 0 0.61 0.96
15 -5 0 5.22 3.13
15 5 0 5.34 2.08
0 -6 0 662.96 19.76
0 6 0 637.03 4.58
1 -6 0 219.88 3.51
1 6 0 219.92 2.2
2 -6 0 104.24 2.63
2 6 0 110.94 1.5
3 -6 0 722.93 8.48
3 6 0 736.58 5.68
4 -6 0 165.21 3.79
4 6 0 166.97 2.11
5 -6 0 224.5 4.78
5 6 0 222.76 2.56
6 -6 0 298.23 4.19
6 6 0 298.52 2.79
7 -6 0 20.25 1.92
7 6 0 19.48 1.33
8 -6 0 155.96 3.6
8 6 0 153.78 2.67
9 -6 0 74.33 2.89
9 6 0 78.05 2.08
10 -6 0 1.81 7.66
10 6 0 2.42 1.31
11 -6 0 18.94 3.83
11 6 0 18.23 1.76
12 -6 0 5.06 3.95
12 6 0 8.26 1.39
13 -6 0 5.79 4.24
13 6 0 2.7 1.55
14 -6 0 8.07 3.3
14 6 0 8.42 1.75
0 -7 0 -1.79 20.59
0 7 0 0.01 0.95
1 -7 0 483.62 14.05
1 7 0 461.82 4
2 -7 0 116.04 3.67
2 7 0 116.53 1.55
3 -7 0 11.88 1.62
3 7 0 13.84 0.99
4 -7 0 254.93 3.87
4 7 0 259.31 3.33
5 -7 0 59.6 2.36
5 7 0 58.59 1.46
6 -7 0 0.92 1.83
6 7 0 1.58 0.92
7 -7 0 157.68 3.66
7 7 0 164.28 2.73
8 -7 0 18.75 2.2
8 7 0 16.85 1.51
9 -7 0 2.67 3.01
9 7 0 1.76 1.4
10 -7 0 44.51 4.45
10 7 0 50.25 2.01
11 -7 0 21.61 4.05
11 7 0 21.26 1.91
12 -7 0 3.88 3.58
12 7 0 7.17 1.47
13 -7 0 15.71 3.31
13 7 0 16.23 1.73
14 -7 0 1.58 3.04
14 7 0 0.33 0.76
0 -8 0 286.97 6.25
0 8 0 301.55 5.74
1 -8 0 178.18 5.06
1 8 0 179.76 2.3
2 -8 0 84.92 3.8
2 8 0 83.81 2.05
3 -8 0 327.23 4.71
3 8 0 324.84 2.99
4 -8 0 109.94 3.14
4 8 0 110.53 1.89
5 -8 0 16.49 2.03
5 8 0 18.36 1.18
6 -8 0 135.87 3.58
6 8 0 133.76 2.24
7 -8 0 99.83 3.32
7 8 0 100.9 2.38
8 -8 0 5.7 1.97
8 8 0 6.39 1.53
9 -8 0 75.67 3.28
9 8 0 74.39 2.42
10 -8 0 28.45 4.27
10 8 0 30.26 1.8
11 -8 0 0.11 2.9
11 8 0 1.04 1.75
12 -8 0 1.19 1.97
12 8 0 1.97 1.62
13 -8 0 10.77 3.28
13 8 0 8.12 1.65
0 9 0 0.38 0.99
1 -9 0 106.72 4.56
1 9 0 111.53 2.44
2 -9 0 161.3 5.37
2 9 0 161.67 2.89
3 -9 0 2.58 2.17
3 9 0 3.59 1.16
4 -9 0 144.91 3.73
4 9 0 146.25 2.61
5 -9 0 107.33 3.46
5 9 0 104.11 2.09
6 -9 0 64.95 3.02
6 9 0 62.91 1.85
7 -9 0 50.98 2.9
7 9 0 49.31 1.81
8 -9 0 36.95 2.77
8 9 0 34.74 1.75
9 -9 0 14.24 2.13
9 9 0 18.03 1.63
10 -9 0 19.77 2.94
10 9 0 21.13 1.62
11 -9 0 13.62 3.26
11 9 0 12.82 1.82
12 -9 0 17.23 3.37
12 9 0 17.75 1.92
0 10 0 377.74 5.43
1 10 0 8.31 1.88
2 -10 0 56.17 4.08
2 10 0 49.87 2.65
3 -10 0 107.82 5.03
3 10 0 107.4 2.39
4 -10 0 14.55 3.2
4 10 0 16.38 1.54
5 -10 0 4.21 2.95
5 10 0 6.26 1.47
6 -10 0 103.11 3.73
6 10 0 98.44 2.61
7 -10 0 6.33 2.04
7 10 0 6.58 1.72
8 -10 0 29.21 2.3
8 10 0 27.78 1.78
9 -10 0 11.73 2.87
9 10 0 11.27 1.65
10 -10 0 1.89 5.49
10 10 0 2.73 2.15
11 -10 0 14.49 3.44
11 10 0 11.78 1.78
1 11 0 9.92 2.07
2 11 0 48.84 2.34
3 11 0 0.76 2.5
4 -11 0 61.51 4.6
4 11 0 58.52 2.2
5 -11 0 11.93 3.34
5 11 0 8.35 1.64
6 -11 0 7.53 3.58
6 11 0 5.23 1.77
7 -11 0 18.35 3.5
7 11 0 14.69 2.22
8 -11 0 18.67 2.93
8 11 0 18 2.34
9 -11 0 -0.2 2.66
9 11 0 1.05 3.46
10 -11 0 15.54 3.46
10 11 0 12.92 2.02
0 12 0 82.62 5
1 12 0 35.64 2.83
2 12 0 34.84 2.33
3 12 0 55.99 2.65
4 12 0 38.32 2.43
5 12 0 18.88 2.29
6 -12 0 40.88 4.67
6 12 0 40.46 2.23
7 -12 0 3.69 3.45
7 12 0 1.81 3.47
8 -12 0 4.28 4.31
8 12 0 1.96 3.93
1 13 0 40.62 2.52
2 13 0 18.29 2.31
3 13 0 3.05 2.22
4 13 0 15.56 2.95
5 13 0 11.38 3.05
6 13 0 1.87 3.66
0 14 0 10.36 3.1
1 14 0 2.67 3.98
-16 0 1 21.11 4.44
-15 0 1 14.22 2.72
-14 0 1 18.23 2.08
-13 0 1 98.64 2.18
-12 0 1 71.51 1.85
-11 0 1 0 0.36
-10 0 1 67.95 1.22
-9 0 1 168.77 1.85
-8 0 1 10.99 0.8
-7 0 1 154 1.76
-6 0 1 267.89 2.15
-5 0 1 216.85 1.7
-4 0 1 0.83 0.94
-3 0 1 16.78 2.19
-2 0 1 100.64 2.63
-1 0 1 21.62 1.74
1 0 1 146.28 3.34
2 0 1 9.89 1.51
3 0 1 7.18 2.53
4 0 1 179.88 2.66
5 0 1 19.23 0.71
6 0 1 251.33 1.79
7 0 1 50.82 1.04
8 0 1 216.19 1.84
9 0 1 20.42 0.95
10 0 1 0.06 0.24
11 0 1 66 1.94
13 0 1 7.51 1.58
14 0 1 38.45 3.02
15 0 1 5.1 3.43
-16 1 1 2.12 2.26
-15 1 1 41.29 4.55
-14 -1 1 50.61 3.06
-14 1 1 55.27 2.2
-13 -1 1 5.15 2.07
-13 1 1 5.68 1.26
-12 -1 1 49.66 1.65
-12 1 1 48.14 1.55
-11 -1 1 148.97 2.2
-11 1 1 146.7 1.77
-10 -1 1 2.06 0.81
-10 1 1 2.67 0.81
-9 -1 1 266.72 2.67
-9 1 1 258.39 2.2
-8 -1 1 191.96 1.94
-8 1 1 192.79 2.16
-7 -1 1 130.67 1.42
-7 1 1 139.84 1.56
-6 -1 1 77.43 1.21
-6 1 1 73.68 1.09
-5 -1 1 688.99 3.43
-5 1 1 709.93 3.46
-4 -1 1 521.19 4.49
-4 1 1 516.09 3.58
-3 -1 1 623.62 8
-3 1 1 619.27 8.75
-2 -1 1 978.82 8.12
-2 1 1 1045.11 9.48
-1 -1 1 252.49 3.79
-1 1 1 262.04 3.92
0 -1 1 489.42 6.58
0 1 1 509.25 4.3
1 -1 1 137.63 2.73
1 1 1 139.05 3.5
2 -1 1 442.42 4.54
2 1 1 466.01 6.94
3 -1 1 356.92 5.33
3 1 1 378.16 6.49
4 -1 1 293.33 3.32
4 1 1 283.82 3.32
5 -1 1 40.28 1
5 1 1 38.76 1.05
6 -1 1 468.08 2.51
6 1 1 462.39 2.93
7 -1 1 57.72 1.07
7 1 1 61.59 1.16
8 -1 1 26.05 0.87
8 1 1 28.02 0.98
9 -1 1 80.16 1.94
9 1 1 77.82 1.29
10 -1 1 99.61 2.16
10 1 1 103.76 1.73
11 -1 1 4.59 1.46
11 1 1 4.59 0.99
12 -1 1 102.43 5.12
12 1 1 108.22 2.56
13 -1 1 47 3.01
13 1 1 50.83 2.14
14 -1 1 8.72 3.79
14 1 1 8.57 1.97
15 -1 1 12.82 4.1
15 1 1 16.65 4.12
16 1 1 6.93 2.46
-16 -2 1 7.17 3.63
-16 2 1 9.06 2.74
-15 2 1 5.22 2.04
-14 -2 1 7.28 3.05
-14 2 1 8.22 1.57
-13 -2 1 20.77 3.27
-13 2 1 20.98 1.41
-12 -2 1 44.88 2.67
-12 2 1 44.83 1.44
-11 -2 1 38.59 2.4
-11 2 1 39.55 1.2
-10 -2 1 82.14 2.75
-10 2 1 83.03 1.5
-9 -2 1 25.15 1.19
-9 2 1 27.45 0.99
-8 -2 1 19.67 1.34
-8 2 1 23.28 1.02
-7 -2 1 336.78 3.26
-7 2 1 330.95 3.28
-6 -2 1 150.48 2.02
-6 2 1 145.25 1.69
-5 -2 1 373.19 8.1
-5 2 1 361.45 3.37
-4 -2 1 525.66 9.61
-4 2 1 500.67 3.78
-3 -2 1 730.38 9.39
-3 2 1 740.54 5.07
-2 -2 1 146.69 4.31
-2 2 1 142.33 4.63
-1 -2 1 222.91 4.72
-1 2 1 220.35 3.96
0 -2 1 114.1 2.96
0 2 1 117.76 2.42
1 -2 1 307.57 4.47
1 2 1 330.63 6.22
2 -2 1 9.16 2.24
2 2 1 11.26 2.47
3 -2 1 28.85 3.86
3 2 1 34.28 1
4 -2 1 66.94 1.89
4 2 1 65.39 1.32
5 -2 1 144.8 2.9
5 2 1 149.86 1.81
6 -2 1 7.88 0.92
6 2 1 7.35 0.75
7 -2 1 40.14 1.53
7 2 1 45.27 1.44
8 -2 1 31.6 1.62
8 2 1 31.92 0.96
9 -2 1 16.86 1.59
9 2 1 16.3 0.91
10 -2 1 117.18 3.46
10 2 1 119.71 1.91
11 -2 1 11.5 2.77
11 2 1 12.75 1.17
12 2 1 5.77 1.29
13 -2 1 38.81 4.24
13 2 1 40.83 2.07
14 -2 1 14.95 3.93
14 2 1 12.91 1.85
15 -2 1 5.02 3.77
15 2 1 3.4 3.22
16 2 1 20.21 3.14
-16 3 1 6.96 2.82
-15 3 1 19.03 2.13
-14 3 1 59.56 2.17
-13 3 1 9.97 1.23
-12 -3 1 131.19 5.28
-12 3 1 135.7 2
-11 -3 1 66.69 3.93
-11 3 1 66.96 1.56
-10 -3 1 35.74 3.05
-10 3 1 33.67 1.19
-9 -3 1 211.86 5.35
-9 3 1 209.45 2.46
-8 -3 1 212.97 24.21
-8 3 1 191.55 2.79
-7 -3 1 31.35 1.68
-7 3 1 36.85 1.23
-6 -3 1 184.75 2.84
-6 3 1 190.51 2.26
-5 -3 1 375.9 10.05
-5 3 1 383.83 3.02
-4 -3 1 296.47 6.65
-4 3 1 294.33 2.14
-3 -3 1 688.98 5
-3 3 1 690.49 2.88
-2 -3 1 1036.34 6.01
-2 3 1 1018.84 11.06
-1 -3 1 64.56 3.46
-1 3 1 59.13 2.25
0 -3 1 62.9 2.31
0 3 1 67.36 2.39
1 -3 1 321.23 3.87
1 3 1 320.31 3.45
2 -3 1 679.5 4.46
2 3 1 665.99 3.9
3 -3 1 58.03 4.05
3 3 1 69.23 1.4
4 -3 1 173.57 2.94
4 3 1 166.67 1.95
5 -3 1 40.4 1.89
5 3 1 39.14 1.16
6 -3 1 40.47 10.99
6 3 1 44.4 1.35
7 -3 1 200.73 21.39
7 3 1 196.79 2.37
8 3 1 23.55 1.11
9 3 1 91.77 1.64
10 3 1 138.03 2.24
11 3 1 3.7 1.13
12 3 1 43.46 1.65
13 -3 1 17.53 3.78
13 3 1 22.44 1.7
14 -3 1 6.42 3.55
14 3 1 7.53 1.79
15 -3 1 10.71 4.32
15 3 1 10.14 2.18
-16 -4 1 36.31 3.58
-16 4 1 34.38 2.81
-15 4 1 6.55 2.02
-14 4 1 4.84 1.53
-13 4 1 15.84 1.32
-12 4 1 31.21 1.43
-11 4 1 29.02 1.29
-10 4 1 101.27 2.06
-9 4 1 144.07 2.73
-8 4 1 15.74 1.07
-7 -4 1 31.34 10.22
-7 4 1 42.83 1.59
-6 -4 1 74.69 7.92
-6 4 1 80.77 1.78
-5 -4 1 5.93 1.54
-5 4 1 7.44 0.74
-4 -4 1 29.08 1.74
-4 4 1 32.61 0.92
-3 -4 1 40.93 1.85
-3 4 1 44.33 0.93
-2 -4 1 326.23 3.9
-2 4 1 333.79 2.38
-1 -4 1 31.33 1.5
-1 4 1 33.27 1.09
0 -4 1 590 7.66
0 4 1 607.32 6.7
1 -4 1 11.98 0.99
1 4 1 12.97 1.12
2 -4 1 339.94 3.57
2 4 1 341.65 4.24
3 -4 1 151.65 2.8
3 4 1 160.5 2.31
4 -4 1 35.7 1.95
4 4 1 38.54 1.02
5 -4 1 109.59 7.49
5 4 1 110.61 1.61
6 -4 1 18.64 9
6 4 1 23.84 1.17
7 -4 1 12.37 17.18
7 4 1 16.05 0.96
8 4 1 36.64 1.33
9 4 1 6.6 1.27
10 4 1 16.03 1.2
11 4 1 48.45 1.65
12 4 1 29.92 1.56
13 -4 1 3.2 3.34
13 4 1 1.89 1.46
14 -4 1 53.75 5.1
14 4 1 44.59 2.13
15 -4 1 3.67 4.25
15 4 1 4.23 2.01
-15 -5 1 2.1 8.56
-15 5 1 1.02 1.02
-14 -5 1 49.63 5.3
-14 5 1 51.77 2.24
-13 -5 1 0.99 4.13
-13 5 1 1.05 0.45
-12 5 1 75.72 1.87
-11 5 1 127.32 2.28
-10 5 1 59.9 2.07
-9 5 1 20.72 1.31
-8 -5 1 142.59 4.92
-8 5 1 137.52 2.17
-7 -5 1 17.36 2.61
-7 5 1 19.4 1.23
-6 -5 1 170.14 4.23
-6 5 1 172.11 2.65
-5 -5 1 140.45 3.44
-5 5 1 144.03 1.92
-4 -5 1 97.44 2.26
-4 5 1 106.89 1.64
-3 -5 1 144.47 2.89
-3 5 1 140.1 1.86
-2 -5 1 22.9 1.63
-2 5 1 26.93 0.84
-1 -5 1 388.12 4.41
-1 5 1 383.25 2.62
0 -5 1 47.3 3.09
0 5 1 51.19 1.08
1 -5 1 58.63 1.52
1 5 1 58.5 1.38
2 -5 1 12.49 1.5
2 5 1 12.68 1
3 -5 1 205.35 3.43
3 5 1 208.91 2.34
4 -5 1 17.54 1.83
4 5 1 18.84 0.9
5 -5 1 14.05 1.95
5 5 1 14.79 0.9
6 -5 1 82.27 3.35
6 5 1 83.61 1.41
7 -5 1 89.5 3.85
7 5 1 95.57 2
8 5 1 38.22 1.61
9 5 1 328.37 3.53
10 5 1 51.05 2.01
11 5 1 29.1 1.68
12 5 1 28.97 1.62
13 -5 1 2.72 3.14
13 5 1 1.71 0.75
14 -5 1 0.86 2.32
14 5 1 0.33 1.45
15 -5 1 3.69 3.57
15 5 1 3.15 2.36
-15 -6 1 9.15 3.59
-15 6 1 9.54 1.74
-14 -6 1 11.87 4.68
-14 6 1 12.92 1.68
-13 -6 1 17.46 4.44
-13 6 1 16.31 1.62
-12 -6 1 3.65 3.54
-12 6 1 2.52 1.31
-11 -6 1 2.79 3.57
-11 6 1 3.7 1.47
-10 -6 1 46.52 4.09
-10 6 1 47.72 1.78
-9 -6 1 78.74 4.55
-9 6 1 86.93 2.02
-8 -6 1 45.47 3.51
-8 6 1 44.59 1.71
-7 -6 1 79.72 2.54
-7 6 1 82.55 1.94
-6 -6 1 11.01 2.37
-6 6 1 13.25 1
-5 -6 1 68.62 3.19
-5 6 1 68.87 1.56
-4 -6 1 238.31 4.47
-4 6 1 252 2.48
-3 -6 1 74.08 2.8
-3 6 1 76.5 1.44
-2 -6 1 357.49 4.83
-2 6 1 365.26 2.54
-1 -6 1 114.51 5.11
-1 6 1 116.89 1.91
0 -6 1 87.89 4.14
0 6 1 98.87 1.42
1 -6 1 138.83 2.71
1 6 1 139.32 1.65
2 -6 1 61.9 2.48
2 6 1 66.47 1.28
3 -6 1 205.57 3.91
3 6 1 209.46 2.28
4 -6 1 9.38 1.93
4 6 1 11.94 0.96
5 -6 1 25.65 1.76
5 6 1 31.45 1.27
6 -6 1 11.96 1.65
6 6 1 12.7 1.03
7 -6 1 43.5 2.25
7 6 1 44.99 1.65
8 -6 1 14.15 2.02
8 6 1 15.24 1.44
9 -6 1 25.65 2.33
9 6 1 23.21 1.47
10 -6 1 4.77 2.25
10 6 1 2.54 0.97
11 -6 1 27.02 4.02
11 6 1 25.88 1.7
12 -6 1 16.7 2.85
12 6 1 14.07 1.51
13 -6 1 24.91 3.26
13 6 1 19.97 1.7
14 -6 1 21.45 3.53
14 6 1 18.71 1.97
-14 -7 1 2.47 3.12
-14 7 1 3 1.38
-13 -7 1 14.39 4.43
-13 7 1 14.06 1.54
-12 -7 1 35.5 4.6
-12 7 1 39.26 1.85
-11 -7 1 53.55 4.74
-11 7 1 55.13 2.35
-10 -7 1 6.22 3.09
-10 7 1 5.73 1.39
-9 -7 1 148.11 5.99
-9 7 1 153.45 2.65
-8 -7 1 38.99 3.68
-8 7 1 40.62 1.79
-7 -7 1 9.95 1.93
-7 7 1 11.63 1.31
-6 -7 1 125.41 3.14
-6 7 1 132.3 2.04
-5 -7 1 42.8 2.18
-5 7 1 44.25 1.47
-4 -7 1 14.13 1.64
-4 7 1 15.16 0.96
-3 -7 1 58.38 3.07
-3 7 1 57.22 1.42
-2 -7 1 151.87 4.02
-2 7 1 155.22 1.71
-1 -7 1 296.3 9.36
-1 7 1 310.56 3.01
0 -7 1 23.1 10.68
0 7 1 31.44 1.03
1 -7 1 240.2 10.17
1 7 1 242.45 2.4
2 -7 1 3.74 1.45
2 7 1 3.62 0.93
3 -7 1 -0.01 1.53
3 7 1 1.13 0.79
4 -7 1 9.56 1.57
4 7 1 10.62 1.05
5 -7 1 57.34 2.36
5 7 1 57.68 1.49
6 -7 1 6.25 1.75
6 7 1 5.75 1.05
7 -7 1 157 3.73
7 7 1 155.61 2.79
8 -7 1 7.29 2.19
8 7 1 8.01 1.49
9 -7 1 60.77 2.96
9 7 1 58.95 2.18
10 -7 1 26.89 2.6
10 7 1 25.26 1.68
11 -7 1 14.77 2.9
11 7 1 15.91 1.87
12 -7 1 14.5 2.99
12 7 1 13.26 1.6
13 -7 1 21.24 3.49
13 7 1 18.01 1.75
14 -7 1 3.07 3.91
14 7 1 0.04 0.11
-13 -8 1 24.33 3.51
-13 8 1 22.94 1.69
-12 -8 1 7.94 4.23
-12 8 1 7.54 1.56
-11 -8 1 4.93 5.07
-11 8 1 6.5 1.52
-10 -8 1 7.83 3.52
-10 8 1 5.72 1.34
-9 -8 1 5.58 3.28
-9 8 1 7.46 1.29
-8 -8 1 27.16 2.42
-8 8 1 24.64 1.52
-7 -8 1 22.56 2.27
-7 8 1 22.02 1.39
-6 -8 1 75.16 2.89
-6 8 1 73.87 1.63
-5 -8 1 8.68 1.91
-5 8 1 9.54 1.08
-4 -8 1 29.28 2.1
-4 8 1 32.89 1.27
-3 -8 1 47.69 2.34
-3 8 1 50.83 1.8
-2 -8 1 2.69 2.86
-2 8 1 5.38 1.15
-1 -8 1 7.19 1.61
-1 8 1 7.82 0.95
0 -8 1 22.5 2.71
0 8 1 26.93 1.69
1 -8 1 117.38 4.3
1 8 1 118.91 1.96
2 -8 1 58.7 3.35
2 8 1 55.72 1.78
3 -8 1 63.04 2.51
3 8 1 65.53 1.51
4 -8 1 131.52 2.66
4 8 1 132.88 2.32
5 -8 1 45.03 2.46
5 8 1 44.79 1.49
6 -8 1 8.83 1.81
6 8 1 9.05 1.18
7 -8 1 25.49 2.38
7 8 1 27.8 1.71
8 -8 1 11.42 2.28
8 8 1 11.42 1.53
9 -8 1 41.88 2.39
9 8 1 41.38 2.07
10 -8 1 14.89 2.15
10 8 1 13.35 1.66
11 -8 1 16.55 3.06
11 8 1 13.62 1.95
12 -8 1 1.91 5.46
12 8 1 0.18 0.34
13 -8 1 1.49 4.29
13 8 1 3.48 2.16
-12 -9 1 2.77 3.84
-12 9 1 0.29 1.02
-11 -9 1 48.68 5.28
-11 9 1 52.01 2.02
-10 -9 1 4.98 4.82
-10 9 1 6.6 1.41
-9 -9 1 34.1 4.48
-9 9 1 37.45 1.73
-8 -9 1 96.58 3.56
-8 9 1 87.37 2.23
-7 -9 1 11.18 2.19
-7 9 1 11.07 1.39
-6 -9 1 43.44 2.69
-6 9 1 42.22 1.63
-5 -9 1 50.3 2.73
-5 9 1 46.77 1.58
-4 -9 1 104.65 3.33
-4 9 1 106.3 2.29
-3 -9 1 35.95 3.3
-3 9 1 39.01 1.85
-2 -9 1 60.93 3.8
-2 9 1 58.54 1.99
-1 9 1 82.99 2.76
0 -9 1 47.01 3.48
0 9 1 46.58 1.81
1 -9 1 4.44 2.42
1 9 1 4.01 1.32
2 -9 1 100.57 4.53
2 9 1 91.69 2.35
3 -9 1 0.19 2.54
3 9 1 0.11 0.27
4 -9 1 2.68 1.94
4 9 1 2.01 1.15
5 -9 1 12.48 1.8
5 9 1 11.47 1.27
6 -9 1 90.28 2.72
6 9 1 85.26 2.05
7 -9 1 18.21 2.01
7 9 1 18.19 1.64
8 -9 1 9.85 1.98
8 9 1 8.98 1.7
9 -9 1 22.9 2.22
9 9 1 23.12 1.99
10 -9 1 5.87 2.23
10 9 1 5.78 1.66
11 -9 1 12.96 3.41
11 9 1 11.77 1.76
12 -9 1 13.1 3.5
12 9 1 13.85 1.8
-11 -10 1 3.4 3.69
-11 10 1 3.97 1.84
-10 -10 1 12.45 3.15
-10 10 1 10.46 1.55
-9 -10 1 4.71 3.25
-9 10 1 4.56 1.78
-8 -10 1 48.42 3.32
-8 10 1 42.5 2.18
-7 -10 1 18.38 2.09
-7 10 1 18.25 1.76
-6 -10 1 70.72 3.31
-6 10 1 69.24 2.29
-5 -10 1 31.78 3.58
-5 10 1 31.57 1.79
-4 -10 1 18.02 3.26
-4 10 1 15.95 1.51
-3 -10 1 8.07 2.97
-3 10 1 6.31 1.3
-2 10 1 49.68 2.61
-1 10 1 12.58 1.94
0 10 1 31.52 1.88
1 -10 1 7.69 2.95
1 10 1 9.63 2.01
2 -10 1 26.55 3.41
2 10 1 28.57 1.89
3 -10 1 6.46 3.13
3 10 1 5.67 1.43
4 -10 1 72.94 4.47
4 10 1 71.51 2.18
5 -10 1 2.71 2.78
5 10 1 1.65 1.6
6 -10 1 72.41 3.36
6 10 1 65.25 2.42
7 -10 1 -0.05 1.35
7 10 1 2.24 1.9
8 -10 1 16.61 2.16
8 10 1 15.56 1.66
9 -10 1 0.4 3.51
9 10 1 0.15 0.81
10 -10 1 4.83 3.59
10 10 1 3.03 1.54
11 -10 1 8.99 3.81
11 10 1 6.89 1.98
-10 11 1 0.17 0.98
-9 -11 1 15.69 3.23
-9 11 1 13.36 2.04
-8 -11 1 3.05 6.2
-8 11 1 6.13 2.15
-7 -11 1 0.58 28.34
-7 11 1 0.26 2.02
-6 -11 1 24.97 3.65
-6 11 1 22.48 1.88
-5 -11 1 18.99 3.57
-5 11 1 20.03 1.77
-4 11 1 14.22 1.87
-3 11 1 20.94 1.99
-2 11 1 24.51 2.41
-1 11 1 6.42 1.76
0 11 1 34.73 2.59
1 11 1 50.15 2.84
2 -11 1 50.36 4.38
2 11 1 51.25 2.38
3 -11 1 14.27 3.28
3 11 1 10.64 1.88
4 -11 1 35.57 4.03
4 11 1 29.48 1.87
5 -11 1 11.77 3.34
5 11 1 7.39 1.65
6 -11 1 23.6 3.8
6 11 1 16.49 1.83
7 -11 1 -0.39 1.54
7 11 1 3.37 2.37
8 -11 1 18.04 2.9
8 11 1 16.13 2.28
9 -11 1 8.78 2.6
9 11 1 6.94 2.5
10 -11 1 7.91 5.14
10 11 1 6.77 1.82
-8 12 1 0.85 1.3
-7 12 1 4.28 2.46
-6 12 1 3.09 2.5
-5 12 1 3.52 2.53
-4 12 1 0 0.02
-3 12 1 5.65 2.12
-2 12 1 12.38 1.68
-1 12 1 1.55 2.58
0 12 1 3.25 2.46
1 12 1 18.78 2.06
2 12 1 4.96 1.99
3 12 1 10.62 2.05
4 -12 1 45.21 4.55
4 12 1 50 3.19
5 -12 1 4.79 3.6
5 12 1 2.71 2.16
6 -12 1 39.28 4.61
6 12 1 38.29 2.25
7 -12 1 13.17 4.07
7 12 1 11.33 2.45
8 -12 1 3.85 3.66
8 12 1 4.88 2.88
-6 13 1 7.15 2.84
-5 13 1 24.72 3.13
-4 13 1 16.34 2.32
-3 13 1 21.67 2.91
-2 13 1 2.94 2.45
-1 13 1 44.31 3.19
0 13 1 0.57 2.11
1 13 1 0.89 2.43
2 13 1 13.15 2.29
3 13 1 1.6 2.79
4 13 1 0.22 0.87
5 13 1 2.73 3.44
6 13 1 -0.61 1.31
-2 14 1 4.05 4.1
-1 14 1 -0.13 0.81
0 14 1 3.76 2.51
1 14 1 20.53 3.07
-16 0 2 5.47 3.96
-15 0 2 1.44 1.92
-14 0 2 29.04 1.9
-13 0 2 5.75 1.47
-12 0 2 8.81 1.11
-11 0 2 1.54 0.86
-10 0 2 11.56 0.82
-9 0 2 2.47 0.78
-8 0 2 95.1 1.44
-7 0 2 0.17 0.15
-6 0 2 20.61 0.72
-5 0 2 409.7 2.42
-4 0 2 1044.54 4.52
-3 0 2 302.6 5.79
-2 0 2 8543.12 42.86
-1 0 2 1203.3 13.82
0 0 2 435.13 7.75
1 0 2 511.81 10.54
2 0 2 803.3 10.73
3 0 2 143.69 2.36
4 0 2 1084.59 13.74
5 0 2 183.93 2.31
6 0 2 42.46 1.2
7 0 2 99.88 1.56
8 0 2 447.38 3.2
9 0 2 20.68 1.13
10 0 2 196.54 2.47
11 0 2 42.1 1.59
12 0 2 19.24 1.68
13 0 2 19.2 2.58
14 0 2 2.23 2.36
-16 -1 2 1.99 4.87
-16 1 2 0.22 1.24
-15 -1 2 1.06 3.08
-15 1 2 0.52 1.05
-14 -1 2 7.1 3.08
-14 1 2 6.91 1.61
-13 -1 2 1.5 2.93
-13 1 2 1.5 0.9
-12 -1 2 91.95 2.28
-12 1 2 91.25 1.74
-11 -1 2 18.02 1.12
-11 1 2 18.05 1
-10 -1 2 77.25 1.47
-10 1 2 75.45 1.29
-9 -1 2 182.9 2.31
-9 1 2 181.81 2.03
-8 -1 2 78.77 1.29
-8 1 2 79.18 1.4
-7 -1 2 343.68 2.49
-7 1 2 333.68 2.56
-6 -1 2 736.47 3.59
-6 1 2 753.26 3.15
-5 -1 2 187.63 1.59
-5 1 2 188.44 1.5
-4 -1 2 293.24 2.49
-4 1 2 284.57 2.65
-3 -1 2 946.02 9.05
-3 1 2 950.82 14.19
-2 -1 2 1757.03 14.35
-2 1 2 1761.55 12.09
-1 -1 2 3281.23 19.84
-1 1 2 3153.3 19.98
0 -1 2 6928.71 154.6
0 1 2 6969.17 97.91
1 -1 2 110.04 3.17
1 1 2 115.13 3.24
2 -1 2 1058.28 10.1
2 1 2 1084.48 12.32
3 -1 2 1235.71 10.12
3 1 2 1251.02 13.64
4 -1 2 15.62 1.25
4 1 2 14.94 1.28
5 -1 2 617.46 3.96
5 1 2 610.08 4.26
6 -1 2 532.42 3.71
6 1 2 537.4 3.84
7 -1 2 95.02 1.62
7 1 2 94.36 1.59
8 -1 2 253.82 2.64
8 1 2 246.27 2.16
9 -1 2 44.03 1.34
9 1 2 40.65 1.2
10 -1 2 9.7 1.45
10 1 2 8.81 1.15
11 -1 2 90.1 2.21
11 1 2 82.02 1.94
12 -1 2 50.78 2.93
12 1 2 58.28 2.12
13 -1 2 1.08 4.99
13 1 2 0.19 0.79
14 -1 2 7.63 3.95
14 1 2 10.93 2.08
15 1 2 16.44 3.03
-16 2 2 4.36 2.94
-15 -2 2 -0.67 1.35
-15 2 2 2.21 2.28
-14 -2 2 0.48 3.09
-14 2 2 1.13 1.24
-13 -2 2 2.02 2.85
-13 2 2 1.57 1.3
-12 -2 2 15.91 2.15
-12 2 2 12.08 1.04
-11 -2 2 22.82 2.08
-11 2 2 22.38 1.05
-10 -2 2 6.51 1.71
-10 2 2 6.35 0.9
-9 -2 2 30.42 1.54
-9 2 2 29.45 1.09
-8 -2 2 152.29 3.94
-8 2 2 158.86 1.94
-7 -2 2 203.66 3.82
-7 2 2 200.21 2.48
-6 -2 2 105.84 1.84
-6 2 2 105.42 1.48
-5 -2 2 1455.76 16.6
-5 2 2 1392.73 7.72
-4 -2 2 1597.89 14.75
-4 2 2 1554.06 8.42
-3 -2 2 2370.71 18.18
-3 2 2 2347.41 20.51
-2 -2 2 4918.32 23.2
-2 2 2 5004.54 26.22
-1 -2 2 2515.96 19.6
-1 2 2 2594.56 16.05
0 -2 2 3287.23 30.57
0 2 2 3243.72 14.31
1 -2 2 5945.88 32.86
1 2 2 5842 27.68
2 -2 2 1156.38 12.37
2 2 2 1187.73 11.91
3 -2 2 511.63 3.23
3 2 2 507.89 3.6
4 -2 2 1410.04 16.42
4 2 2 1412.79 13.7
5 -2 2 510.91 5.45
5 2 2 489.25 4
6 -2 2 6.31 0.97
6 2 2 4.91 1.03
7 -2 2 857.11 5.87
7 2 2 859 5.21
8 -2 2 261.04 3.08
8 2 2 257.63 2.26
9 -2 2 12.5 1.75
9 2 2 11.82 0.98
10 -2 2 265.15 6.79
10 2 2 275.64 2.78
11 2 2 41.54 1.64
12 -2 2 18.26 3.54
12 2 2 25.85 1.58
13 -2 2 43.8 4.32
13 2 2 42.25 2.15
14 -2 2 0.57 3.29
14 2 2 0.32 2.4
15 -2 2 2.94 4.01
15 2 2 0.39 0.45
-16 3 2 2.7 2.87
-15 3 2 0.63 1.53
-14 3 2 2.64 1.44
-13 -3 2 24.71 3.49
-13 3 2 25.84 1.3
-12 -3 2 12.08 2.95
-12 3 2 10.86 1.09
-11 -3 2 7.78 2.62
-11 3 2 7.18 1.01
-10 -3 2 44.8 3.31
-10 3 2 45.88 1.29
-9 -3 2 148.43 4.67
-9 3 2 149.29 2.14
-8 -3 2 0.83 1.17
-8 3 2 1.4 1.48
-7 -3 2 281.31 3.97
-7 3 2 295.7 2.72
-6 -3 2 172.17 2.98
-6 3 2 178.48 1.99
-5 -3 2 37.97 1.58
-5 3 2 38.06 1.14
-4 -3 2 393.36 3.7
-4 3 2 414.48 2.47
-3 -3 2 950.76 7.11
-3 3 2 940.97 4.72
-2 -3 2 203.03 2.85
-2 3 2 200.91 2.07
-1 -3 2 618.2 4.6
-1 3 2 612.56 4.45
0 -3 2 75.93 3.34
0 3 2 79.33 2.56
1 -3 2 1028.92 12.54
1 3 2 1012.62 6.1
2 -3 2 305.67 3.09
2 3 2 325.25 2.77
3 -3 2 1177.98 12.47
3 3 2 1191.08 6.52
4 -3 2 53.67 1.95
4 3 2 53.32 1.25
5 -3 2 821.08 7.52
5 3 2 847.36 5.39
6 -3 2 66.57 2.66
6 3 2 69.34 1.65
7 -3 2 0.25 0.99
7 3 2 0.15 0.36
8 3 2 68.29 1.61
9 3 2 121.56 1.91
10 3 2 24.34 1.27
11 3 2 51.08 1.62
12 -3 2 26.83 3.76
12 3 2 27.39 1.65
13 -3 2 34.6 4.24
13 3 2 30.24 1.82
14 -3 2 9.21 3.79
14 3 2 9.45 2.19
15 -3 2 17.25 4.38
15 3 2 14.83 2.13
-16 -4 2 -0.47 1.07
-16 4 2 4.42 2.48
-15 4 2 10.6 1.83
-14 4 2 2.91 1.5
-13 4 2 3.32 1.24
-12 4 2 30.89 1.44
-11 -4 2 13.49 2.87
-11 4 2 15.03 1.14
-10 -4 2 27.59 3.11
-10 4 2 29.44 1.32
-9 -4 2 52.3 3.29
-9 4 2 54.52 1.55
-8 -4 2 158.56 4.65
-8 4 2 145.67 2.39
-7 -4 2 105.89 2.8
-7 4 2 110.26 1.9
-6 -4 2 45.27 1.95
-6 4 2 46.14 1.46
-5 -4 2 579.75 4.13
-5 4 2 597.01 3.33
-4 -4 2 45.45 1.95
-4 4 2 43.39 0.99
-3 -4 2 58.03 2.08
-3 4 2 56.34 0.99
-2 -4 2 910.2 6.62
-2 4 2 910.03 3.9
-1 -4 2 491.47 4.79
-1 4 2 494 3.32
0 -4 2 406.33 7.78
0 4 2 411.44 3.98
1 -4 2 1742.57 16.91
1 4 2 1797.02 20.74
2 -4 2 326.76 3.55
2 4 2 315.08 3.09
3 -4 2 149.56 1.96
3 4 2 148.5 1.77
4 -4 2 581.38 4.77
4 4 2 561.93 4.66
5 -4 2 435.14 5.41
5 4 2 431.4 3.47
6 -4 2 98.16 12.4
6 4 2 101.82 2.03
7 -4 2 366.71 28.24
7 4 2 377.58 3.38
8 -4 2 134 4.27
8 4 2 134.43 2.14
9 4 2 63.77 1.96
10 4 2 78.05 2
11 -4 2 26.89 3.67
11 4 2 23.99 1.41
12 -4 2 15.92 3.64
12 4 2 11.37 1.52
13 -4 2 15.16 3.86
13 4 2 15.17 1.73
14 -4 2 2.53 3.88
14 4 2 1.04 1.21
15 -4 2 11.52 4.24
15 4 2 8.18 2.45
-15 -5 2 18.75 5.17
-15 5 2 18.41 1.99
-14 -5 2 -0.46 2.84
-14 5 2 0.31 0.25
-13 -5 2 3.88 3.31
-13 5 2 3.6 1.41
-12 5 2 31.72 1.47
-11 5 2 11.38 1.29
-10 5 2 26.57 1.69
-9 -5 2 106.13 4.76
-9 5 2 115.04 2.11
-8 -5 2 34.87 3.05
-8 5 2 34.19 1.34
-7 -5 2 37.52 2.88
-7 5 2 39.47 1.63
-6 -5 2 258.28 5.12
-6 5 2 258.06 3.02
-5 -5 2 283.14 4.91
-5 5 2 291.65 2.57
-4 -5 2 251.09 4.29
-4 5 2 242.13 2.5
-3 -5 2 822.02 7.37
-3 5 2 834.05 3.76
-2 -5 2 25.93 1.89
-2 5 2 25.25 0.84
-1 -5 2 177.36 3.36
-1 5 2 168.83 1.75
0 -5 2 936.73 12.14
0 5 2 955.31 14.28
1 -5 2 33.1 1.52
1 5 2 37.97 1.38
2 -5 2 298.36 3.69
2 5 2 298.8 4.71
3 -5 2 749.14 8.89
3 5 2 757.8 5.72
4 -5 2 101.79 2.96
4 5 2 101.2 1.74
5 -5 2 162.93 3.91
5 5 2 171.62 2.11
6 -5 2 233.51 5.08
6 5 2 233.28 2.61
7 -5 2 17.87 1.82
7 5 2 17.87 1.22
8 -5 2 118.71 4.31
8 5 2 122.47 2.44
9 5 2 69.13 2.11
10 5 2 10.03 1.33
11 -5 2 42.06 4.21
11 5 2 39.41 1.83
12 -5 2 18.6 2.91
12 5 2 19.12 1.53
13 -5 2 2.45 3.39
13 5 2 0.09 0.99
14 -5 2 14.38 3.29
14 5 2 14.56 1.88
-15 -6 2 0.72 6.75
-15 6 2 2.56 1.74
-14 -6 2 4.25 3.72
-14 6 2 4.22 1.32
-13 -6 2 5.94 3.84
-13 6 2 5.43 1.45
-12 -6 2 7.09 3.41
-12 6 2 5.96 1.43
-11 -6 2 9.15 3.39
-11 6 2 9.17 1.6
-10 -6 2 46.73 4.22
-10 6 2 43.12 1.72
-9 -6 2 16.5 3.28
-9 6 2 15.9 1.32
-8 -6 2 125.66 4.89
-8 6 2 124.7 2.4
-7 -6 2 62.01 3.56
-7 6 2 65.33 1.75
-6 -6 2 194.39 5.02
-6 6 2 196.5 2.23
-5 -6 2 358.01 5.73
-5 6 2 370.53 2.81
-4 -6 2 19.61 2.27
-4 6 2 21.03 0.92
-3 -6 2 124.85 3.26
-3 6 2 129.77 1.73
-2 -6 2 662.99 6.61
-2 6 2 655.19 3.34
-1 -6 2 273.26 7.49
-1 6 2 272.54 2.47
0 -6 2 217.47 6.3
0 6 2 214.23 2.74
1 -6 2 620.62 5.91
1 6 2 610.03 4.97
2 -6 2 332.25 4.59
2 6 2 333.05 5.43
3 -6 2 15.18 2
3 6 2 14.97 1.11
4 -6 2 635.72 7.24
4 6 2 638.29 4.77
5 -6 2 293.5 4.16
5 6 2 293.61 3.02
6 -6 2 36.93 2.08
6 6 2 38.68 1.36
7 -6 2 203.57 3.19
7 6 2 206.87 2.98
8 -6 2 92.22 3.1
8 6 2 90.01 2.3
9 -6 2 3.19 1.98
9 6 2 2.66 1.14
10 -6 2 68.98 2.62
10 6 2 68.66 2.35
11 -6 2 38.62 2.42
11 6 2 35.22 1.81
12 -6 2 0.24 0.79
12 6 2 -0.03 0.33
13 -6 2 2.68 2.71
13 6 2 3.02 2.03
14 -6 2 7.75 3.63
14 6 2 8.49 1.94
-14 -7 2 9.67 4.48
-14 7 2 9.37 1.84
-13 -7 2 8.67 4.18
-13 7 2 12.17 1.42
-12 -7 2 5.18 3.72
-12 7 2 5.96 1.29
-11 -7 2 12.67 4.05
-11 7 2 15.16 1.64
-10 -7 2 59.78 4.6
-10 7 2 62.39 1.84
-9 -7 2 64.78 4.42
-9 7 2 62.52 1.74
-8 -7 2 115.01 5.21
-8 7 2 111.92 2.17
-7 -7 2 34.09 3.36
-7 7 2 32.2 1.39
-6 -7 2 106.8 2.94
-6 7 2 108.07 1.73
-5 -7 2 128.69 3.08
-5 7 2 128.08 1.91
-4 -7 2 67.93 3.41
-4 7 2 70.52 1.46
-3 -7 2 362.14 6.08
-3 7 2 371.29 3.08
-2 -7 2 48.81 2.04
-2 7 2 50.99 1.57
-1 -7 2 243.37 4.69
-1 7 2 260.56 2.78
0 -7 2 223.22 4.78
0 7 2 229.55 2.21
1 -7 2 44.41 2.76
1 7 2 44.35 1.21
2 -7 2 365.27 4.35
2 7 2 361.09 3.52
3 -7 2 69.82 2.31
3 7 2 71.35 1.65
4 -7 2 13.18 1.39
4 7 2 14.13 1.12
5 -7 2 124.13 2.65
5 7 2 118.62 1.99
6 -7 2 63.27 2.16
6 7 2 63.85 1.7
7 -7 2 36.07 1.99
7 7 2 38.39 1.76
8 -7 2 102.67 2.82
8 7 2 102.84 2.54
9 -7 2 53.72 2.41
9 7 2 55.42 2.29
10 -7 2 11.36 2.05
10 7 2 8.51 1.69
11 -7 2 26.07 2.3
11 7 2 25.56 1.77
12 -7 2 14.51 3.24
12 7 2 12.87 1.76
13 -7 2 5.49 3.35
13 7 2 6.93 1.88
-14 8 2 -0.22 0.95
-13 -8 2 1.58 3.44
-13 8 2 1.8 1.1
-12 -8 2 19.66 4.8
-12 8 2 22.33 1.6
-11 -8 2 14.33 4.14
-11 8 2 13.14 1.51
-10 -8 2 9.73 3.7
-10 8 2 10.15 1.4
-9 -8 2 6.14 3.59
-9 8 2 7.05 1.31
-8 -8 2 29.78 3.79
-8 8 2 26.89 1.52
-7 -8 2 93.7 4.93
-7 8 2 92.37 2.02
-6 -8 2 34.63 2.31
-6 8 2 33.47 1.28
-5 -8 2 228.35 4.22
-5 8 2 234.93 2.66
-4 -8 2 78.76 2.77
-4 8 2 81.75 1.66
-3 -8 2 135.23 3.32
-3 8 2 135.32 2.55
-2 -8 2 168.66 3.56
-2 8 2 177.89 2.75
-1 -8 2 156.98 4.93
-1 8 2 159.2 3.11
0 -8 2 40.24 3.1
0 8 2 45.24 1.91
1 -8 2 313.92 6.57
1 8 2 308.56 3
2 -8 2 166.76 4.97
2 8 2 154.83 3.31
3 -8 2 52.46 2.39
3 8 2 48.53 1.57
4 -8 2 374.7 4.15
4 8 2 365 3.7
5 -8 2 58.66 2.18
5 8 2 56.75 1.64
6 -8 2 81.5 2.5
6 8 2 74.76 1.9
7 -8 2 138.51 3.16
7 8 2 133.55 2.79
8 -8 2 7.59 1.79
8 8 2 8.61 1.59
9 -8 2 6.73 1.88
9 8 2 7.07 1.62
10 -8 2 32.69 2.39
10 8 2 31.71 1.87
11 -8 2 5.89 2.3
11 8 2 4.38 1.84
12 -8 2 13.83 3.71
12 8 2 10.92 1.82
13 -8 2 11.38 4.27
13 8 2 10.03 1.97
-13 -9 2 0.04 1.9
-13 9 2 -0.14 0.77
-12 -9 2 10.94 4.62
-12 9 2 12.07 1.93
-11 -9 2 -0.69 1.35
-11 9 2 1.24 2.04
-10 -9 2 10.13 4.18
-10 9 2 10.82 1.5
-9 -9 2 33.26 4.47
-9 9 2 29.45 1.62
-8 -9 2 5.25 3.99
-8 9 2 8.52 1.49
-7 -9 2 35.58 4.06
-7 9 2 30.37 1.57
-6 -9 2 60.59 2.88
-6 9 2 55.72 1.74
-5 -9 2 5.4 2.08
-5 9 2 4.59 1.36
-4 -9 2 6.31 1.97
-4 9 2 6.24 1.27
-3 -9 2 113.16 4.67
-3 9 2 122.55 2.65
-2 9 2 37.9 1.76
-1 -9 2 72.98 4.01
-1 9 2 73.24 2.61
0 -9 2 230.6 6.28
0 9 2 225.55 3.29
1 -9 2 17.29 2.71
1 9 2 19.06 1.85
2 -9 2 47.58 3.51
2 9 2 41.92 1.62
3 -9 2 71.91 4.09
3 9 2 69.97 1.97
4 -9 2 2.41 2.16
4 9 2 0.55 1.01
5 -9 2 12.93 1.75
5 9 2 14.07 1.48
6 -9 2 81.89 2.67
6 9 2 77.83 2.04
7 -9 2 1.31 1.71
7 9 2 0.23 0.73
8 -9 2 39.66 2.43
8 9 2 36.33 2.07
9 -9 2 27.18 2.34
9 9 2 27.75 2.06
10 -9 2 5.12 2.43
10 9 2 6.07 1.69
11 -9 2 14.01 4.85
11 9 2 16.17 2.14
12 -9 2 6.14 4.42
12 9 2 3.88 2.06
-12 -10 2 3.68 3.87
-12 10 2 1.7 1.52
-11 -10 2 0.91 3.54
-11 10 2 0.01 0.25
-10 -10 2 1.8 4.58
-10 10 2 2.92 1.66
-9 -10 2 17.11 4.39
-9 10 2 15.02 1.53
-8 -10 2 26.74 4.21
-8 10 2 28.36 1.98
-7 -10 2 20.11 4.07
-7 10 2 18.99 2.09
-6 -10 2 5.21 2.32
-6 10 2 5.59 1.56
-5 -10 2 90.35 4.69
-5 10 2 89.72 2.38
-4 10 2 44.2 2.11
-3 10 2 50.49 1.87
-2 10 2 257.41 4.72
-1 10 2 26.64 2.22
0 -10 2 8.34 3.08
0 10 2 7.4 1.6
1 -10 2 161.15 5.86
1 10 2 148.76 3.75
2 -10 2 117.04 5.15
2 10 2 112.05 2.88
3 -10 2 11.25 3.09
3 10 2 11.81 1.46
4 -10 2 182.87 6.31
4 10 2 177.36 3.49
5 -10 2 46.57 4.1
5 10 2 44.36 2.05
6 -10 2 33.48 2.29
6 10 2 30.36 1.72
7 -10 2 23.64 2.23
7 10 2 21.43 1.91
8 -10 2 49.95 2.66
8 10 2 42.06 2
9 -10 2 0.69 6.09
9 10 2 0.57 2.51
10 -10 2 17.26 3.11
10 10 2 14.9 1.67
11 -10 2 16.76 4.68
11 10 2 12.42 1.97
-10 -11 2 7.37 3.9
-10 11 2 8.34 2.09
-9 -11 2 19.47 4.42
-9 11 2 19.2 2.1
-8 -11 2 26.87 4.5
-8 11 2 30.64 2.51
-7 11 2 8.28 2.05
-6 11 2 90.93 3.1
-5 11 2 41.93 2.43
-4 11 2 44.47 2.98
-3 11 2 37.29 2.22
-2 11 2 15.88 2.23
-1 11 2 34.35 2.1
0 11 2 117.04 3.69
1 -11 2 2.7 2.46
1 11 2 0.73 0.5
2 -11 2 68.2 4.71
2 11 2 69.8 3.31
3 -11 2 31.53 3.89
3 11 2 33.15 2.24
4 -11 2 6.44 3.12
4 11 2 3.85 1.58
5 -11 2 44.57 4.28
5 11 2 41.24 2.12
6 -11 2 41.8 4.28
6 11 2 43.97 2.23
7 -11 2 0.06 1.79
7 11 2 0.71 2.39
8 -11 2 38.51 3.35
8 11 2 29.8 2.58
9 -11 2 5.29 2.61
9 11 2 2.47 3.29
-9 12 2 2.09 2.55
-8 12 2 7.95 2.21
-7 12 2 3.14 2.55
-6 12 2 5.38 2.47
-5 12 2 1.78 2.62
-4 12 2 28.84 2.94
-3 12 2 9.63 2.6
-2 12 2 49.87 2.58
-1 12 2 32.44 4.1
0 12 2 27.26 2.67
1 12 2 52.67 2.57
2 12 2 11.23 2.11
3 -12 2 15.32 3.68
3 12 2 15.04 2.56
4 -12 2 30.43 4.31
4 12 2 26.34 2.34
5 -12 2 0.96 2.87
5 12 2 1.87 2.36
6 -12 2 0.33 1.48
6 12 2 1.15 3.02
7 -12 2 30.4 4.54
7 12 2 24.58 2.52
8 -12 2 10.84 4.44
8 12 2 7.73 2.61
-6 13 2 19.68 3.05
-5 13 2 1.97 2.65
-4 13 2 8.43 2.34
-3 13 2 29.5 2.98
-2 13 2 1.39 1.5
-1 13 2 5.62 2.56
0 13 2 -0.5 4.93
1 13 2 3.6 2.58
2 13 2 1.39 3.85
3 13 2 26.78 3.03
4 13 2 0.38 2.62
5 13 2 28.23 3.1
-1 14 2 23.55 2.53
0 14 2 5.82 2.68
-16 0 3 0.13 1.03
-15 0 3 41.31 2.48
-14 0 3 11.92 1.75
-13 0 3 0.47 0.7
-12 0 3 46.83 1.65
-11 0 3 281.25 3.16
-10 0 3 77.98 1.37
-9 0 3 423.87 2.86
-8 0 3 37.2 0.92
-7 0 3 396.72 2.49
-6 0 3 18.52 0.68
-5 0 3 164.49 1.56
-4 0 3 42.61 1.01
-3 0 3 46.75 3.16
-2 0 3 30.29 2.84
-1 0 3 12.81 1.4
0 0 3 100.33 4.96
1 0 3 498.22 9.73
2 0 3 296.57 10.51
3 0 3 95.2 1.6
4 0 3 176.04 2.25
5 0 3 1.32 0.9
6 0 3 91.74 1.64
7 0 3 33.24 1.63
8 0 3 0.89 0.67
9 0 3 30.54 1.18
10 0 3 0.05 1.21
11 0 3 4.94 1.42
12 0 3 62.75 2.15
13 0 3 1.2 2.7
14 0 3 9.04 2.65
-17 1 3 11.99 3.03
-16 -1 3 21.95 3.84
-16 1 3 24.52 3.19
-15 -1 3 8.12 2.35
-15 1 3 7.36 1.79
-14 -1 3 25.24 2.65
-14 1 3 27.15 1.92
-13 -1 3 128.02 2.72
-13 1 3 125.17 2.26
-12 -1 3 8.96 1.33
-12 1 3 7.11 1.05
-11 -1 3 104.47 2.25
-11 1 3 106.24 1.69
-10 -1 3 74.1 1.84
-10 1 3 74.55 1.38
-9 -1 3 52.74 1.29
-9 1 3 50.13 1.21
-8 -1 3 38.44 1.1
-8 1 3 41.76 1.15
-7 -1 3 1066.87 6.06
-7 1 3 1059.56 4.41
-6 -1 3 242.56 3.14
-6 1 3 246.17 2.19
-5 -1 3 1168.4 6.46
-5 1 3 1170.01 4.25
-4 -1 3 1174.87 5.04
-4 1 3 1159.81 10.53
-3 -1 3 49.79 3.66
-3 1 3 46.03 2.59
-2 -1 3 932.49 10.32
-2 1 3 940.44 10.58
-1 -1 3 1102.63 12.86
-1 1 3 1038.85 9.42
0 -1 3 33.69 3.07
0 1 3 37.32 2.2
1 -1 3 22.75 2.17
1 1 3 28.34 3.44
2 -1 3 95.33 1.91
2 1 3 89.97 5.32
3 -1 3 561.06 3.57
3 1 3 548.58 3.55
4 -1 3 54.75 1.43
4 1 3 54.05 1.39
5 -1 3 36.77 1.25
5 1 3 38.05 1.37
6 -1 3 142.09 2.37
6 1 3 147.21 2.53
7 -1 3 28.8 1.24
7 1 3 26.36 1.22
8 -1 3 60.47 1.57
8 1 3 61.31 1.28
9 -1 3 29.25 1.17
9 1 3 30.25 1.31
10 -1 3 40.8 1.48
10 1 3 43.11 1.39
11 -1 3 26.27 2.43
11 1 3 29.72 1.5
12 -1 3 9.09 2.32
12 1 3 8.3 1.84
13 -1 3 9.76 3.61
13 1 3 11.57 2.44
14 -1 3 26.59 4.16
14 1 3 27.43 2.98
15 1 3 2.13 3.83
-16 -2 3 3.9 3.46
-16 2 3 3.37 2.14
-15 -2 3 20.82 3.65
-15 2 3 18.72 1.93
-14 -2 3 73.6 4.79
-14 2 3 81.44 2.11
-13 -2 3 4.78 2.11
-13 2 3 7.33 1.09
-12 -2 3 85.81 3.25
-12 2 3 89.93 1.63
-11 -2 3 180.72 4.03
-11 2 3 176.16 2.12
-10 -2 3 31.56 1.34
-10 2 3 32.47 1.21
-9 -2 3 437.93 3.53
-9 2 3 430.97 3.55
-8 -2 3 68.65 2.05
-8 2 3 74.5 1.44
-7 -2 3 4.29 0.94
-7 2 3 4.73 0.77
-6 -2 3 137.44 2.16
-6 2 3 141.45 1.7
-5 -2 3 20.73 1.4
-5 2 3 27.02 0.85
-4 -2 3 257.06 3.08
-4 2 3 243.76 2.16
-3 -2 3 162.98 2.39
-3 2 3 156.96 1.88
-2 -2 3 170.79 5.62
-2 2 3 186.15 4.93
-1 -2 3 20.73 3.2
-1 2 3 18.34 1.55
0 -2 3 38.93 3.68
0 2 3 37.36 1.84
1 -2 3 461.34 8.98
1 2 3 477.87 3.86
2 -2 3 138.51 2.38
2 2 3 145.44 1.8
3 -2 3 68.46 1.41
3 2 3 73.87 1.26
4 -2 3 107.98 1.86
4 2 3 106.24 1.55
5 -2 3 161.31 3.55
5 2 3 166.01 2.64
6 -2 3 6.49 1.72
6 2 3 7.44 1.2
7 -2 3 122.03 2.49
7 2 3 127.38 2.28
8 -2 3 9.75 1.05
8 2 3 10.31 1.01
9 -2 3 5.1 1.52
9 2 3 6.64 0.96
10 -2 3 61.26 2.72
10 2 3 66.03 1.64
11 -2 3 -0.03 0.15
11 2 3 0.31 0.28
12 -2 3 10.18 3.25
12 2 3 9.31 1.66
13 -2 3 13.87 3.62
13 2 3 16.18 2.1
14 -2 3 -0.16 0.73
14 2 3 0.08 0.18
15 -2 3 3.02 4.57
15 2 3 3.68 2.31
-16 3 3 21.5 2.19
-15 3 3 0.25 1.21
-14 -3 3 48.53 4.31
-14 3 3 52.44 1.74
-13 -3 3 23.35 3.48
-13 3 3 20.9 1.27
-12 -3 3 8.74 2.84
-12 3 3 9.57 1.14
-11 -3 3 120.93 3.26
-11 3 3 121.93 1.91
-10 -3 3 125.96 4.73
-10 3 3 123.22 2.14
-9 -3 3 17.91 1.58
-9 3 3 19.53 1.14
-8 -3 3 183.23 3.25
-8 3 3 174.43 2.32
-7 -3 3 196.51 3.61
-7 3 3 202.91 2.29
-6 -3 3 169.43 3.08
-6 3 3 177.37 2
-5 -3 3 182.1 2.9
-5 3 3 189.66 1.9
-4 -3 3 659.8 4.09
-4 3 3 655.54 3.1
-3 -3 3 1.46 0.66
-3 3 3 1.39 0.64
-2 -3 3 97.74 2.11
-2 3 3 100 1.62
-1 -3 3 502.53 4.39
-1 3 3 492.93 3.13
0 -3 3 90.34 9.86
0 3 3 92.12 1.75
1 -3 3 28.2 1.38
1 3 3 26.83 0.98
2 -3 3 35.93 1.45
2 3 3 35.07 1.1
3 -3 3 50.22 1.3
3 3 3 49.93 1.12
4 -3 3 295 4.01
4 3 3 287.09 2.44
5 -3 3 59.12 2.42
5 3 3 62.94 1.77
6 -3 3 113.95 3.49
6 3 3 109.3 2.56
7 -3 3 81.26 3.35
7 3 3 75.92 1.72
8 -3 3 55.22 2.3
8 3 3 50.54 1.45
9 -3 3 69.93 2.74
9 3 3 69.68 1.75
10 -3 3 44.8 3.95
10 3 3 42.12 1.48
11 -3 3 25.03 3.74
11 3 3 27.96 1.59
12 -3 3 1.03 3.54
12 3 3 0.04 0.15
13 -3 3 28.67 4.27
13 3 3 29.94 1.84
14 -3 3 5.62 3.86
14 3 3 6.63 1.98
15 -3 3 4.34 3.83
15 3 3 0.67 1.06
-16 -4 3 0.55 9.87
-16 4 3 1.44 2.61
-15 4 3 13.12 1.67
-14 4 3 39.41 1.57
-13 4 3 2.06 1.27
-12 -4 3 128.82 3.68
-12 4 3 133.12 2.17
-11 -4 3 45.68 3.65
-11 4 3 48.65 1.59
-10 -4 3 24.35 2.95
-10 4 3 23.77 1.36
-9 -4 3 48.25 3.26
-9 4 3 46.77 1.63
-8 -4 3 244.84 3.61
-8 4 3 237.9 2.83
-7 -4 3 28.26 2.06
-7 4 3 30.64 1.23
-6 -4 3 373.95 3.67
-6 4 3 373.09 3.4
-5 -4 3 230.17 2.75
-5 4 3 230.27 2.55
-4 -4 3 460.54 3.74
-4 4 3 461.91 2.45
-3 -4 3 132.69 2.84
-3 4 3 124.28 1.38
-2 -4 3 60.55 2.07
-2 4 3 65.38 1.44
-1 -4 3 82.32 2.26
-1 4 3 79.28 1.45
0 -4 3 63.49 6.28
0 4 3 74.12 1.82
1 -4 3 84.17 1.23
1 4 3 83.04 2.05
2 -4 3 308.32 2.69
2 4 3 318.34 3.16
3 -4 3 33.03 1.15
3 4 3 35.72 1.11
4 -4 3 39.03 1.43
4 4 3 38.33 1.26
5 -4 3 17.82 1.81
5 4 3 18.67 1.11
6 -4 3 13.35 1.89
6 4 3 13.31 1.19
7 -4 3 27.16 1.86
7 4 3 30.69 1.35
8 -4 3 86.82 2.87
8 4 3 95.18 2.08
9 -4 3 68.02 2.83
9 4 3 65.4 1.77
10 -4 3 40.95 3.81
10 4 3 40.32 1.68
11 -4 3 13.76 3.43
11 4 3 11.45 1.34
12 -4 3 22.42 3.71
12 4 3 17.77 1.51
13 -4 3 -0.66 3.57
13 4 3 0.72 4.58
14 -4 3 7.53 4.17
14 4 3 7.02 2.17
-16 -5 3 25.4 5.4
-16 5 3 24.61 2.04
-15 -5 3 4.01 5.25
-15 5 3 1.25 0.74
-14 -5 3 20.17 4.67
-14 5 3 18.25 1.41
-13 -5 3 55.3 5.11
-13 5 3 53.53 1.65
-12 -5 3 6.8 3.32
-12 5 3 5.68 1.22
-11 -5 3 5.58 2.98
-11 5 3 6.33 1.21
-10 -5 3 318.12 7.73
-10 5 3 322.94 3.85
-9 -5 3 6.72 2.61
-9 5 3 7.81 1.22
-8 -5 3 263.9 6.39
-8 5 3 260.36 3.11
-7 -5 3 166.03 4.82
-7 5 3 170.24 2.77
-6 -5 3 48.47 2.83
-6 5 3 51.22 1.42
-5 -5 3 25.08 2.19
-5 5 3 28.57 0.96
-4 -5 3 669.5 7.07
-4 5 3 684.15 3.22
-3 -5 3 445.25 5.54
-3 5 3 421.43 2.85
-2 -5 3 522.93 5.68
-2 5 3 541.9 3.26
-1 -5 3 459.42 5.37
-1 5 3 448.11 3.59
0 -5 3 48.57 1.69
0 5 3 48.91 1.98
1 -5 3 104.67 1.49
1 5 3 106.78 2.78
2 -5 3 89.28 1.61
2 5 3 92.18 1.94
3 -5 3 51.76 1.45
3 5 3 51.45 1.34
4 -5 3 4.02 1.11
4 5 3 4.43 0.86
5 -5 3 21.17 1.27
5 5 3 20.04 1.23
6 -5 3 81.36 2.09
6 5 3 81.3 1.76
7 -5 3 94.33 2.34
7 5 3 92.87 2
8 -5 3 9.25 1.64
8 5 3 8.62 1.28
9 -5 3 17.41 2.24
9 5 3 15.44 1.31
10 -5 3 2.62 3.49
10 5 3 2.52 1.38
11 -5 3 26.63 2.78
11 5 3 22.31 1.5
12 -5 3 9.92 2.83
12 5 3 8.89 1.63
13 -5 3 1.17 2.26
13 5 3 3.09 1.9
14 -5 3 38.25 3.74
14 5 3 33.94 2.34
-15 -6 3 24.9 4.88
-15 6 3 19.98 1.7
-14 -6 3 26.98 4.56
-14 6 3 27.67 1.67
-13 -6 3 1.74 3.44
-13 6 3 3.53 1.27
-12 -6 3 54.76 4.76
-12 6 3 52.49 1.73
-11 -6 3 48.44 4.34
-11 6 3 55.75 1.66
-10 -6 3 1.28 2.85
-10 6 3 0.43 0.68
-9 -6 3 12.5 3.07
-9 6 3 16.75 1.2
-8 -6 3 92.8 4.46
-8 6 3 89.29 1.89
-7 -6 3 17.16 2.81
-7 6 3 15.17 1.21
-6 -6 3 164.77 4.81
-6 6 3 165.5 2.38
-5 -6 3 32.44 2.7
-5 6 3 32.2 1.09
-4 -6 3 75.4 3.24
-4 6 3 77.61 1.36
-3 -6 3 51.69 2.72
-3 6 3 47.97 1.2
-2 -6 3 133.27 3.45
-2 6 3 143.82 2.04
-1 -6 3 61.17 7.28
-1 6 3 71.39 1.87
0 -6 3 4.78 8.71
0 6 3 8.01 1.64
1 -6 3 191.35 7.2
1 6 3 198.23 4.34
2 -6 3 19.22 1.2
2 6 3 20.53 1.46
3 -6 3 36.65 1.72
3 6 3 36.53 1.78
4 -6 3 29.94 1.49
4 6 3 29.46 1.78
5 -6 3 19.69 1.25
5 6 3 18.99 1.22
6 -6 3 1.23 1.02
6 6 3 1.92 1.07
7 -6 3 61.19 2.17
7 6 3 60.65 2.22
8 -6 3 11.77 1.69
8 6 3 11.24 1.44
9 -6 3 26.68 2.53
9 6 3 25 1.74
10 -6 3 23.5 2.66
10 6 3 22.47 1.65
11 -6 3 6.55 2.12
11 6 3 8.02 1.53
12 -6 3 10.05 2.24
12 6 3 11.8 1.74
13 -6 3 2.28 4.14
13 6 3 2.64 3.03
-14 -7 3 24.95 3.02
-14 7 3 26.28 1.75
-13 -7 3 17.57 2.73
-13 7 3 17.68 1.56
-12 -7 3 11.62 3.69
-12 7 3 10.79 1.39
-11 -7 3 63.32 4.94
-11 7 3 63.4 1.93
-10 -7 3 64.1 4.71
-10 7 3 60.28 1.81
-9 -7 3 13.35 3.17
-9 7 3 10.63 1.24
-8 -7 3 102.78 4.96
-8 7 3 102.9 2.08
-7 -7 3 74.81 4.15
-7 7 3 71.82 1.73
-6 -7 3 16.43 2.76
-6 7 3 15.21 1
-5 -7 3 97.75 4.12
-5 7 3 95.73 1.69
-4 -7 3 208.62 5.12
-4 7 3 213.86 2.25
-3 -7 3 47.2 2.13
-3 7 3 51.63 1.63
-2 -7 3 25.18 2.46
-2 7 3 25.87 1.29
-1 -7 3 151.84 4.28
-1 7 3 147.32 2.17
0 -7 3 14.35 2.38
0 7 3 13.71 1.96
1 -7 3 151.74 4.39
1 7 3 147.49 4.34
2 -7 3 53.91 2.1
2 7 3 52.01 2.11
3 -7 3 97.35 2.16
3 7 3 98.96 2.21
4 -7 3 7.88 1.34
4 7 3 7.77 1.09
5 -7 3 39.54 1.85
5 7 3 42.27 1.61
6 -7 3 9.43 1.54
6 7 3 7.84 1.16
7 -7 3 89.17 2.62
7 7 3 85.77 2.29
8 -7 3 16.3 1.92
8 7 3 18.09 1.67
9 -7 3 55.25 2.52
9 7 3 56.51 2.25
10 -7 3 29.79 2.29
10 7 3 28.76 2
11 -7 3 12.54 2.27
11 7 3 12.35 1.63
12 -7 3 1.94 2.31
12 7 3 0.16 0.23
13 -7 3 10.8 4.16
13 7 3 6.75 1.88
-14 -8 3 7.5 3.78
-14 8 3 8.03 1.76
-13 -8 3 2.81 3.73
-13 8 3 1.06 0.97
-12 -8 3 16.24 4.4
-12 8 3 18.29 1.69
-11 -8 3 32.13 4.53
-11 8 3 32.69 1.71
-10 -8 3 9.66 3.41
-10 8 3 4.96 1.38
-9 -8 3 112.49 5.7
-9 8 3 113.75 2.22
-8 -8 3 62.05 4.48
-8 8 3 57.32 1.82
-7 -8 3 11.53 3.1
-7 8 3 12.17 1.25
-6 -8 3 123.85 5.17
-6 8 3 119.85 1.98
-5 -8 3 17.12 1.98
-5 8 3 18.19 1.14
-4 -8 3 9.59 1.87
-4 8 3 9.46 1.15
-3 -8 3 135.29 4.92
-3 8 3 136 2.55
-2 -8 3 56.46 3.44
-2 8 3 56.61 1.8
-1 -8 3 200.77 5.47
-1 8 3 203.76 5.31
0 -8 3 41.75 3.08
0 8 3 40.22 1.35
1 -8 3 19.16 2.65
1 8 3 17.41 1.62
2 -8 3 60.69 3.5
2 8 3 63.11 1.67
3 -8 3 12.03 1.48
3 8 3 10.87 1.18
4 -8 3 16.9 1.6
4 8 3 14.91 1.19
5 -8 3 82.67 2.43
5 8 3 81.04 1.9
6 -8 3 8.47 1.65
6 8 3 6.9 1.23
7 -8 3 22.68 1.98
7 8 3 25.56 1.77
8 -8 3 4.04 2.03
8 8 3 2.27 1.71
9 -8 3 0.81 1.74
9 8 3 1.17 1.78
10 -8 3 4.37 2.44
10 8 3 5.64 1.74
11 -8 3 5.93 2.84
11 8 3 4.66 1.7
12 -8 3 11.35 2.97
12 8 3 10.57 1.99
-13 -9 3 31.62 3.22
-13 9 3 27.52 1.91
-12 9 3 1.15 1.49
-11 -9 3 25.95 4.53
-11 9 3 24.8 1.89
-10 -9 3 32.27 4.55
-10 9 3 29.68 1.85
-9 -9 3 1.07 2.52
-9 9 3 1.01 1.96
-8 -9 3 15.97 3.65
-8 9 3 13.55 1.46
-7 -9 3 79.02 4.91
-7 9 3 73.51 2.67
-6 -9 3 34.33 3.83
-6 9 3 37.09 2.09
-5 -9 3 94.61 3.24
-5 9 3 96.26 2.69
-4 9 3 67.44 1.94
-3 9 3 64.62 2.1
-2 -9 3 15.47 2.9
-2 9 3 15.39 1.46
-1 -9 3 79.19 4.15
-1 9 3 76.64 2.66
0 -9 3 81.78 4.29
0 9 3 81.05 2.83
1 -9 3 19.16 3.01
1 9 3 17.74 1.47
2 -9 3 20.59 2.97
2 9 3 18.99 1.36
3 -9 3 3.49 2.66
3 9 3 2.6 1.39
4 -9 3 23.95 3.29
4 9 3 23.65 1.54
5 -9 3 5.39 1.64
5 9 3 5.29 1.42
6 -9 3 20.32 1.93
6 9 3 17.04 1.49
7 -9 3 29.29 2.25
7 9 3 26.1 1.92
8 -9 3 18.75 2.6
8 9 3 18.4 1.88
9 -9 3 16.92 2.68
9 9 3 17.82 1.95
10 -9 3 27.99 3.13
10 9 3 23.1 2.15
11 -9 3 13.39 3.04
11 9 3 12.85 1.86
-12 -10 3 4.62 3.73
-12 10 3 4.05 1.55
-11 -10 3 27.6 4.79
-11 10 3 25.62 1.99
-10 -10 3 2.7 4.57
-10 10 3 1.68 1.7
-9 -10 3 12.82 4.15
-9 10 3 11.36 1.73
-8 -10 3 20.58 4.16
-8 10 3 20.79 2.21
-7 -10 3 6.79 3.88
-7 10 3 6.25 1.85
-6 -10 3 0.81 2.4
-6 10 3 0.67 181.22
-5 10 3 17.24 1.9
-4 10 3 4.75 1.77
-3 10 3 2.31 2.06
-2 10 3 2.43 2.03
-1 -10 3 12.89 3.13
-1 10 3 12.36 1.66
0 -10 3 75.2 4.43
0 10 3 75.98 2.93
1 -10 3 34.78 3.72
1 10 3 38.28 2.6
2 -10 3 106.71 5.08
2 10 3 104.25 3.1
3 -10 3 1.2 3.78
3 10 3 0.39 1.29
4 -10 3 81.65 4.84
4 10 3 79.7 2.36
5 -10 3 2.41 5.3
5 10 3 3.18 1.57
6 -10 3 11.14 2.33
6 10 3 13.01 1.68
7 -10 3 2.34 2.56
7 10 3 0.94 1.65
8 -10 3 8.43 3.84
8 10 3 7.42 1.9
9 -10 3 4.89 4.61
9 10 3 3.74 2.59
10 -10 3 0.52 5.89
10 10 3 0.3 1.16
-10 -11 3 11.12 5.4
-10 11 3 10.28 1.97
-9 -11 3 10.27 4.39
-9 11 3 9.93 2.05
-8 -11 3 16.54 4.56
-8 11 3 17.42 2.06
-7 11 3 53.42 2.75
-6 11 3 4.8 2.05
-5 11 3 51.39 2.54
-4 11 3 25.12 2.68
-3 11 3 24.86 2.64
-2 11 3 49.63 2.94
-1 11 3 52.55 2.95
0 -11 3 10.36 3.29
0 11 3 11.42 3.13
1 -11 3 0.97 2.25
1 11 3 1.45 2.27
2 -11 3 6.93 3.16
2 11 3 5.33 2.24
3 -11 3 8.69 3.53
3 11 3 6.94 1.88
4 -11 3 21.77 3.74
4 11 3 23.24 1.86
5 -11 3 12.9 3.6
5 11 3 8.96 1.77
6 -11 3 35.57 4.36
6 11 3 36.01 2.19
7 -11 3 1.79 4.13
7 11 3 1.51 11.05
8 11 3 6 2.28
9 -11 3 8.34 3.1
9 11 3 7.52 2.16
-9 -12 3 18.52 4.38
-9 12 3 16.21 2.33
-8 12 3 0.27 0.68
-7 12 3 6.68 2.38
-6 12 3 12.62 2.77
-5 12 3 10.73 2.58
-4 12 3 1.67 2.79
-3 12 3 21.73 2.23
-2 12 3 0.4 0.99
-1 12 3 20.41 3.79
0 12 3 11.53 2.51
1 12 3 24.67 2.78
2 -12 3 31.69 4.1
2 12 3 35.6 3.07
3 -12 3 4.84 4.05
3 12 3 1.7 3.59
4 -12 3 17.66 4.1
4 12 3 15.55 2.73
5 -12 3 0.42 6.43
5 12 3 0.54 5.9
6 -12 3 0.39 3.61
6 12 3 -0.45 1.2
7 -12 3 1.61 3.54
7 12 3 0.78 5.85
-6 -13 3 0.13 0.9
-6 13 3 2.41 4.53
-5 -13 3 8.96 4.31
-5 13 3 8.21 3.28
-4 -13 3 2.94 6.33
-4 13 3 3.19 2.62
-3 13 3 13.67 2.31
-2 13 3 1.77 3.79
-1 13 3 7.42 2.5
0 13 3 3.75 2.55
1 13 3 4.67 2.97
2 13 3 0.21 1.34
3 13 3 11.48 2.85
4 -13 3 16.92 4.46
4 13 3 12.05 3.22
5 -13 3 2.15 3.53
5 13 3 0.02 0.07
-17 0 4 2.41 4.9
-16 0 4 3.34 1.68
-15 0 4 7.66 1.7
-14 0 4 3.11 1.42
-13 0 4 4.03 1.23
-12 0 4 32.79 1.72
-11 0 4 14.9 1.4
-10 0 4 20.65 1.05
-9 0 4 16.87 1.01
-8 0 4 0.54 0.64
-7 0 4 256.5 2.22
-6 0 4 352.17 2.33
-5 0 4 147.67 1.56
-4 0 4 2238.69 19.46
-3 0 4 540.36 4.58
-2 0 4 708 12.26
-1 0 4 3466.28 16.79
0 0 4 2219.38 15.16
1 0 4 1323.81 17.78
2 0 4 1645.7 18.42
3 0 4 864.67 6.78
4 0 4 73.99 1.69
5 0 4 474.76 3.43
6 0 4 1198.31 6.85
7 0 4 72.67 2.09
8 0 4 542.76 4.03
9 0 4 158.35 2.35
10 0 4 66.94 1.91
11 0 4 29.46 1.57
12 0 4 7.68 1.51
13 0 4 1.91 2.99
15 0 4 4.82 3.91
-17 -1 4 2.36 3
-17 1 4 0.83 1.7
-16 -1 4 0.31 5.05
-16 1 4 2.31 2.15
-15 -1 4 0.77 1.96
-15 1 4 1.72 1.85
-14 -1 4 4.4 2.28
-14 1 4 5.16 1.44
-13 -1 4 10.88 1.56
-13 1 4 10.81 1.31
-12 -1 4 2.91 1.37
-12 1 4 2.95 1.16
-11 -1 4 24.44 1.51
-11 1 4 27.55 1.24
-10 -1 4 26.14 1.39
-10 1 4 26.2 1.14
-9 -1 4 47.77 1.41
-9 1 4 47.03 1.21
-8 -1 4 303.04 3.56
-8 1 4 309.52 2.55
-7 -1 4 124.44 1.97
-7 1 4 120.99 1.47
-6 -1 4 55.65 1.3
-6 1 4 58.39 0.95
-5 -1 4 394.88 2.79
-5 1 4 397.68 2.27
-4 -1 4 393.07 2.32
-4 1 4 389.67 2.47
-3 -1 4 82.29 1.07
-3 1 4 77.84 1.4
-2 -1 4 1969.4 20.69
-2 1 4 1916.25 23.39
-1 -1 4 390.14 8.48
-1 1 4 373.12 5.19
0 -1 4 681.05 10.02
0 1 4 735.11 9.71
1 -1 4 1432.7 11.62
1 1 4 1540.3 20.15
2 -1 4 306.69 2.59
2 1 4 315.64 2.7
3 -1 4 357.31 3.1
3 1 4 370.09 4.37
4 -1 4 817.8 4.97
4 1 4 808.35 5.49
5 -1 4 8.02 1.14
5 1 4 7.36 0.83
6 -1 4 142.21 3.84
6 1 4 148.43 2.61
7 -1 4 65.99 3.2
7 1 4 65.45 1.77
8 -1 4 18.72 1.11
8 1 4 18.97 1.11
9 -1 4 29.56 1.24
9 1 4 27.28 1.3
10 -1 4 113.82 1.96
10 1 4 122.58 2.63
11 -1 4 27.21 2.08
11 1 4 25.54 1.72
12 -1 4 35.81 4.03
12 1 4 40.57 2.37
13 -1 4 45.55 4.51
13 1 4 48.6 2.23
14 -1 4 0.6 30.45
14 1 4 0.21 1.16
15 -1 4 12.9 4.57
15 1 4 12.54 4.4
-17 2 4 1.04 3.66
-16 -2 4 3.08 2.93
-16 2 4 0.42 0.83
-15 -2 4 0.33 7.93
-15 2 4 2.68 2.28
-14 -2 4 7.82 3.11
-14 2 4 8.36 1.41
-13 -2 4 3.7 2.03
-13 2 4 3.7 1.24
-12 -2 4 10.02 2.08
-12 2 4 9.11 1.19
-11 -2 4 9.68 1.45
-11 2 4 10.49 1.11
-10 -2 4 1.61 0.98
-10 2 4 0.38 0.51
-9 -2 4 53.57 1.49
-9 2 4 48.35 1.39
-8 -2 4 3.05 0.79
-8 2 4 2.63 0.84
-7 -2 4 147.24 2.07
-7 2 4 141.56 1.74
-6 -2 4 91.71 1.49
-6 2 4 100.38 1.2
-5 -2 4 151.66 1.71
-5 2 4 150.89 1.63
-4 -2 4 237.54 2.02
-4 2 4 260.45 2.73
-3 -2 4 297.79 2.22
-3 2 4 277.41 2.52
-2 -2 4 407.3 3.26
-2 2 4 404.28 3.78
-1 -2 4 1941.15 18.45
-1 2 4 1930.99 19.43
0 -2 4 20.1 0.91
0 2 4 21.65 1.1
1 -2 4 87.75 1.83
1 2 4 86.7 1.9
2 -2 4 588.28 5.41
2 2 4 588.13 3.88
3 -2 4 335.14 3.02
3 2 4 327.86 3.38
4 -2 4 23.89 1.26
4 2 4 22.64 0.98
5 -2 4 1139 9.08
5 2 4 1108.42 6.45
6 -2 4 199.42 4.53
6 2 4 211.42 3.2
7 -2 4 16.64 1.4
7 2 4 15.81 1.3
8 -2 4 361.06 3.97
8 2 4 361.5 3.14
9 -2 4 63.3 2.21
9 2 4 61.07 1.67
10 -2 4 7.04 1.77
10 2 4 6.91 1.25
11 -2 4 108.18 3.59
11 2 4 107.17 2.61
12 -2 4 18.5 3.66
12 2 4 24.34 1.9
13 2 4 0.36 1.57
14 -2 4 2.08 4.81
14 2 4 2.62 1.76
15 2 4 11.29 2.38
-16 3 4 0.61 0.58
-15 -3 4 1.32 2.63
-15 3 4 2.05 1.85
-14 -3 4 2.34 3.15
-14 3 4 1.72 1.39
-13 -3 4 9.7 3.1
-13 3 4 11.41 1.27
-12 -3 4 4.23 2.51
-12 3 4 3.47 1.18
-11 -3 4 40.51 2.28
-11 3 4 42.64 1.48
-10 -3 4 17.85 1.45
-10 3 4 19.71 1.26
-9 -3 4 48.74 2.13
-9 3 4 51.9 1.48
-8 -3 4 125.68 2.73
-8 3 4 118.14 1.66
-7 -3 4 123.49 3.15
-7 3 4 129.22 1.73
-6 -3 4 21.95 1.14
-6 3 4 25.81 0.9
-5 -3 4 1063.63 5.19
-5 3 4 1048.8 5.06
-4 -3 4 400.44 2.7
-4 3 4 406.88 2.61
-3 -3 4 483.74 2.94
-3 3 4 466.78 4.78
-2 -3 4 828.86 5.16
-2 3 4 810.83 7.92
-1 -3 4 868.72 8.74
-1 3 4 870.77 6.29
0 -3 4 718.93 4.15
0 3 4 722.91 5.25
1 -3 4 1255.99 7.66
1 3 4 1303.96 11.31
2 -3 4 76.65 1.49
2 3 4 75.8 1.57
3 -3 4 677.23 4.54
3 3 4 676.66 5.19
4 -3 4 107.05 2.1
4 3 4 101.96 1.45
5 -3 4 67.42 2.68
5 3 4 66.75 2
6 -3 4 75.57 2.32
6 3 4 74.79 2.33
7 -3 4 381.04 4.02
7 3 4 358.12 3.34
8 -3 4 6.23 1.43
8 3 4 7.42 1.08
9 -3 4 99.06 2.61
9 3 4 99.81 2.03
10 -3 4 64.35 2.97
10 3 4 64.95 1.87
11 -3 4 1.93 3.83
11 3 4 0.85 1.54
12 -3 4 17.63 3.95
12 3 4 16.19 1.6
13 -3 4 33.9 4.37
13 3 4 32.07 1.91
14 -3 4 -0.55 3.22
14 3 4 0.56 0.47
-16 -4 4 2.59 3.95
-16 4 4 0.78 1.09
-15 4 4 1.19 0.81
-14 4 4 5.2 1.24
-13 -4 4 -0.53 11.77
-13 4 4 0.36 1.31
-12 -4 4 -0.1 0.23
-12 4 4 1.06 1.56
-11 -4 4 1.86 1.49
-11 4 4 2.65 1.28
-10 -4 4 16.08 2.8
-10 4 4 13.06 1.09
-9 -4 4 37.58 2.02
-9 4 4 39.27 1.37
-8 -4 4 35.41 1.86
-8 4 4 31.63 1.21
-7 -4 4 221.68 2.9
-7 4 4 216.13 2.21
-6 -4 4 44.89 1.74
-6 4 4 48.69 1.16
-5 -4 4 82.63 1.96
-5 4 4 83.57 1.45
-4 -4 4 728.58 4.91
-4 4 4 749.67 4.12
-3 -4 4 180.19 3.35
-3 4 4 172.92 2.43
-2 -4 4 216.52 3.46
-2 4 4 209.43 2.79
-1 -4 4 775.95 3.82
-1 4 4 804.39 6.07
0 -4 4 496.15 3.69
0 4 4 507.32 7.39
1 -4 4 5.73 0.86
1 4 4 7.11 0.96
2 -4 4 903.9 5.55
2 4 4 908.76 5.58
3 -4 4 1130.84 12.29
3 4 4 1110.75 6.66
4 -4 4 125.08 2.21
4 4 4 125.34 2.13
5 -4 4 718.1 5.77
5 4 4 714.33 6.77
6 -4 4 274.54 3.31
6 4 4 271.72 4.18
7 -4 4 47.42 1.83
7 4 4 47.97 1.79
8 -4 4 125.6 2.75
8 4 4 126.46 1.94
9 -4 4 148.34 3.84
9 4 4 147.75 2.2
10 -4 4 0.59 2.08
10 4 4 -0.09 0.74
11 -4 4 48.74 4.53
11 4 4 45.17 1.7
12 -4 4 37.88 4.5
12 4 4 38.59 1.9
13 -4 4 2.18 3.46
13 4 4 0.41 1.34
14 -4 4 2.52 4.13
14 4 4 5.07 2.37
-16 -5 4 19.48 5.2
-16 5 4 15.64 1.97
-15 -5 4 5.67 3.75
-15 5 4 1.67 1.14
-14 -5 4 4.45 5.38
-14 5 4 3.2 1.28
-13 -5 4 12.15 2.48
-13 5 4 9.63 1.33
-12 -5 4 26.81 2.52
-12 5 4 28.45 1.44
-11 -5 4 10.28 3.02
-11 5 4 9.94 1.16
-10 -5 4 61.74 4.28
-10 5 4 58.68 1.61
-9 -5 4 8.05 2.93
-9 5 4 10.4 1.13
-8 -5 4 48.37 2.15
-8 5 4 47.41 1.43
-7 -5 4 89.1 2.51
-7 5 4 90.16 1.66
-6 -5 4 66.04 3.06
-6 5 4 68.83 1.57
-5 -5 4 195.25 4.23
-5 5 4 198.4 2.01
-4 -5 4 133.47 3.49
-4 5 4 134.11 1.7
-3 -5 4 9.72 1.79
-3 5 4 12.38 0.87
-2 -5 4 977.86 8.21
-2 5 4 966.9 4.78
-1 -5 4 40.64 1.69
-1 5 4 42.78 1.93
0 -5 4 220.13 2.68
0 5 4 228.8 3.57
1 -5 4 346.89 3.25
1 5 4 364.84 3.48
2 -5 4 3.99 0.63
2 5 4 4.57 1.14
3 -5 4 17.84 1.18
3 5 4 21.98 1.1
4 -5 4 225.42 2.94
4 5 4 225.13 2.77
5 -5 4 88.87 1.74
5 5 4 85.9 1.75
6 -5 4 58.45 1.63
6 5 4 51.66 1.82
7 -5 4 144.46 2.4
7 5 4 140.74 2.45
8 -5 4 36.35 1.97
8 5 4 37.98 1.94
9 -5 4 76.1 2.55
9 5 4 73.42 1.95
10 -5 4 50.89 2.41
10 5 4 49.15 1.94
11 -5 4 20.95 2.71
11 5 4 20.34 1.67
12 -5 4 25.7 4.05
12 5 4 26.79 1.84
13 -5 4 12.38 4.46
13 5 4 7.65 2
14 -5 4 5.79 4.21
14 5 4 3.71 2.34
-15 -6 4 7.7 5.22
-15 6 4 8.01 1.61
-14 -6 4 3.85 4.1
-14 6 4 1.63 0.88
-13 -6 4 5.54 2.41
-13 6 4 4.84 1.34
-12 -6 4 12.36 2.33
-12 6 4 11.97 1.43
-11 -6 4 29.2 3.85
-11 6 4 29.33 1.43
-10 -6 4 36.42 3.72
-10 6 4 32.54 1.46
-9 -6 4 53.15 3.91
-9 6 4 53.66 1.74
-8 -6 4 87.31 4.31
-8 6 4 83.32 1.84
-7 -6 4 36.17 3.24
-7 6 4 35.93 1.49
-6 -6 4 68.03 3.63
-6 6 4 63.5 1.67
-5 -6 4 54.8 3.13
-5 6 4 56.77 1.42
-4 -6 4 283.38 5.24
-4 6 4 285.55 2.9
-3 -6 4 48.09 2.78
-3 6 4 50.09 1.43
-2 -6 4 124.18 3.63
-2 6 4 123.06 1.91
-1 -6 4 138.44 10.26
-1 6 4 148.38 3.55
0 -6 4 311.89 3.31
0 6 4 319.9 3.83
1 -6 4 8.11 1.46
1 6 4 10.06 1.83
2 -6 4 866.33 6.25
2 6 4 852.3 6.43
3 -6 4 207.87 3.23
3 6 4 206.04 3.55
4 -6 4 171.01 2.4
4 6 4 161.43 2.71
5 -6 4 312.13 3.21
5 6 4 298.53 3.78
6 -6 4 73.73 2.23
6 6 4 75.78 2.01
7 -6 4 42.39 2.02
7 6 4 40.53 2.06
8 -6 4 159.87 3.27
8 6 4 159.64 3.44
9 -6 4 16.05 1.92
9 6 4 19.78 1.71
10 -6 4 9.22 2.47
10 6 4 9.8 1.52
11 -6 4 32.35 4.43
11 6 4 25 1.76
12 -6 4 21.96 3
12 6 4 18.82 1.87
13 -6 4 2.22 4.2
13 6 4 2.14 1.98
-14 -7 4 2.55 3.19
-14 7 4 1.29 0.69
-13 -7 4 3.97 2.63
-13 7 4 2.61 1.74
-12 -7 4 18.89 2.67
-12 7 4 19.35 1.62
-11 -7 4 3.7 3.06
-11 7 4 3.97 1.45
-10 -7 4 18.21 3.5
-10 7 4 16.17 1.39
-9 -7 4 5.58 3.22
-9 7 4 6.83 1.22
-8 -7 4 41.42 3.72
-8 7 4 42.89 1.61
-7 -7 4 85.32 4.46
-7 7 4 87.68 2.1
-6 -7 4 23.18 2.93
-6 7 4 21.64 1.56
-5 -7 4 198.09 5.62
-5 7 4 200.01 3.12
-4 -7 4 123.81 4.46
-4 7 4 127.06 2.49
-3 -7 4 111.92 2.92
-3 7 4 113.52 2.14
-2 -7 4 275.62 5.63
-2 7 4 285.99 3.08
-1 -7 4 91.68 3.68
-1 7 4 95.41 3.66
0 -7 4 263.03 3.79
0 7 4 266.14 3.97
1 -7 4 82.38 2.3
1 7 4 83.08 3.59
2 -7 4 77.02 3.62
2 7 4 73.31 2.44
3 -7 4 71.69 1.98
3 7 4 70.51 2.01
4 -7 4 147.39 2.82
4 7 4 142.16 2.74
5 -7 4 25.81 1.7
5 7 4 23.7 1.47
6 -7 4 67.78 2.32
6 7 4 63.89 2.01
7 -7 4 79.4 2.56
7 7 4 78.45 2.31
8 -7 4 7.93 1.97
8 7 4 5.76 1.52
9 -7 4 23.01 2.67
9 7 4 22.97 1.88
10 -7 4 68.52 3.53
10 7 4 63.84 2.19
11 -7 4 6.5 2.68
11 7 4 4.87 1.7
12 -7 4 11.58 2.99
12 7 4 12.35 2.08
-14 -8 4 2.96 4.08
-14 8 4 0.78 0.79
-13 -8 4 1.73 3.74
-13 8 4 2.27 1.66
-12 -8 4 0.36 1.71
-12 8 4 0 0.09
-11 -8 4 1.61 4.09
-11 8 4 1.73 1.8
-10 -8 4 16.04 3.79
-10 8 4 17.49 1.62
-9 -8 4 2.39 3.53
-9 8 4 1.98 1.41
-8 -8 4 63.52 4.57
-8 8 4 54.55 1.84
-7 -8 4 70 4.57
-7 8 4 68.54 2.06
-6 -8 4 79.44 4.53
-6 8 4 68.56 1.98
-5 -8 4 51.06 3.7
-5 8 4 49.63 2.02
-4 -8 4 57.9 3.79
-4 8 4 56.04 2
-3 -8 4 105.77 4.41
-3 8 4 101.72 2.92
-2 -8 4 4.02 2.46
-2 8 4 1.81 2.42
-1 -8 4 248.78 6.1
-1 8 4 243.37 5.89
0 -8 4 203.89 3.74
0 8 4 207.91 5.71
1 -8 4 24.59 2.75
1 8 4 21.62 1.89
2 -8 4 301.25 6.77
2 8 4 293.85 3.75
3 -8 4 94.21 2.91
3 8 4 98.38 2.47
4 -8 4 0.58 0.93
4 8 4 0.74 1.87
5 -8 4 189.34 3.37
5 8 4 186.97 2.72
6 -8 4 107.01 3.59
6 8 4 104.77 2.28
7 -8 4 -0.11 1.96
7 8 4 0.46 0.87
8 -8 4 87.94 3.67
8 8 4 85.82 2.61
9 -8 4 29.64 2.84
9 8 4 27.94 2.04
10 -8 4 4.43 2.49
10 8 4 2.31 1.73
11 -8 4 11.96 2.89
11 8 4 13.3 1.99
12 -8 4 23.98 3.26
12 8 4 19.41 2.03
-13 -9 4 15.67 3.11
-13 9 4 16.1 2.04
-12 -9 4 12.76 2.87
-12 9 4 12.86 1.73
-11 -9 4 7.55 2.59
-11 9 4 8.95 1.67
-10 -9 4 29.38 4.44
-10 9 4 28.99 1.88
-9 -9 4 30.6 4.18
-9 9 4 32.42 1.79
-8 -9 4 77.07 5.13
-8 9 4 68.77 2.07
-7 -9 4 30.61 3.91
-7 9 4 26.92 2.06
-6 -9 4 6.27 3.04
-6 9 4 7.14 1.7
-5 -9 4 163.05 6.08
-5 9 4 155.48 3.26
-4 9 4 45.16 2.08
-3 9 4 128.25 3.43
-2 -9 4 179.24 5.87
-2 9 4 195.52 5.89
-1 -9 4 25.46 2.07
-1 9 4 27.44 2.19
0 -9 4 8.96 1.69
0 9 4 14.29 2.75
1 -9 4 163.48 5.55
1 9 4 166.62 3.08
2 -9 4 47.86 3.67
2 9 4 48.27 2.06
3 -9 4 44.3 3.69
3 9 4 47.44 1.81
4 -9 4 168.16 4.08
4 9 4 161.23 2.91
5 -9 4 6.05 2.26
5 9 4 6.06 1.35
6 -9 4 67.9 3.27
6 9 4 61.4 1.99
7 -9 4 27.69 2.76
7 9 4 25.08 1.94
8 -9 4 21.8 2.76
8 9 4 20.06 1.94
9 -9 4 19.58 2.97
9 9 4 16.58 2.02
10 -9 4 10.37 2.99
10 9 4 11.41 2.08
11 -9 4 9.27 4.17
11 9 4 4.68 1.77
-12 -10 4 7.81 3.42
-12 10 4 7.61 1.92
-11 -10 4 5.69 3.46
-11 10 4 4.38 1.92
-10 -10 4 0.45 1.31
-10 10 4 0.46 1.8
-9 -10 4 1.59 2.89
-9 10 4 2.13 1.96
-8 -10 4 2.02 3.36
-8 10 4 5.38 1.74
-7 -10 4 34.64 4.47
-7 10 4 34.05 2.33
-6 -10 4 22.42 4.08
-6 10 4 23.05 2.06
-5 10 4 87.19 2.81
-4 10 4 43.46 2.21
-3 10 4 29.54 3.53
-2 10 4 2.42 3.18
-1 -10 4 117.03 3.54
-1 10 4 115.1 3.64
0 -10 4 75.71 4.54
0 10 4 79.26 4.58
1 -10 4 54.61 4.06
1 10 4 49.9 2.82
2 -10 4 88.33 4.77
2 10 4 94.06 3.49
3 -10 4 35.34 3.79
3 10 4 37.4 1.85
4 -10 4 19.68 3.49
4 10 4 17.6 1.68
5 -10 4 51.56 4.43
5 10 4 55.85 2.64
6 -10 4 59.78 3.27
6 10 4 60.49 2.37
7 -10 4 19.62 2.77
7 10 4 20.7 1.97
8 -10 4 51.75 3.53
8 10 4 45.23 2.41
9 -10 4 13.32 3.08
9 10 4 9.24 2.01
10 -10 4 9.72 3.16
10 10 4 7.35 2.22
-10 -11 4 7.87 3
-10 11 4 7.68 2.2
-9 -11 4 5.19 2.84
-9 11 4 4.44 2.17
-8 11 4 12.42 1.93
-7 11 4 33.02 2.48
-6 11 4 10.47 2.09
-5 11 4 6.46 2.53
-4 11 4 12.37 2.48
-3 -11 4 8.28 3.1
-3 11 4 8.94 2.31
-2 -11 4 29.13 3.47
-2 11 4 29.86 2.64
-1 11 4 38.96 4.07
0 -11 4 14.83 3.4
0 11 4 16.97 2.47
1 11 4 37.96 2.82
2 -11 4 30.31 3.82
2 11 4 28.99 2.74
3 -11 4 8.11 3.56
3 11 4 9.77 2.27
4 -11 4 44.04 4.37
4 11 4 43.27 2.33
5 -11 4 1.65 3.67
5 11 4 -0.08 0.8
6 -11 4 13.93 3.87
6 11 4 12.14 1.9
7 -11 4 9.87 2.81
7 11 4 9.21 2.39
8 -11 4 -0.46 3.14
8 11 4 -0.36 1.38
-8 -12 4 2.12 3.23
-8 12 4 3.03 2.86
-7 -12 4 8.36 3.87
-7 12 4 5.94 2.61
-6 -12 4 14.1 3.76
-6 12 4 14.66 2.88
-5 -12 4 30.14 4.1
-5 12 4 25.41 2.92
-4 -12 4 37.18 4.21
-4 12 4 38.79 3.15
-3 -12 4 79.93 5.09
-3 12 4 78.29 3
-2 12 4 15.7 3.84
-1 12 4 93.73 5.52
0 12 4 9.35 2.63
1 -12 4 4.18 3.55
1 12 4 3.82 2.39
2 -12 4 55.69 4.82
2 12 4 54.98 3.45
3 -12 4 17.62 4.21
3 12 4 19.51 4.05
4 -12 4 2.49 2.9
5 -12 4 73.48 5.64
5 12 4 62.18 2.98
6 -12 4 5.59 3.76
6 12 4 6.05 2.62
-6 -13 4 17.44 4.17
-6 13 4 14.55 3.14
-5 -13 4 21.77 4.21
-5 13 4 19.17 2.41
-4 -13 4 3.36 5.36
-4 13 4 2.85 2.25
-3 13 4 6.94 2.84
-2 13 4 19.5 2.83
-1 13 4 27.98 3.05
0 13 4 18.36 3
1 13 4 65.41 3.73
2 13 4 3.51 3.36
3 -13 4 22.64 4.49
3 13 4 21.13 3.01
4 -13 4 8.39 3.95
4 13 4 8.35 3.28
-17 0 5 7.41 4.2
-16 0 5 40.2 2.64
-15 0 5 17.62 1.91
-14 0 5 45.27 1.74
-13 0 5 321.42 4.74
-12 0 5 12.05 1.51
-11 0 5 113.52 2.38
-10 0 5 131.15 2.2
-9 0 5 6.46 0.89
-8 0 5 6.1 0.87
-7 0 5 747.91 4.31
-6 0 5 15.73 0.83
-5 0 5 139.41 1.56
-4 0 5 272.31 2.25
-3 0 5 386.66 2.23
-2 0 5 470.7 3.26
-1 0 5 581.52 6.23
0 0 5 166.21 4.17
1 0 5 678.18 5.27
2 0 5 242.96 2.55
3 0 5 59.07 1.45
4 0 5 11.89 1.15
5 0 5 30.08 1.57
6 0 5 86.19 3.46
7 0 5 18.13 1.26
8 0 5 25.88 1.43
9 0 5 0.3 0.57
10 0 5 0.69 0.97
11 0 5 0.11 0.44
12 0 5 2.77 2.42
13 0 5 0.25 0.28
14 0 5 14.45 4.22
-17 -1 5 3.85 4.36
-17 1 5 4.94 2.19
-16 -1 5 9.23 3.67
-16 1 5 10.43 2.07
-15 -1 5 25.87 2.81
-15 1 5 28.55 1.89
-14 -1 5 7.09 1.89
-14 1 5 7.99 1.61
-13 -1 5 5.38 1.54
-13 1 5 6.59 1.62
-12 -1 5 60.98 1.82
-12 1 5 55.45 1.82
-11 -1 5 131.83 2.27
-11 1 5 134.94 2.23
-10 -1 5 77.83 1.71
-10 1 5 77.56 1.56
-9 -1 5 586.71 5.74
-9 1 5 580.94 3.76
-8 -1 5 60.21 1.65
-8 1 5 65.32 1.15
-7 -1 5 397.78 4.95
-7 1 5 402.99 2.61
-6 -1 5 522.46 3.14
-6 1 5 523.05 2.74
-5 -1 5 84.6 1.3
-5 1 5 88.7 1.13
-4 -1 5 719.5 3.12
-4 1 5 725.17 3.48
-3 -1 5 707.42 3.14
-3 1 5 697.72 5.45
-2 -1 5 55.45 1.1
-2 1 5 39.77 5.88
-1 -1 5 110.59 1.46
-1 1 5 89.79 2.77
0 -1 5 456.09 4.72
0 1 5 406.66 11.45
1 -1 5 686.71 4.81
1 1 5 681.72 3.8
2 -1 5 8.55 0.88
2 1 5 11.15 0.87
3 -1 5 219.55 3.57
3 1 5 216.26 4.65
4 -1 5 99.74 2.14
4 1 5 97.55 2.08
5 -1 5 128.28 2.55
5 1 5 130.03 2.04
6 -1 5 67.78 3.13
6 1 5 69.98 1.98
7 -1 5 20.29 1.43
7 1 5 19.53 1.46
8 -1 5 6.37 1.07
8 1 5 4.78 1.16
9 -1 5 13.02 1.15
9 1 5 15.08 1.45
10 -1 5 4.11 1.48
10 1 5 4.76 1.44
11 -1 5 22.07 2.03
11 1 5 22.39 1.76
12 -1 5 31.84 2.77
12 1 5 34.1 2.06
13 -1 5 1.3 4.8
13 1 5 2.23 1.58
14 -1 5 17.97 4.59
14 1 5 12.82 3.08
-17 -2 5 9.96 4.07
-17 2 5 11.02 2.13
-16 -2 5 13.32 3.7
-16 2 5 14.83 2.09
-15 -2 5 -0.29 3.28
-15 2 5 0.55 1.29
-14 -2 5 86.7 5.13
-14 2 5 86.96 2.18
-13 -2 5 58.6 4.35
-13 2 5 62.56 1.81
-12 -2 5 1.88 1.44
-12 2 5 1.33 0.71
-11 -2 5 298.88 3.53
-11 2 5 301.15 2.92
-10 -2 5 42.19 1.5
-10 2 5 39.65 1.27
-9 -2 5 25.54 1.41
-9 2 5 24.18 1.15
-8 -2 5 274.35 3.13
-8 2 5 264.73 2.6
-7 -2 5 123.46 1.8
-7 2 5 117.43 1.62
-6 -2 5 38.84 1.05
-6 2 5 38.01 0.88
-5 -2 5 286.83 2.45
-5 2 5 277.98 1.91
-4 -2 5 374.4 2.37
-4 2 5 376.35 2.69
-3 -2 5 73.12 1.12
-3 2 5 70.22 1.16
-2 -2 5 328.3 2.44
-2 2 5 315.72 3.49
-1 -2 5 622.8 4.74
-1 2 5 632.06 10.75
0 -2 5 79.42 1.75
0 2 5 82.24 1.96
1 -2 5 149.35 1.68
1 2 5 150.93 2.81
2 -2 5 124.2 2.61
2 2 5 123.18 1.33
3 -2 5 64.51 1.71
3 2 5 65.21 1.35
4 -2 5 190.04 2.57
4 2 5 184.83 2.67
5 -2 5 8.47 1.2
5 2 5 7.91 1.17
6 -2 5 109.68 2.32
6 2 5 114.49 2.17
7 -2 5 14.73 1.46
7 2 5 14.91 1.05
8 -2 5 3.32 1.5
8 2 5 3.08 1.16
9 -2 5 19.97 1.78
9 2 5 21.38 1.4
10 -2 5 2.56 1.64
10 2 5 1.38 1.43
11 -2 5 0.07 0.39
11 2 5 0 0.27
12 -2 5 8.94 2.4
12 2 5 7.57 1.97
13 -2 5 6.77 3.97
13 2 5 6.01 1.85
14 -2 5 2.2 4.09
14 2 5 0.57 1.09
-16 3 5 4.1 1.96
-15 -3 5 16.81 3.69
-15 3 5 17.32 1.68
-14 -3 5 29.24 4
-14 3 5 30.05 1.56
-13 -3 5 21.49 3.42
-13 3 5 18.89 1.35
-12 -3 5 109.88 3.38
-12 3 5 108.82 2.08
-11 -3 5 46.15 1.95
-11 3 5 47.74 1.52
-10 -3 5 55.59 1.94
-10 3 5 52.02 1.57
-9 -3 5 332.25 3.76
-9 3 5 338.66 3.47
-8 -3 5 143.3 2.45
-8 3 5 142.92 1.99
-7 -3 5 223.06 2.53
-7 3 5 237.42 2.21
-6 -3 5 1202.79 5.48
-6 3 5 1222.42 5.66
-5 -3 5 65.23 1.25
-5 3 5 57.95 1.18
-4 -3 5 339.34 2.44
-4 3 5 341.67 2.72
-3 -3 5 871.96 4.63
-3 3 5 893.56 8.72
-2 -3 5 52.53 1.2
-2 3 5 48.96 1.78
-1 -3 5 129.28 2.09
-1 3 5 126.95 3.96
0 -3 5 773.31 4.63
0 3 5 757.65 4.02
1 -3 5 60.88 1.45
1 3 5 61.33 1.39
2 -3 5 312.24 4.03
2 3 5 314.73 2.48
3 -3 5 379.64 3.55
3 3 5 383.05 3
4 -3 5 183.05 2.78
4 3 5 174.99 1.95
5 -3 5 20.46 2.04
5 3 5 22.71 1.05
6 -3 5 50.6 1.78
6 3 5 48.71 2.15
7 -3 5 13.4 1.47
7 3 5 12.82 1.09
8 -3 5 54.68 2.13
8 3 5 56.84 1.6
9 -3 5 9.03 1.62
9 3 5 7.84 1.1
10 -3 5 18.57 1.93
10 3 5 18.38 1.49
11 -3 5 16.15 2.53
11 3 5 16.82 1.42
12 -3 5 3.39 3.73
12 3 5 3.27 1.69
13 -3 5 7.67 3.87
13 3 5 9.34 1.93
14 -3 5 14.63 3.13
14 3 5 15.19 2.14
-16 -4 5 34.75 5.11
-16 4 5 36.23 2.23
-15 -4 5 1.76 5.92
-15 4 5 0.68 1.1
-14 4 5 35.11 1.68
-13 -4 5 57.53 4.4
-13 4 5 66 1.82
-12 -4 5 7.69 1.96
-12 4 5 7.15 1.27
-11 -4 5 46.13 2.51
-11 4 5 48.12 1.72
-10 -4 5 308.63 3.94
-10 4 5 302.12 3.32
-9 -4 5 20.67 1.42
-9 4 5 21.71 1.12
-8 -4 5 144.32 2.26
-8 4 5 135.44 2.19
-7 -4 5 107.91 2.17
-7 4 5 103.62 1.83
-6 -4 5 100.98 1.83
-6 4 5 102.92 1.72
-5 -4 5 3.48 0.79
-5 4 5 5.41 0.77
-4 -4 5 352.57 2.71
-4 4 5 368.6 3.02
-3 -4 5 47.8 1.6
-3 4 5 48.03 2.24
-2 -4 5 143.27 2.37
-2 4 5 148.37 2.83
-1 -4 5 21.22 1.14
-1 4 5 20.16 1.56
0 -4 5 82.44 1.81
0 4 5 81.59 1.71
1 -4 5 163.61 2.44
1 4 5 173.93 2.33
2 -4 5 3.54 0.58
2 4 5 4.51 0.79
3 -4 5 64.28 1.38
3 4 5 67.1 1.45
4 -4 5 24.56 1.17
4 4 5 23.28 1.24
5 -4 5 26.24 1.42
5 4 5 27.59 1.43
6 -4 5 57.27 1.92
6 4 5 56.58 1.62
7 -4 5 3.73 1.31
7 4 5 3.32 1.27
8 -4 5 48.13 2.1
8 4 5 45.43 1.42
9 -4 5 12.08 1.8
9 4 5 11.36 1.19
10 -4 5 3.83 2.07
10 4 5 5.27 1.28
11 -4 5 8.15 2.5
11 4 5 8.09 1.51
12 4 5 0.13 0.38
13 -4 5 0.26 3.57
13 4 5 1.37 1.33
14 -4 5 3.95 3.67
14 4 5 0.29 0.54
-16 -5 5 5.14 6
-16 5 5 3.28 1.71
-15 -5 5 20.6 4.88
-15 5 5 19.64 1.8
-14 -5 5 6.17 4.07
-14 5 5 5.38 1.45
-13 -5 5 17.62 2.5
-13 5 5 17.7 1.44
-12 -5 5 105.19 3.76
-12 5 5 103.66 2.22
-11 -5 5 1.13 1.76
-11 5 5 0.99 0.91
-10 -5 5 77.13 3.07
-10 5 5 73.57 1.96
-9 -5 5 50.53 2.42
-9 5 5 51.37 1.77
-8 -5 5 93.04 2.78
-8 5 5 90 1.99
-7 -5 5 114.05 2.85
-7 5 5 112.03 2.04
-6 -5 5 253.16 5.24
-6 5 5 265.77 2.79
-5 -5 5 106.47 3.47
-5 5 5 105.98 2.02
-4 -5 5 492.65 6.44
-4 5 5 491.86 3.79
-3 -5 5 182.48 2.36
-3 5 5 176.01 3.76
-2 -5 5 54.14 1.64
-2 5 5 53.24 2.34
-1 -5 5 137.52 2.31
-1 5 5 136.11 3
0 -5 5 132.97 2.33
0 5 5 125.75 3.11
1 -5 5 96.61 2.03
1 5 5 94.66 2.16
2 -5 5 88.62 1.38
2 5 5 89.05 2.22
3 -5 5 48.7 1.37
3 5 5 47.31 1.48
4 -5 5 71.28 1.65
4 5 5 72.13 1.62
5 -5 5 18.09 1.16
5 5 5 16.62 1.19
6 -5 5 0.08 0.88
6 5 5 -0.28 0.64
7 -5 5 27.79 1.5
7 5 5 26.22 1.72
8 -5 5 10.52 2.21
8 5 5 8.55 1.39
9 -5 5 4.35 2
9 5 5 3.87 1.24
10 -5 5 4.47 2.28
10 5 5 3.43 1.23
11 -5 5 3.8 3.33
11 5 5 2.31 2.02
12 -5 5 18.81 4.21
12 5 5 16.34 1.97
13 -5 5 3.45 2.59
13 5 5 0.61 0.78
-15 -6 5 -0.33 72.29
-15 6 5 0.88 1.37
-14 -6 5 28.03 2.99
-14 6 5 30.17 1.7
-13 -6 5 23.87 2.83
-13 6 5 24.04 1.54
-12 -6 5 12.62 2.41
-12 6 5 13.16 1.48
-11 -6 5 62.3 3.17
-11 6 5 62.97 1.89
-10 -6 5 155.65 4.2
-10 6 5 157.63 2.94
-9 -6 5 1.86 2.74
-9 6 5 0.43 0.73
-8 -6 5 223.59 6.34
-8 6 5 215.88 3.02
-7 -6 5 146.67 5.15
-7 6 5 144.15 2.42
-6 -6 5 4.57 2.29
-6 6 5 5.32 1.22
-5 -6 5 229.59 5.25
-5 6 5 230.21 3.07
-4 -6 5 160.9 4.27
-4 6 5 166.75 3.24
-3 -6 5 16.89 2.23
-3 6 5 16.45 2.17
-2 -6 5 170.02 4.34
-2 6 5 166.92 4.13
-1 -6 5 142.68 2.47
-1 6 5 151.34 3.86
0 -6 5 2.73 1.09
0 6 5 4.26 1.73
1 -6 5 151.36 2.24
1 6 5 146.03 2.84
2 -6 5 50.92 3.04
2 6 5 49.38 2
3 -6 5 34.31 1.67
3 6 5 35.26 1.56
4 -6 5 39.39 1.82
4 6 5 39 1.73
5 -6 5 8.02 1.88
5 6 5 7.55 1.38
6 -6 5 20.25 2.19
6 6 5 21.73 1.61
7 -6 5 12.89 2.2
7 6 5 13.02 1.73
8 -6 5 10.64 2.33
8 6 5 11.58 2.24
9 -6 5 74.66 3.37
9 6 5 73.03 2.41
10 -6 5 10.16 2.44
10 6 5 9.22 1.57
11 -6 5 7.09 3.73
11 6 5 5.02 1.94
12 -6 5 5.53 2.08
12 6 5 2.32 1.91
13 -6 5 6.15 2.31
13 6 5 4.92 2.24
-14 -7 5 12.17 3.09
-14 7 5 11.91 1.63
-13 -7 5 16.1 2.73
-13 7 5 15.89 1.71
-12 -7 5 49.1 3.21
-12 7 5 50.37 1.94
-11 -7 5 9.88 2.54
-11 7 5 9.41 1.34
-10 -7 5 36.4 2.82
-10 7 5 36.5 1.77
-9 -7 5 140.22 5.84
-9 7 5 137.8 2.91
-8 -7 5 10.82 3.02
-8 7 5 9.02 1.38
-7 -7 5 50.47 3.92
-7 7 5 45.99 1.77
-6 -7 5 280.93 6.86
-6 7 5 280.57 3.78
-5 -7 5 25.96 2.98
-5 7 5 26.22 1.59
-4 -7 5 14.8 1.78
-4 7 5 18.39 1.79
-3 -7 5 501.8 5.68
-3 7 5 508.61 8.19
-2 -7 5 35.46 1.93
-2 7 5 36.27 2.81
-1 -7 5 116.19 2.82
-1 7 5 122.02 4.11
0 -7 5 221.5 3.63
0 7 5 230.04 5.63
1 -7 5 55.31 2.05
1 7 5 57.29 2.27
2 -7 5 7.41 1.56
2 7 5 9.27 1.33
3 -7 5 20.64 1.93
3 7 5 19.86 1.52
4 -7 5 36.43 2.31
4 7 5 33.45 1.76
5 -7 5 47.16 2.62
5 7 5 46.11 2.02
6 -7 5 14.36 2.37
6 7 5 13.42 1.34
7 -7 5 81.26 3.38
7 7 5 78.4 2.72
8 -7 5 27.25 2.71
8 7 5 21.67 1.83
9 -7 5 4.65 2.75
9 7 5 3.54 1.34
10 -7 5 1.61 1.99
10 7 5 1.38 0.69
11 -7 5 8.47 2.26
11 7 5 7.21 2.07
12 -7 5 5.27 2.2
12 7 5 4.22 2.22
-14 -8 5 16.07 3.21
-14 8 5 16.85 1.78
-13 -8 5 16.33 3.06
-13 8 5 15.29 1.9
-12 -8 5 5.94 2.55
-12 8 5 5.66 1.57
-11 -8 5 30.96 2.92
-11 8 5 28.21 1.69
-10 -8 5 32.06 2.82
-10 8 5 28.7 1.74
-9 -8 5 5.2 2.96
-9 8 5 3.88 1.39
-8 -8 5 25.22 3.68
-8 8 5 22.15 1.49
-7 -8 5 62.69 4.4
-7 8 5 56.63 2
-6 -8 5 12.07 3.32
-6 8 5 12.27 1.59
-5 -8 5 91.62 4.56
-5 8 5 84.44 2.42
-4 -8 5 17.95 2.91
-4 8 5 16.67 1.58
-3 -8 5 79.94 2.82
-3 8 5 83.56 4.09
-2 -8 5 4.87 1.62
-2 8 5 5.51 2.36
-1 -8 5 4.66 1.6
-1 8 5 7.97 1.76
0 -8 5 55.87 2.34
0 8 5 60.71 3.62
1 -8 5 4.56 2.51
1 8 5 4.73 1.65
2 -8 5 27.54 2.06
2 8 5 29.7 2.1
3 -8 5 75.95 2.87
3 8 5 74.02 2.28
4 -8 5 2.23 1.76
4 8 5 3.4 1.38
5 -8 5 19.01 2.28
5 8 5 21.51 1.61
6 -8 5 2.19 1.82
6 8 5 0.59 1.68
7 -8 5 35.03 2.82
7 8 5 33.15 1.97
8 -8 5 10.08 2.62
8 8 5 10.55 1.76
9 -8 5 23.52 2.88
9 8 5 20.74 1.98
10 -8 5 11.86 3
10 8 5 11.79 1.94
11 -8 5 11.68 3.01
11 8 5 10.89 1.91
-13 -9 5 1.48 4.9
-13 9 5 0.39 0.68
-12 -9 5 23.92 3.02
-12 9 5 24.91 1.82
-11 -9 5 12.03 2.62
-11 9 5 10.33 1.6
-10 -9 5 19.37 2.63
-10 9 5 15.02 1.67
-9 -9 5 73.38 3.65
-9 9 5 68.91 2.19
-8 -9 5 16.87 3.76
-8 9 5 11.18 1.46
-7 -9 5 81.09 5.12
-7 9 5 77.13 2.72
-6 -9 5 41.85 4.28
-6 9 5 40.81 2.19
-5 -9 5 29.4 3.61
-5 9 5 32.32 2.01
-4 9 5 35.43 2.45
-3 -9 5 110.72 3.45
-3 9 5 108.55 4.84
-2 -9 5 68.37 2.83
-2 9 5 61 3.93
-1 -9 5 144.87 3.67
-1 9 5 158.28 5.66
0 -9 5 62.5 4.07
0 9 5 60.94 3.97
1 -9 5 1.36 1.97
1 9 5 0.6 0.91
2 -9 5 55.26 4.01
2 9 5 57.73 2.79
3 -9 5 10.9 2.8
3 9 5 10.35 1.4
4 -9 5 12.32 2.2
4 9 5 10.34 1.46
5 -9 5 64.19 3.14
5 9 5 60.69 1.97
6 -9 5 3.24 2.51
6 9 5 2.23 1.36
7 -9 5 6.35 2.42
7 9 5 4.3 1.92
8 -9 5 6.08 2.5
8 9 5 4.18 1.65
9 -9 5 1.69 2.49
9 9 5 1.3 2.62
10 -9 5 2.3 3
10 9 5 0.1 0.24
-12 -10 5 -0.37 1.65
-12 10 5 0.08 0.54
-11 -10 5 12.02 3.09
-11 10 5 11.58 1.67
-10 -10 5 24.27 3.06
-10 10 5 23.15 1.83
-9 -10 5 0.23 0.36
-9 10 5 -0.32 8.76
-8 -10 5 15.87 2.84
-8 10 5 17.14 1.84
-7 -10 5 87.69 3.82
-7 10 5 84.13 2.59
-6 -10 5 5.63 2.96
-6 10 5 4.63 2.26
-5 -10 5 66.35 4.54
-5 10 5 66.76 3.21
-4 -10 5 28.45 3.43
-4 10 5 33.12 2.65
-3 -10 5 10.96 2.92
-3 10 5 13.49 3.34
-2 -10 5 41.26 2.61
-2 10 5 45.54 2.75
-1 -10 5 32.98 2.42
-1 10 5 39.27 3.79
0 -10 5 13.13 3.22
0 10 5 16.73 2.26
1 -10 5 32.32 3.57
1 10 5 34.74 2.6
2 -10 5 14.35 3.23
2 10 5 13.64 1.78
3 -10 5 2.12 2.71
3 10 5 3.03 1.66
4 -10 5 4.45 3.41
4 10 5 6.61 1.83
5 -10 5 -0.32 0.96
5 10 5 0.11 0.32
6 -10 5 9.27 3.44
6 10 5 10.3 1.81
7 -10 5 0.12 0.22
7 10 5 0.38 5.13
8 -10 5 1.98 2.25
8 10 5 -0.42 1.91
9 -10 5 0.62 1.21
9 10 5 0.57 1.28
-10 -11 5 11.11 3.14
-10 11 5 10.49 2.62
-9 -11 5 29.94 3.22
-9 11 5 24.89 2.48
-8 -11 5 0.13 40.08
-8 11 5 0.66 9.79
-7 -11 5 8.32 3.38
-7 11 5 9.42 2.19
-6 -11 5 28.84 3.97
-6 11 5 30.31 2.94
-5 -11 5 9.38 3.38
-5 11 5 7.84 2.56
-4 -11 5 18.98 3.51
-4 11 5 23.81 2.74
-3 -11 5 42.92 3.97
-3 11 5 45.96 2.47
-2 -11 5 2.08 3.87
-2 11 5 2.51 3.7
-1 -11 5 1.14 5.55
-1 11 5 0.74 3.23
0 -11 5 16.67 3.46
0 11 5 13.29 2.48
1 -11 5 57.47 4.5
1 11 5 51.42 3.16
2 -11 5 9.21 3.28
2 11 5 6.89 2.38
3 -11 5 9.71 3.21
3 11 5 9.7 2.53
4 -11 5 42.89 4.38
4 11 5 34.74 2.1
5 -11 5 4.87 3.4
5 11 5 0.61 1.02
6 11 5 1.42 3.44
7 -11 5 20.15 3.11
7 11 5 16.95 2.56
8 -11 5 5.67 2.86
8 11 5 3.19 3.11
-8 -12 5 12.21 3.65
-8 12 5 9.62 2.63
-7 -12 5 7.55 4.12
-7 12 5 6.61 2.26
-6 -12 5 0.53 3.53
-5 -12 5 4.84 3.57
-5 12 5 4.7 3.22
-4 -12 5 2.97 3.99
-4 12 5 4.94 2.17
-3 -12 5 19.38 3.61
-3 12 5 20.09 2.69
-2 12 5 8.73 3.9
-1 12 5 20.53 2.77
0 -12 5 29.48 4.15
0 12 5 27.48 2.96
1 -12 5 1.62 3.57
1 12 5 1.62 2.25
2 -12 5 5.12 3.82
2 12 5 3.46 3.18
3 -12 5 12.32 3.9
3 12 5 11.48 2.69
4 -12 5 6.59 4.32
4 12 5 8.67 2.65
5 -12 5 7.22 3.91
5 12 5 4.68 3.34
6 -12 5 20.22 4.52
6 12 5 11.92 2.69
-6 -13 5 26.63 4.32
-6 13 5 26.64 2.55
-5 -13 5 4.1 5.1
-5 13 5 3.13 3.46
-4 13 5 16.04 3.02
-3 13 5 11.29 3
-2 13 5 -0.13 0.39
-1 13 5 6.31 2.66
0 13 5 13.99 2.86
1 13 5 8.57 3.02
2 -13 5 21.19 4.45
2 13 5 22.87 2.98
3 -13 5 6.74 3.98
3 13 5 6.51 3.58
-17 0 6 2.71 2.57
-16 0 6 2.62 2.29
-15 0 6 -0.12 0.93
-14 0 6 1.82 1.37
-13 0 6 19.97 1.72
-12 0 6 35.71 1.84
-11 0 6 0.19 0.42
-10 0 6 0.04 0.43
-9 0 6 18.22 1.14
-8 0 6 4.45 0.98
-7 0 6 4.71 0.73
-6 0 6 25.34 0.93
-5 0 6 23.61 0.81
-4 0 6 48.81 1.03
-3 0 6 66.83 1.09
-2 0 6 46.92 1.07
-1 0 6 132.39 1.87
0 0 6 65.55 1.51
1 0 6 309.63 4.02
2 0 6 54.04 1.5
3 0 6 188.63 2.49
4 0 6 667.67 5.27
5 0 6 61.9 2.08
6 0 6 395.59 3.52
7 0 6 100.44 2.04
8 0 6 18.06 1.41
9 0 6 42.85 1.46
10 0 6 80.14 1.75
11 0 6 6.79 1.46
12 0 6 85.99 3.08
13 0 6 12.91 2.9
14 0 6 -0.49 1.77
-17 -1 6 1.68 3.84
-17 1 6 0.33 0.78
-16 -1 6 7.94 3.62
-16 1 6 8.7 1.96
-15 -1 6 3.99 2.16
-15 1 6 5.15 1.6
-14 -1 6 8.52 1.96
-14 1 6 8.13 1.69
-13 -1 6 0.05 2
-13 1 6 -0.48 1.64
-12 -1 6 9.98 1.3
-12 1 6 10.27 1.51
-11 -1 6 11.52 1.22
-11 1 6 9.49 1.25
-10 -1 6 20.96 1.08
-10 1 6 21.56 1.24
-9 -1 6 56.86 1.26
-9 1 6 56.64 1.57
-8 -1 6 31.65 1.23
-8 1 6 31.53 1.01
-7 -1 6 187.42 2.32
-7 1 6 189.35 1.9
-6 -1 6 74.99 1.28
-6 1 6 75.87 1.18
-5 -1 6 29.76 0.87
-5 1 6 27 0.79
-4 -1 6 509.28 2.9
-4 1 6 502.74 2.71
-3 -1 6 430.21 2.62
-3 1 6 436.68 2.84
-2 -1 6 51.37 1.19
-2 1 6 50 1.29
-1 -1 6 1821.91 20.1
-1 1 6 1857.72 19.52
0 -1 6 440.72 5.23
0 1 6 444.23 3.53
1 -1 6 193.48 2.89
1 1 6 190.26 3.73
2 -1 6 588.36 4.22
2 1 6 581.13 4.12
3 -1 6 110.43 2.88
3 1 6 104.17 1.94
4 -1 6 99.41 2.3
4 1 6 97.38 2.24
5 -1 6 256.97 3.66
5 1 6 239.5 3.5
6 -1 6 89.9 2.15
6 1 6 92.28 1.86
7 -1 6 43.12 1.62
7 1 6 42.41 1.44
8 -1 6 188.66 2.85
8 1 6 190.15 2.53
9 -1 6 20.86 1.39
9 1 6 19.75 1.39
10 -1 6 77.53 2.32
10 1 6 79.1 2.09
11 -1 6 24.08 1.88
11 1 6 23 1.66
12 -1 6 4.68 1.85
12 1 6 5.06 1.58
13 -1 6 11.35 2.32
13 1 6 11.23 2.37
14 -1 6 11.06 4.35
14 1 6 7.9 2.39
-17 -2 6 7.32 3.61
-17 2 6 3.78 2.35
-16 -2 6 4.66 3.81
-16 2 6 3.97 1.89
-15 -2 6 0.77 1.61
-15 2 6 0.91 1.72
-14 -2 6 9.48 3.28
-14 2 6 9.49 1.76
-13 -2 6 1.14 1.67
-13 2 6 1.21 0.82
-12 -2 6 1.19 1.9
-12 2 6 1.28 1.47
-11 -2 6 1.51 1.06
-11 2 6 0.75 1.15
-10 -2 6 1 1.03
-10 2 6 0.62 0.88
-9 -2 6 36.77 1.62
-9 2 6 35.54 1.26
-8 -2 6 34.64 1.14
-8 2 6 37.48 1.18
-7 -2 6 36.57 1.26
-7 2 6 36.42 1.24
-6 -2 6 63.86 1.5
-6 2 6 64.34 1.33
-5 -2 6 195.95 1.93
-5 2 6 196.49 2
-4 -2 6 15.46 0.79
-4 2 6 14.29 0.75
-3 -2 6 808.64 3.53
-3 2 6 813.25 3.64
-2 -2 6 369.71 2.43
-2 2 6 394.14 6.95
-1 -2 6 179.59 2.48
-1 2 6 176.11 2
0 -2 6 995.81 5.44
0 2 6 1004.7 6.5
1 -2 6 684.12 5.09
1 2 6 657.61 5.32
2 -2 6 2.85 1.25
2 2 6 2.38 0.6
3 -2 6 1281.55 9.52
3 2 6 1250.69 11.84
4 -2 6 306.16 3.67
4 2 6 322.05 4.28
5 -2 6 5.61 0.93
5 2 6 6.07 1.07
6 -2 6 488.9 4.58
6 2 6 490.27 3.85
7 -2 6 199.1 3.26
7 2 6 194.67 3.04
8 -2 6 4.26 1.44
8 2 6 4.27 1.19
9 -2 6 119.31 3.02
9 2 6 116.47 2.29
10 -2 6 69.41 2.66
10 2 6 70.23 2.11
11 -2 6 12.04 2.41
11 2 6 12.08 1.5
12 -2 6 14.28 2.13
12 2 6 12.97 1.83
13 -2 6 39.39 3.39
13 2 6 35.41 2.04
14 -2 6 2.61 2.65
14 2 6 0.19 1.74
-16 -3 6 4.94 2.99
-16 3 6 3.03 1.8
-15 -3 6 3.57 3.39
-15 3 6 2.78 1.61
-14 -3 6 5.53 3.11
-14 3 6 5.7 1.46
-13 -3 6 1.63 2.37
-13 3 6 2.12 1.43
-12 -3 6 9.43 1.57
-12 3 6 9.38 1.37
-11 -3 6 27.29 1.75
-11 3 6 29.6 1.34
-10 -3 6 1.61 1.56
-10 3 6 1.7 1.07
-9 -3 6 19.26 1.44
-9 3 6 19.91 1.17
-8 -3 6 19.79 1.35
-8 3 6 20.16 1.11
-7 -3 6 186.85 2.53
-7 3 6 185.4 1.92
-6 -3 6 43.88 1.22
-6 3 6 46.89 1.19
-5 -3 6 150.56 1.85
-5 3 6 149.37 1.71
-4 -3 6 187.65 1.97
-4 3 6 190.05 2.2
-3 -3 6 244.5 2.15
-3 3 6 243.47 2.67
-2 -3 6 36.28 1.14
-2 3 6 27.64 2.64
-1 -3 6 327.05 3.43
-1 3 6 335.83 4.2
0 -3 6 172 2.08
0 3 6 173.01 2.3
1 -3 6 49.34 1.48
1 3 6 52.88 1.48
2 -3 6 279.23 4.31
2 3 6 299.47 2.25
3 -3 6 236.16 3.07
3 3 6 228.96 2.51
4 -3 6 3 1.21
4 3 6 2.96 0.9
5 -3 6 411.61 3.55
5 3 6 412.14 4.22
6 -3 6 27.56 1.65
6 3 6 28.76 1.61
7 -3 6 11.13 1.55
7 3 6 10.09 1.02
8 -3 6 109.49 2.79
8 3 6 108.97 2.13
9 -3 6 16.38 1.84
9 3 6 14.78 1.39
10 -3 6 15.05 1.98
10 3 6 12.86 1.46
11 -3 6 82.3 3.61
11 3 6 86.75 2.44
12 -3 6 3.62 1.99
12 3 6 3.34 1.55
13 -3 6 9.04 2.97
13 3 6 9.24 1.94
-16 -4 6 0.4 3.26
-16 4 6 1.23 1.85
-15 -4 6 23.35 4.46
-15 4 6 22.51 1.77
-14 -4 6 1.56 2.63
-14 4 6 1.42 1.27
-13 -4 6 25.24 2.45
-13 4 6 25.51 1.74
-12 -4 6 2.85 2.17
-12 4 6 2.2 1.23
-11 -4 6 33.3 1.91
-11 4 6 33.5 1.62
-10 -4 6 4.9 1.24
-10 4 6 4.51 1.12
-9 -4 6 6.23 1.18
-9 4 6 8.5 1.1
-8 -4 6 37.74 1.44
-8 4 6 35.03 1.27
-7 -4 6 6.91 0.89
-7 4 6 6.97 0.96
-6 -4 6 9.61 0.96
-6 4 6 11.13 0.94
-5 -4 6 111.46 1.75
-5 4 6 104.4 1.82
-4 -4 6 12.16 0.9
-4 4 6 12.01 0.91
-3 -4 6 82.8 1.68
-3 4 6 90.31 1.84
-2 -4 6 335.66 4.14
-2 4 6 330.3 3.04
-1 -4 6 32.74 1.41
-1 4 6 33.35 1.94
0 -4 6 492.6 4.37
0 4 6 487.67 4.1
1 -4 6 315.34 3.57
1 4 6 319.54 3.25
2 -4 6 168.98 2.09
2 4 6 170.08 2.08
3 -4 6 335.45 3.9
3 4 6 328.57 3.4
4 -4 6 124.55 2.02
4 4 6 122.1 2
5 -4 6 33.77 1.49
5 4 6 33.75 1.4
6 -4 6 177.31 3.05
6 4 6 163.63 2.58
7 -4 6 138.93 2.94
7 4 6 138.69 2.22
8 -4 6 21.4 1.87
8 4 6 20.78 1.25
9 -4 6 127.95 3.18
9 4 6 126.99 2.73
10 -4 6 20.6 2.56
10 4 6 20.39 1.59
11 -4 6 0.87 1.89
11 4 6 -0.2 2.33
12 -4 6 22.8 2.51
12 4 6 20.3 1.8
13 -4 6 20.25 3.34
13 4 6 15.53 1.88
-16 -5 6 1.96 8.12
-16 5 6 0.22 0.17
-15 -5 6 -0.72 1.45
-15 5 6 1.61 1.18
-14 -5 6 3.82 3.6
-14 5 6 3.3 1.63
-13 -5 6 4.33 2.22
-13 5 6 3.56 1.34
-12 -5 6 0.54 5.36
-12 5 6 0.88 1.11
-11 -5 6 4.57 2.04
-11 5 6 6.51 1.36
-10 -5 6 6.57 1.52
-10 5 6 7.09 1.28
-9 -5 6 74.3 2.26
-9 5 6 75 1.81
-8 -5 6 8.29 1.33
-8 5 6 7.51 1.19
-7 -5 6 101.25 2.33
-7 5 6 102.71 1.98
-6 -5 6 180.08 3.55
-6 5 6 183.76 2.56
-5 -5 6 38.74 1.92
-5 5 6 39.17 1.43
-4 -5 6 619.6 7.85
-4 5 6 628.28 4.22
-3 -5 6 35.01 1.69
-3 5 6 30.31 2.32
-2 -5 6 138.27 2.49
-2 5 6 139.06 3.32
-1 -5 6 182.98 2.85
-1 5 6 170.6 7.66
0 -5 6 103.81 2.28
0 5 6 104.83 2.27
1 -5 6 54.56 1.37
1 5 6 58.59 1.89
2 -5 6 415.11 3.28
2 5 6 395.84 4.48
3 -5 6 202.07 2.42
3 5 6 197.69 2.87
4 -5 6 144.76 2.57
4 5 6 136.01 2.19
5 -5 6 154.22 2.41
5 5 6 143.45 2.37
6 -5 6 56.22 1.81
6 5 6 52.6 1.99
7 -5 6 112.92 2.79
7 5 6 109.86 2.7
8 -5 6 47.91 2.23
8 5 6 44.92 1.68
9 -5 6 13.86 2.43
9 5 6 15.18 1.44
10 -5 6 57.12 2.72
10 5 6 56.12 2.25
11 -5 6 13.65 2.19
11 5 6 11.35 1.87
12 -5 6 1.99 3.26
12 5 6 0.22 1.43
13 -5 6 19.19 3.3
13 5 6 14.44 2.14
-15 -6 6 5.56 5.6
-15 6 6 8.45 1.81
-14 -6 6 1.43 5.54
-14 6 6 0.5 0.91
-13 -6 6 1.12 7.02
-13 6 6 1.72 1.44
-12 -6 6 10.19 2.34
-12 6 6 9.98 1.39
-11 -6 6 3.01 2.15
-11 6 6 1.38 1.34
-10 -6 6 41.88 2.74
-10 6 6 39.58 1.56
-9 -6 6 11.85 1.99
-9 6 6 9.93 1.42
-8 -6 6 3.36 1.74
-8 6 6 2.32 1.24
-7 -6 6 35.78 2.23
-7 6 6 31.99 1.46
-6 -6 6 39.84 2.23
-6 6 6 42.16 1.5
-5 -6 6 7.43 1.42
-5 6 6 8.01 1.35
-4 -6 6 131.55 3.07
-4 6 6 135.09 4.33
-3 -6 6 40.46 1.95
-3 6 6 40.95 2.76
-2 -6 6 262.63 5.43
-2 6 6 285.04 5.49
-1 -6 6 9.88 1.12
-1 6 6 9.68 2.09
0 -6 6 520.35 5.19
0 6 6 515.67 5.13
1 -6 6 196.99 2.68
1 6 6 201.83 3.49
2 -6 6 39.51 1.44
2 6 6 38.78 1.6
3 -6 6 256.3 3.97
3 6 6 251.15 2.81
4 -6 6 198.78 4.04
4 6 6 189.82 2.62
5 -6 6 12.63 2.05
5 6 6 12.63 1.27
6 -6 6 139.26 3.39
6 6 6 132.11 2.91
7 -6 6 91.89 2.78
7 6 6 86.97 2.27
8 -6 6 9.51 1.87
8 6 6 9.11 1.52
9 -6 6 40.79 2.47
9 6 6 36.86 2.01
10 -6 6 76.15 2.99
10 6 6 73.68 2.57
11 -6 6 0.73 1.57
11 6 6 2.72 2.75
12 -6 6 15.03 2.46
12 6 6 13.3 2.05
-14 -7 6 8.08 3.23
-14 7 6 8.25 1.84
-13 -7 6 3.47 2.43
-13 7 6 3.23 1.37
-12 -7 6 24.31 2.93
-12 7 6 20.75 1.62
-11 -7 6 1.05 1.78
-11 7 6 1.64 1.35
-10 -7 6 10.45 2.18
-10 7 6 11.07 1.45
-9 -7 6 14.47 2.32
-9 7 6 14.2 1.58
-8 -7 6 56.57 2.86
-8 7 6 57.37 1.98
-7 -7 6 63.69 2.82
-7 7 6 58.33 1.88
-6 -7 6 112.44 3.33
-6 7 6 118.97 2.32
-5 -7 6 35.96 2.22
-5 7 6 36.48 2.11
-4 -7 6 185.72 3.21
-3 -7 6 42.35 2.15
-3 7 6 44.62 3.19
-2 -7 6 156.5 3.66
-2 7 6 177.7 5.08
-1 -7 6 91.45 2.64
-1 7 6 95.76 4.01
0 -7 6 130.88 3
0 7 6 135.88 3.12
1 -7 6 13.74 1.79
1 7 6 14.91 1.38
2 -7 6 137.88 3.34
2 7 6 140.66 2.83
3 -7 6 46.83 2.41
3 7 6 47.93 1.93
4 -7 6 0.44 1.45
4 7 6 0.3 0.37
5 -7 6 165.23 3.37
5 7 6 163.41 3.31
6 -7 6 40.49 2.25
6 7 6 42.66 2.22
7 -7 6 22.22 2.07
7 7 6 18.06 1.94
8 -7 6 127.86 3.42
8 7 6 125.5 3.49
9 -7 6 7.55 1.78
9 7 6 7.51 1.69
10 -7 6 2.36 2.61
10 7 6 2.04 2.17
11 -7 6 14.35 3.09
11 7 6 11.11 1.96
-14 8 6 0.33 1.79
-13 -8 6 5.77 3.1
-13 8 6 3.89 1.82
-12 -8 6 8.68 2.71
-12 8 6 7.31 1.5
-11 -8 6 1.52 2.06
-11 8 6 0.46 1.21
-10 -8 6 39.38 3
-10 8 6 39.31 1.87
-9 -8 6 14.32 2.42
-9 8 6 13.47 1.68
-8 -8 6 56.96 3.1
-8 8 6 56.57 2.2
-7 -8 6 1.4 2
-7 8 6 1.66 1.39
-6 -8 6 20.37 2.26
-6 8 6 19.65 1.73
-5 -8 6 38.71 2.46
-5 8 6 38.66 2.35
-4 -8 6 16.6 1.96
-4 8 6 19.86 2.01
-3 -8 6 65.74 2.69
-3 8 6 73.07 3.99
-2 -8 6 88.33 2.91
-2 8 6 92.44 4.25
-1 -8 6 11.01 1.69
-1 8 6 9.14 2.57
0 -8 6 127.64 3.25
0 8 6 138.73 3.47
1 -8 6 95.52 4.47
1 8 6 101.14 3.11
2 -8 6 42.18 2.42
2 8 6 41.62 2.37
3 -8 6 338.3 5.37
3 8 6 337.3 4.32
4 -8 6 54.09 2.84
4 8 6 56.46 2.28
5 -8 6 58 2.97
5 8 6 59.95 2.12
6 -8 6 81.56 3.5
6 8 6 79.02 2.75
7 -8 6 8.05 2.37
7 8 6 8.07 1.69
8 -8 6 0.3 2.54
8 8 6 0.21 5.41
9 -8 6 44.25 3.44
9 8 6 42.98 2.31
10 -8 6 31.15 3.37
10 8 6 24.44 2.2
11 -8 6 13.53 3.09
11 8 6 14 2.53
-13 -9 6 0.09 0.15
-13 9 6 -0.06 1.64
-12 -9 6 2.83 3.44
-12 9 6 3.66 1.95
-11 -9 6 2.65 3.35
-11 9 6 1.53 2.61
-10 -9 6 13.44 2.71
-10 9 6 10.37 1.67
-9 -9 6 2.29 2.32
-9 9 6 1.85 1.9
-8 -9 6 0.82 2.55
-7 -9 6 21.99 2.6
-7 9 6 23.19 2.01
-6 -9 6 30.48 2.7
-6 9 6 33.52 2.58
-5 -9 6 32.73 3.5
-5 9 6 38.47 2.59
-4 -9 6 37.5 3.56
-4 9 6 42.77 2.62
-3 -9 6 48.69 2.68
-3 9 6 47.53 3.88
-2 -9 6 17.88 2.04
-2 9 6 20.82 3.27
-1 -9 6 105.97 3.31
-1 9 6 117.57 5.14
0 -9 6 138.08 5.44
0 9 6 138.77 3.76
1 -9 6 31.36 3.35
1 9 6 31.95 2.39
2 -9 6 54.7 3.97
2 9 6 52.35 2.77
3 -9 6 11.71 2.09
3 9 6 10.93 1.68
4 -9 6 0.03 1.22
4 9 6 0.19 0.33
5 -9 6 36.22 2.79
5 9 6 38.28 1.81
6 -9 6 55.7 3.27
6 9 6 48.58 2.25
7 -9 6 39.84 3.11
7 9 6 40.07 2.24
8 -9 6 19.46 3.07
8 9 6 17.15 1.95
9 -9 6 3.12 3.52
9 9 6 2.22 2.37
10 -9 6 11.74 3.12
10 9 6 10.54 2.2
-11 -10 6 -0.02 2.04
-11 10 6 0.51 1.84
-10 -10 6 14.21 2.78
-10 10 6 14.79 2.01
-9 -10 6 10.38 2.66
-9 10 6 10.66 2.14
-8 -10 6 30.12 2.98
-8 10 6 28.43 2.33
-7 -10 6 70.79 3.62
-7 10 6 65.21 2.76
-6 -10 6 33.77 3.9
-6 10 6 35.37 2.3
-5 -10 6 18.85 3.44
-5 10 6 22.2 2.52
-4 -10 6 4.06 3.1
-4 10 6 3.58 2.24
-3 -10 6 43.02 3.8
-3 10 6 42.6 4.06
-2 -10 6 32.61 2.49
-2 10 6 34.07 3.82
-1 -10 6 17.7 3.26
-1 10 6 12.14 2.2
0 -10 6 31 3.67
0 10 6 30.95 2.56
1 -10 6 68.8 4.57
1 10 6 67.59 3.15
2 -10 6 13.9 3.48
2 10 6 14.72 1.82
3 -10 6 51.86 4.28
3 10 6 48.89 2.45
4 -10 6 117.46 5.76
4 10 6 112.4 3.3
5 -10 6 5.7 2.45
5 10 6 5.24 1.72
6 -10 6 43.99 3.25
6 10 6 38.03 2.19
7 -10 6 31.38 3.26
7 10 6 31.13 2.18
8 -10 6 0.45 2.34
8 10 6 1.41 2.45
9 -10 6 11.28 2.99
9 10 6 9.39 2.26
-10 -11 6 4.15 3.47
-10 11 6 6.35 2.9
-9 -11 6 12.99 3.7
-9 11 6 14.05 2.4
-8 -11 6 1.7 5.57
-8 11 6 0.41 1.28
-7 -11 6 23.16 3.94
-7 11 6 20.51 2.32
-6 -11 6 8.33 3.49
-6 11 6 10.43 2.16
-5 -11 6 65.74 4.88
-5 11 6 70.39 3.52
-4 -11 6 38.36 4.1
-4 11 6 38.46 3.01
-3 -11 6 74.92 4.77
-3 11 6 76.92 3.53
-2 11 6 40.87 4.27
-1 -11 6 88.55 5.31
-1 11 6 89.1 3.68
0 -11 6 27.96 3.92
0 11 6 27.54 2.71
1 -11 6 13.73 3.38
1 11 6 13.95 2.56
2 -11 6 79.42 5.21
2 11 6 81.14 3.69
3 -11 6 8.51 3.43
3 11 6 5.94 2.63
4 -11 6 23.83 4.06
4 11 6 15.17 2.25
5 -11 6 24.54 4.48
5 11 6 19.77 2.04
6 11 6 0.39 0.88
7 -11 6 -0.15 1.21
7 11 6 0.58 14.05
-8 -12 6 0.93 2.61
-8 12 6 0.7 2.8
-7 -12 6 21.48 4.17
-7 12 6 27.19 3.09
-6 -12 6 2.8 3.3
-6 12 6 1.97 4.71
-5 -12 6 19.43 3.84
-5 12 6 19.23 2.35
-4 -12 6 0.53 10.49
-4 12 6 -0.06 0.25
-3 12 6 10.37 2.56
-2 12 6 4.01 2.29
-1 12 6 8.14 2.44
0 -12 6 45.17 4.71
0 12 6 38.9 3.15
1 -12 6 8.95 3.92
1 12 6 5.27 2.84
2 -12 6 11.88 4.03
2 12 6 8.42 2.56
3 -12 6 16.17 4.26
3 12 6 16.49 2.86
4 -12 6 4.85 3.58
4 12 6 2.75 3.4
5 -12 6 6.7 4.14
5 12 6 4.48 3.5
-5 13 6 0.89 3.04
-3 13 6 40.72 2.63
-2 13 6 1.29 2.17
-1 13 6 23.01 2.97
0 13 6 16.72 2.86
1 13 6 -0.63 1.89
2 -13 6 8.92 3.87
2 13 6 10.35 3.3
-17 0 7 -0.66 35.91
-16 0 7 31.46 2.6
-15 0 7 36.43 2.13
-14 0 7 13.75 1.63
-13 0 7 46.64 1.87
-12 0 7 68.12 1.96
-11 0 7 0.11 0.77
-10 0 7 139.2 2.12
-9 0 7 270.53 3.11
-8 0 7 -0.25 0.65
-7 0 7 146.58 2.32
-6 0 7 277.23 2.55
-5 0 7 295.45 2.45
-4 0 7 601.7 3.3
-3 0 7 732.54 4.37
-2 0 7 -0.19 0.26
-1 0 7 710.57 4.41
0 0 7 4.02 0.91
1 0 7 17.18 1.19
2 0 7 11.68 1.13
3 0 7 -0.01 0.6
4 0 7 55.15 2
5 0 7 4.34 1.05
6 0 7 45.55 1.42
7 0 7 36.46 1.48
8 0 7 5.14 1.23
9 0 7 10.96 1.35
10 0 7 0.76 1.54
11 0 7 2.51 1.88
12 0 7 9.94 2.18
13 0 7 2.87 3.18
-17 -1 7 8.11 3.67
-17 1 7 6.95 2.65
-16 -1 7 2.94 3.46
-16 1 7 4.25 1.89
-15 -1 7 9.83 2.57
-15 1 7 11.12 1.76
-14 -1 7 60.56 2.62
-14 1 7 60.29 2.53
-13 -1 7 66.47 2.59
-13 1 7 68.51 2.34
-12 -1 7 32.37 1.61
-12 1 7 35.79 1.89
-11 -1 7 182.82 2.33
-11 1 7 186.39 2.99
-10 -1 7 71.9 1.55
-10 1 7 71.16 1.77
-9 -1 7 109.75 1.67
-9 1 7 111.07 2.03
-8 -1 7 423.79 3.28
-8 1 7 426.28 3.1
-7 -1 7 141.67 1.81
-7 1 7 138.61 1.7
-6 -1 7 405.99 2.74
-6 1 7 412.81 2.9
-5 -1 7 510.8 3.22
-5 1 7 508.18 3.76
-4 -1 7 52.27 1
-4 1 7 47.79 1.26
-3 -1 7 110.66 1.75
-3 1 7 107.45 1.8
-2 -1 7 434.66 3.26
-2 1 7 430.83 2.78
-1 -1 7 592.45 4.55
-1 1 7 617.28 4.21
0 -1 7 39.93 2.11
0 1 7 39.51 1.02
1 -1 7 832.16 5.49
1 1 7 880.03 7.23
2 -1 7 210.05 2.8
2 1 7 214.71 2.86
3 -1 7 99.96 3.27
3 1 7 100.06 2.12
4 -1 7 313.31 3.99
4 1 7 316.31 5.29
5 -1 7 74.89 1.59
5 1 7 75.81 1.74
6 -1 7 22.35 1.12
6 1 7 21.48 1.18
7 -1 7 12.01 1.19
7 1 7 12.53 1.19
8 -1 7 0.04 2.25
8 1 7 -0.07 0.21
9 -1 7 22.88 1.35
9 1 7 24.76 1.51
10 -1 7 8.25 1.45
10 1 7 8.09 1.34
11 -1 7 6.87 1.81
11 1 7 6.6 1.41
12 -1 7 29.4 2.51
12 1 7 29.54 2.18
13 -1 7 5.34 2.72
13 1 7 2.05 2.44
-17 -2 7 4.72 3.47
-17 2 7 2.07 1.91
-16 -2 7 11.54 4.09
-16 2 7 15.49 1.8
-15 -2 7 53.71 4.59
-15 2 7 58.31 2.24
-14 -2 7 7.49 3.11
-14 2 7 7.18 1.63
-13 -2 7 59.36 3.05
-13 2 7 62.08 2.13
-12 -2 7 118.78 3.68
-12 2 7 118.77 2.44
-11 -2 7 36.56 1.62
-11 2 7 38.13 1.79
-10 -2 7 100.79 2.49
-10 2 7 98.12 1.9
-9 -2 7 239.2 2.79
-9 2 7 237.83 2.56
-8 -2 7 118.4 2
-8 2 7 118.79 2.03
-7 -2 7 90.76 1.94
-7 2 7 101.03 1.78
-6 -2 7 702.84 4.49
-6 2 7 713.66 4.54
-5 -2 7 57.24 1.27
-5 2 7 57.56 1.25
-4 -2 7 171.29 1.95
-4 2 7 177.19 1.79
-3 -2 7 688.88 3.72
-3 2 7 695.6 4.83
-2 -2 7 55.18 1.14
-2 2 7 54.03 0.94
-1 -2 7 146.02 2.46
-1 2 7 154.21 1.59
0 -2 7 224.49 2.92
0 2 7 205.94 2.32
1 -2 7 125.95 2.36
1 2 7 131.27 2.16
2 -2 7 17.55 1.8
2 2 7 13.85 0.93
3 -2 7 28.25 2.3
3 2 7 28.8 1.38
4 -2 7 1.12 0.66
4 2 7 2.25 1.14
5 -2 7 24.35 1.17
5 2 7 26.25 1.29
6 -2 7 41.47 1.31
6 2 7 41.25 1.55
7 -2 7 23.93 1.55
7 2 7 23.82 1.71
8 -2 7 10.49 1.51
8 2 7 10.79 1.47
9 -2 7 9.1 1.54
9 2 7 8.75 1.37
10 -2 7 10.31 1.72
10 2 7 10.43 1.49
11 -2 7 12.52 1.81
11 2 7 9.47 1.6
12 -2 7 4.14 2.04
12 2 7 4.67 1.97
13 -2 7 14.88 2.46
13 2 7 14.45 2.19
-16 -3 7 8.63 2.9
-16 3 7 9.75 1.86
-15 -3 7 5.56 3.44
-15 3 7 5.86 1.7
-14 -3 7 39.53 4.1
-14 3 7 37.44 1.95
-13 -3 7 15.4 3.12
-13 3 7 16.91 1.6
-12 -3 7 44.12 2.15
-12 3 7 38.51 2
-11 -3 7 182.05 3.37
-11 3 7 190.38 2.84
-10 -3 7 30.53 1.77
-10 3 7 33.39 1.63
-9 -3 7 83.15 2.25
-9 3 7 87.35 2.08
-8 -3 7 402.51 3.12
-8 3 7 397.38 4.1
-7 -3 7 5.95 0.89
-7 3 7 5.25 0.93
-6 -3 7 64.25 1.47
-6 3 7 62.04 1.47
-5 -3 7 284.62 2.88
-5 3 7 284.35 3.06
-4 -3 7 89.37 1.54
-4 3 7 85.56 1.58
-3 -3 7 82.83 1.45
-3 3 7 79.25 1.61
-2 -3 7 700.16 5.43
-2 3 7 693.7 6.38
-1 -3 7 78.36 2.01
-1 3 7 78.69 1.66
0 -3 7 155.33 2.19
0 3 7 148.04 2.11
1 -3 7 217.94 4
1 3 7 235.23 2.84
2 -3 7 223.33 4.36
2 3 7 226.72 2.11
3 -3 7 34.65 1.29
3 3 7 33.95 1.18
4 -3 7 105.24 1.78
4 3 7 103.47 1.85
5 -3 7 20.85 1.18
5 3 7 19.16 1.22
6 -3 7 0.13 0.19
6 3 7 0.99 1.25
7 -3 7 -0.11 0.84
7 3 7 0.73 1.13
8 -3 7 20.03 1.63
8 3 7 18.45 1.8
9 -3 7 12.64 1.66
9 3 7 14.62 1.45
10 -3 7 20.4 1.85
10 3 7 20.52 1.63
11 -3 7 0.54 0.32
11 3 7 0.33 0.4
12 -3 7 15.81 2.46
12 3 7 15.14 1.79
13 -3 7 3.43 3.23
13 3 7 3.83 2.02
-16 -4 7 15.72 5.22
-16 4 7 16.61 1.97
-15 -4 7 16.53 4.71
-15 4 7 17.15 1.73
-14 -4 7 4.31 2.62
-14 4 7 4.7 1.6
-13 -4 7 46.35 2.44
-13 4 7 53.23 2.36
-12 -4 7 98.22 2.92
-12 4 7 98.03 2.33
-11 -4 7 36.5 1.78
-11 4 7 36.53 1.82
-10 -4 7 116.9 2.44
-10 4 7 112.75 2.47
-9 -4 7 190.12 2.85
-9 4 7 184.68 2.89
-8 -4 7 41.33 1.53
-8 4 7 41.64 1.59
-7 -4 7 249.72 2.5
-7 4 7 246.46 4.02
-6 -4 7 516.65 4.07
-6 4 7 515.7 4.35
-5 -4 7 2.32 0.86
-5 4 7 2.06 0.72
-4 -4 7 503.37 3.76
-4 4 7 493.31 3.44
-3 -4 7 127.54 2.14
-3 4 7 128.36 2.31
-2 -4 7 19.01 1.41
-2 4 7 13.6 7.13
-1 -4 7 138.77 2.61
-1 4 7 145.49 1.8
0 -4 7 196.7 3.08
0 4 7 187.96 2.65
1 -4 7 30.17 1.53
1 4 7 30.58 1.47
2 -4 7 285.72 3.14
2 4 7 266.99 2.52
3 -4 7 42.79 1.42
3 4 7 42.32 1.3
4 -4 7 36.02 1.29
4 4 7 35.72 1.26
5 -4 7 48.99 1.5
5 4 7 46.53 1.86
6 -4 7 31.07 1.59
6 4 7 30.69 1.78
7 -4 7 3.13 1.35
7 4 7 4.48 1.57
8 -4 7 18.01 1.63
8 4 7 17.95 1.83
9 -4 7 23.91 1.81
9 4 7 23.66 1.81
10 -4 7 2.52 2.08
10 4 7 2.84 1.59
11 -4 7 0.38 10.2
11 4 7 1 4.07
12 -4 7 -0.5 2.4
12 4 7 -0.06 2.42
-16 -5 7 13.25 5.42
-16 5 7 12.09 1.98
-15 -5 7 -0.1 0.58
-15 5 7 3.51 1.65
-14 -5 7 25.77 4.49
-14 5 7 30.91 1.98
-13 -5 7 26.45 2.8
-13 5 7 22.94 1.76
-12 -5 7 9.59 2.36
-12 5 7 9.75 1.71
-11 -5 7 94.39 3.51
-11 5 7 103.92 2.64
-10 -5 7 91.21 2.64
-10 5 7 89.09 2.37
-9 -5 7 139 2.97
-9 5 7 136.79 2.26
-8 -5 7 156.52 3.09
-8 5 7 163.75 2.67
-7 -5 7 109.43 2.49
-7 5 7 107.16 2.3
-6 -5 7 142.57 3.29
-6 5 7 150.9 2.59
-5 -5 7 217.62 3.69
-5 5 7 222.55 2.76
-4 -5 7 250.71 3.78
-4 5 7 248.94 2.95
-3 -5 7 130.53 2.2
-3 5 7 128.81 2.49
-2 -5 7 534.85 6.66
-2 5 7 576.67 13.94
-1 -5 7 163.85 2.93
-1 5 7 170.53 2.73
0 -5 7 228.83 2.9
0 5 7 230.07 3.23
1 -5 7 311.07 2.54
1 5 7 312.08 3.87
2 -5 7 94.03 1.8
2 5 7 95.51 2.08
3 -5 7 3.77 1.05
3 5 7 3.38 1.09
4 -5 7 97.55 1.89
4 5 7 99.02 1.8
5 -5 7 54.77 1.78
5 5 7 53.49 1.74
6 -5 7 4.78 1.2
6 5 7 3.86 1.37
7 -5 7 27.07 1.71
7 5 7 28.21 1.9
8 -5 7 1.28 2.67
8 5 7 1.26 1.77
9 -5 7 16.07 2.1
9 5 7 17.26 1.95
10 -5 7 3.89 1.96
10 5 7 3.42 1.71
11 -5 7 7.27 2.21
11 5 7 5.13 2.14
12 -5 7 5.49 2.3
12 5 7 5.89 2.52
-15 -6 7 20.09 5.02
-15 6 7 17.84 1.84
-14 -6 7 2.57 2.77
-14 6 7 2.43 1.54
-13 -6 7 21.96 2.81
-13 6 7 20.89 1.66
-12 -6 7 50.61 3.19
-12 6 7 49.72 2.33
-11 -6 7 9.45 2.29
-11 6 7 7.98 1.58
-10 -6 7 34.01 2.61
-10 6 7 34.52 1.9
-9 -6 7 146.64 4.28
-9 6 7 142.42 2.71
-8 -6 7 26.99 2.22
-8 6 7 24.89 1.7
-7 -6 7 91.76 3.09
-7 6 7 97.42 2.69
-6 -6 7 118.39 3.26
-6 6 7 120.97 2.55
-5 -6 7 24.3 1.87
-5 6 7 23.8 1.38
-4 -6 7 32.87 2.05
-4 6 7 40.24 1.55
-3 -6 7 90.33 2.62
-3 6 7 96.99 3.8
-2 -6 7 2.46 1.02
-2 6 7 -0.46 2.84
-1 -6 7 6.06 1.19
-1 6 7 7.98 1.38
0 -6 7 11.62 1.09
0 6 7 12.45 1.48
1 -6 7 22.55 1.11
1 6 7 21.62 1.37
2 -6 7 8.81 1.17
2 6 7 9.91 1.33
3 -6 7 36.79 1.6
3 6 7 33.13 1.43
4 -6 7 63.76 2.83
4 6 7 60.38 1.77
5 -6 7 4.76 1.95
5 6 7 6.04 1.29
6 -6 7 17.45 1.83
6 6 7 16.82 1.72
7 -6 7 59.42 2.54
7 6 7 55.44 2.82
8 -6 7 24 2.2
8 6 7 21.44 2.01
9 -6 7 0.98 6.32
9 6 7 0.41 1.47
10 -6 7 2.06 1.74
10 6 7 1.19 2.31
11 -6 7 1.5 2.88
11 6 7 -0.43 2.48
12 -6 7 4.24 1.84
12 6 7 1.43 2.18
-14 -7 7 15.71 3.26
-14 7 7 17.83 1.86
-13 -7 7 4.67 2.84
-13 7 7 5.49 1.76
-12 -7 7 3.61 2.43
-12 7 7 5.68 1.79
-11 -7 7 83.49 3.75
-11 7 7 82.07 2.67
-10 -7 7 5.15 2.25
-10 7 7 3.89 1.59
-9 -7 7 18.17 2.35
-9 7 7 14.59 1.55
-8 -7 7 105.24 3.62
-8 7 7 103.44 2.91
-7 -7 7 13.61 2.01
-7 7 7 13.1 1.6
-6 -7 7 1.51 2.11
-6 7 7 1.62 1.57
-5 -7 7 380.51 6.85
-5 7 7 386.61 4.78
-4 -7 7 24.63 1.65
-4 7 7 21 1.42
-3 -7 7 127.9 3.25
-3 7 7 134.02 4.78
-2 -7 7 174.66 3.62
-1 -7 7 30.32 1.97
-1 7 7 31.58 1.91
0 -7 7 43.43 1.48
0 7 7 48 2.23
1 -7 7 128.95 2.87
1 7 7 126.35 2.56
2 -7 7 31.48 2.2
2 7 7 31.6 1.76
3 -7 7 39.48 2.49
3 7 7 39.79 1.9
4 -7 7 4.81 1.66
4 7 7 3.26 1.48
5 -7 7 33.36 2.12
5 7 7 26.02 1.94
6 -7 7 0.22 1.85
6 7 7 -0.28 1.2
7 -7 7 26.42 2.26
7 7 7 28.3 2.7
8 -7 7 0.11 0.3
8 7 7 0.88 1.4
9 -7 7 19.26 1.95
9 7 7 21.29 2.32
10 -7 7 0.99 2.29
10 7 7 -0.09 4.09
11 -7 7 3.27 2.45
11 7 7 6.24 2.5
-14 -8 7 4 4.16
-14 8 7 5.62 2.17
-13 -8 7 21.1 3.15
-13 8 7 17.74 2
-12 -8 7 38.85 3.28
-12 8 7 40.73 2.16
-11 -8 7 6.54 2.62
-11 8 7 5.82 1.63
-10 -8 7 51.78 3.28
-10 8 7 44.9 2.61
-9 -8 7 132.59 4.32
-9 8 7 131.83 3.35
-8 -8 7 5.72 1.96
-8 8 7 3.87 1.65
-7 -8 7 142.68 4.19
-7 8 7 136.21 3.13
-6 -8 7 106.33 3.65
-6 8 7 108.19 2.73
-5 -8 7 0.79 1.47
-5 8 7 2.33 1.76
-4 -8 7 33.16 2.33
-4 8 7 34.72 2.25
-3 -8 7 204.41 4.24
-3 8 7 210.03 6.18
-2 -8 7 6.32 1.78
-2 8 7 8.58 2.68
-1 -8 7 128.36 3.39
-1 8 7 131.65 3.41
0 -8 7 99.62 3.03
0 8 7 104.8 3.17
1 -8 7 10.55 1.93
1 8 7 16.51 1.92
2 -8 7 18.14 2.22
2 8 7 17.19 1.7
3 -8 7 19.96 2.34
3 8 7 23.97 1.83
4 -8 7 2.36 2.3
4 8 7 0.73 1.18
5 -8 7 54.92 3.09
5 8 7 53.93 2.47
6 -8 7 20.66 2.64
6 8 7 20.04 2.08
7 -8 7 4.14 2.37
7 8 7 3.61 2.31
8 -8 7 0.15 2.25
8 8 7 0.28 1.59
9 -8 7 3.14 2.6
9 8 7 2.74 2.43
10 -8 7 0.22 7.62
10 8 7 1.55 4.29
-13 -9 7 5.21 4.43
-13 9 7 3.33 2.89
-12 -9 7 11.37 3
-12 9 7 11.2 2.11
-11 -9 7 17 2.8
-11 9 7 16.64 1.87
-10 -9 7 10.09 2.58
-10 9 7 6.39 1.83
-9 -9 7 15.49 2.71
-9 9 7 16.88 1.83
-8 -9 7 26.57 2.76
-8 9 7 27.35 2.19
-7 -9 7 44.3 3.03
-7 9 7 45.59 2.34
-6 -9 7 38.06 2.86
-6 9 7 38.89 2.16
-5 -9 7 97.34 5.04
-5 9 7 104.36 3.51
-4 9 7 36.25 2.49
-3 -9 7 58.96 2.87
-2 -9 7 65.27 2.89
-2 9 7 69.39 4.43
-1 -9 7 13.7 1.99
-1 9 7 14.47 2
0 -9 7 6.11 2.9
0 9 7 2.27 1.7
1 -9 7 75.18 4.59
1 9 7 86.79 3.24
2 -9 7 40.34 3.88
2 9 7 36.51 2.53
3 -9 7 12.05 2.22
3 9 7 13.67 2.23
4 -9 7 30.26 2.71
4 9 7 31.37 1.9
5 -9 7 2.9 2.43
5 9 7 1.9 1.43
6 -9 7 7.57 2.35
6 9 7 7.05 1.8
7 -9 7 2.89 2.44
7 9 7 0.09 0.52
8 -9 7 19.61 3.29
8 9 7 15.77 2.45
9 -9 7 1.59 2.06
9 9 7 0.59 3.63
-11 -10 7 5.91 2.96
-11 10 7 3.21 2.36
-10 -10 7 13 2.84
-10 10 7 10.69 2.43
-9 -10 7 37.27 3.21
-9 10 7 38.31 3.23
-8 -10 7 1.41 1.76
-8 10 7 -0.32 1.5
-7 -10 7 9.4 3.22
-7 10 7 9.96 1.98
-6 -10 7 13.24 3.35
-6 10 7 13.94 2.41
-5 -10 7 19.61 3.59
-5 10 7 17.01 2.5
-4 -10 7 15.9 3.26
-4 10 7 15.17 2.39
-3 -10 7 19.42 2.36
-3 10 7 14.24 3.19
-2 -10 7 9.84 2.12
-2 10 7 11.92 2.23
-1 -10 7 35.86 3.97
-1 10 7 36.33 2.66
0 -10 7 1.17 3.28
0 10 7 2.24 2.32
1 -10 7 18.57 3.57
1 10 7 17.81 2.39
2 -10 7 6.06 3.25
2 10 7 3.73 1.71
3 -10 7 -0.33 16.71
3 10 7 -0.06 1.2
4 -10 7 30.07 2.79
4 10 7 28.38 2.27
5 -10 7 0.55 1.88
5 10 7 -0.12 0.97
6 -10 7 0.22 0.88
6 10 7 0 0.43
7 -10 7 8.21 2.79
7 10 7 7.16 2.6
8 -10 7 4.52 2.89
8 10 7 3.85 2.71
-10 -11 7 4.7 3.96
-10 11 7 3.68 2.73
-9 -11 7 0.51 1.64
-9 11 7 0.28 3.43
-8 -11 7 46.7 4.7
-8 11 7 44.91 4.78
-7 -11 7 14.46 3.79
-7 11 7 12.25 2.84
-6 -11 7 21.87 4.02
-6 11 7 20.19 2.68
-5 -11 7 55.03 4.77
-5 11 7 54.1 3.28
-4 -11 7 3.23 3.37
-4 11 7 4.49 2.46
-3 -11 7 14.04 3.59
-3 11 7 13.8 2.54
-2 -11 7 50.23 4.52
-2 11 7 50.86 3.09
-1 -11 7 18.32 3.61
-1 11 7 17.49 2.59
0 -11 7 20.05 3.66
0 11 7 22.24 2.68
1 -11 7 37.54 4.15
1 11 7 33.73 2.92
2 -11 7 3.04 3.82
2 11 7 3.52 2.54
3 -11 7 7.65 3.66
3 11 7 3.84 2.24
4 -11 7 21.39 4.18
4 11 7 17.79 2.32
5 -11 7 6.42 4.29
5 11 7 4.76 2.51
6 -11 7 8.75 3.02
6 11 7 7.6 3.73
-8 12 7 3.01 4.94
-7 -12 7 2.95 4.39
-7 12 7 3.85 3.91
-6 -12 7 28.73 4.16
-6 12 7 34.25 3.09
-5 -12 7 2.57 4.48
-5 12 7 0.54 2.2
-4 -12 7 11.55 4.19
-4 12 7 14.57 2.85
-3 12 7 25.97 2.29
-2 12 7 1.54 2.39
-1 -12 7 0.77 1.68
-1 12 7 1.94 5.05
0 -12 7 22.52 4.52
0 12 7 16.94 2.8
1 -12 7 7.91 3.98
1 12 7 5.16 2.87
2 -12 7 5.52 3.91
2 12 7 3.47 3.15
3 -12 7 7.76 4.1
3 12 7 5.74 3.98
4 -12 7 1.9 3.31
-4 13 7 2.54 3.84
-3 13 7 4.68 3.73
-2 13 7 25.25 3.02
-1 13 7 4.28 3.49
0 13 7 11.18 3.15
-17 0 8 1.21 2.61
-16 0 8 4.22 2.14
-15 0 8 6.74 2.19
-14 0 8 26.48 1.8
-13 0 8 0.02 0.05
-12 0 8 -0.22 1.25
-11 0 8 5.59 1.38
-10 0 8 0.38 0.73
-9 0 8 8.6 1.01
-8 0 8 7.92 0.94
-7 0 8 12.01 1.02
-6 0 8 4.4 0.84
-5 0 8 67.07 1.4
-4 0 8 176.5 2.33
-3 0 8 3.75 0.78
-2 0 8 460.61 3.21
-1 0 8 197.43 2.8
0 0 8 64.87 2.68
1 0 8 161.01 2.58
2 0 8 411.99 4.33
3 0 8 0.84 0.72
4 0 8 363.08 2.96
5 0 8 183.35 2.33
6 0 8 2.94 1.06
7 0 8 185.55 2.92
8 0 8 154.97 2.64
9 0 8 0.21 1.12
10 0 8 140.19 2.53
11 0 8 1.16 2.26
12 0 8 8.97 2.39
13 0 8 4.15 2.48
-17 -1 8 1.61 4.3
-17 1 8 2.42 2.42
-16 -1 8 1.3 4.8
-16 1 8 1.33 1.36
-15 -1 8 4.26 2.76
-15 1 8 4.02 1.89
-14 -1 8 3.5 1.81
-14 1 8 3.21 1.48
-13 -1 8 1.18 1.77
-13 1 8 -0.17 1.04
-12 -1 8 11.52 1.78
-12 1 8 9.86 1.52
-11 -1 8 0 0.2
-11 1 8 1.06 1.06
-10 -1 8 12.28 1.04
-10 1 8 13.75 1.55
-9 -1 8 6.62 0.93
-9 1 8 8.07 1.61
-8 -1 8 2.03 0.71
-8 1 8 1.64 1.02
-7 -1 8 55.25 1.47
-7 1 8 55.6 1.63
-6 -1 8 45.91 1.33
-6 1 8 44.8 1.54
-5 -1 8 50.76 1.11
-5 1 8 50.59 1.47
-4 -1 8 25.38 0.86
-4 1 8 27.52 1.1
-3 -1 8 115.53 1.94
-3 1 8 117.98 1.74
-2 -1 8 372.59 4.25
-2 1 8 383.6 3.03
-1 -1 8 157.07 2.71
-1 1 8 157.41 1.93
0 -1 8 419.86 5.93
0 1 8 414.55 3.72
1 -1 8 257.3 3.72
1 1 8 271 4.42
2 -1 8 71.19 2.1
2 1 8 74.63 2.03
3 -1 8 190.7 2.8
3 1 8 189.88 2.26
4 -1 8 149.02 2.2
4 1 8 149.17 2.82
5 -1 8 19.94 1.09
5 1 8 19.4 1.16
6 -1 8 141.51 2.19
6 1 8 147.15 2.24
7 -1 8 29.52 1.49
7 1 8 29.96 1.65
8 -1 8 6.56 1.34
8 1 8 7.21 1.51
9 -1 8 20.21 1.57
9 1 8 19.31 2.01
10 -1 8 36.44 2.08
10 1 8 39.64 2.1
11 -1 8 2.93 1.76
11 1 8 2.45 1.9
12 -1 8 34.21 2.68
12 1 8 38.11 2.4
13 -1 8 0.14 1.12
13 1 8 1.1 2.02
-16 -2 8 9.23 3.81
-16 2 8 9.46 1.81
-15 -2 8 6.83 3.56
-15 2 8 9.61 1.74
-14 -2 8 2.97 2.04
-14 2 8 0.94 1.59
-13 -2 8 22.75 2.51
-13 2 8 23.09 1.88
-12 -2 8 3.04 1.4
-12 2 8 4.15 1.27
-11 -2 8 21.39 1.77
-11 2 8 20.94 1.64
-10 -2 8 18.58 1.62
-10 2 8 18.07 1.45
-9 -2 8 19.32 1.29
-9 2 8 19.19 1.3
-8 -2 8 54.22 1.59
-8 2 8 54.52 1.57
-7 -2 8 9.05 0.9
-7 2 8 10.08 1.04
-6 -2 8 3.12 0.78
-6 2 8 2.86 0.88
-5 -2 8 27.12 1.08
-5 2 8 30.57 1.24
-4 -2 8 8.04 0.81
-4 2 8 5.86 0.72
-3 -2 8 121.4 1.67
-3 2 8 119.82 1.88
-2 -2 8 63.33 1.62
-2 2 8 56.4 1.04
-1 -2 8 164.81 2.85
-1 2 8 151 2.09
0 -2 8 74.77 2.08
0 2 8 73.31 1.43
1 -2 8 160.63 2.79
1 2 8 158.34 2.55
2 -2 8 51.36 2.77
2 2 8 50.08 1.75
3 -2 8 0.11 0.71
3 2 8 0.88 1.1
4 -2 8 139.33 2.05
4 2 8 141.25 2.57
5 -2 8 142.8 2.05
5 2 8 143.78 2.46
6 -2 8 1.58 1
6 2 8 2.53 1.05
7 -2 8 96.4 2.37
7 2 8 100.49 2.76
8 -2 8 123.84 2.75
8 2 8 128.54 3.2
9 -2 8 7.85 1.57
9 2 8 7.45 1.88
10 -2 8 30.63 2.08
10 2 8 29.64 2
11 -2 8 60.1 2.52
11 2 8 57.16 2.45
12 -2 8 2.14 2.23
12 2 8 1.9 1.42
-16 -3 8 4.94 3.67
-16 3 8 6.73 2.16
-15 -3 8 7.37 2.81
-15 3 8 8.93 1.91
-14 -3 8 6.71 3.15
-14 3 8 6.78 1.7
-13 -3 8 15.76 2.43
-13 3 8 17.22 1.62
-12 -3 8 1.44 1.68
-12 3 8 0.67 1.2
-11 -3 8 0.77 1.33
-11 3 8 0.7 1.19
-10 -3 8 1.27 1.27
-10 3 8 0.09 1.52
-9 -3 8 45.42 1.69
-9 3 8 45.8 1.7
-8 -3 8 26.05 1.21
-8 3 8 26.54 1.39
-7 -3 8 12.63 0.98
-7 3 8 11.51 1.1
-6 -3 8 109.2 1.9
-6 3 8 103.62 1.83
-5 -3 8 143.05 2.03
-5 3 8 142.47 2.13
-4 -3 8 164.47 2.25
-4 3 8 162.47 2.15
-3 -3 8 333.1 3
-3 3 8 338.82 3.53
-2 -3 8 151.69 2.85
-2 3 8 162.87 1.96
-1 -3 8 65.9 2.04
-1 3 8 64.86 1.37
0 -3 8 326.92 3.33
0 3 8 330.78 4.87
1 -3 8 283.5 5.46
1 3 8 283.02 2.7
2 -3 8 10.31 1.25
2 3 8 7.29 0.9
3 -3 8 442.71 3.8
3 3 8 442.94 4.08
4 -3 8 45.05 1.42
4 3 8 39.71 1.66
5 -3 8 21.23 1.28
5 3 8 21.81 1.34
6 -3 8 193.11 2.98
6 3 8 189.11 2.81
7 -3 8 15.7 1.58
7 3 8 14.18 1.73
8 -3 8 13.67 1.68
8 3 8 13.05 1.84
9 -3 8 84.24 2.56
9 3 8 81.84 2.51
10 -3 8 0.03 0.12
10 3 8 0.3 2.15
11 -3 8 9.7 2.32
11 3 8 10.15 1.92
12 -3 8 1.91 1.87
12 3 8 0.11 0.62
-16 -4 8 2.39 5.7
-16 4 8 1.17 1.6
-15 -4 8 5.15 4.57
-15 4 8 5.74 1.64
-14 -4 8 0.33 1.2
-14 4 8 0.48 1.34
-13 -4 8 10.83 1.98
-13 4 8 9.41 1.75
-12 -4 8 12.7 1.62
-12 4 8 13.64 1.67
-11 -4 8 13.81 1.53
-11 4 8 14.65 1.58
-10 -4 8 9.41 1.44
-10 4 8 10.31 1.46
-9 -4 8 1.38 1.17
-9 4 8 1.94 1.18
-8 -4 8 1.79 1.24
-8 4 8 2.49 1.06
-7 -4 8 6.23 0.98
-7 4 8 6.82 1.11
-6 -4 8 9.28 0.97
-6 4 8 9.79 1.06
-5 -4 8 189.74 2.49
-5 4 8 196.74 2.67
-4 -4 8 64.88 1.77
-4 4 8 63.3 1.87
-3 -4 8 99.1 2.05
-3 4 8 101.64 3.03
-2 -4 8 123.49 2.82
-2 4 8 120.32 2.33
-1 -4 8 168.21 3.08
-1 4 8 173.66 3.87
0 -4 8 8.9 1.31
0 4 8 8.09 1.13
1 -4 8 233.22 3.14
1 4 8 235.44 2.84
2 -4 8 184.85 2.92
2 4 8 191.18 2.31
3 -4 8 53.63 1.45
3 4 8 53.54 1.35
4 -4 8 186.4 2.54
4 4 8 179.32 3.18
5 -4 8 142.18 2.29
5 4 8 145.74 3.1
6 -4 8 5.51 1.36
6 4 8 5.22 1.49
7 -4 8 100.13 2.59
7 4 8 103.96 2.86
8 -4 8 64.94 2.28
8 4 8 60.79 2.52
9 -4 8 35.02 2.07
9 4 8 33.96 1.98
10 -4 8 49.19 2.34
10 4 8 48.69 2.28
11 -4 8 64.19 3.15
11 4 8 63.54 2.58
12 -4 8 1.37 1.22
12 4 8 1.07 2.79
-15 -5 8 25.56 5.06
-15 5 8 27.23 1.89
-14 -5 8 1.25 2.14
-14 5 8 0.7 2.09
-13 -5 8 7.02 2.61
-13 5 8 5.84 2.04
-12 -5 8 4.44 2.35
-12 5 8 4.76 1.64
-11 -5 8 13.72 1.89
-11 5 8 17.33 1.71
-10 -5 8 36.85 2.09
-10 5 8 35.95 1.83
-9 -5 8 0.83 1.72
-9 5 8 1.5 1.49
-8 -5 8 20.27 1.66
-8 5 8 19.75 1.49
-7 -5 8 76.15 2.25
-7 5 8 74.01 2.19
-6 -5 8 28.3 1.97
-6 5 8 28.63 1.62
-5 -5 8 25.17 1.84
-5 5 8 25.8 1.54
-4 -5 8 28.42 1.85
-4 5 8 28.12 1.74
-3 -5 8 36.81 1.79
-3 5 8 35.39 2.26
-2 -5 8 67.26 2.2
-2 5 8 72.97 3.18
-1 -5 8 24.39 1.39
-1 5 8 25.04 2.34
0 -5 8 104.83 1.79
0 5 8 102.04 2.04
1 -5 8 170.87 2.4
1 5 8 179.54 2.7
2 -5 8 8.97 1.12
2 5 8 7.87 1.21
3 -5 8 84 1.82
3 5 8 89.28 2.32
4 -5 8 186.96 2.85
4 5 8 187.9 2.45
5 -5 8 14.9 1.46
5 5 8 14.51 1.68
6 -5 8 79.42 2.25
6 5 8 77.28 2.48
7 -5 8 83.46 2.38
7 5 8 80.27 2.63
8 -5 8 46.2 2.09
8 5 8 40.13 2.26
9 -5 8 14.77 1.82
9 5 8 15.53 1.76
10 -5 8 1.49 2.07
10 5 8 1.73 2.17
11 -5 8 0.61 1.05
11 5 8 1.55 2.36
-15 -6 8 5.63 4.63
-15 6 8 5.82 1.79
-14 -6 8 2.11 3.51
-14 6 8 3.28 1.88
-13 -6 8 2.98 2.68
-13 6 8 2.1 1.83
-12 -6 8 15.64 2.63
-12 6 8 15.12 1.84
-11 -6 8 6.88 2.29
-11 6 8 7.98 1.62
-10 -6 8 0.07 0.78
-10 6 8 0.38 0.62
-9 -6 8 38.72 2.65
-9 6 8 36.72 1.86
-8 -6 8 8.12 1.89
-8 6 8 4.79 1.6
-7 -6 8 3.54 1.76
-7 6 8 3.29 1.57
-6 -6 8 61.55 2.66
-6 6 8 65.15 2.55
-5 -6 8 6.43 1.77
-5 6 8 4.44 1.56
-4 -6 8 46.52 1.84
-4 6 8 55.18 3.4
-3 -6 8 6.6 1.21
-2 -6 8 129.53 2.09
-2 6 8 139.04 4.55
-1 -6 8 76.43 1.99
-1 6 8 76.26 1.95
0 -6 8 55.19 1.59
0 6 8 55.09 1.79
1 -6 8 148.24 2.14
1 6 8 152.26 2.71
2 -6 8 101.66 2.19
2 6 8 94.76 2.35
3 -6 8 34.24 1.65
3 6 8 33.07 1.53
4 -6 8 100.55 3.45
4 6 8 98.71 2.22
5 -6 8 35.11 2.11
5 6 8 35 1.97
6 -6 8 6.49 1.79
6 6 8 4.75 2.01
7 -6 8 42.72 2.44
7 6 8 41.91 2.74
8 -6 8 42.41 2.5
8 6 8 45.24 2.44
9 -6 8 0.91 1.67
9 6 8 2.32 3.76
10 -6 8 46.41 2.97
10 6 8 49.1 2.9
11 -6 8 32.17 2.82
11 6 8 36.42 2.78
-14 -7 8 3.7 3.26
-14 7 8 2.83 1.72
-13 -7 8 3.68 3.23
-13 7 8 3.2 2.07
-12 -7 8 0.18 1.4
-12 7 8 1.24 2.55
-11 -7 8 2.67 2.28
-11 7 8 1.55 1.23
-10 -7 8 19.21 2.52
-10 7 8 17.5 1.9
-9 -7 8 16.34 2.4
-9 7 8 14.47 1.89
-8 -7 8 8.11 2.08
-8 7 8 6.15 1.82
-7 -7 8 6.11 2
-7 7 8 3.54 1.94
-6 -7 8 62.16 2.89
-6 7 8 60.87 2.66
-5 -7 8 18.88 1.68
-5 7 8 21.36 2.93
-4 -7 8 110.11 3.2
-4 7 8 117.45 4.81
-3 -7 8 96.32 3.03
-2 -7 8 77.58 2.75
-2 7 8 81.14 2.59
-1 -7 8 4.24 1.55
-1 7 8 4.31 1.57
0 -7 8 59.97 1.81
0 7 8 60.8 1.99
1 -7 8 71.63 2.23
1 7 8 70.99 2.17
2 -7 8 56.32 2.15
2 7 8 61.21 2.17
3 -7 8 222.6 4.61
3 7 8 235.55 3.73
4 -7 8 52.95 2.36
4 7 8 48.69 2.23
5 -7 8 22.29 2.05
5 7 8 23.47 2.39
6 -7 8 95.23 3.09
6 7 8 92.61 5.12
7 -7 8 10.98 2.06
7 7 8 8.64 2.37
8 -7 8 18.35 2.23
8 7 8 19.83 2.79
9 -7 8 26.65 2.26
9 7 8 26.72 3.14
10 -7 8 5.83 2.42
10 7 8 2.64 2.31
-13 -8 8 1.39 6.34
-13 8 8 0.17 1.42
-12 -8 8 8.43 3.07
-12 8 8 7.83 1.77
-11 -8 8 4.03 2.54
-11 8 8 2.68 2.05
-10 -8 8 15.34 2.62
-10 8 8 12.95 1.89
-9 -8 8 19.26 2.58
-9 8 8 13.9 2.09
-8 -8 8 14.03 2.42
-8 8 8 16.1 2.36
-7 -8 8 20.69 2.43
-7 8 8 16.87 2.32
-6 -8 8 13.51 2.27
-6 8 8 13.38 3.11
-5 -8 8 3.58 2.83
-5 8 8 5.39 2.7
-4 -8 8 15.74 2.11
-4 8 8 15.17 1.94
-3 -8 8 -0.44 1.61
-2 -8 8 62.56 2.76
-2 8 8 70.36 2.73
-1 -8 8 72.36 2.85
-1 8 8 82.56 2.92
0 -8 8 124.32 5.2
0 8 8 129.65 3.48
1 -8 8 143.97 3.76
1 8 8 148.39 3.75
2 -8 8 26.9 2.36
2 8 8 27.57 1.87
3 -8 8 12.06 2.24
3 8 8 12.36 1.76
4 -8 8 8.77 2.2
4 8 8 7.14 1.74
5 -8 8 60.87 3.3
5 8 8 60.18 2.61
6 -8 8 21.06 2.68
6 8 8 20.26 2.14
7 -8 8 47.2 3.38
7 8 8 47.35 3.32
8 -8 8 58.44 3.85
8 8 8 55.83 2.94
9 -8 8 2.2 2.63
9 8 8 2.7 3.03
-12 -9 8 4.84 3.07
-12 9 8 4.73 2.18
-11 -9 8 0.07 0.14
-11 9 8 1.25 5.69
-10 -9 8 15.75 2.8
-10 9 8 16.51 1.81
-9 -9 8 7.52 2.54
-9 9 8 6.16 2.13
-8 -9 8 49.48 3.26
-8 9 8 51.26 3.13
-7 -9 8 37.6 3.04
-7 9 8 40.48 4.14
-6 -9 8 29.35 3.65
-6 9 8 28.27 3.77
-5 -9 8 46.36 4.09
-5 9 8 53.32 4.23
-4 -9 8 31.73 2.56
-4 9 8 30.07 3.24
-3 -9 8 53.73 2.88
-3 9 8 60.7 4.34
-2 -9 8 97.27 3.42
-2 9 8 97.71 3.31
-1 -9 8 10.72 3.35
-1 9 8 9.13 1.95
0 -9 8 29.94 3.62
0 9 8 30.17 2.39
1 -9 8 56.69 4.3
1 9 8 62.35 2.95
2 -9 8 1.26 2.1
2 9 8 0.69 0.98
3 -9 8 82.73 3.46
3 9 8 88.29 2.84
4 -9 8 46.6 3.01
4 9 8 49.32 2.17
5 -9 8 40.38 3.06
5 9 8 36.79 2.11
6 -9 8 13.05 2.71
6 9 8 13.42 2.1
7 -9 8 3.85 2.86
7 9 8 5.36 2.19
8 -9 8 0.15 3.53
8 9 8 0.06 1.27
-11 -10 8 3.48 4.17
-11 10 8 3.02 1.83
-10 -10 8 2.47 2.23
-10 10 8 1.64 2.68
-9 -10 8 11.22 2.66
-9 10 8 10.14 2.39
-8 -10 8 -0.37 0.99
-7 10 8 2.23 4.97
-6 -10 8 11.51 3.41
-6 10 8 12.76 3.51
-5 -10 8 10.75 3.31
-4 -10 8 4.08 3.35
-4 10 8 6.69 2.12
-3 -10 8 12.56 2.32
-3 10 8 13.25 3.46
-2 -10 8 26.03 2.53
-2 10 8 27.92 3.76
-1 -10 8 13.9 3.33
-1 10 8 13.99 2.41
0 -10 8 15.36 3.54
0 10 8 13.75 2.35
1 -10 8 43.42 4.23
1 10 8 47.27 3.01
2 -10 8 30 3.96
2 10 8 29.66 2.75
3 -10 8 27.24 3.84
3 10 8 19.88 2.64
4 -10 8 27.97 2.84
4 10 8 25.9 2.01
5 -10 8 21.74 3.08
5 10 8 18.93 2.3
6 -10 8 0.27 1.47
6 10 8 0.23 1
7 -10 8 33.44 3.45
7 10 8 29.7 2.56
-9 11 8 0.37 3.22
-8 -11 8 3.25 3.97
-8 11 8 3.16 3.51
-7 -11 8 20.86 4.08
-7 11 8 27.67 4.27
-6 -11 8 7.82 3.38
-5 -11 8 15.28 3.84
-5 11 8 18.66 3.79
-4 -11 8 7.33 3.81
-4 11 8 9.45 3.65
-3 -11 8 13.61 3.9
-3 11 8 13.73 2.57
-2 -11 8 11.81 3.58
-2 11 8 14.7 3.47
-1 -11 8 19.75 3.66
-1 11 8 18.65 3.78
0 -11 8 33.65 4.27
0 11 8 41.77 3.06
1 -11 8 15.62 3.74
1 11 8 15.05 2.52
2 -11 8 6.2 4.05
2 11 8 3.31 3.48
3 -11 8 5.14 3.89
3 11 8 7.31 2.83
4 -11 8 4.77 3.94
4 11 8 4.27 2.89
5 -11 8 11.63 4.1
5 11 8 5.11 3.2
-7 -12 8 9.44 4.57
-7 12 8 11.61 3.96
-6 -12 8 5.11 4.56
-6 12 8 8.4 3.98
-5 -12 8 3.08 4.93
-5 12 8 2.28 4.2
-4 12 8 2.53 3.48
-3 12 8 18.81 3.98
-2 12 8 12.17 2.83
-1 -12 8 14.14 4.14
-1 12 8 10.94 3.72
0 -12 8 5.01 3.35
0 12 8 5.26 3.57
1 -12 8 6.83 3.9
1 12 8 3.72 3.83
2 -12 8 28.07 4.62
2 12 8 27.52 4.51
3 -12 8 18.01 4.24
3 12 8 12.99 4.02
-16 0 9 6.42 3.42
-15 0 9 9.06 2.69
-14 0 9 55.3 2.81
-13 0 9 21.34 1.95
-12 0 9 23.47 1.82
-11 0 9 145.61 2.55
-10 0 9 102.48 1.85
-9 0 9 56.91 1.59
-8 0 9 386.42 3.26
-7 0 9 277.28 2.67
-6 0 9 404.2 3.05
-5 0 9 495.24 4.19
-4 0 9 33.55 1.38
-3 0 9 397.76 3.5
-2 0 9 26.09 1.57
-1 0 9 56.98 1.9
0 0 9 27.22 2.23
1 0 9 126.51 2.69
2 0 9 19.07 1.12
3 0 9 61.2 1.44
4 0 9 35.34 1.33
5 0 9 3.58 1.09
6 0 9 8.07 1.21
7 0 9 17.62 1.42
8 0 9 20.76 1.56
9 0 9 18.77 1.64
10 0 9 14.31 1.6
11 0 9 5.58 1.93
12 0 9 1.56 2.95
-16 -1 9 11.7 3.62
-16 1 9 8.6 2.84
-15 -1 9 26.33 3.03
-15 1 9 31.5 2.23
-14 -1 9 -0.41 2.75
-14 1 9 -0.11 0.35
-13 -1 9 44.91 3.05
-13 1 9 44.37 2.25
-12 -1 9 47.31 2.41
-12 1 9 47.43 2.1
-11 -1 9 29.59 1.68
-11 1 9 27.01 1.75
-10 -1 9 159.79 2.41
-10 1 9 156.52 2.82
-9 -1 9 48.02 1.5
-9 1 9 52.94 1.81
-8 -1 9 74.12 1.64
-8 1 9 71.6 2.18
-7 -1 9 171.12 1.92
-7 1 9 172.21 2.88
-6 -1 9 92.37 1.56
-6 1 9 84.42 2.02
-5 -1 9 26.1 1.18
-5 1 9 25.37 1.29
-4 -1 9 299.98 3.26
-4 1 9 300.88 2.97
-3 -1 9 318.67 4.13
-3 1 9 326.09 3.07
-2 -1 9 23.31 1.56
-2 1 9 22.01 1.08
-1 -1 9 834.62 9.27
-1 1 9 825.6 5.77
0 -1 9 134.99 3.89
0 1 9 131.66 3.72
1 -1 9 114.87 2.64
1 1 9 114.92 1.87
2 -1 9 239.8 2.71
2 1 9 237.91 2.78
3 -1 9 26.35 1.3
3 1 9 25.69 1.24
4 -1 9 26.01 1.16
4 1 9 28.1 1.63
5 -1 9 70.37 1.65
5 1 9 71.75 1.74
6 -1 9 107.12 1.96
6 1 9 106.63 2.14
7 -1 9 7 1.3
7 1 9 6.55 1.47
8 -1 9 1.51 2.48
8 1 9 0.14 0.78
9 -1 9 22.63 1.67
9 1 9 23.46 2.21
10 -1 9 13.74 1.82
10 1 9 12.45 1.61
11 -1 9 17.46 2.11
11 1 9 18.47 1.92
12 -1 9 9.15 2.24
12 1 9 11.75 2.46
-16 -2 9 5.14 3.18
-16 2 9 3.32 2.27
-15 -2 9 15.94 2.94
-15 2 9 13.86 1.83
-14 -2 9 52.01 3.33
-14 2 9 46.41 2.41
-13 -2 9 4.1 3.28
-13 2 9 5.57 1.97
-12 -2 9 45.93 2.28
-12 2 9 51.89 2.5
-11 -2 9 111.34 2.9
-11 2 9 122.61 3.44
-10 -2 9 26.8 1.55
-10 2 9 21.87 1.83
-9 -2 9 99.97 1.9
-9 2 9 103.83 2.16
-8 -2 9 536.92 4.13
-8 2 9 528.85 4.3
-7 -2 9 14.92 1.03
-7 2 9 15.99 1.35
-6 -2 9 166.47 2.02
-6 2 9 162.51 3.2
-5 -2 9 594.52 5.01
-5 2 9 595.75 4.49
-4 -2 9 21.92 1.06
-4 2 9 19.74 1.14
-3 -2 9 120.35 2.27
-3 2 9 120.39 1.58
-2 -2 9 463.96 4.95
-2 2 9 452.99 3.33
-1 -2 9 7.93 2
-1 2 9 7.55 0.89
0 -2 9 8.66 1.38
0 2 9 7.16 0.88
1 -2 9 139.98 2.47
1 2 9 136.07 1.75
2 -2 9 124.31 2.14
2 2 9 121.09 1.98
3 -2 9 42.28 1.37
3 2 9 39.23 1.7
4 -2 9 123.51 1.88
4 2 9 118.56 2.55
5 -2 9 115.19 2.1
5 2 9 117.74 2.4
6 -2 9 10.61 1.18
6 2 9 11.01 1.41
7 -2 9 33.32 1.89
7 2 9 36.43 2.19
8 -2 9 7.33 1.56
8 2 9 8.96 1.87
9 -2 9 3.39 1.76
9 2 9 5.62 1.82
10 -2 9 6.85 1.91
10 2 9 7.87 1.8
11 -2 9 1.31 1.48
11 2 9 2.12 2.18
12 -2 9 12.13 2.57
12 2 9 11.07 1.92
-16 -3 9 11.06 3.19
-16 3 9 11.33 1.79
-15 -3 9 18.85 3.12
-15 3 9 16.96 2.04
-14 -3 9 4.55 2.17
-14 3 9 5.4 1.74
-13 -3 9 50.89 2.31
-13 3 9 52.82 2.28
-12 -3 9 60.9 2.23
-12 3 9 57.92 2.25
-11 -3 9 13.04 1.58
-11 3 9 12.83 1.89
-10 -3 9 149.72 2.74
-10 3 9 153.13 2.75
-9 -3 9 45.38 1.53
-9 3 9 49.5 1.76
-8 -3 9 29.08 1.3
-8 3 9 31.15 1.47
-7 -3 9 291.24 2.79
-7 3 9 292.11 3.64
-6 -3 9 243.94 2.9
-6 3 9 239.19 3.11
-5 -3 9 78.28 1.69
-5 3 9 75.66 1.84
-4 -3 9 553.89 4.49
-4 3 9 548.82 4.49
-3 -3 9 175.52 3.36
-3 3 9 184.74 2.37
-2 -3 9 104.6 2.65
-2 3 9 105.81 1.8
-1 -3 9 363.29 3.67
-1 3 9 370.59 5.42
0 -3 9 351.13 5.92
0 3 9 356.63 3.46
1 -3 9 210.81 2.74
1 3 9 212.22 2.79
2 -3 9 295.25 3.18
2 3 9 293.87 2.63
3 -3 9 51.1 1.48
3 3 9 53.79 1.88
4 -3 9 55.71 1.61
4 3 9 57.09 1.99
5 -3 9 24.81 1.45
5 3 9 23.3 1.47
6 -3 9 32.59 1.75
6 3 9 30.21 1.63
7 -3 9 11.15 1.6
7 3 9 11.76 1.8
8 -3 9 33.16 2.01
8 3 9 32.44 2.24
9 -3 9 47.3 2.27
9 3 9 48.82 2.59
10 -3 9 4.73 1.93
10 3 9 4.71 1.75
11 -3 9 0.62 0.68
11 3 9 0.58 1.43
12 -3 9 10.07 2.47
12 3 9 10.01 2.11
-16 -4 9 5.86 6.72
-16 4 9 7.54 1.81
-15 -4 9 2.36 6.14
-15 4 9 2.59 1.86
-14 -4 9 33.77 3.17
-14 4 9 41.98 2.73
-13 -4 9 23.7 1.91
-13 4 9 25.41 2
-12 -4 9 20.78 1.79
-12 4 9 19.69 1.82
-11 -4 9 152.19 3.02
-11 4 9 162.17 3.07
-10 -4 9 52.11 1.98
-10 4 9 52.41 2
-9 -4 9 97.07 2.37
-9 4 9 96.64 2.29
-8 -4 9 201.9 2.56
-8 4 9 207.46 3.08
-7 -4 9 27.6 1.26
-7 4 9 28.97 1.41
-6 -4 9 102.88 1.68
-6 4 9 106.55 2
-5 -4 9 118.59 2.2
-5 4 9 127.46 2.92
-4 -4 9 120.21 2.33
-4 4 9 119.3 2.64
-3 -4 9 75.95 2
-3 4 9 81.97 1.81
-2 -4 9 189.84 2.44
-2 4 9 199.46 2.48
-1 -4 9 34.07 1.56
-1 4 9 34.36 1.8
0 -4 9 85.58 1.84
0 4 9 85.19 2.46
1 -4 9 21.55 1.3
1 4 9 23.17 1.16
2 -4 9 3.73 1.08
2 4 9 4.13 1.21
3 -4 9 16.13 1.18
3 4 9 14.87 1.45
4 -4 9 71.35 1.79
4 4 9 71.89 2.28
5 -4 9 0.61 0.87
5 4 9 1.27 1.52
6 -4 9 18.39 1.63
6 4 9 18.03 1.81
7 -4 9 9.26 1.6
7 4 9 10.09 1.82
8 -4 9 11.73 1.73
8 4 9 11.86 1.92
9 -4 9 0.04 0.22
9 4 9 0.03 0.25
10 -4 9 3.25 2.31
10 4 9 1.83 1.58
11 -4 9 0.74 1.25
11 4 9 0.79 2.27
-15 -5 9 6.99 4.68
-15 5 9 6.9 2.12
-14 -5 9 1.98 4.12
-14 5 9 3.25 1.95
-13 -5 9 23.56 2.84
-13 5 9 24.98 2.48
-12 -5 9 5.1 1.98
-12 5 9 5.27 1.48
-11 -5 9 10.95 1.9
-11 5 9 10.37 1.61
-10 -5 9 17.3 1.94
-10 5 9 15.99 1.6
-9 -5 9 67.71 2.47
-9 5 9 65.9 2.11
-8 -5 9 7.39 1.26
-8 5 9 8.29 1.39
-7 -5 9 146.29 2.9
-7 5 9 132.34 2.43
-6 -5 9 106.03 2.49
-6 5 9 102.39 2.08
-5 -5 9 55.23 1.88
-5 5 9 53.38 3.07
-4 -5 9 319.12 3.92
-4 5 9 327.58 5.95
-3 -5 9 37.47 1.6
-3 5 9 36.29 2.67
-2 -5 9 57.01 1.59
-2 5 9 62.33 3.16
-1 -5 9 211.38 2.67
-1 5 9 204.23 3.62
0 -5 9 9.12 1.04
0 5 9 9.35 1.61
1 -5 9 5.69 1.3
1 5 9 5.97 1.55
2 -5 9 220.2 2.83
2 5 9 214.87 4.14
3 -5 9 49.77 1.57
3 5 9 46.59 1.95
4 -5 9 7.21 1.18
4 5 9 7.57 1.5
5 -5 9 49.21 1.93
5 5 9 44.46 2.13
6 -5 9 5.06 1.58
6 5 9 3.94 1.64
7 -5 9 27.83 1.87
7 5 9 27.68 2.11
8 -5 9 8.41 1.78
8 5 9 9.45 1.97
9 -5 9 17.54 1.97
9 5 9 17.46 1.9
10 -5 9 1.97 1.88
10 5 9 1.73 2.63
11 -5 9 1.03 2.18
11 5 9 0.4 0.77
-15 -6 9 5.72 6.58
-15 6 9 10.09 1.78
-14 -6 9 22.16 3.14
-14 6 9 19.52 2.16
-13 -6 9 10.26 2.7
-13 6 9 9.27 1.85
-12 -6 9 22.96 2.85
-12 6 9 27.66 2.12
-11 -6 9 177.54 4.84
-11 6 9 177.3 3.42
-10 -6 9 6.65 2.2
-10 6 9 7.98 1.61
-9 -6 9 127.27 3.98
-9 6 9 120.79 2.73
-8 -6 9 169.69 4.27
-8 6 9 167.48 3.08
-7 -6 9 10.62 2.08
-7 6 9 8.31 1.51
-6 -6 9 130.12 3.6
-6 6 9 130.04 3.46
-5 -6 9 277.39 6.61
-5 6 9 265.42 6.11
-4 -6 9 25.78 2.02
-3 -6 9 82.21 1.85
-3 6 9 88.87 3.96
-2 -6 9 222.38 2.89
-2 6 9 231.69 5.77
-1 -6 9 75.69 2.13
-1 6 9 74.86 2.61
0 -6 9 129.39 2.3
0 6 9 127.5 3.26
1 -6 9 178.25 2.79
1 6 9 178.65 3.84
2 -6 9 37.92 1.74
2 6 9 37.68 2.36
3 -6 9 23.2 1.64
3 6 9 25.1 1.51
4 -6 9 18.38 2.33
4 6 9 19.81 1.52
5 -6 9 21.59 2.01
5 6 9 23.53 2.32
6 -6 9 15.79 2.04
6 6 9 16.06 2.29
7 -6 9 5.33 1.8
7 6 9 6.33 2.58
8 -6 9 3.53 2
8 6 9 5.17 1.91
9 -6 9 5.57 2.23
9 6 9 4.3 2.43
10 -6 9 3.68 3.65
10 6 9 3.91 3.77
-14 -7 9 0.05 0.23
-14 7 9 0.52 0.4
-13 -7 9 25.47 3.2
-13 7 9 25.9 2.04
-12 -7 9 3.82 2.6
-12 7 9 2.6 1.87
-11 -7 9 8.85 2.56
-11 7 9 7.13 1.78
-10 -7 9 46.95 3.16
-10 7 9 45.23 2.19
-9 -7 9 46.76 3.06
-9 7 9 39.81 2.03
-8 -7 9 2.7 2.14
-8 7 9 2.23 2.41
-7 -7 9 160.52 4.31
-7 7 9 160.73 4.21
-6 -7 9 49.33 2.8
-6 7 9 50.51 2.69
-5 -7 9 18.11 2.95
-5 7 9 17.21 2.71
-4 -7 9 190.07 7.44
-3 -7 9 136.07 3.54
-3 7 9 141.53 5.18
-2 -7 9 99.68 3.13
-2 7 9 100.4 4.49
-1 -7 9 147.63 2.85
-1 7 9 150.3 3.57
0 -7 9 40.94 1.86
0 7 9 43.6 2.38
1 -7 9 36.43 1.96
1 7 9 39.91 2.5
2 -7 9 26.46 1.92
2 7 9 25.5 2.31
3 -7 9 72.26 3.19
3 7 9 74.95 2.47
4 -7 9 10.5 1.93
4 7 9 9.56 1.67
5 -7 9 25.22 2.2
5 7 9 20.66 3.7
6 -7 9 28.41 2.33
6 7 9 27.14 3.81
7 -7 9 7.62 2
7 7 9 7.58 2.4
8 -7 9 12.85 2.36
8 7 9 10.9 2.73
9 -7 9 1.91 1.52
9 7 9 3.95 2.78
-13 -8 9 16.49 3.19
-13 8 9 14.25 2.01
-12 -8 9 6.28 2.98
-12 8 9 4.6 2.34
-11 -8 9 43.46 3.34
-11 8 9 43.53 2.37
-10 -8 9 6.77 2.48
-10 8 9 6.53 1.91
-9 -8 9 14.12 2.62
-9 8 9 14.85 1.84
-8 -8 9 63.59 3.38
-8 8 9 67.2 3.35
-7 -8 9 24.49 2.66
-7 8 9 21.53 2.49
-6 -8 9 15.03 3.29
-6 8 9 15.5 2.26
-5 -8 9 97 3.4
-4 -8 9 -0.01 0.08
-3 -8 9 5.24 1.89
-3 8 9 4.3 2.75
-2 -8 9 28.79 2.32
-2 8 9 27.56 3.34
-1 -8 9 12.98 2.01
-1 8 9 15.1 3.01
0 -8 9 11.4 3.15
0 8 9 9.3 2.88
1 -8 9 47.71 2.76
1 8 9 52.79 2.75
2 -8 9 13.19 2.21
2 8 9 15.84 2.24
3 -8 9 12.4 2.29
3 8 9 12.01 2.28
4 -8 9 14.16 2.36
4 8 9 15.04 1.97
5 -8 9 0.48 2.06
5 8 9 0.77 1.23
6 -8 9 5.3 2.34
6 8 9 2.4 2.94
7 -8 9 2.79 3.37
7 8 9 0.02 0.37
8 -8 9 2.68 2.51
8 8 9 5.18 2.69
9 -8 9 3.64 2.78
9 8 9 4.11 2.8
-12 -9 9 13.17 3.27
-12 9 9 12.04 2.07
-11 -9 9 3.43 2.84
-11 9 9 2.44 1.86
-10 -9 9 29.29 3.15
-10 9 9 28.77 2.18
-9 -9 9 32.83 3.11
-9 9 9 29.44 2.93
-8 -9 9 10.59 2.57
-8 9 9 12.03 2.47
-7 -9 9 52.49 4.61
-7 9 9 54.29 3.21
-6 -9 9 21.98 3.68
-5 -9 9 2.61 2.81
-4 -9 9 89.61 3.52
-4 9 9 92.1 5.12
-3 -9 9 38.71 2.69
-3 9 9 37.78 3.97
-2 -9 9 17.06 2.32
-2 9 9 20.16 3.54
-1 -9 9 149.72 5.97
-1 9 9 155.33 6.18
0 -9 9 0.83 3.85
0 9 9 1 3.32
1 -9 9 12.77 3.29
1 9 9 11.29 3.08
2 -9 9 44.98 2.96
2 9 9 50.35 4.34
3 -9 9 5.52 2.32
3 9 9 3.11 2.83
4 -9 9 20.2 2.64
4 9 9 17.98 2.64
5 -9 9 33.25 3.13
5 9 9 28.57 2.87
6 -9 9 16.44 3.05
6 9 9 15.69 2.82
7 -9 9 1.83 2.34
7 9 9 2.6 2.55
-11 -10 9 16.51 3.15
-11 10 9 18.07 2.68
-10 -10 9 1.18 2.46
-10 10 9 2.55 3.69
-9 -10 9 22.28 4.05
-9 10 9 24.54 3.04
-8 -10 9 46.79 4.76
-8 10 9 43.88 3.3
-7 -10 9 23.94 3.9
-6 -10 9 64.56 5
-5 -10 9 63.76 4.85
-5 10 9 65.71 4.82
-4 -10 9 10.55 3.18
-4 10 9 9.07 3.25
-3 -10 9 45.28 3.01
-3 10 9 45.81 4.39
-2 -10 9 28.94 3.9
-2 10 9 29.32 4.06
-1 -10 9 13.87 3.54
-1 10 9 12.19 3.71
0 -10 9 16.31 3.69
0 10 9 19.99 3.69
1 -10 9 33.78 4.19
1 10 9 35.08 4.24
2 -10 9 13.87 3.53
2 10 9 7.95 3.74
3 -10 9 11.83 2.52
3 10 9 9.89 3.44
4 -10 9 6.12 2.85
4 10 9 6.11 2.82
5 -10 9 -0.01 8.23
5 10 9 -0.56 1.52
6 -10 9 2.53 2.69
-9 -11 9 3.76 4.13
-9 11 9 2.77 4.51
-8 -11 9 3.6 4.44
-7 -11 9 18.66 4.21
-6 -11 9 0.48 3.3
-6 11 9 1.04 3.38
-5 -11 9 0.98 4.19
-5 11 9 3.71 3.88
-4 -11 9 19.62 3.87
-4 11 9 23.26 4.07
-3 11 9 6.03 3.75
-2 -11 9 3.64 3.23
-2 11 9 4.07 3.74
-1 -11 9 20.07 3.89
-1 11 9 19.03 3.99
0 -11 9 16.61 3.92
0 11 9 16.45 4.07
1 -11 9 5.54 3.25
1 11 9 3.49 3.58
2 -11 9 12.04 4.11
2 11 9 13.83 3.95
3 -11 9 15.32 4.4
3 11 9 14.47 4.14
4 -11 9 8.58 3.9
4 11 9 4.41 3.16
-6 12 9 0.5 6.93
-5 -12 9 25.69 4.52
-5 12 9 28.06 4.26
-4 12 9 2.85 5.46
-3 12 9 5.46 3.66
-2 12 9 29.83 4.44
-1 -12 9 4.81 3.98
-1 12 9 7.17 4.21
0 -12 9 6.92 3.98
0 12 9 2.13 6.71
1 -12 9 -0.45 19.65
1 12 9 1.35 322.34
-16 0 10 2.15 2.32
-15 0 10 10.86 2.85
-14 0 10 1.99 1.99
-13 0 10 20.25 2.25
-12 0 10 58.56 2.64
-11 0 10 17.24 1.43
-10 0 10 27.38 1.52
-9 0 10 29.56 1.44
-8 0 10 45.07 1.5
-7 0 10 1.59 1.24
-6 0 10 6.78 1.36
-5 0 10 18.1 1.18
-4 0 10 0.27 0.52
-3 0 10 139.69 2.46
-2 0 10 1.5 1.17
-1 0 10 44.95 1.59
0 0 10 22.52 1.76
1 0 10 10.34 0.91
2 0 10 53.81 1.45
3 0 10 38.24 1.36
4 0 10 7.11 1.06
5 0 10 152.21 2.23
6 0 10 37.52 1.49
7 0 10 0.58 0.69
8 0 10 73.01 2.18
9 0 10 2.98 1.61
10 0 10 16.2 2.04
11 0 10 33.35 2.4
-16 -1 10 4.85 2.99
-16 1 10 7.04 3.27
-15 -1 10 -0.47 6.35
-15 1 10 1.51 2.05
-14 -1 10 11.05 2.73
-14 1 10 10.37 1.9
-13 -1 10 0.18 1.19
-13 1 10 2.73 1.82
-12 -1 10 5.08 2.27
-12 1 10 4.25 1.51
-11 -1 10 5.1 1.34
-11 1 10 6.77 1.48
-10 -1 10 17.36 1.36
-10 1 10 19.09 1.59
-9 -1 10 6.14 1.13
-9 1 10 6.43 1.27
-8 -1 10 59.78 1.61
-8 1 10 61.78 1.84
-7 -1 10 6.59 1
-7 1 10 7.23 1.31
-6 -1 10 13.59 1.32
-6 1 10 16.76 1.35
-5 -1 10 39.56 1.45
-5 1 10 36.89 1.53
-4 -1 10 160.78 2.67
-4 1 10 161.81 2.24
-3 -1 10 7.63 1.16
-3 1 10 6.47 0.91
-2 -1 10 386.56 3.84
-2 1 10 368.41 3.66
-1 -1 10 80.77 2.49
-1 1 10 79.23 1.89
0 -1 10 45.41 1.46
0 1 10 42.22 1.63
1 -1 10 132.93 2.2
1 1 10 127 1.9
2 -1 10 87.82 1.77
2 1 10 86.63 1.68
3 -1 10 14.61 1.19
3 1 10 14.52 1.19
4 -1 10 62.31 1.58
4 1 10 61.57 2.18
5 -1 10 60.81 1.62
5 1 10 57.96 1.93
6 -1 10 3.9 1.11
6 1 10 4.07 1.35
7 -1 10 52.09 1.89
7 1 10 51.56 2.42
8 -1 10 55.83 2.02
8 1 10 57.9 2.32
9 -1 10 7.72 1.54
9 1 10 7.41 1.68
10 -1 10 28.25 2.21
10 1 10 29.45 1.95
11 -1 10 1.27 2.27
11 1 10 1.14 2.35
-16 -2 10 1.23 2.13
-16 2 10 1.4 2.68
-15 -2 10 18.2 2.57
-15 2 10 18.29 2.11
-14 -2 10 3.29 2.38
-14 2 10 4.92 1.81
-13 -2 10 14.95 2.15
-13 2 10 18.1 1.92
-12 -2 10 4.17 1.59
-12 2 10 5.46 1.72
-11 -2 10 0.4 1.19
-11 2 10 1.04 0.96
-10 -2 10 20.61 1.35
-10 2 10 23.17 1.95
-9 -2 10 31.39 1.41
-9 2 10 30.86 1.96
-8 -2 10 3.46 0.92
-8 2 10 3.56 1.46
-7 -2 10 31.26 1.27
-7 2 10 29.03 1.67
-6 -2 10 40.12 1.48
-6 2 10 39.59 1.68
-5 -2 10 17.65 1.21
-5 2 10 15.95 1.28
-4 -2 10 11.73 1.12
-4 2 10 11.62 1.09
-3 -2 10 17.68 1.15
-3 2 10 16.34 1.21
-2 -2 10 1.21 1.01
-2 2 10 0.6 1.32
-1 -2 10 79.38 2.49
-1 2 10 85.55 1.92
0 -2 10 96.14 1.94
0 2 10 90.03 1.73
1 -2 10 3.12 1.08
1 2 10 2.85 1.02
2 -2 10 57.98 1.88
2 2 10 57.04 1.47
3 -2 10 196.87 2.54
3 2 10 197 2.77
4 -2 10 0.75 0.79
4 2 10 0.6 0.66
5 -2 10 113.87 2.02
5 2 10 116.58 2.17
6 -2 10 152.4 2.39
6 2 10 151.13 2.86
7 -2 10 16.77 1.71
7 2 10 15.87 1.94
8 -2 10 20.27 1.91
8 2 10 19.48 2.13
9 -2 10 61.33 2.49
9 2 10 60.19 2.81
10 -2 10 1.73 2.14
10 2 10 2.07 1.55
11 -2 10 11.21 2.04
11 2 10 10.01 1.88
-16 -3 10 9.52 3.26
-16 3 10 7.49 2.23
-15 -3 10 6.23 3.62
-15 3 10 5.35 2.05
-14 -3 10 0.08 1.32
-14 3 10 0.25 1.39
-13 -3 10 36.29 2.11
-13 3 10 40.26 2.55
-12 -3 10 4.43 1.47
-12 3 10 5.78 1.69
-11 -3 10 16.82 1.66
-11 3 10 13.29 2.53
-10 -3 10 55.16 2
-10 3 10 60.13 2.46
-9 -3 10 5.85 1.11
-9 3 10 5.38 1.3
-8 -3 10 3.29 1.11
-8 3 10 4.2 1.41
-7 -3 10 1.76 1.17
-7 3 10 0.91 1.19
-6 -3 10 4.82 0.91
-6 3 10 3.58 1.18
-5 -3 10 115.34 1.85
-5 3 10 117.87 2.38
-4 -3 10 25.33 1.31
-4 3 10 24.8 1.11
-3 -3 10 21.94 1.46
-3 3 10 23.28 1.2
-2 -3 10 35.92 1.61
-2 3 10 34.39 1.35
-1 -3 10 96.04 1.96
-1 3 10 102.2 1.85
0 -3 10 7.78 1.38
0 3 10 7.65 1.03
1 -3 10 199.73 3.14
1 3 10 204.43 2.28
2 -3 10 65.03 1.88
2 3 10 63.88 1.53
3 -3 10 29.69 1.4
3 3 10 31.77 1.77
4 -3 10 86.55 1.98
4 3 10 80.65 2.17
5 -3 10 40.24 1.66
5 3 10 38.47 1.74
6 -3 10 2.74 1.55
6 3 10 2.18 1.44
7 -3 10 32.28 1.98
7 3 10 32.94 2.27
8 -3 10 30.07 2.07
8 3 10 30.17 2.31
9 -3 10 0.9 2.34
9 3 10 0.77 1.7
10 -3 10 6.85 2.1
10 3 10 7.22 1.85
11 -3 10 27.27 2.72
11 3 10 25.29 2.02
-15 -4 10 12.47 4.76
-15 4 10 11.5 2.18
-14 -4 10 5.3 3.27
-14 4 10 3.44 2.62
-13 -4 10 21.37 1.98
-13 4 10 21.33 2.34
-12 -4 10 10.36 1.73
-12 4 10 11.23 2.1
-11 -4 10 5.12 1.5
-11 4 10 6.75 1.89
-10 -4 10 4.08 1.47
-10 4 10 3.9 1.54
-9 -4 10 23.83 1.42
-9 4 10 21.5 1.57
-8 -4 10 11.99 1.19
-8 4 10 13.42 1.36
-7 -4 10 52.48 1.57
-7 4 10 52.07 1.99
-6 -4 10 25.96 1.25
-6 4 10 23.73 1.94
-5 -4 10 73.5 1.81
-5 4 10 78 2.08
-4 -4 10 19.15 1.49
-4 4 10 17.54 1.28
-3 -4 10 6.01 1.32
-3 4 10 5.98 1.08
-2 -4 10 40.87 1.35
-2 4 10 45.06 2.71
-1 -4 10 26.95 1.23
-1 4 10 26.01 1.47
0 -4 10 5.41 1.63
0 4 10 3.79 1.06
1 -4 10 7.72 1.25
1 4 10 7.19 1.09
2 -4 10 66.42 1.96
2 4 10 62.2 2.02
3 -4 10 43.48 1.56
3 4 10 47.72 2.39
4 -4 10 1.16 1.02
4 4 10 2.07 1.51
5 -4 10 52.39 1.83
5 4 10 52.2 2.28
6 -4 10 46.42 2.07
6 4 10 45.28 2.37
7 -4 10 3 1.74
7 4 10 3.73 1.94
8 -4 10 112.7 2.96
8 4 10 108.78 3.31
9 -4 10 24.34 2.17
9 4 10 26.18 2.09
10 -4 10 6.11 2.08
10 4 10 6.7 2.06
-15 -5 10 0.39 2.35
-15 5 10 0.8 0.89
-14 -5 10 10.26 2.85
-14 5 10 10.48 2.36
-13 -5 10 1.64 2.77
-13 5 10 3.1 2.47
-12 -5 10 2.23 2.55
-12 5 10 1.8 2.13
-11 -5 10 21.92 2.14
-11 5 10 21.88 1.85
-10 -5 10 4.33 1.75
-10 5 10 3.68 1.57
-9 -5 10 5.35 1.83
-9 5 10 5.05 1.47
-8 -5 10 13.57 1.48
-8 5 10 13.97 1.44
-7 -5 10 7.41 1.4
-7 5 10 7.53 1.96
-6 -5 10 8.99 1.27
-6 5 10 7.71 1.71
-5 -5 10 20.3 1.38
-5 5 10 19.43 1.83
-4 -5 10 1.05 1.83
-4 5 10 1.42 1.46
-3 -5 10 14.08 1.47
-3 5 10 15.98 1.65
-2 -5 10 58.86 1.72
-2 5 10 59.06 3.23
-1 -5 10 115.73 1.99
-1 5 10 124.06 3.12
0 -5 10 50.43 2
0 5 10 51.71 2.36
1 -5 10 114.98 2.78
1 5 10 112.7 3.21
2 -5 10 163.8 2.53
2 5 10 158.94 3.81
3 -5 10 24.16 1.41
3 5 10 27.32 3.43
4 -5 10 124.35 2.35
4 5 10 117.77 3.65
5 -5 10 36.25 1.86
5 5 10 35.41 2.11
6 -5 10 44.11 2.08
6 5 10 42.54 2.34
7 -5 10 6.75 1.74
7 5 10 9.79 1.93
8 -5 10 4.25 2.09
8 5 10 3.51 2.31
9 -5 10 8.85 2.07
9 5 10 8.71 1.95
10 -5 10 18.71 2.62
10 5 10 19.61 2.58
-14 -6 10 0.2 11.54
-14 6 10 0.86 1.25
-13 6 10 0.76 0.92
-12 -6 10 7.33 2.74
-12 6 10 7.48 1.84
-11 -6 10 2.82 2.36
-11 6 10 2.55 2.1
-10 -6 10 0.52 1.49
-10 6 10 1.03 1.05
-9 -6 10 8.93 2.19
-9 6 10 6.86 1.55
-8 -6 10 1.28 1.96
-8 6 10 0.68 1.1
-7 -6 10 14.13 2.12
-7 6 10 12.49 1.75
-6 -6 10 4.45 2.04
-6 6 10 4.39 1.94
-5 -6 10 25.4 3.1
-4 -6 10 85.23 2.33
-4 6 10 96.62 4.14
-3 -6 10 78.2 1.95
-3 6 10 81.68 3.91
-2 -6 10 11.81 1.29
-2 6 10 12.84 2.44
-1 -6 10 19.65 1.43
-1 6 10 19.17 1.97
0 -6 10 22.65 1.64
0 6 10 22.96 2.09
1 -6 10 7.51 1.47
1 6 10 6.61 1.88
2 -6 10 70.64 2.17
2 6 10 73.34 3
3 -6 10 37.1 1.88
3 6 10 38.76 2.07
4 -6 10 10.09 2.25
4 6 10 10.47 2.16
5 -6 10 5.7 1.88
5 6 10 6.51 2.14
6 -6 10 72.65 2.86
6 6 10 65.29 3.27
7 -6 10 20.59 2.27
7 6 10 21.17 2.64
8 -6 10 52.62 2.99
8 6 10 51.7 2.84
9 -6 10 44.26 2.96
9 6 10 36.65 3.4
-14 -7 10 4.01 3.88
-14 7 10 4.38 2.53
-13 -7 10 12.28 2.96
-13 7 10 11.2 2.02
-12 -7 10 15.76 2.76
-12 7 10 17.79 2.03
-11 -7 10 1.18 4.05
-11 7 10 1.29 2.34
-10 -7 10 14.57 2.56
-10 7 10 16.03 1.87
-9 -7 10 21.8 2.62
-9 7 10 17.63 2.15
-8 -7 10 3.09 1.88
-8 7 10 1.32 1.79
-7 -7 10 32.89 3.81
-7 7 10 27.85 2.5
-6 -7 10 35.39 2.65
-5 -7 10 21 3.16
-4 -7 10 2.35 2.65
-4 7 10 3.86 2.41
-3 -7 10 -0.11 2.53
-2 -7 10 31.32 1.87
-2 7 10 36.48 3.35
-1 -7 10 68.55 1.98
-1 7 10 74.07 4.14
0 -7 10 52.82 2.67
0 7 10 53.6 2.66
1 -7 10 105.04 3.44
1 7 10 101.26 3.37
2 -7 10 29.69 2.05
2 7 10 31.81 2.55
3 -7 10 0.25 1.05
3 7 10 -0.53 3.05
4 -7 10 55.07 2.62
5 -7 10 21.35 2.21
5 7 10 19.45 3.73
6 -7 10 2.72 1.94
6 7 10 3.31 3.23
7 -7 10 19.73 2.52
7 7 10 17.31 2.86
8 -7 10 6.26 2.4
8 7 10 2.72 3.41
9 -7 10 6.13 2.74
9 7 10 2.87 2.8
-13 -8 10 0.17 3.64
-13 8 10 -0.16 0.67
-12 -8 10 2.69 3.46
-12 8 10 5.26 2.31
-11 -8 10 -0.03 0.36
-11 8 10 0 0.17
-10 -8 10 45.1 3.3
-10 8 10 43.1 2.72
-9 -8 10 0.58 4.2
-9 8 10 1.66 2.04
-8 -8 10 9.47 2.49
-8 8 10 10.99 2.09
-7 -8 10 3.55 2.74
-7 8 10 -0.08 0.25
-6 -8 10 7.67 3.21
-5 -8 10 15.58 3.34
-5 8 10 19.13 3.27
-4 -8 10 31.17 2.49
-4 8 10 31.62 3.57
-3 -8 10 12.91 2.22
-3 8 10 14.79 3.21
-2 -8 10 65.52 3.01
-2 8 10 71.18 4.4
-1 -8 10 25.51 2.32
-1 8 10 25.66 3.44
0 -8 10 3.44 2.83
0 8 10 1.16 2.69
1 -8 10 19.71 3.44
1 8 10 16.7 2.33
2 -8 10 7.61 2.36
2 8 10 6.93 2.36
3 -8 10 24.11 2.73
3 8 10 25.17 2.7
4 -8 10 7.58 2.52
4 8 10 4.63 3.32
5 -8 10 38.33 3.13
5 8 10 37.4 4.32
6 -8 10 10.32 3.02
6 8 10 11.57 2.66
7 -8 10 5.41 2.8
7 8 10 0.38 1.73
8 -8 10 11.86 3.11
8 8 10 11.43 2.8
-12 -9 10 -0.11 1.86
-12 9 10 -0.33 1.3
-11 -9 10 0.19 1.65
-11 9 10 0 0.13
-10 -9 10 0.69 90.06
-10 9 10 0.59 1.62
-9 -9 10 6.75 2.5
-9 9 10 3.54 2.27
-8 -9 10 8.04 3.26
-8 9 10 3.87 2.99
-7 -9 10 13.03 3.74
-6 -9 10 8.7 3.28
-5 -9 10 4.98 3.18
-5 9 10 3.33 3.44
-4 -9 10 21.04 2.49
-4 9 10 22.07 3.53
-3 -9 10 3.47 2.18
-3 9 10 2.12 3.53
-2 -9 10 6.35 2.33
-2 9 10 6.33 3.2
-1 -9 10 20.54 3.74
-1 9 10 25.62 3.7
0 -9 10 6.75 3.54
0 9 10 9.02 3.31
1 -9 10 25.98 3.95
1 9 10 27.08 3.87
2 -9 10 21.08 3.76
2 9 10 23.2 3.78
3 -9 10 42.61 3.03
3 9 10 42.15 3.11
4 -9 10 5.97 2.36
4 9 10 9.79 3.73
5 -9 10 34.83 3.36
5 9 10 33.13 3.04
6 -9 10 11.57 2.99
6 9 10 10.01 2.8
7 -9 10 22.28 3.21
7 9 10 22.11 2.52
-10 -10 10 1.09 3.88
-9 -10 10 4.99 3.55
-9 10 10 4.76 3.69
-8 -10 10 5.73 3.76
-8 10 10 10.08 4.44
-7 -10 10 4.16 3.93
-6 -10 10 2.88 3.62
-6 10 10 4.52 3.86
-5 -10 10 4.03 3.93
-5 10 10 5.89 3.72
-4 -10 10 1.64 3.86
-4 10 10 5.82 3.43
-3 -10 10 3.46 2.57
-3 10 10 1.25 5.9
-2 -10 10 6.99 3.53
-2 10 10 8.15 3.25
-1 -10 10 20.48 3.79
-1 10 10 26.06 4.16
0 -10 10 35.26 4.19
0 10 10 30.54 4.1
1 -10 10 18.7 3.7
1 10 10 20.4 3.98
2 -10 10 12.94 3.93
2 10 10 11.07 3.61
3 -10 10 18.48 4.15
3 10 10 20.86 4.05
4 -10 10 6.54 3.64
4 10 10 3.92 4.61
5 -10 10 15.22 2.98
5 10 10 13.97 2.5
-8 -11 10 3.33 4.44
-8 11 10 1.4 3.21
-7 -11 10 2.59 3.61
-7 11 10 1.53 6.41
-6 -11 10 18.26 4.12
-6 11 10 16.36 3.91
-5 -11 10 5.13 4.19
-5 11 10 3.18 3.71
-4 -11 10 10.9 4.31
-4 11 10 14.9 3.92
-3 11 10 24.49 4.17
-2 -11 10 40.09 4.56
-2 11 10 34.18 4.38
-1 -11 10 6.06 3.65
-1 11 10 7.75 4.41
0 11 10 0.33 0.95
1 -11 10 18.19 4.1
1 11 10 19.31 4.07
2 -11 10 14.21 4.12
2 11 10 15.31 4.02
3 -11 10 15.75 4.27
3 11 10 17.32 4.41
-4 12 10 5.65 4.69
-3 12 10 2 3.65
-2 12 10 7.12 4.67
-1 -12 10 9.87 3.87
-1 12 10 12.61 4.79
-16 0 11 3.19 3.19
-15 0 11 0.21 1.4
-14 0 11 8.94 2.73
-13 0 11 56.25 2.85
-12 0 11 2.79 1.74
-11 0 11 72.38 2.35
-10 0 11 104.04 2.52
-9 0 11 26.21 1.67
-8 0 11 122.16 2.44
-7 0 11 228.11 3.02
-6 0 11 52.04 1.98
-5 0 11 141.47 2.33
-4 0 11 180.33 2.96
-3 0 11 180.51 2.91
-2 0 11 45.41 1.76
-1 0 11 468.94 5.56
0 0 11 18.84 1.31
1 0 11 2.8 1.04
2 0 11 103.53 1.79
3 0 11 80.3 2.1
4 0 11 3.41 1.18
5 0 11 227.18 3.05
6 0 11 0.71 1.41
7 0 11 2.39 1.41
8 0 11 0.59 1.17
9 0 11 2.54 1.9
10 0 11 8.49 1.98
-16 -1 11 5.99 3.58
-16 1 11 4.74 3.04
-15 -1 11 11.84 2.96
-15 1 11 12.9 2.46
-14 -1 11 24.58 3.07
-14 1 11 20.41 2.48
-13 -1 11 0.81 1.76
-13 1 11 1.01 2.62
-12 -1 11 35.03 3.01
-12 1 11 37.74 1.88
-11 -1 11 61.36 2.27
-11 1 11 57.81 1.98
-10 -1 11 6.75 1.43
-10 1 11 6.02 1.37
-9 -1 11 119.21 2.5
-9 1 11 127.4 2.63
-8 -1 11 169.2 2.83
-8 1 11 168.23 2.79
-7 -1 11 10.82 1.28
-7 1 11 10.19 1.17
-6 -1 11 219.81 3.4
-6 1 11 211.94 2.9
-5 -1 11 198.52 3.18
-5 1 11 191.5 3.05
-4 -1 11 17.22 1.48
-4 1 11 16.61 1.19
-3 -1 11 445.68 4.43
-3 1 11 453.33 4.37
-2 -1 11 77.93 2.63
-2 1 11 76.08 2.05
-1 -1 11 23.12 1.55
-1 1 11 23.94 1.42
0 -1 11 242.58 3.03
0 1 11 243.89 4.37
1 -1 11 147.41 2.2
1 1 11 145.3 2.39
2 -1 11 24.56 1.46
2 1 11 25.16 1.27
3 -1 11 203.45 3.32
3 1 11 210.97 2.63
4 -1 11 9.96 1.27
4 1 11 9.89 1.23
5 -1 11 51.84 1.64
5 1 11 53.93 2
6 -1 11 8.35 1.25
6 1 11 7.3 1.53
7 -1 11 67.59 2.13
7 1 11 69.84 2.45
8 -1 11 8.87 1.6
8 1 11 8.59 1.7
9 -1 11 33.68 1.98
9 1 11 34.25 2.29
10 -1 11 4.44 2.11
10 1 11 4.13 1.63
-16 -2 11 9.67 3.28
-16 2 11 10.71 2.8
-15 -2 11 11.29 2.76
-15 2 11 14.24 2.09
-14 -2 11 10.01 2.5
-14 2 11 11.06 1.96
-13 -2 11 53.55 2.73
-13 2 11 55.3 2.49
-12 -2 11 44.43 2.11
-12 2 11 43.57 2.22
-11 -2 11 23.19 2.04
-11 2 11 23.22 1.86
-10 -2 11 164.98 2.95
-10 2 11 162.95 3.09
-9 -2 11 53.4 1.91
-9 2 11 57.06 2.39
-8 -2 11 26.73 1.56
-8 2 11 30.15 1.92
-7 -2 11 331.29 3.77
-7 2 11 340.9 4.22
-6 -2 11 86.37 2.05
-6 2 11 80.49 2.21
-5 -2 11 49.3 1.68
-5 2 11 50.48 1.78
-4 -2 11 293.19 3.78
-4 2 11 299.84 3.13
-3 -2 11 52.86 2.33
-3 2 11 51.26 1.82
-2 -2 11 25.72 1.54
-2 2 11 27.06 1.51
-1 -2 11 188.37 2.67
-1 2 11 185.98 3.67
0 -2 11 87.52 2.02
0 2 11 88.58 2.26
1 -2 11 86.76 2.08
1 2 11 88.05 1.98
2 -2 11 60.68 2.22
2 2 11 60.21 1.6
3 -2 11 32.25 1.71
3 2 11 32.47 1.63
4 -2 11 67.48 1.9
4 2 11 66.81 1.84
5 -2 11 10.97 1.24
5 2 11 11.02 1.31
6 -2 11 14.72 1.39
6 2 11 11.9 1.59
7 -2 11 22.14 1.92
7 2 11 21.6 2.13
8 -2 11 3.32 1.82
8 2 11 2.84 1.91
9 -2 11 2.86 1.86
9 2 11 3.22 2.08
10 -2 11 1.58 1.69
10 2 11 2.48 2.33
-15 -3 11 4.68 2.68
-15 3 11 4.36 2.29
-14 -3 11 9.83 2.45
-14 3 11 11.9 2.02
-13 -3 11 3.1 1.81
-13 3 11 3.43 1.76
-12 -3 11 16.35 1.8
-12 3 11 17.29 1.87
-11 -3 11 31.23 1.91
-11 3 11 35.77 2.43
-10 -3 11 25.64 1.53
-10 3 11 26.81 2.18
-9 -3 11 68.01 1.86
-9 3 11 66 2.54
-8 -3 11 90.49 2.24
-8 3 11 89.86 2.65
-7 -3 11 11.35 1.37
-7 3 11 11.05 1.58
-6 -3 11 130.71 2.44
-6 3 11 126.36 2.66
-5 -3 11 112.26 2.26
-5 3 11 115.57 3.04
-4 -3 11 14.26 1.48
-4 3 11 13.71 1.57
-3 -3 11 137 2.33
-3 3 11 137.95 4.17
-2 -3 11 208.3 3.22
-2 3 11 207.33 3.9
-1 -3 11 88.75 2.04
-1 3 11 92.26 2.8
0 -3 11 106.57 2.24
0 3 11 109.09 2.07
1 -3 11 49.44 2.04
1 3 11 47.21 1.62
2 -3 11 15.35 1.66
2 3 11 13.72 1.57
3 -3 11 51.76 1.71
3 3 11 49.06 2.14
4 -3 11 111.89 2.29
4 3 11 111.52 2.49
5 -3 11 0.23 0.55
5 3 11 -0.01 0.43
6 -3 11 58 2.27
6 3 11 59.47 2.19
7 -3 11 22.19 1.93
7 3 11 20.92 2.2
8 -3 11 2.78 1.86
8 3 11 2.45 2.06
9 -3 11 8.42 2.03
9 3 11 6.88 2.31
10 -3 11 8.93 2.23
10 3 11 10.49 1.82
-15 -4 11 2.79 6.48
-15 4 11 5.52 2.35
-14 -4 11 12.14 2.27
-14 4 11 12.14 2.1
-13 -4 11 34.07 2.18
-13 4 11 32.29 2.24
-12 -4 11 25.23 1.96
-12 4 11 25.94 3.02
-11 -4 11 41.58 2.06
-11 4 11 42.05 3.07
-10 -4 11 119.98 2.75
-10 4 11 120.31 3.23
-9 -4 11 14.53 1.4
-9 4 11 17.04 1.87
-8 -4 11 103.54 2.26
-8 4 11 97.9 3.42
-7 -4 11 185.11 3.08
-7 4 11 177.54 3.33
-6 -4 11 69.17 2
-6 4 11 67.45 2.19
-5 -4 11 91.81 2.48
-5 4 11 92.51 2.9
-4 -4 11 309.98 4.03
-4 4 11 319.75 4.53
-3 -4 11 55.55 2.08
-3 4 11 53.96 2.89
-2 -4 11 50.64 1.54
-2 4 11 52.71 2.95
-1 -4 11 241.36 3.06
-1 4 11 244.61 3.35
0 -4 11 111.14 3.32
0 4 11 113.98 2.41
1 -4 11 46.46 2.07
1 4 11 45.32 1.64
2 -4 11 305.66 3.68
2 4 11 293.95 4.89
3 -4 11 1.41 1.41
3 4 11 1.92 3.47
4 -4 11 21.41 1.49
4 4 11 22.52 2.31
5 -4 11 4.41 1.46
5 4 11 3.96 1.87
6 -4 11 1.98 1.54
6 4 11 2.68 1.91
7 -4 11 6.4 1.92
7 4 11 5.64 1.95
8 -4 11 7.29 2
8 4 11 7.05 2.12
9 -4 11 3.71 4.16
9 4 11 4.22 1.93
10 -4 11 0.1 0.44
10 4 11 -0.51 9.7
-15 -5 11 1.15 5.75
-15 5 11 4.58 2.36
-14 -5 11 8.72 3.15
-14 5 11 9.91 2.38
-13 -5 11 3.96 2.61
-13 5 11 3.88 2.87
-12 -5 11 22.08 2.31
-12 5 11 19.51 2.35
-11 -5 11 49.98 2.62
-11 5 11 47.78 2.62
-10 -5 11 1.24 1.53
-10 5 11 1.65 1.71
-9 -5 11 63.24 3.06
-9 5 11 66.75 3.28
-8 -5 11 95.23 2.73
-8 5 11 96.93 3.49
-7 -5 11 1.05 1.59
-7 5 11 1.74 1.64
-6 -5 11 272.41 3.58
-6 5 11 272.92 4.9
-5 -5 11 74.07 2.38
-5 5 11 74.35 2.19
-4 -5 11 9.65 1.54
-4 5 11 11.79 1.75
-3 -5 11 297.88 4.22
-2 -5 11 43.98 1.67
-2 5 11 48.08 3.07
-1 -5 11 5.74 1.29
-1 5 11 5.91 2.3
0 -5 11 281.8 4.02
0 5 11 283.18 4.75
1 -5 11 8.15 2.02
1 5 11 8.04 1.79
2 -5 11 1.04 0.72
2 5 11 1.74 1.79
3 -5 11 55.45 1.8
3 5 11 56.2 4.28
4 -5 11 73.83 2.21
4 5 11 72.55 3.23
5 -5 11 5.1 1.63
5 5 11 4.79 2.16
6 -5 11 87.29 2.6
6 5 11 85.55 3.63
7 -5 11 12.57 1.84
7 5 11 15 2.58
8 -5 11 18.84 2.17
8 5 11 19.65 2.32
9 -5 11 2.76 2.87
9 5 11 0.36 1.66
-14 -6 11 3.81 4.17
-14 6 11 3.44 3.5
-13 -6 11 27.73 3.16
-13 6 11 30.07 2.65
-12 -6 11 1.75 2.85
-12 6 11 5.69 2.01
-11 -6 11 20.95 2.76
-11 6 11 19.66 2.28
-10 -6 11 53.16 3.27
-10 6 11 54.71 3.34
-9 -6 11 27.87 2.65
-9 6 11 28.43 2.7
-8 -6 11 20.9 2.47
-8 6 11 19.07 2.4
-7 -6 11 60.94 3.01
-7 6 11 57.27 2.91
-6 -6 11 25.78 3.4
-6 6 11 25.11 3.34
-5 -6 11 6.95 2.68
-5 6 11 2.23 1.79
-4 -6 11 111.99 2.93
-4 6 11 114.24 4.55
-3 -6 11 76.98 2.39
-3 6 11 82.33 4.04
-2 -6 11 18.84 1.46
-2 6 11 19.53 2.71
-1 -6 11 86.93 2.17
-1 6 11 93.28 4.23
0 -6 11 26.62 2.31
0 6 11 25.63 2.22
1 -6 11 10.18 1.79
1 6 11 11.58 1.98
2 -6 11 46.83 2.04
2 6 11 50.65 2.82
3 -6 11 1.84 1.35
3 6 11 1.17 2.27
4 -6 11 8.47 2.41
4 6 11 10.15 2.2
6 -6 11 0.37 1.02
7 -6 11 2.67 2.48
7 6 11 2.76 2.73
8 -6 11 2.37 2.6
8 6 11 2.89 2.46
-13 -7 11 3.05 3.51
-13 7 11 6.89 2.94
-12 -7 11 5.89 2.89
-12 7 11 5.96 2.82
-11 -7 11 26.72 2.98
-11 7 11 26.61 3.18
-10 -7 11 3.74 2.36
-10 7 11 3.48 3.3
-9 -7 11 27.26 2.8
-9 7 11 22.34 2.76
-8 -7 11 51.83 3.16
-8 7 11 49.81 3.11
-7 -7 11 2.33 3.27
-7 7 11 1.59 3.79
-6 -7 11 80.39 4.91
-6 7 11 80.72 4.77
-5 -7 11 79.82 4.74
-5 7 11 77.28 3.13
-4 -7 11 54.36 4.13
-4 7 11 59.38 3.87
-3 -7 11 45.21 2.14
-3 7 11 52.15 3.78
-2 -7 11 52.01 2.23
-2 7 11 51.66 3.76
-1 -7 11 19.92 1.55
-1 7 11 20.43 3.12
0 -7 11 44.46 2.23
0 7 11 44.23 2.63
1 -7 11 54.72 2.91
1 7 11 54.13 2.89
2 -7 11 12.28 2.28
2 7 11 11.78 2.26
3 -7 11 30.67 2.85
3 7 11 33.8 4.02
4 -7 11 37.52 2.44
4 7 11 39.97 4.3
5 -7 11 3.45 1.76
5 7 11 4.02 3.69
6 -7 11 35.14 2.78
6 7 11 30.44 4.4
7 -7 11 2.56 1.96
7 7 11 2.55 2.56
8 -7 11 1.95 2.49
8 7 11 1.34 2.54
-12 -8 11 3.68 3.54
-12 8 11 5.97 3.44
-11 -8 11 27.19 3.21
-11 8 11 27.62 3.24
-10 -8 11 67.95 3.77
-10 8 11 63.84 3.76
-9 -8 11 30.45 3.02
-9 8 11 28.75 3.02
-8 -8 11 31.74 4.04
-8 8 11 30.11 4.28
-7 -8 11 95.03 5.55
-7 8 11 94.49 5.55
-6 -8 11 12.29 3.42
-6 8 11 13.65 2.46
-5 -8 11 10.74 3.34
-5 8 11 10.24 2.37
-4 -8 11 165.04 6.41
-4 8 11 187.36 6.44
-3 -8 11 48.87 2.85
-3 8 11 48.81 4.11
-2 -8 11 48.92 2.84
-2 8 11 49.39 4.06
-1 -8 11 139.37 3.99
-1 8 11 147.67 5.86
0 -8 11 7.75 3.01
0 8 11 14.87 3.16
1 -8 11 36.05 4.05
1 8 11 41.81 2.86
2 -8 11 28.19 3.94
2 8 11 27.32 2.67
3 -8 11 5.53 3.5
3 8 11 5.69 2.33
4 -8 11 6.56 2.69
4 8 11 4.26 4
5 -8 11 3.86 2.54
5 8 11 0.54 5.99
6 -8 11 7.05 2.96
6 8 11 7.25 2.78
7 -8 11 1.71 2.58
7 8 11 1.12 2.49
-11 -9 11 5.26 3.38
-11 9 11 5.72 4.01
-10 -9 11 -0.02 0.3
-10 9 11 0.05 0.42
-9 -9 11 15.18 3.67
-9 9 11 16.3 4.07
-8 -9 11 32.9 4.29
-8 9 11 28.52 4.38
-7 -9 11 12.59 3.48
-7 9 11 12.91 2.63
-6 -9 11 64.63 4.98
-6 9 11 70.69 3.53
-5 -9 11 12.96 3.54
-5 9 11 16 3.57
-4 -9 11 6.62 2.3
-4 9 11 6.36 3.38
-3 -9 11 61.47 3.23
-3 9 11 68.8 4.82
-2 -9 11 5.32 3.8
-2 9 11 4.21 2.79
-1 -9 11 2.54 3.32
-1 9 11 6.34 3.32
0 -9 11 47.35 4.41
0 9 11 49.46 4.48
1 -9 11 21.63 2.59
1 9 11 21.73 3.77
2 -9 11 10.22 3.68
2 9 11 5.98 2.45
3 -9 11 41.81 4.68
3 9 11 40.09 3.11
4 -9 11 15.07 4.2
4 9 11 18.41 4
5 -9 11 1.88 2.34
5 9 11 0.91 1.51
-9 -10 11 16.14 4.08
-9 10 11 19.53 4.88
-8 -10 11 10.3 3.64
-8 10 11 9.05 3.09
-7 -10 11 20.97 4.24
-7 10 11 16.24 2.9
-6 -10 11 13.36 3.75
-6 10 11 10.15 2.9
-5 -10 11 2.75 5.78
-5 10 11 2.67 4.93
-4 -10 11 20.3 3.9
-4 10 11 20.86 3.88
-3 -10 11 13.55 3.77
-3 10 11 14.99 3.83
-2 -10 11 10.32 3.62
-2 10 11 11.26 3.67
-1 -10 11 19.66 3.99
-1 10 11 27.59 4.19
0 -10 11 2.68 3.64
0 10 11 5.23 3.69
1 -10 11 -0.33 5.28
2 -10 11 2.14 4.29
2 10 11 2.56 5.12
3 -10 11 2.19 3.79
3 10 11 2.04 3.66
-7 -11 11 0.13 1.25
-6 -11 11 5.2 4.62
-6 11 11 9.81 3.94
-5 -11 11 19.78 4.47
-5 11 11 17.94 4
-4 11 11 0.27 5.71
-3 11 11 26.21 4.29
-2 -11 11 19.64 4.22
-2 11 11 19.76 4.05
-1 -11 11 4.83 3.54
-1 11 11 4.09 4.63
0 -11 11 33.94 4.69
0 11 11 27.15 4.32
1 -11 11 9.85 4.14
1 11 11 11.52 4.28
-16 0 12 1.25 4.38
-15 0 12 5.58 3.96
-14 0 12 24.86 3.2
-13 0 12 3.74 3.59
-12 0 12 -0.09 0.72
-11 0 12 3.52 1.57
-10 0 12 2.92 1.58
-9 0 12 31.64 1.79
-8 0 12 30.16 1.69
-7 0 12 7.62 1.57
-6 0 12 6.81 1.41
-5 0 12 6.52 1.48
-4 0 12 18.8 1.55
-3 0 12 0.89 1.21
-2 0 12 34.12 2.22
-1 0 12 4.45 1.31
0 0 12 5.5 1.15
1 0 12 71.54 2
2 0 12 9.78 1.25
3 0 12 98.59 2.14
4 0 12 29.59 1.45
5 0 12 0.42 0.89
6 0 12 33.74 1.8
7 0 12 8.32 1.65
8 0 12 1.27 1.74
9 0 12 16.11 2.06
10 0 12 2.84 2.07
-16 -1 12 2.41 3.87
-16 1 12 2.19 2.45
-15 -1 12 14.71 3.17
-15 1 12 12.87 2.98
-14 -1 12 5.78 2.66
-14 1 12 4.36 2.64
-13 -1 12 24.31 2.98
-13 1 12 19.48 2.36
-12 -1 12 62.61 3.49
-12 1 12 61.22 2.43
-11 -1 12 -0.29 0.95
-11 1 12 0.21 0.38
-10 -1 12 66.72 2.6
-10 1 12 61.15 2.25
-9 -1 12 26.54 1.96
-9 1 12 25.45 1.73
-8 -1 12 24.09 1.89
-8 1 12 23.14 1.66
-7 -1 12 4.26 1.93
-7 1 12 2.67 1.37
-6 -1 12 8.48 1.51
-6 1 12 7.13 1.47
-5 -1 12 8.26 1.51
-5 1 12 7.73 1.42
-4 -1 12 44.8 1.93
-4 1 12 44.76 1.93
-3 -1 12 10.81 1.46
-3 1 12 10.68 1.45
-2 -1 12 9.43 1.45
-2 1 12 8.87 1.38
-1 -1 12 83.67 2.35
-1 1 12 80.76 2.35
0 -1 12 27.65 1.52
0 1 12 25.84 1.5
1 -1 12 7.29 1.32
1 1 12 6.23 1.28
2 -1 12 22.41 1.6
2 1 12 23.2 1.26
3 -1 12 37.49 2.12
3 1 12 38.14 1.65
4 -1 12 24.62 1.56
4 1 12 24.81 1.4
5 -1 12 45.6 1.83
5 1 12 50.62 1.76
6 -1 12 54.37 2.01
6 1 12 52.56 1.79
7 -1 12 0.86 1.97
7 1 12 1.9 1.38
8 -1 12 23.98 2.11
8 1 12 26.91 2.16
9 -1 12 17.54 2.42
9 1 12 18.77 2.1
10 -1 12 1.69 2.5
10 1 12 0.06 0.06
-15 -2 12 14.01 3.09
-15 2 12 17.16 2.55
-14 -2 12 6.51 3.06
-14 2 12 8.1 2.08
-13 -2 12 4.42 2.71
-13 2 12 2.89 1.52
-12 -2 12 38.17 2.42
-12 2 12 36.21 1.96
-11 -2 12 4.72 1.54
-11 2 12 3.76 1.66
-10 -2 12 9.7 1.55
-10 2 12 9.88 1.64
-9 -2 12 23.77 1.66
-9 2 12 24.47 1.76
-8 -2 12 23.36 1.6
-8 2 12 21.72 1.87
-7 -2 12 24.92 1.85
-7 2 12 23.25 1.75
-6 -2 12 66.24 2
-6 2 12 66.78 2.29
-5 -2 12 59.01 2.2
-5 2 12 56.85 2.07
-4 -2 12 13.04 1.52
-4 2 12 12.38 1.53
-3 -2 12 20.55 1.99
-3 2 12 20.82 1.53
-2 -2 12 49.2 1.99
-2 2 12 50.08 1.91
-1 -2 12 31.9 1.58
-1 2 12 32.69 2.21
0 -2 12 3.41 1.41
0 2 12 3.07 1.34
1 -2 12 27.09 1.58
1 2 12 27.96 1.56
2 -2 12 0.51 1.88
2 2 12 -0.08 0.29
3 -2 12 42.44 1.9
3 2 12 41.45 1.86
4 -2 12 15.79 1.61
4 2 12 13.82 1.39
5 -2 12 20.99 1.77
5 2 12 20.25 1.75
6 -2 12 6.87 1.44
6 2 12 5.7 1.67
7 -2 12 24.48 2.03
7 2 12 20.93 1.97
8 -2 12 1.95 1.88
8 2 12 1.62 1.72
9 -2 12 19.97 2.56
9 2 12 20.14 2.24
-15 -3 12 19.73 3.36
-15 3 12 19.34 2.32
-14 -3 12 1.11 2.18
-14 3 12 0.03 1.07
-13 -3 12 12.01 2.24
-13 3 12 13.63 2.06
-12 -3 12 14.15 2.07
-12 3 12 15.26 1.91
-11 -3 12 -0.05 0.14
-11 3 12 1.7 2.1
-10 -3 12 24.68 1.74
-10 3 12 23.48 2.17
-9 -3 12 6.17 1.5
-9 3 12 4.57 1.81
-8 -3 12 1.13 1.33
-8 3 12 1.51 1.52
-7 -3 12 9.76 1.56
-7 3 12 10.29 1.65
-6 -3 12 14.29 1.45
-6 3 12 16.07 2.03
-5 -3 12 5.35 1.3
-5 3 12 5.47 1.67
-4 -3 12 12.85 1.97
-4 3 12 12.8 1.94
-3 -3 12 29.17 1.78
-3 3 12 32.31 2.09
-2 -3 12 73.81 2.01
-2 3 12 75.03 2.84
-1 -3 12 61.18 1.92
-1 3 12 58.19 2.59
0 -3 12 58.61 2.26
0 3 12 54.27 2.06
1 -3 12 29.24 1.96
1 3 12 27.45 1.56
2 -3 12 88.39 2.73
2 3 12 85.42 2.52
3 -3 12 25.75 1.7
3 3 12 25.94 2.33
4 -3 12 -0.14 0.36
4 3 12 0.28 1.03
5 -3 12 35.58 1.81
5 3 12 32.83 1.92
6 -3 12 41.31 2.18
6 3 12 46.11 2.59
7 -3 12 7.5 1.85
7 3 12 10.09 2.1
8 -3 12 15.8 2.1
8 3 12 18.03 2.38
9 -3 12 17.53 2.28
9 3 12 18.15 1.89
-15 4 12 2.44 2.36
-14 -4 12 8.88 3.33
-14 4 12 9.18 2.17
-13 -4 12 5.62 2.37
-13 4 12 6.31 2.04
-12 -4 12 0.14 0.66
-12 4 12 -0.23 1.78
-11 -4 12 48.96 2.55
-11 4 12 45.61 2.65
-10 -4 12 0.13 0.63
-10 4 12 0.38 4.27
-9 -4 12 12.27 1.56
-9 4 12 12.97 1.95
-8 -4 12 2.59 1.38
-8 4 12 1.32 2.25
-7 -4 12 8.73 1.67
-7 4 12 9 1.66
-6 -4 12 3.24 1.64
-6 4 12 4.38 1.93
-5 -4 12 8.06 1.58
-5 4 12 6.45 1.79
-4 -4 12 37.9 2
-4 4 12 37.58 3.12
-3 -4 12 9.94 1.59
-2 -4 12 2.82 1.43
-2 4 12 4.13 2.91
-1 -4 12 11.61 1.4
-1 4 12 12.64 1.87
0 -4 12 3.42 1.41
0 4 12 3.43 1.36
1 -4 12 60.06 2.99
1 4 12 64.5 2.88
2 -4 12 19.15 1.61
2 4 12 17.14 2.19
3 -4 12 51.04 2.04
3 4 12 53.94 2.86
4 -4 12 36.14 1.73
4 4 12 35.21 2.71
5 -4 12 16.25 1.55
5 4 12 12.23 2.44
6 -4 12 37.54 2.16
6 4 12 35.34 3
7 -4 12 15.39 1.98
7 4 12 11.6 2.19
8 -4 12 1.62 1.89
8 4 12 0.46 1.33
9 -4 12 2.27 2.42
9 4 12 3.41 2.05
-14 -5 12 2.53 5.05
-14 5 12 7.01 2.33
-13 -5 12 17.51 3.02
-13 5 12 18.92 2.23
-12 -5 12 18.18 3
-12 5 12 15.6 2.43
-11 -5 12 2.5 3.53
-11 5 12 2.81 2.7
-10 -5 12 0.69 2.58
-10 5 12 0.59 2.84
-9 -5 12 37.28 2.73
-9 5 12 35.9 2.39
-8 -5 12 4.89 1.98
-8 5 12 2.65 1.7
-7 -5 12 9.94 2.05
-7 5 12 10 2.12
-6 -5 12 18.17 1.77
-6 5 12 14.87 2.15
-5 -5 12 33.89 2.4
-5 5 12 34.36 2.32
-4 -5 12 42.62 2.09
-3 -5 12 4.77 1.55
-2 -5 12 24.87 2.22
-2 5 12 23.6 2.11
-1 -5 12 8.4 1.46
-1 5 12 8.81 1.78
0 -5 12 22.39 1.67
0 5 12 22.84 1.52
1 -5 12 2.84 1.82
1 5 12 5.43 1.85
2 -5 12 39.95 2.82
2 5 12 44.27 4.04
3 -5 12 22.04 1.71
3 5 12 25.56 3.68
4 -5 12 0.77 1.45
4 5 12 -0.51 1.71
5 -5 12 3.46 1.82
5 5 12 2.34 2.19
6 -5 12 21.28 2.28
6 5 12 21.5 2.79
7 -5 12 18.92 2.59
7 5 12 15.57 2.93
8 -5 12 40.25 2.93
8 5 12 38.37 3.36
-14 -6 12 2.84 3.83
-14 6 12 3.82 2.65
-13 6 12 -0.31 8.96
-12 -6 12 7.66 3.02
-12 6 12 8.33 2.61
-11 -6 12 9.83 2.6
-11 6 12 9 2.98
-10 -6 12 1.9 2.68
-10 6 12 0.25 0.87
-9 -6 12 37.88 2.9
-9 6 12 33.34 2.43
-8 -6 12 1.6 1.52
-8 6 12 2.08 3.41
-7 -6 12 21.45 3.5
-7 6 12 19.45 2.49
-6 -6 12 13.23 3.19
-6 6 12 10.75 2.29
-5 -6 12 30.01 2.45
-4 -6 12 3.03 1.66
-4 6 12 1.59 1.98
-3 -6 12 6.52 1.59
-3 6 12 9.01 2.53
-2 -6 12 1.05 1.49
-2 6 12 -0.22 2.04
-1 -6 12 0.17 2.32
0 -6 12 35.92 2.15
0 6 12 38.14 3.44
1 -6 12 7.01 1.76
1 6 12 6.62 2.16
2 -6 12 4.6 1.85
2 6 12 2.57 2.96
3 -6 12 -0.52 1.47
3 6 12 0.82 2.32
4 -6 12 20.32 2.17
4 6 12 18.34 2.57
5 -6 12 1.99 1.6
5 6 12 -0.22 0.99
6 -6 12 50.66 2.94
6 6 12 49.77 3.43
7 -6 12 5.59 2.02
7 6 12 3.53 3.11
8 -6 12 9.44 2.34
8 6 12 7.61 2.99
-13 -7 12 4.76 3.7
-13 7 12 3.41 3.39
-12 -7 12 10.06 3.18
-12 7 12 9.67 3.21
-11 -7 12 0.14 4.54
-11 7 12 1.89 4.73
-10 -7 12 8.28 2.85
-10 7 12 8.01 2.85
-9 -7 12 -0.49 1.22
-9 7 12 0.19 4.96
-8 -7 12 7.09 3.14
-8 7 12 3.94 2.91
-7 -7 12 2.37 3.46
-7 7 12 2.64 2.52
-6 -7 12 1.58 3.11
-6 7 12 0.32 2.98
-5 -7 12 8.92 3.11
-5 7 12 12.39 3.16
-4 -7 12 10.36 3.25
-4 7 12 11.64 2.77
-3 -7 12 30.56 2.55
-3 7 12 38.23 3.59
-2 -7 12 23.73 1.99
-2 7 12 25.8 3.25
-1 -7 12 11.46 1.8
-1 7 12 8.67 2.93
0 -7 12 18.39 1.99
0 7 12 22.32 3.3
1 -7 12 5.87 1.96
1 7 12 7.71 2.22
2 -7 12 53.5 3.15
2 7 12 58.88 3.2
3 -7 12 33.2 4.12
3 7 12 33.26 4.1
4 -7 12 32.38 3.08
4 7 12 29.83 4.09
5 -7 12 9.36 2.3
5 7 12 6.49 3.64
6 -7 12 16.92 2.45
6 7 12 12.79 3.99
7 -7 12 1.29 2.7
7 7 12 1.74 2.36
-12 -8 12 1.99 6.06
-12 8 12 1.88 3.45
-11 -8 12 -0.38 1.33
-11 8 12 -0.53 286.43
-10 -8 12 10.59 3.05
-10 8 12 8.65 4.51
-9 -8 12 1.11 5.19
-8 -8 12 11.19 3.63
-8 8 12 10.08 4.3
-7 -8 12 17.18 3.62
-7 8 12 11.91 2.4
-6 -8 12 6.91 3.74
-6 8 12 10.22 3.34
-5 -8 12 0.15 8.12
-5 8 12 -0.28 0.71
-4 -8 12 11.82 3.34
-4 8 12 10.6 3.11
-3 -8 12 1.04 2.82
-3 8 12 1.67 2.05
-2 -8 12 1.24 1.68
-2 8 12 3.39 3.3
-1 -8 12 19.53 2.45
-1 8 12 20.87 3.46
0 -8 12 0.61 1.17
0 8 12 1.8 4.26
1 -8 12 2.99 2.36
1 8 12 1.95 3.97
2 -8 12 6.37 3.88
2 8 12 6.36 2.47
3 -8 12 0.91 8.14
3 8 12 0.96 2.63
4 -8 12 10.26 3.62
4 8 12 10.35 3.76
5 -8 12 6.39 3.36
5 8 12 5.17 3.78
6 -8 12 6.91 3.44
6 8 12 8.65 2.97
-10 -9 12 5 4.08
-10 9 12 1.83 5.26
-9 -9 12 5.02 3.77
-9 9 12 3.98 4.99
-8 -9 12 4.83 3.98
-8 9 12 4.64 3.67
-7 -9 12 6.24 3.83
-7 9 12 10.25 2.96
-6 -9 12 4.99 3.86
-6 9 12 3.43 3.08
-5 -9 12 13.87 3.86
-5 9 12 14.1 3.61
-4 -9 12 -0.49 34.34
-4 9 12 4.41 3.78
-3 -9 12 1.68 2.33
-3 9 12 0.99 5.47
-2 -9 12 5.9 3.12
-2 9 12 4.17 3.55
-1 -9 12 20.44 3.88
-1 9 12 21.59 3.78
0 -9 12 14.78 2.5
0 9 12 13.45 3.55
1 -9 12 24.61 4.1
1 9 12 22.38 4.08
2 -9 12 12.75 2.87
2 9 12 13.16 3.67
3 -9 12 6.85 3.6
3 9 12 8.42 3.86
4 -9 12 3.63 3.06
4 9 12 1.36 4.69
-8 -10 12 6.9 4.11
-8 10 12 1.98 6.24
-7 -10 12 1.99 8.3
-7 10 12 1.52 4.16
-6 -10 12 10.16 4.2
-6 10 12 10.45 3.98
-5 -10 12 0.6 17.89
-4 -10 12 3.42 4.08
-4 10 12 3.75 3.95
-3 -10 12 25.96 3.98
-3 10 12 25.06 4.15
-2 -10 12 -0.24 13.34
-2 10 12 2.21 3.28
-1 -10 12 5.55 3.98
-1 10 12 7.86 4.04
0 -10 12 -0.52 1.49
1 -10 12 2.28 2.99
1 10 12 0.83 8.93
2 -10 12 0.69 2
-5 -11 12 2.78 5.4
-5 11 12 3.43 5.12
-3 11 12 -0.2 1.13
-2 -11 12 -0.19 3.36
-2 11 12 -0.29 4.06
-1 -11 12 7.46 4.21
-1 11 12 9.95 4.6
-15 0 13 19.38 4.97
-14 0 13 -0.16 3.5
-13 0 13 0.81 2.62
-12 0 13 16.34 2.2
-11 0 13 50.85 2.65
-10 0 13 1.66 1.98
-9 0 13 166.94 3.56
-8 0 13 58.15 3.05
-7 0 13 23.67 2.38
-6 0 13 192.15 4.45
-5 0 13 94.63 2.66
-4 0 13 45.62 2.09
-3 0 13 277.88 3.98
-2 0 13 1.37 3.08
-1 0 13 0.78 0.88
0 0 13 178.26 2.93
1 0 13 62.01 2.05
2 0 13 17.12 1.63
3 0 13 188.41 3.39
4 0 13 22.2 1.47
5 0 13 0.54 0.97
6 0 13 0.97 1.44
7 0 13 4.67 1.77
8 0 13 3.14 2.68
9 0 13 5.56 1.96
-15 -1 13 7.75 3.71
-15 1 13 9.65 2.98
-14 -1 13 4.24 2.7
-14 1 13 5.78 2.97
-13 -1 13 39.29 3.44
-13 1 13 33.65 2.27
-12 -1 13 2.66 3.12
-12 1 13 3.62 1.76
-11 -1 13 32.07 2.41
-11 1 13 32.92 2.09
-10 -1 13 19 2.04
-10 1 13 19.62 1.78
-9 -1 13 16.39 2
-9 1 13 18.07 1.71
-8 -1 13 32.08 2.69
-8 1 13 33.64 1.83
-7 -1 13 75.43 3.28
-7 1 13 73.9 2.55
-6 -1 13 1.54 2.2
-6 1 13 -0.07 0.29
-5 -1 13 84.75 2.61
-5 1 13 81.38 3.1
-4 -1 13 63.34 2.34
-4 1 13 65.13 2.31
-3 -1 13 3.96 1.87
-3 1 13 5.38 1.55
-2 -1 13 153.79 3.9
-2 1 13 145.54 3.81
-1 -1 13 134 2.59
-1 1 13 130.56 2.93
0 -1 13 33.85 1.74
0 1 13 32.26 1.71
1 -1 13 83.71 2.27
1 1 13 78.27 2.2
2 -1 13 24.68 2
2 1 13 21.16 1.67
3 -1 13 4.96 1.54
3 1 13 4.16 1.5
4 -1 13 30.08 1.7
4 1 13 30.23 1.56
5 -1 13 102.6 2.87
5 1 13 102.07 2.46
6 -1 13 5.16 1.64
6 1 13 5.54 1.32
7 -1 13 31.72 2.59
7 1 13 32.88 2.25
8 -1 13 10.08 2.42
8 1 13 7.68 1.9
9 -1 13 0.28 0.38
9 1 13 0.54 0.48
-15 -2 13 6.75 3.1
-15 2 13 5.09 2.48
-14 -2 13 1.25 3.58
-14 2 13 1.1 2.22
-13 -2 13 18.02 3.01
-13 2 13 17.55 2.15
-12 -2 13 14.81 2.67
-12 2 13 14.63 1.94
-11 -2 13 9.11 2.03
-11 2 13 7.73 1.57
-10 -2 13 17.39 2.05
-10 2 13 17.61 1.67
-9 -2 13 107.31 3.03
-9 2 13 103.94 2.66
-8 -2 13 50.27 3.07
-8 2 13 47.36 2
-7 -2 13 46.97 2.91
-7 2 13 43.02 2.23
-6 -2 13 184.99 3.95
-6 2 13 183.44 3.45
-5 -2 13 87.23 2.66
-5 2 13 84.71 3.21
-4 -2 13 52.88 2.76
-4 2 13 50.58 2.13
-3 -2 13 191.18 4.37
-3 2 13 185.05 3.32
-2 -2 13 131.16 2.56
-2 2 13 132.06 3.67
-1 -2 13 49.41 1.9
-1 2 13 46.94 2.62
0 -2 13 101.66 2.43
0 2 13 98.11 2.32
1 -2 13 136.92 3.21
1 2 13 129.66 2.96
2 -2 13 24.38 2.01
2 2 13 24.44 1.94
3 -2 13 37.31 1.76
3 2 13 39.93 2.21
4 -2 13 46.76 2.14
4 2 13 47.45 2.06
5 -2 13 2.72 1.95
5 2 13 1.14 1.08
6 -2 13 7.91 1.74
6 2 13 7.06 1.49
7 -2 13 15.85 2.38
7 2 13 17.69 2.03
8 -2 13 4.21 2.94
8 2 13 1.61 2.28
-15 -3 13 4.64 3.04
-15 3 13 3.54 2.9
-14 -3 13 6.04 3.63
-14 3 13 4.11 1.98
-13 -3 13 14.48 2.35
-13 3 13 15.39 1.86
-12 -3 13 34.29 2.48
-12 3 13 33.64 2.25
-11 -3 13 23.93 2.18
-11 3 13 22.83 1.98
-10 -3 13 69.94 2.38
-10 3 13 69.01 2.44
-9 -3 13 3.23 1.61
-9 3 13 4.44 1.94
-8 -3 13 74.89 2.76
-8 3 13 73.41 2.64
-7 -3 13 97.38 2.93
-7 3 13 93.11 3.42
-6 -3 13 6.94 1.7
-6 3 13 7.57 1.67
-5 -3 13 90.62 3.35
-5 3 13 97.42 3.37
-4 -3 13 123.75 3.69
-4 3 13 126.22 3.55
-3 -3 13 15.66 2.12
-3 3 13 15.84 3.18
-2 -3 13 87.19 2.28
-2 3 13 87.05 3.19
-1 -3 13 77.36 2.24
-1 3 13 74.64 3.01
0 -3 13 0.09 0.54
0 3 13 0.04 0.78
1 -3 13 110.96 3.02
1 3 13 113.98 2.51
2 -3 13 104.39 3.04
2 3 13 103.02 2.89
3 -3 13 8.13 1.52
3 3 13 7.03 2.18
4 -3 13 107.45 2.8
4 3 13 107.76 3.13
5 -3 13 4.46 1.89
5 3 13 4.28 1.99
6 -3 13 5.19 2
6 3 13 5.05 2.65
7 -3 13 21.63 2.45
7 3 13 24.2 2.19
8 -3 13 10.87 2.49
8 3 13 10.56 2.14
-14 -4 13 6.5 3.65
-14 4 13 7.45 2.13
-13 -4 13 0.85 4.2
-13 4 13 0.06 0.36
-12 -4 13 32.4 3.1
-12 4 13 33.47 2.28
-11 -4 13 3.7 2.53
-11 4 13 3.34 2.23
-10 -4 13 13.84 2.08
-10 4 13 15.94 2.16
-9 -4 13 32.22 2.25
-9 4 13 27.12 2.25
-8 -4 13 48.25 2.44
-8 4 13 48.53 3.02
-7 -4 13 15.1 2.29
-7 4 13 15.38 2.33
-6 -4 13 120.1 3.08
-6 4 13 121.45 3.62
-5 -4 13 58.47 2.4
-5 4 13 63.26 3.98
-4 -4 13 19.31 2.3
-4 4 13 18.74 3.48
-3 -4 13 197.82 3.7
-3 4 13 183.66 6.31
-2 -4 13 60.24 2.38
-2 4 13 59.78 4.07
-1 -4 13 35.26 2.1
-1 4 13 36.01 2.43
0 -4 13 135.16 3.26
0 4 13 138.84 3.04
1 -4 13 2.29 1.87
1 4 13 1.97 2.58
2 -4 13 0.42 2.34
2 4 13 0.13 1.33
3 -4 13 9.56 1.58
3 4 13 12.65 3.39
4 -4 13 22.58 1.85
4 4 13 20.65 2.63
5 -4 13 3.83 1.83
5 4 13 3.31 2.53
6 -4 13 25.11 2.5
6 4 13 23.46 3.04
7 -4 13 1.77 2.3
7 4 13 2.76 2.33
8 -4 13 0.41 0.86
8 4 13 0.7 4.21
-14 5 13 0.94 1.71
-13 -5 13 3.31 4.26
-13 5 13 1.55 2.17
-12 -5 13 2.63 3.87
-12 5 13 3.3 2.97
-11 -5 13 3.86 3.02
-11 5 13 2.99 3.75
-10 -5 13 43.78 4.38
-10 5 13 46.29 2.71
-9 -5 13 3.51 2.14
-9 5 13 3.55 2.22
-8 -5 13 57.41 3.11
-8 5 13 51.86 3.15
-7 -5 13 33.82 2.66
-7 5 13 33.99 2.71
-6 -5 13 0.01 0.07
-6 5 13 -0.17 0.44
-5 -5 13 75.49 2.58
-4 -5 13 8.62 1.67
-3 -5 13 1.17 1.63
-2 -5 13 29.7 2.52
-2 5 13 27.74 3.52
-1 -5 13 26.46 1.75
-1 5 13 22.36 3.35
0 -5 13 14.86 1.66
1 -5 13 54.27 2.19
1 5 13 51.72 4.34
2 -5 13 111.66 4.03
2 5 13 116.93 5.72
3 -5 13 7.25 2.38
3 5 13 8.58 2.26
4 -5 13 41.74 2.54
4 5 13 40.23 3.05
5 -5 13 18.13 2.72
5 5 13 16.94 2.8
6 -5 13 1.98 2.01
6 5 13 4.33 3.1
7 -5 13 2.87 3.03
7 5 13 0.7 1.11
-13 -6 13 11.2 4.18
-13 6 13 12.66 2.89
-12 -6 13 31.84 4.36
-12 6 13 31.81 2.76
-11 -6 13 17.73 3.79
-11 6 13 14.17 2.45
-10 -6 13 16.44 3.7
-10 6 13 16.46 2.37
-9 -6 13 45.47 4.44
-9 6 13 37.64 3.18
-8 -6 13 36.3 4.15
-8 6 13 32.56 2.91
-7 -6 13 14.08 3.36
-7 6 13 8.88 2.47
-6 -6 13 138.47 4.11
-5 -6 13 88.91 3.51
-4 -6 13 26.76 2.01
-3 -6 13 213.51 4.72
-2 -6 13 64.54 3.13
-2 6 13 63.17 4.46
-1 -6 13 65.15 2.57
-1 6 13 63.5 4.3
0 -6 13 110.51 3.11
1 -6 13 3.91 1.62
1 6 13 5 3.36
2 -6 13 3.88 1.79
2 6 13 5.27 3.32
3 -6 13 14.37 2.16
3 6 13 15.67 2.59
4 -6 13 20.58 2.84
4 6 13 20.01 2.8
5 -6 13 2.99 2.21
5 6 13 1.43 2.71
6 -6 13 14.35 2.36
6 6 13 11.27 3.09
-12 -7 13 2.04 4.91
-12 7 13 2.63 3.68
-11 -7 13 23.58 4.17
-11 7 13 21.67 2.7
-10 -7 13 30.91 4.49
-10 7 13 33.67 3.32
-9 -7 13 17.26 3.75
-9 7 13 15.4 2.9
-8 -7 13 40.23 4.4
-8 7 13 36 4.42
-7 -7 13 32.68 4.15
-7 7 13 33.68 4.06
-6 -7 13 2.79 3.09
-5 -7 13 30.18 3.98
-4 -7 13 49.5 2.99
-3 -7 13 9.85 2.32
-2 -7 13 19.27 3.44
-2 7 13 19.43 3.62
-1 -7 13 33.98 2.23
-1 7 13 39.19 3.76
0 -7 13 0.23 1.13
1 -7 13 41.94 2.49
1 7 13 42.96 4.16
2 -7 13 42.61 2.54
2 7 13 43.07 4.51
3 -7 13 0.34 21.77
3 7 13 0.04 0.36
4 -7 13 47.19 4.86
4 7 13 51.12 4.97
5 -7 13 10.86 4.32
5 7 13 7.9 3.5
6 -7 13 2.03 3.37
6 7 13 -0.15 26.2
-11 -8 13 5.96 4.62
-11 8 13 6.52 3.96
-10 -8 13 3.51 3.19
-10 8 13 1.48 3.8
-9 -8 13 12.49 3.75
-9 8 13 12.42 4.58
-8 -8 13 12.12 3.6
-8 8 13 10.43 4.68
-7 -8 13 7.05 3.69
-6 -8 13 41.48 4.5
-5 -8 13 17.56 3.73
-4 -8 13 5.88 3.09
-4 8 13 3.33 4.34
-3 -8 13 24.72 3.79
-3 8 13 27.2 3.65
-2 -8 13 23.68 2.6
-2 8 13 26.43 3.67
-1 -8 13 6.66 2.27
-1 8 13 8.94 3.57
0 -8 13 18.01 2.57
0 8 13 19.32 3.66
1 -8 13 9.39 2.48
1 8 13 12.72 3.67
2 -8 13 3.47 2.66
3 -8 13 1.77 3.89
3 8 13 2.72 4.65
4 -8 13 6.15 3.82
4 8 13 3.25 4.07
-9 -9 13 5.02 4.91
-9 9 13 4.14 8.16
-8 -9 13 14.77 3.89
-7 -9 13 9.36 3.86
-6 -9 13 4.25 3.74
-5 -9 13 18.64 3.94
-5 9 13 19.5 4.16
-4 -9 13 37.6 4.5
-4 9 13 41.43 4.27
-2 -9 13 56.09 4.64
-2 9 13 55.96 4.7
-1 9 13 11.65 4.02
0 -9 13 8.38 2.54
0 9 13 8.03 4.27
1 -9 13 18.8 4.25
1 9 13 10.92 4.66
2 -9 13 8.61 2.7
3 -9 13 2.33 2.25
-7 -10 13 4.92 4.33
-6 -10 13 37.32 4.65
-6 10 13 37.99 4.41
-5 -10 13 13.06 4.58
-5 10 13 12.04 4.48
-4 10 13 13.41 4.44
-3 10 13 58.51 4.99
-2 -10 13 6.03 3.43
-2 10 13 7.84 4.18
-1 10 13 8.97 4.7
0 10 13 43.9 4.73
-15 0 14 -0.02 2.58
-14 0 14 -0.04 0.44
-13 0 14 19.6 3.06
-12 0 14 6.98 2.16
-11 0 14 0.24 1.45
-10 0 14 103.42 3.22
-9 0 14 5.26 2.52
-8 0 14 40.83 2.99
-7 0 14 23.89 2.59
-6 0 14 22.79 2.57
-5 0 14 54.38 2.34
-4 0 14 55.72 2.36
-3 0 14 0.77 2.65
-2 0 14 64.04 3.02
-1 0 14 8.58 1.51
0 0 14 1.8 1.6
1 0 14 5.53 1.54
2 0 14 0.01 0.54
3 0 14 6.78 1.96
4 0 14 0.78 0.86
5 0 14 0.03 1.66
6 0 14 2.22 1.79
7 0 14 -0.36 2.13
8 0 14 3.48 2.39
-15 -1 14 12.93 3.36
-15 1 14 8 3.28
-14 -1 14 32.2 3.45
-14 1 14 36.93 3.52
-13 -1 14 1.7 2.07
-13 1 14 0.46 0.75
-12 -1 14 25.54 2.45
-12 1 14 30.63 2.52
-11 -1 14 15.52 2.81
-11 1 14 14.51 1.89
-10 -1 14 1.36 1.43
-10 1 14 1.77 1.93
-9 -1 14 4.26 2.56
-9 1 14 4.97 1.87
-8 -1 14 36.85 2.97
-8 1 14 33.16 2.27
-7 -1 14 0.37 0.37
-7 1 14 -0.28 2.22
-6 -1 14 1.73 2.03
-6 1 14 4.21 2.22
-5 -1 14 13.53 1.82
-5 1 14 12.57 2.25
-4 -1 14 8.15 2.12
-4 1 14 8.36 1.73
-3 -1 14 19.23 2.23
-3 1 14 17.38 1.85
-2 -1 14 59.27 2.41
-2 1 14 55.65 2.9
-1 -1 14 20.23 1.67
-1 1 14 18.91 1.89
0 -1 14 0.7 0.48
0 1 14 0.37 1.73
1 -1 14 19.92 1.71
1 1 14 21.18 1.72
2 -1 14 7.43 1.91
2 1 14 7.4 1.69
3 -1 14 21.23 1.82
3 1 14 22.57 2.2
4 -1 14 31.02 1.8
4 1 14 31.33 2.04
5 -1 14 -0.14 1.08
5 1 14 0.05 1.33
6 -1 14 30.51 2.18
6 1 14 29.97 1.79
7 -1 14 17.28 2.15
7 1 14 19.69 2.14
8 -1 14 2.67 2.35
8 1 14 4.14 1.95
-14 -2 14 1.9 4.94
-14 2 14 1.53 3.72
-13 -2 14 6.66 2.87
-13 2 14 5.72 2.2
-12 -2 14 15.02 2.77
-12 2 14 13.3 1.96
-11 -2 14 2.46 3.2
-11 2 14 0.84 1.98
-10 -2 14 13.89 2.03
-10 2 14 13.37 1.79
-9 -2 14 9.2 2.49
-9 2 14 8.22 1.68
-8 -2 14 6.98 2.41
-8 2 14 5.22 1.96
-7 -2 14 14.7 2.48
-7 2 14 12.34 1.85
-6 -2 14 0.05 0.92
-6 2 14 0.58 1.89
-5 -2 14 2.09 2.95
-5 2 14 0.61 2.04
-4 -2 14 12.43 2.19
-4 2 14 10.13 2.11
-3 -2 14 31.45 2.51
-3 2 14 33.43 2.59
-2 -2 14 13.92 1.58
-2 2 14 13.7 2.27
-1 -2 14 22.48 1.71
-1 2 14 22.74 1.97
0 -2 14 12.39 1.59
0 2 14 11.08 1.58
1 -2 14 27.35 2.14
1 2 14 27.73 1.81
2 -2 14 0.24 0.79
2 2 14 1.27 2.61
3 -2 14 8.65 1.64
3 2 14 7.52 2.01
4 -2 14 0.27 0.22
4 2 14 0.89 1.81
5 -2 14 4.01 1.55
5 2 14 2.79 1.68
6 -2 14 1.44 1.84
6 2 14 0.24 1.87
7 -2 14 2.03 2
7 2 14 3.62 1.92
-14 -3 14 19.78 3.3
-14 3 14 18.32 2.43
-13 -3 14 4.36 3.32
-13 3 14 3.81 2.19
-12 -3 14 31.15 3.14
-12 3 14 31.4 2.34
-11 -3 14 24.87 2.83
-11 3 14 20.89 2.05
-10 -3 14 1.08 4.22
-10 3 14 0.95 0.53
-9 -3 14 35.63 3.03
-9 3 14 30.55 2.02
-8 -3 14 8.45 2.38
-8 3 14 6.27 2.1
-7 -3 14 19 2.59
-7 3 14 16.01 2.03
-6 -3 14 27.42 2.56
-6 3 14 27.8 2.63
-5 -3 14 14.9 2.31
-5 3 14 12.22 2.28
-4 -3 14 48.39 2.89
-4 3 14 47 4.14
-3 -3 14 4.58 1.76
-3 3 14 3.24 2.92
-2 -3 14 1.22 2.92
-2 3 14 1.4 2.73
-1 -3 14 2.07 1.32
-1 3 14 1.89 1.83
0 -3 14 3.8 1.77
0 3 14 3.32 1.63
1 -3 14 19.14 2.07
1 3 14 20.26 2.37
2 -3 14 4.78 1.64
2 3 14 3.9 2.14
3 -3 14 12.55 1.76
3 3 14 15.92 2.54
4 -3 14 27.71 1.8
4 3 14 30.43 2.34
5 -3 14 1.65 1.07
5 3 14 1.65 1.99
6 -3 14 5.82 2.09
6 3 14 8.53 2.31
7 -3 14 17.03 2.18
7 3 14 16.07 2.49
-14 -4 14 0.84 25.27
-14 4 14 1.13 0.99
-13 -4 14 16.25 5.02
-13 4 14 15.73 2.35
-12 -4 14 -0.62 1.56
-12 4 14 0.57 5.92
-11 -4 14 7.71 2.58
-11 4 14 6.38 1.92
-10 -4 14 13.27 2.17
-10 4 14 16.31 1.88
-9 -4 14 16.34 2.54
-9 4 14 16.45 2.66
-8 -4 14 13.32 2.59
-8 4 14 13.79 2.59
-7 -4 14 62.18 3.26
-7 4 14 63.22 3.38
-6 -4 14 3.81 2.19
-6 4 14 2.62 2.92
-5 -4 14 48.31 2.93
-5 4 14 44.18 4.5
-4 -4 14 0.71 2.72
-4 4 14 1.27 2.59
-3 -4 14 0.03 0.15
-3 4 14 -0.18 1.33
-2 -4 14 0.13 1.48
-2 4 14 0.64 2.64
-1 -4 14 7.72 1.81
-1 4 14 7.32 2.05
0 -4 14 4.49 1.55
0 4 14 3.46 1.93
1 -4 14 13.76 1.97
1 4 14 15.23 3.38
2 -4 14 4.31 1.87
2 4 14 3.47 2.84
3 -4 14 1.13 1.69
3 4 14 1.69 2.69
4 -4 14 3 2.09
4 4 14 3.84 2.39
5 -4 14 8.63 2.3
5 4 14 7 2.53
6 -4 14 3.28 2.2
6 4 14 2.31 2.34
7 -4 14 4.86 2.66
7 4 14 3.31 2.74
-13 -5 14 1.07 8.31
-13 5 14 2.73 2.37
-12 -5 14 1.97 7.27
-12 5 14 0.32 0.24
-11 -5 14 32.57 4.37
-11 5 14 33.26 2.7
-10 -5 14 2.95 3.23
-10 5 14 2.03 3.06
-9 -5 14 2.61 4.8
-9 5 14 2.65 2.98
-8 -5 14 4.95 2.93
-8 5 14 7.16 2.55
-7 -5 14 -0.27 1.72
-7 5 14 -0.09 2.42
-6 -5 14 14.86 1.97
-5 -5 14 39.85 2.83
-5 5 14 40.83 4.4
-4 -5 14 8.33 2.1
-4 5 14 7.79 3.27
-3 -5 14 2.93 2.22
-3 5 14 3 4.85
-2 -5 14 16.91 2.53
-2 5 14 15.14 3.55
-1 -5 14 5.02 1.98
-1 5 14 6.69 2.52
0 -5 14 36.28 2.06
1 -5 14 18.48 1.85
2 -5 14 6.77 1.85
3 -5 14 5.45 1.97
3 5 14 5.1 2.93
4 -5 14 10.02 2.21
4 5 14 10.75 2.79
5 -5 14 7.7 4.13
5 5 14 4.99 3.26
6 -5 14 27.63 3.27
6 5 14 26.15 3.21
-12 -6 14 5.87 4.29
-12 6 14 6.24 3.29
-11 -6 14 1.93 2.44
-11 6 14 2.55 3.88
-10 -6 14 7.33 3.43
-10 6 14 5.44 3.21
-9 -6 14 2.53 4.04
-9 6 14 2.91 3.57
-8 -6 14 1.53 4.14
-8 6 14 1.09 4.83
-7 -6 14 16.33 3.64
-6 -6 14 -0.42 1.77
-5 -6 14 10.74 2.37
-4 -6 14 2.07 2.49
-4 6 14 0.16 5.77
-3 -6 14 0.58 1.52
-3 6 14 2.53 3.95
-2 -6 14 7.56 2.3
-2 6 14 6.2 3.86
-1 -6 14 4.27 2.42
0 -6 14 1.59 1.82
1 -6 14 10.38 2.11
2 -6 14 18.2 1.94
2 6 14 18.18 3.81
3 -6 14 29.71 2.23
3 6 14 32.06 3.09
4 -6 14 4.89 2.54
4 6 14 4.38 2.94
5 -6 14 2.04 2.55
5 6 14 2.37 2.24
-11 -7 14 2.55 4.48
-11 7 14 2.18 3.23
-10 -7 14 15.54 3.77
-10 7 14 14.21 3.48
-9 -7 14 13.23 3.83
-9 7 14 12.32 4.83
-8 -7 14 4.41 4.47
-7 -7 14 11.18 3.68
-6 -7 14 6.74 3.54
-5 -7 14 2.25 11.55
-4 -7 14 3.64 3.77
-4 7 14 0.67 5.18
-3 -7 14 0.52 4.22
-3 7 14 0.53 7.07
-2 -7 14 1.83 2.31
-1 -7 14 1.84 2.67
0 -7 14 10.46 2.12
1 -7 14 5.61 2.18
2 -7 14 -0.14 1.07
3 -7 14 3.76 2.87
4 -7 14 6.72 2.61
4 7 14 7.73 4.06
-10 -8 14 5.29 5.34
-10 8 14 4.12 5.74
-9 -8 14 1.73 3
-8 -8 14 3.79 3.52
-7 -8 14 1.53 6.32
-6 -8 14 0.31 7.99
-5 -8 14 3.2 3.53
-2 -8 14 1.5 3.87
-1 -8 14 1.41 3.08
0 -8 14 1.53 2.27
1 -8 14 8.2 2.65
2 -8 14 0.22 51.94
3 -8 14 1.36 1.96
-8 -9 14 25.72 4.55
-7 -9 14 3.91 4.61
-6 -9 14 3.21 3.79
-5 -9 14 0.47 5.05
1 -9 14 2.03 3.64
-14 0 15 4.1 2.7
-13 0 15 3.41 2.67
-12 0 15 5.12 2.43
-11 0 15 24.49 2.44
-10 0 15 0.4 1.71
-9 0 15 4.59 2.72
-8 0 15 69.05 3.63
-7 0 15 37.42 3
-6 0 15 29.37 2.82
-5 0 15 111.65 3.16
-4 0 15 16.22 2.42
-3 0 15 2.23 1.5
-2 0 15 168.3 3.69
-1 0 15 76.64 2.78
0 0 15 2.11 2.11
1 0 15 80.08 2.5
2 0 15 24.67 2.26
3 0 15 9.12 1.76
4 0 15 41.97 2.26
5 0 15 66.28 2.6
6 0 15 3.05 2.12
-14 -1 15 0.46 1.87
-14 1 15 0.58 0.83
-13 -1 15 0 2.64
-13 1 15 2.42 4.15
-12 -1 15 6.56 2.49
-12 1 15 6.7 2.46
-11 -1 15 9.51 2.06
-11 1 15 9.01 2.16
-10 -1 15 7.76 2.84
-10 1 15 6.98 2.61
-9 -1 15 33.08 3.13
-9 1 15 34.49 3.13
-8 -1 15 9.2 2.47
-8 1 15 6.38 2.69
-7 -1 15 15.51 2.66
-7 1 15 14.41 2.67
-6 -1 15 54.61 3.28
-6 1 15 60.28 3.3
-5 -1 15 16 2.38
-5 1 15 14.79 2.43
-4 -1 15 68.99 3.29
-4 1 15 67.4 2.63
-3 -1 15 100.02 3.71
-3 1 15 104.95 3.82
-2 -1 15 12.01 1.87
-2 1 15 9.87 2.33
-1 -1 15 37.81 2
-1 1 15 36.08 2.29
0 -1 15 52.84 2.19
0 1 15 50.21 2.16
1 -1 15 1.8 1.92
1 1 15 0.14 0.67
2 -1 15 63.95 2.8
2 1 15 61.42 2.73
3 -1 15 36.1 2.13
3 1 15 35.03 2.08
4 -1 15 10.38 1.87
4 1 15 11.51 1.84
5 -1 15 5.68 1.92
5 1 15 5.82 1.83
6 -1 15 10.97 2.36
6 1 15 10.76 3.1
-14 -2 15 -0.41 14.9
-14 2 15 0.49 2.28
-13 -2 15 15.49 3.27
-13 2 15 13.91 2.61
-12 -2 15 1.09 4.08
-12 2 15 0.66 3.71
-11 -2 15 15.7 2.22
-11 2 15 13.84 1.96
-10 -2 15 24.8 3
-10 2 15 22.28 2.4
-9 -2 15 0.04 3.16
-9 2 15 0.23 0.96
-8 -2 15 82.79 3.82
-8 2 15 85.75 3.05
-7 -2 15 42.97 3.18
-7 2 15 43.63 3.12
-6 -2 15 26.03 2.71
-6 2 15 28.09 2.74
-5 -2 15 67.21 3.3
-5 2 15 63.85 3.25
-4 -2 15 54.92 3.09
-4 2 15 53.51 3.09
-3 -2 15 13.27 1.95
-3 2 15 11.78 2.44
-2 -2 15 63.89 2.69
-2 2 15 59.98 3.21
-1 -2 15 64.9 2.34
-1 2 15 62.82 2.63
0 -2 15 13.18 1.94
0 2 15 13.25 1.71
1 -2 15 42.76 2.46
1 2 15 43.72 2.46
2 -2 15 32.43 2.04
2 2 15 30.16 2.35
3 -2 15 9.31 1.67
3 2 15 5.55 1.74
4 -2 15 35.31 2.21
4 2 15 34.79 2.15
5 -2 15 3.68 1.78
5 2 15 2.25 2.57
6 -2 15 1.6 3.32
6 2 15 0.93 2.71
-13 -3 15 5.05 5.59
-13 3 15 4.04 3.18
-12 -3 15 3.86 2.63
-12 3 15 5.69 2.9
-11 -3 15 1.44 6.18
-11 3 15 2.51 3.88
-10 -3 15 6.3 2.82
-10 3 15 4.19 2.15
-9 -3 15 11.27 2.75
-9 3 15 12.97 2.22
-8 -3 15 2.49 3.53
-8 3 15 6.2 2.23
-7 -3 15 4.25 3.82
-7 3 15 4.48 2.71
-6 -3 15 29.85 2.78
-6 3 15 33.33 2.86
-5 -3 15 11.11 3.68
-5 3 15 10.94 3.59
-4 -3 15 20.11 2.1
-4 3 15 21.24 3.85
-3 -3 15 45.55 2.48
-3 3 15 43.92 4.35
-2 -3 15 9.98 1.96
-2 3 15 5.24 2.47
-1 -3 15 52.98 2.57
-1 3 15 54.27 2.55
0 -3 15 52.91 2.6
0 3 15 50.68 2.54
1 -3 15 1.07 2.29
1 3 15 1.19 2.54
2 -3 15 41.03 2.18
2 3 15 38.54 2.46
3 -3 15 5.96 1.75
3 3 15 3.77 2.27
4 -3 15 6.27 1.83
4 3 15 6.3 2.8
5 -3 15 22.06 2.12
5 3 15 28.03 3.26
6 -3 15 13.51 2.44
6 3 15 11.43 2.46
-13 4 15 -0.15 1.27
-12 4 15 0.56 0.76
-11 4 15 16.36 2.11
-10 -4 15 20.3 4.21
-10 4 15 22.71 2.11
-9 -4 15 18.17 3.96
-9 4 15 17.09 2.38
-8 -4 15 79.54 5.34
-8 4 15 81.6 3.91
-7 -4 15 23.91 4.12
-7 4 15 27.39 2.97
-6 -4 15 14.34 2.58
-6 4 15 15.12 3.79
-5 -4 15 143.26 3.61
-5 4 15 144.3 6.55
-4 -4 15 37.78 2.43
-4 4 15 34.84 4.33
-3 -4 15 17.13 2.6
-3 4 15 17.77 3.72
-2 -4 15 94.96 3.07
-2 4 15 90.4 5.34
-1 -4 15 24.75 2.24
-1 4 15 22.45 2.65
0 -4 15 5.65 2.08
0 4 15 2.76 4.02
1 -4 15 74.64 2.56
1 4 15 79.6 5.03
2 -4 15 48.37 2.32
3 -4 15 2.03 1.86
3 4 15 1.73 5.66
4 -4 15 20.64 2.13
4 4 15 19.24 2.99
5 -4 15 12.12 2.47
5 4 15 10.76 2.45
-12 5 15 26.62 2.39
-11 -5 15 7.65 4.3
-11 5 15 7.72 2.29
-10 -5 15 4.2 4.56
-10 5 15 4.98 2.14
-9 -5 15 17.51 3.82
-9 5 15 18.07 2.51
-8 5 15 5.11 2.89
-7 -5 15 23.31 3.91
-7 5 15 27.22 4.44
-6 -5 15 28.19 2.76
-6 5 15 33.37 4.69
-5 -5 15 6.73 2.41
-5 5 15 7.73 3.82
-4 -5 15 13.22 2.56
-4 5 15 11.96 3.58
-3 -5 15 58.3 3.31
-3 5 15 62.5 4.86
-2 -5 15 4.69 2.3
-2 5 15 2.9 2.9
-1 -5 15 59.84 3.44
0 -5 15 58.97 2.81
1 -5 15 12.42 1.87
2 -5 15 9.05 1.87
3 -5 15 37.82 2.42
3 5 15 35.44 4.56
4 -5 15 3.27 2.24
4 5 15 3.28 4.59
5 -5 15 12.38 2.33
5 5 15 12.98 3.11
-11 -6 15 7.57 3.9
-11 6 15 8.9 4.02
-10 -6 15 17.72 3.91
-10 6 15 11.79 3.58
-9 -6 15 2.7 4.15
-8 -6 15 15.77 3.81
-7 6 15 26.52 4.74
-6 6 15 -0.44 2.73
-5 -6 15 52.34 4.37
-5 6 15 57.76 5.2
-4 -6 15 27.63 2.85
-4 6 15 25.04 4.3
-3 -6 15 22.41 2.73
-3 6 15 23.98 3.98
-2 -6 15 20.27 2.74
-2 6 15 22.97 4.1
-1 -6 15 8.13 4.26
0 -6 15 0.63 6.04
1 -6 15 19.87 2.41
2 -6 15 13.14 2
2 6 15 10.31 4.01
3 -6 15 0.11 0.21
3 6 15 -0.64 3.71
4 -6 15 3.67 2.26
4 6 15 4.28 6.04
-10 -7 15 5.63 4.08
-9 -7 15 4.94 4.09
-8 -7 15 4.08 3.56
-7 -7 15 6.73 3.81
-6 7 15 14.83 4.45
-5 -7 15 1.56 3.39
-5 7 15 4.17 4.49
-4 -7 15 8.28 3.66
-4 7 15 8.81 4.08
-3 -7 15 17.76 3.75
-3 7 15 11.54 4.61
-2 -7 15 8.92 3.65
-1 -7 15 25.94 4.37
0 -7 15 16.67 2.36
1 -7 15 0.61 1.81
2 -7 15 31.14 3.25
3 -7 15 4.08 2.58
-8 -8 15 27.77 4.47
-7 -8 15 18.57 4.28
-5 8 15 70.3 5.62
-4 8 15 33.29 4.86
-3 -8 15 21.52 4.12
-2 -8 15 50.7 4.85
-1 -8 15 20.51 4.13
0 -8 15 5.72 2.54
1 -8 15 13.78 2.76
-13 0 16 2.4 3
-12 0 16 7.9 3.47
-11 0 16 4.45 3.24
-9 0 16 -0.19 0.83
-8 0 16 35.87 3.29
-7 0 16 32.8 3.16
-6 0 16 -0.32 1.7
-5 0 16 1.32 1.35
-4 0 16 2.47 2.14
-3 0 16 27.85 2.3
-2 0 16 15.4 2.11
-1 0 16 0.9 1.41
0 0 16 0.03 0.25
2 0 16 0.05 1.13
3 0 16 -0.04 0.15
4 0 16 0.12 1.94
5 0 16 2.67 1.9
-13 -1 16 16.25 3.35
-13 1 16 16.95 3.68
-12 -1 16 0.36 2.76
-12 1 16 1.1 1.63
-11 -1 16 10.83 3.16
-11 1 16 9.36 3.09
-10 -1 16 47.51 3.69
-10 1 16 44.09 3.64
-9 -1 16 1.75 3.22
-9 1 16 -0.39 1.93
-8 -1 16 5.95 2.84
-8 1 16 5.09 2.87
-7 -1 16 19.52 2.92
-7 1 16 17.48 2.81
-6 -1 16 31.54 4.25
-6 1 16 25.95 2.93
-5 -1 16 14.86 2.49
-5 1 16 9.94 2.6
-4 -1 16 59.22 3.29
-4 1 16 62.38 3.4
-3 1 16 -0.01 0.04
-2 -1 16 21.71 2.19
-2 1 16 20.74 2.2
-1 -1 16 2.03 1.66
-1 1 16 1.71 2.68
0 1 16 1.05 2.02
1 -1 16 3.89 1.94
1 1 16 3.65 1.96
2 -1 16 5.54 1.8
2 1 16 4.83 2.69
3 -1 16 -0.31 1.61
3 1 16 -0.22 0.72
4 -1 16 13.43 2.27
4 1 16 11.69 2.29
5 -1 16 8.3 2.01
5 1 16 8.53 2.16
-13 -2 16 1.36 3.06
-13 2 16 0.2 0.52
-12 -2 16 29.77 4.95
-12 2 16 29.72 2.73
-11 -2 16 6.01 3.23
-11 2 16 4.04 3.22
-10 -2 16 1.08 4.86
-10 2 16 2.55 3.11
-9 -2 16 47.22 3.53
-9 2 16 50.08 3.61
-8 -2 16 0.65 0.82
-8 2 16 2.07 4.26
-7 -2 16 0.09 0.41
-7 2 16 3.73 2.82
-6 -2 16 60.29 3.39
-6 2 16 63.17 3.5
-5 -2 16 2.23 2.22
-5 2 16 0.9 3.09
-4 -2 16 0.89 6.53
-4 2 16 0.43 2.74
-3 -2 16 17.47 2.1
-3 2 16 14.7 2.58
-2 -2 16 3.64 1.79
-2 2 16 2.46 2.16
-1 -2 16 0.4 1.08
-1 2 16 0.92 2.92
0 -2 16 20.13 2.23
0 2 16 17.13 2.22
1 -2 16 2.69 2.17
1 2 16 2.95 2.45
2 -2 16 1.69 1.8
2 2 16 0.11 0.94
3 -2 16 2.46 1.85
3 2 16 2.52 1.95
4 -2 16 2.83 2.25
4 2 16 0.69 7.75
5 -2 16 1.27 1.56
5 2 16 0.41 2.1
-12 -3 16 1.83 7.66
-12 3 16 1.53 4.59
-11 -3 16 8.53 3.05
-11 3 16 7.08 2.6
-10 -3 16 9.34 4.08
-10 3 16 10.35 2.58
-9 -3 16 13.16 4
-9 3 16 12.69 3.02
-8 -3 16 11 4
-8 3 16 12.19 2.86
-7 -3 16 27.67 4.16
-7 3 16 30.07 3.13
-6 -3 16 2.33 2.42
-6 3 16 4.68 3.16
-5 -3 16 2.59 1.85
-5 3 16 4.21 3.16
-4 -3 16 6.6 1.91
-4 3 16 9.24 3.93
-3 -3 16 4.08 2.05
-3 3 16 4.17 3.72
-2 -3 16 6.99 2.38
-2 3 16 7.59 2.71
-1 -3 16 2.93 1.87
-1 3 16 2.81 2.84
0 -3 16 0.04 0.86
1 -3 16 10.57 1.82
1 3 16 6.67 2.1
2 -3 16 2.17 2.16
2 3 16 1.59 7.18
3 -3 16 2.69 2.2
3 3 16 -0.26 5.81
4 -3 16 9.84 2.12
4 3 16 8.6 2.81
-12 4 16 9.48 2.39
-11 4 16 11.96 2.78
-10 -4 16 4.24 5.8
-10 4 16 5.27 2.69
-9 -4 16 3.79 4.91
-9 4 16 5.73 3.72
-8 4 16 0.7 2.27
-7 -4 16 0.46 6.23
-6 -4 16 1.94 1.88
-5 -4 16 18.9 2.27
-5 4 16 17.58 4.07
-4 -4 16 3.76 2.42
-4 4 16 4.73 4.3
-3 -4 16 11.61 2.61
-3 4 16 11.66 4.08
-2 -4 16 -0.33 2.57
-1 -4 16 26.55 2.36
-1 4 16 27.41 2.95
0 -4 16 0.16 0.64
1 -4 16 1.44 2.05
2 -4 16 4.59 1.77
2 4 16 4.09 3.6
3 -4 16 2.38 2.04
3 4 16 1.17 3.64
4 -4 16 2.52 2.39
4 4 16 -0.16 1.91
-11 5 16 -0.01 0.04
-10 5 16 29.11 3.4
-9 5 16 7.45 3.61
-8 5 16 7.85 4.2
-7 -5 16 72.57 5.23
-7 5 16 69.05 5.71
-6 -5 16 -0.24 1.75
-6 5 16 2.23 3.47
-5 -5 16 18.1 2.76
-5 5 16 18.2 4.35
-3 -5 16 6.06 2.51
-3 5 16 3.02 4.91
-2 -5 16 -0.11 0.53
-1 -5 16 3.82 3.6
0 -5 16 3.83 2.91
1 -5 16 3.96 2.37
2 -5 16 9.91 2.04
2 5 16 8.32 2.92
3 -5 16 3.82 2.1
3 5 16 1.06 2.69
-10 6 16 6.17 4.91
-9 6 16 8.88 4.74
-7 6 16 -0.51 3.01
-6 -6 16 1.16 3.39
-6 6 16 -0.01 0.14
-5 -6 16 8.76 3.61
-5 6 16 13.27 4.24
-4 -6 16 1.34 2.21
-4 6 16 0.45 36.56
-3 -6 16 16.01 3.03
-3 6 16 15.61 4.36
-2 -6 16 2.2 2.88
-1 -6 16 4.03 2.98
0 -6 16 0.86 1.83
1 -6 16 12.87 2.44
2 -6 16 1.06 1.37
2 6 16 -0.68 2.87
-8 7 16 8.34 4.98
-7 7 16 7.87 5.74
-6 7 16 0.72 13.12
-5 7 16 0.59 13.48
-4 -7 16 2.73 3.84
-4 7 16 2.71 5.34
-3 -7 16 0.11 6.53
-1 -7 16 2.03 3.49
0 -7 16 0.56 3.19
-3 -8 16 -0.07 0.96
-12 0 17 12.85 3.45
-11 0 17 0.37 2.77
-10 0 17 16.86 3.3
-9 0 17 14.06 3.05
-8 0 17 15.79 3.03
-7 0 17 5.97 2.91
-6 0 17 5.35 4.27
-5 0 17 0.27 3.66
-4 0 17 34.81 3.06
-3 0 17 26.35 2.39
-2 0 17 -0.62 2.25
-1 0 17 40.74 2.61
0 0 17 49.79 2.76
1 0 17 3.8 2.6
2 0 17 53.47 2.51
3 0 17 8.74 2
4 0 17 21.2 2.2
-12 -1 17 2.45 4.28
-12 1 17 1.11 1.81
-11 -1 17 0.25 1.42
-11 1 17 0.07 0.61
-10 -1 17 1.85 12.08
-10 1 17 1.41 6.8
-9 -1 17 6.44 3.28
-9 1 17 5.79 3.29
-8 -1 17 28.01 3.37
-8 1 17 27.55 3.37
-7 -1 17 22.62 4.35
-7 1 17 23.64 3.16
-6 -1 17 12.62 3.89
-6 1 17 9.92 2.71
-5 -1 17 36.42 3.07
-5 1 17 34.16 4.51
-4 -1 17 12.85 2.1
-4 1 17 10.64 3.75
-3 -1 17 12.71 2.2
-3 1 17 11.68 2.16
-2 -1 17 26.77 2.41
-2 1 17 25.29 2.38
-1 -1 17 1.07 1.53
-1 1 17 -0.66 2.54
0 -1 17 8.92 2.2
0 1 17 7.62 2.2
1 -1 17 3.82 2.63
1 1 17 2.63 2.79
2 -1 17 3.92 1.96
2 1 17 3.91 2.14
3 -1 17 0.7 2.04
3 1 17 0.62 2.85
-12 2 17 -0.57 3.01
-11 -2 17 0.91 5.04
-11 2 17 0.36 3.36
-10 -2 17 27.35 3.36
-10 2 17 25.27 3.55
-9 -2 17 5.39 4.49
-9 2 17 4.86 3.16
-8 -2 17 4.99 5.08
-8 2 17 5.88 3.42
-7 -2 17 26.83 4.6
-7 2 17 25.39 3.09
-6 -2 17 13.07 4.11
-6 2 17 8.53 3.09
-5 -2 17 3.03 3.33
-5 2 17 -0.33 4.25
-4 -2 17 36.69 2.58
-4 2 17 35.22 4.74
-3 -2 17 42.7 2.68
-3 2 17 46.49 3.36
-2 -2 17 4.02 2.1
-2 2 17 2.05 2.48
-1 -2 17 43.41 3.33
-1 2 17 46 2.68
0 -2 17 63.39 2.96
0 2 17 63.87 3.58
1 -2 17 1 1.55
1 2 17 -0.19 2.05
2 -2 17 60.23 2.61
2 2 17 59.73 2.54
3 -2 17 11.72 2.1
3 2 17 14.1 2.19
-11 -3 17 3.25 8.33
-11 3 17 5.37 4.16
-10 -3 17 11.26 4.53
-10 3 17 9.59 3.21
-9 -3 17 6.15 4.78
-9 3 17 4.35 3.49
-8 -3 17 24.67 4.81
-8 3 17 26.05 3.26
-7 -3 17 4.47 4.14
-7 3 17 4.29 3.39
-6 -3 17 23.32 3.1
-6 3 17 27.21 4.65
-5 -3 17 30.51 2.52
-5 3 17 30.71 4.7
-4 -3 17 7.91 2.14
-4 3 17 6.87 3.55
-3 -3 17 27.95 3.05
-3 3 17 26.73 3.09
-2 -3 17 23.99 3.02
-2 3 17 22.77 3.03
-1 -3 17 1.15 3
-1 3 17 -0.25 0.91
0 -3 17 22.79 2.47
0 3 17 21.08 2.95
1 -3 17 7.23 2.07
1 3 17 7.37 3.06
2 -3 17 0.34 0.54
2 3 17 -0.06 1.19
3 -3 17 16.84 2.18
3 3 17 18.16 3.09
-11 4 17 4.02 4.41
-10 4 17 1.1 5.45
-9 -4 17 3.26 3.68
-9 4 17 3.65 4.09
-8 -4 17 3.56 3.9
-8 4 17 2.86 7.12
-7 -4 17 13.98 2.97
-7 4 17 13.24 4.59
-6 -4 17 18.04 2.96
-6 4 17 16.26 4.31
-5 -4 17 -0.19 6.79
-5 4 17 0.4 2.7
-4 -4 17 18.32 3.05
-4 4 17 18.99 4.43
-3 -4 17 14.06 2.98
-3 4 17 12.97 3
-2 -4 17 1.85 3.12
-2 4 17 0.39 5.32
-1 -4 17 36.92 2.69
-1 4 17 38.39 4.61
0 -4 17 14.01 2.41
0 4 17 17.19 4.81
1 -4 17 0.19 0.81
2 -4 17 9.88 2.37
2 4 17 9.69 3.17
-10 5 17 2.7 6.13
-9 5 17 2.53 7.61
-8 5 17 2.79 5.01
-7 5 17 1.12 36.67
-5 -5 17 12.72 2.9
-5 5 17 15.08 4.73
-4 -5 17 4.46 2.94
-4 5 17 5.35 5.45
-3 -5 17 5.81 3.08
-3 5 17 2.79 4.16
-2 -5 17 20.77 3.08
-1 -5 17 4.62 2.73
0 -5 17 3.01 2.54
1 -5 17 38.52 3.45
-8 6 17 2.62 4.79
-7 6 17 39.9 5.23
-6 6 17 20.19 4.94
-5 -6 17 15.46 4.52
-5 6 17 12.79 5.31
-4 -6 17 49.93 3.62
-3 -6 17 16.89 3.29
-2 -6 17 1.9 3.25
-1 -6 17 40.31 3.46
0 -6 17 10.71 3.29
-5 7 17 19.89 5
-4 -7 17 6.82 3.63
-4 7 17 2.61 6.15
-11 0 18 14.69 3.67
-10 0 18 26.92 3.6
-9 0 18 14.48 3.19
-8 0 18 3.41 4.59
-7 0 18 10.13 4.31
-6 0 18 0.36 1.36
-5 0 18 12.43 3.98
-4 0 18 25.1 2.52
-3 0 18 9.91 2.24
-2 0 18 16.46 2.35
-1 0 18 -0.18 1.26
0 0 18 0.01 0.02
1 0 18 8.73 2.45
2 0 18 0.03 0.5
-10 -1 18 3.99 4.11
-10 1 18 6.23 3.51
-9 -1 18 23.23 4.77
-9 1 18 23.28 3.57
-8 -1 18 15.08 4.2
-8 1 18 14.39 3.19
-7 -1 18 16.65 4.24
-7 1 18 14.91 4.48
-6 -1 18 23.13 4.51
-6 1 18 21.89 4.46
-5 -1 18 1.3 1.47
-4 -1 18 4.12 2.22
-4 1 18 3.34 3.33
-3 -1 18 4.16 2.52
-3 1 18 4.98 2.95
-2 -1 18 11.92 2.39
-2 1 18 11.61 2.29
-1 -1 18 3.68 3.5
-1 1 18 1 1.31
0 -1 18 0.21 1.52
0 1 18 0.02 0.46
1 -1 18 0.65 1.36
1 1 18 0.8 3.59
-10 -2 18 1.42 10.54
-10 2 18 1.76 5.96
-9 -2 18 0.01 0.12
-9 2 18 2.14 5.41
-8 -2 18 7.03 4.56
-8 2 18 6.89 3.56
-7 -2 18 0.99 2.27
-7 2 18 2.3 3.29
-6 -2 18 1.53 3.19
-6 2 18 0.93 6.89
-5 -2 18 8.64 2.35
-5 2 18 7.15 4.01
-4 -2 18 0.1 0.36
-4 2 18 0.27 6.87
-3 -2 18 1.44 1.77
-3 2 18 1.71 3.14
-2 -2 18 2.38 3.08
-2 2 18 -0.22 1.7
-1 -2 18 2.31 2.4
-1 2 18 0.95 2.68
0 -2 18 2.35 2.55
0 2 18 1.37 5.16
1 -2 18 0.03 0.22
1 2 18 0.01 0.06
-10 -3 18 8.22 5.26
-10 3 18 10.05 3.93
-9 -3 18 33.75 4.95
-9 3 18 31.45 3.65
-8 -3 18 0.1 4.92
-8 3 18 1.84 5.65
-7 -3 18 10.56 3.26
-7 3 18 9.49 4.53
-6 -3 18 28.57 3.24
-6 3 18 21.84 4.62
-5 -3 18 3.63 3.55
-5 3 18 1.25 6.41
-4 -3 18 3.18 2.94
-4 3 18 0.86 2.33
-3 -3 18 24.42 3.17
-3 3 18 21.29 3.12
-2 -3 18 1.81 2.61
-1 -3 18 1.41 1.75
-1 3 18 0.81 5.14
0 -3 18 2.22 1.73
1 -3 18 2.91 2.01
-8 -4 18 8.54 5.23
-8 4 18 9.7 5.22
-7 -4 18 17.43 4.53
-7 4 18 18.81 4.65
-6 -4 18 2.51 5.08
-6 4 18 5.12 4.34
-5 -4 18 10.93 3.2
-5 4 18 11.58 4.91
-4 -4 18 1.05 1.27
-4 4 18 -0.23 2.17
-3 -4 18 2.74 4.56
-3 4 18 0.51 5.66
-2 -4 18 8.1 3.4
-2 4 18 9.89 5.26
-1 -4 18 6.62 3.06
-1 4 18 6.03 5.7
0 -4 18 0.72 1.21
-7 -5 18 0.06 1.48
-7 5 18 -0.05 0.21
-6 -5 18 0.13 1.82
-6 5 18 -0.09 0.71
-5 -5 18 16.86 3.22
-5 5 18 13.47 5.79
-4 -5 18 3.29 3.77
-4 5 18 3.71 4.06
-3 -5 18 0.04 0.06
-3 5 18 0.8 7.56
-2 -5 18 6.2 3.32
-8 0 19 3.7 6.16
-7 0 19 0.75 6.37
-6 0 19 6.69 3.12
-5 0 19 17.19 3.19
-3 0 19 26.9 2.64
-2 0 19 37.62 2.79
-1 0 19 0.48 2.42
-8 -1 19 3.53 5.21
-8 1 19 2.37 4.62
-7 -1 19 8.93 4.43
-7 1 19 12.07 4.9
-6 -1 19 1.9 1.91
-6 1 19 1.45 3.49
-5 -1 19 3.05 3.01
-5 1 19 4.28 5
-4 -1 19 3.72 3.29
-4 1 19 3.44 4.81
-3 -1 19 -0.17 1.34
-3 1 19 2.55 3.49
-2 -1 19 2.44 3.02
-2 1 19 1.62 6.17
-1 -1 19 4.89 2.8
-1 1 19 4.59 2.82
-8 -2 19 1.16 3.11
-8 2 19 2.57 6.5
-7 -2 19 -0.02 0.11
-7 2 19 0.85 49.36
-6 -2 19 3.81 3.3
-6 2 19 2.5 6.97
-5 -2 19 7.87 3.3
-5 2 19 8.57 3.52
-4 -2 19 4.23 3.64
-4 2 19 0.59 1.11
-3 -2 19 21.47 3.08
-3 2 19 21.64 3.47
-2 -2 19 15.51 3.14
-2 2 19 15.96 3.48
-6 -3 19 1.12 5.62
-6 3 19 2.14 12.44
-5 -3 19 0.54 6.77
-4 -3 19 5.81 3.3
-4 3 19 1.47 5.84
-3 -3 19 4.63 3.32
-3 3 19 3.29 4.2
