#------------------------------------------------------------------------------
#$Date: 2020-06-06 01:23:54 +0300 (Sat, 06 Jun 2020) $
#$Revision: 252947 $
#$URL: file:///home/coder/svn-repositories/cod/cif/2/02/21/2022134.cif $
#------------------------------------------------------------------------------
#
# This file is available in the Crystallography Open Database (COD),
# http://www.crystallography.net/. The original data for this entry
# were provided by IUCr Journals, http://journals.iucr.org/.
#
# The file may be used within the scientific community so long as
# proper attribution is given to the journal article from which the
# data were obtained.
#
data_2022134
loop_
_publ_author_name
'Okuniewski, Andrzej'
'Rosiak, Damian'
'Chojnacki, Jaros\/law'
_publ_section_title
;
 Impact of the anion and chalcogen on the crystal structure and properties
 of 4,6-dimethyl-2-pyrimido(thio)nium halides
;
_journal_coeditor_code           WP3004
_journal_issue                   5
_journal_name_full               'Acta Crystallographica Section C'
_journal_page_first              468
_journal_page_last               475
_journal_paper_doi               10.1107/S2053229620005525
_journal_volume                  76
_journal_year                    2020
_chemical_formula_iupac          'C6 H9 N2 O +, Br -'
_chemical_formula_moiety         'C6 H9 N2 O +, Br -'
_chemical_formula_sum            'C6 H9 Br N2 O'
_chemical_formula_weight         205.06
_chemical_name_common            '4,6-Dimethyl-2-pyrimidonium bromide'
_chemical_name_systematic
;
4,6-Dimethyl-2-oxo-2,3-dihydropyrimidin-1-ium bromide
;
_space_group_crystal_system      orthorhombic
_space_group_IT_number           62
_space_group_name_Hall           '-P 2ac 2n'
_space_group_name_H-M_alt        'P n m a'
_atom_sites_solution_hydrogens   mixed
_atom_sites_solution_primary     dual
_audit_creation_method
;
Olex2 1.2
(compiled 2018.05.29 svn.r3508 for OlexSys, GUI svn.r5506)
;
_cell_angle_alpha                90
_cell_angle_beta                 90
_cell_angle_gamma                90
_cell_formula_units_Z            4
_cell_length_a                   14.4984(18)
_cell_length_b                   6.722(2)
_cell_length_c                   8.113(7)
_cell_measurement_reflns_used    16240
_cell_measurement_temperature    120
_cell_measurement_theta_max      29.66
_cell_measurement_theta_min      3.77
_cell_volume                     790.7(7)
_computing_cell_refinement
;
X-AREA (Stoe & Cie, 2009)
;
_computing_data_collection
;
X-AREA (Stoe & Cie, 2009)
;
_computing_data_reduction
;
X-RED32 (Stoe & Cie, 2009)
;
_computing_molecular_graphics
;
OLEX2 (Dolomanov <i>et al.</i>,  2009)
;
_computing_publication_material
;
OLEX2 (Dolomanov <i>et al.</i>,  2009)
;
_computing_structure_refinement
;
SHELXL2018 (Sheldrick, 2015b)
;
_computing_structure_solution
;
SHELXT (Sheldrick, 2015a)
;
_diffrn_ambient_temperature      120.0
_diffrn_detector                 'image plate (34 cm diameter)'
_diffrn_detector_area_resol_mean 6.67
_diffrn_measured_fraction_theta_full 0.996
_diffrn_measured_fraction_theta_max 0.997
_diffrn_measurement_device       '2-circle goniometer'
_diffrn_measurement_device_type  'Stoe IPDS 2T'
_diffrn_measurement_method       'rotation method'
_diffrn_radiation_monochromator  'parabolic x-ray mirror'
_diffrn_radiation_probe          x-ray
_diffrn_radiation_type           MoK\a
_diffrn_radiation_wavelength     0.71073
_diffrn_reflns_av_R_equivalents  0.0501
_diffrn_reflns_av_unetI/netI     0.0188
_diffrn_reflns_limit_h_max       19
_diffrn_reflns_limit_h_min       -19
_diffrn_reflns_limit_k_max       8
_diffrn_reflns_limit_k_min       -9
_diffrn_reflns_limit_l_max       11
_diffrn_reflns_limit_l_min       -11
_diffrn_reflns_number            10482
_diffrn_reflns_theta_full        25.242
_diffrn_reflns_theta_max         28.996
_diffrn_reflns_theta_min         3.769
_diffrn_source                   'microfocus sealed X-ray tube'
_diffrn_source_current           1.000
_diffrn_source_power             0.050
_diffrn_source_voltage           50
_exptl_absorpt_coefficient_mu    5.134
_exptl_absorpt_correction_T_max  0.9051
_exptl_absorpt_correction_T_min  0.6387
_exptl_absorpt_correction_type   integration
_exptl_absorpt_process_details
;
[X-RED32 (Stoe & Cie, 2009), analogous to Coppens (1970)]
;
_exptl_crystal_colour            colourless
_exptl_crystal_density_diffrn    1.723
_exptl_crystal_description       plate
_exptl_crystal_F_000             408
_exptl_crystal_size_max          0.35
_exptl_crystal_size_mid          0.197
_exptl_crystal_size_min          0.03
_refine_diff_density_max         0.735
_refine_diff_density_min         -0.593
_refine_ls_extinction_method     none
_refine_ls_goodness_of_fit_ref   1.088
_refine_ls_hydrogen_treatment    mixed
_refine_ls_matrix_type           full
_refine_ls_number_parameters     75
_refine_ls_number_reflns         1130
_refine_ls_number_restraints     12
_refine_ls_restrained_S_all      1.082
_refine_ls_R_factor_all          0.0350
_refine_ls_R_factor_gt           0.0312
_refine_ls_shift/su_max          0.001
_refine_ls_shift/su_mean         0.000
_refine_ls_structure_factor_coef Fsqd
_refine_ls_weighting_details
'w=1/[\s^2^(Fo^2^)+(0.0666P)^2^+0.2083P] where P=(Fo^2^+2Fc^2^)/3'
_refine_ls_weighting_scheme      calc
_refine_ls_wR_factor_gt          0.0919
_refine_ls_wR_factor_ref         0.0963
_reflns_number_gt                971
_reflns_number_total             1130
_reflns_threshold_expression     'I > 2\s(I)'
_cod_data_source_file            wp3004sup1.cif
_cod_data_source_block           3
_cod_original_cell_volume        790.6(7)
_cod_database_code               2022134
_shelx_space_group_comment
;
The symmetry employed for this shelxl refinement is uniquely defined
by the following loop, which should always be used as a source of
symmetry information in preference to the above space-group names.
They are only intended as comments.
;
_shelx_estimated_absorpt_t_min   0.267
_shelx_estimated_absorpt_t_max   0.861
_shelx_hkl_file
;
 -12  -6  -1    0.14    2.72
 -12  -5  -3    9.89    2.56
 -12   0  -7    1.42    2.53
 -12   4  -7    1.19    3.31
 -11  -3  -5  372.62    2.72
  -8  -5  -1    5.13    2.45
  -8  -3  -4  848.07    3.91
  -7  -5   7   26.59    5.15
  -6  -5   1    6.81    2.45
  -3   8   4    1.97    2.45
  -2   2  10   39.76    1.73
  -2   5   9    2.30    1.49
  -2   6   8   31.04    1.61
  -2   7   1   -0.07    2.63
  -1   2   9  214.98    2.71
  -1   3   9  345.08    2.58
   0   2   8  939.73    3.73
   0   4   7    0.35    1.96
   0   5   6   -1.36    1.96
   1   0   3 2054.95    7.51
   1   0   4    2.15    2.03
   1   2   1 2485.63    8.15
   1   4   4    0.09    2.17
 -15  -5  -4    1.59    2.77
 -15  -3  -6    6.37    2.07
 -14  -6  -2  152.99    3.39
 -14  -4  -5   -2.27    2.60
 -14  -3  -6   41.48    2.47
 -13  -1  -7   48.26    2.68
 -11  -5  -3   61.43    2.45
 -11  -2  -6   11.47    2.60
  -9  -6   1   90.13    2.85
  -9  -6   6    0.67    4.31
  -9  -5  -2    7.79    2.31
  -8  -6   3    0.98    2.60
  -8  -6   4   35.84    3.31
  -8  -4  -3    3.66    2.19
  -8  -2  -5    0.38    2.16
  -8   0  -6  329.18    3.39
  -8   6  -5    0.74    4.87
  -7  -4   9  300.26    5.16
  -6  -3  -3    6.09    1.53
  -6  -2  -4  874.52    4.00
  -5  -3   9  404.90    4.52
  -5   2  -5    2.62    2.69
  -2  -3   5    5.67    2.51
  -2   7   5    0.25    2.08
  -1   4   8   41.75    2.07
  -1   6   6   40.84    1.61
   1   1   5 1397.33    5.07
 -14  -5  -4   46.41    2.84
 -13  -6  -2    2.39    2.60
 -13  -4  -5  273.44    3.36
 -13  -3  -6   -2.53    2.36
 -11  -6  -1  178.45    3.27
 -10  -4  -4 1198.60    4.43
 -10   1  -7   -1.68    2.64
 -10   2  -7   -0.61    2.72
  -9  -1  -6    0.61    1.85
  -9   5  -6    0.30    3.61
  -8  -6   2  138.87    3.32
  -5  -4  -1   16.29    2.05
  -5  -2  10   37.75    2.66
  -4  -3   8  163.43    3.30
  -4  -1  10  111.77    2.70
  -4   8   1    1.98    2.68
  -3  -2  -2   20.47    2.14
  -3   1  10   44.80    2.49
  -3   5   9   30.93    2.21
  -3   6   8    2.17    2.10
  -3   7   0   -1.20    3.03
  -2   0   9   90.29    2.39
  -2   4   9   35.85    1.71
  -2   5   8  366.74    2.73
  -2   7   3    1.82    2.30
  -1   0   8   83.60    1.90
  -1   5   7  191.46    1.91
  -1   6   5  160.95    2.37
   0  -1   5   11.33    1.92
   0   1   7 1189.57    4.53
   0   3   7  801.00    3.56
   0   5   2   -0.61    2.14
   0   5   4    0.46    1.98
 -14  -2  -7    1.46    2.79
 -13  -5  -4    4.22    2.76
 -12  -7   2  187.96    4.26
 -12  -6  -2   26.65    2.82
 -12  -4  -5   14.11    2.50
 -12  -1  -7   11.33    2.13
 -10  -5  -3   20.70    2.39
 -10   3  -7   -3.34    2.92
  -9  -6   0    2.61    2.16
  -9  -3  -5  473.97    3.14
  -7  -5  -1  204.64    3.06
  -7  -3  -4   20.46    2.18
  -7   1  -6    2.43    2.42
  -7   3  -6    2.43    2.89
  -6  -4  -2 1025.46    4.59
  -6  -1  -5    1.93    2.12
  -5  -5   3 1309.51    8.06
  -4  -2  -3  156.87    2.49
  -4  -2   9    4.60    2.88
  -3  -1  -3   15.78    2.00
  -3  -1   9   84.43    2.39
  -3   2  10   21.52    2.02
  -3   7   6    4.90    2.19
  -2  -1  -2 9999.00   15.34
  -2  -1   8 1024.02    4.63
  -2   1   9   11.97    2.16
  -2   3   9    7.24    2.15
  -1   1   8    7.34    2.21
  -1   3   8    5.22    1.88
  -1   6   2    1.16    2.06
  -1   6   4   -0.04    2.03
   0   0   6 3078.56    7.00
   0   4   6 1546.73    4.25
   0   5   3    1.47    1.61
   1   1   2   35.49    1.50
   1   1   4   18.46    2.08
   1   2   2    3.02    1.74
 -13   1  -8   -0.13    2.82
 -13   2  -8   -0.96    2.73
 -12  -5  -4  404.88    3.74
 -10  -6  -1   -0.39    2.53
 -10   0  -7   -0.79    2.53
  -9  -4  -4   17.81    1.75
  -8  -6   1    3.69    2.38
  -8  -5  -2  682.02    3.98
  -8  -1  -6 1573.76    5.18
  -7  -4  -3  964.56    4.20
  -7  -2  -5 1710.15    5.12
  -7   0  -6   25.07    2.37
  -7   8  -2    0.58    3.68
  -6  -5   0  670.68    4.10
  -6  -4   8  272.99    4.42
  -5  -5   2    1.58    2.51
  -5  -4   7    1.81    3.20
  -5   8   0    0.00    2.89
  -4  -4   0 1954.29    6.77
  -4  -3  -2  905.27    4.29
  -4   7  -1   -0.80    3.08
  -4   8   3    7.08    2.30
  -3  -2   8    2.69    2.24
  -2  -3   1    4.90    2.49
  -2  -2  -1   30.65    1.70
  -2   1  -3  102.07    2.64
  -2   2   9   67.08    1.83
  -2   6   6   81.45    2.23
  -1   1  -2   38.12    2.62
  -1   2   8   66.98    1.76
  -1   4   7  344.83    2.55
  -1   5   0    0.04    2.19
  -1   5   6   19.27    1.73
   1   1   3 2767.87    7.60
   1   2   3 1501.99    5.42
 -14  -4  -6  245.82    3.23
 -13  -6  -3  226.13    3.44
 -12  -2  -7   -2.42    2.44
 -11  -7   2    0.92    2.96
 -11  -7   3   20.55    3.07
 -11  -6  -2    4.02    2.69
 -11  -4  -5  216.15    2.39
 -11  -3  -6    2.59    2.32
 -10   4  -7   -0.68    3.19
  -9  -5  -3  654.23    3.82
  -8  -6   5   -0.14    3.53
  -6   8  -1    0.32    3.28
  -5  -5   4   10.90    3.36
  -5  -3  -3 2945.53    6.72
  -5  -2  -4   64.98    2.17
  -5   7  -2    0.29    3.21
  -4  -1  -4 2395.70    6.44
  -4   0  10  399.27    2.94
  -4   3  10   89.12    2.55
  -4   5   9    2.47    2.15
  -4   6   8  128.91    2.65
  -3  -3  -1  386.78    3.39
  -3   4   9  355.07    2.60
  -3   5   8    1.31    2.01
  -3   6   7  318.39    2.71
  -3   7   1   71.95    2.70
  -3   7   5   55.29    1.65
  -2   4   8   65.08    1.59
   0  -1   4    1.61    1.91
   0   1   6    0.52    2.21
   0   2   6 2877.09    6.42
 -13  -4  -6   18.56    2.26
 -12  -7   0  157.24    3.47
 -12   2  -8   -2.27    2.85
 -11  -7   1  129.22    3.80
 -11  -5  -4   56.12    2.11
 -10  -1  -7    3.18    2.44
 -10   6  -6  206.88    6.47
  -9  -6  -1   90.32    2.74
  -8  -6   0  167.08    2.84
  -8  -4  -4   95.76    2.54
  -8  -3  -5   15.92    1.57
  -6  -3  -4  793.65    3.81
  -6  -2  10  214.72    3.70
  -5  -5   1 1427.23    6.28
  -5  -1  10   24.61    2.29
  -5   8   1    4.41    2.63
  -5   8   4    0.92    2.53
  -4   1  10  122.84    2.51
  -4   2  10  353.36    3.00
  -4   7   6   71.76    2.23
  -3  -4   2    5.90    2.57
  -3  -4   3  599.76    7.50
  -3   0   9  637.68    3.76
  -3   3   9   62.39    2.34
  -3   7   3   25.80    2.42
  -3   7   4    7.94    1.68
  -2   3   8  686.00    3.35
  -2   6   5    4.55    1.38
  -1  -1  -1  142.03    2.78
  -1   0   7  718.44    3.80
  -1   3   7  351.78    2.74
  -1   5   5  465.91    2.57
   0   3   0    4.17    1.89
   0   4   4 1647.59    4.68
 -13  -1  -8   -0.32    2.42
 -12  -6  -3   -1.12    1.79
 -11   5  -7  110.94    4.41
 -10  -6  -2  509.67    4.04
 -10  -5  -4  158.38    2.94
  -8  -2  -6  284.72    3.02
  -7  -6   2    0.01    2.39
  -7  -5  -2   -2.03    2.28
  -7  -1  -6    1.41    2.28
  -6  -5  -1    6.12    2.25
  -6  -4  -3   27.63    2.13
  -6  -3   9    3.50    2.61
  -6  -2  -5    3.12    2.12
  -5  -4  -2    0.73    2.18
  -5   8   3   13.87    2.58
  -4   4   9    5.88    2.26
  -3   2   9  558.05    3.32
  -3   6   6    0.03    2.02
  -2   0  -3  136.38    2.55
  -2   2   8  101.83    2.30
  -2   6   1   -0.31    2.16
  -2   6   4   21.19    2.09
  -1   1   7  472.98    3.26
  -1   2   7  590.52    3.32
  -1   4   6   80.92    1.57
  -1   5   4    0.21    1.84
   0  -1   2    0.19    2.23
   0  -1   3   19.99    2.08
   0   0   5    0.40    1.32
   0   4   2 2071.21    5.74
   0   4   3   -0.02    1.46
 -12  -7  -1   -1.12    2.50
 -12  -5  -5    1.38    2.46
 -12  -4  -6   11.77    1.82
 -11  -7   0   -0.84    2.47
 -11   1  -8    0.61    2.83
 -11   2  -8    8.23    2.82
 -10  -7   2   27.17    2.99
  -9  -4  -5  214.65    2.75
  -9  -1  -7  704.20    3.97
  -8  -5  -3    8.12    2.24
  -8   1  -7    9.44    1.83
  -7  -6   1  494.44    4.30
  -7  -3  -5   79.37    2.17
  -6   0  -6  585.01    3.81
  -5  -2   9    9.03    2.28
  -5  -1  -5 1811.65    5.35
  -5   0  10   40.09    2.34
  -5   3  10   19.04    1.79
  -5   4  -5    0.45    3.54
  -4  -1   9    0.10    1.90
  -4   1  -5   11.15    2.19
  -4   5   8   93.84    2.36
  -4   7   5    0.28    1.55
  -3  -3   6    7.61    2.40
  -3   0  -4  158.51    2.73
  -3   4   8   -2.00    1.81
  -3   6  -1 1019.90    6.24
  -2   4   7   73.15    1.47
  -2   6   3   11.62    1.95
  -1  -2   4    1.15    2.10
  -1   5   2    2.34    2.05
  -1   5   3  888.80    4.00
   0   1   5   13.09    2.03
 -13  -6  -4    3.79    1.84
 -12  -3  -7    7.19    1.86
 -12  -1  -8  371.20    3.24
 -11  -4  -6    9.32    2.25
 -10  -7   1   -2.05    2.46
 -10  -7   3    7.00    2.48
 -10  -2  -7   -1.75    1.91
  -9  -6  -2    0.90    2.39
  -9  -5  -4   42.42    2.35
  -9  -3  -6    5.08    1.55
  -8  -6  -1    1.53    2.27
  -8   0  -7  147.68    2.42
  -8   7  -4  151.26    8.97
  -7  -4  -4    2.49    1.70
  -7  -2  10   -2.80    2.62
  -6  -1  10   65.31    2.45
  -6   5  -5    0.65    4.41
  -6   8   4   85.20    3.05
  -5  -5   0    0.09    1.88
  -5  -3   8   -1.03    2.33
  -5   1  10   22.09    2.18
  -5   2  10   33.26    1.75
  -5   7   6    3.84    1.65
  -4   2  -5   13.32    2.36
  -4   3   9   -2.84    2.19
  -3  -4   1 1899.30    7.61
  -3  -2  -3  899.02    4.22
  -3  -1   8    7.06    1.99
  -3   3  -4   93.39    3.81
  -3   6   5  404.84    2.86
  -2  -3   0  401.68    3.75
  -2  -3   4 1901.93   11.21
  -2  -1   7    6.34    1.92
  -2   5  -1    2.52    2.61
  -1   0  -2    3.78    1.66
 -12  -6  -4   47.40    2.67
 -11  -7  -1  131.01    3.27
 -11  -5  -5  179.29    2.44
 -11  -3  -7  217.18    3.13
 -11  -1  -8   -1.03    2.46
 -10  -7   0    1.75    2.88
 -10  -6  -3   45.40    2.51
 -10   1  -8   -0.23    2.77
  -8  -1  -7    6.95    2.29
  -7  -6   0   -1.13    2.28
  -7  -6   4    0.52    3.05
  -7  -2  -6   31.45    2.43
  -6  -1  -6  604.00    3.62
  -6   8   1    1.90    2.54
  -6   8   3    3.66    2.66
  -5  -3  -4   47.72    2.20
  -5   4   9    4.23    2.26
  -4  -3  -3    1.57    1.40
  -4  -3   7   31.79    2.22
  -4  -2  -4 1434.66    4.59
  -4  -2   8  403.99    3.53
  -4   0  -5   13.35    2.19
  -4   0   9    3.10    2.05
  -4   2   9    3.00    2.10
  -4   6   6  282.75    2.74
  -4   7   1    0.02    2.35
  -4   7   3    1.36    2.34
  -3  -3  -2   11.36    1.90
  -3   3   8    5.65    1.82
  -2   3   7    6.28    1.76
  -2   5   5    3.08    1.38
  -1  -2   0    0.67    2.18
  -1   0   6  159.82    2.58
  -1   2   6  136.44    2.35
   0   0   4 4174.92    9.30
   0   2   4 3166.88    7.07
 -12  -7  -2  221.30    3.89
 -12  -2  -8    0.44    2.62
 -11  -6  -4   13.94    2.17
 -10  -7   4   39.02    3.20
 -10  -5  -5   -1.59    2.40
 -10  -4  -6  421.79    3.28
 -10   5  -7    0.25    3.71
  -9  -2  -7  173.09    2.29
  -8  -4  -5    0.50    1.58
  -8   8  -2   44.58    3.95
  -7  -5  -3   57.33    2.30
  -7   8  -1  173.46    4.18
  -6  -5  -2  427.53    2.93
  -6   0  10  221.40    2.99
  -6   2  10  202.73    2.93
  -6   7   6   99.29    2.61
  -5  -4  -3  133.01    2.46
  -5  -2  -5    1.69    2.10
  -5   1  -6    0.90    2.09
  -5   5   8    1.76    1.96
  -5   7   5  316.48    2.68
  -4   1   9    2.35    1.45
  -4   4   8  269.19    2.51
  -4   6  -2  612.95    6.14
  -4   7   2  155.44    2.09
  -3  -1  -4  149.40    2.46
  -3   0   8    0.11    1.98
  -3   2   8    0.37    2.01
  -3   4   7  589.07    2.97
  -3   5   6    7.90    1.82
  -3   6   4    5.25    2.01
  -2  -2  -2  538.08    3.47
  -2  -1  -3   91.75    2.33
  -2   4   6  140.99    1.63
  -1   1   6   46.76    2.14
  -1   4   4   -0.61    1.87
   0   1   4    1.04    1.99
 -12  -5  -6  264.50    3.35
 -12  -4  -7    3.58    2.27
 -11  -7  -2   -1.51    2.32
 -11  -2  -8    4.63    2.44
 -10  -7  -1   -0.06    2.13
 -10  -3  -7   -0.73    1.75
 -10  -1  -8    4.77    2.50
  -9  -7   1  191.41    3.61
  -9  -7   2    5.07    2.64
  -9  -6  -3  346.69    3.22
  -9   1  -8    1.35    2.75
  -8  -6  -2  148.04    2.79
  -8  -5  -4  410.47    2.83
  -7  -6  -1  501.32    3.52
  -7  -4   8   24.11    2.97
  -7  -3   9   36.63    2.80
  -7   0  -7  652.29    3.49
  -6  -4  -4  505.47    3.26
  -6  -3  -5   -1.19    1.37
  -6   1  10   68.57    2.06
  -6   4   9   -0.26    2.32
  -5  -5  -1 1395.88    5.24
  -5  -1   9  462.48    3.31
  -5   0  -6    5.89    2.27
  -5   2  -6    3.77    2.27
  -5   3   9  372.55    3.01
  -5   6  -3   41.76    4.63
  -5   7   4    2.42    2.24
  -4  -4  -2 1131.99    4.62
  -4  -1  -5   12.98    2.15
  -4   3  -5    9.15    2.94
  -3  -4   0   -0.60    1.92
  -3   1   8    7.03    1.45
  -3   6   0    0.75    2.30
  -3   6   3  347.25    2.86
  -2   1   7    9.04    1.81
  -1   4   0    1.46    2.15
 -12  -6  -5    6.08    2.25
 -10  -6  -4  509.46    3.68
  -9  -7   0   -1.85    2.63
  -9  -5  -5  261.29    3.04
  -9  -4  -6    3.56    1.63
  -9   0  -8    3.34    2.64
  -9   2  -8    2.03    2.72
  -8  -2  -7  121.59    2.66
  -7  -4  -5  976.68    4.08
  -7  -1  -7   76.90    2.64
  -7  -1  10    2.72    1.74
  -7   8   0   -1.19    2.65
  -7   8   3  188.33    3.43
  -6  -2  -6  510.99    3.31
  -6  -2   9   -1.62    1.93
  -6   5   8  164.41    2.66
  -6   6   7    1.04    2.14
  -6   7   5    1.38    2.15
  -5   0   9    8.05    2.26
  -5   2   9    7.39    2.25
  -5   6   6    0.00    2.18
  -4   3   8  154.20    2.44
  -4   6   5    1.78    1.38
  -3   6   1  910.70    4.40
  -3   6   2   -0.09    1.94
  -2   5   0  414.07    3.65
  -2   5   3    6.87    1.89
  -1   4   3  645.74    3.16
   0   0   3    0.99    1.76
   0   2   3    0.98    1.33
 -12  -3  -8  247.18    2.94
 -11  -5  -6    1.19    1.81
 -11  -4  -7  150.85    2.38
 -10  -2  -8  567.96    4.09
  -9  -3  -7  493.48    3.03
  -9  -1  -8    1.15    2.53
  -8   4  -7   75.98    3.35
  -7   0  10    1.40    2.37
  -7   1  10    4.59    2.40
  -7   2  10   -0.85    1.77
  -7   7  -3   20.24    4.33
  -7   7   6    0.10    1.76
  -7   8   1  192.65    3.66
  -6  -6   1   -0.42    2.10
  -6  -6   2  342.09    3.92
  -6  -5  -3    4.11    2.18
  -6   7  -2  173.42    4.14
  -5  -1  -6    2.91    2.27
  -5   1   9  470.29    3.09
  -5   4   8    5.56    1.55
  -5   5   7  569.94    3.23
  -5   7   0   -1.46    2.43
  -5   7   3  549.47    3.69
  -4  -5   1    3.38    2.33
  -4  -3  -4 1326.21    4.46
  -4   4   7   28.29    1.79
  -4   5   6  161.81    2.33
  -3   4   6    4.10    1.76
  -2  -3  -1    4.18    1.36
  -2  -1   6 1194.22    4.95
  -2   4  -2  239.70    5.31
  -2   5   2 1609.59    5.12
  -1   0   5  420.21    3.29
  -1   4   2    2.32    1.74
   0   1   3   21.00    2.05
   0   2   2 3785.87    9.13
 -11  -7  -3   19.84    2.58
 -11  -6  -5   75.72    2.86
 -11  -3  -8    1.14    2.62
 -11   1  -9  162.54    3.61
 -10  -4  -7   -2.39    2.01
  -9  -7  -1  203.84    3.18
  -9  -6  -4    2.64    2.12
  -9   6  -6    1.19    5.48
  -8  -6  -3    3.45    1.62
  -8  -4  -6  169.29    2.60
  -8   0  -8  118.76    2.61
  -7  -6  -2    0.69    2.09
  -7   4   9  332.99    2.88
  -6  -6   0  115.53    2.56
  -6  -4   7    7.71    2.69
  -6  -3   8  312.32    3.76
  -6   0  -7   20.82    2.39
  -6   3   9    2.99    1.77
  -6   7   4  157.40    2.96
  -5  -5  -2    0.23    2.11
  -5  -4  -4   26.24    2.05
  -5  -3  -5 1278.48    4.28
  -5  -2   8    7.21    2.11
  -5   7   1  612.27    4.16
  -5   7   2    0.96    2.00
  -4  -5   0  671.98    3.88
  -4  -5   2  380.95    4.11
  -4  -4   5    5.90    3.27
  -4  -2  -5   10.37    1.98
  -4   6   4  373.76    2.55
  -3  -4  -1 1889.79    5.79
  -3  -3  -3   16.55    1.94
  -3  -2  -4  102.59    2.20
  -3   1  -5  573.34    3.90
  -3   5  -2    3.43    2.91
  -2   1  -4 3891.22    9.86
  -1   1   5 1275.09    4.70
  -8  -7   1    1.02    2.59
  -8  -3  -7    5.76    2.28
  -8  -3   9    3.48    2.57
  -8   8  -1   -0.03    2.78
  -8   8   3   -3.52    2.64
  -7  -2  -7  559.20    3.13
  -7   5   8    1.63    1.71
  -6  -6  -1    1.73    1.89
  -6  -6   3    8.75    2.65
  -6  -4  -5    3.14    2.05
  -6  -3  -6  441.01    3.00
  -6  -1  -7  108.92    2.45
  -6  -1   9    2.63    1.60
  -6   2  -7   16.13    2.66
  -6   2   9    3.24    2.36
  -6   4   8  285.92    2.94
  -6   6   6  168.20    2.57
  -5   3   8   -1.44    2.11
  -5   6   5    1.99    1.48
  -4  -4  -3   56.62    1.73
  -4   6  -1    0.74    2.84
  -4   6   3   17.83    2.00
  -3   0  -5 1785.58    5.73
  -3   5   4   25.61    1.79
  -2  -2  -3   97.14    2.20
  -2   0   6  307.60    2.94
  -2   4   4   34.71    1.81
  -1  -2  -1 2406.25    7.94
   0   0   2 5226.94   14.18
   0   1   2    1.87    1.87
 -10  -7  -3    3.99    2.53
 -10  -6  -5    8.05    1.84
 -10  -3  -8    4.71    1.81
 -10   1  -9   12.54    3.00
  -9  -7  -2    1.44    2.44
  -9  -5  -6   -2.91    2.27
  -9  -4  -7  106.75    2.40
  -9   8  -2    2.28    3.53
  -8  -7   0  528.68    4.19
  -8  -7   2  225.16    3.96
  -8  -5   7    5.09    3.48
  -8   0  10   79.62    2.38
  -8   1  10  245.26    2.84
  -8   6   7   21.78    2.70
  -7  -4  -6   22.52    1.90
  -7  -2   9  461.99    3.61
  -7   3   9   31.18    2.34
  -7   5  -6    1.67    4.22
  -6  -5  -4  403.70    3.08
  -6   0   9    1.37    2.11
  -6   5   7   39.42    2.13
  -6   7   3    2.14    2.44
  -5  -4   6    4.68    2.87
  -5  -3   7 1078.18    5.93
  -5  -2  -6    3.10    1.50
  -5   4   7   -1.00    1.88
  -5   5   6    3.33    1.99
  -4  -2   7   60.35    2.29
  -4   3   7   32.93    2.02
  -4   5   5    2.65    1.92
  -3  -2   6    2.39    2.26
  -3  -1  -5  530.99    3.38
  -2  -3  -2 3978.09    8.21
  -1  -1   4   15.23    1.89
 -10  -1  -9   11.57    2.66
  -9  -7   4   10.65    3.26
  -8  -7  -1    2.33    2.10
  -8  -6  -4   42.85    1.86
  -8  -4   8   58.54    3.36
  -8   7   5    3.48    2.49
  -8   8   1   -0.34    2.41
  -7  -6  -3  470.38    3.09
  -7  -5  -5   45.09    2.34
  -7  -3  -7   57.17    2.14
  -7   1  -8    5.51    2.51
  -7   6   6   12.22    2.32
  -7   7   4    0.91    2.46
  -6  -6  -2  386.57    3.03
  -6  -2  -7   13.49    2.14
  -6   7  -1    0.33    2.64
  -6   7   2  174.99    2.95
  -5  -5  -3 1363.06    4.75
  -5  -1   8    2.29    1.99
  -5   2   8    5.90    1.89
  -5   6   4   12.22    1.98
  -4  -1  -6  476.31    3.38
  -4   6   0  783.93    4.85
  -4   6   2  515.66    3.31
  -3  -4  -2    5.04    1.37
  -2   2  -4   39.39    2.91
  -2   4   3   38.84    1.90
  -1   3  -1  290.40    4.73
 -10  -7  -4   56.12    2.45
 -10  -5  -7    1.01    2.34
 -10  -2  -9   24.80    2.46
  -9  -7  -3  244.25    3.42
  -9  -6  -5  112.21    2.22
  -9  -3  -8    1.93    1.82
  -8  -5  -6  521.83    3.42
  -8  -4  -7   67.96    2.34
  -8   3   9    2.90    2.61
  -7  -1  -8    0.63    2.41
  -7  -1   9   49.58    2.28
  -7   2   9  509.54    3.19
  -7   4   8   22.50    1.80
  -6   3   8  286.01    2.75
  -6   6   5    2.16    1.62
  -6   7   0  265.06    3.55
  -6   7   1   -1.08    2.12
  -5  -4  -5    5.67    1.94
  -5   0   8   11.49    1.99
  -5   1  -7 1569.36    5.63
  -4  -5  -2  429.45    3.14
  -4  -5   3    1.09    2.78
  -4  -4  -4  859.27    3.86
  -4  -3  -5    6.71    1.81
  -4  -3   6  321.32    3.91
  -3  -3  -4   76.44    2.17
  -1   0   4    1.18    1.91
  -1   1  -3 2634.16    9.42
  -1   1   4   16.95    1.96
 -10  -6  -6  183.23    3.16
 -10  -4  -8  317.48    2.90
  -9  -3   9  186.24    3.30
  -9   4  -8   -0.48    3.02
  -9   8  -1   26.46    3.00
  -9   8   2   -1.16    2.44
  -8  -7  -2  270.20    2.78
  -8  -7   3    2.66    2.50
  -8  -2   9    3.69    2.36
  -7  -6  -4    3.56    2.17
  -7  -3   8    2.04    2.51
  -7   0   9  571.35    3.80
  -7   1   9   50.76    1.87
  -7   7   3   17.34    2.54
  -6  -4  -6  321.94    2.79
  -6   4   7    5.85    2.06
  -6   5   6  231.40    2.69
  -5  -6   0    0.11    2.02
  -5  -6   1    7.95    2.02
  -5  -3  -6    1.87    1.48
  -5  -1  -7 1503.32    5.00
  -5   3   7  993.05    3.82
  -5   6   3   38.28    2.05
  -4  -2  -6 1094.23    4.16
  -3  -2  -5 1420.83    4.64
  -3   2   6    2.24    1.38
  -3   5  -1  168.42    3.41
  -3   5   2    2.65    1.82
  -2  -1   5   13.60    1.95
  -1  -2  -2    3.27    1.78
  -9  -7  -4   16.72    2.29
  -9  -5  -7  250.99    3.07
  -9   3   9  218.93    3.27
  -9   7   5  104.65    2.45
  -9   8   0   -0.50    2.90
  -9   8   1   24.87    2.55
  -8  -6  -5    0.92    1.79
  -8  -3  -8  357.87    2.77
  -8   2   9    0.80    2.51
  -7  -7  -1   70.85    2.26
  -7  -7   0    0.47    2.25
  -7  -7   1   67.31    2.47
  -7   3   8   -0.69    2.36
  -7   6   5  455.76    3.49
  -7   7  -2   -0.77    2.97
  -6  -6  -3    7.21    1.60
  -6  -5  -5   -1.05    2.16
  -6  -3  -7   80.36    2.36
  -6   2   8  451.66    3.10
  -6   6   4  246.27    2.74
  -5  -6  -1   11.23    1.98
  -5  -5  -4   12.66    2.11
  -5   2  -7    1.89    2.35
  -5   4   6    3.84    1.87
  -5   5   5  656.45    3.00
  -3  -4  -3  636.14    3.26
  -3  -1   6   11.68    1.88
  -3   1   6   11.34    1.88
  -2  -4   0  353.57    3.26
  -2  -3  -3   21.55    1.89
  -2  -2  -4   35.95    1.89
  -2   1   5   13.51    1.79
  -2   4   2  187.41    1.97
  -9  -6  -6    3.94    2.39
  -9  -6   6    0.10    4.75
  -9  -4  -8    1.21    1.78
  -8  -7  -3    7.27    1.95
  -8  -1  -9    6.41    2.47
  -8  -1   9    8.03    2.25
  -8   0  -9    2.35    2.10
  -8   1  -9    9.33    2.58
  -8   1   9    4.97    2.33
  -8   5   7    3.38    1.76
  -7  -5  -6    0.65    1.61
  -7  -4  -7  340.62    2.53
  -7   7   2    0.29    2.43
  -6  -1  -8  437.75    3.38
  -6  -1   8  373.90    3.10
  -6   1  -8  447.48    3.66
  -6   1   8  396.30    3.06
  -5  -6  -2    3.41    1.99
  -5  -6   2    1.86    2.23
  -5  -2  -7    1.30    1.70
  -5   6  -2    1.85    2.73
  -5   6   2    1.59    2.05
  -4  -5  -3    2.26    2.07
  -4   4   5    3.96    1.26
  -3   0   6    2.93    1.88
  -3   5   0   -0.51    1.80
  -2  -4  -1    7.79    1.81
  -2  -4   1    5.46    1.75
  -2   0  -5   57.34    2.01
  -2   0   5   52.23    1.92
  -2   4  -1    6.32    2.47
  -9  -4   8    2.71    3.28
  -9  -3  -9  222.26    2.94
  -9  -2   9   55.53    2.62
  -9   2   9   59.61    2.67
  -9   4   8   -0.01    2.45
  -9   6   6    3.32    1.93
  -9   7   4   17.46    2.70
  -8  -5  -7    5.85    2.33
  -8  -2  -9   -0.81    2.34
  -8   0   9    2.04    2.29
  -7  -7  -2    0.32    2.20
  -7  -7   2   -1.78    2.35
  -7  -6  -5  435.07    3.44
  -7  -5   6    2.34    3.59
  -7  -4   7  355.81    4.55
  -7  -3  -8   -0.25    2.31
  -7   3  -8    3.79    3.27
  -7   4   7  345.16    2.85
  -7   5   6    0.27    2.00
  -7   7  -1   84.88    3.30
  -6  -6  -4  240.58    2.79
  -6   3   7   75.82    2.25
  -5  -4  -6    3.97    2.00
  -5  -2   7    1.92    1.94
  -5   2   7    1.02    1.47
  -4  -4  -5    6.44    1.92
  -4  -3  -6  340.63    2.77
  -4   0  -7   87.53    2.50
  -4   5  -3    0.29    3.71
  -4   5   3    2.01    1.30
  -3  -5  -1  152.91    2.33
  -3  -5   0    0.52    1.64
  -3  -3  -5  341.71    2.67
  -3  -1  -6   12.99    2.05
  -3   1  -6   11.50    2.11
  -2  -1  -5   13.26    1.85
  -2   4   0  385.50    3.51
  -1  -3   0   -0.09    1.55
  -9  -8  -1   28.36    2.49
  -9  -8   0   -1.47    2.39
  -9  -8   1   25.09    2.70
  -9  -7  -5  110.94    2.86
  -9   3  -9  236.70    4.20
  -9   5   7  245.48    2.56
  -8  -7  -4  158.48    2.86
  -8  -4  -8   52.45    1.86
  -8   2  -9    1.16    2.72
  -8   3   8  355.92    3.10
  -8   5  -7    5.66    3.93
  -8   6   5    1.29    2.32
  -8   7  -3    5.40    3.16
  -7  -7  -3   21.24    2.18
  -7  -2   8   34.14    2.16
  -7   2   8   33.50    1.88
  -7   6   4   -0.48    2.23
  -7   7   0   -1.20    2.51
  -6  -5  -6  232.57    2.75
  -6  -4  -7    3.18    2.09
  -6  -3   7   69.02    2.62
  -6  -2  -8  467.77    2.92
  -6   4   6  305.55    2.70
  -6   5   5    0.08    1.49
  -6   6   3    9.94    2.03
  -5  -6  -3   41.52    2.17
  -5  -5  -5  723.82    3.67
  -5  -3  -7 1065.35    4.09
  -5   5   4   10.89    1.39
  -5   6  -1    6.82    2.32
  -5   6   0    0.42    2.45
  -4  -1  -7   44.15    2.22
  -4   4  -5    5.95    3.82
  -3  -4  -4   28.17    1.62
  -2  -4  -2  211.38    2.53
  -2  -3  -4 2232.37    5.52
  -1  -3  -1  264.74    2.60
  -1   1   3 2512.42    7.21
  -1   2   2    3.95    1.74
 -10   2   9   24.19    2.62
 -10   5   7   -0.77    2.52
 -10   6   6  194.20    2.75
 -10   7   4   62.64    2.98
  -9  -1   9  281.79    3.40
  -9   0   9   75.65    2.84
  -9   1   9  266.02    2.71
  -9   7  -4   10.23    4.13
  -8  -3  -9    5.11    2.30
  -8  -3   8  323.74    3.49
  -8   4  -8   47.52    3.97
  -8   4   7   68.38    2.35
  -8   5   6  533.18    3.59
  -7  -5  -7   30.40    2.32
  -7  -1  -9   51.66    1.96
  -7   1  -9   54.09    2.69
  -7   1   8    0.64    2.19
  -6  -7  -1   -0.94    1.90
  -6  -7   0  217.44    2.99
  -5  -1  -8    0.53    2.27
  -5   0  -8    7.29    2.32
  -5   0   7    4.99    1.96
  -5   3   6    2.37    1.34
  -5   4  -6    5.35    3.11
  -4  -5  -4  602.13    2.98
  -4  -2  -7   63.04    2.38
  -4   4   4  763.84    3.37
  -4   5   2  394.06    2.93
  -3  -5  -2    3.72    1.39
  -3  -2  -6    3.20    1.56
  -2  -2  -5   42.97    2.01
  -2  -2   4   34.31    2.57
  -1  -3  -2   14.93    1.85
  -1  -3   1  272.68    4.21
  -1  -1   3 2496.49    9.52
  -1   0  -4    1.55    1.79
  -9  -5   7  230.93    4.91
  -9   6   5  118.88    2.88
  -9   7   3  228.80    3.03
  -8  -7  -5    1.32    2.34
  -8   2   8   91.37    2.64
  -7  -7  -4   -1.69    2.14
  -7  -4  -8   23.95    1.83
  -7  -2  -9  487.31    3.87
  -7  -1   8    2.27    2.18
  -7   0   8   41.84    2.35
  -7   3   7   54.45    2.20
  -6  -7  -2  160.15    2.71
  -6  -7   1    1.61    2.29
  -6  -6  -5   -2.33    2.23
  -6  -3  -8  313.78    2.52
  -6   2   7   13.27    2.25
  -6   6   2  402.63    3.16
  -5  -6  -4   10.76    1.95
  -5   1  -8   -0.01    2.35
  -4  -6  -1    0.78    1.81
  -4  -6   0  657.74    3.89
  -3  -5  -3   32.62    2.12
  -3   2  -6    1.94    2.70
  -2  -4  -3   42.26    2.08
   0  -1  -1  244.48    3.37
 -11   5   7   68.85    3.05
 -10   0   9   21.91    2.68
 -10   1   9   13.66    1.95
  -9  -8   2    0.78    2.77
  -9   4   7   76.46    2.51
  -9   5   6   -2.82    2.37
  -8  -8  -1    0.00    2.34
  -8   3  -9    1.63    3.14
  -8   6   4   37.14    2.32
  -8   7  -2  277.34    4.62
  -7   4   6   24.62    1.99
  -7   5   5   43.35    1.81
  -7   6   3  489.04    3.59
  -6  -7  -3   -1.01    2.10
  -6  -1  -9    3.16    2.20
  -6   4  -7    5.90    2.97
  -6   5   4  401.00    3.01
  -6   6  -3    8.17    3.27
  -5  -5  -6    3.85    2.11
  -5  -4  -7   -0.79    2.07
  -5   5   3 1259.87    4.26
  -4  -6  -2  524.05    3.37
  -4  -5  -5    1.39    2.14
  -4  -4  -6  614.40    2.92
  -4  -3  -7   36.01    2.18
  -3  -4  -5  889.97    3.67
  -3  -3  -6    6.74    1.91
  -3   4   2    4.34    1.62
  -1  -2  -4    0.57    1.62
  -1   1  -4   16.38    1.99
  -1   2  -3 1461.19    9.53
 -11   1   9  148.60    3.31
 -10  -4   8  296.62    4.55
 -10   3   8   -0.64    2.32
 -10   6   5    7.80    2.68
 -10   7   3    9.01    2.53
  -9   2   8    1.41    2.46
  -9   7   2   -0.22    2.50
  -8  -8  -2   45.81    2.46
  -8  -2   8   85.30    2.45
  -8  -1 -10  288.37    2.99
  -8   0 -10   97.02    2.58
  -8   1   8  439.07    3.36
  -8   7  -1    1.98    2.70
  -8   7   0  548.74    4.60
  -7  -7   3   15.85    3.03
  -7  -3  -9   36.77    1.94
  -6  -5  -7   37.71    1.68
  -6  -4  -8  278.79    2.93
  -6  -4   6  290.54    4.01
  -6  -2  -9    2.22    2.17
  -6  -2   7   14.53    2.12
  -6   1  -9    2.64    2.34
  -6   1   7  105.92    2.38
  -6   3   6  418.50    2.96
  -6   4   5    2.87    1.91
  -5  -3  -8    1.87    2.08
  -5  -3   6    1.78    2.05
  -5   2   6    3.67    1.84
  -4  -6  -3   26.90    2.07
  -4  -6   1    0.02    1.78
  -3  -5   2    2.74    2.38
  -3  -1  -7  132.96    2.44
  -3   0  -7 1211.93    4.75
  -2  -4  -4   38.41    1.98
  -2  -4   2  177.20    3.78
  -2  -3  -5    5.33    1.82
  -2  -1  -6 1172.74    4.38
  -2   0  -6  317.24    3.04
  -2   0   4   17.16    1.87
  -2   2  -5   47.56    2.42
  -1   2   1 2233.05    7.52
   0  -1  -2    0.76    1.55
 -10   4   7    0.61    2.31
 -10   5   6    6.57    2.52
  -9  -3   8    1.64    2.31
  -9   6   4    5.09    2.44
  -8  -8   1    0.29    2.10
  -8  -4   7   59.43    2.91
  -8  -1   8  408.93    3.53
  -8   0   8  108.52    2.54
  -8   5   5    7.65    2.28
  -7  -7  -5   22.14    1.73
  -7  -5  -8    0.55    2.19
  -7   2   7  522.49    3.40
  -6  -7  -4  168.98    2.85
  -6  -6  -6  163.93    2.15
  -6   0   7   18.46    2.15
  -5  -6  -5    0.78    2.15
  -5   4   4   24.64    1.96
  -4  -1  -8  223.97    2.95
  -4   0  -8  502.54    3.48
  -4   5  -2  444.83    4.81
  -4   5   0  672.91    3.94
  -3  -5  -4   25.71    1.48
  -3  -2  -7 1016.25    4.13
 -11   3   8    0.96    1.92
 -11   6   5   93.61    2.86
 -11   7   3   25.95    2.68
 -10   2   8  553.19    3.99
  -9   1   8    2.15    2.48
  -8  -7   4  130.40    8.53
  -8   4   6  159.84    2.13
  -8   6   3   -0.34    2.30
  -7  -8  -1  160.10    2.82
  -7  -4  -9  307.75    3.37
  -7  -3   7   46.81    2.34
  -7  -1 -10    2.04    2.60
  -7   0 -10    0.05    2.72
  -7   6   2    1.28    2.01
  -6  -7   2  140.67    3.28
  -6  -3  -9    2.60    2.46
  -6   5   3    1.59    2.06
  -6   6  -2  402.11    4.62
  -6   6   0  120.58    2.66
  -5  -7  -2    2.30    1.98
  -5  -7  -1  492.98    3.50
  -5  -7   0    1.72    1.88
  -5  -6   3   33.62    3.27
  -5  -5  -7  577.61    3.29
  -5   1   6    1.82    2.03
  -5   5   2    2.50    1.85
  -4  -6  -4  399.40    3.17
  -4  -5  -6  172.31    2.49
  -4  -2  -8  399.08    2.72
  -4   1  -8  217.04    2.86
  -4   5  -1    3.94    1.97
  -3   1  -7  142.43    2.66
  -2  -5  -2 1531.81    4.93
  -2  -5  -1    0.39    1.66
  -2   1  -6 1267.21    5.23
  -1  -4  -1 1000.24    4.28
  -1  -3  -4    2.01    1.82
  -1  -1  -5 1176.41    4.14
  -1   0  -5  417.07    3.19
   0  -2  -2 3618.59    8.54
   0  -2  -1   -0.20    1.77
 -12   6   5    3.35    2.84
 -11   4   7  136.35    2.84
 -11   5   6   -0.25    2.62
 -10   6   4  535.82    4.14
  -9  -2   8   -0.80    2.34
  -9   3   7  482.64    3.30
  -9   7  -3  188.79    4.40
  -9   7   0   -1.63    2.60
  -7  -8  -3  152.71    2.90
  -7  -8  -2    0.26    1.65
  -7  -8   0   -1.83    2.06
  -7  -2 -10   -0.39    1.95
  -7   1   7   70.83    2.40
  -7   3   6    3.62    2.05
  -7   4   5  975.25    4.10
  -6  -7  -5   -1.45    2.12
  -6  -5  -8  162.03    2.60
  -6  -5   5   -0.26    3.91
  -6   2  -9    1.08    2.29
  -6   2   6  468.55    3.10
  -6   6  -1   -0.75    2.42
  -5  -7  -3  538.30    3.70
  -5  -6  -6    4.27    2.09
  -5  -4  -8    3.13    1.63
  -5  -2  -9   10.06    2.37
  -5  -1  -9  519.69    3.17
  -5   0  -9   13.41    2.66
  -4  -3  -8  167.34    2.55
  -4  -3   5    6.29    2.40
  -3  -6  -2    0.26    1.76
  -3  -6  -1  742.78    3.72
  -3  -5  -5  158.77    2.42
  -3  -3  -7  111.42    2.35
  -2  -5  -3    8.30    2.00
  -2  -4  -5   21.82    1.88
  -2  -3  -6  893.46    3.65
  -2  -3   3   18.41    3.95
  -1  -4  -2    0.51    1.24
   0   0  -3    0.03    1.59
 -12   4   7    3.44    2.44
 -11   2   8    2.17    2.71
 -10  -5   7   -0.83    3.29
 -10  -3   8   -0.67    2.51
 -10   1   8    2.10    2.43
 -10   7   1   -1.39    2.64
  -9  -1   8    1.85    2.42
  -9   0   8    0.81    1.87
  -9   6   3  367.74    3.43
  -9   7  -2    0.70    3.17
  -8  -8   2   32.69    2.94
  -8   2   7  106.02    2.02
  -7   1 -10    3.26    2.61
  -6  -6  -7    3.94    1.72
  -6  -4  -9    0.23    2.32
  -5  -7  -4    1.68    2.23
  -5  -2   6    4.07    1.82
  -5   0   6    4.37    1.97
  -4  -6  -5    1.50    2.02
  -4  -6   2  469.79    4.75
  -4   1   5   10.08    1.86
  -3  -6  -3  332.55    2.90
  -3  -6   0   -0.06    2.04
  -1  -4  -3  650.41    3.48
  -1  -4   0    1.65    1.69
  -1   1  -5 1304.19    5.72
   0  -2  -3   -1.02    1.65
 -12   5   6  205.02    2.93
 -11   6   4   14.51    2.70
 -10   5   5   -0.22    2.63
 -10   7  -4   44.24    3.97
  -8   5   4  430.75    3.26
  -8   6   2  157.26    2.68
  -7  -8   1  140.09    3.42
  -7  -1   7   65.63    2.19
  -7   0   7  568.80    3.47
  -7   6  -4    1.22    3.33
  -6  -7  -6   93.58    2.36
  -6  -2 -10  152.11    3.14
  -6   4   4  466.09    2.75
  -5  -7   1  470.26    3.95
  -5  -3  -9  332.78    3.01
  -5  -1   6    0.45    1.86
  -4  -5  -7   12.20    2.13
  -3  -5  -6    8.08    1.94
  -3  -4  -7  640.51    3.30
  -3  -2  -8    0.81    2.22
  -3  -1  -8    6.11    2.22
  -3   0  -8    2.40    2.19
  -3   2  -7 1131.85    5.81
  -3   4   0    0.03    1.73
  -2  -5  -4 1173.58    4.18
  -2  -2  -7  150.30    2.40
  -2  -1  -7    6.66    1.50
  -2   0  -7  197.25    2.78
  -1  -4  -4    2.95    1.84
  -1  -3  -5  860.69    3.33
   0  -1  -4    2.60    1.69
 -12   2   8    2.40    2.03
 -11   1   8    0.03    2.45
 -10  -2   8  518.98    4.13
 -10   0   8  637.94    4.15
 -10   4   6  426.85    2.94
 -10   7   0    3.24    2.87
  -9   2   7  172.88    2.71
  -8  -5   6  539.30    6.43
  -8  -3   7    8.06    2.71
  -8   1   7   10.55    2.32
  -8   3   6  973.57    3.73
  -8   4   5    1.87    2.24
  -7   5   3   54.09    2.13
  -7   6   0    1.41    2.30
  -6  -8  -3    0.47    2.38
  -6  -8  -2  109.41    2.57
  -6  -8  -1    0.47    2.10
  -6   1   6  541.89    3.33
  -6   5   2  418.31    3.22
  -5  -7  -5  315.13    3.04
  -5  -6  -7   -0.48    2.26
  -5  -5  -8    0.42    1.59
  -5  -4   5    0.80    2.48
  -5   3  -8   -0.12    3.02
  -4  -7  -3    1.68    2.24
  -4  -7  -2  168.81    2.51
  -4  -7  -1   -1.71    1.88
  -4  -4  -8  283.27    2.38
  -4  -2  -9    3.45    2.31
  -4  -1  -9   -0.07    2.20
  -4   0  -9    4.29    2.38
  -3  -6  -4    4.15    1.44
  -2  -4  -6  158.81    2.31
  -1  -2  -6  127.78    2.24
  -1   0  -6  154.67    2.55
   0  -3  -3    3.49    1.69
   0  -3  -2    0.48    1.33
   0  -3  -1  145.51    2.47
 -13   2   8    1.26    2.88
 -12   6   4   53.78    2.70
 -11  -3   8    4.55    2.58
 -11   3   7  193.96    2.52
 -11   5   5  187.84    3.03
 -10  -1   8    4.30    1.78
 -10   6   3   39.61    2.02
 -10   7  -3    4.85    3.57
 -10   7  -1    3.03    2.82
  -9  -4   7   85.13    2.86
  -9   5   4   39.93    2.50
  -7   2   6   25.57    1.62
  -6  -8  -4   82.04    2.79
  -6  -8   0   45.96    2.60
  -5  -4  -9    5.82    1.78
  -5  -1 -10   28.11    2.40
  -5   5   0    1.50    1.90
  -4  -7  -4  242.40    2.71
  -4  -3  -9   -2.46    2.14
  -4  -2   5    9.12    1.91
  -3  -6  -5  419.04    3.06
  -3  -3  -8    4.92    1.68
  -3   1  -8    6.87    2.18
  -3   4  -3  631.25    8.38
  -3   4  -1 1761.61    7.36
  -2  -5  -5    3.93    1.47
  -2  -5   1    2.23    1.63
  -2  -3  -7    9.64    1.47
  -2   1  -7    7.94    2.03
  -2   2  -6  272.07    3.41
  -1  -4  -5  297.58    2.51
  -1   0   2    2.29    1.64
  -1   2  -4    1.79    2.08
 -13   6   4    3.32    2.76
 -12   1   8  347.17    3.47
 -12   3   7    8.15    2.63
 -12   7   1   -0.69    2.89
 -11  -2   8    3.16    2.49
 -11   4   6    8.38    1.81
 -10  -6   6  140.61    5.33
 -10   2   7    0.55    2.36
 -10   7  -2   25.68    3.16
  -9   1   7  643.55    3.80
  -9   3   6    2.79    1.98
  -9   6   2    0.06    1.86
  -8  -2   7  107.04    2.66
  -8   0   7  136.29    2.62
  -8   6   1    3.92    1.68
  -7  -4   6   22.39    2.61
  -7   4   4    6.03    1.96
  -7   5  -7   28.38    5.36
  -7   6  -3  468.90    5.42
  -7   6  -1  528.30    4.39
  -6   0   6  498.69    3.38
  -5  -7  -6    3.78    2.22
  -5  -2 -10   37.35    1.89
  -5   0 -10   36.39    2.77
  -5   2  -9    9.78    2.63
  -5   5  -4   12.57    3.99
  -4  -7   0  205.92    2.72
  -4  -5  -8   84.66    2.49
  -4  -1   5    9.90    1.84
  -4   1  -9    0.72    2.31
  -4   4   1    4.43    1.65
  -3  -6   1  737.00    4.72
  -3  -5  -7   65.16    2.23
  -2  -6  -2   91.85    1.96
  -1  -5  -2    3.66    1.74
  -1  -3  -6   30.71    1.34
   0  -3  -4    0.92    1.72
   0  -2  -5    0.01    1.66
   0  -1  -5   10.08    1.80
   0   1  -2    0.54    2.06
 -13   1   8    1.28    2.57
 -12  -3   8  216.39    3.79
 -12   0   8    0.37    2.64
 -12   5   5    0.79    2.04
 -11  -1   8    2.70    1.97
 -11   6   3   29.10    2.02
  -8  -1   7    6.21    2.03
  -8   2   6  264.41    2.89
  -8   5   3   13.18    1.67
  -7   5   2    3.47    2.20
  -7   6  -2    1.32    2.25
  -6  -1   6  526.63    3.50
  -6   3  -9    2.54    2.89
  -6   4   3   23.37    2.08
  -6   5   1    5.66    2.21
  -5  -8  -3   11.67    1.98
  -5  -8  -2   -2.00    1.81
  -5   4  -7    1.90    3.42
  -5   4   2    2.35    1.98
  -4  -7  -5   -1.48    2.10
  -4  -6  -7    2.97    1.77
  -4  -4  -9    4.36    2.35
  -3  -6  -6    2.42    2.22
  -3  -4  -8   -0.20    1.49
  -3  -2  -9  567.12    3.44
  -3  -1  -9   85.80    2.41
  -3   4  -2    5.92    2.31
  -2  -6  -4   19.67    1.89
  -2  -6  -3    8.58    1.48
  -2  -6  -1    0.38    1.61
  -2  -5  -6  524.32    3.11
  -2  -4  -7   74.91    1.72
  -2  -2  -8  101.00    2.41
  -2  -1  -8 1045.61    4.36
  -1  -5  -4   -1.19    1.88
  -1  -4   1 1053.42    6.40
  -1  -2  -7  558.13    3.07
  -1   1  -6   49.64    2.18
   0   1  -3   19.85    1.93
 -14   3   7   30.44    2.92
 -13   5   5   53.99    2.74
 -12  -2   8   -0.15    2.62
 -12  -1   8  349.72    3.80
 -12   6   3   -0.48    2.74
 -11   2   7  252.76    2.69
 -10  -4   7    2.67    2.97
 -10   3   6    8.05    2.20
 -10   4   5   18.43    2.33
 -10   6   2  549.91    4.16
  -9  -3   7  463.87    4.10
  -9   0   7  183.53    2.89
  -9   6   1   98.74    2.96
  -8   6  -5    0.23    4.14
  -7   1   6    2.03    1.57
  -6   4  -8  286.17    4.84
  -5  -8  -4    0.46    2.38
  -5  -8  -1    0.68    2.06
  -5   1 -10   27.19    2.67
  -5   5  -1 1326.43    5.84
  -3  -7  -3   22.03    2.21
  -3  -7  -2    0.93    1.87
  -3  -3  -9   60.84    2.50
  -2  -3  -8  726.19    3.61
  -2   0  -8  130.73    2.59
  -1  -4  -6   83.32    1.66
  -1  -3  -7  328.53    2.52
  -1   0  -7  713.05    3.80
   0  -4  -3   -0.85    2.04
   0  -4  -2 2041.63    5.93
   0  -3   0    4.23    1.85
   0   0  -5    1.52    1.31
 -14   4   6  224.58    3.52
 -14   5   5    2.64    2.58
 -13   0   8    2.01    2.59
 -12   2   7    4.16    2.58
 -11   7  -3   24.46    3.66
 -11   7  -2   -0.60    2.96
 -10   1   7    2.41    1.71
  -9   5   3  665.99    4.01
  -8  -6   5    0.66    4.33
  -8   3   5   17.88    1.57
  -8   4   4   89.42    1.91
  -7  -8   2   -0.23    2.49
  -6  -8   1    0.12    2.62
  -5  -7   2    0.51    2.62
  -5   5  -2    2.87    2.66
  -4  -7  -6   70.65    1.94
  -4  -6  -8  137.74    2.55
  -4  -5  -9    0.88    2.01
  -4  -3 -10   85.17    2.67
  -4  -2 -10  377.11    2.92
  -4  -1 -10  126.27    2.35
  -3  -7  -4    7.21    2.12
  -3  -7  -1   53.10    2.02
  -3  -5  -8    3.96    2.15
  -2  -6  -5    4.21    2.00
  -2  -5  -7    5.32    1.91
  -1  -5  -5  460.79    2.68
   0  -4  -4 1493.34    4.34
   0  -4  -1    0.19    1.76
   0   1  -4    2.60    1.87
 -13  -2   8    3.52    2.74
 -13  -1   8   -0.29    2.63
 -13   2   7  319.24    3.66
 -12   7  -1   -3.66    3.08
 -11   1   7  290.84    3.35
 -11   3   6   -1.32    1.74
 -11   4   5  210.81    3.02
  -9  -2   7  153.32    2.60
  -9  -1   7  595.63    3.48
  -9   2   6    7.96    1.69
  -8   1   6 1417.43    4.87
  -8   5  -8  162.28    7.52
  -8   6  -1    5.40    2.54
  -7   4   3  919.29    4.13
  -5  -8   0    2.64    2.44
  -5   0   5    2.55    1.89
  -5   5  -3 1359.38    8.39
  -4  -7   1   -0.40    1.90
  -3  -7  -5   54.14    2.15
  -3  -6  -7  328.25    2.65
  -3  -4  -9  392.69    3.28
  -3   2  -8    3.23    2.54
  -2  -6   0  133.85    2.34
  -2  -4  -8   65.10    1.79
  -2   1  -8 1021.60    4.71
  -1  -5   0    0.10    1.59
  -1  -4  -7  354.10    2.71
  -1  -2   2    2.71    3.33
  -1   2  -5  427.25    4.11
   0  -4  -5   -1.37    1.77
   0  -3  -6    1.79    1.71
 -14   2   7    4.64    2.81
 -14   6   3   -2.00    2.19
 -12   3   6  538.48    3.85
 -12   5   4  408.08    3.36
 -12   6   2   27.94    3.07
 -10  -3   7   -1.67    2.47
 -10   0   7    2.24    1.79
 -10   5   3   18.53    2.51
 -10   6   1    0.91    2.78
  -9  -5   6   -0.42    2.73
  -9   3   5  473.35    3.27
  -9   4   4   21.47    2.59
  -9   6  -6   -1.03    4.82
  -8   5   2  662.66    3.54
  -7  -3   6    1.64    2.32
  -7   4  -9  333.28    5.95
  -7   5   1  205.86    3.00
  -6  -7   3    0.76    4.41
  -6   1   5    0.87    2.09
  -5  -3   5 1169.04    5.87
  -4  -8  -4  142.95    2.77
  -4  -8  -2  172.39    2.67
  -4  -4   4  785.86    7.43
  -3  -7  -6    6.00    2.08
  -3  -2 -10   22.42    2.15
  -3   1  -9   88.91    2.80
  -3   1   3   11.59    1.78
  -2  -6  -6   78.60    1.90
  -2  -3  -9    6.18    2.16
  -2  -2  -9   66.37    1.93
  -2  -1  -9    7.01    2.20
  -2   2   1   24.58    1.61
  -1  -6  -3  252.83    2.59
  -1  -5  -6   22.31    1.52
  -1  -3  -8    4.77    1.94
  -1  -2  -8   71.73    2.25
  -1  -1  -8   11.72    2.20
   0   0  -6 3181.27    7.24
   1  -2  -4   -0.16    1.69
   1  -2  -2    3.11    1.93
   1  -1  -4   15.66    1.83
   1  -1  -3 2586.68    7.03
 -13   3   6   -1.46    2.63
 -13   5   4    2.61    2.67
 -12   1   7   10.76    2.47
 -12   4   5   19.23    1.99
 -12   7  -2  185.10    4.44
 -11  -4   7  142.68    3.26
 -11   0   7  284.77    3.12
 -10  -2   7    3.96    2.41
 -10  -1   7    2.72    2.62
 -10   2   6  608.72    3.31
  -8  -4   6  155.92    3.38
  -8   6  -4   42.63    3.78
  -8   6  -2  152.72    3.41
  -7  -2   6   28.00    2.22
  -6   4   2  945.55    4.23
  -5  -2   5    3.65    2.17
  -5  -1   5 1631.19    5.54
  -5   4   1   13.19    1.98
  -4  -8  -5    0.92    2.24
  -4   1 -10  131.33    3.15
  -3  -7   0    0.80    1.86
  -3  -6  -8    3.75    2.24
  -3  -3 -10   34.10    2.47
  -3  -1 -10   44.34    2.10
  -3   2   2   16.48    1.79
  -2  -7  -4  476.45    3.17
  -2  -7  -3    2.60    2.00
  -2   0  -9   92.96    2.75
  -1  -6  -4    0.59    1.38
  -1  -6  -2    0.35    1.66
  -1   1  -7  477.09    3.58
   0  -5  -4    2.23    1.82
   0  -5  -3    0.76    1.31
   0  -5  -2    1.64    1.63
   0  -4  -6 1523.72    4.49
   0  -3  -7  687.53    3.19
   0  -2  -7   -1.60    1.96
   0   1  -5   13.39    2.01
   1  -3  -4    7.45    1.83
   1  -3  -2   17.46    1.98
   1  -1  -2   37.05    1.55
 -14   3   6   40.26    2.75
 -14   5   4   47.60    2.79
 -13   1   7   42.73    2.88
 -13   4   5  266.04    2.97
 -13   6   2    2.74    2.55
 -11   2   6    8.39    2.50
 -10   3   5    3.55    2.28
 -10   4   4 1236.85    4.95
  -9   1   6    0.75    2.16
  -9   5   2    8.52    2.50
  -8  -8   3    0.18    4.63
  -8   0   6  301.27    3.12
  -8   4   3    7.23    2.21
  -8   6  -3    0.85    2.91
  -4  -8  -1    0.35    1.99
  -4   0   4 1554.44    5.44
  -2  -7  -5    3.63    1.97
  -2  -7  -2  548.82    3.35
  -2  -6  -7   35.52    1.79
  -2  -4  -9   39.55    1.82
  -1  -6  -5  157.39    1.99
  -1  -5  -7  192.36    2.11
  -1  -4  -8   43.70    2.21
   0  -5  -5   16.82    2.09
   1  -3  -5  877.93    3.52
   1  -1  -5 1225.20    4.44
 -15   3   6    1.05    2.78
 -15   4   5    7.75    2.74
 -15   5   4    0.03    2.21
 -14   1   7   50.23    2.97
 -14   4   5    1.08    1.98
 -14   6   2  162.78    3.82
 -12  -4   7    0.37    2.74
 -12   0   7    1.46    2.58
 -11  -3   7  210.82    3.45
 -11  -2   7  250.20    3.36
 -11  -1   7  280.93    3.57
  -9   6  -1   98.32    3.14
  -7   1   5  114.79    2.54
  -6  -4   5    1.63    2.58
  -6   0   5    5.57    2.17
  -6   5  -1    4.77    2.09
  -5   1   4  121.45    2.33
  -3  -8  -4    1.35    2.01
  -3  -8  -3  127.35    2.28
  -1  -6  -6   46.94    2.37
  -1  -2  -9  211.85    2.78
  -1   2  -6  141.50    2.85
   0  -4  -7    1.87    1.86
   0   0  -7    1.86    2.09
   1  -4  -4    0.51    2.02
   1  -4  -3  707.46    3.77
   1  -2  -6  127.85    2.24
   1  -2  -1 2539.72    8.51
   1   0  -4    1.88    1.84
   1   0  -3 1895.49    6.91
 -15   1   7  176.31    3.23
 -13   0   7  373.16    3.63
 -12   2   6   24.37    2.36
 -12   5   3   15.44    2.04
 -12   6   1   -2.23    2.72
 -11   3   5  346.73    3.04
 -11   4   4   29.25    2.04
 -10   5   2   80.31    2.91
  -8  -3   6 1003.03    5.18
  -8  -1   6 1442.81    5.41
  -8   5   1    5.08    1.91
  -7  -5   5   41.55    3.00
  -7   4   2   -1.78    2.35
  -5  -8   1    3.79    2.50
  -5  -5   4   11.89    3.55
  -4   4  -1    1.85    2.06
  -3  -8  -2   -0.73    1.93
  -2  -7  -1   -0.84    1.80
  -2  -6  -8   32.03    1.75
  -2  -5  -9    1.37    1.54
  -2  -3 -10  254.20    3.10
  -2  -1 -10  382.35    3.57
  -2   1  -9    7.75    2.32
  -1  -5  -8    5.40    2.12
  -1  -3  -9  330.15    2.55
  -1  -1  -9  473.61    3.33
   0  -3  -8   -1.21    2.01
   0  -2  -8  815.12    3.36
   0  -1  -8   -2.47    2.04
   0   1  -6   -0.76    1.99
   1  -4  -5  291.76    2.18
   1  -4  -2    2.20    1.81
   1  -3  -1  286.54    3.08
   1  -1  -6   45.50    2.10
   1   0  -5  404.39    3.06
 -14   0   7    2.44    2.73
 -13   2   6   36.13    2.66
 -13   5   3  166.17    3.11
 -13   6   1  205.36    3.99
 -12  -3   7    8.48    2.71
 -12  -2   7    0.50    2.57
 -12  -1   7    8.60    2.14
 -12   3   5    1.27    2.40
 -12   4   4  101.62    2.84
 -11   6   0    2.34    2.77
 -10  -5   6    3.87    2.85
  -9   0   6    9.60    1.70
  -9   2   5  336.55    2.59
  -9   4   3  806.11    4.04
  -9   6  -2   -0.37    2.79
  -8  -7   4  142.10    9.00
  -8  -2   6  255.13    3.12
  -4  -8   0  225.90    3.20
  -3  -6   2    2.10    3.04
  -2  -7  -7    5.63    2.39
  -2  -6   1   -0.33    2.07
  -1  -7  -4    0.38    1.96
  -1  -7  -3  324.30    2.71
  -1   1  -8    9.41    2.37
   0  -6  -5    2.40    1.92
   0  -6  -4  692.96    3.52
   0  -6  -3    0.99    1.84
   0  -5  -7  355.41    2.83
   0  -4  -8  593.92    3.32
   1  -4  -6   85.36    2.08
   1  -2  -7  561.10    3.16
 -15   0   7   16.74    2.94
 -14   2   6  394.37    3.66
 -14   5   3    3.06    2.61
 -14   6   1    4.76    3.13
 -13  -3   7   28.78    3.14
 -13  -1   7   40.26    3.04
 -13   4   4   21.42    2.67
 -11   1   6    1.02    1.84
 -11   5   2   -1.56    2.67
 -10   6  -1   -2.00    2.42
  -9  -4   6    2.17    2.49
  -9   5   1  551.62    3.98
  -9   6  -5   96.67    4.81
  -8   1   5   22.79    2.29
  -6  -8   2  110.79    4.41
  -6  -1   5    2.19    1.99
  -6   4   1    0.91    2.01
  -6   5  -2  444.94    4.41
  -5   4  -8    8.05    3.74
  -3  -8  -1  289.36    3.10
  -3  -7   1   59.95    2.71
  -3   0   3  807.83    4.23
  -2  -5   2 1635.52   10.16
  -2   0 -10   53.16    2.73
  -1  -7  -5  197.12    2.11
  -1  -6   0    2.47    2.18
  -1  -5   1  249.27    3.68
  -1   0  -9  251.36    2.70
   0  -6  -6  721.74    3.75
   0  -6  -2  805.38    3.52
   0   0  -8 1074.41    4.47
   1  -5  -5  496.37    3.17
   1  -5  -4   -2.23    1.31
   1  -5  -3  888.89    4.04
   1  -3  -7  326.28    2.25
   1  -1  -1  142.04    2.53
   1   0  -6  153.87    2.55
   1   0  -2    3.13    1.69
 -16   2   6  125.22    3.36
 -15   2   6    1.50    2.05
 -15   5   3  139.03    2.84
 -15   6   1   14.14    2.91
 -14  -1   7   46.82    3.02
 -14   3   5    1.46    2.36
 -14   4   4  279.07    3.53
 -13  -2   7  286.87    3.65
 -12   1   6  721.89    4.20
 -12   6   0   -1.57    2.54
 -10   0   6  715.16    4.03
 -10   2   5   29.70    1.88
 -10   4   3   85.29    2.72
  -9  -1   6   -0.88    2.20
  -9   6  -4    4.50    3.34
  -9   6  -3  328.30    4.67
  -8   4   2  350.61    3.40
  -7   0   5 1919.14    5.94
  -6  -3   5    1.16    2.18
  -6  -2   5   -0.86    1.95
  -6   4  -9    0.98    3.16
  -4  -3   4 1254.18    7.00
  -4  -2   4 1348.21    6.42
  -4   3  -9    2.56    3.40
  -3   3  -8    6.29    2.89
  -2  -8  -4    7.93    2.14
  -2  -8  -3    2.13    1.89
  -2  -7   0  204.37    3.13
  -1  -7  -6   12.69    1.68
  -1  -7  -2   -0.02    1.32
  -1  -6  -8   19.62    1.70
  -1  -3 -10    3.55    2.38
  -1  -2 -10    6.81    1.73
  -1   2  -7  637.75    4.41
   0  -3  -9   -1.44    2.26
   0   1  -7 1163.09    4.93
   1  -5  -6   23.80    2.01
   1  -5  -2    4.06    1.68
   1  -4  -1 1106.20    4.77
   2  -3  -5    6.30    1.80
   2  -3  -4 2343.74    5.83
   2  -2  -5   42.56    1.93
   2  -2  -4   35.39    1.45
   2  -2  -3  107.02    2.26
 -16   3   5   -0.71    2.62
 -16   4   4   45.28    3.00
 -15  -1   7  174.93    3.33
 -15   4   4    0.75    2.51
 -14  -3   7   25.39    2.69
 -14  -2   7    4.75    2.60
 -13   1   6    0.48    2.78
 -13   6   0   -1.06    3.04
 -12   5   2  689.93    4.06
 -11  -5   6   -0.54    3.04
 -11   2   5  357.84    3.24
 -11   6  -1  178.09    3.58
 -10   3   4  305.74    2.69
 -10   6  -2  533.32    5.50
  -9  -6   5  103.65    4.54
  -9  -3   6    1.69    2.47
  -9  -2   6    9.97    2.26
  -7   5  -1  211.20    3.23
  -6   1   4 1173.57    4.34
  -5   0   4   83.68    2.24
  -5   3 -10   18.38    3.34
  -4  -7   2  200.38    4.89
  -4   2   2 2199.27    6.23
  -2  -8  -2   29.02    1.94
  -1  -1 -10    2.13    1.96
   0  -5   0    2.69    2.05
   0  -1  -9    1.18    1.63
   1  -3  -8    8.35    2.10
   1  -2  -8   68.87    2.27
   2  -4  -5   24.15    1.88
   2  -3  -6  875.29    3.48
   2  -3  -3   19.23    1.53
   2  -2  -6  252.89    2.59
   2  -1  -4 3726.23    7.81
 -14   1   6   43.43    2.97
 -14   6   0  288.43    4.68
 -13   5   2    0.49    2.46
 -11   0   6   15.72    1.96
 -11   3   4  133.06    2.73
 -11   4   3   46.53    2.09
 -10  -4   6  411.75    4.37
  -9   1   5  597.95    3.32
  -6   3   2  848.37    4.22
  -6   5  -3    3.77    2.90
  -4   4  -7   31.19    3.93
  -4   4  -2 1130.63    6.90
  -2   0   2  867.42    5.23
  -2   1 -10  381.35    3.87
  -1  -7  -1  106.81    2.23
  -1   1  -9  500.96    3.80
   0  -7  -5    6.21    1.97
   0  -7  -4   -0.59    1.92
   0  -6  -1    1.18    1.65
   0  -5  -9    0.69    1.92
   0  -3   1  149.74    3.66
   1  -6  -5  152.67    2.35
   1  -6  -4    3.68    1.84
   1  -5  -7  199.24    2.13
   1  -4  -8   41.38    1.62
   1  -1  -8    7.79    2.18
   1   0  -7  734.62    3.94
   2  -4  -6  152.37    2.27
   2  -4  -3   43.80    2.23
   2  -1  -5   13.11    1.37
 -16   1   6   85.22    3.24
 -15   1   6    9.47    2.07
 -15   5   2    3.59    2.83
 -15   6   0   -0.55    3.29
 -14   5   2   46.21    2.75
 -12   0   6   23.85    2.64
 -12   2   5   34.11    2.00
 -12   4   3   -0.13    2.59
 -11   6  -2    2.66    3.39
 -10  -2   6  616.75    4.19
 -10   6  -6  128.98    5.95
 -10   6  -3   36.93    3.31
  -9   4   2    5.56    2.42
  -9   5   0    0.36    2.45
  -7  -4   5  956.25    6.08
  -7  -1   5  120.59    2.58
  -7   4   1 1073.38    4.50
  -3  -8   0    2.12    2.65
  -3   1   2   29.24    1.50
  -3   2   1 3693.45    8.90
  -2   0 -11   15.48    2.79
  -2   3  -7    8.10    2.82
  -1  -8  -4   -0.91    2.06
   0  -7  -6    0.22    2.13
   0  -7  -3    2.72    1.91
   0  -3 -10    2.92    2.37
   0  -2 -10  473.09    3.45
   0   0  -9    2.39    2.41
   0   1  -8    1.18    2.16
   1  -6  -3  239.54    2.43
   1  -3  -9  335.36    2.90
   1   1  -5 1266.94    5.34
   1   1  -4   16.11    2.20
   2  -5  -5    6.80    2.06
   2  -3  -7    9.53    1.94
   2  -3  -2 4199.38    8.47
   2  -2  -7  150.94    2.40
   2  -2  -2  585.16    3.88
   2  -1  -6 1183.85    4.09
   2  -1  -3   96.21    1.93
 -16   5   2   62.28    2.93
 -14   2   5   -0.07    2.55
 -13   0   6   42.30    2.84
 -13   2   5  343.30    2.94
 -13   4   3  550.26    4.25
 -12  -5   6  231.88    4.22
 -11  -4   6    8.51    3.07
 -11  -1   6    1.24    2.41
 -10   1   5    3.67    1.85
 -10   6  -4  525.41    6.84
  -8  -5   5    5.32    2.77
  -7   5  -2   -0.48    3.04
  -6   5  -5   -0.58    4.16
  -6   5  -4  416.69    5.94
  -4  -8   1   -0.47    2.85
  -3  -1   3   13.84    1.94
  -2  -8  -1   -0.75    2.08
  -1  -8  -3   82.39    2.17
  -1  -1 -11  219.19    3.19
   0  -7  -2    1.19    1.64
   0  -4 -10  263.69    2.61
   0  -2   1    0.13    2.39
   0  -1 -10    2.85    2.63
   0   2  -5   -0.41    2.01
   0   2  -4 2968.89   10.65
   1  -5  -1  250.25    2.71
   1  -4  -9  135.24    2.49
   1  -2  -9  213.39    2.28
   1   0  -8   87.43    2.45
   1   1  -6   47.12    2.03
   2  -5  -6  540.91    3.18
   2  -5  -4 1232.41    4.09
   2  -5  -3    7.59    1.91
   2  -4  -7   74.27    1.57
   2  -4  -2  222.38    2.59
   2  -1  -7    7.80    2.04
 -16   2   5    2.06    2.77
 -15   0   6   -0.66    2.76
 -15   2   5   15.29    2.70
 -14   0   6  453.22    3.85
 -14   4   3    1.30    2.56
 -14   6  -1    1.28    3.14
 -12  -1   6  717.06    4.40
 -12   5   1    2.24    2.50
 -12   6  -2   25.94    3.40
 -11  -3   6    0.02    2.49
 -11  -2   6    9.79    2.58
 -11   1   5  497.16    3.82
 -10   4   2 1166.17    4.97
 -10   6  -5    4.91    3.51
  -9   0   5  394.49    3.51
  -8   5  -1    6.31    2.37
  -7  -3   5   86.13    2.77
  -7  -2   5 1579.58    5.83
  -7   3   2    1.68    2.28
  -6   0   4  927.43    4.54
  -5  -1   4  130.05    2.51
  -5   1   3 4528.26    9.01
  -5   4  -1   16.34    2.21
   0   2  -6 2841.61    8.81
   1  -6  -2    0.83    1.70
   1  -5  -9  179.63    2.54
   1  -3   0    0.88    1.79
   2  -5  -7    8.33    2.02
   2  -4  -8   65.82    2.09
   2  -2  -8  110.74    2.38
   2   0  -5   55.68    2.08
 -17   3   4   17.55    2.81
 -16   0   6  154.12    3.17
 -16   4   3    1.35    2.12
 -15   3   4   -2.57    2.36
 -15   6  -1   11.90    2.91
 -13  -1   6    0.29    2.61
 -13   5   1   34.73    2.66
 -12  -4   6   10.74    2.88
 -10  -6   5    7.36    3.79
 -10   3   3   39.92    2.55
 -10   5   0   17.02    2.44
  -8  -1   5   22.09    2.46
  -8   4   1   22.58    1.82
  -5   2   2    3.51    2.04
  -2   1   1   49.55    1.67
  -1  -8  -2   -0.46    1.98
  -1   1 -10    2.56    2.77
   0  -8  -5    0.18    1.89
   0  -4   1    1.13    2.47
   0   0 -10  588.30    4.05
   1  -7  -5  191.53    2.49
   1  -7  -4    0.62    1.91
   1  -4   0    1.21    2.52
   1  -3 -10    1.35    2.46
   1  -2 -10    4.02    2.10
   1  -2   0    1.27    1.75
   1   1  -7  464.75    3.42
   1   1  -3 2465.33    8.59
   2  -6  -5    6.48    1.91
   2  -6  -4   17.70    1.83
   2  -1  -8 1036.21    4.14
   2   0  -6  326.69    2.99
   2   0  -4   16.30    1.40
   3  -4  -5  954.88    3.84
   3  -3  -5  357.10    2.41
   3  -3  -4   83.28    2.33
   3  -2  -6    5.83    1.94
   3  -2  -5 1437.59    4.62
   3  -2  -4  102.62    2.21
 -15   5   1  171.97    3.71
 -14  -1   6   45.48    3.04
 -14   5   1   -1.89    2.08
 -13   6  -2    1.78    2.96
 -12  -3   6  525.48    4.50
 -12  -2   6   14.82    2.11
 -12   1   5    2.59    1.95
 -11   2   4   59.49    2.61
 -11   4   2    0.92    1.96
 -11   5   0   -0.72    2.74
 -11   6  -4   13.06    3.79
 -10   0   5   30.55    2.48
  -5  -4   4   29.08    3.23
  -3  -9  -1   16.79    2.74
  -1  -7   0    0.98    2.07
   0  -8  -4  248.97    2.77
   0  -6   0 3500.11    8.99
   0   1  -9    0.80    2.31
   0   2  -7   -0.99    2.66
   1  -7  -3  336.54    2.83
   1   0  -9  261.28    3.29
   2  -6  -7   36.35    2.17
   2  -6  -6   80.08    1.86
   2  -5  -2 1637.36    5.09
   2  -4  -9   41.33    2.05
   2  -3  -9    5.36    2.23
   2  -2  -9   70.20    2.50
   2   0  -7  204.83    2.80
   3  -4  -6    2.45    1.37
   3  -4  -4   31.95    1.73
   3  -3  -7  103.07    2.22
   3  -3  -3   21.31    2.09
 -16  -1   6   82.34    2.98
 -16   5   1   -1.36    2.26
 -15  -1   6    8.60    2.12
 -14  -2   6  384.63    4.29
 -14   1   5    3.36    2.65
 -13  -4   6   18.70    2.74
 -13  -3   6    2.12    2.82
 -13  -2   6   31.93    2.73
 -13   1   5  107.52    2.29
 -12   4   2   47.90    2.12
 -12   6  -3   -2.70    2.95
 -11   3   3  108.95    2.59
 -11   6  -5   66.45    4.64
  -9  -1   5  598.57    4.11
  -9   4   1  209.80    3.26
  -8  -4   5    1.62    2.33
  -8  -2   5    1.86    2.23
  -8   3   2 1204.68    4.92
  -7   5  -3   59.58    3.36
  -5  -2   4   63.22    2.52
  -5   4  -9    2.19    4.16
  -4  -9   0   61.31    3.35
  -2  -7   1    2.04    2.77
  -1  -6   1  476.76    4.38
   0  -8  -3    1.86    1.86
   0  -7  -1    2.06    1.97
   0  -1 -11    1.24    2.03
   1  -6  -1  492.51    3.51
   1  -1 -10   -0.83    2.68
   2  -6  -3   12.60    1.97
   2  -4  -1    8.36    1.88
   2  -3  -1    4.49    1.45
   3  -5  -6    8.20    2.16
   3  -4  -7  634.85    2.84
   3  -2  -7 1014.38    3.65
   3  -2  -3  982.02    4.46
   3  -1  -6   13.30    2.07
   3  -1  -5  543.71    3.35
 -17   1   5   13.87    2.80
 -16  -2   6  126.73    3.65
 -16   1   5   -1.99    2.64
 -15  -2   6   -1.32    3.05
 -15   1   5  406.20    3.33
 -14  -4   6  184.46    3.77
 -14  -3   6   30.62    3.02
 -14   4   2  315.25    3.87
 -13   2   4   28.09    2.44
 -13   4   2    4.51    2.09
 -12   3   3   19.80    2.62
 -12   5   0  468.74    4.38
 -11   0   5  404.00    3.46
  -9  -5   5  258.19    3.97
  -8  -3   5   15.44    2.54
  -8   5  -2  658.33    5.22
  -7   0   4   10.46    2.20
  -6  -1   4 1282.18    5.46
  -6   1   3    3.62    2.15
  -6   3   1   24.57    2.31
  -5  -8   2    0.27    4.06
  -5  -3   4   48.77    2.82
  -4   4  -3   61.22    3.25
  -3  -2   3  880.73    6.19
  -2  -8   0   60.05    2.72
  -1  -8  -1  184.34    2.91
   1  -7  -2    0.49    1.86
   1   1  -8    9.33    2.29
   2  -7  -6  203.51    2.72
   2  -7  -5    1.16    1.77
   2  -6  -8   29.11    1.77
   2  -2  -1   28.48    1.89
   2  -1  -9   12.10    2.22
   2   0  -8  134.08    2.62
   3  -5  -7   62.58    2.15
   3  -4  -8    0.24    1.89
   3  -3  -8    5.28    1.56
   3  -2  -8    0.71    2.15
   3  -1  -7  140.19    2.42
   3  -1  -4  146.84    2.39
 -17   4   2    2.42    2.71
 -15   2   4    5.37    2.59
 -15   4   2   -1.81    2.68
 -14   2   4  439.20    3.67
 -14   3   3    1.78    2.61
 -14   6  -3   -3.19    3.43
 -13   5   0    0.61    2.71
 -12   0   5   40.20    2.78
 -12   6  -5    2.38    3.88
 -10  -1   5    6.23    2.57
 -10   4   1    0.85    2.56
  -6   2   2 1880.25    6.11
  -6   4  -1   -1.27    2.30
  -4   1   2 1277.84    5.51
  -4   2   1    2.66    2.15
  -3  -4   3  660.22    8.87
   0  -8  -2  334.41    3.23
   0   0 -11    7.09    2.80
   0   1 -10    1.34    2.57
   1  -8  -5   45.18    2.32
   1  -8  -4    3.07    1.82
   1  -5   0    0.28    1.98
   1   0 -10    5.97    2.42
   2  -7  -7   -0.01    2.29
   2  -7  -4  448.31    3.05
   2  -6  -2  105.66    2.23
   3  -6  -6    4.09    2.14
   3  -6  -5  396.50    2.82
   3  -5  -8    2.06    2.02
   3  -5  -3   34.73    2.11
 -18   2   4   74.35    2.40
 -18   3   3    3.46    2.39
 -17   2   4   18.85    1.98
 -17   3   3   41.17    2.81
 -16   2   4   69.95    2.32
 -16   3   3    2.61    2.64
 -14   0   5    1.54    2.86
 -13   0   5  400.93    3.51
 -13   6  -4    2.15    3.51
 -11   5  -1  403.45    4.27
 -10   1   4  437.79    3.46
  -9  -4   5  221.35    3.93
  -9  -2   5  333.71    3.36
  -9   3   2    9.75    1.84
  -8   4   0  392.81    3.81
  -7  -6   4    0.61    3.20
  -7   5  -4    3.92    3.41
  -6  -5   4  409.76    5.64
  -5   4  -2    3.00    2.37
  -1   3  -6   34.06    3.04
   0  -5   1   27.00    2.56
   0   2  -3    0.07    2.70
   2  -7  -3    0.20    1.81
   2  -5  -1    2.38    2.02
   2  -1 -10  388.41    3.49
   3  -6  -7  324.05    2.60
   3  -4  -9  369.94    2.68
   3  -4  -2    7.69    2.06
   3  -3  -2   12.14    1.46
   3  -1  -8    4.03    2.22
   4  -4  -7   31.76    1.89
   4  -4  -6  684.43    3.42
   4  -3  -7   32.49    2.12
   4  -3  -6  346.48    2.36
   4  -3  -5    6.02    1.43
 -17   0   5  240.46    3.57
 -16   0   5    1.89    2.86
 -15   0   5   18.17    2.71
 -12  -6   5    3.44    2.85
 -11  -1   5  479.20    3.85
 -11   1   4  198.34    3.12
 -10  -5   5    1.89    2.69
 -10   3   2  130.86    2.95
  -9  -7   4    9.12    4.35
  -9  -3   5  464.60    4.10
  -9   5  -2    6.95    2.72
  -8   0   4  192.26    2.56
  -8   5  -3   13.01    3.65
  -5   0   3  496.75    3.50
  -4  -1   3   23.65    2.28
  -2  -9  -1   -0.11    2.40
  -2   3  -9    1.72    3.18
  -1  -9  -2   -1.72    1.97
  -1   2 -10    1.92    2.84
   1  -8  -3   90.54    2.22
   2   0  -9   93.65    2.88
   2   1  -6 1264.60    5.03
   2   1  -5   13.88    1.91
   3  -6  -8   -0.32    1.69
   3  -6  -3  342.71    2.69
   3  -5  -9   29.81    1.67
   3  -2  -2   18.49    2.00
   3  -1  -3   14.24    1.38
   3   0  -6    1.96    2.04
   3   0  -5 1697.03    5.29
   4  -5  -7   15.00    1.95
   4  -5  -5    3.23    2.36
   4  -4  -4 1002.79    4.20
   4  -3  -8  175.50    2.40
   4  -3  -4 1499.58    4.67
   4  -2  -7   66.02    2.30
   4  -2  -6 1129.04    3.89
   4  -2  -5   11.57    1.46
 -12  -1   5    7.49    2.76
 -12   1   4  982.68    4.65
 -12   4   1    2.58    2.09
 -12   5  -1   -0.07    2.81
 -10  -2   5   30.18    2.46
  -7  -1   4   40.88    2.61
  -6  -2   4  841.08    4.98
  -3  -9   0   -1.16    2.94
  -3   0   2   30.82    1.71
  -2  -6   2  105.79    4.23
   0  -7   0    2.40    2.60
   1  -7  -1  132.28    2.65
   2  -8  -5    4.25    2.08
   2   1  -7    6.18    2.08
   3  -7  -6    5.16    2.11
   3  -7  -5   58.37    1.99
   3  -5  -2    6.03    2.10
   3  -2 -10   23.09    2.21
   3  -1  -9   93.41    2.48
   3   0  -7 1261.44    4.79
   4  -4  -8  275.88    2.23
   4  -2  -8  433.58    3.10
 -18   1   4  143.30    3.44
 -17   4   1  169.33    3.67
 -16   4   1    1.61    2.80
 -16   5  -1    0.45    3.01
 -15  -1   5  417.69    4.01
 -15   4   1   22.97    2.85
 -15   5  -1  165.50    4.08
 -14  -1   5    1.97    2.62
 -14   5  -1    0.31    3.20
 -13  -1   5  111.20    2.86
 -13   1   4   32.32    2.64
 -11  -5   5  163.64    3.76
 -11  -2   5  340.36    3.54
 -11   3   2   -0.41    1.97
 -10  -4   5   12.72    2.76
 -10  -3   5    3.08    2.67
 -10   5  -2   77.00    3.48
  -9   0   4   63.71    2.57
  -9   4   0    0.73    1.92
  -3  -7   2    1.30    4.16
  -1  -4   2    1.41    4.39
   0  -8  -1    0.34    2.34
   1  -6   0    1.58    2.65
   1   2  -6  144.67    3.17
   2  -8  -4    5.72    2.01
   2  -7  -2  616.01    3.61
   2  -6  -1    0.51    1.99
   2   0 -10   54.32    2.61
   3  -7  -4    9.91    1.93
   3   0  -8   -0.26    2.20
   3   0  -4  135.21    2.30
   4  -6  -7    7.85    2.49
   4  -6  -5    2.63    2.15
   4  -4  -9    1.15    2.24
   4  -4  -3   63.97    2.41
   4  -3  -9    1.20    2.24
   4  -3  -3    3.81    2.09
   4  -1  -7   45.37    2.18
   4  -1  -6  485.78    3.33
   4  -1  -5   12.42    2.06
 -18   3   2  106.10    3.30
 -17   1   4   32.39    2.18
 -16  -1   5   -1.01    2.01
 -16   1   4  149.83    2.58
 -15   1   4   -1.78    1.92
 -12  -5   5    0.22    3.24
 -12  -2   5   32.82    2.86
 -12   2   3    1.23    1.70
 -11  -4   5  201.33    4.08
 -11  -3   5  328.35    3.85
 -10   0   4 2183.20    6.43
 -10   4   0  992.33    5.25
  -9   5  -3  696.52    6.20
  -8   3   1   14.29    2.69
  -6  -4   4  535.06    5.42
  -6  -3   4  817.60    5.36
  -5   1   2   42.02    2.33
  -1  -8   0   -0.67    2.65
  -1   3  -8    9.56    3.40
   1  -8  -2    0.81    2.18
   1   1 -10    4.93    2.82
   1   2  -7  656.49    4.42
   1   2  -5  440.71    4.32
   2   0  -2  874.42    4.93
   2   1  -4 3643.25    8.87
   3  -6  -2    2.07    1.97
   4  -6  -8  142.78    2.81
   4  -5  -9    2.97    1.55
   4  -5  -3    2.93    2.08
   4  -2  -9    4.80    2.29
   4  -1  -8  233.37    2.95
   5  -4  -6    3.58    2.13
   5  -3  -7 1111.23    4.04
   5  -3  -6    1.02    2.11
 -17  -2   5  211.36    3.89
 -17   3   2    0.76    1.95
 -16   2   3    0.34    2.34
 -15   3   2    1.27    1.83
 -14  -2   5   -0.01    3.11
 -14   2   3    2.39    1.76
 -13  -2   5  351.25    3.71
 -12  -3   5   -0.79    2.74
  -8  -1   4 1074.64    5.17
  -7   5  -6    1.33    4.24
  -6   0   3  108.73    2.59
  -5   2   1    8.23    1.68
  -3   1   1  583.42    4.58
  -1  -9  -1   39.90    3.14
  -1  -7   1  129.62    3.28
   0  -9  -2    0.15    2.02
   2  -8  -3    0.17    1.95
   2  -1  -1   51.09    1.60
   2   1  -9   10.73    2.23
   3  -4  -1 2168.57    6.42
   4  -2  -3  154.91    1.98
   4  -1  -4 2181.40    5.79
   5  -5  -7  622.39    3.51
   5  -5  -6    2.65    2.25
   5  -4  -8    3.37    2.11
   5  -4  -5    2.18    1.51
   5  -3  -8    1.71    2.17
   5  -2  -6    2.81    1.98
 -18   0   4  116.98    3.44
 -16  -3   5   -0.07    3.10
 -16   5  -2   35.43    3.29
 -14  -5   5   -0.22    3.12
 -14  -3   5    3.24    2.95
 -13  -3   5   89.53    3.23
 -12   0   4  162.94    3.12
 -12   4   0    2.40    2.78
 -11   0   4   64.24    2.07
 -11   4   0    2.17    2.12
 -10   5  -3   19.35    3.74
  -9   3   1  930.75    4.84
  -8  -6   4   40.30    3.79
  -7  -2   4    7.71    2.36
  -6   4  -2 1122.39    6.37
  -4   4  -9    4.36    4.20
  -4   4  -4 1016.19    9.68
   0  -6   1   -1.46    2.65
   0   2 -10  472.45    4.82
   2  -4   0  440.53    3.75
   2  -3   0  409.81    3.72
   3  -3  -1  382.21    3.22
   3  -1  -2   29.57    1.66
   4  -7  -5   -0.29    1.86
   4  -6  -3   22.52    2.08
   4  -4  -2 1274.02    4.81
   4  -1  -9   -0.80    2.25
   5  -5  -8    3.31    1.54
   5  -4  -9    7.15    2.00
   5  -4  -4   32.48    2.33
   5  -2  -8    8.57    2.00
   5  -2  -7    3.58    1.53
   5  -2  -5    3.51    2.15
 -17   0   4   19.18    2.72
 -17   4   0    1.16    2.46
 -16   0   4   94.78    3.11
 -15  -4   5   10.17    2.74
 -15   0   4   12.21    2.83
 -15   4   0   -1.56    2.68
 -15   5  -2    0.03    2.26
 -14  -4   5   -0.45    2.63
 -13   4   0   -0.69    2.87
 -10   3   1    8.30    2.70
  -9  -1   4  117.70    3.00
  -7  -5   4    5.12    3.17
  -5  -1   3 4759.41   11.09
  -5   4  -3  153.98    4.04
  -4  -2   3  159.95    3.67
  -2  -9   0   84.09    3.74
  -2  -8   1    1.59    3.56
   1  -1   0   -1.16    1.14
   1   1  -2   36.56    2.52
   2  -5   0  430.02    3.88
   3  -8  -4    1.38    2.01
   3  -5  -1  180.65    2.67
   3   0 -10   32.40    2.56
   4  -7  -4  244.08    2.61
   4  -3  -2  936.09    4.20
   4   0  -7   86.03    2.43
   4   0  -6 1358.27    4.79
   5  -6  -7   -1.80    1.76
   5  -6  -6    7.28    1.73
   5  -6  -5    0.27    2.17
   5  -5  -4   13.51    1.54
   5  -3  -9  398.34    2.85
 -19   1   3   76.92    2.47
 -19   2   2   -2.01    2.68
 -18   1   3    3.95    2.67
 -18   3   1    3.90    2.84
 -10  -1   4  414.15    3.92
  -9   4  -1  202.97    3.19
  -9   5  -4   43.21    3.58
  -8  -8   3    0.55    5.13
  -8  -2   4  148.81    3.12
  -8   5  -5    9.19    3.67
  -7  -3   4   17.35    2.46
  -7   0   3 1654.35    6.08
   1  -8  -1  211.84    3.31
   2  -8  -2   41.37    2.49
   2  -7  -1    2.32    2.30
   3  -7  -2    2.79    2.23
   3   0  -3  829.71    4.03
   3   1  -7  144.42    2.61
   3   1  -6   13.23    1.98
   5  -6  -4   12.13    1.91
   5  -4  -3  150.56    2.65
   5  -3 -10   19.87    2.49
   5  -2  -9   11.54    1.79
   5  -2  -4   64.99    2.10
   5  -1  -7 1548.10    4.91
   5  -1  -6    2.22    2.17
 -18  -1   4  179.62    3.54
 -18   2   2  150.30    3.16
 -17   1   3   69.86    2.78
 -16   1   3    5.79    2.62
 -16   3   1    1.72    2.73
 -15   5  -3  132.07    3.92
 -12   1   3   18.73    2.59
 -12   3   1    5.03    2.60
 -12   5  -3    9.97    3.15
 -11  -1   4  188.17    3.17
  -8   5  -8  135.65    8.67
  -7  -4   4    2.30    2.82
  -7   3   0   -0.12    2.28
  -7   4  -2    1.48    3.09
  -4   0   2 4172.22   10.84
  -2   2  -1   32.56    2.89
   1  -9  -2   -2.01    2.65
   1  -7   0   -0.73    2.20
   1   2  -4    0.92    2.64
   3  -8  -3  134.75    2.51
   3  -6  -1  995.82    4.64
   3  -2  -1 3833.70    9.08
   3   1  -5  529.70    3.55
   4  -8  -5    1.53    2.01
   4  -7  -3    1.59    2.33
   4  -1  -3   20.88    1.32
   4   0  -9    3.59    2.40
   5  -7  -6    4.57    2.06
   5  -7  -5  310.71    2.62
   5  -3  -3 3042.31    6.74
   5  -2 -10   35.65    2.35
   5  -1  -8    2.08    1.75
   5  -1  -5 1742.68    5.15
   6  -5  -8  174.45    2.64
   6  -5  -7   41.54    1.88
   6  -4  -8  280.96    2.42
   6  -4  -5    0.40    2.22
   6  -3  -8  326.50    3.04
 -17  -1   4   40.82    2.35
 -17   2   2   -1.79    1.96
 -16  -1   4  178.55    3.42
 -15  -1   4   -3.00    2.87
 -15   2   2    2.23    2.46
 -14  -1   4  106.50    3.05
 -14   1   3    1.31    1.82
 -14   3   1    1.24    1.95
 -13  -1   4   28.86    2.96
 -13   2   2    3.33    2.67
 -12  -1   4  949.77    4.91
 -10   4  -1    0.74    2.14
 -10   5  -4  148.67    4.24
  -9  -6   4    4.66    3.21
  -9  -2   4   42.99    2.72
  -8   0   3   27.87    2.59
  -8   5  -6  515.72    8.54
  -5   3  -1 3362.71   10.22
  -4  -8   2  207.39    9.75
  -1  -5   2    3.36    4.25
   0  -9  -1    0.45    2.67
   0  -8   0 1221.43    6.91
   2   1  -3   91.68    2.29
   3   1  -9   91.46    2.69
   4  -8  -4  147.34    2.45
   4  -6  -2  612.15    3.42
   4  -2  -2 2296.35    5.99
   6  -6  -7    0.61    2.49
   6  -5  -5   -0.10    1.67
   6  -4  -9    1.88    1.61
   6  -3  -9    1.59    2.43
   6  -3  -5    0.15    1.47
   6  -2  -8  484.48    3.20
 -19   0   3   26.71    3.03
 -18  -2   4  127.15    3.57
 -17   4  -1  199.16    3.40
 -16   4  -1    1.60    2.92
 -15   4  -1   22.41    2.91
 -12   4  -1    2.86    2.85
 -11   5  -4   51.18    3.89
  -9   5  -5  259.56    5.48
  -8  -5   4  418.41    4.73
  -8  -3   4  825.47    5.09
  -8   5  -7    2.39    5.39
  -7   1   2   -2.12    2.39
  -6  -1   3    2.24    2.43
  -3   4  -8    2.51    4.99
   1  -5   1  279.42    3.92
   2  -6   0  181.57    2.93
   4   0  -4 1574.02    5.07
   5  -7  -4    2.36    2.08
   5  -6  -3   44.70    2.35
   5  -2  -3  341.54    2.72
   6  -6  -5    3.03    2.27
   6  -2  -5    0.91    2.08
 -18   0   3   -1.33    2.63
 -18   3   0  194.81    3.82
 -17  -2   4   19.60    2.71
 -16  -2   4   92.60    3.21
 -15   5  -4    2.78    3.11
 -14   4  -1    6.50    1.94
 -13   5  -4    0.89    3.40
 -11  -2   4   55.36    2.90
 -10  -2   4 1743.37    6.17
  -9   0   3 1575.44    5.53
  -8  -4   4   90.26    3.17
  -8   4  -2  363.79    4.22
  -6  -7   3    1.50    4.61
  -4  -3   3    3.80    3.15
  -4   1   1  100.61    2.68
   0   3  -8    1.05    3.15
   0   3  -6    0.91    3.40
   2  -2   0  931.58    5.96
   3  -8  -2   -0.13    2.32
   4  -4  -1    3.55    1.94
   5  -4  -2    1.84    2.03
   5  -1 -10   27.82    2.11
   5  -1  -4  122.36    1.73
   5   0  -8   11.72    2.11
   5   0  -7    5.65    2.20
   7  -5  -7   31.63    2.40
   7  -4  -6   26.75    2.26
 -19   2   1   68.74    2.52
 -18   1   2  163.64    3.32
 -17  -3   4   30.64    3.08
 -17   0   3  647.78    4.19
 -16   0   3   -2.48    2.82
 -15  -2   4    7.65    2.67
 -14  -2   4  487.85    4.04
 -13  -2   4   28.46    2.83
 -12  -2   4  147.53    3.23
 -10   0   3  127.94    2.92
 -10   5  -5    2.67    3.44
  -9  -5   4   39.53    3.56
  -9   3   0    0.55    1.92
  -9   5  -6    0.38    4.52
  -6   4  -3   28.53    3.10
  -1  -9   0    2.06    2.91
   0  -7   1    3.28    2.66
   2  -8  -1    1.28    2.68
   3  -7  -1   69.24    2.60
   3   1  -4  142.45    2.55
   4  -8  -3    7.01    2.30
   4  -5  -1    1.13    2.10
   5  -5  -2    1.83    2.29
   5   0  -6    5.46    2.08
   6  -6  -4  256.81    2.38
   6  -2 -10  208.51    3.20
   6  -2  -4  817.63    3.56
   6  -1  -7  110.74    1.93
   6  -1  -6  586.66    3.34
   7  -5  -8   -0.03    1.66
   7  -4  -9  335.71    3.33
   7  -3  -8    1.20    2.34
   7  -3  -6    1.83    2.24
 -19  -1   3   89.35    3.11
 -18   2   1   -0.18    2.09
 -17   2   1  463.01    4.16
 -17   4  -2   -1.29    2.71
 -16  -3   4  128.45    3.35
 -16   3   0  136.30    3.08
 -15  -3   4   -1.41    3.19
 -15   0   3   24.63    2.03
 -15   3   0   -0.51    2.68
 -14   0   3    2.06    2.74
 -14   5  -5   -0.49    3.67
 -13  -6   4    6.12    3.33
 -13   0   3  994.88    4.78
 -12  -6   4   40.07    3.58
 -12   0   3   -3.14    2.71
 -12   5  -5    0.66    3.97
 -11   0   3   46.59    2.19
 -10  -3   4  292.51    3.65
  -9  -4   4   19.09    3.12
  -7  -1   3  212.53    3.29
  -5   0   2    5.21    1.60
  -4  -5   3    0.76    4.14
   0   3  -9    0.10    3.13
   2   2  -5   49.43    3.03
   3  -4   0    0.36    2.12
   4  -3  -1   15.34    2.08
   4   1  -6  471.07    3.40
   5  -8  -4    2.43    2.21
   5  -6  -2   -0.46    2.12
   5  -3  -2   13.62    1.43
   5   0  -9   13.34    1.96
   5   0  -5    4.22    1.89
   6  -5  -3    4.39    2.32
   6  -4  -3   26.67    1.74
   7  -6  -6   15.57    1.91
   7  -3  -9   39.17    1.93
 -18  -1   3    3.32    2.78
 -16  -4   4   57.33    2.61
 -16   2   1    8.69    2.71
 -16   4  -2  117.60    2.90
 -15  -5   4   -1.61    3.13
 -15  -4   4   -0.29    3.25
 -15   1   2    3.79    2.34
 -15   4  -2   -0.97    3.09
 -14  -5   4   36.92    3.40
 -14  -3   4   91.08    3.07
 -13  -3   4   24.03    3.08
 -11  -5   4   52.68    3.87
 -11   4  -2    2.18    2.75
 -10  -4   4 1092.66    6.30
 -10   5  -6    3.67    4.08
  -9   2   1  288.73    2.82
  -9   5  -7  164.29    6.48
  -4  -4   3   66.08    3.94
  -3   4  -9  358.85    9.80
   1  -8   0    0.41    3.58
   1  -6   1  559.81    5.22
   2  -7   0  247.95    3.29
   3  -5   0    0.33    2.01
   4  -6  -1   -0.87    2.14
   4  -1  -2 1187.91    4.86
   4   1  -9    0.17    2.48
   6  -6  -3   10.21    2.38
   6  -3  -3    4.02    1.40
   6  -1  -5    1.56    1.42
   7  -6  -5  460.02    2.97
   7  -2  -6   31.53    1.68
 -19   0   2    0.19    2.91
 -18   3  -1    1.69    2.97
 -17  -1   3   82.59    2.58
 -15   2   1   43.42    2.11
 -14  -4   4  298.04    4.08
 -14   2   1   19.25    2.59
 -13  -5   4    8.66    2.89
 -13   1   2   -1.92    2.54
 -13   4  -2    2.21    2.70
 -12  -5   4  361.31    4.82
 -12  -4   4   94.00    3.16
 -12   2   1    2.03    2.50
 -11  -4   4   31.27    2.89
 -11   5  -6    1.73    4.37
  -8  -1   3   25.43    2.53
  -5   2   0    0.12    1.84
  -2  -2   2  638.36    7.56
   3   0  -2   31.86    2.10
   4   0  -3  264.19    2.89
   4   1  -5   13.76    1.98
   7  -2 -10    0.34    2.57
   8  -4  -8   57.76    1.91
   8  -4  -7   74.13    1.93
   8  -3  -7    4.89    2.22
 -19   1   1  362.06    4.17
 -19   2   0   -1.58    2.64
 -18  -2   3    0.54    2.81
 -18   0   2  193.25    3.57
 -17   3  -1   17.32    2.81
 -17   4  -3  315.44    5.12
 -16  -1   3    3.74    2.16
 -15  -1   3  484.01    4.09
 -10   5  -7    0.79    4.21
  -9  -1   3 1731.70    6.43
  -6   0   2 2354.69    7.80
  -5  -6   3   39.81    4.80
  -4   4  -5    6.95    4.88
   0   3 -10    1.78    3.59
   3  -6   0    0.52    2.30
   3  -3   0    0.35    2.09
   3  -1  -1  598.98    4.41
   3   2  -8    2.06    2.60
   5  -8  -3   13.08    2.42
   5  -7  -2   -0.11    2.35
   5  -2  -2    2.68    1.31
   6  -7  -3    0.69    2.33
   6  -2  -3   56.72    1.96
   6  -1  -4 1154.58    4.06
   7  -6  -4   -1.61    1.70
   7  -1  -8    2.23    2.37
 -18   1   1   11.06    2.83
 -18   2   0   86.88    3.33
 -17  -2   3  616.94    4.85
 -16   3  -1    7.06    2.87
 -16   4  -3    1.10    2.86
 -14  -1   3    4.00    1.98
 -13  -1   3  415.39    3.79
 -12  -1   3   20.32    2.70
 -11  -1   3  133.54    3.19
 -10  -1   3   59.58    2.86
  -8   4  -3    5.69    2.94
  -5  -3   3 3180.55   11.48
   0  -9   0    0.58    3.70
   4  -7  -1    2.45    2.38
   4  -2  -1    2.84    2.09
   5   0  -4   82.66    2.09
   5   1  -8    0.03    2.13
   6  -8  -4   88.77    2.63
   6  -4  -2 1078.70    4.50
   6   0  -9    3.22    1.90
   6   0  -6  552.06    3.38
   7  -1  -6    1.64    1.98
   8  -6  -5    0.27    2.21
   8  -5  -5   10.52    1.90
   8  -4  -5   -1.22    1.75
 -19  -1   2    2.62    3.00
 -18  -3   3    5.11    2.78
 -16  -2   3    3.36    2.83
 -15   3  -1  464.91    4.12
 -15   4  -3    9.85    2.38
 -14   3  -1    1.79    2.72
 -14   4  -3    2.36    2.87
  -9   4  -3  653.21    5.58
  -8   3  -1   10.48    1.97
  -7  -2   3 1375.30    6.34
  -7   0   2    1.14    2.44
   2  -9  -1   -0.08    2.87
   3   2  -6    3.97    2.29
   5  -4  -1   16.41    2.15
   5   1  -7 1511.32    5.09
   6  -3  -2  867.71    3.94
   7  -7  -4    1.38    1.79
   7  -2  -4   10.63    1.39
   8  -2  -9    1.47    1.93
   9  -4  -8   -2.18    2.39
 -16   1   1    6.56    2.64
 -16   2   0  204.02    3.29
 -15   0   2    0.12    2.48
 -13   3  -1   51.58    3.01
  -8   0   2  769.99    4.73
  -6   1   1  104.27    2.33
  -6   4  -4  561.44    6.80
  -1  -6   2    0.85    4.61
   5  -6  -1    8.53    2.25
   5   1  -6    1.14    2.06
   6  -8  -3    6.60    2.33
   6   0  -5    3.71    1.98
   7  -3  -3  118.09    1.88
   7  -1  -5  114.05    1.80
   8  -7  -5   -0.94    2.24
   9  -5  -6   -1.80    2.55
   9  -4  -6    1.47    2.45
   9  -3  -9  207.79    3.03
   9  -3  -8   -0.01    2.50
   9  -3  -7  491.15    3.81
 -19   0   1   75.78    3.29
 -19   2  -1   75.96    2.77
 -18  -1   2  174.48    3.04
 -17  -4   3  351.86    5.20
 -17   3  -2    1.10    2.85
 -16  -3   3    2.77    3.10
 -16   4  -4   59.51    3.34
 -15   2   0   -1.51    2.51
 -14  -2   3    0.80    1.97
 -14   0   2  708.87    3.87
 -13  -2   3  939.99    5.02
 -13   0   2    5.79    2.58
  -9  -2   3 1193.19    5.88
  -8  -2   3   15.80    2.54
  -7   1   1  785.80    4.87
  -6  -3   3    4.99    3.41
  -5  -4   3  143.13    4.21
  -5   3  -2   15.15    2.90
  -2  -9   1   -0.30    4.12
   1  -7   1  150.14    3.80
   2  -8   0   67.58    2.90
   2  -5   1    2.80    2.90
   2  -4   1    8.55    3.06
   3  -7   0    1.00    2.44
   3   1  -3   15.28    2.23
   5  -8  -2    1.05    2.66
   5  -3  -1 3242.42    7.51
   7   0  -8   44.46    2.55
   7   0  -7  635.34    3.59
   8  -3  -4  860.28    3.72
   8  -2  -5   -0.73    1.42
   9  -6  -6    1.25    1.93
   9  -3  -6    2.05    2.27
 -19  -2   2    0.92    2.21
 -19   1   0   -0.83    2.12
 -18   0   1   -0.13    2.88
 -18   2  -1   -1.02    2.97
 -17  -1   2   -0.98    2.10
 -16  -4   3    3.57    3.15
 -16   3  -2  187.25    3.63
 -15  -3   3  416.98    4.45
 -15   4  -4    1.35    3.01
 -14   1   1    2.28    2.45
 -13   2   0   -0.75    2.71
 -12  -2   3   -0.06    1.93
 -12   0   2   78.95    2.03
 -11  -2   3   48.02    2.98
 -10  -2   3  118.68    3.30
  -8  -7   3    1.50    3.34
  -8   2   0  594.95    4.41
  -7   4  -4    3.23    4.03
  -5  -5   3 1509.53   10.13
  -3   0   1 6377.10   16.59
   0  -8   1    2.15    3.67
   1   3 -10    2.02    3.69
   6  -1  -3    2.55    1.87
   8  -1 -10  273.66    3.70
   8  -1  -6 1428.81    4.53
   9  -2  -9   52.35    2.74
   9  -2  -8    0.60    2.46
 -18  -2   2  168.66    3.78
 -18   3  -3    1.46    3.07
 -17   2  -1  527.96    4.70
 -16  -1   2  292.05    3.63
 -15  -5   3  187.28    4.33
 -15   3  -2    0.54    2.60
 -14  -3   3    2.98    2.86
 -14   4  -4  260.39    4.20
 -12   2   0    4.93    1.88
 -11   2   0   -0.21    2.44
 -10  -7   3    5.99    4.03
  -7  -3   3  109.27    3.16
  -6  -6   3    7.96    3.73
  -5  -1   2   39.22    2.77
   1  -9   0   -1.70    3.88
   2  -6   1    1.04    3.14
   3  -2   0   -0.42    2.13
   5  -1  -2   39.58    1.62
   6   1  -9    3.32    2.54
   6   1  -7  113.98    2.47
   7  -5  -2   -0.75    1.65
   7  -4  -2   -0.92    2.26
   7  -2  -3 1358.32    4.18
   7  -1  -4   39.31    1.40
   7   0 -10    2.75    2.13
   8  -5  -3   13.07    1.83
   8  -4  -3    6.88    2.12
   8  -2  -4  143.09    2.12
   9  -3  -5  513.79    2.91
   9  -2  -6    9.87    2.16
  10  -5  -7    3.37    1.95
  10  -4  -7    1.72    2.50
 -19   2  -2    1.69    3.03
 -17  -2   2   -0.43    3.03
 -17   0   1  608.35    3.94
 -17   1   0    1.96    2.72
 -17   3  -3   55.84    3.51
 -15  -1   2    2.07    2.65
 -14  -6   3    1.05    2.88
 -14  -4   3    1.40    2.91
 -14   3  -2   92.34    3.25
 -13  -3   3  334.58    3.71
 -12  -3   3   19.23    2.77
  -9   4  -4   14.10    3.87
  -6  -4   3   26.46    3.66
  -6   3  -2  835.86    5.96
  -5   4  -5    2.83    4.64
   6  -5  -1    4.17    2.22
   6  -4  -1    2.02    2.28
   6   0  -4  922.18    3.91
   6   1 -10   71.95    3.11
   7  -6  -2    1.30    1.60
   8  -3  -3   19.18    1.96
   8  -1  -5   20.68    1.92
   9  -7  -5  120.49    2.26
   9  -6  -4    5.47    2.52
  10  -5  -6    4.64    1.98
  10  -3  -8    2.96    1.88
 -18  -3   2  125.90    3.82
 -16   0   1    9.46    2.46
 -16   1   0  213.16    3.30
 -14  -5   3   -2.27    2.79
 -14  -1   2  138.27    2.50
 -13  -6   3  211.34    4.72
 -13  -4   3  584.13    4.96
 -13   3  -2   -1.46    2.69
 -12  -6   3   -2.42    3.69
 -12   3  -2 1224.62    5.86
 -10  -3   3   36.45    2.83
  -9  -3   3 1142.95    5.90
  -7  -6   3  428.72    6.25
  -6  -5   3    2.70    3.72
  -3   1   0    2.20    1.52
   3  -8   0   -0.49    2.90
   4   0  -2 4375.51   10.74
   6  -6  -1    1.23    2.25
   6   1  -6  615.83    3.87
   7  -7  -2   -0.80    2.25
   7  -3  -2   -0.66    1.49
   7   0  -5 1887.96    5.46
   8  -7  -3    3.00    2.89
   8   0  -9   -0.71    2.59
   9  -3  -4   88.78    2.24
   9  -2  -5  334.10    2.72
   9  -1  -8    2.73    2.40
   9  -1  -7  670.90    3.68
  10  -5  -5    5.55    2.70
  10  -3  -6   12.66    2.28
  10  -2  -8  582.23    4.00
 -19   0   0   -2.19    2.04
 -19   1  -1  360.81    3.95
 -18  -1   1   11.83    2.68
 -18   2  -2  155.40    3.60
 -17  -3   2    0.21    2.97
 -16  -2   2  250.93    3.14
 -16   3  -3    2.64    2.30
 -15   0   1   60.12    2.76
 -15   2  -1   47.30    2.22
 -13  -5   3  162.09    3.91
 -13  -1   2   -1.13    2.00
 -12  -5   3   16.17    3.05
 -12  -4   3    1.18    2.97
 -12  -1   2 1766.17    6.05
 -11  -6   3   28.79    3.36
 -11   3  -2    1.21    2.65
  -9   3  -2    8.58    2.66
  -8  -6   3    2.27    3.69
  -7  -4   3  893.83    6.22
  -6  -1   2 1233.59    5.96
  -2   4  -9   38.88    8.91
  -1   2  -2    3.66    5.29
   2  -1   0  527.89    5.80
   2   3  -9    8.02    3.15
   4  -1  -1  105.18    2.62
   5  -8  -1    6.14    2.59
   8   0 -10   96.69    3.50
   8   0  -7  133.87    2.66
   9  -7  -4   18.47    2.70
  10  -6  -5    4.34    2.01
  10  -2  -9   23.62    1.91
 -19  -2   1   70.87    3.14
 -18   0   0  108.07    3.07
 -17  -1   1   25.52    2.97
 -17   2  -2    1.59    3.05
 -17   3  -4   22.29    3.33
 -15   1   0    1.01    1.89
 -15   3  -3  391.78    4.54
 -14   0   1   30.64    2.84
 -14   2  -1   20.84    2.08
 -12   4  -5   16.50    3.12
 -11  -5   3   62.54    3.22
 -11  -4   3   47.38    2.31
 -11  -1   2    1.46    2.66
 -10  -4   3   77.08    3.19
 -10  -1   2  187.87    3.36
  -9  -6   3  293.31    4.92
  -9  -4   3  672.65    5.29
  -8  -4   3    4.86    2.84
  -8  -1   2 1399.44    6.24
  -7  -5   3   49.18    3.28
  -7  -1   2   -1.28    2.49
  -6   4  -5   -0.20    4.22
  -4   0   1    0.04    2.34
  -1  -9   1   40.53    5.27
   2  -9   0   84.89    4.37
   2  -7   1    2.75    2.92
   2  -3   1    5.31    3.29
   5  -5   0    1.05    2.20
   5   2  -8    8.63    2.75
   6  -7  -1   -0.86    2.25
   7  -1  -3  208.81    2.67
   7   1  -9   52.70    2.75
   7   1  -8    3.86    2.48
   8  -2  -3   16.50    1.83
   8   0  -6  294.39    2.88
   9  -1  -6    0.14    1.45
  10  -3  -5    1.95    1.57
  10  -2  -6  629.61    3.62
  11  -5  -6    2.22    2.70
  11  -4  -6    4.88    2.41
 -17  -4   2    2.01    2.85
 -16  -3   2  209.86    3.67
 -14  -2   2  695.77    4.54
 -14   1   0  195.00    2.62
 -14   3  -3    0.00    2.93
 -14   4  -6  186.03    4.70
 -13   2  -1  784.97    4.03
 -10  -5   3   18.13    2.88
  -9  -1   2    9.48    2.01
  -8  -5   3   11.65    3.16
   1  -8   1  198.71    5.01
   5  -6   0    1.83    2.47
   5  -4   0    0.83    2.36
   5   2  -7    3.51    2.62
   6   1  -5    1.51    2.25
   7  -8  -2    0.24    2.30
   7  -2  -2    1.02    2.11
   7   1 -10    2.84    2.85
   8  -8  -3   -1.92    2.71
   8  -1  -4 1016.18    3.68
   9  -2  -4   41.79    1.93
  10  -1  -8    5.87    2.18
 -19  -1   0    0.52    2.86
 -18  -2   1   -3.05    2.28
 -18   2  -3    3.57    2.98
 -17   0   0    1.10    1.89
 -17   1  -1   25.98    2.13
 -16  -4   2  148.15    3.95
 -16   2  -2  238.09    3.51
 -16   3  -4  138.57    3.64
 -15  -3   2    0.67    2.70
 -13  -2   2    4.17    2.84
 -13   1   0    0.96    2.40
 -13   3  -3  340.36    4.14
 -13   4  -6   13.66    3.52
 -12   2  -1    5.81    1.88
 -11   2  -1  536.98    4.24
 -10   4  -5   13.51    3.11
  -8   4  -5   -0.14    3.57
  -5   0   1    4.12    2.37
  -4  -8   2  135.97   10.25
  -4   1   0 4342.18   13.03
  -4   4  -6  653.46   10.63
  -1  -1   1  141.63    5.41
   6   0  -3  110.84    2.55
   7   0  -4   12.66    2.14
   9  -3  -3 1332.01    4.50
   9  -1  -5  566.17    2.86
   9   0  -8    2.96    2.47
  10  -3  -4  299.55    2.87
  10  -2  -5   28.36    2.08
  10  -1  -7    1.14    2.18
  11  -3  -6    0.54    1.69
  11  -2  -8    5.71    2.61
 -19   0  -1   90.59    3.05
 -17  -2   1  554.47    4.74
 -16  -5   2   87.37    3.41
 -16   0   0  269.09    3.42
 -16   1  -1   10.38    2.84
 -15  -1   1  801.33    4.68
 -15   2  -2    5.06    2.86
 -15   3  -4   -0.96    3.44
 -12  -2   2   70.54    2.96
 -12   3  -3   20.53    2.83
 -12   4  -6   13.25    3.32
 -10   2  -1    0.45    2.67
  -4  -2   2 2408.69   10.69
  -4   3  -3    4.00    3.75
   6  -8  -1    3.21    2.36
   7   1  -6    2.14    2.40
   8  -3  -2 1249.82    4.39
   8   0  -5    1.54    2.23
   9   0  -7  196.34    2.89
  10  -1  -6   17.44    2.02
  11  -3  -5  348.62    2.85
  11  -2  -7  260.13    2.63
  12  -4  -7   -1.75    1.92
  12  -3  -8  251.49    3.58
 -18  -3   1    4.15    2.24
 -18  -1   0  326.66    3.93
 -18   1  -2  182.94    3.78
 -17   2  -3  581.79    4.93
 -16   3  -5    0.05    3.41
 -15  -5   2   -0.17    3.19
 -15  -4   2    0.36    2.97
 -14  -3   2   99.96    3.10
 -11  -2   2    2.61    2.84
 -11   3  -3  109.37    3.17
 -11   4  -6    4.23    3.27
  -8   0   1  104.89    2.88
  -7   0   1 1556.81    6.59
  -6   0   1   13.24    1.88
  -5   1   0    0.46    2.57
   3   3  -8    6.81    3.77
   5  -7   0    0.52    2.59
   5  -3   0   -0.25    2.42
   5   2  -6    4.99    2.48
   6  -2  -1    5.00    2.32
   6   2  -9    0.41    2.49
   8   1  -9    5.32    2.67
   8   1  -8  438.77    4.04
   9  -5  -2    7.27    2.54
   9   0  -6   10.03    1.99
  10  -6  -3   45.28    2.59
  10  -5  -3   19.08    1.82
  11  -2  -6   13.51    2.15
  12  -4  -6   11.27    2.02
  12  -3  -7    9.83    2.60
 -19  -2   0   -0.53    2.71
 -18   0  -1    2.72    2.12
 -18   2  -4   86.07    3.84
 -16  -2   1    5.06    2.84
 -15   0   0    4.27    2.00
 -15   1  -1  779.65    4.16
 -14  -4   2  448.97    4.79
 -14  -1   1    5.76    2.01
 -14   2  -2  635.97    4.08
 -14   3  -4   97.78    3.35
 -13  -3   2   -0.49    2.91
 -12   4  -7    3.20    3.49
 -10  -2   2 1699.81    6.43
 -10   3  -3   42.69    2.63
  -7   1   0    0.79    2.48
  -6   1   0 2569.50    8.95
  -5  -2   2    2.92    2.79
  -5   3  -3 2454.74   11.51
  -5   4  -6    5.38    4.74
  -3   4  -7  585.32   15.19
   0  -5   2    2.56    5.46
   3  -9   0   -0.15    3.87
   8  -8  -2   20.08    2.83
   8  -1  -3   28.90    2.19
   8   1 -10  225.11    4.15
   9  -6  -2    0.31    1.81
   9  -4  -2    5.64    2.22
   9  -2  -3 1308.63    4.50
   9  -1  -4  114.50    2.34
  10  -2  -4 1830.99    4.97
  11  -1  -8   -1.11    2.30
  12  -5  -5    3.74    2.80
  12  -2  -8   -1.97    2.29
 -19  -1  -1  348.33    4.28
 -17  -3   1   19.84    2.25
 -17  -1   0   -0.44    1.98
 -17   0  -1  610.01    4.64
 -17   1  -2    0.54    2.67
 -16   2  -3    1.32    2.08
 -15   3  -5  351.11    4.99
 -14  -6   2  120.37    3.86
 -14   0   0 1614.52    5.73
 -14   1  -1    5.45    2.75
 -13  -1   1   95.25    2.82
 -13   3  -4   24.51    3.15
 -12  -3   2 1433.22    6.22
  -9   4  -6    1.31    3.27
  -8  -2   2  536.78    4.47
  -7  -2   2   -2.58    2.52
  -6  -2   2 1552.78    7.46
  -6   3  -3    2.38    3.49
   3  -7   1   72.43    3.56
   6   2  -7   17.19    2.92
   7   1  -5  130.60    2.87
   8  -6  -1    6.67    2.23
   8  -2  -2  693.22    3.88
   9  -7  -2    1.84    2.58
  10  -3  -3   39.52    2.25
  10  -1  -5    6.47    1.49
  10   0  -8  623.28    4.28
  11  -3  -4  121.72    2.37
  11  -2  -5  346.19    2.73
  11  -1  -7  261.82    2.59
  12  -2  -7   -0.67    2.44
 -19   0  -2   -0.31    2.14
 -18  -2   0   93.37    2.74
 -17  -4   1  289.16    4.41
 -17   2  -4   14.58    3.22
 -16  -3   1    5.63    2.88
 -16  -1   0  213.43    3.45
 -15  -2   1   51.18    2.22
 -15   2  -3   23.83    2.91
 -13  -6   2    0.38    3.27
 -13  -4   2    0.79    2.90
 -12  -1   1   10.82    2.75
 -12   2  -2   75.07    2.93
  -9  -8   2    2.62    3.81
  -5  -8   2   -0.38    5.64
   0  -9   1    0.65    5.00
   2  -8   1    0.29    3.21
   5  -8   0    1.21    3.22
   7  -1  -2    1.30    2.19
   7   0  -3 1710.93    5.93
   8  -4  -1   19.41    2.56
   8   0  -4  196.87    2.43
   8   1  -6 1545.11    5.81
   9  -3  -2    8.87    2.26
   9   0  -5  393.42    3.20
  10   0  -7    1.38    1.66
  11  -5  -3   71.77    2.53
  11  -1  -6   -0.79    2.09
  12  -3  -5    0.95    2.07
  12  -2  -6   18.59    2.00
  13  -4  -6   18.57    2.59
 -18   1  -3    1.22    2.32
 -16   0  -1    8.07    2.62
 -16   1  -2  287.55    3.23
 -15   3  -6    4.09    3.28
 -14   3  -5    0.45    3.07
 -13  -5   2    0.29    2.31
 -13   1  -1   87.25    2.35
 -12  -4   2   53.83    3.08
 -12   3  -4  761.38    5.23
 -11  -7   2    0.31    3.68
 -11  -3   2    4.19    1.99
 -10   4  -7   -0.79    3.45
  -8  -8   2   23.48    4.26
  -7  -8   2    0.87    4.21
  -6  -8   2   67.79    6.07
   0  -6   2 1069.81   14.67
   4  -6   1   -0.27    3.24
   4  -5   1    3.65    2.74
   4   3  -9   -2.43    3.81
   5   2  -5    4.01    2.51
   6  -7   0  272.87    3.93
   9  -8  -2   -0.93    2.33
   9   1  -9  268.61    4.24
   9   1  -8    0.11    2.60
  10  -6  -2  545.19    4.18
  10  -5  -2   82.32    2.63
  10   0  -6  698.31    3.90
  11  -6  -3   28.62    1.87
  11  -4  -3   47.15    2.46
  12  -6  -4   50.91    2.83
  12  -5  -4  452.00    3.52
  12  -4  -4  103.11    2.68
  12  -1  -8  317.42    3.41
 -19  -2  -1   80.48    3.28
 -18  -3   0  222.54    3.88
 -18   0  -2  183.02    3.12
 -17  -2   0   -0.17    2.06
 -16  -4   1    2.50    2.84
 -16   2  -4  108.53    3.23
 -15  -3   1  566.07    4.50
 -15  -1   0    3.27    2.64
 -14   2  -3    1.61    2.88
 -12  -6   2   27.64    3.50
 -12  -5   2  729.30    5.57
 -12   1  -1   12.45    2.73
 -11  -1   1 1086.21    4.68
 -11   2  -2    0.94    2.03
 -11   3  -4  132.93    3.03
 -10  -3   2  129.50    3.11
 -10   4  -8  225.09    5.92
  -9   4  -7   76.20    4.03
   3  -1   0    1.00    2.37
   4   3 -10   85.26    4.93
   8  -3  -1   11.51    2.64
   9  -1  -3 1935.19    5.64
   9   1  -7  680.60    4.37
  10  -4  -2 1209.52    4.83
  10  -2  -3  123.35    2.36
  10  -1  -4  423.44    3.12
  11  -2  -4   53.99    1.71
  11   0  -9  108.60    3.11
  11   0  -8    3.28    2.53
  12  -2  -5   33.86    1.98
  12  -1  -7    6.92    2.32
  13  -4  -5  273.89    3.41
  13  -3  -6    3.23    1.70
  13  -2  -8    6.39    1.99
  13  -2  -7  293.68    3.19
 -19  -1  -2   -0.87    2.73
 -19   0  -3   21.28    3.03
 -17   1  -3   77.93    2.72
 -17   2  -5  212.85    3.73
 -13  -2   1  817.43    4.50
 -13   3  -5   90.22    3.40
 -11  -6   2    1.48    3.52
 -11  -4   2   -0.48    2.66
 -10  -7   2   26.69    3.56
 -10  -1   1   23.39    1.94
 -10   2  -2 1686.96    6.41
  -9  -3   2    8.26    2.68
   4  -4   1    1.79    3.01
   7  -6   0   -0.56    2.64
   7  -5   0    2.48    2.50
   8   1  -5   22.77    2.55
   9  -6  -1   96.05    2.85
   9  -5  -1  556.14    3.98
  11  -3  -3  110.66    1.95
  11   0  -7  277.84    3.00
 -18  -2  -1   -1.32    2.95
 -17  -3   0   -2.52    2.97
 -17   0  -2   -0.40    2.00
 -16  -2   0  218.33    3.03
 -15  -4   1   30.02    2.95
 -14  -3   1   -1.18    2.89
 -14  -1   0  205.47    3.14
 -14   1  -2  147.51    3.32
 -13   2  -3  993.51    4.95
 -11  -5   2    0.64    2.97
 -11   1  -1 1107.67    4.77
 -10  -4   2 1075.00    5.76
  -9  -7   2    2.74    4.05
  -9  -1   1 1069.14    5.21
  -9   2  -2   13.89    2.72
  -9   4  -8   -1.59    3.53
  -6   4  -7    5.66    3.71
  -5   4  -7    2.37    4.61
  -3  -3   2    9.41    3.67
   4  -7   1    0.97    3.40
   4   3  -7   38.39    4.03
   5  -2   0    1.96    1.88
   7  -4   0   -0.01    2.48
   7   1  -4   41.90    2.73
   8  -8  -1    3.41    2.77
   8  -1  -2 1743.59    5.89
   9   0  -4   59.12    1.96
   9   1  -6    0.23    2.41
  10   0  -5   32.70    2.23
  10   1  -9   10.60    2.99
  10   1  -8    1.09    2.36
  12  -6  -3   -0.18    2.49
  13  -6  -4    4.78    2.68
  13  -5  -4    2.70    2.71
 -18  -1  -2  160.74    3.42
 -18   0  -3   -3.26    2.90
 -17  -4   0    1.84    3.01
 -16  -1  -1   10.40    2.74
 -16   1  -3    5.54    2.18
 -16   2  -5    0.50    2.37
 -12  -2   1    0.35    1.90
 -12   2  -3   -2.20    2.80
 -10  -5   2   74.26    3.45
 -10   1  -1   22.43    2.59
  -9   3  -4   84.35    2.92
  -8  -1   1   13.54    2.42
  -7  -3   2   -1.46    2.63
  -2  -1   1   48.31    3.20
  -2   2  -2  481.84    7.59
   1  -9   1   35.33    5.71
   3  -8   1  319.34    5.58
   5   3  -9  405.38    6.09
   7  -7   0   -0.20    2.76
   8   0  -3   26.37    2.42
   8   2  -9    1.61    3.03
   8   2  -8   92.00    2.91
   9  -7  -1  214.98    3.46
  11  -6  -2    2.13    2.59
  11  -5  -2    1.74    1.77
  11  -4  -2    2.83    2.25
  12  -4  -3    2.55    1.60
  12  -2  -4  150.71    2.46
  13  -4  -4   18.19    1.80
  13  -1  -8   -0.23    1.71
  14  -5  -5    2.60    2.07
  14  -3  -6   31.79    1.88
 -17   1  -4   35.81    3.02
 -16  -3   0  148.77    3.55
 -16   0  -2  258.00    2.95
 -15  -2   0   -3.78    2.16
 -14  -6   1    0.81    3.13
 -14   2  -4  563.35    4.47
 -13  -3   1   69.84    2.86
 -13  -1   0    0.33    1.86
 -13   1  -2    1.17    2.75
 -11  -2   1  604.49    4.38
  -9  -4   2    7.22    2.51
  -8  -7   2  225.03    5.38
  -8   4  -9    0.24    3.84
   4   0  -1    0.93    1.65
   5  -6   1   10.06    3.52
   5   3 -10   16.50    3.56
   5   3  -8    0.15    3.91
   6   1  -3    0.80    2.50
   6   2  -5    2.62    2.59
   9  -3  -1  956.95    4.79
  10  -1  -3   59.78    2.46
  10   1  -7   -0.26    2.70
  11  -7  -2    3.56    2.66
  11  -2  -3   50.72    1.69
  11  -1  -4  197.80    2.23
  12  -3  -3   19.96    2.28
  12  -1  -5    3.90    2.14
  12   0  -8    0.40    1.76
  13  -1  -7   30.51    1.87
  14  -2  -7    0.16    1.80
 -19  -1  -3   77.08    2.58
 -17  -2  -1  454.80    3.88
 -17   0  -3  697.18    5.03
 -16   2  -6  153.94    4.08
 -15   1  -3  501.91    3.76
 -15   2  -5   16.20    2.88
 -14  -5   1    0.42    2.28
 -11   2  -3   46.26    2.95
  -9  -6   2    2.43    3.14
  -9   1  -1 1030.37    4.71
  -7  -7   2   -1.07    3.58
  -7   3  -4   15.33    2.65
  -3  -1   1  422.44    5.55
   2  -2   1   31.37    3.51
   7  -3   0   -0.70    2.55
   8  -6   0  179.96    3.39
   8  -5   0 1682.39    6.56
   8   2  -7  119.76    3.33
   9  -8  -1   28.33    2.97
   9   1  -5  602.29    4.26
  10  -6  -1    2.16    2.66
  10  -5  -1    6.36    1.77
  10  -2  -2 1820.62    5.83
  11  -3  -2    0.21    2.19
  11   0  -5  391.39    3.23
  11   1  -9  160.62    3.44
  12   0  -7    0.95    1.66
  13  -6  -3  230.71    3.55
  13  -5  -3  151.40    3.09
  13  -1  -6    2.10    2.19
  14  -5  -4   43.44    2.80
  14  -3  -5    1.56    1.54
 -18  -2  -2  149.42    3.39
 -18   0  -4  144.00    3.77
 -17  -1  -2    0.93    1.95
 -17   1  -5    7.02    3.06
 -16  -5   0   66.37    3.62
 -16  -4   0  125.29    2.71
 -16   1  -4  177.02    3.63
 -15  -3   0   -2.69    2.72
 -14  -2   0 1377.22    5.35
 -13  -4   1  482.74    4.26
 -13   2  -4   38.09    2.76
 -12  -3   1    8.08    2.55
 -12   1  -2 1814.07    6.20
 -10  -2   1    0.54    2.74
  -8  -6   2  127.74    4.07
  -7  -4   2   -0.05    2.97
  -5   4  -8    4.18    4.35
  -4  -1   1   61.43    2.84
  -3   4  -8    0.87    6.08
   4  -3   1   14.94    2.86
   5  -7   1  578.00    6.04
   5  -4   1   17.67    2.72
   7  -8   0    0.03    2.77
   7   0  -2    1.04    2.34
   8  -7   0  561.13    5.31
   8   1  -4 1090.57    5.38
   9  -1  -2   12.87    2.26
   9   2  -9   56.60    3.10
  10  -7  -1   -1.55    2.56
  10  -4  -1    1.24    1.73
  10   0  -4 2175.83    6.03
  10   1  -6   18.67    2.52
  11   1  -8    2.23    2.75
  12  -6  -2   25.50    2.72
  12  -5  -2  678.90    4.28
  13  -4  -3  540.29    3.92
  14  -4  -4  293.01    3.24
  15  -4  -5    7.46    2.28
  15  -3  -6    6.99    2.41
 -18  -1  -3    2.16    2.74
 -17  -3  -1   15.98    2.76
 -15   2  -6    1.25    3.21
 -14   1  -3    5.94    2.55
 -14   2  -5   -0.42    3.11
 -13  -6   1  198.70    4.08
 -13  -5   1   34.74    3.00
 -12  -7   1   -2.07    3.71
 -12   3  -7    2.96    3.69
 -11   3  -6    1.04    2.84
 -10   2  -3  115.35    3.17
  -7   0   0    0.96    2.37
  -6   4  -9    2.14    3.70
   4  -8   1    0.66    3.39
   6   3  -9    2.06    3.92
   9   0  -3 1702.54    6.02
   9   2  -8    0.34    2.90
  11   1  -7  261.64    3.70
  12  -7  -2  232.78    4.01
  12  -4  -2   49.55    2.52
  12  -2  -3    2.20    2.11
  12  -1  -4  980.60    4.35
  13   0  -8    7.13    2.53
  14  -2  -5    1.78    1.98
  14  -1  -7   40.83    1.94
 -17  -4  -1  268.05    4.14
 -16   0  -3    1.39    2.00
 -15   1  -4   -0.03    2.92
 -14  -1  -1    4.18    1.76
 -14   0  -2  722.73    4.47
 -13  -2   0    2.83    2.45
 -12  -4   1   -0.30    2.73
 -12   2  -4  171.55    3.31
 -11  -3   1  733.56    4.60
 -11   1  -2    5.14    2.60
  -9  -2   1  287.12    3.07
  -9   3  -5  420.11    4.53
  -7  -6   2    1.10    2.76
  -7  -5   2    0.37    2.81
  -5  -7   2   -1.79    3.74
  -5   4  -9    5.23    4.50
   1  -6   2   -0.32    5.51
   1  -5   2    2.51    4.64
   2  -9   1    0.77    4.48
   3   2  -3  962.02    7.92
   6  -6   1   -0.32    2.97
   6  -5   1    3.86    2.56
   6   3  -8  323.60    5.59
   7   1  -3  207.51    3.36
   7   2  -5 1734.50    7.18
   8   2  -6  284.64    3.78
   9  -5   0   -0.36    2.43
   9  -2  -1  328.92    3.44
   9   2  -7  150.72    3.26
  10  -3  -1   11.25    2.57
  11  -6  -1  170.11    3.35
  11  -5  -1  386.39    3.80
  11  -1  -3  141.17    2.58
  14  -6  -3   -1.36    2.28
  14  -5  -3   -1.22    2.49
  14  -1  -6   45.40    2.41
  15  -5  -4   -0.37    2.68
  15  -2  -6    3.63    2.16
 -18  -3  -2  106.53    2.90
 -17  -2  -2    0.93    2.36
 -17  -1  -3   60.53    3.00
 -17   0  -4   19.82    2.32
 -16  -3  -1    4.32    2.96
 -16   1  -5    1.63    2.52
 -15  -5   0   -3.48    2.85
 -15  -2  -1   44.38    2.78
 -14  -3   0  156.66    2.60
 -13   1  -3  452.33    4.00
 -13   2  -5  389.15    4.29
 -12  -6   1    2.19    3.04
 -12  -5   1    4.51    3.01
 -12   3  -8  185.54    4.60
 -10   3  -6   13.38    3.42
  -9   2  -3 1147.98    5.76
  -5  -4   2    1.54    2.67
  -4   4  -9    1.58    5.20
  -3  -7   2    0.51    4.79
  -1  -4   2    1.13    5.69
   5   0  -1    2.34    1.83
   8  -8   0   55.20    3.72
   9  -6   0    0.22    2.58
  10   1  -5    5.71    2.56
  11  -7  -1  133.56    3.30
  11  -4  -1  360.09    3.62
  11  -2  -2   -0.74    1.59
  11   0  -4   72.63    2.48
  11   1  -6    0.61    2.52
  12  -3  -2 1323.07    5.22
  12   0  -5   39.84    2.45
  12   1  -8  302.91    3.98
  13  -6  -2    1.31    2.34
  13  -5  -2    1.55    2.38
  14  -4  -3    4.73    2.38
  15  -4  -4    3.64    2.37
 -18  -1  -4  142.38    3.56
 -15   0  -3   26.12    2.87
 -14  -4   0  780.58    5.02
 -14   2  -6  365.96    4.33
 -13   0  -2    5.00    2.59
 -12  -2   0    3.44    2.55
 -11  -7   1  125.74    4.46
 -11  -4   1  363.73    3.94
 -11   2  -4   55.34    2.94
 -10  -3   1    8.48    2.69
 -10   1  -2  197.88    3.28
  -5   0   0    1.92    2.09
   5   1  -2   37.48    2.79
   6  -7   1    2.29    3.51
   6  -4   1    1.22    2.54
   6   2  -4  833.39    5.75
   7  -2   0   -0.40    2.45
   9  -7   0   -0.17    2.73
   9  -4   0    2.30    2.69
   9   1  -4  114.55    2.35
  10  -1  -2  223.63    3.04
  10   0  -3  133.62    2.96
  10   2  -9   22.22    3.18
  10   2  -8  496.65    5.29
  12   1  -7    8.66    2.84
  13  -4  -2    0.40    2.40
  13  -2  -3  831.77    4.14
  13  -1  -4   30.25    2.12
  13   0  -6   34.57    1.92
  15  -2  -5   12.84    2.16
  15  -1  -7  132.78    3.00
 -17  -3  -2   -0.64    2.95
 -17   0  -5  252.37    4.18
 -16  -4  -1    1.74    2.87
 -16  -2  -2  203.27    3.22
 -16   0  -4  105.46    3.27
 -16   1  -6   70.21    3.45
 -15   1  -5  461.60    4.48
 -14  -6   0  305.99    4.91
 -14  -5   0  101.73    3.78
 -14   1  -4  108.73    2.55
 -13  -3   0   -3.50    2.56
 -12   1  -3   18.90    2.57
 -11  -6   1  149.80    3.86
 -11  -5   1  366.55    4.34
 -11   3  -8    1.99    3.43
  -9  -8   1   25.01    3.90
  -8   2  -3   14.68    2.50
  -7  -2   1 1363.27    6.49
  -5  -6   2    1.31    3.56
  -5  -5   2   -0.43    3.47
  -3  -4   2    3.32    3.23
   3  -2   1 3767.12   14.99
   5  -8   1    4.07    3.53
   5  -3   1 2974.07   10.60
   5  -1   0    1.12    2.59
   7   3  -9   37.57    3.74
   8  -1  -1   14.18    1.78
   8   2  -5    1.51    2.54
   9   2  -6    7.64    2.74
  11  -3  -1  739.94    4.43
  12  -6  -1   -0.29    2.47
  12  -5  -1    1.97    2.43
  12  -1  -3   22.71    2.42
  14  -3  -3    4.77    2.23
  14  -1  -5    1.36    1.61
  14   0  -7    1.90    2.39
  15  -5  -3  162.61    3.10
  15  -3  -4   -2.54    1.52
  15  -1  -6    8.66    2.07
  16  -3  -5    0.21    2.16
 -16  -5  -1    0.36    2.74
 -16  -1  -3    5.03    2.60
 -15  -3  -1  473.49    4.16
 -14  -2  -1   19.05    1.96
 -13   2  -6   34.84    3.37
 -12   2  -5   32.38    2.24
 -11  -2   0    0.40    2.57
 -10  -7   1    0.01    3.19
 -10  -4   1    0.00    2.75
 -10   2  -4 1735.65    7.13
 -10   3  -7    3.26    3.17
  -9  -3   1  781.49    4.98
  -9   1  -2   14.82    2.44
  -9   3  -6    1.65    3.02
   3  -9   1   10.03    4.65
   4   2  -3  152.03    4.32
   6   0  -1   15.28    2.48
   7  -6   1  499.45    5.00
   7  -5   1  214.47    3.66
   7   3  -8    3.68    3.41
   9  -3   0    0.24    2.50
  10  -6   0  417.13    4.36
  10  -5   0   16.54    2.61
  10  -2  -1    2.19    1.82
  10   2  -7    0.81    2.83
  11   1  -5  476.54    4.01
  12  -7  -1    0.07    2.41
  12  -4  -1    0.49    2.71
  12  -2  -2   67.47    2.62
  12   0  -4  171.07    3.10
  12   1  -6  673.94    4.56
  13  -3  -2    2.19    2.55
  13   0  -5  393.56    3.50
  13   1  -8   -1.17    2.96
  14  -6  -2  134.55    3.19
  14  -5  -2   41.70    2.40
  15  -4  -3   14.04    2.53
  16  -4  -4   44.04    2.68
 -18  -2  -4  101.90    3.27
 -17  -1  -4   29.54    2.35
 -14   0  -3   -2.93    2.04
 -13  -4   0   -2.52    2.71
 -13   1  -4   31.40    2.82
 -12  -3   0  785.92    4.73
  -3   0   0    2.47    2.10
   7  -7   1   66.31    3.76
   7  -4   1  975.11    5.75
   9  -8   0    1.63    3.01
   9   0  -2   20.29    2.52
  10  -7   0    0.05    2.95
  10  -4   0  930.61    5.25
  10   1  -4  414.90    4.07
  11  -1  -2    1.51    2.23
  11   2  -8    3.54    2.67
  13   1  -7   36.30    2.67
  14  -4  -2  318.47    3.78
  14  -2  -3   -0.46    2.02
  15  -2  -4    4.90    2.18
  16  -2  -5    1.40    2.17
 -16  -3  -2  155.94    3.16
 -16   0  -5    0.22    2.58
 -15  -5  -1  206.97    3.90
 -15  -4  -1   27.56    2.18
 -15  -2  -2    3.72    2.38
 -15   0  -4   11.07    2.09
 -15   1  -6    7.23    2.14
 -14  -3  -1    0.49    2.60
 -14   1  -5   -2.43    2.39
 -13  -6   0    0.05    2.72
 -13   2  -7  262.85    4.45
 -10  -6   1   -1.37    2.51
 -10  -5   1    6.43    2.44
 -10   3  -8   -0.67    3.25
  -8  -8   1    3.01    3.15
  -6  -2   1    2.88    1.72
  -6   3  -5    0.59    2.76
   4   3  -5    6.94    3.57
   6  -8   1    1.66    3.62
   6  -3   1   24.69    2.74
   6   1  -2 1185.07    6.49
   6   3  -6  422.63    5.66
   7   2  -4    7.64    2.61
   8  -2   0  618.39    4.11
   8   3  -9   -0.50    3.32
   9  -1  -1 1130.89    5.27
  10   2  -6  575.37    4.71
  11   0  -3   54.26    2.07
  13  -6  -1  163.55    3.37
  13  -5  -1   35.80    2.56
  13  -1  -3  411.11    3.45
  15   0  -7   12.50    2.49
 -17  -3  -3   44.12    2.68
 -17  -1  -5   11.49    2.90
 -16  -4  -2  111.51    3.36
 -16  -2  -3    3.27    2.38
 -16  -1  -4  149.25    3.20
 -15   1  -7  157.61    3.77
 -13   0  -3 1010.86    4.87
 -13   2  -8    2.35    2.96
 -12  -7   0  144.69    4.06
 -12   2  -6   19.01    2.24
 -10  -2   0 1204.22    5.47
  -9  -7   1  172.04    4.24
  -3  -6   2    0.75    3.78
  -3  -5   2    2.88    3.82
   4  -2   1    3.54    2.35
   6  -1   0 2798.36    9.11
   8  -6   1    3.30    2.68
   8  -5   1    4.65    2.62
   8   3  -8  298.19    5.01
   9   1  -3 1703.41    6.57
   9   2  -5  312.61    3.82
  11  -6   0    1.20    2.60
  11  -5   0    0.36    2.58
  11  -2  -1  555.91    3.63
  12   1  -5    6.93    2.45
  13  -4  -1  387.50    3.82
  13  -2  -2    2.02    2.33
  13   0  -4   35.90    2.61
  13   1  -6   -0.19    2.43
  14   0  -5   -0.46    2.42
  15  -5  -2    0.02    2.44
  16  -4  -3    3.53    2.41
 -17  -4  -3  244.92    4.12
 -17  -2  -4   14.46    1.98
 -16  -5  -2   60.65    3.11
 -16   0  -6  141.16    3.50
 -14  -4  -1    7.41    2.66
 -14   0  -4  550.06    4.09
 -14   1  -6   46.24    3.07
 -13  -1  -2    1.80    1.70
 -12  -4   0    0.06    2.06
 -11  -3   0    0.28    2.52
  -9   3  -8    3.87    3.41
  -8   0  -1  105.33    2.64
  -5  -2   1    4.74    2.33
   5   2  -3  318.18    4.46
   7   0  -1 1738.84    6.76
   8  -7   1    2.48    3.34
   8  -4   1   15.81    2.49
  10  -3   0   40.86    2.09
  10   0  -2 1947.39    6.36
  11  -7   0   -1.68    2.61
  11  -4   0    0.24    2.56
  11   1  -4  188.96    3.16
  12  -1  -2 1585.16    5.55
  12   0  -3   -2.24    2.19
  12   2  -8    1.40    2.90
  14   1  -7   41.10    2.86
  15  -4  -2   -1.39    2.53
  15  -1  -4    2.22    2.03
  15   0  -6    0.81    1.73
  16  -2  -4   67.22    2.40
  16  -1  -5   -2.07    2.08
  17  -3  -4   15.61    2.12
 -15  -3  -2    2.17    1.86
 -15   0  -5   14.65    2.18
 -14  -6  -1   -2.14    2.99
 -14  -5  -1    1.34    2.64
 -14  -1  -3    3.80    2.27
 -12  -6   0   -0.49    2.02
 -12  -2  -1    3.44    1.66
 -12   2  -7    4.19    2.59
 -11   2  -6   10.97    2.79
 -10   2  -5   27.30    2.63
  -8  -7   1    1.59    3.51
  -8   3  -7    8.53    3.43
  -7  -8   1  118.62    4.38
  -7  -1   0   -0.43    1.57
  -7   3  -6   -0.50    2.99
   3  -6   2    2.04    3.85
   3  -5   2    3.47    3.86
   5   3  -5 1186.10    8.40
   7   1  -2   -0.52    2.46
   7   3  -6   -0.26    4.05
   8   2  -4  136.89    3.29
   9  -2   0   -0.60    1.89
   9   3  -9  146.39    4.65
  10  -1  -1   21.13    1.73
  11   2  -6   12.93    2.69
  13  -3  -1   59.96    2.74
  14  -6  -1    4.89    2.68
  14  -5  -1    0.12    2.47
  14  -1  -3    3.97    2.15
  16  -3  -3    2.79    1.68
 -17  -3  -4   24.24    2.75
 -17  -2  -5  176.88    3.52
 -16  -3  -3   -1.36    1.90
 -16  -1  -5    0.51    2.73
 -15  -4  -2   -0.56    2.72
 -15  -2  -3   20.07    2.33
 -15  -1  -4    1.86    2.47
 -14   1  -7   42.09    3.10
 -12   0  -3    1.15    2.38
 -12   2  -8    1.28    2.89
 -11  -7   0    0.36    2.89
 -11  -4   0   -0.62    2.54
  -8  -4   1   16.76    2.25
   1  -4   2    0.99    5.16
   5  -2   1    4.67    2.46
   7  -1   0    1.52    1.69
  10   1  -3   59.23    2.79
  11  -3   0   -0.63    2.51
  12   2  -7    0.12    2.03
  14  -4  -1    7.99    2.42
  14   1  -6   42.54    2.80
  15  -3  -2    1.64    2.42
  16  -5  -2   52.91    2.83
 -16  -4  -3    5.10    2.67
 -16  -2  -4   68.06    2.25
 -15  -5  -2    0.34    2.59
 -15   0  -6    2.57    2.44
 -14   0  -5   -0.83    2.65
 -13  -4  -1  375.44    3.78
 -13  -2  -2    1.67    2.30
 -13   1  -6    2.60    2.57
 -12   1  -5    4.88    2.63
 -11  -5   0   -1.10    2.57
 -10  -3   0   41.06    2.45
  -8  -6   1    4.17    2.67
  -8  -5   1    3.34    2.53
  -6  -8   1    1.29    3.63
  -4  -2   1    3.23    2.19
  -4   3  -5    3.61    3.17
   4  -6   2  405.79    6.65
   6   2  -3   55.84    2.93
   8   0  -1  114.09    2.25
   9  -7   1  162.36    3.98
   9   2  -4   40.81    2.70
   9   3  -7  430.00    5.79
  10  -2   0 1330.27    5.64
  11   0  -2   -0.58    2.35
  12  -4   0    0.82    2.64
  13  -1  -2   -0.25    2.25
  13   0  -3  997.22    4.76
  13   2  -8   -0.77    2.84
  15   1  -7  140.36    3.42
 -16  -1  -6   70.11    3.04
 -13  -6  -1  178.50    3.81
 -13  -5  -1   28.15    2.66
  -8   3  -9    3.64    3.28
  -7  -7   1   64.76    3.71
  -7   3  -7   46.30    3.48
  -6  -3   1   22.24    2.40
  -3  -9   1    8.83    4.70
   4  -5   2  348.51    5.67
   6   3  -5    0.31    3.00
   8  -8   1    1.45    2.97
   8  -3   1   11.30    2.56
   8  -1   0 4815.50   10.69
   8   1  -2 1401.99    5.93
   8   3  -6  978.12    6.68
  10  -6   1   -2.85    2.28
  10  -5   1    2.98    2.44
  11   2  -5  335.59    3.72
  13  -6   0    2.51    2.40
  13  -5   0    1.92    2.44
  14  -3  -1   -1.12    2.48
  15  -5  -1  185.92    3.54
  15  -2  -2    3.17    2.17
 -16  -3  -4   98.30    2.69
 -15  -2  -4    6.97    2.32
 -15  -1  -5  405.44    3.78
 -14  -4  -2  331.36    3.75
 -14  -2  -3   -1.19    2.13
 -14  -1  -4  106.64    2.65
 -13   1  -7   36.61    3.03
 -10  -7   0    3.14    3.00
  -9  -8   0   -0.97    3.47
  -1  -6   2   -0.31    4.88
   3  -7   2    2.13    4.96
   3   0   0    0.36    2.46
   6  -2   1    1.39    2.49
   7   2  -3 1255.72    6.48
  11   1  -3  133.79    2.44
  12  -3   0  793.63    4.77
  13  -7   0   -0.12    2.45
  13  -4   0    0.24    2.39
  13   1  -4   30.97    2.72
  14   1  -5   -1.00    1.78
  15  -4  -1   25.67    2.65
  15   0  -4    8.88    1.87
  15   1  -6    6.89    2.54
  16  -3  -2  143.19    2.48
  16   0  -5    1.02    1.82
  18  -2  -4   76.88    2.45
 -16  -4  -4   36.75    2.88
 -15  -4  -3   16.73    2.64
 -14  -6  -2  135.56    3.58
 -14  -5  -2   42.99    2.68
 -13  -3  -2    1.16    2.50
 -13   1  -8    1.43    2.94
 -12  -4  -1    2.51    2.60
 -12   0  -4  160.49    2.99
 -10  -5   0   14.56    2.49
  -9  -3   0   -1.66    2.44
  -7   3  -8    3.63    3.39
  -6   0  -1   10.83    2.18
  -5  -8   1    4.48    3.82
  -1  -5   2    2.26    4.30
   3  -4   2    4.19    3.26
   4   4  -9    4.68    6.52
   5  -6   2    1.72    3.44
   5  -5   2    2.06    3.43
   7   3  -5   80.87    4.05
   9  -3   1  850.76    5.21
   9   1  -2   10.31    2.59
   9   3  -6   -0.98    3.60
  10  -7   1    0.15    2.80
  10   2  -4 1854.82    7.27
  10   3  -7    0.85    3.12
  11  -2   0    0.98    2.52
  12  -1  -1    9.71    2.33
  12   0  -2   63.20    2.01
  13   2  -6   32.16    2.74
  14   0  -3   -2.60    2.53
  16  -1  -3    3.91    2.17
  17  -4  -2   -0.64    1.80
 -16  -3  -5   -0.97    2.33
 -16  -2  -6  123.73    3.24
 -15  -5  -3  141.64    3.30
 -12  -6  -1   -1.92    2.89
 -12  -5  -1    0.86    2.48
  -5  -1   0   -1.04    2.07
  -5   3  -6    0.44    2.76
   4  -4   2  957.02    8.08
   4   0   0 5137.68   14.82
   4   1  -1   66.49    2.37
   7  -2   1 1549.63    6.89
   8   2  -3   13.11    2.62
   9  -1   0   -0.52    1.72
  10   0  -1    3.22    2.45
  12   1  -3   23.96    2.59
  12   2  -5   34.66    2.98
  13  -3   0   -2.76    2.48
  14  -5   0   85.56    3.47
  14  -2  -1   16.01    2.50
  14   2  -7    2.29    3.06
  15   1  -5  421.61    4.05
  16  -5  -1    0.31    1.90
  16  -4  -1    2.79    2.36
  16   0  -4   93.33    2.82
  16   1  -6   60.79    2.81
  17  -3  -2    0.90    2.57
  17   0  -5  205.55    3.56
 -15  -3  -4    0.33    2.19
 -14   0  -7    2.35    1.91
 -13  -4  -2    1.57    2.59
 -13  -1  -4   31.89    2.46
 -12   1  -7    9.01    2.84
  -9  -7   0    0.99    2.82
  -7  -2   0   -0.08    2.18
  -6  -7   1   -0.80    2.95
  -6  -4   1    0.50    2.32
  -2  -9   1    1.40    4.33
   3   4  -8    0.72    5.77
   5   0   0   -0.65    2.22
   5   1  -1 3804.54   11.88
   5   4  -9    3.85    5.77
  10  -3   1   12.85    2.53
  10   1  -2  216.97    3.49
  11  -4   1  359.09    3.97
  11   2  -4   55.45    2.98
  11   3  -7  194.22    4.31
  12  -2   0    5.27    2.53
  13   0  -2    4.94    2.48
  14   1  -4  105.23    2.99
  15  -1  -2    1.64    2.24
  18  -2  -3    2.17    2.10
 -15  -4  -4    2.38    2.54
 -15  -1  -7  143.83    2.94
 -14  -4  -3    1.48    2.68
 -13  -5  -2   -1.61    2.51
 -13   0  -6   36.03    2.62
 -12   1  -8  288.87    4.03
 -11  -7  -1  115.71    3.73
 -11   0  -4   71.64    2.53
 -11   1  -6    1.60    2.58
  -9  -4   0    2.73    1.91
  -8  -8   0   50.75    3.28
   4   3  -4 1068.55    8.74
   5  -7   2    0.76    3.65
   5  -4   2    2.71    2.74
   8  -2   1   69.46    2.84
   9   2  -3 1281.51    6.21
  12  -6   1    2.24    2.90
  12  -5   1    0.92    2.85
  13   1  -3  461.76    3.85
  13   2  -5  383.99    4.21
  14   2  -6  369.06    4.92
  15  -6   0   -0.37    2.56
  15  -5   0    1.24    2.49
  15  -2  -1   51.47    2.61
  16  -3  -1    7.95    2.64
  17  -1  -3   55.94    2.62
 -15  -5  -4   -0.93    2.59
 -15  -2  -6    0.60    2.55
 -14  -6  -3    0.79    2.70
 -14  -5  -3   -0.47    2.58
 -12  -3  -2 1180.30    4.75
 -11  -6  -1  163.35    3.56
 -11  -5  -1  373.89    3.87
 -10  -3  -1   10.37    2.43
 -10   1  -5    6.25    1.81
  -9  -6   0   -0.27    2.47
  -9  -5   0   -0.73    2.45
  -9  -2  -1  271.26    2.96
  -6  -6   1    0.96    2.95
  -6  -5   1    2.49    2.41
  -6   3  -8  253.13    4.27
  -5   0  -1    2.64    2.05
  -4  -8   1   -1.31    3.68
   5   3  -4   44.31    3.66
   5   4  -8    4.23    5.10
   6  -4   2  879.66    6.39
   6   0   0   25.18    1.90
   6   1  -1   86.32    2.45
   6   4  -9    0.55    4.84
   7  -6   2   -0.41    2.76
   7  -5   2    1.33    2.82
   9   3  -5  498.83    5.40
  11   1  -2    0.13    2.63
  12  -4   1    0.09    2.46
  12   2  -4  168.61    3.25
  14   0  -2  730.82    4.41
  15  -4   0   -0.52    2.63
  15   1  -4    2.52    2.74
  16   1  -5   -1.39    1.85
  17  -4  -1  182.30    3.84
  17   0  -4   19.54    2.71
  18  -3  -2   83.56    2.67
 -13  -3  -3  303.04    2.79
 -13  -1  -5  114.88    2.73
 -12  -7  -2  210.23    4.38
 -12  -4  -2   48.34    2.64
 -12  -2  -3   -1.57    2.19
 -12  -1  -4  949.63    4.56
  -6   3  -9    0.43    3.04
  -5  -7   1  516.13    6.02
  -2   3  -5    5.14    3.63
   7  -4   2   -0.33    3.01
   7   0   0    0.70    2.50
   7   1  -1  751.24    5.12
   8  -6   2  119.88    4.16
   8  -5   2  610.15    6.02
   9  -2   1  318.19    3.30
  10   2  -3  134.67    3.34
  11  -3   1  747.91    4.52
  11  -1   0    2.46    2.62
  11   3  -6    1.26    2.98
  12  -7   1   -1.29    2.96
  12   3  -7    2.99    3.32
  13  -5   1   31.72    2.81
  13  -2   0    0.58    2.06
  14  -1  -1    2.85    1.76
  14   2  -5   -0.24    2.85
  15   2  -6    4.98    3.08
  16   0  -3    0.10    1.86
  18  -1  -3    2.57    2.20
 -15  -4  -5    8.22    2.25
 -14  -1  -7   46.21    2.31
 -13  -2  -4   28.69    1.68
 -13   0  -8    4.36    2.02
 -12  -5  -2  641.31    4.39
 -11   1  -8    2.63    2.78
 -10  -7  -1    2.05    2.81
  -8  -7   0  506.48    5.14
  -8   1  -4  940.59    5.02
  -7  -8   0   -0.91    2.99
  -7  -1  -1  734.90    4.18
  -5  -4   1   15.02    2.53
  -4  -3   1   13.85    2.54
  -2  -2   1   23.78    3.02
  -1  -9   1   29.40    5.36
   4  -1   1   67.74    2.99
   5   2  -2    2.27    2.70
   6   3  -4  739.07    6.31
   7   4  -9  213.82    7.53
   8   0   0  900.22    5.12
   8   1  -1   12.64    2.54
  10  -2   1    2.81    2.70
  10   3  -5    5.79    2.89
  12   0  -1    4.84    1.77
  12   1  -2 1875.85    6.47
  13  -4   1  432.92    4.35
  14   1  -3    4.50    1.92
  15  -3   0   -1.84    2.64
  16  -5   0   60.96    3.31
  16  -2  -1    8.96    1.94
  16   1  -4  163.28    3.18
  17  -3  -1   13.65    2.09
  17   1  -5   10.40    2.82
  18   0  -4  135.31    3.25
 -15  -3  -6    3.01    2.00
 -14  -5  -4   39.02    2.71
 -14  -4  -4  250.38    2.81
 -14  -2  -6  400.81    3.91
 -13  -6  -3  217.54    3.75
 -13  -5  -3  151.06    3.13
 -13  -4  -3  515.68    3.69
 -13  -1  -6   -0.89    2.70
 -11  -3  -2    1.58    2.40
 -11   0  -5  388.85    3.41
 -10  -6  -1    1.66    2.86
 -10  -4  -1   -2.06    1.78
 -10   1  -6   19.03    1.93
  -9  -8  -1   27.06    3.26
  -9   1  -5  547.77    4.17
  -8  -6   0  169.48    3.45
  -8  -5   0 1516.28    6.42
  -8   2  -7  109.82    3.09
  -7  -3   0    1.53    2.34
  -5   3  -8    1.33    3.49
   3  -1   1  415.77    5.22
   5  -1   1 4005.21   12.23
   6  -1   1   91.73    3.25
   6   2  -2 1628.93    7.84
   7   3  -4   17.32    2.89
   7   4  -8   22.32    4.47
   8  -4   2  325.37    4.19
   9  -6   2   -0.36    3.15
   9  -5   2    7.39    3.12
  12  -3   1    7.10    2.01
  12  -1   0 1263.58    5.08
  12   3  -6  555.01    5.71
  13   2  -4   37.84    2.33
  14  -2   0 1343.59    5.47
  15   0  -2    0.91    1.97
  16  -4   0  108.53    2.65
  17  -1  -2   -1.67    1.80
  17   0  -3  652.77    4.74
 -14  -3  -5   -2.11    1.68
 -13  -3  -4   22.63    2.37
 -12  -3  -3   20.75    2.45
 -12  -1  -5    2.97    2.58
 -12   0  -7    0.01    2.41
 -11  -7  -2    1.46    3.01
 -10  -5  -1    2.14    1.87
  -9  -3  -1  857.55    4.59
  -8  -2  -1   67.16    2.54
  -7   2  -6   30.54    2.67
  -6   1  -3    0.82    2.24
  -6   2  -5    2.40    2.42
  -5  -6   1    9.27    2.99
  -5  -5   1 1382.93    7.23
  -5   3  -9  337.91    5.13
  -3  -8   1  289.39    5.89
   0  -6   2  938.83   14.28
   5  -3   2   13.36    2.76
   5   4  -7    1.64    4.28
   6  -3   2  787.70    6.37
   7  -1   1  777.13    5.24
   7   2  -2    2.08    2.61
   8   3  -4  820.48    5.89
   9  -4   2    7.77    2.53
   9   0   0    1.25    2.54
   9   1  -1 1232.21    5.80
  11  -2   1  669.95    4.76
  11   3  -5  377.54    4.75
  13   0  -1  964.37    4.44
  14  -6   1    3.43    2.94
  14  -5   1   -1.95    2.96
  15   1  -3  500.62    4.27
  15   2  -5   12.13    2.35
  16  -3   0  143.52    3.50
  16   2  -6  161.12    3.34
  17  -2  -1  418.30    4.30
  18  -3  -1    3.35    2.85
  19  -2  -2    1.07    2.28
  19  -1  -3   66.52    2.83
 -14  -4  -5    2.30    2.31
 -14  -2  -7    2.69    2.43
 -13  -2  -5  350.84    3.05
 -13  -1  -7   36.77    2.66
 -12  -2  -4  158.02    2.78
 -12   0  -8    3.49    2.34
 -11  -4  -2    2.28    2.61
 -11  -1  -4  200.51    2.52
 -11   0  -6   18.03    2.63
 -10   1  -7    0.47    2.11
  -8   0  -3   27.68    2.36
  -8   2  -9   -1.29    2.86
  -8   2  -8   83.81    2.91
  -7  -7   0    0.86    3.03
  -6  -8   0   52.45    4.09
  -4  -7   1    1.92    3.48
  -4   0  -1    1.74    2.08
  -4   3  -7   31.16    3.59
  -3   3  -6   10.02    3.55
   2  -1   1   45.27    2.95
   3  -3   2    9.31    3.45
   6   4  -7    4.15    4.31
   7  -3   2    0.90    2.74
   8  -1   1   13.90    2.55
   8   2  -2  625.69    4.95
   8   4  -8   49.10    4.42
   9  -7   2    4.82    3.96
   9   3  -4   92.22    3.83
  10   0   0 1728.62    6.31
  10   1  -1   23.76    2.81
  12   2  -3    0.68    2.85
  13  -3   1   64.06    2.32
  13  -1   0    2.38    1.82
  13   3  -6   -0.52    3.33
  14  -4   1    5.28    2.04
  15  -2   0   -0.45    2.12
  16  -1  -1   11.14    2.56
  16   0  -2  241.57    2.91
  17   1  -4   40.71    2.29
  18   0  -3    1.17    2.77
 -14  -5  -5    0.19    2.20
 -14  -3  -6   30.26    2.06
 -13  -6  -4    7.02    2.56
 -13  -4  -4   20.74    2.09
 -13  -1  -8    3.50    1.91
 -12  -6  -3    2.80    2.62
 -12  -4  -3    1.20    2.32
 -11  -5  -2   -2.09    2.39
 -10   0  -5   31.97    2.43
 -10   1  -9   11.08    2.84
 -10   1  -8    0.55    2.45
  -9  -7  -1  215.11    3.72
  -9  -4  -1  193.28    3.25
  -9   1  -6    3.04    2.57
  -8  -8  -1    0.11    3.53
  -7  -4   0    0.87    2.39
  -7   1  -4   36.86    2.61
  -6  -1  -1   94.90    2.65
   3   4  -7  573.91   14.44
   5  -8   2    0.26    4.97
   6  -8   2   73.55    5.72
   7   4  -7  324.78    6.70
   8  -3   2 1152.13    6.29
   9  -1   1 1212.26    5.71
   9   2  -2   13.10    2.99
   9   4  -8   -2.31    4.51
  10  -4   2 1126.77    6.25
  11  -6   2    1.07    3.49
  11  -5   2    0.65    2.91
  12  -2   1    2.27    2.73
  12   3  -5    2.55    3.17
  14  -3   1    5.51    2.61
  14   0  -1   27.16    2.09
  14   1  -2  140.37    3.27
  15  -5   1  235.11    4.27
  16   1  -3    4.38    2.88
  16   2  -5    3.43    3.14
  17  -3   0    2.04    2.62
  18  -2  -1   -1.45    2.82
 -14  -4  -6  201.85    3.11
 -14  -3  -7   29.80    2.30
 -13  -3  -5   92.31    2.47
 -13  -2  -6   34.60    2.04
 -12  -5  -3   12.34    1.90
 -12  -1  -6  707.61    3.92
 -11   0  -7  285.04    3.37
 -10  -3  -2  128.72    2.28
  -9  -6  -1   99.36    3.14
  -9  -5  -1  521.57    4.07
  -9   0  -4   56.92    2.04
  -8   1  -5   18.33    2.59
  -7  -6   0   -3.56    2.77
  -7  -5   0    1.30    2.45
  -7   2  -7  507.50    4.52
  -5  -2   0   -0.09    2.30
  -4  -4   1    1.23    2.67
  -4   2  -4 1329.17    7.32
  -4   3 -10   72.23    4.26
  -4   3  -8  163.74    4.35
   0  -5   2    1.74    5.11
   4  -8   2  140.00    8.80
   7  -8   2   -0.50    3.65
   8   4  -7   61.84    5.02
   9  -3   2   10.02    2.79
  10  -7   2   24.94    3.46
  11  -4   2    1.90    2.63
  11   0   0    2.60    1.93
  11   1  -1 1222.50    5.23
  14  -1   0  196.55    2.76
  14   3  -6   42.54    3.52
  15   0  -1   59.15    2.64
  15   2  -4   10.89    2.26
  16  -2   0  209.82    3.65
  17  -1  -1   20.56    2.71
  17   0  -2    1.95    2.06
  18   1  -4  165.23    3.65
  19  -1  -2    2.91    2.63
  19   0  -3   22.56    2.49
 -13  -2  -7  306.34    3.70
 -12  -3  -4  759.61    3.77
 -12  -2  -5   32.67    2.29
 -12  -1  -7    5.82    2.78
 -11  -3  -3  111.90    2.11
 -11  -1  -5  501.02    3.64
 -11   0  -8    3.10    2.67
 -10  -1  -4  422.34    3.42
  -9   1  -7  664.93    4.52
  -8  -3  -1   13.37    2.57
  -7  -2  -1 1639.13    6.15
  -7   2 -10    0.66    2.79
  -6  -3   0 1405.91    5.94
  -6   2  -6  493.64    4.59
  -4  -9   0   61.38    3.75
  -4  -6   1    0.20    3.43
  -4   3  -9   -0.79    3.44
  -3  -3   1  363.32    4.85
  -3  -1   0    2.23    2.14
   0  -9   1   -0.37    4.91
   9   4  -7   70.93    5.49
  10  -3   2  135.23    3.27
  10   2  -2 1935.53    6.86
  11  -7   2    0.44    3.73
  12  -5   2  638.43    5.80
  12   0   0    6.53    2.51
  12   1  -1   13.42    2.86
  13  -2   1  801.87    4.47
  15  -3   1  525.17    4.57
  15  -1   0   -2.34    2.63
  15   1  -2   -2.94    2.80
  16  -5   1    2.70    3.19
  17   1  -3   63.46    3.32
  17   2  -5  158.64    4.28
 -13  -3  -6    3.42    2.27
 -13  -2  -8    0.08    2.13
 -12  -4  -4  100.17    2.53
 -11  -2  -4   58.07    1.93
 -10  -6  -2  540.66    4.48
 -10  -5  -2   77.86    2.92
 -10  -4  -2 1094.29    4.63
 -10   0  -6  740.09    4.45
  -9  -8  -2   -0.58    2.67
  -9   1  -9  251.07    3.85
  -9   1  -8   -2.29    2.70
  -8  -7  -1    3.91    2.77
  -6  -7   0  266.51    4.25
  -5  -8   0   -0.72    3.83
  -5   2  -5    1.09    2.39
  -4  -5   1    3.57    3.08
  -2  -8   1   -1.44    4.06
  -1   3  -5  895.21    9.59
   9  -8   2    0.90    3.93
  10   4  -7    3.15    4.40
  11  -1   1 1216.31    5.72
  11   2  -2    0.74    3.06
  14  -2   1   19.00    2.99
  15   3  -6    4.75    3.40
  16  -4   1    1.01    2.23
  16   0  -1   11.57    2.63
  17  -2   0   -2.09    2.14
  18  -1  -1    8.14    2.73
 -13  -4  -6   17.09    2.15
 -13  -3  -7   22.07    2.41
 -12  -6  -4   46.61    2.17
 -12  -5  -4  387.92    3.53
 -12  -2  -6   21.00    2.57
 -11  -5  -3   69.35    2.68
 -11  -1  -6    2.09    2.56
  -9   0  -5  406.29    3.57
  -8  -4  -1   18.10    2.54
  -8   1  -6 1504.79    6.09
  -3  -7   1   70.36    3.82
  -3   3  -7  110.81    4.10
   7   4  -6   21.41    4.01
   8   4  -6  166.78    5.18
  11  -3   2   -1.57    2.85
  12  -7   2  203.89    5.13
  12  -1   1   15.93    2.87
  12   2  -2   78.13    3.15
  13  -6   2   -1.56    3.09
  13  -5   2    0.59    2.17
  13  -4   2    1.81    2.86
  13   0   0    2.65    1.87
  13   1  -1   94.97    2.49
  14   3  -5    0.47    2.38
  16  -3   1    7.76    2.89
  16  -1   0  211.75    3.43
  16   1  -2  287.10    3.99
  17  -4   1  279.47    4.27
  18   1  -3    3.98    3.06
 -12  -2  -7    0.34    2.70
 -11  -3  -4  133.75    2.70
 -10  -3  -3   39.07    2.53
 -10   0  -7    3.04    2.40
  -9  -3  -2    9.40    1.82
  -8  -6  -1    7.02    2.62
  -8  -5  -1    6.73    2.64
  -8   0  -4  185.31    2.59
  -7   1  -5  127.86    2.98
  -6  -4   0  153.78    3.05
  -6   1  -4 1197.95    5.64
  -3   3 -10   29.34    3.96
  -2   3  -6  968.72    8.22
   5   4  -6    3.12    4.08
   6  -2   2 1653.11    7.61
   6   3  -3    4.59    2.68
   7  -2   2   -0.71    2.54
   7   3  -3  100.28    3.17
   8  -2   2  621.08    4.99
   8   3  -3   20.22    2.93
   9  -2   2   13.74    2.77
   9   3  -3 1355.41    6.80
   9   4  -6    5.18    4.53
  12  -3   2 1465.17    6.87
  14   0   0 1663.34    6.06
  14   1  -1    9.31    2.93
  15  -2   1   60.05    3.12
  17   0  -1  585.59    4.58
  18  -2   0   91.77    2.78
  19  -1  -1  336.90    4.18
  19   0  -2    2.46    2.86
 -12  -6  -5    4.37    2.62
 -12  -5  -5    0.60    2.47
 -12  -4  -5   16.94    2.05
 -12  -3  -6  548.67    3.89
 -11  -2  -5  355.55    2.78
 -11  -1  -9  164.32    3.20
 -11  -1  -8    1.52    2.48
 -11  -1  -7  296.64    2.91
 -10  -1  -5    6.53    1.83
 -10   0  -9   24.08    2.49
 -10   0  -8  610.86    3.94
  -8   1 -10  247.97    3.56
  -8   1  -7   10.16    2.55
  -6  -5   0  699.01    4.74
  -6   2 -10  188.07    3.84
  -6   2  -8  471.46    4.33
  -5  -1  -1 4589.86   10.88
  -5   0  -2    5.92    2.27
  -3  -9   0    1.83    3.65
  -3   0  -1 5350.32   15.18
  -3   3  -8    3.63    3.49
   5  -2   2    3.54    2.60
   6   1   0 2580.55    8.72
   7   1   0   -0.54    2.49
   8   1   0 4975.98   11.08
   9   1   0   -0.67    2.54
  10  -2   2 1920.44    7.23
  12   4  -7   -0.07    4.00
  13  -3   2    2.60    3.12
  13  -1   1  101.21    2.50
  14  -6   2  156.31    4.38
  14  -4   2  422.58    4.93
  16   2  -3    0.84    2.97
  17  -3   1   18.04    2.97
  17  -1   0    2.65    2.71
  17   1  -2    3.77    2.18
  18   2  -4  143.59    3.59
  19   1  -3   89.84    3.48
 -11  -6  -4   12.50    2.52
 -11  -5  -4   60.88    2.68
 -11  -4  -4   29.60    2.25
 -10  -6  -3   43.53    2.73
 -10  -4  -3   82.51    2.60
  -9  -6  -2   -1.39    2.47
  -9  -5  -2    6.73    2.54
  -9  -4  -2    5.54    1.77
  -8   1  -9    6.31    2.56
  -8   1  -8  449.29    4.13
  -7  -3  -1  416.36    3.29
  -6  -2  -1    2.42    2.29
  -6   2  -9    0.94    2.44
  -5  -7   0    1.43    3.36
  -5  -3   0   -1.71    2.37
  -5   2  -6    4.10    2.47
  -4  -2   0 4216.91   11.87
  -3   2  -4   98.06    3.64
  -3   3  -9   56.75    3.39
   4  -2   2 2264.69   10.36
   4   4  -6  618.94    9.67
   5   1   0    1.68    2.37
   7   0   1 1676.06    6.74
   8   0   1  128.81    3.00
   9   0   1  418.64    3.92
  10   1   0   91.59    3.01
  11  -2   2   -1.00    2.96
  14  -1   1    2.95    2.97
  15  -5   2   -2.46    3.23
  15  -4   2    1.33    2.96
  15   0   0    4.49    2.03
  15   1  -1  795.49    4.37
  16  -2   1    5.41    2.33
  16   3  -5   -1.58    3.57
  18   0  -1    1.81    2.98
  18   1  -2  189.73    3.54
  19  -2   0   -0.48    2.25
 -12  -5  -6  263.81    3.26
 -12  -4  -6   11.66    1.60
 -12  -3  -8  236.06    3.42
 -11  -3  -5  351.34    3.13
 -10  -5  -3   19.81    1.84
 -10  -1  -6   20.90    2.42
  -9   0  -7  203.25    3.24
  -6  -8  -1   -0.26    3.00
  -4   2  -5    8.72    3.01
  -3  -6   1  999.61    7.26
  -3  -4   1 2119.53    9.70
  -1  -2   1 2583.49   17.51
   1  -1   1  146.00    5.25
   1   2  -2    3.33    4.85
   4   3  -3    2.99    2.66
   6   0   1   12.32    1.75
   7   2  -1 1407.21    6.50
   8   2  -1   64.22    2.87
   9   2  -1  319.20    3.97
  10   0   1    4.86    2.73
  10   2  -1    0.30    2.89
  11   1   0    1.99    2.84
  12  -2   2   76.53    3.16
  14  -3   2   97.97    2.82
  15  -1   1  783.38    4.93
  15   3  -4    3.15    3.55
  16  -5   2   92.47    3.46
  16   0   0  273.20    3.54
  16   1  -1    9.19    2.94
  17  -2   1  534.54    4.89
  17   2  -3  655.76    4.62
  18  -3   1    5.75    2.22
  18  -1   0  310.67    3.58
 -12  -4  -7    1.01    1.63
 -11  -6  -5   89.48    2.96
 -11  -4  -5  194.48    2.74
 -11  -2  -8    5.80    2.67
 -11  -2  -7  265.61    3.26
 -10  -7  -4   59.70    3.10
 -10  -3  -4  322.37    3.17
 -10  -2  -5   27.98    2.55
 -10  -1  -7    0.20    2.53
  -9   0  -9   70.15    2.95
  -9   0  -8   -0.09    2.63
  -8  -3  -2 1230.54    5.00
  -8   0  -5    2.00    1.87
  -7  -4  -1 1133.88    5.35
  -7   0  -4   12.89    2.38
  -1  -8   1  196.98    5.26
   1  -9   1   33.56    4.95
   5   0   1    2.43    2.34
   6   2  -1    2.17    1.74
  11   0   1  759.28    4.29
  11   2  -1  631.35    4.75
  12   1   0 1355.16    5.34
  13  -2   2    4.13    2.99
  15  -3   2    1.60    2.87
  16  -4   2  153.22    3.93
  18   2  -3   -2.32    2.69
  19  -1   0    0.09    2.77
  19   0  -1   95.78    2.69
  19   1  -2    3.16    3.04
 -11  -5  -5  168.56    2.39
 -11  -3  -6    0.37    1.53
 -10  -6  -4  559.78    4.08
 -10  -1  -8    4.30    2.26
  -9  -1  -5  619.38    3.48
  -7  -8  -2    2.13    2.87
  -7  -5  -1  212.30    3.25
  -7   1  -7   74.73    2.71
  -6  -1  -2 1277.40    5.35
  -5  -6   0   -1.14    2.72
  -5  -4   0    1.77    2.43
  -5   2 -10   28.56    2.73
  -5   2  -7    5.15    2.59
  -2  -9   0   81.38    4.38
  -2  -7   1    2.48    3.42
  -2   3 -10  246.70    4.97
  -2   3  -7    7.15    3.54
   4   1   0 4014.46   12.12
   5   2  -1    6.82    2.43
   6   4  -5   -0.50    3.97
   7  -5   3   51.46    3.74
   8  -5   3    8.90    3.17
   9  -5   3  620.88    6.05
  10  -5   3   20.59    3.11
  12   2  -1    3.05    2.85
  13   0   1 1004.24    5.07
  13   1   0    3.81    2.09
  14  -2   2  704.09    5.05
  16  -3   2  204.65    3.57
  16  -1   1   11.85    2.12
  16   2  -2  257.02    3.94
  17   0   0   -0.72    2.08
  17   1  -1   25.02    2.20
 -11  -5  -6    2.82    2.35
 -11  -4  -6    6.56    2.15
 -11  -3  -8   -1.26    2.62
 -11  -3  -7  218.62    2.81
 -10  -5  -4  167.17    2.93
 -10  -4  -4 1098.44    4.18
 -10  -2  -6  646.79    3.92
  -9  -4  -3  734.42    3.96
  -8  -8  -3   -0.81    2.58
  -8  -6  -2  161.85    2.61
  -8  -5  -2  708.81    4.29
  -8  -4  -2  345.31    3.26
  -8   0  -6  318.89    3.37
  -7   1  -9   51.70    2.58
  -7   1  -8    5.42    2.60
  -6  -7  -1   -0.17    2.61
  -5  -5   0   -1.87    2.35
  -5   2  -9   10.21    2.70
  -5   2  -8   10.62    2.66
  -2  -3   1    4.16    2.62
  -2   3  -9    4.71    3.49
   3  -2   2   18.52    3.03
   8  -6   3    3.19    3.64
   8  -4   3    5.63    2.83
   8  -1   2 1517.93    6.49
   9  -6   3  318.78    5.29
   9  -4   3  733.87    5.81
   9  -1   2   12.94    2.67
  10  -6   3   39.23    3.66
  10  -4   3   81.24    3.52
  10  -1   2  218.00    3.70
  11  -5   3   67.50    3.49
  11  -1   2    5.10    2.79
  12   4  -5   20.86    3.69
  14   0   1   27.16    2.81
  14   1   0  208.06    2.81
  15  -2   2    1.15    2.72
  17  -4   2    2.31    2.37
  17   2  -2    0.42    3.17
  18   1  -1   10.83    2.80
  19  -2   1   78.85    3.29
 -11  -5  -7  105.00    2.74
 -11  -4  -7  152.80    2.81
 -10  -3  -5    1.77    1.47
 -10  -2  -7    1.02    2.63
  -9  -5  -3  651.22    3.64
  -9  -1  -6   -1.20    2.28
  -8   0 -10   85.38    2.99
  -8   0  -7  144.25    3.06
  -6  -3  -1   27.39    2.33
  -5  -8  -1    5.05    3.08
  -4  -1  -1   92.39    2.59
  -3  -8   0   -0.70    3.63
  -2   3  -8  751.43    6.12
  -1   2  -3 1508.89   11.99
   4   0   1    0.75    1.51
   6  -5   3   -0.77    3.76
   7  -6   3  430.87    6.52
   7  -4   3  924.59    6.47
   7  -1   2   -0.37    1.74
   9   3  -2   10.84    2.69
  10   3  -2  130.90    3.48
  11  -6   3   29.79    3.52
  11  -4   3   46.02    3.26
  12  -6   3   -1.75    3.83
  12  -5   3   10.99    3.19
  12  -4   3    1.44    3.08
  12  -1   2 1971.03    7.01
  13  -5   3  165.52    4.64
  14   2  -1   20.94    3.16
  15   0   1   63.35    2.78
  17  -3   2   -2.90    3.04
 -10  -6  -5    4.86    2.27
 -10  -5  -5    3.47    2.42
 -10  -4  -5   13.25    2.19
 -10  -3  -6   12.64    2.03
 -10  -2  -9   23.58    1.90
 -10  -2  -8  572.14    4.06
  -9  -3  -4   93.18    2.46
  -9  -2  -5  359.14    3.19
  -9  -1  -9  276.44    3.19
  -9  -1  -7  692.24    4.10
  -8  -7  -3    6.84    3.12
  -8   0  -9   -1.21    2.48
  -8   0  -8  110.24    2.76
  -7  -7  -2    2.83    2.79
  -7   0  -5 1976.21    6.46
  -6  -6  -1    0.10    2.57
  -6   1  -6  628.41    4.26
  -5  -2  -1    8.09    2.40
  -1   3  -6   34.32    4.02
   3   3  -3   18.46    3.53
   4   2  -1    3.82    2.37
   5   4  -5   -0.10    4.16
   6  -6   3    9.06    4.12
   6  -4   3   24.55    3.00
   6  -1   2 1188.98    5.96
   7   3  -2   -0.72    2.59
   9  -3   3 1191.10    6.44
  10  -3   3   34.97    3.09
  11  -3   3  115.51    3.35
  12   3  -2 1450.83    6.66
  13  -6   3  238.62    4.85
  13  -4   3  578.06    5.49
  13  -1   2   -2.18    2.99
  14  -5   3    0.95    2.90
  14   4  -5    2.74    3.62
  15   2  -1   57.81    3.26
  16  -2   2  233.58    3.31
  16   1   0  227.44    3.58
  16   3  -3    3.91    3.46
  18  -3   2  119.26    3.57
  18  -1   1   13.16    2.33
  19   0   0    1.28    2.82
 -10  -6  -6  193.15    3.17
  -9  -6  -4    5.82    2.46
  -9  -1  -8   -1.11    1.85
  -8  -1  -5   23.03    2.39
  -7  -3  -2    1.19    1.67
  -6  -5  -1    2.43    2.61
  -6  -4  -1    2.74    2.50
  -4   2 -10  351.24    4.24
  -2  -6   1    1.55    3.42
   3   1   0    1.13    2.17
   5  -5   3 1459.33   10.89
   7  -3   3  112.77    3.61
   8  -3   3   16.92    2.66
   8   4  -4   81.95    3.73
   9  -7   3  201.73    5.88
   9   4  -4   17.59    3.29
  10  -7   3    3.20    4.26
  10   4  -4 1075.19    6.77
  11  -7   3   23.45    4.18
  11   4  -4   27.55    3.63
  12  -3   3   22.22    3.01
  13   3  -2    3.38    3.22
  14  -6   3   -1.51    2.96
  14  -4   3   -1.08    3.18
  14  -1   2  144.91    2.84
  15   4  -5    6.87    3.67
  16   0   1    7.49    2.05
  17  -2   2    2.06    3.22
  17   3  -3   63.81    3.83
  19   2  -2    3.62    2.83
 -10  -5  -6    1.25    2.10
 -10  -4  -6  381.82    2.76
 -10  -3  -8   -1.22    2.38
  -9  -7  -5  123.01    2.90
  -9  -5  -4   45.66    2.30
  -9  -4  -4   16.35    1.79
  -9  -2  -6    6.38    2.52
  -8  -6  -3    5.01    2.49
  -8  -4  -3    8.54    2.17
  -7  -6  -2    2.16    2.46
  -7  -4  -2   -1.02    2.39
  -7   0  -6   25.59    2.58
  -6   1  -8  405.33    3.47
  -4   2  -9    1.02    2.81
  -4   2  -8  431.35    4.47
  -3  -9  -1    8.11    3.47
  -3  -2   0   -1.22    2.15
  -3   2  -5 1552.92    7.80
  -1  -9   0    0.67    3.79
  -1   3 -10    0.49    3.06
   0  -8   1    1.38    4.08
   0   3  -5   22.96    4.15
   1  -6   2    0.22    5.16
   5  -1   2   38.36    2.65
   8  -7   3    2.37    3.74
   9   1   1 1079.79    5.18
  11   1   1 1084.90    5.20
  12   1   1   15.29    2.63
  13  -3   3  353.26    3.77
  15  -4   3   12.62    3.32
  15  -1   2   -1.39    2.18
  17   0   1  610.50    4.74
 -10  -5  -7   -2.47    1.79
 -10  -4  -7    1.65    1.64
  -9  -6  -5  116.61    2.87
  -9  -2  -8   -1.40    2.49
  -8  -1  -6 1538.54    5.33
  -7  -5  -2    0.61    2.25
  -7   0 -10    3.05    1.82
  -6  -2  -2 1863.78    6.07
  -5  -1  -2   38.56    2.25
  -4  -8  -1    0.62    2.94
  -4  -4   0 2092.29    7.96
  -2  -4   1    8.11    3.29
  -2   2  -4   38.52    2.91
   2  -9   1   -0.61    4.21
   2  -7   2  721.65   12.41
   3   0   1 5493.63   15.48
   5  -4   3  140.56    3.77
   6  -3   3    2.39    2.69
   7  -7   3   19.48    4.45
   7   4  -4    4.40    3.01
   8   1   1   11.71    2.38
   9   2   0   -0.20    2.61
  10  -2   3  120.87    3.19
  10   2   0 1313.36    5.46
  11  -2   3   52.82    3.20
  11   2   0   -1.63    2.05
  12   2   0    6.77    2.81
  13   1   1   94.33    3.15
  13   2   0   -1.28    2.81
  15  -3   3  411.08    4.64
  15   3  -2   -2.35    2.18
  16  -4   3   -1.23    3.45
  16  -1   2  294.12    3.50
  18   0   1   -1.15    2.90
  18   3  -3    2.16    2.42
  -9  -5  -5  273.01    3.09
  -9  -4  -5  210.67    2.51
  -9  -3  -6    2.50    2.04
  -8  -1  -9    8.18    2.28
  -8  -1  -8  430.19    3.47
  -8  -1  -7    7.09    2.51
  -7   0  -9  570.52    3.59
  -7   0  -8   39.54    2.59
  -7   0  -7  642.62    3.96
  -3  -7   0    0.66    3.24
  -2  -8   0   72.30    4.16
  -2  -5   1    2.88    2.93
  -1  -7   1  147.70    4.19
  -1   3  -9  337.36    4.83
  -1   3  -7  370.08    5.38
   3   4  -9  319.08    9.34
   5  -6   3   35.59    5.08
   5   3  -2   14.85    3.19
   7   1   1  734.63    4.66
   8  -2   3   15.25    2.43
   8   2   0  596.21    3.97
   9  -2   3 1272.77    6.19
   9   0   2   24.35    2.50
  10   0   2 2010.38    6.40
  11   0   2   -0.54    1.93
  12  -2   3   -1.13    2.30
  12   0   2   70.31    3.04
  13  -2   3 1023.00    5.80
  13   0   2    5.64    2.97
  15   1   1  790.02    4.75
  15   4  -4    4.49    3.94
  16  -3   3    2.24    3.29
  16   3  -2  226.95    3.31
  17  -4   3  369.63    5.32
  17  -1   2   -1.42    2.32
  18   2  -1   -4.76    2.38
  19  -2   2    2.72    2.36
  19   1   0   -0.41    3.05
  -9  -5  -6   -0.32    2.20
  -9  -4  -6    1.55    2.11
  -9  -3  -9  220.41    3.29
  -9  -3  -7  494.56    3.53
  -8  -7  -5    1.49    2.61
  -8  -6  -4   47.00    2.59
  -6  -8  -3    2.76    3.01
  -6   0  -5    5.75    2.43
  -5  -8  -2    3.00    2.58
  -5  -6  -1    7.50    2.56
  -5  -3  -1 3072.98    8.45
  -3   2 -10   22.47    2.80
  -1   3  -8    5.50    3.13
   4  -1   2 1230.75    7.05
   7   2   0   -2.32    2.37
   8   0   2  782.05    4.75
  10   3  -1   11.81    2.57
  11   4  -3   43.01    2.96
  12   3  -1    8.63    2.97
  12   4  -3    3.01    3.12
  14  -2   3   -0.86    2.24
  14   0   2  780.83    4.86
  15  -2   3   24.31    2.90
  16   1   1   14.13    2.94
  17  -3   3   64.40    3.71
  17   3  -2   -3.35    2.40
  18  -1   2  198.36    4.04
  -9  -5  -7  250.90    3.14
  -9  -4  -7  106.33    2.49
  -8  -5  -4  426.40    3.32
  -8  -4  -4   88.41    1.86
  -8  -2  -6  273.05    3.22
  -7  -6  -3  520.08    3.98
  -7  -1  -5  125.20    2.22
  -6  -3  -2  877.08    4.60
  -6   0 -10  207.36    3.05
  -3   2  -6    4.88    2.52
  -2  -9  -1    0.57    3.52
   3   4  -7  650.79   14.64
   4   4  -5    5.37    5.03
   5  -3   3 3035.86   11.77
   6   1   1   94.17    2.77
   7  -2   3 1393.67    6.58
   7   0   2    1.96    2.33
   9   3  -1  777.82    4.94
   9   4  -3  694.54    5.31
  13   3  -1   69.22    2.52
  14   3  -1    5.22    3.11
  15   0   2    1.42    2.06
  16  -2   3   -0.98    3.04
  16   0   2  272.97    3.84
  17   1   1   21.16    3.00
  19  -1   2    2.77    3.23
  -8  -6  -5   -0.01    2.52
  -8  -2  -9    2.95    2.01
  -8  -2  -7  119.72    2.74
  -7  -7  -4    1.33    2.44
  -7  -5  -3   50.81    2.50
  -7  -4  -3  912.01    4.18
  -7  -1 -10    1.10    1.77
  -7  -1  -6    1.98    2.40
  -6  -5  -2  455.81    3.75
  -6  -4  -2  984.88    4.74
  -6   0  -6  563.21    3.95
  -5  -5  -1 1527.42    6.05
  -5  -4  -1   16.71    1.73
  -4  -7  -1   -1.39    2.83
  -3   2  -9  565.32    4.64
  -3   2  -7 1081.48    6.20
   0  -9   0    2.52    3.75
   0   3 -10    0.39    2.99
   6   2   0   68.50    2.75
   8   3  -1    8.31    2.58
   8   4  -3    6.21    3.18
  11  -1   3  144.06    3.29
  12  -1   3   22.95    2.82
  13  -1   3  489.75    4.48
  15   3  -1  564.43    4.79
  17  -2   3  634.24    5.21
  17   0   2    2.35    2.96
  17   2   0   -1.63    2.37
  18   1   1   11.27    3.07
  -8  -5  -5   10.55    2.04
  -8  -4  -5    1.39    1.92
  -8  -3  -9   -0.98    2.77
  -8  -3  -6  953.68    4.03
  -7  -1  -8    2.49    2.33
  -7  -1  -7   71.32    2.64
  -6  -7  -3    4.20    2.79
  -6   0  -9    0.75    1.78
  -6   0  -8  535.04    3.77
  -6   0  -7   21.72    2.52
  -5  -7  -2    0.41    2.67
  -4  -2  -1    3.93    1.75
  -3  -8  -1  325.39    4.75
  -3  -6   0    1.20    2.72
  -3  -1  -1  569.12    4.82
  -3   2  -8   -0.60    2.61
   2  -2   2  611.66    7.56
   3   4  -8    1.80    4.97
   4  -5   3    0.55    4.05
   4  -4   3   66.43    3.77
   6  -7   3    0.84    4.78
   6  -2   3   60.32    2.88
   6   0   2 2185.12    7.67
   9  -1   3 1793.10    6.73
  10  -1   3   58.22    2.28
  10   5  -7    0.85    3.85
  14  -1   3    5.84    2.27
  15  -1   3  547.97    4.56
  16   3  -1    6.30    2.32
  16   4  -3    3.97    3.71
  -8  -5  -6  514.92    3.46
  -7  -6  -4    1.92    2.15
  -7  -2 -10    0.45    2.48
  -5  -2  -2    3.14    1.57
  -3  -3   0    1.41    2.27
  -3   0  -2   29.29    2.40
  -1  -6   1  571.06    6.14
   1  -8   1  213.49    5.49
   2   1   0  440.32    5.50
   4   3  -2  933.36    7.41
   5   1   1 4721.23   11.28
   7   3  -1  398.18    4.02
   7   4  -3  946.38    6.60
   8  -1   3   26.07    2.50
  11  -4   4   29.05    3.24
  11   2   1  565.61    4.01
  11   5  -6    0.41    4.00
  12   1   2 1660.19    5.87
  12   2   1    6.07    2.66
  13  -5   4    2.05    3.51
  13   1   2    2.35    2.57
  13   2   1  762.01    4.74
  14   2   1   18.26    2.84
  18   3  -1    0.10    2.98
  19   0   2    2.67    3.17
  -8  -5  -7    0.92    1.80
  -7  -7  -6   -1.39    2.17
  -7  -5  -4    7.85    2.33
  -7  -4  -4    4.07    2.10
  -6  -6  -3   10.37    2.45
  -5  -1  -3 4544.71    9.46
  -4  -6  -1    1.51    2.43
  -4  -1  -2 1215.46    5.79
  -3  -5   0    0.15    2.76
  -2   2  -5   48.34    2.85
  -1  -8   0    0.10    3.23
   0   3  -9    2.70    2.59
   0   3  -6    2.35    3.73
   5   2   0   -0.62    2.36
   9   5  -7  210.19    5.96
  10  -5   4  153.32    4.16
  10  -4   4 1171.19    7.00
  10   1   2  196.38    3.08
  10   2   1    5.38    2.48
  10   5  -6    3.99    4.03
  11  -3   4  127.18    3.25
  11   1   2    1.82    1.70
  11   4  -2    0.70    2.59
  12  -3   4  769.57    5.47
  12   4  -2   47.29    3.08
  13   4  -2   -0.83    3.46
  14  -3   4  104.33    3.61
  14   1   2  143.96    2.62
  14   4  -2  454.23    5.19
  15  -5   4   -0.08    3.52
  15   1   2   -1.76    2.72
  15   2   1   54.47    3.19
  15   4  -2    1.47    3.33
  16   2   1    7.92    2.79
  -7  -6  -5  443.05    3.13
  -7  -2  -7  563.49    3.76
  -7  -2  -6   29.34    1.72
  -6  -1  -9    4.36    2.25
  -6  -1  -5    2.72    1.71
  -5  -8  -4    2.19    2.94
  -5  -6  -2    5.19    2.41
  -5   0  -5    3.17    2.26
  -3  -4   0    1.29    2.39
   0  -7   1    2.41    3.49
   4  -8   2  188.88    9.21
   6   3  -1   26.75    2.60
   7  -1   3  207.46    3.27
   8  -8   3    1.30    5.41
   9  -5   4   42.38    3.92
   9  -4   4   17.25    3.15
   9   1   2   12.65    2.39
   9   2   1  298.67    2.91
   9   5  -6   -1.03    4.15
  10  -3   4  302.83    3.94
  11  -6   4   14.45    3.86
  11   3   0    0.25    2.65
  11   5  -5  159.52    4.64
  12  -6   4   45.44    3.73
  12   0   3   -1.00    2.50
  12   3   0  809.23    4.83
  12   5  -5    4.80    3.28
  13  -6   4    3.11    3.62
  13   3   0   -2.30    2.19
  13   5  -5   46.16    4.13
  14   0   3   -1.21    2.90
  14   3   0  167.08    3.56
  14   5  -5   -1.08    4.13
  15  -3   4    0.16    3.68
  15   3   0   -2.14    3.19
  16  -4   4   63.64    2.94
  16  -3   4  150.18    3.74
  16   1   2  281.34    3.18
  17   1   2    2.72    2.87
  18  -1   3    4.89    2.49
  -7  -6  -6   16.65    1.82
  -7  -5  -5   44.09    1.86
  -7  -4  -5  948.27    4.04
  -7  -3  -9   34.80    2.18
  -7  -3  -6    3.72    2.16
  -6  -7  -5   -1.34    2.38
  -6  -5  -3    4.85    1.64
  -6  -4  -3   24.53    2.15
  -6  -2 -10  189.28    3.12
  -6  -1  -8  374.43    3.24
  -6  -1  -6  589.64    3.80
  -5  -7  -3  624.13    4.51
  -5  -3  -2   14.98    2.08
  -5   0  -9   11.44    1.82
  -5   0  -6    4.84    2.42
  -4  -5  -1    1.97    2.43
  -4  -3  -1   15.20    1.82
  -3  -7  -1   67.72    3.08
  -2  -8  -1    3.81    3.39
  -1  -3   1  322.74    5.59
   0   3  -8    0.93    2.52
   0   3  -7  764.01    6.70
   1  -9   0   -1.31    3.92
   1  -5   2    3.45    4.39
   1   3 -10   -0.21    3.40
   2   0   1   41.02    2.56
   3  -1   2   33.45    2.48
   4  -3   3    2.18    2.70
   5  -2   3  366.60    4.42
   5   0   2    4.44    1.81
   8   1   2 1556.31    5.92
   8   2   1   67.36    2.68
   9  -3   4   89.43    3.08
   9   4  -2    4.99    2.64
  10  -6   4  491.95    7.03
  10   0   3  134.37    3.02
  10   3   0   44.64    2.90
  10   5  -5    3.92    3.62
  11   0   3   53.93    2.85
  12  -2   4  152.01    3.47
  13  -2   4   29.30    3.15
  14  -2   4  553.56    4.80
  15   0   3   24.95    2.53
  16   0   3   -0.20    3.12
  17  -3   4   30.14    3.43
  17   3   0    1.12    3.02
  18   1   2  182.87    3.70
  18   2   1    0.69    3.19
  -7  -5  -8    0.74    2.30
  -7  -5  -7   29.91    2.53
  -7  -5  -6    0.80    1.67
  -7  -4  -7  365.51    3.25
  -7  -4  -6   27.87    2.09
  -7  -3  -8    4.46    1.96
  -7  -3  -7   58.60    1.87
  -6  -7  -6   94.87    2.70
  -6  -6  -4  250.02    2.94
  -6  -1  -7  104.83    2.05
  -5  -5  -2    3.51    1.78
  -5  -4  -2    1.08    2.29
  -5   0  -8    7.58    1.62
  -5   0  -7    1.41    2.32
  -4  -4  -1    1.17    2.19
  -3  -8  -2   -2.74    2.95
  -2   2  -8  104.24    2.88
  -2   2  -6  268.33    3.74
   4   1   1   89.95    2.76
   6   4  -3   29.33    2.92
   8  -5   4  422.66    5.66
   8  -4   4   89.80    3.47
   8   4  -2  341.88    4.33
   8   5  -7    1.82    4.46
   9   3   0   -1.39    2.62
  11  -2   4   58.64    3.07
  14   5  -4   47.40    3.79
  15  -2   4   10.01    2.41
  16  -2   4  107.28    3.53
  19   1   2    2.87    3.10
  -6  -6  -5    0.47    2.41
  -6  -5  -4  389.25    3.24
  -6  -2  -9    1.68    2.24
  -5  -1 -10   24.82    1.96
  -4   0 -10  379.54    3.41
  -2  -2   0  888.32    6.68
  -2   2  -7  159.00    3.16
  -1   2 -10    3.74    2.66
   6  -1   3    0.56    2.42
   7   1   2    0.59    2.18
   7   2   1 1609.47    6.28
   8  -3   4  800.79    5.47
   8   3   0 3465.13    9.01
   8   5  -8  140.77    8.97
   8   5  -6  521.04    7.69
   9  -6   4    5.25    3.81
   9   0   3 1587.13    5.78
   9   5  -5  271.39    5.22
  10  -2   4 1889.96    6.94
  12   4  -1    0.85    2.53
  13   4  -1  420.99    4.32
  15   5  -4    1.67    4.04
  17  -2   4   23.86    2.52
  18   0   3   -0.26    2.42
  -6  -6  -7    0.87    2.46
  -6  -6  -6  170.97    2.90
  -6  -4  -4  478.87    2.90
  -6  -3  -9    2.12    2.77
  -6  -2  -8  487.78    3.59
  -6  -2  -7   17.42    2.59
  -6  -2  -6  496.25    3.38
  -5  -7  -4    1.45    1.91
  -5  -6  -3   40.64    1.97
  -5  -1  -9  485.67    3.52
  -4  -8  -4  153.02    3.35
  -2  -6   0  189.43    3.52
  -2   1  -3   96.27    2.98
  -1   2  -4    1.41    2.57
   0  -9  -1    0.04    3.08
   0  -8   0 1226.49    8.14
   4   2   0 4426.35   12.02
   4   4  -9    5.05    4.84
   5   3  -1 3044.95   10.19
   7  -4   4    3.10    3.45
   8   0   3   25.33    2.57
   9  -2   4   45.95    2.83
  11   4  -1  359.83    3.89
  12  -1   4 1030.84    5.47
  14   2   2  620.44    4.32
  15  -1   4    0.69    3.20
  15   2   2    2.64    3.06
  16  -1   4  210.70    3.96
  16   2   2  240.34    3.65
  16   4  -1   -0.86    2.67
  -6  -5  -8  171.52    3.04
  -6  -5  -5   -0.82    2.08
  -6  -4  -9   -2.55    2.06
  -6  -4  -5    2.65    2.07
  -5  -7  -5  307.54    3.40
  -5  -5  -3 1409.19    5.16
  -5  -1  -5 1770.05    5.94
  -4  -7  -3    0.55    2.77
  -4  -6  -2  600.33    4.20
  -4  -2  -2 2471.84    7.59
  -4   0  -9    2.43    2.21
  -3  -6  -1  984.75    5.28
  -3  -2  -1 4175.76   11.12
  -1  -9  -2   -2.89    2.94
  -1  -7   0   -1.62    3.12
   1   3  -9  326.20    4.68
   2   2  -1   33.07    3.12
   7   4  -2    2.18    2.57
  11  -1   4  208.08    3.38
  11   2   2   -2.09    2.42
  12   3   1    4.26    2.44
  13   1   3  428.34    3.93
  13   3   1   54.57    2.96
  13   5  -3  159.16    4.03
  14   1   3    2.32    2.68
  14   3   1    0.15    2.92
  14   5  -3   -0.72    3.37
  15   1   3  500.06    4.24
  15   3   1  517.57    4.74
  16   1   3    3.70    3.12
  16   3   1    2.46    3.32
  17   2   2    3.95    2.99
  18  -1   4  207.82    4.01
  -6  -5  -7   41.26    1.97
  -6  -5  -6  231.77    2.41
  -6  -4  -8  315.94    2.91
  -6  -4  -7    2.54    2.35
  -6  -4  -6  330.20    2.96
  -6  -3  -6  424.11    2.82
  -5  -7  -6    1.42    1.75
  -5  -4  -3  128.86    2.52
  -5  -1  -7 1409.48    5.04
  -5  -1  -6    0.15    2.45
  -4  -1 -10  116.91    2.90
  -4  -1  -3   23.14    1.68
  -4   0  -5   12.47    2.31
  -3  -7  -2    3.82    2.63
  -2  -8  -2   39.58    3.09
  -1  -8  -1  221.30    4.26
  -1   1  -2   37.07    2.71
  -1   2  -9  203.25    3.40
   2  -8   1    1.78    3.64
   4  -2   3  163.40    3.55
   6   1   2 1284.77    5.79
   6   2   1    2.57    2.37
   7  -5   4    3.13    2.94
   7  -3   4   20.40    2.69
   7   0   3 1554.19    6.18
   7   3   0   -2.54    2.45
   8  -6   4   38.75    4.14
   8  -2   4  143.46    3.28
   8   5  -5    5.46    3.58
   9   5  -4   43.88    3.79
  10  -7   4   47.27    4.92
  10  -1   4  436.78    4.15
  10   2   2 1764.52    6.05
  11   1   3  147.44    2.86
  11   3   1  725.24    4.47
  12   5  -3   12.23    3.03
  17   1   3   90.52    2.79
  17   3   1   17.71    2.54
  18   1   3    4.52    3.06
  18   3   1    7.19    3.35
  19   2   2    2.99    3.21
  -5  -6  -5    1.95    2.29
  -4  -5  -2  466.41    3.73
  -4  -3  -2  827.36    4.28
  -4   0  -6 1350.58    5.41
  -3   0 -10   29.23    2.34
  -3   0  -3  932.49    5.22
  -2  -7  -1    3.37    2.74
  -2  -5   0  431.88    4.24
  -1   1 -11  200.20    3.73
   0  -6   1    0.76    3.39
   1  -4   2    1.12    4.85
   2  -9   0   81.88    3.93
   3   3  -2   10.59    3.33
   4  -9   1    1.53    4.07
   4   4  -4 1026.97   10.47
   5  -1   3 4639.83   11.60
   5   4  -3  151.99    4.22
   9  -1   4  116.33    3.11
   9   2   2   16.00    2.33
  10   1   3   60.81    2.73
  10   3   1   13.40    2.74
  11   5  -3   64.38    3.27
  13   0   4   38.50    2.78
  14  -4   5    0.54    3.22
  14   4   0  751.99    4.87
  15   0   4    9.68    3.27
  15   4   0    1.87    3.05
  16   0   4  123.67    3.62
  -5  -6  -7    2.33    2.22
  -5  -6  -6    3.42    2.44
  -5  -5  -4   14.12    1.59
  -5  -4  -9    1.39    2.87
  -5  -2  -8    8.49    2.42
  -4  -6  -3   27.50    2.41
  -4  -4  -2 1122.70    4.94
  -4  -2 -10  369.29    3.65
  -4  -1  -9    2.33    2.15
  -3  -8  -4   -1.13    2.42
  -3  -5  -1  174.51    2.96
  -3  -1  -2   32.18    2.15
  -2  -3   0  407.39    4.29
   1  -7   1  142.24    4.59
   1   3  -8    7.06    2.94
   7   5  -6    0.20    4.46
   8   4  -1   20.47    2.65
   9   1   3 1817.96    6.12
  10   5  -3   18.07    3.15
  12  -4   5   17.05    3.06
  12   0   4  181.18    3.41
  12   4   0    1.13    2.94
  13  -5   5   51.38    4.21
  13  -4   5  257.41    4.58
  13  -3   5   91.28    3.57
  13   4   0   -0.81    2.14
  14  -5   5    0.43    3.46
  14   5  -2   42.08    3.18
  15  -3   5  372.05    4.30
  15   5  -2   -0.76    3.36
  16  -3   5   -1.72    3.74
  16   5  -2   90.49    4.21
  17   4   0    0.13    3.40
  18   0   4  170.47    4.21
  -5  -5  -8   -0.97    1.90
  -5  -5  -7  620.40    3.87
  -5  -5  -5  728.50    3.85
  -5  -4  -4   24.91    1.65
  -5  -3  -8    0.79    2.62
  -5  -2  -7    3.63    1.93
  -5  -2  -6    4.04    2.16
  -4  -7  -6   65.10    2.52
  -4  -7  -5    0.81    1.71
  -4  -3 -10   90.01    3.09
  -3  -4  -1 1980.51    6.89
  -3  -3  -1  352.98    3.16
  -2  -4   0  426.74    4.28
  -1   2  -5  423.92    4.71
   0  -9  -2    0.10    2.88
   3   1   1  550.62    4.81
   6  -4   4  533.59    5.77
   6  -3   4  835.49    6.23
   6   3   0 1442.14    6.36
   6   4  -2 1037.79    6.53
   8  -1   4 1030.26    5.42
   8   2   2  606.93    4.10
   9   3   1  870.46    4.45
  11  -4   5  199.09    4.07
  11  -3   5  346.91    4.69
  11   0   4   79.04    2.21
  11   4   0   -1.54    2.73
  12  -3   5    2.67    2.18
  12   5  -2  672.08    5.15
  13  -2   5  396.02    4.37
  13   5  -2   -1.58    2.94
  17  -2   5  270.55    4.47
  -5  -5  -6    1.31    1.63
  -5  -4  -7    3.19    2.36
  -5  -4  -6    2.48    2.23
  -5  -4  -5   -0.04    1.86
  -5  -3  -6    2.87    2.25
  -4  -5  -3   -0.55    2.31
  -4  -2  -9    0.60    2.49
  -4  -1  -8  209.34    2.98
  -3  -7  -3   25.05    2.08
  -3  -6  -2    0.31    2.35
  -3  -1 -10   42.90    2.86
  -2  -1  -1   54.94    2.49
  -1   1 -10    0.63    2.60
  -1   2  -7  564.14    4.39
  -1   2  -6  135.29    3.05
   1  -8   0    1.66    3.76
   1   3  -5  975.69    9.42
   3  -7   2    1.15    4.13
   4   3  -1   15.59    2.63
   5   1   2   40.00    2.42
   5   2   1    6.24    2.43
   9   5  -3  694.14    5.70
  10   0   4 2218.31    6.88
  10   4   0  956.81    5.22
  11   5  -2   -0.04    2.94
  12  -2   5   34.64    3.10
  13   2   3  913.86    4.69
  13   3   2   -0.87    2.57
  14   2   3    3.41    1.93
  14   3   2   93.39    3.05
  15   2   3   23.60    1.99
  15   3   2    1.19    2.94
  16   2   3    1.75    2.16
  16   3   2  194.12    3.77
  17   2   3  589.79    5.12
  17   3   2    0.57    3.49
  -4  -6  -7    6.77    2.53
  -4  -6  -5    2.50    2.16
  -4  -5  -9   -0.83    1.80
  -4  -4  -9    3.98    2.81
  -4  -3  -9    2.16    2.69
  -4  -1  -7   45.13    2.46
  -4  -1  -6  473.80    3.74
  -4  -1  -5   14.96    2.40
  -3  -7  -4    6.55    2.53
  -3   0  -8   -0.17    2.11
  -2  -8  -4    4.56    2.61
  -2  -7  -2  711.04    4.66
  -2  -6  -1   -0.42    2.38
  -1  -6   0    1.50    2.66
   0  -8  -1   -1.30    3.35
   0   2  -9   -0.98    2.57
   0   2  -3   -0.36    3.50
   1   3  -7  336.71    4.67
   2   3  -9    4.59    3.23
   3  -3   3   18.24    3.37
   3   2   0   -0.14    2.12
   6  -5   4  432.81    6.61
   7  -6   4    0.10    4.12
   7   4  -1 1119.15    5.78
   8   3   1   11.29    2.02
  11  -2   5  362.75    4.00
  12   2   3    1.58    1.74
  12   3   2 1229.22    5.41
  14  -1   5    3.46    2.82
  14   1   4  116.70    3.18
  15   1   4    2.67    2.90
  15   4   1   31.70    2.79
  15   5  -1  251.31    4.08
  16   4   1    3.83    2.96
  16   5  -1    3.68    3.15
  17  -1   5    6.89    3.54
  18   1   4  205.01    3.87
  -4  -5  -4  614.67    3.52
  -4  -3  -3    3.52    1.34
  -4  -2  -8  420.92    3.44
  -3  -7  -7   20.55    2.34
  -3  -2 -10   21.63    2.42
  -2  -8  -5   -0.90    2.52
  -1  -7  -1  144.08    3.29
   0  -7   0    0.35    2.68
   1   2 -10    6.83    3.11
   1   3  -6   30.89    3.23
   3  -9   0    0.40    3.48
   3   3 -10   28.99    3.62
   4   4  -8  250.59    6.28
   6  -2   4  813.68    5.40
   7  -1   4   35.44    2.73
   7   2   2   -0.34    1.64
   9   0   4   58.50    2.18
   9   4   0   -0.55    2.67
  10  -5   5    0.73    3.53
  10  -2   5   27.51    2.69
  10   5  -2   81.69    3.26
  11   2   3   52.02    1.95
  11   3   2   -1.64    2.63
  12  -1   5    3.26    2.93
  12   1   4 1027.32    5.03
  13  -1   5  121.83    2.69
  13   1   4   31.39    2.03
  13   4   1  435.73    4.01
  13   5  -1   32.30    3.27
  14   5  -1    2.55    2.31
  17   4   1  333.07    3.97
  -4  -5  -7   15.29    2.37
  -4  -5  -6  175.69    2.79
  -4  -2  -7   61.15    2.70
  -3  -7  -6    4.36    1.70
  -3  -6  -3  364.94    3.41
  -3  -5  -2    4.83    2.13
  -3  -3 -10   28.97    2.23
  -3  -2  -2   16.06    2.05
  -3   0  -6    3.01    2.20
  -3   0  -5 1713.17    5.91
   1  -9  -2   -0.37    2.79
   2  -9  -1    0.60    3.30
   3   0   2   31.65    1.90
   4  -1   3   23.78    2.45
   5   3   0    0.83    2.35
   7   1   3  204.75    3.11
   7   3   1  417.51    3.80
   9  -4   5  223.45    4.21
   9  -3   5  469.29    4.64
  10   2   3  123.84    2.71
  10   3   2  125.26    2.99
  11  -1   5  491.78    4.24
  11   1   4  201.03    3.31
  12   4   1    1.15    2.89
  12   5  -1    1.40    2.91
  16   0   5    1.83    2.98
  17   0   5  328.47    4.42
  -4  -4  -7   31.43    2.34
  -4  -4  -6  670.95    3.74
  -4  -4  -5    6.22    2.05
  -4  -4  -4  808.30    3.59
  -4  -3  -7   31.53    2.63
  -4  -2  -6 1155.23    4.48
  -3  -6  -8   -1.05    1.68
  -3  -4  -2    7.19    2.09
  -3  -1  -8    4.49    2.28
  -3  -1  -3   13.79    1.65
  -2  -7  -3    1.57    2.59
  -2  -5  -1    0.56    2.20
  -2  -1 -10  364.61    3.60
  -1  -8  -3   94.50    2.29
  -1  -1 -11  213.77    3.46
   0  -5   1   28.27    3.01
   0   1 -10   -0.34    2.69
   1   1 -11  210.09    4.04
   5   0   3  498.23    3.81
   5   4  -9    2.87    4.03
   5   4  -2    2.35    3.05
   7   5  -4    3.53    3.51
   8   0   4  186.97    2.70
   8   4   0  369.15    3.86
   9  -2   5  353.30    3.91
   9   5  -2    8.62    2.94
  11  -6   5   84.15    4.84
  11   5  -1  392.68    4.23
  13   0   5  453.03    3.92
  14   0   5    0.27    3.03
  15   0   5   19.80    2.44
  -3  -6  -7  304.79    2.67
  -3  -6  -6    3.76    2.31
  -3  -6  -5  403.11    3.21
  -3  -6  -4    3.43    1.61
  -3  -5  -8    2.83    2.34
  -3  -4  -9  392.13    3.12
  -3  -3  -9   63.98    2.65
  -3  -3  -2   10.81    1.83
  -2  -7  -4  510.36    3.75
  -2  -6  -2  108.41    2.67
  -2  -2 -10   36.35    2.70
  -1  -8  -4    0.39    2.46
  -1  -5   0    2.22    2.67
   0   0 -11   -2.21    2.72
   4   1   2 1269.24    6.01
   4   2   1    5.31    2.35
   5  -8   2   -0.25    4.69
   5  -3   4   51.52    3.49
   6   2   2 1721.65    6.33
   6   4  -1   -0.04    2.27
   9  -5   5  269.54    5.01
   9   2   3 1293.49    4.88
   9   3   2   10.93    2.53
  10  -1   5    6.45    2.73
  10   1   4  426.94    3.23
  12   0   5   40.38    2.99
  12   6  -5    4.31    3.78
  14   2   4  508.98    3.88
  14   3   3    4.87    2.74
  14   5   0  104.80    3.69
  15  -3   6    6.05    3.05
  15   2   4   10.42    2.80
  15   3   3  363.68    3.31
  15   5   0    2.03    3.25
  16   2   4   92.02    3.27
  16   3   3    0.40    2.26
  17   2   4   13.57    3.04
  17   3   3   59.55    2.66
  18   2   4  138.55    3.87
  -3  -5  -3   34.03    1.78
  -3  -4  -8    3.31    2.53
  -3  -2  -8    2.58    2.48
  -2  -7  -6  222.49    2.92
  -2  -7  -5    1.16    2.16
  -2  -3 -10  264.11    3.50
  -2  -2  -1   26.28    2.00
  -2  -1  -9    8.16    2.35
  -1  -8  -5   61.65    2.06
  -1  -7  -2   -2.82    2.47
   1  -8  -1  208.41    4.08
   5  -4   4   30.09    3.53
   6  -1   4 1254.14    5.61
   6   1   3    2.73    2.30
   8  -7   4  160.61    8.76
   8  -4   5    0.51    3.45
   8  -3   5   15.91    2.86
   9   1   4  119.83    2.80
  10   4   1    1.18    1.88
  10   5  -1    4.55    2.86
  11   0   5  415.92    3.73
  12   6  -4   48.25    4.04
  13   2   4   34.54    2.57
  13   3   3  310.59    3.03
  13   5   0    1.94    3.09
  14  -3   6   42.29    3.46
  14   4   2  389.41    4.10
  15  -2   6   -0.35    3.35
  15   4   2    2.66    3.07
  16  -2   6  171.34    4.27
  16   4   2  130.73    2.93
  17   1   5   11.68    3.02
  -3  -5  -7   66.44    1.89
  -3  -5  -6    5.61    2.25
  -3  -5  -4   25.16    2.15
  -3  -4  -3  614.78    3.75
  -3  -3  -8    7.22    1.89
  -3  -1  -6   14.83    2.29
  -3  -1  -5  525.12    3.76
  -2  -6  -8   26.51    1.98
  -2  -4  -1    6.89    2.13
  -2   0  -3  136.51    2.78
  -1  -6  -1  522.83    4.14
  -1  -1 -10    2.74    2.83
   0  -1 -11    5.40    2.78
   0   2  -7    0.18    2.14
   1  -6   1  554.39    5.89
   2  -7   1    1.03    3.23
   2   2 -10   38.84    3.06
   5  -2   4   63.37    2.85
   6   3   1   25.55    1.84
   7   4   0    0.00    2.34
   8  -2   5    2.00    2.57
   8   2   3   14.74    2.35
   8   3   2 1160.64    5.17
   8   5  -2  721.25    5.52
   9  -1   5  598.59    4.52
   9   4   1  197.12    3.20
  10  -6   5    6.46    3.97
  11   6  -5   92.19    4.62
  12   2   4  157.30    3.02
  12   3   3   19.83    2.01
  12   5   0  477.73    4.52
  13  -4   6   19.13    3.47
  13  -3   6    1.97    3.04
  13  -2   6   38.26    3.02
  13   4   2    2.30    2.74
  14   1   5    1.46    2.94
  15   1   5  505.29    3.88
  16   1   5    0.98    2.39
  -3  -5  -5  146.34    2.07
  -3  -4  -7  721.82    3.61
  -3  -3  -7  116.50    2.87
  -3  -2  -7 1067.68    4.33
  -2  -6  -7   34.64    2.20
  -2  -4  -9   36.94    2.61
  -2  -3  -9    3.22    2.70
  -2  -3  -1    4.42    1.95
  -2  -2  -9   68.31    2.55
  -1   1  -3 2651.71   11.13
   1  -7   0   -1.36    2.98
   1   0 -11  113.11    3.08
   1   1   0    0.43    1.89
   3   3  -9   58.60    3.10
   4   3 -10   72.84    3.71
   9   5  -1  546.59    4.60
  10   0   5   32.76    2.58
  11   2   4   57.76    2.62
  11   3   3  110.63    2.28
  11   5   0   -2.64    2.82
  11   6  -4   16.54    3.78
  12  -4   6   11.62    3.68
  12  -3   6  534.67    5.18
  12  -2   6   23.70    2.91
  12   4   2   47.26    2.84
  12   6  -3    1.18    3.28
  13   1   5  118.82    3.07
  14  -1   6   51.94    3.32
  15  -1   6   12.21    3.09
  15   5   1  259.43    3.82
  16   5   1   -1.31    3.21
  -3  -4  -6    0.56    1.65
  -3  -4  -5  822.45    3.79
  -3  -4  -4   26.60    1.72
  -3  -2  -6    0.89    1.85
  -2  -6  -6   75.10    2.26
  -2  -6  -5    4.19    2.15
  -2  -6  -4   20.77    2.37
  -2  -5  -8  364.06    2.75
  -2  -5  -2 1651.32    5.81
  -1  -7  -7   61.94    1.78
  -1  -7  -6   10.50    2.16
  -1  -4   0    1.40    2.40
  -1  -3 -10   -2.27    2.67
  -1  -2   0    0.95    1.94
   0  -8  -5   -2.40    2.32
   0  -4   1    1.84    2.98
   0   2  -4 3071.55   13.05
   1   1 -10    5.42    2.50
   4   0   3  266.99    3.53
   4   3   0 2074.37    8.07
   4   4  -7   27.72    4.14
   5   2   2    3.73    2.24
   7  -3   5   90.21    3.58
   8  -5   5    6.92    3.20
   8  -1   5   20.34    2.70
   8   1   4 1016.64    4.47
  10   3   3   42.65    2.71
  11  -3   6    0.77    2.54
  11   4   2    0.13    2.67
  12   1   5    1.89    2.82
  13   6  -2   -0.65    3.24
  14   5   1   -2.84    2.92
  16   3   4  128.40    3.09
  17   3   4   29.93    3.16
  -2  -5  -7    5.80    2.29
  -2  -2  -8  112.34    2.82
  -2   0  -5   52.59    2.33
  -1  -7  -5  184.30    2.19
  -1  -6  -8   18.63    1.92
  -1  -5  -9  165.08    2.41
  -1  -1  -9  465.08    3.65
   0  -2   1    0.07    3.17
   0   2  -5    0.28    2.54
   1  -8  -2    1.44    2.69
   2   1   1   57.90    2.08
   2   3  -7    5.92    2.92
   5  -1   4  138.11    2.97
   5   1   3 4506.22    9.89
   6   0   4  939.61    5.05
   6   5  -5    0.39    4.60
   7  -2   5 1673.51    6.87
   7   2   3 1376.83    5.09
   7   3   2    1.98    2.44
   8   4   1   19.58    2.71
   9   0   5  404.95    3.76
  10   2   4 1855.27    5.64
  10   5   0   18.54    2.73
  11  -4   6    8.65    3.22
  11  -2   6   10.77    2.89
  11   1   5  505.52    4.03
  11   6  -3   30.31    3.36
  12  -1   6  763.09    4.98
  12   6  -2   29.21    3.14
  14   0   6  482.86    4.31
  14   3   4   89.92    2.93
  15   0   6    0.68    2.96
  15   3   4    3.15    2.08
  16   4   3   -2.21    3.13
  17   2   5  249.62    4.08
  17   4   3  338.86    3.84
  -2  -5  -6  513.84    3.38
  -2  -5  -3    7.64    2.27
  -2  -4  -2  209.02    2.79
  -2  -3  -8  761.23    3.79
  -2  -1  -7    6.51    2.09
  -1  -6  -7  153.69    2.45
  -1  -6  -2   -2.01    2.11
  -1  -4  -9  126.83    2.66
  -1  -3   0    0.39    1.94
  -1   1  -5 1214.85    5.79
   0  -1 -10   -0.99    2.74
   1  -1 -11  201.81    3.11
   2  -8  -1   -1.77    3.10
   3  -1   3   11.51    2.31
   4  -8   1    0.58    3.50
   5   3   1 2996.31    8.53
   5   4  -1   17.01    2.52
   6   4   0  157.68    3.05
   6   5  -4  442.76    6.36
   7  -4   5 1037.88    7.11
   7   1   4   39.59    2.42
   7   5  -2   -0.99    2.70
   8   5  -1    5.64    2.69
   9  -6   5  104.98    5.25
   9   2   4   38.08    2.35
   9   3   3 1270.38    5.15
  10  -3   6    9.89    3.28
  10   4   2 1136.82    4.79
  10   6  -4  584.65    6.67
  11  -1   6    3.70    2.67
  12  -5   6  285.32    5.27
  12   5   1    2.50    2.74
  13   0   6   46.80    3.12
  13   3   4   24.09    2.74
  14   2   5    0.56    2.68
  14   4   3    2.68    2.92
  14   6  -1    1.28    3.20
  -2  -5  -5    5.77    2.14
  -2  -5  -4 1117.85    4.38
  -2  -3  -7    9.57    2.51
  -2  -2  -7  165.36    2.94
  -2  -2  -2  470.07    3.61
  -2  -1  -6 1253.51    5.17
  -1  -5  -8    3.43    2.11
  -1  -5  -1  250.53    3.03
  -1  -3  -9  333.39    3.19
  -1  -2  -9  217.54    2.62
   0  -7  -7  101.12    1.89
   0  -4 -10  252.39    2.68
   0  -3 -10    1.30    2.55
   0  -3   1  151.60    4.52
   0  -2 -10  433.03    3.59
   0   0  -9    2.33    2.55
   1  -8  -5   56.06    2.51
   1  -8  -4   -1.66    2.32
   1  -8  -3   87.99    2.17
   1   0 -10    6.77    2.65
   2   0 -11   12.37    2.41
   2   2  -9   67.45    3.03
   3  -8   0    0.10    2.75
   3   2 -10   23.95    2.84
   6   4  -9    0.54    3.89
   7  -1   5  120.24    3.01
   8   0   5    2.91    2.68
   9   5   0    0.60    2.62
  10  -2   6  624.85    4.80
  10   1   5    3.49    1.96
  10   6  -6  176.16    6.82
  10   6  -3   44.15    3.85
  11   6  -2    0.59    3.06
  12   0   6   26.86    2.62
  12   3   4  761.77    4.41
  13   2   5  381.50    3.78
  13   4   3  591.46    3.93
  15   5   2   -0.57    2.94
  16   1   6   97.54    3.58
  16   5   2   78.12    3.48
  -2  -4  -6  160.41    2.71
  -2  -4  -3   38.55    2.28
  -1  -6  -6   38.07    1.75
  -1  -6  -3  259.53    2.58
  -1  -1  -8    8.52    2.44
   0  -7  -6   -0.94    1.47
   0  -7  -5    6.43    2.07
   0  -7  -4    2.24    2.05
   0  -7  -3   -0.43    2.25
   0  -6  -8  255.89    2.55
   0  -5  -9    2.68    1.87
   1  -7  -1  132.18    3.12
   2   0   2  958.83    6.41
   2   1 -10  372.92    4.23
   2   2   0  889.41    6.55
   3   1   2   31.91    1.67
   3   2   1 4132.21   11.13
   3   3  -8    5.41    3.00
   4   4  -2 1246.89    8.24
   5   3 -10   18.21    3.28
   5   4  -8    6.92    3.70
   7   4   1 1068.99    5.33
   8   3   3   20.26    2.34
   9   4   2    3.33    1.87
  10  -4   6  417.67    5.33
  10  -1   6   19.10    2.75
  11  -5   6    0.82    3.30
  11   3   4  138.17    2.93
  12   2   5   32.53    2.73
  12   4   3    0.92    1.96
  12   6  -1    1.90    3.13
  14   5   2   43.18    3.02
  -2  -4  -4   36.82    2.19
  -2  -2  -6  271.88    3.25
  -2  -1  -5   15.25    1.62
  -1  -5  -7  174.12    2.09
  -1  -4  -8   42.36    1.73
  -1  -3  -8    4.89    2.53
  -1  -2  -8   71.81    2.70
   0  -6  -1    1.34    2.13
   0  -4  -9    0.57    2.18
   0  -1  -9    0.33    2.40
   2  -1 -11    5.04    2.43
   4  -3   4 1426.67    8.83
   4  -2   4 1488.26    7.53
   4   3  -9   -0.27    2.95
   5   0   4   85.00    2.65
   6   3   2  829.06    4.30
   8   2   4  138.53    2.19
   9  -3   6   -0.05    2.93
   9  -2   6   10.45    2.57
   9   1   5  594.08    3.61
  10   5   1    5.40    2.68
  11   0   6   18.14    2.87
  11   2   5  356.00    3.43
  13   1   6    3.06    3.05
  13   5   2    0.56    2.80
  14  -2   7    4.67    2.94
  16   3   5    2.82    2.86
  16   4   4   65.17    3.29
  -2  -3  -3   19.83    1.90
  -1  -5  -2    2.84    2.16
  -1  -4  -1 1123.40    5.41
   0  -6  -7   -1.14    1.36
   0  -5  -8    1.27    1.92
   0  -3  -9   -1.70    2.47
   0  -2  -9    1.67    2.41
   1  -7  -7   61.32    1.75
   1  -4 -10    3.88    1.79
   1  -3 -10    3.18    2.48
   1  -2 -10    6.48    2.36
   1  -1 -10    2.91    1.95
   2  -8  -5    4.00    2.27
   2  -8  -3    4.95    2.35
   2  -7   0  233.56    3.60
   4   2   2 2368.09    7.41
   6  -3   5    0.80    2.61
   6  -2   5    1.69    2.30
   6   1   4 1222.85    5.24
   7   0   5 1895.77    6.57
   7   5  -1  215.93    3.64
   8   4   2  346.37    3.67
   8   5   0 1648.30    6.64
   9  -1   6   -1.00    2.50
  10   0   6  720.31    4.54
  12   1   6  741.61    4.67
  12   5   2  722.10    4.67
  13  -3   7   29.94    3.03
  13   6   0    1.49    2.34
  14  -1   7   55.80    3.13
  14   3   5    0.18    2.58
  15  -1   7  216.20    3.43
  15   3   5  345.98    3.47
  15   4   4    1.53    2.20
  -1  -4  -7  345.68    2.57
   4   1   3   21.79    1.71
  10   4   3   84.52    2.35
 -18   0  -2  195.84    5.25
 -12   1   0 1411.72    6.45
 -12   2   0    6.60    2.64
 -11  -4  -2    0.77    3.83
 -11   7  -2   -2.81    2.92
  -9  -1   0   -1.56    3.88
  -9   4   0    0.37    2.67
  -7  -7  -6   -1.03    3.00
  -3  -6  -4    3.20    2.50
  -2  -3  -1    5.92    2.50
  -2  -1   0  452.80    8.41
  -2   6  -1   -0.41    2.70
  -1  -5  -3  850.28    4.99
   0   3   0    4.70    2.69
   0   7  -2   -0.33    2.68
   1  -6  -5  152.91    3.19
   3  -6  -6    2.48    1.97
   3  -3  -2    9.88    2.54
   5  -5  -5  769.77    4.31
   5   5  -2    1.40    2.70
   7   0  -2    1.92    2.68
   9  -3  -5  496.43    3.74
   9  -2  -4   47.50    2.68
  12  -2  -7   -1.64    2.17
  12   1  -5    1.94    2.51
 -17   4  -2    0.80    3.04
 -14   4  -1    7.58    2.80
 -11  -5  -3   60.83    3.76
 -11   0   0    0.31    2.82
 -11   3   0    0.23    2.00
  -9   6  -1   97.33    2.26
  -8   4   0  375.67    3.47
  -8   6  -1    3.52    2.51
  -7   6  -1  464.07    3.81
  -3   6  -1  874.27    5.01
  -1   7  -2    0.53    2.79
   0  -5  -3    1.83    2.81
   4  -6  -6  246.96    3.37
   5  -6  -7   -2.21    1.81
   5  -2  -2    2.06    1.80
   6  -3  -3    5.85    2.41
   7  -5  -6    5.16    2.30
   7   5  -3   55.54    3.56
   8  -5  -7    5.58    2.51
   9  -4  -6    3.65    2.28
  10  -4  -7    0.66    1.95
  10  -1  -4  440.18    3.50
  13  -2  -8    2.88    2.16
  13   1  -6    1.16    2.35
 -17  -1  -2   -1.21    3.58
 -15   5  -2    0.37    2.76
 -14  -1  -1    6.09    3.90
 -13   6  -2    0.15    2.63
 -11   1   0   -1.29    3.00
 -11   2   0    0.94    2.67
  -8   7  -2  254.07    3.66
  -6   6  -1   -1.15    1.83
  -6   8  -3    5.73    3.03
  -5   6  -1    8.04    2.11
  -4   6  -1    2.10    2.10
  -3   7  -2    3.78    2.93
  -2   7  -2  605.42    4.31
  -1  -6  -4    4.60    2.74
  -1  -3  -1  291.89    3.82
   2   8  -4    1.22    2.97
   5   7  -4   -0.54    3.33
   6  -6  -7    3.32    2.23
  12   0  -5   40.16    2.56
 -18  -2  -3    0.11    4.65
 -17   3  -2   -0.44    2.93
 -12   6  -2   28.92    2.96
 -10  -3  -1   13.14    5.48
  -9   3   0   -0.87    2.70
  -7   7  -2    0.54    2.07
  -6  -7  -5    0.96    2.62
  -6   7  -2  134.24    2.53
  -4   7  -2  154.62    2.89
  -1   3   0    0.77    1.89
   0  -7  -6    2.92    2.16
   0  -6  -4  681.44    4.48
   0   5  -1   28.27    2.90
   1  -4  -2    2.82    2.53
   2   6  -2   97.76    2.19
   2   7  -3    0.00    2.92
   4   8  -5   -1.13    2.89
   6  -5  -5   -1.52    1.70
   7   6  -4   -1.28    3.29
   8   4  -3    6.82    3.63
  10   5  -5    1.86    3.80
  11  -3  -6    1.07    2.25
  11  -2  -5  359.00    3.30
  11   2  -4   61.99    3.68
  12  -3  -7    4.08    2.21
  12  -2  -6   15.17    2.50
  14   0  -7    3.90    2.99
  14   2  -7    2.61    3.06
 -14   3  -1    5.19    2.11
 -12  -5  -3   14.61    3.30
 -11  -6  -4   15.43    3.71
 -11   6  -2    0.06    2.73
 -10   0   0 1762.02    8.58
 -10   5  -1    2.96    2.01
  -8  -7  -5    3.72    2.73
  -8   3   0 3459.38    8.59
  -4  -7  -5    0.42    2.18
  -2  -7  -5    1.78    2.47
  -2   3   0  422.75    4.16
   0   8  -4  224.00    4.46
   1   6  -2    0.58    3.01
   3  -7  -7   21.49    2.15
   5  -4  -3  156.97    2.76
   7  -6  -7  128.48    2.95
   7  -4  -4   -0.21    2.62
   8  -5  -6  492.41    3.50
   8  -2  -3   14.73    1.67
   9  -5  -7  214.04    2.78
   9  -1  -3 1917.13    6.47
  10  -4  -6  391.28    3.60
  10  -3  -5    3.06    1.76
  11  -4  -7  133.34    2.57
  11   0  -4   80.70    2.61
  13  -2  -7  283.53    3.80
  13  -1  -6    0.07    2.13
 -17   0  -2   -0.27    3.62
 -17   2  -2    2.19    2.94
 -15  -5  -4   -0.93    4.44
 -14   2  -1   18.23    2.64
 -14   6  -3   -0.59    2.94
 -12   4  -1    0.96    2.05
 -10   1   0   91.82    3.02
 -10   6  -2  544.49    4.13
  -9  -7  -5   80.69    3.33
  -9   2   0    0.47    2.72
  -9   5  -1  541.38    3.43
  -8  -1   0 5433.51   21.80
  -8   5  -1    5.99    2.61
  -7   3   0    0.31    2.52
  -5  -5  -2    2.20    2.36
  -3   3   0    1.83    2.53
  -1   5  -1  267.19    3.13
  -1   8  -4   -0.34    3.33
   2  -7  -6  192.05    3.03
   4  -6  -5    2.01    1.89
   4  -1  -1   99.10    2.93
   4   7  -4  226.19    4.14
   5  -5  -4   12.51    1.75
   6  -6  -6  153.23    2.89
   7  -1  -2   -1.34    2.18
  10  -2  -4 1962.53    6.26
  12  -1  -5    5.73    2.34
  13   3  -6    0.81    3.71
  14  -1  -7   40.00    2.56
 -19   0  -3   29.96    3.16
 -17   1  -2    0.62    2.82
 -17   4  -3  400.01    4.45
 -16   3  -2  231.37    3.66
 -15   4  -2   -1.19    2.13
 -13   3  -1   71.17    2.25
 -10   7  -3    3.70    2.13
  -9   6  -2   -2.83    2.55
  -9   7  -3  224.52    3.57
  -7  -5  -2    1.38    3.10
  -6  -6  -3    6.34    2.71
  -5   3   0    2.04    1.71
  -4  -6  -3   19.74    2.51
  -4  -5  -2  355.50    3.88
  -4   3   0 1787.56    6.63
  -3  -5  -2    1.73    2.59
  -3   5  -1  157.50    3.33
  -3   8  -4   -0.44    3.15
  -2   5  -1    2.39    2.03
  -2   8  -4    5.56    3.10
   0   6  -2 1039.98    5.58
   0   7  -3    6.31    2.95
   2  -6  -4   19.99    2.05
   3  -7  -6    4.86    2.83
   3  -5  -3   36.26    2.54
   3  -2  -1 4156.45   10.21
   4   6  -3   27.54    2.98
   5  -6  -5   -0.14    2.51
   8  -6  -7   26.05    2.40
   9  -5  -6    2.92    2.47
  10  -5  -7   -0.78    2.46
  11  -1  -4  205.70    2.87
  11   5  -6    0.19    3.75
  12   3  -5    2.98    5.25
 -18   3  -3    3.40    2.10
 -14   1  -1    6.80    2.62
 -12  -6  -4   39.84    4.00
 -10   4  -1    1.49    2.55
  -9   0   0    0.92    2.72
  -9   1   0   -2.27    2.52
  -8   6  -2  141.59    2.86
  -8   7  -3    5.84    2.76
  -6   8  -4   51.54    2.62
  -5   8  -4    2.14    2.26
  -4   8  -4   90.03    2.86
  -2  -6  -3   10.69    2.74
  -1   2   0    0.58    1.73
  -1   6  -2    3.75    2.79
  -1   7  -3  335.36    4.15
   1  -7  -5  171.97    3.49
   2   8  -5   -0.48    2.38
   3  -6  -4    4.31    2.74
   3  -4  -2    8.34    2.50
   4  -7  -6   58.90    2.68
   5  -3  -2   16.04    1.78
   6  -5  -4  439.18    3.13
   6  -4  -3   29.38    2.52
   7  -6  -6   12.44    2.55
   8  -5  -5    9.13    2.57
   8   6  -5   -0.07    3.30
  11  -4  -6    5.42    2.31
  11  -3  -5  376.10    3.51
  12  -4  -7   -0.83    2.04
  12  -3  -6  503.90    3.76
  12  -2  -5   31.03    2.20
  13  -3  -7   27.92    2.43
  13  -2  -6   36.80    2.43
 -16  -1  -2  300.51    4.89
 -16   2  -2  267.18    3.56
 -15   3  -2    3.58    2.89
 -13  -1  -1   89.62    4.02
 -12  -2  -1    2.91    4.23
 -12   3  -1    8.63    2.03
 -12   6  -3    1.74    2.80
  -8  -6  -3    0.77    3.00
  -8  -5  -2  604.81    5.27
  -7   2   0    0.85    2.44
  -7   6  -2   -1.81    1.77
  -7   7  -3   16.77    2.08
  -6   6  -2  342.45    3.57
  -6   7  -3    2.60    2.67
  -5  -7  -4    2.51    2.63
  -5   6  -2    3.56    2.81
  -4  -4  -1    1.69    3.09
  -4   6  -2  436.92    4.08
  -4   7  -3    3.97    2.89
  -3   6  -2    0.32    2.71
  -3   7  -3   21.04    3.01
  -2   6  -2   99.21    2.40
  -2   7  -3    0.40    2.12
  -1  -5  -2    2.03    1.99
   1   8  -5   56.09    3.70
   2  -7  -5   -0.46    2.76
   4  -5  -3    1.63    2.40
   5   0  -1    0.84    2.26
   5   4  -2    1.53    3.01
   6  -6  -5    0.21    2.46
   6   5  -3    4.07    2.75
   6   6  -4  264.25    4.18
   8   5  -4  443.76    5.77
   9  -2  -3 1329.23    5.22
  10  -4  -5   17.05    2.49
  10   0  -3  138.09    2.94
  14  -2  -7    1.51    2.45
  14   0  -6  490.08    4.91
  14   1  -6   48.65    3.07
  14   3  -7   23.94    3.99
 -18  -1  -3    1.33    3.68
 -18   2  -3    0.64    2.54
 -17   3  -3   68.16    3.16
 -16   4  -3    1.37    2.56
 -14   5  -3   -1.17    2.92
 -13   4  -2    4.52    2.57
 -11   5  -2    1.77    1.91
 -11   6  -3   31.35    2.82
  -9  -6  -3  316.82    4.72
  -9   4  -1  203.28    2.58
  -8   1   0 5413.70   12.52
  -7  -7  -4    1.47    2.93
  -6  -4  -1    1.51    3.26
  -6   2   0   69.12    2.77
  -5  -4  -1   14.97    2.74
  -2   2   0  817.58    5.49
  -1  -7  -4    1.86    2.49
  -1  -1   0   -0.98    1.55
   0  -6  -3    0.38    1.88
   0  -5  -2    0.29    1.93
   0   8  -5    1.42    3.09
   2  -3  -1    6.13    2.55
   2   7  -4  467.31    4.99
   3  -7  -5   59.99    2.93
   4  -6  -4  394.24    3.21
   4  -4  -2 1250.56    5.15
   5  -7  -6    2.81    2.61
   7  -5  -4    4.78    2.48
   7  -2  -2   -0.43    2.16
   8  -6  -6   66.44    2.86
   9  -4  -4   20.35    2.51
  10  -5  -6    3.33    1.88
  10  -3  -4  297.33    2.60
  11  -5  -7   92.76    2.23
  11  -2  -4   57.84    2.48
  13   1  -5  111.28    3.37
  14  -1  -6   47.83    3.11
  15   0  -7   18.41    3.06
 -18   1  -3    3.40    2.95
 -16   1  -2  305.82    3.74
 -13  -6  -4    5.08    3.98
 -13   0  -1 1080.32    6.57
 -13   1  -1  101.19    2.96
 -12   2  -1    3.47    2.61
 -10   5  -2   79.14    2.83
 -10   6  -3   42.33    2.67
 -10   7  -4   58.11    2.38
  -9  -5  -2    7.46    2.78
  -8  -7  -4  133.24    3.67
  -8   0   0  894.73    6.60
  -7  -1   0   -0.56    3.77
  -5   2   0    0.96    1.77
  -3   2   0   -1.37    1.81
  -3   8  -5   78.08    3.84
  -2  -4  -1    6.15    1.82
  -1   8  -5   44.92    2.79
   0  -7  -4    1.23    2.63
   0   4  -1   -0.91    1.84
   1  -6  -3  245.09    2.80
   1  -5  -2    4.68    2.66
   4  -7  -5    0.67    2.53
   4  -2  -1    2.23    2.42
   5  -6  -4    7.13    2.45
   5  -5  -3 1486.07    5.41
   6  -7  -6   80.58    2.83
   6  -3  -2  842.07    3.89
   7  -6  -5  457.47    3.79
   8  -1  -2 1680.50    6.44
   9   6  -6    1.29    3.11
  10  -1  -3   62.58    2.36
  12  -4  -6   11.07    2.42
  12   0  -4  187.52    3.48
  13  -3  -6    0.34    2.60
  13  -1  -5  122.36    2.76
  15   1  -7  156.51    4.51
 -18   0  -3   -2.68    2.80
 -15  -2  -2    1.92    3.73
 -15   2  -2    3.35    2.71
 -15   4  -3   14.33    2.66
 -13   6  -4    1.13    2.69
 -10  -6  -3   34.87    3.51
 -10   3  -1   13.88    2.75
  -9  -7  -4   17.52    3.50
  -9   5  -2    3.72    2.56
  -9   7  -4   16.88    2.17
  -8   7  -4  152.03    3.37
  -7   1   0   -0.42    2.37
  -3  -8  -5   83.74    3.19
  -1  -4  -1 1067.04    5.23
  -1   4  -1 1130.69    5.56
   1  -7  -4   -0.02    2.73
   1   7  -4   -1.30    2.78
   2  -5  -2 1706.37    6.07
   4   7  -5    1.41    3.20
   5   6  -4   10.75    3.30
   6   7  -6   71.54    4.15
   9  -6  -6    3.43    2.55
   9  -3  -3 1261.47    4.88
  11  -5  -6   -2.07    2.25
  11  -4  -5  218.53    3.20
  12  -3  -5    0.01    1.72
  12  -1  -4  968.53    4.88
  14  -2  -6  375.35    3.92
 -17   2  -3  666.04    5.05
 -16   3  -3    0.29    2.90
 -15   5  -4   -2.38    2.39
  -9   6  -3  339.86    3.09
  -8   5  -2  656.20    4.04
  -8   6  -3    0.26    2.48
  -7   0   0    1.70    3.15
  -7   7  -4   -0.76    2.77
  -6   1   0 2846.73    9.75
  -2  -8  -5    0.25    2.12
   0  -4  -1    0.40    2.51
   0   7  -4    3.24    2.71
   1   5  -2    2.10    2.49
   1   6  -3  279.10    3.74
   2  -7  -4  427.83    4.23
   3  -6  -3  361.09    3.72
   3  -3  -1  383.22    3.55
   5  -7  -5  295.77    3.73
   5  -4  -2    3.17    1.68
   6  -6  -4  241.03    3.20
   6  -5  -3    4.25    2.51
   7   6  -5  442.86    5.54
   8  -6  -5    1.38    2.59
   8  -4  -3    8.50    2.50
  10  -5  -5    4.58    2.54
  10  -4  -4 1270.12    5.25
  10  -2  -3  123.87    2.66
  11  -3  -4  122.14    2.69
  13  -2  -5  369.89    3.58
 -17  -2  -3  636.05    7.96
 -15   1  -2   -0.62    2.68
 -14   4  -3   -1.09    2.60
 -13   3  -2    0.82    2.60
 -12   1  -1   12.90    2.42
 -12   5  -3   14.20    2.06
 -11   2  -1  649.73    4.35
 -11   4  -2    1.63    2.54
 -10  -7  -4   49.91    3.14
 -10  -5  -2   80.36    3.95
  -9   3  -1  923.87    4.72
  -8  -4  -1   18.10    3.73
  -7   6  -3  433.03    3.63
  -6   7  -4  131.60    2.64
  -5   7  -4    1.50    2.47
  -3  -2   0    0.47    3.02
  -3   7  -4    4.63    2.97
   0  -8  -5    0.13    2.10
   0   6  -3    1.23    2.83
   1  -8  -5   43.52    2.94
   1  -4  -1 1148.52    5.55
   3  -5  -2    5.90    2.53
   4   2  -1    4.48    3.45
   4   4  -2 1263.42    6.94
   6  -7  -5   -2.20    2.33
   7  -3  -2    0.57    2.24
   8  -2  -2  643.69    4.11
  10  -6  -6  169.67    3.37
  12  -2  -4  150.39    2.60
  13  -4  -6   15.82    2.39
  13   2  -5  360.21    5.98
 -18   2  -4  129.67    3.43
 -17   1  -3   94.82    3.20
 -16   4  -4   62.02    2.41
 -14   2  -2  704.56    4.48
 -12  -1  -1   12.82    3.69
 -11  -6  -3   29.36    3.54
 -11   5  -3   69.62    2.85
 -11   6  -4   15.63    2.07
  -9   7  -5  104.84    3.37
  -8   3  -1    9.56    2.58
  -6   6  -3   11.22    2.34
  -5  -6  -2    1.41    2.49
  -5   1   0    0.39    1.57
  -4  -7  -3    1.11    2.79
  -4  -6  -2  395.96    3.95
  -4   1   0 3733.97   12.18
  -3  -7  -3   23.23    2.93
  -3  -6  -2    1.82    2.78
  -2   6  -3    9.46    2.81
  -1   5  -2    2.65    2.77
   2  -8  -5    1.45    2.80
   4  -7  -4  225.54    3.31
   4  -6  -3   24.24    2.00
   4  -3  -1   16.18    2.19
   4   6  -4  420.13    4.52
   5  -2  -1    8.29    1.75
   5   7  -6    2.34    3.29
   6  -4  -2 1105.57    4.99
   7  -6  -4   -3.54    2.53
   7   4  -3  998.86    7.63
   9  -6  -5  110.04    3.02
   9  -5  -4   43.62    2.10
   9   5  -5  260.09    5.07
  12  -5  -6  239.99    3.34
  12  -4  -5   20.49    2.58
  12   4  -6    8.32    5.00
  13  -3  -5   94.37    2.76
 -17   3  -4   28.83    2.34
 -16   2  -3    3.63    2.59
 -15  -1  -2    0.79    2.68
 -15   3  -3  425.29    3.91
 -12   0  -1    2.60    2.55
 -12   3  -2 1482.57    5.59
 -10   2  -1    2.75    2.50
 -10   4  -2 1184.61    4.60
 -10   6  -4  528.40    4.14
  -8   7  -5   -0.63    2.83
  -6  -7  -3    2.17    2.73
  -6  -6  -2  326.09    4.06
  -6   0   0   29.06    3.08
  -5  -2   0   -0.36    4.13
  -4   5  -2  360.92    3.06
  -3   1   0   -0.48    1.62
  -3   5  -2    2.25    1.91
  -1  -6  -2    1.86    1.90
   0  -7  -3    2.38    2.66
   2  -4  -1    6.75    2.58
   2   7  -5    2.66    2.75
   3  -8  -5  115.69    3.47
   4  -5  -2  490.36    3.29
   4   5  -3    0.69    2.49
   5  -6  -3   35.12    2.56
   7  -7  -5   16.98    2.57
   7   5  -4    2.66    2.67
   8   6  -6   69.21    4.00
   9   4  -4   19.86    3.86
  10  -3  -3   41.15    2.39
  11  -5  -5  177.17    2.74
  11  -4  -4   26.18    2.21
  11  -1  -3  147.88    2.73
  11   0  -3   51.63    2.59
  14  -1  -5    1.58    2.26
  14   0  -5   -2.16    2.65
  15   0  -6    1.91    2.37
 -17  -1  -3   89.61    3.53
 -16  -3  -3    0.60    4.73
 -15   4  -4    4.75    2.40
 -12   6  -5    1.51    2.68
 -11   1  -1 1179.81    5.64
  -9   4  -2    5.09    2.46
  -9   6  -4    6.49    2.48
  -7  -6  -2    0.16    3.18
  -7   3  -1  389.13    3.04
  -7   7  -5   16.57    2.28
  -6  -1   0 2829.44   19.69
  -6   7  -5    2.29    2.83
  -5  -8  -4   -0.95    2.85
  -4  -8  -4   83.09    3.56
  -3  -8  -4   -0.26    2.97
  -2  -8  -4    1.75    2.92
  -1  -8  -4    1.12    2.81
  -1  -2   0   -0.41    2.44
   1  -7  -3  310.75    3.63
   1   7  -5  178.19    3.70
   3   4  -2    4.87    2.99
   4   7  -6   59.79    3.59
   6  -1  -1  106.90    2.89
   6   6  -5    1.74    3.02
   8  -3  -2 1180.71    4.90
   9  -1  -2    9.91    2.27
  10  -6  -5    5.81    2.44
  10  -5  -4  159.99    3.23
  11  -2  -3   52.84    2.38
  12  -3  -4  757.62    4.26
  14  -2  -5    0.09    2.19
  15  -2  -6    3.35    2.33
 -18   1  -4  199.28    3.80
 -16   3  -4  142.89    3.34
 -14   1  -2  151.25    3.10
 -14   3  -3    6.32    2.49
 -14   5  -5   -1.06    2.84
 -13   2  -2    3.95    2.47
 -12   4  -3   -1.14    2.44
 -12   5  -4  459.91    3.96
  -9   2  -1  325.55    3.55
  -9   5  -3  654.83    3.85
  -8  -7  -3    0.62    3.30
  -8   6  -4   38.98    2.72
  -6  -8  -4   47.71    3.31
  -4  -5  -1    0.65    2.37
  -4   7  -5   -1.84    2.85
  -2  -5  -1    2.94    2.53
  -2   7  -5    0.80    2.89
   1  -8  -4   -2.41    2.71
   2  -6  -2  102.58    2.89
   3  -4  -1 2064.88    6.44
   5  -5  -2    2.43    1.71
   5  -3  -1 2982.61    7.65
   6  -6  -3    6.70    2.44
   6  -2  -1    4.42    2.29
   7  -4  -2    0.45    1.56
   8  -7  -5    1.67    2.49
   8  -5  -3   11.59    1.84
   9  -2  -2   13.79    2.41
  12  -5  -5   -0.02    2.33
  13  -4  -5  256.74    3.30
  13  -1  -4   29.70    2.47
  14  -4  -6  212.64    3.07
 -17   2  -4   20.07    2.48
 -16   1  -3    5.07    2.42
 -15   2  -3   21.66    2.77
 -14   4  -4  318.43    3.69
 -11  -5  -2    0.81    4.01
 -11   3  -2    0.98    1.76
  -9  -4  -1  200.87    5.11
  -8  -6  -2  126.75    3.96
  -8   5  -3    7.62    2.43
  -7   6  -4    2.80    2.63
  -5   0   0    0.53    2.27
   0  -5  -1   25.34    2.72
   2  -8  -4    1.60    2.85
   3  -7  -3   22.66    2.84
   3  -6  -2    2.49    2.75
   6  -5  -2  451.34    3.49
   9  -6  -4    3.85    2.56
  10  -4  -3   79.70    2.49
  10   5  -6    4.66    3.13
  12  -4  -4   99.98    2.35
  13  -2  -4   30.12    2.35
  14  -3  -5    0.71    2.31
  14   1  -5   -1.12    2.57
 -18  -2  -4  117.70    4.43
 -18   0  -4  167.67    3.86
 -13   5  -5   49.57    3.00
 -12  -6  -3    0.40    3.35
 -11   0  -1  735.63    5.21
 -11   4  -3   49.86    2.77
 -11   5  -4   57.65    2.63
 -10   1  -1   26.18    2.47
 -10   6  -5    5.42    2.04
  -9  -7  -3  216.84    4.66
  -8   2  -1   69.06    2.65
  -7   5  -3   54.34    2.47
  -7   7  -6   -2.99    2.73
  -6  -5  -1    6.72    2.63
  -4   3  -1   14.07    1.64
  -2   3  -1    4.82    2.43
  -1   3  -1  259.01    3.20
   1  -5  -1  240.56    3.37
   1  -1   0    0.12    1.39
   1   6  -4    1.98    2.42
   2   7  -6  188.67    4.67
   3  -8  -4   -1.26    2.90
   4  -7  -3    3.81    2.80
   4  -4  -1    0.84    1.53
   5   6  -5   -0.58    2.79
   6   5  -4  435.07    4.73
   7  -7  -4   -0.23    1.96
   7  -6  -3  477.76    3.29
   8  -4  -2  342.29    3.20
   9  -7  -5   92.84    2.59
   9  -3  -2    8.15    2.44
  11  -6  -5   82.17    2.46
  11  -5  -4   66.02    2.89
  11   5  -7   77.80    4.63
  13  -3  -4   18.77    2.41
 -18  -1  -4  179.92    4.08
 -16   0  -3    1.01    2.87
 -15   3  -4    0.81    2.63
 -14  -5  -3    0.98    6.48
 -14  -2  -2  706.43    7.15
 -13   1  -2   -0.90    2.32
 -13   3  -3  341.14    3.45
 -13   4  -4   21.98    2.73
 -12   2  -2   76.09    2.09
 -11  -2  -1  646.29    8.27
 -10   3  -2  130.68    2.27
 -10   5  -4  162.26    3.10
  -9   6  -5  106.82    2.88
  -6   5  -3    3.36    2.40
  -6   7  -6   64.78    2.65
  -5   7  -6    2.93    3.04
  -3  -3   0    0.43    2.52
  -3   6  -4    2.55    2.55
  -1  -3   0    0.82    2.27
  -1   6  -4    1.56    2.93
   1  -2   0   -0.74    2.28
   1   4  -2    0.93    2.41
   1   7  -6   13.06    3.09
   4  -8  -4  108.69    2.81
   4  -6  -2  533.24    3.52
   5  -7  -3  531.22    4.23
   6  -3  -1   27.52    2.40
   6   4  -3   25.38    3.28
   7  -5  -2    0.31    2.38
   8  -7  -4  150.45    3.08
   8   5  -5    8.06    3.24
  10  -6  -4  548.37    4.33
  12  -2  -3    1.41    2.03
  12  -1  -3   21.62    2.30
  12   2  -4  160.57    5.66
  13  -5  -5   50.05    2.79
  14  -4  -5   -0.02    2.43
  15  -2  -5   14.54    2.24
  16  -2  -6  126.29    3.26
  16  -1  -6   74.89    3.02
 -17   1  -4   40.19    2.59
 -16  -2  -3    0.81    3.56
 -16   2  -4  109.56    3.06
 -14  -1  -2  143.72    3.37
 -14   2  -3    2.55    2.50
 -12   5  -5    0.38    2.90
 -11  -1  -1 1164.07    7.52
 -10   4  -3   88.33    2.85
  -9  -6  -2    0.91    2.83
  -8   6  -5    0.05    2.66
  -7   2  -1 1573.11    6.09
  -4  -8  -3    5.12    2.47
  -4  -3   0 1719.62    9.35
  -4   0   0 5391.11   19.77
  -4   7  -6   46.54    2.43
  -3  -7  -2    1.06    2.75
  -3   7  -6    4.03    2.52
  -2  -8  -3    0.94    3.12
  -1  -7  -2    0.90    2.65
   0  -8  -3    0.97    2.78
   0  -7  -2    0.60    2.75
   0   5  -3    3.35    2.78
   3  -5  -1  164.64    3.11
   3   7  -7   20.51    3.52
   4   6  -5    4.21    2.78
   5  -8  -4    5.15    2.80
   5  -6  -2    3.97    2.53
   5  -4  -1   16.97    1.57
   7  -2  -1 1776.31    6.51
   8  -6  -3   -0.60    1.90
   8   6  -7   23.48    3.66
  10  -5  -3   22.90    2.70
  10  -2  -2 1837.89    6.34
  10  -1  -2  220.26    3.16
  11  -4  -3   46.11    2.46
  12  -6  -5    7.83    2.72
  12  -5  -4  392.42    3.84
  13  -4  -4   19.67    2.16
  13   1  -4   31.16    2.96
  16   0  -6  144.85    3.72
 -17   2  -5  264.56    3.88
 -16  -1  -3    3.34    2.78
 -16   3  -5    0.77    2.00
 -15   1  -3  523.79    3.98
 -14   4  -5    0.36    2.65
 -12   3  -3   21.25    2.52
 -12   4  -4  111.04    3.00
 -11   2  -2   -0.02    2.50
 -10  -7  -3    7.18    3.68
 -10   6  -6  155.57    2.99
  -9   1  -1 1170.92    5.67
  -9   3  -2    8.98    1.80
  -5  -8  -3    3.37    2.79
  -5  -7  -2   -1.49    2.47
  -3   4  -2    8.89    2.04
  -2   4  -2  171.42    3.00
  -2   5  -3    5.64    2.59
  -1   4  -2    0.67    2.45
   1  -7  -2   -0.76    2.68
   1  -3   0    2.56    2.41
   2   7  -7    6.29    3.48
   3   2  -1 4010.22   16.46
   5   3  -2   15.40    3.33
   5   5  -4   13.13    2.88
   6  -8  -4   69.66    3.18
   6  -7  -3    0.56    1.85
   6   6  -6  165.49    4.15
   9  -7  -4   14.13    2.72
   9  -4  -2    4.55    1.63
  10  -3  -2  130.09    2.85
  11  -6  -4   13.93    2.55
  12  -3  -3   21.23    2.23
  12   0  -3    0.24    2.41
  14  -2  -4  489.90    3.81
  14  -1  -4  112.12    2.77
 -14   3  -4   96.00    2.25
 -11   5  -5  175.95    3.08
 -10   0  -1    5.89    2.39
  -9   4  -3  782.30    3.88
  -8   3  -2 1120.55    4.89
  -8   5  -4  411.15    3.51
  -6  -8  -3    4.82    2.99
  -6  -7  -2  137.81    3.39
  -6   2  -1    2.74    2.26
  -6   6  -5   -2.26    2.43
  -5  -3   0   -0.69    3.19
  -3   0   0    2.09    2.54
  -2  -6  -1    0.11    2.74
   0  -6  -1    1.14    2.73
   1   7  -7   49.65    4.08
   2  -7  -2  516.28    3.70
   2  -1   0  397.21    4.69
   2   6  -5    4.45    3.04
   3  -8  -3  107.86    3.31
   3  -7  -2    2.60    2.54
   4  -5  -1    4.14    1.88
   6  -6  -2  402.86    3.18
   6  -4  -1   -1.11    1.63
   7  -7  -3   18.63    2.62
   7  -3  -1  422.95    3.19
   8  -5  -2  735.50    3.92
   9  -6  -3  365.71    3.26
   9   1  -2   12.89    2.98
  14  -5  -5    0.76    2.39
  14  -3  -4   85.71    2.67
  15  -4  -5   10.61    2.33
 -16   1  -4  175.10    3.37
 -15   2  -4    6.02    2.71
 -15   3  -5  360.57    4.00
 -13   0  -2    4.98    2.52
 -13   2  -3 1016.57    4.83
 -13   4  -5  260.44    3.58
 -12   1  -2 1863.30    6.53
 -12   5  -6  245.66    4.01
 -11   3  -3  113.74    2.83
 -11   4  -4   30.74    2.66
 -10  -6  -2  519.36    5.98
 -10   5  -5    0.19    2.59
  -8  -5  -1    3.66    3.45
  -8   6  -6   64.94    3.03
  -7  -8  -3  118.82    3.92
  -5   6  -5    0.89    2.08
  -4  -6  -1    1.55    2.51
  -2   7  -7   -2.35    2.29
   1  -6  -1  430.84    3.88
   2  -3   0  412.23    3.95
   3  -2   0   -0.75    2.20
   4  -7  -2  180.57    3.25
   4   5  -4  636.19    5.43
   5  -5  -1 1445.07    5.61
   5   4  -3  143.99    3.80
   5   6  -6    0.75    3.05
   7  -6  -2    0.15    2.48
   7   6  -7  127.55    4.39
   8  -2  -1   69.85    2.52
   8   4  -4   92.91    4.20
   9   5  -6   -2.04    3.47
  10  -7  -4   41.95    3.05
  10  -4  -2 1088.61    4.66
  11  -5  -3   61.64    2.05
  12  -4  -3    3.33    2.23
  13  -5  -4    4.85    2.26
  14   0  -4  567.88    5.22
 -17  -3  -4   19.83    3.78
 -17  -1  -4   36.41    3.34
 -15   0  -3   23.89    2.68
 -14   1  -3    4.78    2.45
 -14   4  -6  209.22    3.76
 -10   2  -2 1832.24    6.26
  -8   1  -1   12.32    2.34
  -7  -7  -2    0.27    2.99
  -7   6  -6   11.15    2.96
  -5  -6  -1    8.65    2.65
  -5   2  -1    6.64    2.36
  -3  -4   0    0.09    2.51
  -2   6  -5    2.69    2.46
  -1  -4   0    0.53    1.80
   0  -4   0 8270.30   14.06
   0   6  -5    2.64    2.18
   2  -6  -1   -0.04    1.89
   3  -6  -1  816.40    4.60
   3  -3   0   -0.11    2.27
   5  -8  -3    2.17    2.96
   7  -4  -1 1077.33    4.43
   7   5  -5   48.71    3.15
   8  -7  -3    5.22    1.90
   8  -3  -1   10.88    2.56
   8  -1  -1   14.91    2.46
   8   3  -3   20.23    4.09
  10  -6  -3   41.68    2.23
  10   4  -5   13.85    3.71
  11  -2  -2    0.58    2.28
  13  -3  -3  301.34    3.24
  13  -2  -3  922.26    4.81
  13  -1  -3  432.49    4.05
  16  -3  -5    3.55    2.14
  16  -2  -5    2.22    2.30
 -17  -2  -4   19.27    3.43
 -17   1  -5   10.52    2.65
 -16   2  -5    0.32    2.01
 -13  -6  -3  227.51    7.52
 -12   4  -5   20.81    2.76
 -11  -7  -3   23.23    3.86
 -11   5  -6    0.17    2.51
 -10   4  -4 1186.13    5.04
  -9   5  -5  265.48    3.24
  -8  -8  -3    0.08    3.02
  -6  -6  -1   -1.64    2.88
  -5  -1   0   -0.22    4.17
  -4   2  -1    3.71    2.21
   1  -4   0   -0.11    1.79
   2  -4   0  359.72    3.56
   2   2  -1   24.73    2.56
   3  -1   0    0.79    2.28
   4  -6  -1   -2.31    2.59
   6  -8  -3    1.64    2.84
   6  -5  -1    4.69    1.58
   8  -6  -2  159.79    3.00
   9  -7  -3  230.40    3.40
  10   5  -7    0.81    3.59
  11  -3  -2   -0.25    1.70
  11  -1  -2    1.59    2.10
  15  -2  -4    7.38    2.23
  15   2  -6    0.71    4.06
  16  -1  -5   -1.24    2.23
  16   1  -6   59.90    3.57
 -15  -1  -3  514.55    5.00
 -14   2  -4  559.83    4.03
 -14   3  -5    0.97    2.26
 -13  -1  -2    0.34    2.54
 -12  -5  -2  734.68   11.36
 -12   2  -3   -0.02    2.36
 -11   1  -2    0.68    2.28
 -10  -1  -1   24.71    3.05
 -10   3  -3   36.03    1.89
  -8  -7  -2  264.42    4.35
  -8   5  -5    4.53    2.50
  -8   6  -7   24.12    2.23
  -5   6  -6    3.74    2.90
  -3  -8  -2   -1.91    2.76
  -2  -8  -2   27.79    2.98
  -1  -8  -2   -1.42    3.16
   1  -8  -2    4.35    2.59
   3   6  -6    5.57    2.97
   4  -3   0 1840.41    6.64
   4  -2   0 4168.79   10.72
   4   3  -2  863.62    6.50
   4   4  -3   56.56    2.72
   6  -7  -2  152.52    2.60
   6   6  -7    1.29    3.16
   7  -8  -3  147.50    3.21
  11  -6  -3   30.35    2.21
  11  -4  -2   -0.81    2.30
  12   3  -5    2.50    5.36
  13  -6  -4    6.97    2.73
  13  -4  -3  506.86    3.34
  14  -5  -4   37.91    2.55
  15  -3  -4    0.65    1.65
  15   1  -5  389.55    5.77
 -16   0  -4  117.55    3.09
 -15   1  -4    1.51    2.35
 -15   3  -6    6.97    1.95
 -13   4  -6   16.02    2.17
 -12   0  -2   78.56    2.60
 -12   3  -4  748.56    3.88
 -11   4  -5  214.67    3.30
 -11   5  -7  105.52    3.35
 -10  -4  -1   -0.74    4.65
 -10   5  -6    7.53    1.97
  -9   0  -1  402.28    4.15
  -9   2  -2   12.28    1.76
  -9   4  -4   18.88    2.34
  -7  -6  -1  479.91    4.99
  -7   1  -1  750.64    4.86
  -7   6  -7  140.66    2.98
  -6  -3   0 1404.20   10.54
  -5  -4   0    0.18    3.14
  -4  -8  -2  145.04    3.48
  -2  -7  -1    4.69    2.35
  -1  -5   0   -1.05    2.38
  -1   5  -4   -0.51    2.45
   0  -5   0    2.40    2.46
   0   5  -4    1.29    2.63
   3  -8  -2    2.84    2.82
   3  -4   0    0.77    1.64
   5  -6  -1    8.56    1.90
   5   6  -7    1.25    3.29
   6   5  -5   -0.09    2.94
   7  -7  -2    1.65    2.60
   9  -6  -2    2.48    1.94
   9  -3  -1  928.50    4.74
   9  -2  -1  332.06    3.54
  10  -7  -3    8.32    2.64
  15  -4  -4    4.20    2.37
 -17   0  -5  281.32    4.04
 -16   2  -6  157.97    3.36
 -15  -3  -3  367.38    6.20
 -15  -2  -3   20.04    3.08
 -14   0  -3    0.17    2.45
 -13  -3  -2    1.85    3.94
 -13  -2  -2    5.15    3.13
 -13   1  -3  452.05    3.63
 -13   3  -5   92.14    2.95
  -9  -5  -1  527.33    6.07
  -9   3  -3 1203.70    4.52
  -9   5  -6    2.15    2.57
  -7   5  -5   41.43    1.89
  -6   6  -7    0.60    2.27
  -5  -8  -2    3.33    2.90
  -3  -7  -1   50.94    2.70
  -3  -5   0   -1.71    2.25
   1  -5   0    2.78    2.53
   4  -8  -2  161.25    3.55
   4  -4   0 1752.17    6.09
   4  -1   0 4165.63   12.53
   5  -3   0   -0.58    2.30
   5  -2   0    2.24    2.45
   6  -6  -1    3.33    2.47
   8  -5  -1    5.16    2.25
   8   5  -6  495.78    5.72
   9  -4  -1  192.77    2.84
  11  -5  -2   -0.49    2.29
  12  -6  -3   -1.15    2.81
  12  -3  -2 1309.03    5.41
  12  -2  -2   70.44    2.54
  12   1  -3   21.74    3.44
  14  -3  -3    3.32    2.30
  14  -2  -3    2.22    2.26
  16   0  -5    0.80    2.25
 -16   1  -5   -0.59    1.79
 -13   2  -4   33.08    2.52
 -12   4  -6   12.64    2.12
 -11  -6  -2   -0.06    3.72
 -11   2  -3   54.19    2.51
 -11   3  -4  129.45    2.83
 -10   5  -7    1.15    2.73
  -9  -7  -2   -0.88    2.94
  -8   2  -2  573.10    3.87
  -8   4  -4   80.51    2.08
  -6  -8  -2   82.28    3.52
  -6   5  -5   -0.91    1.78
  -4  -7  -1    1.06    2.65
   3  -7  -1   49.32    2.11
   3  -5   0    2.65    2.48
   4  -7  -1   -0.85    2.42
   5  -8  -2    2.06    2.92
   5  -4   0    1.95    2.24
   5   5  -5  732.64    5.63
   7  -6  -1  485.33    3.70
   7   4  -4    1.62    2.68
   8  -7  -2  241.27    2.86
   9  -1  -1 1232.24    6.06
  10  -6  -2  509.08    3.74
  11  -7  -3   27.65    2.90
  11   0  -2    0.29    2.41
  11   4  -6    5.35    3.63
  12  -4  -2   48.55    2.57
  14  -4  -3    1.16    2.38
  14  -1  -3    1.88    2.70
  14   2  -5   -0.12    5.04
  15  -5  -4   -1.34    1.67
 -16  -1  -4  171.19    3.49
 -10   1  -2  202.34    2.93
  -8   3  -3   19.47    2.25
  -6   1  -1   82.94    2.54
  -5  -7  -1  472.08    4.39
  -4  -5   0  615.93    4.52
  -3   3  -2    8.13    1.56
   0   4  -3    0.24    2.37
   4  -5   0  626.87    3.98
   4   5  -5    4.38    2.73
   5  -7  -1  521.38    4.04
   6  -3   0 1404.80    5.60
   9  -7  -2    4.90    2.71
   9  -5  -1  500.61    3.65
   9   5  -7  178.77    5.03
  10  -3  -1   12.77    2.54
  10  -2  -1    4.73    2.35
  12  -1  -2 1773.73    6.85
  14  -5  -3    2.58    1.96
  14   1  -4  108.16    4.00
  15   0  -4    9.82    2.63
  17  -1  -5    8.01    2.44
 -17  -1  -5    7.26    2.67
 -15   0  -4   11.80    2.37
 -15   2  -6    4.07    2.59
 -14   1  -4  119.90    2.64
 -14   2  -5    2.23    2.23
 -12   1  -3   23.17    2.17
 -12   3  -5    5.80    2.17
 -12   4  -7    1.32    2.77
 -11   4  -6    7.00    1.89
 -10  -2  -1    1.80    3.05
 -10   3  -4  286.16    3.21
  -9   4  -5  212.60    3.02
  -9   5  -7  201.04    2.98
  -8  -6  -1    5.52    2.51
  -8   0  -1  125.48    3.32
  -7  -8  -2    2.22    2.86
  -7   5  -6    1.17    2.33
  -4   5  -5    2.10    1.93
  -4   6  -8   76.26    3.40
  -1  -9  -2   -1.52    2.64
  -1  -6   0    2.75    2.47
   0  -9  -2    1.49    2.95
   0   6  -7   -0.79    2.25
   1  -9  -2    0.01    2.52
   1  -6   0    2.97    2.70
   5  -1   0    0.69    2.14
   6  -7  -1    2.04    2.46
   6  -4   0  148.42    2.70
   6  -2   0   70.59    2.67
   7   5  -6    0.27    3.08
   8  -6  -1    5.81    2.15
   9   4  -5  214.37    4.55
  10  -4  -1    1.58    1.61
  10   3  -4  297.44    6.62
  11  -6  -2    1.80    1.76
  12   4  -7    0.31    3.18
  13  -3  -2    0.64    2.10
  15  -3  -3  305.10    3.50
  16  -1  -4  149.22    3.43
 -16  -4  -4   46.54    4.08
 -16  -2  -4   92.22    3.23
 -16   0  -5   -1.99    2.40
 -16   1  -6   74.10    2.97
 -15   1  -5  485.38    3.86
 -14  -1  -3    3.35    2.35
 -13   3  -6    2.42    2.23
 -12  -1  -2 1755.24    7.39
 -12   2  -4  166.16    2.99
 -11   0  -2   -1.12    2.09
 -10   2  -3  117.26    2.61
  -8   5  -7    1.46    2.71
  -7   2  -2    0.83    1.52
  -6  -7  -1   -1.27    2.68
  -5  -5   0    0.86    2.45
  -3   6  -8    1.92    2.52
  -2  -6   0  129.01    2.80
  -2   5  -5    3.88    2.42
   0  -8  -1   -1.52    2.85
   2  -6   0  129.99    2.33
   2   5  -5    1.58    2.71
   2   6  -8   20.80    3.76
   3  -6   0   -0.65    2.49
   3   6  -8    4.40    3.29
   6   1  -1   98.98    5.87
   6   4  -4  485.85    5.04
   7  -3   0   -0.53    2.34
   8  -8  -2   36.04    2.83
  10  -7  -2   26.50    2.13
  10  -5  -1    5.49    2.42
  13  -4  -2    1.80    1.64
  13  -2  -2    3.75    2.23
  14  -6  -3   -0.31    1.95
  15  -4  -3   10.41    2.41
 -17  -2  -5  216.10    4.31
 -16  -3  -4  107.72    4.09
 -14  -5  -3    0.70    5.83
 -11   3  -5  331.30    3.25
 -11   4  -7  145.74    3.24
 -10  -7  -2   26.69    3.65
 -10   4  -6  378.43    3.16
  -9   1  -2   11.01    2.19
  -9   3  -4   82.40    2.55
  -8  -8  -2   30.83    3.41
  -8   4  -5   -2.10    2.19
  -5   1  -1 3930.70   10.56
  -5   5  -6    1.89    2.65
  -3  -6   0    0.79    2.33
  -2  -8  -1    0.84    2.55
   4  -8  -1   -0.41    2.54
   4  -6   0  707.67    4.42
   6   5  -6  220.47    4.08
   7  -7  -1   69.44    2.30
   7  -4   0    0.79    1.70
   7  -2   0   -1.01    2.25
   7   3  -3  111.18    3.84
   8   5  -7    1.41    3.09
  10  -1  -1   24.23    2.36
  11  -7  -2    3.18    2.45
  11  -4  -1  358.07    3.35
  11  -3  -1  739.09    3.87
  12  -6  -2   23.25    1.90
  13  -5  -2   -1.37    2.27
 -14   2  -6  394.93    3.86
 -13   1  -4   29.11    2.29
 -13   2  -5  373.55    2.97
 -12   3  -6  524.51    4.06
  -9  -1  -1 1084.11    6.96
  -9   4  -6    4.64    2.50
  -8   5  -8  128.31    2.98
  -7  -7  -1   76.09    3.13
  -6  -5   0  615.57    5.33
  -6   2  -2 1579.46    5.74
  -4  -8  -1    0.10    2.41
  -4  -6   0  648.33    4.63
   5  -8  -1    5.63    2.75
   5  -6   0    0.30    2.47
   5   4  -4   26.83    3.04
   5   5  -6    0.50    2.84
   7  -5   0    2.52    2.23
   8  -7  -1   -0.85    2.54
   8  -4   0  353.51    3.23
   8  -3   0 3477.44    8.21
   9  -8  -2    3.55    1.92
  10  -6  -1   -2.92    2.27
  11  -5  -1  371.04    3.40
  11  -2  -1  587.15    4.12
  13  -1  -2    0.66    2.11
  14  -4  -2  341.51    3.38
  14  -3  -2   85.39    2.58
  14   0  -3    2.07    2.48
 -15  -1  -4    0.91    2.56
 -14  -2  -3    0.77    2.82
 -14   0  -4  564.18    4.15
 -11   1  -3  140.00    2.74
 -11   4  -8    0.14    2.45
 -10   4  -7   -3.61    2.58
  -9  -6  -1   94.54    3.58
  -9   2  -3 1176.56    4.50
  -7   5  -8    2.80    2.74
  -6   5  -7   37.16    2.14
  -3   5  -6    4.72    2.58
   0  -7   0    3.80    2.53
   1  -7   0   -0.21    2.75
   6  -8  -1   -3.33    2.80
   6  -6   0  118.11    2.72
   6  -1   0 3079.97    9.50
   7   5  -7   31.85    3.39
   8   4  -5   -2.60    3.22
   9  -7  -1  179.25    3.21
   9   0  -1  423.77    4.87
  10   4  -6  398.01    5.65
  12  -7  -2  212.91    3.79
  12   0  -2   71.43    3.30
  14  -5  -2   38.64    2.19
  16  -4  -3    1.53    2.28
  16  -3  -3    1.40    2.18
  17   0  -5  194.55    4.48
 -16  -1  -5    1.29    2.35
 -16   0  -6  160.45    3.23
 -15   0  -5   18.01    2.27
 -15   1  -6    9.54    2.28
 -14   1  -5    0.69    1.81
 -10  -5  -1    4.09    3.91
 -10   0  -2 1993.23    7.05
  -8   3  -4  746.63    3.56
  -8   4  -6  153.60    2.91
  -7  -4   0   -1.57    3.08
  -7   0  -1 1783.40    7.85
  -6   4  -5    3.13    2.30
  -6   5  -8  136.69    3.33
  -5  -8  -1    3.25    2.69
  -5  -6   0    1.40    2.52
  -5   2  -2    3.55    2.06
   3  -7   0    2.90    1.81
   3   5  -6    4.21    2.76
   4  -7   0  210.82    3.38
   7  -8  -1  151.93    3.41
   7  -6   0   -2.48    2.31
   8  -5   0 1504.04    4.96
   8   5  -8  145.10    4.42
   9  -4   0    1.89    2.38
  11  -6  -1  151.33    3.03
  12  -5  -1    0.80    2.12
  12  -3  -1    6.59    1.67
  13   3  -6   -0.20    4.39
  16  -2  -3    0.67    2.20
 -14   2  -7    2.50    1.90
 -13  -1  -3  446.46    4.47
 -13   2  -6   33.72    2.49
 -12  -2  -2   66.92    3.21
 -12   0  -3    1.21    2.09
 -12   2  -5   29.25    1.89
 -11   3  -6    0.66    1.89
 -10   4  -8  251.78    3.21
  -9  -8  -2    0.35    2.78
  -9   4  -7   90.47    2.75
  -8  -7  -1    4.22    3.02
  -8   1  -2 1458.13    5.64
  -8   2  -3   15.77    2.30
  -7  -3   0    0.44    4.12
  -4   1  -1   71.02    2.00
  -4   5  -7   12.14    2.09
  -3  -7   0   -0.20    2.43
  -1   4  -4    0.30    2.37
   0   5  -6    1.56    1.90
   2  -9  -1   -1.23    2.80
   3  -9  -1    9.96    2.81
   5  -7   0   -1.27    1.84
   6   5  -7   35.04    3.12
   8  -8  -1    1.70    2.81
   8  -6   0  159.77    2.78
   9  -5   0    0.37    2.38
   9  -3   0   -0.84    1.75
  10  -7  -1    1.32    1.95
  11  -1  -1 1094.61    5.49
  11   4  -7  142.93    4.88
  12  -2  -1    1.62    2.28
  14  -6  -2  122.76    2.94
  14   3  -7   24.32    4.55
  15  -4  -2    2.40    2.17
  16   1  -5   -0.54    3.09
  17  -1  -4   28.82    2.47
 -15  -2  -4    7.51    2.80
 -15   1  -7  180.63    3.39
 -14  -3  -3    3.40    3.12
 -12   1  -4  988.73    4.48
 -12   3  -8  202.72    3.63
 -11  -1  -2    2.54    2.19
 -10  -3  -1   11.23    4.62
 -10   2  -4 1789.69    5.19
  -9   3  -5  452.62    3.41
  -9   4  -8    1.04    2.60
  -7   4  -6   23.81    2.21
  -6  -8  -1   -1.94    2.78
  -6  -6   0  122.04    3.56
  -5   4  -5    1.67    1.61
  -4  -7   0  204.43    3.35
  -2  -9  -1    2.57    2.71
  -2   5  -7    3.56    2.63
   0  -4   1    0.91    2.25
   1   4  -4    1.66    1.65
   2  -4   1    4.84    1.76
   2  -3   1    5.89    2.34
   3  -4   1 1745.78    6.16
   5   5  -7  490.31    5.25
   6  -7   0  218.97    2.89
   6   3  -3    3.75    2.89
   7  -1   0    1.31    2.26
   7   5  -8    0.42    3.34
   9  -8  -1   20.21    2.82
  10  -4   0  961.57    4.53
  11  -7  -1  116.75    2.72
  12  -6  -1    1.19    2.32
  13  -4  -1  427.15    3.62
  13  -3  -1   60.35    2.30
  15  -5  -2   -1.26    2.28
  15  -3  -2   -0.49    2.32
  17  -4  -3  238.49    3.64
 -16  -2  -5   -0.03    2.33
 -13   1  -5  118.19    2.74
 -13   2  -7  271.22    3.43
 -11  -7  -2    0.39    3.57
 -11   2  -5  332.90    3.29
 -11   3  -7  193.64    3.05
 -10   1  -3   57.68    1.76
 -10   3  -6    9.14    2.29
  -8   4  -7   56.89    2.04
  -6   4  -6  296.40    3.18
  -3  -9  -1    9.74    2.80
  -1  -8   0    2.16    2.52
  -1  -4   1  995.74    5.19
   1  -8   0    0.43    2.77
   2  -5   1    2.57    1.87
   3  -8   0   -0.62    2.68
   3  -5   1  153.75    3.01
   3  -3   1  335.98    3.49
   3   0   0    0.23    2.32
   4  -5   1    4.30    2.27
   4  -4   1    1.59    1.65
   7  -7   0    2.96    1.87
   7   4  -5  973.46    6.42
   9  -6   0    2.62    1.71
   9  -2   0   -1.00    1.73
  10  -5   0   16.28    2.47
  10  -3   0   45.33    2.68
  13   1  -3  458.47    6.21
  15  -2  -2    0.98    1.98
  18  -2  -4   87.19    3.05
 -16  -1  -6   78.64    2.94
 -15   0  -6    2.52    2.28
 -14  -4  -3    0.62    3.41
 -14  -1  -4  120.31    2.76
 -14   0  -5   -3.23    2.22
 -13   0  -4   36.88    2.17
 -12   2  -6   19.72    2.21
 -11   3  -8   -2.47    2.66
  -8   3  -5   14.32    2.32
  -8   4  -8   46.02    2.76
  -7  -8  -1  159.17    3.74
  -7   1  -2   -1.10    2.12
  -7   2  -3 1250.68    4.92
  -7   4  -7  304.07    3.41
  -5  -7   0    0.32    2.49
  -4   5  -9    1.05    2.17
  -3   1  -1  437.36    4.21
  -2  -8   0   48.73    2.76
  -2  -4   1    5.80    2.29
  -1  -3   1  256.63    3.41
   2  -6   1    1.58    2.36
   2   5  -7    3.56    2.23
   4  -3   1   12.62    1.70
   5  -8   0   -1.94    2.81
   5  -5   1 1317.40    5.10
   5  -4   1   15.95    1.63
   9   4  -6    3.49    2.83
  10  -6   0  401.89    3.70
  11  -4   0    1.83    2.22
  13  -6  -1  172.12    3.18
  13  -2  -1  717.81    4.40
  16  -4  -2  116.62    2.94
  16  -1  -3    2.75    2.30
 -16  -3  -5    0.39    2.60
 -15  -3  -4    0.21    2.85
 -15  -1  -5  459.03    3.97
 -13   2  -8   -0.40    2.53
 -12  -6  -2   26.44    5.62
 -11   1  -4  197.21    2.74
 -10   3  -7    0.29    2.55
  -9   0  -2   21.43    2.17
  -9   2  -4   38.53    1.74
  -9   3  -6   -0.06    2.42
  -5   4  -6    6.29    2.31
  -3  -8   0   -0.29    2.44
  -3   2  -2   15.09    2.03
  -2  -5   1   -0.07    2.26
  -1   5  -8    3.01    1.87
   0  -6   1    0.27    2.36
   1   5  -8    4.29    2.86
   3   5  -8    3.13    3.29
   4  -6   1    1.31    2.59
   5  -6   1    8.47    2.43
   5  -3   1 2628.35    7.10
   5   3  -3 2514.00    9.85
   6  -8   0   41.09    2.36
   6  -5   1    3.58    2.19
   6  -4   1    0.98    1.58
   6   4  -5   -0.49    2.80
   9  -7   0    1.89    2.22
   9   3  -4   88.24    3.92
  10  -2   0 1495.07    5.91
  10   0  -1    4.76    2.38
  10   4  -7    3.09    3.52
  11  -5   0    0.75    1.77
  11  -3   0   -2.41    2.47
  12  -1  -1   11.48    2.23
  14  -5  -1    0.48    2.20
  14  -4  -1    7.58    1.63
  14  -3  -1    3.07    2.08
  15   0  -3   23.38    2.84
  15   1  -4    0.58    3.06
  16  -5  -2   57.36    2.22
  16  -3  -2  148.46    2.91
 -14   1  -7   46.50    2.14
 -13   1  -6   -1.37    2.32
 -12  -3  -2 1346.86    8.90
 -12   1  -5    4.68    2.24
 -12   2  -7    0.26    2.44
 -11   0  -3   51.38    2.18
 -10   2  -5   25.49    2.45
  -9  -7  -1  207.63    4.64
  -9   1  -3 1745.84    5.75
  -8  -1  -1   13.82    2.31
  -7  -6   0    0.90    2.91
  -7   4  -8   19.37    2.08
  -6   0  -1   14.47    2.10
  -6   4  -7    6.92    1.82
  -3  -5   1  154.02    2.89
  -3  -4   1 1815.13    7.28
  -2  -6   1   -0.05    2.32
  -2  -3   1    4.20    2.18
   0   5  -9    1.34    2.76
   2  -2   1   23.34    2.16
   3  -2   1 3404.24    9.47
   4   3  -3    3.01    2.42
   4   5  -9    0.23    3.28
   5   4  -5    3.03    2.72
   6  -6   1   -0.33    2.35
   6  -3   1   23.65    1.73
   7  -5   1  197.22    2.87
   7  -4   1 1067.05    4.81
   8   4  -6  172.94    4.43
  10  -7   0    0.51    2.40
  11  -6   0    3.86    2.43
  11   3  -5  358.74    6.67
  14  -6  -1    0.28    2.30
  18  -3  -3    1.94    2.01
 -15  -5  -4   -1.19    3.45
 -15  -4  -4    2.98    2.93
 -15   0  -7   18.20    2.29
 -13  -2  -3  945.91    5.50
 -12  -1  -3   21.10    2.30
 -11   2  -6   15.03    1.72
 -10  -6  -1   -0.54    3.55
 -10   3  -8    4.18    1.83
  -9   3  -7  445.66    3.76
  -8  -8  -1   -0.12    3.08
  -8   2  -4  139.42    2.62
  -8   3  -6 1007.46    4.47
  -7   4  -9  216.48    3.20
  -6  -7   0  237.71    3.87
  -6   2  -3   52.87    1.70
  -5   4  -7    4.37    2.48
  -4  -8   0  193.75    3.88
  -2   1  -1   45.59    2.28
   0  -9   0    1.85    2.76
   0  -7   1    1.83    2.45
   0   4  -5   -0.07    1.73
   1  -9   0    2.76    2.72
   2  -7   1    0.03    1.95
   3  -9   0    0.32    2.12
   3  -7   1   46.75    2.78
   4  -7   1    2.57    2.64
   4  -2   1    3.27    2.28
   5  -7   1  459.65    3.81
   7  -6   1  442.82    3.64
   7  -3   1  407.65    3.46
   8  -4   1   19.57    2.40
  11   1  -2    2.08    3.18
  12  -5   0  465.29    3.43
  12  -4   0    1.00    1.80
  15  -5  -1  207.67    3.30
  15  -4  -1   30.33    2.67
  17  -4  -2    1.91    2.14
 -16  -2  -6  133.23    3.12
 -15  -1  -6    8.24    2.57
 -14   0  -6  478.37    3.82
 -13   0  -5  435.55    3.64
 -12   0  -4  176.09    2.68
 -12   2  -8    4.16    1.84
  -9  -2  -1  299.94    5.07
  -6   4  -9   -2.34    2.65
  -5  -8   0    0.48    3.10
  -3  -6   1  814.36    4.76
  -1  -9   0    2.09    2.80
   0  -2   1    0.92    1.65
   5  -2   1    5.24    2.38
   5   0   0    0.70    2.17
   6  -7   1    1.90    2.45
   8  -6   1    4.70    2.27
   9  -1   0   -0.59    2.24
   9   4  -7  105.21    4.30
  11  -7   0   -0.92    1.78
  11  -2   0    0.40    2.35
  12  -6   0    0.90    1.75
  14  -2  -1   18.96    2.31
  15  -3  -1  448.31    3.99
  15  -1  -2    1.52    2.25
  17  -3  -2   -2.07    2.04
 -15  -2  -5   13.57    2.51
 -14  -2  -4  513.06    4.35
 -14  -1  -5    0.10    2.15
 -13  -1  -4   30.18    2.39
 -13   1  -7   37.87    2.01
 -11  -2  -2    0.72    2.78
 -11   2  -7  230.06    2.74
 -10  -1  -2  201.11    3.13
 -10   1  -4  417.81    3.30
 -10   2  -6  606.44    3.86
  -9   2  -5  338.23    2.93
  -9   3  -8   -0.96    1.89
  -8  -5   0 1702.70    9.64
  -7   3  -6    1.20    2.31
  -5   2  -3  312.20    2.93
  -5   4  -9    1.98    2.63
  -4  -5   1    3.62    2.23
  -4  -4   1    1.48    2.35
  -4   4  -7   29.60    2.07
  -3  -3   1  340.64    4.09
  -2  -7   1    0.14    2.44
  -1   2  -2    3.61    2.01
   6  -2   1    2.51    2.29
   7  -7   1   61.64    2.71
   7   4  -6   26.92    3.13
   8  -3   1   12.88    1.81
   9  -6   1   85.45    2.72
   9  -5   1  497.86    3.36
   9  -4   1  198.86    2.49
  10   4  -8  246.58    5.14
  13  -5   0    1.90    1.76
  13  -1  -1   86.13    2.77
  18  -2  -3   -0.38    2.28
 -14   0  -7    3.56    2.45
 -13   1  -8   -0.09    2.46
 -12   1  -6  692.73    3.70
 -11   1  -5  493.13    3.49
 -10   0  -3  130.17    2.54
  -8   0  -2  791.03    4.58
  -8   1  -3   28.52    2.05
  -7  -7   0    0.75    2.57
  -4  -6   1    2.40    2.49
  -4   4  -8  240.91    3.31
  -3  -9   0   -2.60    2.68
  -3  -7   1   52.48    2.56
  -3   4  -7  567.55    3.62
  -1  -2   1 2201.11    9.04
   0  -8   1    0.26    2.80
   2  -8   1   -1.16    1.88
   4  -8   1    0.17    2.09
   5  -8   1    2.32    2.87
   6  -8   1    2.51    2.58
   6   4  -6  329.30    4.42
   8  -7   1    1.13    1.71
   8   3  -4  851.82    6.92
   8   4  -7   65.42    4.35
   9  -3   1  941.76    4.66
  10  -5   1    4.72    2.42
  10  -4   1    3.42    2.39
  10  -1   0   88.71    3.08
  11   0  -1  758.97    5.48
  13  -3   0   -3.04    2.30
  16  -5  -1   -2.57    2.36
  16  -4  -1    1.07    2.47
 -15  -1  -7  174.35    3.32
 -10   2  -7    0.95    2.61
  -8  -6   0  180.96    3.90
  -8  -4   0  383.94    6.57
  -8   3  -9    2.96    2.60
  -8   3  -8  289.00    3.00
  -7   3  -7   50.33    2.54
  -6  -8   0   49.68    3.05
  -6   3  -6  411.05    3.30
  -4  -9   0   44.72    3.18
  -4   4  -9    3.72    2.07
  -3   4  -8    0.32    2.77
  -2   3  -4 1975.98    5.87
  -2   4  -7   73.63    2.63
  -1  -8   1  147.25    3.38
   3   4  -6    0.71    2.54
   5   4  -6    5.20    2.86
   7  -8   1  124.12    3.50
   7  -2   1 1687.87    5.92
   9   4  -8   -2.05    3.16
  10  -6   1   -1.97    1.84
  12  -2   0    5.61    2.32
  12   3  -6  562.84    7.24
  13   3  -7   27.96    3.98
  14  -6   0  283.64    3.89
  14  -5   0   90.02    2.30
  14  -4   0  756.09    4.53
  14   0  -2  750.68    6.05
  15  -2  -1   45.61    2.58
  16  -3  -1    4.10    2.10
  16   0  -3    1.53    2.53
  17  -2  -2   -0.72    2.35
 -15  -3  -5  332.67    4.45
 -13  -3  -3  323.57    4.30
 -13   0  -6   42.17    2.39
 -12   0  -5   38.86    2.28
 -12   1  -7    6.72    1.75
 -11   0  -4   71.57    2.27
 -10  -7  -1    1.29    3.43
  -9  -8  -1   26.73    3.71
  -9   1  -4  115.43    2.69
  -8   2  -5    1.76    1.67
  -7   3  -8    1.99    2.32
  -5  -5   1 1466.07    6.71
  -5   0  -1    2.03    1.89
  -4  -7   1    1.92    2.33
  -4   2  -3  143.96    2.47
  -2  -8   1    1.98    2.45
  -1   3  -4    3.74    2.27
   7   4  -7  346.03    4.69
   8  -8   1    3.85    2.04
  10  -7   1   -2.94    2.46
  10  -3   1    8.99    2.64
  11  -6   1  151.51    3.11
  11  -5   1  388.77    3.20
  18  -3  -2   80.14    3.02
 -15  -2  -6    0.25    2.19
 -14  -3  -4   93.44    3.14
 -14  -1  -6   46.42    2.45
 -12   1  -8  296.83    3.38
 -11  -1  -3  143.38    2.58
 -11   1  -6    4.69    2.17
 -10   1  -5    8.34    2.28
 -10   2  -9   21.99    2.61
 -10   2  -8  460.94    3.51
  -7   1  -3  201.55    2.82
  -6   3  -7   80.71    2.50
  -5  -6   1   11.78    2.58
  -3  -8   1  240.67    3.74
   0   3  -4    2.95    2.21
   1  -5   2    2.90    2.53
   2  -9   1    0.60    2.00
   2  -6   2   91.46    2.77
   2  -5   2 1513.75    5.68
   3  -9   1    8.90    2.18
   3  -6   2   -0.67    2.45
   3  -5   2    2.12    1.87
   3  -4   2    8.02    2.12
   4  -6   2  504.99    4.18
   4  -5   2  414.20    3.22
   4  -4   2 1023.22    4.74
   5  -6   2   -0.35    2.70
   5  -5   2   -1.36    2.40
   6  -5   2  405.43    3.38
   6   4  -7    7.39    2.95
   7   0   0    0.33    2.78
   7   3  -4   16.55    2.92
   8   4  -8   52.23    3.56
  10   3  -5    3.76    3.13
  11  -7   1  119.15    3.05
  12  -6   1    1.11    2.23
  12  -5   1    2.10    2.57
  13  -2   0    1.21    2.13
  14  -3   0  167.77    3.04
  14  -1  -1    5.49    2.48
  14   1  -3    3.10    3.97
  15  -6   0    0.35    2.38
  15  -5   0   -1.99    2.35
  17  -4  -1  231.78    3.81
 -14  -2  -5   -1.23    2.28
 -13  -1  -5  121.38    2.62
 -13   0  -7  365.18    3.60
 -12  -2  -3    0.73    2.26
 -12  -1  -4 1021.11    4.83
  -9   2  -7  161.03    2.30
  -8  -7   0  556.24    5.74
  -8   2  -6  264.38    3.16
  -7  -8   0   -1.09    3.23
  -7   2  -5 1639.99    5.13
  -6   3  -8  271.05    3.23
  -5  -4   1   15.03    2.43
  -4  -3   1   14.57    2.45
  -3   2  -3  867.70    4.41
  -2  -2   1   26.87    2.26
  -1  -9   1   33.64    2.71
  -1   4 -10    0.78    1.97
   0  -9   1    1.51    2.19
   0  -6   2  849.11    4.66
   0  -5   2    2.60    2.36
   0   4  -9   -1.60    2.55
   1  -6   2    1.35    1.77
   1  -4   2    0.60    2.20
   1   3  -4    2.64    2.25
   2  -7   2  497.75    4.07
   2  -4   2  197.69    2.46
   3  -7   2    2.28    2.59
   4  -7   2  159.29    3.15
   5  -7   2    3.70    2.42
   5  -4   2    1.93    1.67
   6  -6   2  364.37    3.11
   6  -4   2  958.43    4.55
   6   3  -4  749.47    6.09
   7  -6   2   -2.01    2.34
   7  -5   2   -1.87    2.42
   7   4  -8   25.71    3.38
  11  -1   0   -0.23    2.20
  12  -7   1    0.11    2.29
  12  -4   1   -0.16    2.48
  12   0  -1    2.89    2.92
  14   2  -5    0.43    5.47
  15  -4   0   -0.65    1.86
  18  -1  -3    1.95    2.82
 -15  -4  -5    9.13    2.62
 -14  -1  -7   53.98    2.75
 -13  -2  -4   36.83    2.39
 -13   0  -8    4.14    2.43
 -11   1  -7  270.50    2.84
  -9  -1  -2   12.68    2.65
  -9   0  -3 1656.61    5.68
  -9   2  -8    3.82    2.30
  -7  -1  -1  803.24    6.07
  -6   3  -9    2.66    1.77
  -5  -7   1  568.09    4.88
  -5   3  -7 1051.61    4.58
  -4  -8   1   -0.39    2.51
  -4   3  -6  342.65    3.13
  -2  -9   1   -1.79    2.43
  -2   3  -5    3.69    2.43
  -1  -5   2    4.95    2.22
   1  -7   2   -0.98    2.56
   1   4 -10    2.30    2.43
   3   4  -8    1.33    2.81
   5   3  -4   45.70    3.15
   5   4  -8    3.23    3.05
   6  -7   2  141.56    2.60
   7  -7   2    1.59    2.63
   7   4  -9  229.86    4.59
   8  -6   2  126.34    2.74
   8  -5   2  677.85    4.23
  10   2  -3  130.73    6.82
  13  -6   1  170.94    3.48
  13  -5   1   35.08    2.71
  15  -3   0   -3.78    2.31
  16  -5   0   59.29    2.82
  16  -2  -1    5.16    2.30
  17  -3  -1   13.28    2.45
 -15  -3  -6    5.85    2.50
 -11   1  -9  152.84    3.02
 -11   1  -8   -1.39    1.84
 -10   0  -4 2241.78    6.38
 -10   1  -6   19.99    2.31
  -9   1  -5  603.77    3.68
  -8   1  -4 1039.49    4.47
  -8   2  -7  116.40    2.68
  -7   0  -2   -0.11    2.06
  -6  -6   1    1.90    2.88
  -5   3  -9  326.91    3.54
  -5   3  -8   -1.49    2.37
  -4   1  -2 1192.77    5.50
  -1  -6   2    0.27    1.85
   0  -7   2    1.26    1.85
   0  -4   2 1922.68    6.13
   2  -8   2   26.15    2.48
   3  -8   2   -0.20    2.61
   3  -3   2   10.50    2.25
   3  -1   1  454.64    4.21
   4  -8   2  142.32    3.53
   4  -3   2  803.08    4.35
   4  -1   1   76.48    2.57
   4   4  -9    1.35    2.69
   5  -8   2   -0.19    2.96
   5  -3   2   14.05    2.26
   5  -1   1 4317.86   11.10
   5   4  -9    1.83    3.05
   8  -7   2  218.92    3.61
   9  -6   2    0.16    2.50
   9  -5   2    3.56    2.52
  10  -2   1    2.10    2.47
  11   3  -6   -1.27    3.17
  12  -3   1    5.08    2.40
  12   3  -7    8.12    3.67
  13  -4   1  446.39    4.00
  14  -2   0 1340.86    5.87
  15   2  -6    2.21    4.96
  16  -4   0  112.36    3.22
 -14  -4  -4  320.76    4.69
 -14  -2  -6  407.11    4.13
 -13  -4  -3  602.53    6.21
 -13  -1  -6    2.42    2.30
 -12   0  -7    2.07    2.37
  -8   2  -9   -0.45    2.46
  -8   2  -8   89.36    2.74
  -6  -5   1    5.49    2.58
  -6   1  -3    2.31    2.03
  -4   3  -7   34.31    1.96
  -3  -9   1   11.00    2.83
  -3   3  -6   12.57    1.76
  -2  -6   2  102.08    2.73
  -2  -5   2 1675.36    6.29
  -2   2  -3   99.19    2.42
  -1  -7   2    0.60    2.56
  -1  -4   2    0.57    2.19
  -1   3  -5  812.25    4.01
   1  -8   2   -1.16    2.68
   2  -3   2 3863.41    8.64
   2  -1   1   45.09    2.42
   6  -8   2   76.59    2.52
   6  -3   2  865.84    4.52
   6  -1   1   95.88    2.74
   8   1  -1   15.44    4.05
   9  -7   2    4.15    1.96
   9  -4   2    3.41    2.50
  10  -5   2   73.52    2.87
  12  -1   0 1327.08    6.01
  14  -6   1    4.81    2.00
  14  -5   1    1.97    2.47
  15  -1  -1  731.59    5.22
  15   0  -2    0.02    2.85
  17  -1  -2    1.44    2.40
 -12   0  -8   -1.06    2.34
 -10   1  -8    3.74    2.50
 -10   1  -7    0.57    1.67
  -8  -8   0   54.43    3.67
  -6  -7   1    0.80    2.63
  -5  -8   1    2.45    2.73
  -4   3  -9   -1.44    2.36
  -4   3  -8  155.32    2.38
  -3   3  -7  112.09    2.80
  -2  -7   2  601.23    4.47
  -2   3  -6  915.45    4.40
   1  -3   2   15.31    2.28
   7  -3   2   -0.74    1.68
   8  -8   2   27.09    2.21
   9  -8   2    2.58    2.60
  10  -7   2   24.08    2.10
  10  -4   2 1211.67    5.29
  11  -6   2    4.44    2.56
  11  -5   2    3.41    2.48
  11  -2   1  672.72    4.41
  13  -3   1   69.77    2.67
  14  -4   1    5.90    2.43
  16  -3   0  140.23    3.09
  16   1  -4  183.45    8.02
  17  -2  -1  406.30    4.40
  18  -3  -1    3.61    2.38
 -14  -3  -5    1.50    2.31
 -14  -2  -7    0.08    2.33
 -13  -1  -7   45.34    2.41
 -12  -5  -2  735.95   10.29
 -12  -1  -5    2.63    2.02
 -11  -3  -2    0.10    2.83
 -11   0  -6   19.60    2.34
 -10  -2  -2 1822.45    7.55
 -10   1  -9   12.21    1.83
  -9  -6   0   -0.57    3.38
  -9   1  -6    1.39    2.40
  -7   1  -4   39.12    2.41
  -7   2  -9  448.87    3.70
  -7   2  -8   38.19    2.50
  -7   2  -7  533.37    3.12
  -4   0  -1    1.08    1.95
  -3  -6   2    1.00    2.33
  -3   3  -9   60.25    2.73
  -3   3  -8    4.49    2.55
  -1  -8   2    3.32    2.64
   8  -3   2 1211.04    4.69
   8  -1   1   12.72    2.23
   8   3  -5   18.82    3.06
   9   0   0    0.63    3.04
  11  -7   2    1.12    1.97
  12  -6   2   25.65    2.48
  15  -5   1  196.52    3.07
  15  -2   0   -0.08    2.44
  17  -4   0    1.42    1.88
  19  -2  -2   -0.13    2.59
 -14  -5  -4   39.14    2.99
 -13  -3  -4   24.62    2.76
 -13  -2  -5  381.65    3.40
 -13  -1  -8    3.75    1.78
  -9   1  -7  683.96    3.86
  -8   0  -3   26.48    1.60
  -8   1  -5   22.09    1.76
  -6  -4   1    0.24    2.96
  -3  -7   2    0.32    2.50
  -3  -5   2    3.31    2.31
  -3   1  -2   30.99    2.14
  -2  -8   2   26.14    2.65
  -2  -4   2  238.03    3.15
  -2   3  -9    6.26    2.63
  -2   3  -7    7.43    1.96
   0  -9   2    0.09    2.60
   0  -3   2    0.30    1.65
   1  -9   2   -1.45    2.04
   1  -1   1  129.24    2.61
   2   3  -5    3.72    2.38
   7   3  -5   85.95    3.37
   9  -3   2   13.23    1.82
  11  -4   2   -0.32    1.78
  12  -5   2  672.42    4.53
  12  -2   1    5.27    2.47
  13  -1   0    1.51    2.36
  14  -3   1    3.15    2.54
  15  -4   1   27.15    2.63
 -12  -3  -3   20.40    2.58
 -12  -2  -4  171.80    2.97
 -12  -1  -6  742.91    4.33
 -11  -2  -3   57.48    2.47
 -11   0  -9   89.75    2.64
 -11   0  -8    5.26    2.21
 -11   0  -7  280.36    2.61
  -9  -7   0    0.12    3.00
  -9  -5   0   -0.17    3.78
  -9   0  -4   62.84    2.27
  -9   1  -9  257.25    3.29
  -9   1  -8    0.46    2.47
  -6  -8   1    2.76    2.67
  -6   0  -2 2330.50    7.54
  -6   2  -9   -1.16    2.26
  -6   2  -8  435.89    3.41
  -6   2  -7   18.18    1.73
  -5   1  -3 4765.13    9.24
  -1  -9   2    0.61    2.49
  -1   3 -10   -0.11    2.79
  -1   3  -7  335.07    3.38
   0   2  -3    0.18    2.22
   0   3  -6    4.55    2.34
   4  -7   3    4.35    2.53
   4  -6   3   21.25    2.77
   5  -6   3   40.75    2.89
   5  -5   3 1271.15    5.23
   6  -6   3   10.31    2.64
   6   3  -5    3.94    2.65
   9   3  -6    1.15    3.60
  11   3  -8   -0.93    3.14
  12  -4   2   53.83    2.70
  13  -6   2   -2.15    2.59
  13  -5   2   -1.54    2.70
  16  -5   1    3.97    1.90
  17  -3   0   -2.32    2.32
 -14  -3  -6   39.01    2.53
 -13  -5  -3  156.09    4.27
 -13  -2  -6   34.72    2.50
  -8   1  -6 1568.61    5.10
  -5  -3   1 3272.86   12.50
  -5   2 -10   28.28    2.49
  -4  -7   2  182.74    3.69
  -4  -6   2  596.54    4.47
  -3  -8   2    0.12    2.67
  -1  -3   2   16.75    2.32
  -1   3  -8    9.77    1.82
   2  -7   3    3.01    2.56
   2  -6   3   11.52    2.58
   2  -5   3    5.46    2.40
   3  -7   3   20.18    2.05
   3  -5   3   34.81    2.50
   4  -5   3    3.49    1.85
   4  -2   2 2090.29    6.63
   5  -2   2    3.53    2.21
   6  -7   3    2.34    2.04
   6  -2   2 1818.04    6.24
   7  -5   3   52.43    2.67
   8  -7   3    4.21    2.71
   8  -6   3    3.91    2.63
  10   3  -7    1.99    3.16
  11  -3   2    0.54    2.46
  13  -2   1  804.05    4.71
  14  -6   2  120.99    3.52
  15  -3   1  485.19    4.33
  16  -4   1    3.54    2.59
 -14  -4  -5    2.21    2.30
 -14  -3  -7   28.54    2.60
 -13  -2  -7  298.33    3.56
 -12  -1  -8  333.33    3.43
 -12  -1  -7   10.49    1.80
  -8  -1  -2 1689.62    6.69
  -8   1 -10  205.06    2.77
  -8   1  -9    7.77    2.43
  -8   1  -7    4.69    2.46
  -7  -5   1  219.67    4.05
  -6   1  -4 1284.71    4.59
  -5   2  -8    8.83    2.21
  -5   2  -7    5.16    2.17
  -4  -5   2  490.67    3.97
  -3  -4   2    7.08    2.23
   0   3  -9    0.37    1.89
   0   3  -8    1.20    2.30
   1  -7   3  341.30    3.69
   1  -6   3  262.96    2.83
   1  -5   3  871.18    4.54
   2  -8   3    4.66    2.50
   3  -8   3   86.70    3.07
   3  -2   2   17.82    1.60
   4  -8   3    8.71    2.02
   5  -8   3    8.06    2.14
   6  -8   3    2.96    2.18
   7  -8   3  120.25    3.58
   7  -2   2   -0.33    1.69
   8  -8   3   -3.64    2.47
   8  -2   2  665.16    4.12
   9  -5   3  612.04    4.15
  10  -1   1   26.50    2.46
  10   3  -8    2.42    3.15
  13  -4   2    0.48    1.87
  14  -5   2   43.13    2.94
  14  -1   0  207.48    3.45
  16   0  -2  258.00    4.56
 -13  -6  -3  225.97    6.16
 -13  -2  -8    0.86    2.37
 -10   0  -8  605.38    3.87
 -10   0  -7    2.16    2.08
  -9  -8   0    0.41    3.40
  -8   1  -8  423.63    2.94
  -4  -8   2  176.02    3.67
  -4   2 -10  295.52    3.49
   0  -1   1  257.61    3.86
   1  -8   3   70.83    3.24
   1   3  -8    5.27    2.36
   2  -2   2  530.56    3.86
   2   3  -9    3.62    2.56
   2   3  -7    5.22    2.48
   3  -4   3  676.40    3.92
   3   3  -6    7.35    1.76
   4  -4   3   53.72    1.92
   7  -4   3  961.28    4.24
   7   3  -6    2.89    3.06
   8  -4   3    4.38    2.44
   9  -2   2   11.76    2.41
   9   3  -9  204.13    4.32
   9   3  -8    2.19    3.15
  10  -7   3    5.95    1.94
  10  -5   3   18.88    2.63
  11  -7   3   24.21    2.64
  12  -3   2 1491.74    5.86
  14  -4   2  376.72    3.80
  17  -4   1  243.91    3.82
  18  -3   0  157.77    3.53
 -12  -6  -2   24.83    5.03
 -12  -2  -5   35.89    2.38
 -10  -4  -1    0.24    4.31
  -7  -8   1  141.66    4.07
  -7   0  -3 1646.37    5.50
  -7   1 -10    2.89    1.76
  -7   1  -6    1.50    2.14
  -6  -1  -1  102.54    3.37
  -5  -7   2    4.09    3.00
  -5  -6   2    2.20    3.01
  -4   1  -3   23.92    2.11
  -4   2  -9    2.51    2.16
  -4   2  -8  406.92    3.26
  -4   2  -7   62.48    2.54
  -1  -7   3  330.03    3.66
  -1  -6   3  274.46    3.31
   0  -8   3    2.21    2.87
   2  -4   3   46.91    2.62
   2   1  -1   45.94    3.09
   4   3  -9    2.32    2.98
   6   3  -9    1.69    3.03
   7   3  -7   55.04    3.37
   8   3  -9    3.63    2.90
   8   3  -8  346.43    4.51
   8   3  -7    6.41    2.81
  11  -5   3   68.88    3.00
  11   0   0    2.63    3.07
  12  -6   3   -1.28    2.46
  14  -2   1   19.67    1.80
  15  -5   2    3.58    1.89
  16  -3   1    4.78    2.46
  17  -2   0    0.55    2.77
  17  -1  -1   19.80    3.19
 -14  -5  -5    0.85    2.04
 -13  -4  -4   19.85    2.51
 -11  -7  -1  139.03    7.65
 -11  -1  -9  157.16    2.60
 -11  -1  -7  305.65    3.24
  -9   0  -6   11.98    2.30
  -7   1  -9   47.17    1.87
  -7   1  -8    2.74    2.37
  -7   1  -7   74.14    2.46
  -3   2 -10   21.44    1.98
  -1  -8   3   70.13    2.87
   1  -4   3  713.93    4.13
   1  -2   2    3.62    2.09
   5   3  -8   -2.07    2.75
  10  -4   3   90.54    3.04
  12  -5   3   15.10    2.77
  13  -3   2    3.06    2.00
  13   1  -2    0.03    3.99
  15  -4   2    4.15    2.53
  15  -1   0    0.51    2.57
  16  -5   2   53.58    2.84
  18   0  -3    0.03    3.31
 -13  -3  -6    3.26    2.40
 -12  -2  -6   22.33    2.30
  -9   0  -9   60.61    2.01
  -9   0  -8   -1.68    2.32
  -9   0  -7  202.59    2.76
  -6   1 -10   56.26    2.08
  -5  -8   2    3.57    2.67
  -5  -5   2    0.55    2.73
  -4  -4   2 1258.16    5.99
  -3   2  -8    5.22    2.39
  -3   2  -7 1089.44    4.40
  -2  -7   3    3.51    2.52
  -2  -6   3   10.45    2.37
  -2   2 -10   35.49    2.57
  -1  -5   3  884.14    4.33
   4  -3   3    0.98    2.04
   5  -3   3 2604.15    6.61
   6  -3   3    1.28    2.36
   7  -3   3  115.97    2.81
  11  -4   3   50.91    2.87
  11  -2   2    2.39    2.56
  12  -1   1   14.72    2.25
  14  -3   2   95.71    2.76
  15  -2   1   51.63    2.66
  19  -1  -2   -0.49    2.98
 -12  -4  -3   -1.45    2.68
 -12  -2  -8   -1.29    2.03
 -12  -2  -7   -1.44    2.06
 -10  -2  -3  134.49    2.68
 -10  -1  -5    6.09    2.14
  -9  -3  -1  943.58    8.04
  -9  -2  -2   15.91    2.51
  -8  -7   1    0.34    2.63
  -8   0  -5    1.98    2.41
  -6   1  -9    0.98    1.62
  -6   1  -8  421.32    3.23
  -6   1  -7  109.49    2.62
  -5   0  -2    5.56    1.56
  -3   0  -1 5824.79   15.69
  -2  -8   3   -0.65    2.54
  -2   2  -9   72.07    2.69
  -1   2 -10    2.73    2.80
  -1   2  -5  431.37    3.53
   0  -4   3    0.05    1.66
   3  -3   3   18.32    2.22
   5  -7   4    3.31    2.67
   5  -6   4   10.34    2.51
   6  -7   4  133.44    3.38
   7  -7   4   -0.20    2.84
   7  -6   4   -3.18    2.55
   8  -3   3   21.40    1.98
   8   2  -3   17.12    3.77
   9  -3   3 1390.75    5.37
  12  -4   3    0.59    2.54
  12   0   0    8.23    3.02
  14   2  -7    4.38    3.96
  15   0  -1   63.12    3.21
  16  -4   2  135.25    3.35
 -11  -4  -2    1.42    3.06
 -10  -1  -9   10.90    2.14
 -10  -1  -6   17.81    2.24
  -8  -6   1    6.29    2.95
  -7   0  -4   13.45    2.23
  -6  -7   2  170.36    3.84
  -5   1 -10   21.75    1.84
  -3  -7   3   22.04    2.51
  -3   1  -3   13.71    1.61
  -2  -5   3    6.99    2.32
  -2   2  -8  109.54    2.11
  -2   2  -7  161.25    2.67
  -1   1  -2   37.37    2.31
   0  -2   2 4145.46   10.08
   2  -3   3   20.35    2.30
   3  -7   4    6.72    2.70
   3  -6   4    3.80    2.53
   4  -8   4   97.36    3.22
   4  -6   4  366.04    3.29
   5  -8   4    2.41    2.77
   6  -8   4   45.75    3.27
   7  -5   4    3.85    2.36
   8  -6   4   34.90    2.18
   9  -7   4   11.26    2.86
   9  -6   4    7.23    2.48
  13  -4   3  552.58    4.44
  13  -1   1   98.39    2.67
  14  -5   3    1.38    2.82
  15  -3   2   -0.54    2.68
  17   0  -2   -0.97    3.10
 -13  -5  -4    3.84    2.46
 -11  -3  -3  114.86    2.81
 -10  -1  -8    4.35    1.52
 -10  -1  -7   -0.04    1.97
  -8  -8   1    3.19    3.26
  -8   0  -8  107.29    2.42
  -8   0  -7  143.63    2.69
  -8   0  -6  304.35    2.44
  -7  -1  -2    1.54    2.48
  -7   0 -10    0.13    2.37
  -6  -8   2   83.60    3.84
  -6  -6   2  435.21    4.17
  -6   0  -3  112.65    2.07
  -5   1  -9  491.19    3.31
  -3  -8   3  109.85    3.36
  -3  -6   3  364.30    3.68
  -3  -3   2   10.15    2.30
  -1  -4   3  767.69    4.29
  -1   2  -8   67.88    2.72
   1   2 -10    3.36    2.66
   2  -8   4    1.69    2.77
   4  -5   4  652.03    4.04
   7   2  -3 1296.01    8.70
   9  -5   4   45.07    2.62
  13  -2   2    1.33    2.32
  16  -2   1    7.89    2.39
  17  -4   2   -0.24    2.63
  18  -3   1    1.52    2.41
 -13  -4  -6   15.22    2.52
 -12  -3  -5    1.40    2.20
 -11  -2  -8    3.04    2.16
 -11  -2  -6   10.35    2.23
  -8  -1  -3   28.65    2.21
  -5   1  -8    0.72    1.54
  -1   2  -7  610.12    3.27
   0   2  -9    0.53    1.83
   0   2  -5    1.46    1.74
   1  -7   4    2.80    1.84
   1  -6   4    1.78    2.52
   1  -3   3 1801.40    5.82
   2  -5   4 1211.28    4.85
   2   2  -4   34.93    2.42
   3  -5   4   28.35    1.82
  10  -5   4  150.55    3.19
  12  -3   3   21.13    2.43
  13   0   0    0.01    3.08
  13   2  -8    2.88    3.45
  14  -4   3   -0.05    2.53
  16  -3   2  149.98    3.34
 -12  -3  -8  221.12    2.85
 -12  -3  -7    6.42    2.20
 -11  -2  -7  246.16    2.85
 -10  -7   0    3.76    3.59
  -9  -1  -9  256.77    2.80
  -9  -1  -5  652.06    3.84
  -7   0  -9  567.96    3.24
  -6   0 -10  192.60    3.10
  -4  -7   3   -1.34    2.47
  -2   1 -11    0.93    2.00
  -1  -1   1  152.96    3.46
   0  -8   4  197.06    3.68
   0  -7   4    2.21    2.72
   0   2  -8  863.56    3.91
   0   2  -7   -1.42    2.37
   0   2  -6 2716.89    6.68
   1   2  -5  419.15    3.54
   3   1  -1  475.09    7.73
   5  -4   4   28.92    2.32
   6  -4   4  464.85    3.42
   6  -1   2 1172.56    5.05
   7  -4   4    4.12    2.45
   7  -1   2   -1.47    1.64
   8  -4   4   88.67    2.88
   8  -1   2 1743.32    6.34
   9  -4   4   14.69    2.56
  11  -5   4   50.34    2.33
  12  -5   4  371.53    4.05
  13  -6   4    4.66    2.61
  14  -2   2  709.93    4.61
  14  -1   1    6.40    2.58
  15  -4   3   12.11    2.39
  17  -2   1  473.43    4.82
  19  -2   0   -0.73    2.55
 -13  -6  -4    4.85    2.78
 -13  -5  -5   44.08    2.91
  -9  -1  -8    0.52    1.97
  -9  -1  -7  669.66    3.63
  -9  -1  -6    0.52    2.18
  -8  -1 -10  202.62    3.01
  -7   0  -8   42.23    1.82
  -7   0  -7  643.13    3.59
  -7   0  -6   24.92    2.29
  -5  -4   2    3.17    2.70
  -4  -8   3    6.55    2.79
  -4  -6   3   26.97    2.60
  -4   1  -8  222.34    2.63
  -1  -2   2    2.31    2.08
   0  -3   3    3.91    2.14
   1  -5   4   -0.97    1.72
   1   2  -8   70.54    2.74
   2   2  -9   65.78    2.49
   3  -4   4   30.17    2.54
   4  -4   4  850.08    3.86
   5  -2   3  330.01    2.99
   6  -2   3   56.73    2.36
   7  -2   3 1352.31    5.20
   7   0   1 1891.97    8.04
   7   2 -10   -0.41    3.05
   8  -2   3   16.12    2.63
   9  -1   2   13.34    1.72
  10  -4   4 1194.40    5.59
  12   2  -8    0.05    3.43
  13  -3   3  350.75    3.44
  16   0  -1    7.20    2.95
  17  -3   2   -1.06    2.32
  17  -1   0    2.10    2.66
  -8  -5   1    6.70    3.22
  -7  -7   2    0.52    2.74
  -6   0  -9   -0.49    2.28
  -4  -2   1    4.25    3.25
  -4   0  -2 4173.14   10.44
  -3   1  -9   90.82    2.03
  -1  -8   4   -0.35    2.84
  -1  -7   4   -0.67    1.99
  -1  -6   4    2.46    2.31
   0  -5   4    3.05    2.45
   0   1 -11    4.12    2.79
   1   2  -7  562.76    3.22
   1   2  -6  130.27    2.27
   2   2  -5   42.27    2.65
   4  -2   3  144.17    2.54
   4   2  -9    3.87    2.65
   6   0   1   11.85    2.14
   9  -2   3 1409.66    5.12
  10   2  -9   25.06    3.22
  11  -4   4   33.25    2.73
  12   2  -7    1.91    3.88
  12   2  -6   25.24    3.64
  13  -5   4    6.99    2.18
  14  -3   3    1.03    2.45
  15  -2   2    1.02    2.50
  15  -1   1  755.43    5.53
  16  -4   3    0.04    2.72
 -12  -5  -3   14.68    2.73
 -10  -2  -8  526.67    3.40
 -10  -2  -5   26.00    2.15
  -8  -1  -9    7.21    1.66
  -7  -8   2   -1.15    2.97
  -7  -1 -10    2.11    2.34
  -6   0  -8  557.81    3.34
  -5   0 -10   33.57    1.88
  -3   1  -8    8.67    2.10
  -2   1  -9   10.67    2.43
  -1   1 -10    3.24    2.59
   1   1 -11  180.19    3.35
   2  -4   4   41.38    1.94
   2   2  -6  253.79    3.22
   3  -1   2   30.80    1.68
   3   2  -8    3.44    2.67
   4  -7   5   -2.25    2.73
   5   0   1    2.49    1.93
   5   2  -9    8.20    2.77
   6  -7   5   -0.36    2.05
   6  -6   5   -1.83    2.56
   6   2  -9    0.30    2.69
   7  -7   5   18.45    2.23
   8  -7   5    0.88    2.18
   8  -6   5   -0.32    2.73
  11  -1   2    2.87    2.41
  11   2  -8    7.20    3.22
  12  -4   4  107.84    2.60
  14  -5   4   39.63    2.38
  18  -2   1   -1.58    2.53
  19   0  -3   15.26    4.49
 -12  -4  -7   -0.91    2.07
 -11  -3  -8    1.92    1.86
 -10  -2  -7    0.31    1.59
 -10  -2  -6  656.93    3.57
  -8  -1  -8  427.11    3.03
  -7  -6   2    0.89    2.73
  -6   0  -5    3.14    1.68
  -5  -8   3    8.11    2.88
  -5  -7   3  541.75    5.06
  -5   0  -9   11.79    2.25
  -4  -5   3    0.76    2.15
  -4   0 -10  414.91    3.51
  -2  -8   4    7.74    2.71
  -2  -7   4  405.66    4.02
  -2  -6   4   20.85    2.23
  -1  -5   4    0.98    2.22
  -1  -3   3 1943.62    6.21
   0   1 -10    2.79    2.68
   1  -4   4    1.90    2.44
   2   1 -11    4.61    2.75
   3  -8   5   97.13    3.39
   3  -2   3  905.81    4.11
   3   2  -6    2.24    2.42
   5  -3   4   47.32    2.30
   6  -3   4  744.01    3.87
   7  -3   4   19.41    2.34
   8  -3   4  842.66    4.34
   8   2  -4  145.34    4.22
   9  -3   4   92.78    2.83
  10  -6   5    8.75    2.72
  10   0   1    6.62    2.47
  13  -4   4   22.24    2.85
  15  -3   3  358.14    4.31
  16  -2   2  201.30    3.35
  17  -4   3  252.65    4.25
  18  -3   2  100.97    3.22
  18   0  -2  185.17    5.04
 -12  -4  -6   13.44    2.11
 -11  -3  -7  207.95    2.59
 -11  -3  -6    0.90    2.13
  -9  -7   1  183.32    5.02
  -9  -2  -9   56.99    1.80
  -8  -1  -7   10.69    1.94
  -8  -1  -6 1568.45    4.89
  -7  -1  -9   52.10    2.44
  -5  -6   3   43.28    2.60
  -4  -3   2  998.73    5.70
  -2   1  -8 1080.02    4.19
  -1   1  -9  464.81    3.44
   2  -8   5    3.09    2.79
   2  -7   5   -0.69    2.48
   2  -2   3  109.96    2.50
   4  -3   4 1303.98    4.76
   4   0   1    0.99    2.00
   5  -5   5  724.82    4.23
   5   2  -8    6.36    1.98
   6  -5   5    0.43    1.76
   7  -5   5   41.76    1.94
   7   2  -8   34.15    2.62
   7   2  -4    6.14    2.59
   8  -5   5    7.37    1.94
   9   2  -8    0.22    2.79
  10  -5   5   -0.45    2.64
  10   2  -7    2.61    3.64
  11  -3   4  134.76    2.83
  12  -6   5    5.88    2.88
  12  -2   3    0.28    1.93
  14  -4   4  288.01    3.89
  16  -1   1    7.56    2.60
  18  -1   0  317.33    4.53
  -9  -2  -8    0.87    1.96
  -8  -2  -2  685.95    4.75
  -6  -1 -10   75.84    2.11
  -4   0  -9    6.13    2.26
  -3  -8   4    1.31    2.52
  -3  -7   4    4.24    2.47
  -3   0 -10   29.95    2.44
  -2   0 -11   13.17    2.00
   0  -4   4 1745.67    5.62
   1  -8   5   48.27    2.92
   1  -7   5  180.83    3.50
   1   1 -10    3.78    2.07
   2  -6   5    3.84    1.84
   3  -5   5  155.32    2.88
   3  -3   4   83.23    2.43
   4  -5   5    4.21    1.92
   5   2  -7    3.82    2.26
   5   2  -6    6.93    2.00
   8   2  -7  100.06    3.76
   9   2  -7  170.20    3.69
   9   2  -5  363.89    5.13
  12  -3   4  777.42    4.61
  13  -1   2   -0.52    2.38
  15  -4   4    4.25    2.34
  15   0   0    0.75    3.00
  16  -3   3    2.82    2.02
  17   0  -1  634.24    6.93
 -10  -3  -8    1.50    2.09
  -9  -2  -7  153.04    2.48
  -9  -2  -4   46.06    2.14
  -7  -1  -8    2.27    1.90
  -5   0  -7    2.28    2.08
  -5   0  -5    1.47    2.18
  -3  -6   4    6.03    2.35
  -2  -2   2  623.03    4.55
  -1   0 -11  105.62    2.86
  -1   1  -8    9.98    1.69
   0  -8   5    0.33    2.59
   0  -7   5    6.54    2.56
   0   1  -9   -0.16    1.90
   1  -6   5  161.69    3.08
   6   2  -5    1.00    2.16
   7  -4   5  901.58    4.42
   8   2  -5    0.47    2.86
   9   2  -6    9.38    3.18
  12  -5   5    1.27    2.14
  13  -5   5   41.25    2.81
  13  -3   4   20.35    2.46
  14  -2   3   -0.41    2.34
  17  -2   2   -0.21    2.59
 -12  -6  -3    0.33    2.56
 -12  -5  -5    1.78    2.55
 -11  -5  -2   -0.67    3.18
  -9  -2  -6    7.47    1.98
  -9  -2  -5  367.38    3.06
  -8  -2  -9    0.38    1.55
  -7  -2 -10   -1.10    2.40
  -7  -1  -7   78.49    2.32
  -7  -1  -4   40.82    2.33
  -6  -8   3    3.80    2.56
  -6  -7   3    0.40    2.51
  -6  -1  -9    4.34    2.15
  -5  -5   3 1519.81    6.21
  -5  -1 -10   26.35    2.33
  -5   0  -6    8.56    1.54
  -4   0  -8  505.18    3.20
  -2  -3   3   23.68    2.18
  -2   0 -10   50.92    2.64
  -1  -4   4    1.33    2.12
  -1   1  -7  490.09    3.32
  -1   1  -4   18.33    2.26
   0  -6   5    0.80    2.28
   0   0 -11    7.57    2.70
   1  -2   3 1578.75    5.64
   1   1  -9  450.37    3.53
   2  -5   5    4.39    1.73
   2  -3   4 2465.28    6.10
   5  -4   5    3.09    2.31
   6  -4   5    0.42    1.63
   9  -4   5  219.00    2.78
  10  -4   5   12.77    2.76
  11  -4   5  208.03    3.26
  12   0   1    3.56    2.57
  14  -5   5    1.84    2.54
  14  -1   2  149.78    3.17
  16  -4   4   38.02    2.94
  17  -3   3   54.52    2.34
 -11  -4  -7  150.67    2.57
 -10  -3  -7   -0.54    1.88
  -9  -6   1   99.51    4.37
  -9  -3  -9  187.74    2.83
  -8  -8   2   22.74    3.24
  -8  -7   2  250.55    4.36
  -8  -2  -8   87.97    2.32
  -7  -5   2    1.06    2.88
  -7  -1  -6    1.65    2.08
  -7  -1  -5  133.42    2.49
  -6  -4   2 1103.01    6.35
  -4  -8   4  128.31    3.51
  -4  -7   4  257.53    3.58
  -4  -4   3   64.08    2.34
  -3   0  -9  680.93    3.29
  -1  -8   5   57.85    3.05
  -1  -7   5  200.99    3.41
   1  -1   2   38.27    2.10
   1   0 -11  112.98    3.17
   2   1  -9    8.09    2.53
   4  -4   5    6.83    1.65
   5  -7   6    1.05    2.83
   6  -7   6   59.44    3.26
   7  -6   6   11.52    2.48
   8  -6   6   59.74    2.76
  12  -4   5   18.62    2.74
  12   1  -1   14.14    4.58
  14  -3   4   90.01    2.40
  15  -2   3   24.89    2.75
  16   1  -4  210.53    8.46
  18  -2   2  151.03    3.27
  19  -1   0   -0.04    2.57
 -11  -4  -6    9.84    2.13
 -10  -3  -6    8.41    1.92
 -10  -3  -5   -0.16    2.06
  -9  -3  -2   11.34    2.67
  -7  -2  -9  530.06    3.52
  -6  -6   3   10.85    2.34
  -6  -2 -10  205.92    3.16
  -6  -1  -8  432.41    2.71
  -4  -6   4  422.87    4.28
  -4  -1 -10  128.88    2.82
  -2   0  -9   94.62    2.65
  -1  -6   5  149.09    3.00
   0   1  -7 1196.42    4.50
   1  -3   4    5.19    1.64
   3  -4   5  958.43    3.93
   4  -7   6   49.91    2.96
   4   1  -1   75.55    4.76
   6  -2   4  759.03    3.88
   6   1 -10   51.93    2.22
   7  -2   4    6.92    2.27
   7  -1   3  189.79    2.78
   7   1 -10    2.17    2.46
   8  -2   4  144.66    2.28
   8  -1   3   25.90    2.28
   8   1 -10  213.97    3.64
   9  -6   6   -1.14    2.04
   9  -2   4   45.77    2.66
  10  -6   6  134.20    3.55
  13  -4   5  245.25    3.72
  15  -3   4   -1.00    2.67
  15  -1   2    2.64    2.59
  16   0   0  280.11    4.70
  18  -3   3    1.24    1.92
 -12  -6  -4   48.94    2.87
 -10  -4  -8  298.20    3.18
  -9  -3  -8    1.75    2.15
  -8  -2  -7  109.99    2.38
  -8  -2  -3   18.06    2.12
  -6  -1  -7  112.31    2.40
  -6  -1  -3    2.26    2.09
  -3   0  -8    3.15    1.58
  -2  -8   5    0.82    2.65
  -2  -7   5   -0.35    2.21
  -2  -4   4   42.63    2.20
   0  -5   5   15.80    2.49
   0  -2   3    0.99    2.12
   0   0 -10  578.72    3.80
   0   1  -6   -0.06    2.28
   0   1  -4    3.95    2.15
   3  -7   6    4.22    1.90
   4  -6   6  248.19    3.09
   4   1  -9    0.31    2.39
   5  -2   4   62.35    2.32
   6  -1   3    1.05    1.45
   7  -5   6    1.94    2.57
   7  -3   5   78.30    2.28
   8  -3   5   14.51    2.44
   9  -5   6   -0.54    2.60
   9  -3   5  468.78    3.68
  16  -2   3    3.14    2.41
  18  -1   1    9.58    3.04
 -11  -7  -1  134.38    5.99
 -11  -5  -7  113.95    2.63
  -8  -6   2  159.90    4.13
  -8  -3  -9    5.68    2.20
  -8  -2  -6  265.65    2.67
  -5  -8   4    3.12    2.37
  -5  -1  -8   -1.77    2.20
  -3  -1 -10   45.33    2.44
  -1  -1 -11  206.67    3.22
   1   0 -10    8.20    2.69
   1   1  -7  478.89    3.32
   3  -6   6    2.72    1.85
   4  -2   4 1437.27    4.90
   5  -5   6    3.66    2.43
   5  -3   5 1240.73    4.48
   5  -1   3 4251.92    8.47
   6  -5   6  207.49    2.70
   6  -3   5   -1.47    2.05
   6   1  -9    2.49    2.77
  10  -5   6    4.64    1.98
  10  -3   5    1.29    1.99
  11  -5   6   -2.38    2.72
  11  -3   5  353.37    3.59
  12  -5   6  208.38    3.76
  12  -2   4  167.03    3.17
  14   0   1   26.49    3.47
  15  -4   5   10.05    2.73
  16  -3   4  123.70    2.85
  16  -1   2  301.63    3.66
  16   1  -5   -0.64    4.00
  18   0  -1    0.13    3.50
  19   0  -2    4.18    3.77
 -10  -4  -7   -1.34    1.84
  -9  -3  -7  457.78    3.07
  -8  -2  -5    0.98    2.06
  -7  -8   3  123.80    4.32
  -7  -7   3   21.68    2.94
  -7  -2  -8   34.41    1.62
  -6  -2  -9    2.43    2.39
  -6  -1  -6  588.49    2.89
  -6  -1  -5    0.43    2.21
  -5  -7   4    2.34    2.49
  -5  -2 -10   30.71    2.03
  -2  -6   5    3.13    2.44
  -2   0  -8  134.68    2.01
   1  -7   6    8.89    2.69
   1  -4   5  323.78    2.69
   1   1  -6   52.72    2.54
   1   1  -3 2905.53    8.54
   2   1  -7    4.48    2.36
   4  -5   6  168.89    2.56
   4  -3   5    6.03    2.21
   4  -1   3   21.89    2.17
   8   1  -9    6.39    2.76
   9   1  -9  261.96    3.91
  12  -3   5   -0.58    2.47
  13  -2   4   32.99    2.71
  13   1  -8    0.47    3.04
  17  -3   4   25.04    2.97
  17  -2   3  518.89    4.97
 -11  -5  -6    1.71    2.00
  -9  -3  -6    1.98    1.87
  -8  -3  -8  343.99    2.90
  -7  -2  -7  534.46    3.20
  -6  -5   3    2.36    2.61
  -5  -3   2   16.37    2.71
  -5  -1  -7 1566.02    4.61
  -3  -8   5   96.31    3.46
  -3  -7   5   58.72    2.81
  -2  -1 -10  366.04    2.87
   0  -7   6    1.25    2.43
   0  -1 -11    4.79    2.08
   0   0  -9   -1.52    2.25
   1  -6   6   41.64    2.43
   1   1  -5 1399.50    5.12
   2   0 -10   48.81    2.31
   3  -5   6    7.11    1.78
   3  -2   4  102.33    1.86
   7   0   2   -0.02    2.19
   8  -4   6  142.86    2.98
   8   0   2  761.22    4.62
   9  -4   6    0.33    2.63
   9   0   2   25.17    2.51
  10  -4   6  396.00    3.96
  13  -3   5   90.65    2.50
  13  -1   3  498.82    3.60
  17   0   0    2.32    2.92
 -11  -5  -5  186.67    2.69
 -11  -5  -4   62.58    2.58
 -10  -4  -6  407.55    3.01
  -9  -4  -8    1.85    1.94
  -9  -3  -5  460.63    3.16
  -9  -3  -4   96.49    2.30
  -8  -3  -1   13.06    2.87
  -7  -3  -9   34.16    2.17
  -7  -2  -2   -0.20    2.46
  -6  -2  -8  479.37    3.21
  -5  -6   4    9.96    2.40
  -5  -4   3  158.73    3.21
  -3  -4   4   31.06    2.20
  -3  -1  -9   86.98    1.99
  -3   0  -4  161.54    2.17
  -1  -3   4    4.87    2.14
  -1  -2   3 1559.73    5.89
  -1   0  -8   86.11    1.95
   0  -4   5   -0.98    2.32
   0  -1   2    0.47    1.37
   1  -1 -11  200.27    3.35
   1   0  -9  254.25    3.10
   2  -5   6  565.19    3.79
   2   0   1   42.21    2.42
   2   1  -6 1217.99    4.83
   3  -3   5  359.89    2.68
   3  -1   3   15.52    2.07
   3   1  -7  132.74    2.75
   5   1  -8    1.38    1.84
   6  -4   6  301.93    2.69
   8  -6   7   25.68    2.62
  11   0   2    0.94    2.46
  11   1  -8    2.85    2.96
  12  -4   6    8.56    2.76
  14  -3   5    0.23    1.76
  14  -1   3    3.96    2.51
  15   1  -6   10.70    3.37
  17  -1   2   -1.46    2.54
  18  -2   3    1.66    2.51
  19  -1   1  360.60    4.93
 -11  -6  -2    1.28    2.73
 -10  -5  -1    3.64    3.35
 -10  -4  -5   16.43    2.02
 -10  -4  -4 1293.66    5.26
  -8  -3  -7    8.68    1.91
  -7  -6   3  492.11    4.85
  -7  -2  -6   28.68    2.06
  -5  -2  -9    9.54    1.82
  -5  -1  -6   -0.84    2.00
  -3  -6   5  416.74    3.88
  -2  -5   5    5.31    2.25
  -1  -7   6   11.84    2.43
   0  -6   6  679.15    4.67
   2  -3   5    6.70    2.25
   4  -4   6  663.38    3.88
   4   1  -7   43.33    2.57
   5  -6   7    1.24    2.42
   7  -6   7  117.59    2.80
   7   1  -8    0.52    2.55
  10   1  -8    3.37    2.92
  13  -4   6   17.45    2.91
  15  -3   5  315.30    4.07
 -10  -5  -7    1.04    1.83
  -9  -4  -7   96.25    2.27
  -7  -3  -8    1.38    2.12
  -7  -2  -5 1664.86    5.01
  -6  -8   4   66.76    3.16
  -6  -7   4  163.53    3.87
  -5  -3 -10   19.37    2.45
  -5  -1  -5 1854.53    5.24
  -4  -7   5    1.27    2.48
  -2  -1  -9    7.88    1.64
  -1  -4   5  333.37    3.20
   0   0  -8 1120.60    3.99
   2   0  -9   92.42    2.62
   2   1  -5   13.73    1.71
   3  -4   6    1.89    2.43
   3   1  -6   13.53    2.37
   4  -6   7    5.68    2.70
   5   0   2    4.88    2.09
   7  -2   5 1551.80    5.05
   7   0 -10    0.80    2.73
   8  -5   7    1.19    2.62
   8  -2   5    0.91    2.25
   9  -5   7  164.45    3.48
   9  -2   5  336.33    3.24
  10  -5   7    1.02    2.55
  10  -2   5   28.11    2.64
  14  -4   6  199.25    3.27
  15  -1   3  525.36    4.35
  16  -3   5    1.11    2.69
  16  -2   4   99.41    3.06
 -11  -6  -5   99.46    2.88
  -8  -3  -6  991.87    3.82
  -7  -2  -4    9.82    1.92
  -6  -3  -9    0.68    1.80
  -6  -2  -7   16.69    1.97
  -5  -2  -8   10.95    2.28
  -1  -6   6   43.24    2.78
   1  -2   4    2.37    2.03
   1   0  -8   89.48    2.73
   2  -7   7   -1.14    2.62
   2  -4   6  170.93    2.63
   2  -1   3  100.82    2.40
   3  -6   7  295.03    3.67
   3   0  -9  652.09    4.01
   3   1  -2   31.46    2.38
   6  -5   7   33.75    2.53
   6  -2   5    2.57    2.13
   7  -3   6    1.73    2.29
   8  -3   6  980.64    4.44
   8  -1   4  960.79    4.46
   9  -3   6   -1.66    2.42
   9  -1   4  110.71    2.84
   9   1   0    0.09    3.11
  10  -3   6   10.63    2.62
  11  -5   7   83.39    2.73
  11  -3   6    0.74    2.49
  11  -2   5  383.37    3.22
  12  -2   5   31.57    2.62
  12   1  -7    9.08    3.04
  13   0   2    5.72    2.71
  16  -1   3    4.49    2.25
  16   0   1    9.46    2.93
  17  -2   4   15.23    2.45
 -11  -6  -4   14.11    2.50
 -10  -5  -6    5.51    1.86
  -9  -4  -6    2.49    1.93
  -7  -4  -9  332.47    3.08
  -5  -5   4   13.81    2.34
  -4  -6   5    4.26    2.25
  -4  -3   3    2.33    2.43
  -2  -7   6  175.04    3.27
  -2  -3   4 2719.10    6.85
  -2  -2 -10   41.47    2.36
  -2   0  -4   17.67    2.10
  -1  -1  -9  492.20    3.01
   1  -7   7   57.08    2.73
   1  -1 -10    2.58    2.01
   2  -6   7   29.71    2.35
   3   1  -5  533.37    3.63
   4  -5   7   15.81    2.60
   4   0  -9    1.80    2.56
   5  -5   7  509.75    3.70
   5  -2   5   -0.08    1.53
   6  -3   6  414.16    2.80
   6  -1   4 1104.66    4.47
  10   1  -7    3.04    2.76
  11   1  -7  299.38    4.04
  12  -3   6  506.90    4.50
  15   1  -4    1.11    4.38
  15   1  -3  552.15   11.06
 -10  -5  -5    1.19    2.24
  -9  -7   2    1.68    2.85
  -8  -8   3    1.31    2.82
  -8  -3  -5   16.23    1.75
  -7  -3  -7   59.67    2.20
  -6  -6   4  264.34    3.48
  -6  -2  -6  505.17    3.06
  -4  -4   4  980.08    4.55
  -4  -1  -1   98.77    2.85
  -2  -6   6   80.45    2.84
  -2  -4   5   25.84    2.29
  -2  -2   3  118.29    2.52
   0  -1  -9   -0.41    2.41
   1  -4   6   89.42    2.56
   2  -1 -10  371.80    3.48
   2   0  -8  131.03    2.78
   3  -5   7   61.29    2.56
   4  -2   5    9.42    2.03
   4   0   2 3927.42   10.11
   5  -3   6    0.50    1.59
   5  -1   4  125.60    2.48
   5   0  -9    9.76    2.37
   5   1  -6    1.03    2.35
   8  -4   7   54.87    2.57
   9  -4   7   87.32    2.95
  13  -3   6    3.34    1.90
  13   1  -6    1.96    2.90
  14  -3   6   32.47    2.49
  14  -2   5   -2.34    2.66
  17  -1   3   79.66    3.57
  18  -2   4   68.53    3.16
  19  -1   2    0.37    2.41
 -11  -7  -2   -0.44    2.77
  -9  -4  -5  211.98    2.54
  -8  -7   3    1.89    2.55
  -8  -4  -7   64.83    2.29
  -8  -3  -4  793.59    3.77
  -6  -4  -9   -1.39    2.45
  -6  -3  -8  324.20    2.62
  -5  -7   5  311.62    3.99
  -5  -2  -7    2.46    2.11
  -4  -1  -5   14.16    2.01
  -3  -7   6    5.02    2.42
  -3  -3 -10   33.97    2.79
  -1  -5   6   21.55    1.83
  -1  -2 -10    3.94    1.91
   0  -7   7  105.21    3.20
   0  -3   5   24.24    1.79
   1  -6   7  148.44    3.15
   1  -1   3 2894.16    7.67
   1   0  -7  764.68    3.83
   3  -1 -10   48.80    2.86
   3   0  -8    2.95    2.53
   4  -3   6  339.77    2.57
   4   1  -5   11.05    2.17
   6  -4   7    4.73    2.36
   6   0  -9    2.22    2.30
   7   1   0   -0.03    3.34
  11   0  -9   98.52    3.23
  12  -4   7   -3.20    2.75
  14   1  -5    0.74    3.22
  14   1  -1    4.68    5.11
  15  -3   6    7.82    2.40
 -11  -7  -3   29.14    3.02
 -10  -6  -6  207.86    3.08
 -10  -5  -4  166.35    2.80
 -10  -5  -3   21.38    2.64
  -8  -5   2  725.90    6.53
  -8  -3  -3   19.21    1.90
  -7  -5   3   58.24    2.73
  -7  -4   2    0.54    2.87
  -6  -2  -5    0.93    1.89
  -6  -2  -1    2.35    2.63
  -1  -1  -8    8.67    2.12
   0  -4   6 1665.98    5.33
   1  -1  -9  496.07    3.56
   2  -5   7    6.84    1.78
   3  -3   6   10.42    2.17
   3  -2   5 1512.91    4.58
   4  -1 -10  125.23    3.08
   4  -1   4 2288.88    5.89
   5  -6   8    3.56    2.40
   5  -4   7    2.18    1.78
   8   0  -9   -0.15    2.11
   9   0   3 1519.17    5.70
  10   0  -9   28.07    2.74
  11   1  -6    0.83    2.83
  15  -1   4   -1.75    2.31
  16  -2   5   -0.13    2.47
  -9  -5  -6   -0.16    1.96
  -9  -4  -4   18.71    1.95
  -9  -4  -2    7.02    2.60
  -7  -7   4    1.12    2.44
  -7  -3  -6    3.64    1.39
  -6  -4   3   27.99    2.75
  -5  -6   5    0.02    2.23
  -5  -3  -8   -0.77    2.38
  -4  -5   5    4.31    2.18
  -4  -3  -9   -0.07    1.89
  -4  -1  -4 2343.00    6.01
  -3  -3   4   89.75    2.40
  -2  -5   6  574.86    3.75
  -2  -3 -10  266.48    3.38
  -1  -7   7   73.74    3.08
  -1   0  -4    3.66    2.02
   0  -6   7    1.32    1.86
   1  -5   7  192.12    2.93
   2  -3   6 1000.15    4.04
   2  -2   5   48.14    2.11
   2   0  -7  208.03    2.85
   3   0   2   32.67    2.22
   4  -6   8  100.63    3.20
   4  -4   7   27.48    1.82
   4   1  -2 1205.73    7.85
   5  -1 -10   22.66    2.58
   7  -5   8   -1.75    2.30
   8  -5   8  143.68    3.27
   8  -2   6  249.34    2.88
   9  -2   6    6.71    2.50
   9   1  -6    0.22    2.30
  10  -2   6  627.22    4.06
  10   1  -6   17.50    2.61
  12   0   3    0.58    2.50
 -10  -6  -5    8.71    2.23
  -9  -4  -3  785.51    4.23
  -8  -4  -6  162.61    2.31
  -6  -5   4  447.38    4.09
  -6  -3  -7   73.79    1.87
  -6  -2  -4  816.92    3.81
  -4  -7   6   57.25    2.68
  -4  -1  -3   24.36    2.07
  -3  -4   5 1000.25    4.45
  -3  -2  -8    5.78    1.63
  -1   0  -3 2185.09    6.74
  -1   0  -2    4.17    1.90
   0  -1  -8   -0.50    2.33
   1   0  -6  167.67    2.66
   2  -1  -9    8.61    2.00
   3  -4   7  648.97    3.55
   3  -1   4  150.50    2.05
   5   0  -8    7.32    1.93
   6  -1 -10   59.49    2.14
   7  -2   6   27.33    2.35
   7  -1 -10    5.59    2.68
   8  -3   7    4.82    2.30
   9  -3   7  421.19    3.72
   9  -1   5  549.21    3.48
  10  -3   7    0.10    2.61
  10  -1   5    4.54    2.27
  11  -3   7  211.43    3.51
  11  -2   6   14.73    1.89
  12  -3   7    6.69    2.47
  12  -2   6   16.29    2.56
  13   0  -8    4.59    3.28
  16  -1   4  213.41    3.46
  17  -2   5  233.75    3.94
  19   0   0   -0.40    3.01
  -8  -6   3    1.89    2.63
  -8  -5  -7    3.86    2.13
  -7  -5  -8    0.90    2.29
  -7  -4  -7  379.44    2.92
  -7  -3  -5   81.89    2.10
  -6  -7   5   -0.57    2.66
  -6  -4  -8  319.76    3.03
  -5  -4   4   33.04    2.43
  -2  -7   7    2.36    2.49
  -1  -6   7  152.60    2.75
  -1  -4   6   94.19    2.03
  -1  -3 -10   -2.26    2.66
  -1  -2   4   -0.45    2.03
   0  -5   7  370.96    3.33
   1  -3   6   32.06    2.21
   2  -6   8   25.32    2.35
   3  -1  -9   86.29    2.71
   3   0  -7 1214.70    4.52
   4  -5   8   87.02    2.77
   5  -5   8    2.03    1.87
   5  -2   6    6.02    1.87
   6  -3   7   70.02    2.35
   6  -2   6  470.27    2.78
   7  -1   5  116.32    2.50
   8  -1   5   21.83    1.73
  12  -1   5    4.34    2.55
  12   1  -5    4.55    2.62
  13  -3   7   25.45    2.77
  13  -2   6   34.61    2.04
  13   1   0    0.71    3.98
  14  -2   6  397.93    4.05
  18   0   1   -0.29    2.74
  19  -1   3   75.62    3.12
  -9  -5  -5  270.43    2.73
  -8  -4  -5    1.71    1.69
  -7  -6   4   -0.78    2.65
  -4  -6   6  265.65    3.37
  -3  -5   6    8.09    2.16
   2  -1   4 4015.96    8.01
   3  -5   8    2.80    2.31
   4   0  -7   81.09    2.50
   5  -3   7  984.27    4.30
   6  -1   5    0.42    2.17
   7  -4   8   20.39    2.35
   8  -4   8   43.34    2.62
   9  -4   8   -3.62    1.87
  10  -4   8  242.07    3.29
  10   1  -5    3.44    2.60
  11   1  -5  486.68    4.65
  14  -3   7   24.19    2.21
  14   0   3    0.03    2.81
  15  -2   6    0.35    2.50
  17  -1   4   41.43    2.80
  17   0   2    0.82    3.19
  -9  -6  -6    1.75    1.89
  -9  -6   2    0.69    3.65
  -8  -6  -7   27.74    2.38
  -7  -3  -4   16.58    1.81
  -6  -3  -6  442.48    2.69
  -5  -5   5  804.20    4.50
  -5  -3   3 3291.17    9.48
  -5  -2  -5    2.46    1.47
  -4  -2  -6 1166.30    4.13
  -2  -6   7   36.16    2.66
  -2  -3  -9    4.42    2.45
  -2  -3   5    6.35    2.15
  -1  -5   7  204.15    2.92
   0  -3 -10    4.22    1.92
   0   0  -4 4382.95    8.65
   1  -6   8   15.01    2.54
   1  -4   7  362.62    3.21
   2   0  -6  341.33    2.71
   4  -3   7   35.75    2.35
   4  -2 -10  309.35    3.57
   4  -2   6 1089.21    3.83
   5  -1  -9  480.57    3.73
   5  -1   5 1668.56    5.05
   6  -4   8  239.81    2.82
  14  -1   5    0.43    2.77
  15   0  -7   22.55    3.02
  16  -2   6  147.07    3.30
 -10  -6  -3   40.75    2.77
  -7  -4  -6   27.03    2.14
  -7  -3   0    1.06    3.42
  -6  -6   5   -0.52    2.22
  -6  -5  -8  170.04    2.70
  -5  -7   6    0.98    2.47
  -5  -4  -8    8.38    2.26
  -4  -4   5    6.34    2.02
  -3  -7   7   22.46    2.67
  -3  -1  -4  147.98    2.37
  -2  -4   6  177.55    2.24
   0  -3   6    3.32    1.58
   1  -3 -10    0.44    2.60
   2  -5   8  327.91    3.13
   2  -1  -8 1097.78    4.04
   3  -3   7  116.97    2.53
   4  -4   8  249.70    3.11
   4   0   3  271.55    3.18
   5  -4   8    6.72    1.70
   5  -2 -10   34.19    2.92
   5   0  -7    1.94    1.72
   6  -1  -9   -0.18    2.53
   9   1   1  988.32    6.86
  10   0   4 2130.08    6.51
  10   1   1   23.68    3.09
  11   1   1 1204.15    7.84
  14   0  -7    3.50    2.89
  14   1  -3    5.05    4.37
  15  -1   5  538.62    4.36
  18  -1   4  200.57    3.80
 -10  -7  -4   61.54    2.64
 -10  -6  -1   -0.40    2.78
  -9  -5  -4   40.36    2.01
  -8  -4  -4   83.64    2.03
  -5  -2  -4   62.43    2.08
  -4  -3   4 1517.45    5.56
  -3  -3  -8    6.96    2.21
  -2  -2   4   39.57    2.14
  -1  -4 -10    2.21    2.00
   0  -6   8  231.03    3.21
   0  -4   7    0.61    2.33
   0  -2   5    0.31    1.50
   1  -5   8    3.20    2.23
   1  -1   4   19.07    2.10
   3  -1  -8    9.83    2.58
   3   0  -6    3.39    1.68
   4  -1   5   11.95    1.44
   6  -2 -10  163.23    3.24
   6   0  -7   20.88    2.28
   8  -2   7  102.57    2.57
   8  -1  -9    7.59    2.69
   8   1   1   10.91    2.93
   9  -3   8    0.14    2.27
   9  -2   7  149.68    2.75
  10  -2   7    0.14    2.64
  11  -2   7  229.44    3.48
  11  -1  -9  150.80    3.52
  11   0   4   82.24    2.08
  12  -2   7    1.73    2.57
  13   0  -7  380.48    4.44
  16  -1   5    2.46    2.62
  19   0   1   68.94    3.79
  -9  -6  -5  119.81    2.48
  -8  -7   4  137.06    3.44
  -7  -3  -3  104.64    2.14
  -6  -3  -5    2.15    1.83
  -5  -6   6    4.73    2.23
  -5  -3  -6    1.97    2.09
  -4  -5  -9   -1.22    1.51
  -4  -5   6  178.97    2.83
  -3  -6   7  262.14    3.49
  -3  -1  -3   13.05    2.03
  -1  -3   6   35.21    2.33
   0   0  -3    0.73    1.42
   2  -3 -10  250.53    2.88
   2  -3   7    5.06    1.61
   2  -2   6  283.24    2.74
   3  -4   8    0.00    1.78
   3  -1   5  560.49    3.29
   4  -1  -8  216.00    3.02
   4   0  -6 1314.15    5.03
   6  -2   7   16.53    2.19
   6   1  -3    1.45    2.16
   7  -3   8    0.11    2.23
   7  -2 -10    1.33    1.97
   7  -2   7  500.29    2.94
   7   0   4   12.96    1.60
   8  -3   8  283.27    2.93
   8  -1   6 1322.07    4.55
   9  -1   6   -2.15    2.30
  10  -1   6   17.50    2.51
  11  -1   6    1.71    2.58
  11   1  -4  193.16    4.07
  12  -3   8  210.70    3.20
  12  -1   6  793.46    4.34
  12   0  -7   -1.13    2.68
  13  -2   7  279.95    3.70
  14  -2   7    0.51    2.43
 -10  -7  -3    6.10    2.62
  -9  -5  -3  614.07    3.75
  -8  -5  -5    8.77    1.97
  -8  -4  -3    5.46    2.03
  -7  -7   5   17.07    2.48
  -7  -4  -5  959.23    3.89
  -7  -3  -2   -0.94    2.31
  -5  -2   1    7.67    3.77
  -4  -2  -5   12.40    2.00
  -3  -4   6    1.66    2.12
  -3  -3   5  371.20    3.12
  -3  -2  -6    4.33    1.67
  -2  -4  -9   43.23    2.79
  -1  -4   7  379.48    3.21
   0  -5   8    4.12    2.34
   0  -3  -9    0.40    2.40
   1   0  -4    1.05    2.03
   2  -4   8   64.13    2.56
   3  -3 -10   28.20    2.51
   3  -2  -9  592.90    3.72
   3   0   3 1013.07    4.96
   4  -5   9    0.67    2.51
   5  -2   7    2.78    2.09
   6  -3   8  263.99    2.65
   6   0   4  904.69    4.32
   7   1   1  721.48    6.23
  13  -1   6    2.79    2.61
  17  -1   5   10.97    2.66
  -9  -7  -5  124.11    2.93
  -9  -7   3  199.25    4.48
  -7  -5  -6    1.85    2.22
  -7  -5   4    4.31    2.08
  -7  -3  -1  421.60    4.37
  -6  -7   6   76.98    3.27
  -6  -5   5    0.53    2.49
  -6  -4   4  550.62    4.26
  -5  -4  -7    1.87    1.72
  -5  -2  -3  342.77    2.93
  -3  -5  -9   26.32    2.09
   0   0  -2 5719.42   12.95
   1  -4 -10    0.99    2.34
   1  -3   7  367.03    2.62
   2  -1  -7    7.23    2.20
   3  -5   9   28.56    2.63
   4  -3 -10   77.41    3.00
   4  -2  -9    4.68    2.64
   4  -2   7   59.72    2.16
   5  -3   8   -1.36    1.52
   5  -1  -8   -1.36    1.73
   5   0  -6    7.49    2.31
   5   0   4   82.67    2.36
   6  -4   9    2.79    2.42
   6  -1   6  569.11    3.38
   7  -4   9  236.46    3.08
  13   1  -3  480.04    6.52
  15   0  -6    1.20    2.91
  15   0   4   12.22    2.74
  19   0   2   -1.55    3.20
  -9  -6  -4    4.28    2.08
  -9  -5  -2    5.87    2.15
  -6  -3  -4  738.42    3.58
  -5  -4   5    3.26    2.02
  -4  -6   7    8.51    2.29
  -3  -5   7   63.72    2.57
  -3  -4  -8    3.29    2.69
  -3  -1  -2   32.22    1.92
  -2  -6   8   30.34    2.71
  -2  -3   6  989.50    4.17
  -2  -1  -4 3869.80    7.52
  -1  -5   8    5.18    2.47
   0  -1   4    0.16    2.01
   1  -4   8   39.20    1.88
   2  -5   9    1.04    2.14
   2  -1   5   14.63    1.47
   3   0  -5 1742.34    5.57
   4  -3   8  155.09    2.25
   5  -4   9    6.52    2.40
   5  -3 -10   15.23    2.53
   5  -2  -9    5.58    2.63
   5  -1   6    1.36    2.05
   7  -1  -8    2.27    2.39
  10   1   2  187.89    3.65
  11   1   2    2.64    3.11
  14   1   1    6.26    3.59
  15  -1   6    8.13    2.75
  15   1   0    0.31    4.50
  17   0  -5  319.72    5.62
  18   0   3    1.47    3.05
  -9  -5  -1  527.35    4.86
  -9  -5   0    0.91    2.97
  -8  -6   4   42.54    2.62
  -8  -5   3   11.55    2.61
  -8  -4  -2  325.51    3.13
  -7  -6   5  436.74    4.16
  -7  -4   3 1009.26    6.17
  -5  -5   6    2.46    2.11
  -5  -3  -5 1389.03    4.60
  -4  -5  -8   87.02    2.09
  -4  -2  -4 1439.66    4.82
  -2  -5  -9    4.13    2.20
  -2  -4   7   83.81    2.46
  -1  -3  -8    8.52    1.71
   0  -3   7  749.56    3.37
   2  -3  -9    5.59    2.45
   3  -3   8    3.53    2.28
   3  -2   7 1056.47    4.03
   3  -1  -7  139.80    2.15
   4  -1   6  472.16    3.07
   4   0   4 1753.82    5.63
   6  -2  -9   -2.09    2.70
   8   0   5    1.20    2.38
   9  -2   8   -1.50    2.37
   9  -1  -8   -0.58    2.65
   9   1   2    9.82    2.34
  10  -2   8  470.37    3.86
  10  -1  -8    3.22    2.66
  10   0   5   33.24    1.95
  11  -1  -8   -1.74    2.68
  11   0   5  407.79    3.23
  12  -2   8    1.64    2.67
  12  -1  -8  306.70    3.91
  12   1  -3   21.91    3.83
  14   0  -6  473.24    4.90
  16   0   4  129.61    3.30
 -10  -7  -1    0.66    2.65
 -10  -7   0    2.73    3.26
  -9  -7  -4   16.17    2.45
  -8  -6  -5    0.37    2.07
  -8  -5  -4  417.59    3.30
  -7  -6  -6   16.49    2.19
  -7  -4  -4    3.93    1.72
  -6  -6   6  164.32    3.05
  -5  -5  -7  584.23    3.42
  -5  -2  -2    1.60    1.82
  -4  -4   6  681.63    3.85
  -3  -2  -5 1586.05    4.85
  -3  -2   4  105.48    2.41
  -3  -1  -1  572.67    5.34
   0  -4  -9    0.07    2.39
   0  -4   8  568.24    3.28
   0  -2   6 2864.76    6.02
   1  -5   9  159.09    3.06
   1  -1   5 1407.16    4.74
   1   0  -3 2083.08    6.92
   1   0   2    3.71    1.39
   2  -3   8  730.92    3.80
   3  -4   9  291.69    3.54
   4  -1  -7   47.19    2.49
   4   0  -5   12.51    2.22
   6   1   1   88.36    3.04
   7  -2   8   33.51    2.31
   8  -3   9    2.79    2.41
   8   1   2 1346.18    6.45
   9  -3   9  152.29    2.64
   9  -1   7  584.00    3.62
  11  -1   7  287.15    3.46
  12   0  -6   22.71    3.06
  13  -2   8    5.04    1.92
  13   0  -6   36.08    3.12
  14   0   5   -1.02    2.48
  -9  -6  -3  354.41    3.47
  -8  -4  -1   19.40    2.34
  -8  -4   0  362.22    5.64
  -6  -5  -6  250.75    2.79
  -6  -4  -5    1.76    2.05
  -5  -4  -6    5.07    2.20
  -4  -3   5    6.21    1.99
  -3  -6   8    3.22    2.35
  -3  -5  -8    0.81    2.14
  -2  -5   8  316.69    3.91
  -2  -3  -7    7.67    1.86
  -1  -3   7  375.40    2.98
   0  -3  -8    1.34    1.66
   2  -4   9   34.71    2.32
   2  -2   7  161.98    2.05
   3  -3  -9   58.16    2.05
   3  -2  -8    3.36    1.74
   3  -1   6   11.60    2.01
   6  -2   8  420.94    2.82
   6   0   5    6.77    2.20
   7  -1   7   69.43    2.43
   7   1   2    0.17    2.65
   8  -1   7    8.43    1.73
  11   0  -6   17.57    2.72
  14  -1   7   55.22    2.77
  15   0   5   20.70    2.52
  16   0  -5    3.30    3.14
  18   0  -4  146.05    4.84
  19   0   3   27.89    3.18
  -8  -7  -5    1.26    2.03
  -7  -7  -6   -2.63    2.09
  -6  -3  -3    4.73    1.72
  -6  -3   3    4.18    2.39
  -5  -6   7   -1.12    2.32
  -3  -4   7  693.77    3.79
  -3  -3   6   12.27    2.26
  -3  -1   0    0.56    2.82
  -2  -1  -3   93.57    1.79
  -1  -4   8   42.56    2.17
  -1  -1  -4   16.90    1.98
  -1  -1   4   19.52    2.01
   0  -5   9    1.69    2.33
   1  -3   8    9.23    2.25
   3   0   4  159.21    2.66
   4  -2  -8  415.30    3.44
   5  -3   9  326.37    2.92
   5  -2   8    9.99    1.46
   5   0  -5    0.86    2.27
   5   0   5    1.42    2.07
   6  -1   7  104.43    2.46
  15  -1  -7  181.04    4.00
  -8  -7   5    2.50    2.48
  -8  -5  -3   10.16    2.36
  -7  -7   6    0.62    2.20
  -5  -6  -7   -1.34    1.98
  -5  -3  -4   49.29    2.12
  -5  -2  -1    6.10    2.25
  -4  -5  -7   14.04    2.05
  -4  -3  -5    4.77    2.28
  -3  -5   8    3.99    2.12
  -1  -2   6  142.00    2.06
   0  -5  -9    0.73    1.96
   1  -4   9  124.65    2.72
   1  -3  -8    9.32    1.67
   1  -2   7  628.11    3.06
   2  -4  -9   41.78    2.61
   2  -1   6 1334.64    4.48
   4  -3   9    0.71    1.71
   4  -2   8  403.04    2.68
   5  -3  -9  345.86    3.46
   5  -2  -8   10.81    2.43
   5  -1   7 1459.98    4.66
   9   0   6    8.22    2.12
  11   0   6   16.48    2.62
  11   1   3  141.82    3.06
  12   0   6   25.74    2.57
  14  -1  -7   48.36    3.06
  15   0  -5   20.53    3.29
  16   0   5   -0.87    2.78
  -9  -7  -3  250.38    3.47
  -9  -6  -2    3.06    2.43
  -7  -6  -5  450.46    3.41
  -7  -5   5   48.80    2.32
  -6  -6  -6  159.60    2.63
  -6  -5   6  235.20    3.07
  -6  -4   5    0.59    2.07
  -5  -4   6    6.78    2.04
  -4  -6   8   94.55    2.91
  -4  -2  -3  150.03    2.30
  -3  -6  -8    2.40    1.54
  -3  -2  -4  100.76    2.27
  -2  -5  -8  334.48    2.76
  -2  -4   8   66.57    2.30
  -2  -3   7    9.84    2.13
  -2  -2  -5   42.12    1.39
  -1  -5   9  149.38    3.08
   0  -3   8    1.70    2.13
   0  -1   5   12.45    1.50
   2  -3  -8  738.11    3.92
   3  -3   9   58.61    2.48
   3  -2   8    0.89    2.18
   3  -1  -6   13.15    1.76
   4  -1   7   43.72    2.20
   4   0   5   12.48    2.10
   6  -3  -9    5.05    2.49
   6   0  -5    5.89    2.05
   6   1   2 1187.03    6.12
   8  -2   9    2.00    2.38
   8  -1  -7    7.43    2.41
   8   0   6  263.46    2.82
   8   1   3   24.82    2.28
   9  -2   9   52.14    2.58
  10  -2   9   22.38    2.64
  13   0   6   49.62    3.09
  15   1   2    1.44    3.36
  16   1   1   10.46    3.89
  17   0   5  344.17    4.20
  -7  -6   6   15.60    2.62
  -7  -5  -4    6.95    2.01
  -6  -5  -5    0.20    1.99
  -6  -4  -4  517.64    3.31
  -5  -5  -6    3.84    1.87
  -5  -5   7  564.01    3.99
  -5  -4  -5    3.49    2.13
  -4  -4   7   31.19    2.04
  -3  -2   5 1593.11    5.29
   0  -4   9   -2.96    2.17
   0  -2   7   -0.94    2.10
   1  -1   6   50.85    2.11
   1   0  -2    4.40    1.82
   1   0   3 2208.55    6.82
   2  -3   9    5.02    2.18
   2   0  -3  138.11    2.33
   2   0   4   18.29    2.15
   3  -4  -9  322.41    3.03
   4  -1  -6  465.90    3.48
   5   1   0    0.54    3.48
   7  -2  -8   32.46    2.30
   7  -2   9  451.61    3.58
   7   1   3  186.29    2.89
   8  -3  -9    1.93    2.65
   8  -1   8  411.10    3.33
   9  -1   8    1.36    2.40
  10  -1   8    2.17    1.86
  11  -1   8    3.36    1.97
  12  -1   8  350.65    3.80
  13  -1   8    1.16    2.71
  13   1  -2    0.24    4.33
  14   0  -5   -1.29    2.70
  14   1   3    7.47    2.78
  17   0  -4   21.89    3.40
  -9  -7   4   12.37    2.46
  -8  -7  -4  177.28    2.99
  -8  -6   5    0.15    2.45
  -8  -5   4  434.60    4.36
  -7  -7  -5   20.99    2.11
  -7  -4   4    2.61    2.09
  -6  -7  -6   73.40    1.96
  -6  -6   7    0.90    2.37
  -6  -3  -2  774.08    4.18
  -5  -3   5 1396.62    5.14
  -5  -2   2    3.93    2.51
  -4  -3   6  362.18    3.01
  -3  -5  -7   62.96    2.23
  -2  -6  -8   26.65    2.04
  -2  -5   9    1.22    2.41
  -2  -2   6  279.89    2.90
  -1  -5  -8    4.87    1.96
  -1  -3   8    4.36    2.04
   0  -3  -7  830.08    3.62
   0  -1  -4    0.64    2.01
   2  -5  -9    1.59    2.07
   2  -2   8  107.91    1.93
   3  -3  -8    7.92    1.76
   3  -2  -7 1071.41    4.04
   3  -1   7  138.29    2.38
   4  -4  -9    2.53    1.96
   6  -2   9    2.87    1.49
   6   0   6  526.24    2.98
   9  -2  -8   -0.22    2.47
  11   1   4  204.23    3.19
  12  -2  -8    0.34    2.83
  13  -2  -8    2.11    1.97
  13   0  -5  433.88    4.28
  15   0   6    3.23    1.99
  -8  -5  -2  631.58    4.26
  -5  -6  -6    6.57    2.20
  -4  -5   8   86.67    2.06
  -3  -4   8    2.28    2.27
  -3  -3   7  116.69    2.41
  -1  -4   9  126.64    2.64
  -1  -1   5 1434.59    4.93
   1  -3   9  339.42    3.11
   1  -2   8   68.54    2.22
   4  -3  -8  164.57    2.98
   4  -2  -7   64.52    2.69
   4  -2   9    3.45    2.03
   5  -4  -9    4.81    1.86
   5  -1  -6    1.84    2.46
   5   0   6    5.88    2.20
   5   1   2   39.00    2.34
   6  -1   8  393.63    2.63
   6   1   3    1.81    2.16
  10   0   7   -0.50    2.19
  11   0   7  278.34    3.11
  16  -1  -6   77.91    3.44
  16   0   6  157.92    3.72
  -9  -7  -2    0.87    2.24
  -9  -6  -1   92.91    2.86
  -8  -6  -3    1.34    2.17
  -7  -4  -2   -0.33    1.98
  -6  -3   4  816.67    4.63
  -5  -3  -3 2871.60    6.90
  -5  -2   0   -0.05    2.85
  -4  -5  -6  171.00    2.44
  -4  -3  -4 1475.07    5.09
  -3  -6  -7  249.11    2.90
  -3  -4  -6    1.44    1.67
  -3  -1   2   34.19    2.08
  -1  -2   7  627.19    3.05
  -1  -1  -3 2731.47    7.18
   0  -5  -8    0.13    1.91
   0  -1   6    1.47    2.11
   1   0   4    1.93    2.07
   2  -1   7    6.70    1.46
   4   0   6 1411.82    4.65
   5  -3  -8   -1.91    2.63
   5  -1   8   -0.29    1.59
   6  -4  -9    0.91    2.05
   7  -4  -9  228.55    3.65
   7   1   4   34.70    2.25
   8   0   7  120.24    2.57
   9   0   7  177.08    2.28
   9   1  -2    9.77    2.95
  12   0   7   -2.42    2.03
  16   0  -4  114.15    4.08
  16   1   3    5.77    3.30
  -9  -8  -2    0.20    2.28
  -7  -6  -4    1.44    1.88
  -7  -5   6    3.14    2.52
  -6  -6  -5   -0.67    1.51
  -6  -5   7   36.63    2.32
  -6  -4   6  333.39    3.27
  -5  -7  -6    1.01    2.12
  -5  -4   7    0.51    1.87
  -4  -4  -5    4.85    2.34
  -4  -2  -2 2319.42    7.25
  -3  -5   9   28.64    2.53
  -2  -5  -7    6.63    1.51
  -2  -4   9   34.40    2.25
  -2  -3   8  751.19    3.80
  -2  -2  -4   36.18    2.12
   0  -3   9   -0.68    2.19
   3  -3  10   28.25    2.50
   3  -2   9  557.40    3.10
   3  -1  -5  554.91    3.63
   3   0  -3  906.19    4.98
   4  -1   8  218.18    2.17
   5  -2  -7   -0.21    1.79
   5   1   3 4453.15    9.72
   6  -3  -8  269.72    3.34
   7  -2  10   -0.13    2.15
   7   0   7  578.12    3.14
   9  -1   9  262.87    3.20
  11  -1   9  165.49    3.22
  14   0   7    5.73    2.12
  15  -1  -6    8.55    2.52
  17   1   1   25.61    4.00
  17   1   2    1.03    3.11
  18   0  -3   -0.46    3.58
  -8  -7  -3    4.73    2.19
  -7  -5  -3   57.17    2.25
  -6  -7  -5   -1.60    2.01
  -6  -5  -4  403.63    3.10
  -6  -4  -3   24.87    1.86
  -5  -5  -5  700.93    3.23
  -5  -5   8    0.42    2.18
  -5  -4  -4   29.74    2.28
  -5  -2   3  370.60    3.71
  -4  -4   8  271.82    2.84
  -3  -7  -7   23.30    1.72
  -3  -2  -3  932.69    4.44
  -3  -2   6    4.50    2.13
  -2  -2   7  156.15    2.38
   0  -6  -8  261.13    3.03
   0  -4  -7   -1.39    2.40
   0  -2   8  908.41    3.64
   0   0   3   -1.32    1.93
   1  -5  -8    2.46    1.53
   2  -3  -7    9.33    1.75
   2  -3  10  230.44    3.05
   2  -2   9   68.85    2.41
   3  -4  -8   -0.23    1.90
   3  -1   8    7.02    2.13
   6  -2  -7   13.26    1.74
   6  -2  10  166.93    2.80
   6   0   7   21.22    1.80
   6   1   4 1129.65    4.88
   7  -1  -6    2.41    1.69
   8  -1   9    5.37    1.78
  10   1   5    4.46    2.46
  11   1  -2    1.81    3.38
  12   1   5    4.57    2.71
  13  -1  -6    1.62    2.45
  14  -1  -6   43.94    2.77
  -9  -6   4    5.18    2.70
  -8  -8  -3    0.12    2.17
  -8  -4   2  318.78    7.01
  -7  -7  -4   -0.01    1.98
  -7  -6   7  157.03    3.23
  -7  -4   5 1043.82    5.06
  -5  -3   6    3.56    1.90
  -4  -6  -6  255.61    2.42
  -3  -5  -6    3.47    1.98
  -3  -1   3   11.43    1.89
  -2  -6  -7   30.69    2.03
  -2  -3  -5    6.53    2.25
  -2  -1   5   15.67    2.13
  -1  -5  -7  176.37    2.64
  -1  -3   9  329.48    2.99
   2  -5  -8  335.40    3.04
   3  -3  -7  110.13    2.66
   4  -4  -8  264.35    3.30
   4   1   2 1229.00    6.09
   5  -2  10   31.90    2.31
   5   0   7    3.89    2.20
   6  -1   9   -0.22    2.18
   8   1   5   18.12    1.80
   9  -3  -8   -0.51    2.47
   9  -1  -6    0.23    2.27
  10  -3  -8    4.36    2.62
  10   0   8  563.88    3.66
  11  -3  -8    0.31    2.75
  11   0   8    1.48    2.28
  12   0   8    1.47    2.54
  14  -2  -7    3.50    2.65
  14   1   5    0.28    2.66
  15   0  -4    9.24    2.64
  -9  -7  -1  222.18    3.78
  -9  -7   5   78.55    3.00
  -9  -6   0    0.13    2.86
  -8  -6   6   65.87    2.74
  -8  -5  -1    6.06    2.33
  -8  -5   5    7.87    2.01
  -6  -3  -1   22.31    1.91
  -6  -3   5    0.98    2.26
  -4  -7  -6   70.82    2.34
  -3  -4   9  361.85    3.38
  -3  -3   8    5.15    2.11
  -2  -7  -7    2.83    2.22
   0  -1   7 1158.89    4.23
   1  -6  -8   19.13    1.81
   1  -3  10   -1.28    1.76
   1  -2   9  216.15    2.85
   2  -1   8 1052.16    4.06
   4  -2  10  321.70    3.21
   4  -1  -5   10.20    1.71
   4   0   7   89.74    2.34
   4   1   1   87.65    2.77
   4   1   3   22.19    2.23
   5  -4  -8    9.48    2.56
   5  -1   9  479.25    3.29
   5   1   4  130.20    2.59
   7   1   5  108.98    2.04
   8   0   8   97.17    2.60
   9   0   8   -2.60    1.76
  10  -2  -7   -2.85    2.54
  12  -2  -7    1.82    2.68
  13   0   8    5.14    2.85
  14   0  -4  578.73    5.49
  17  -1  -5   11.43    3.08
  -9  -8  -1   29.25    2.90
  -8  -6  -2  141.73    2.68
  -8  -4   3    6.31    3.04
  -4  -5  -5    5.11    1.99
  -3  -3  -4   89.88    2.45
  -3  -1   4  153.01    2.57
  -1  -6  -7  160.73    2.63
  -1  -2  -4    3.19    2.07
   0  -5  -7  338.73    2.94
   2  -6  -8   21.63    2.39
   3  -5  -8    3.56    1.55
   3  -2  10   20.62    2.43
   4  -3  -7   34.66    1.87
   4  -2  -6 1096.44    4.55
   4  -1   9    2.36    2.10
   6  -4  -8  235.28    3.35
   6   0   8  538.93    3.29
   6   1   5    1.75    2.41
   9   1   6   -2.39    2.32
  10   1   6   15.29    2.35
  11   1   6    5.14    2.54
  13   0  -4   36.47    3.13
  13   1   6    2.42    2.59
  -7  -6  -3  486.98    3.59
  -7  -5   7   29.13    2.15
  -7  -4  -1  977.67    5.26
  -6  -6  -4  223.63    2.59
  -6  -5   8  153.26    2.89
  -6  -4   7    5.49    2.00
  -5  -7  -5  302.42    3.03
  -5  -4   8    7.57    2.00
  -4  -2   6 1153.66    4.53
  -3  -6  -6    2.00    1.44
  -3  -2   7 1102.17    4.27
  -2  -5  -6  492.53    3.00
  -1  -7  -7   71.97    2.47
  -1  -3  -5  880.93    4.03
   0  -2   9   -1.48    2.34
   1  -1   8    6.22    1.62
   2  -1  -4 3882.32    8.08
   3   0   7 1252.86    4.29
   4  -5  -8   82.01    2.33
   4   1   4 2248.38    6.43
   5  -3  -7 1026.55    4.60
   5   1   5 1736.34    5.56
   7  -4  -8   22.47    2.50
   7  -1  10    5.14    2.35
   7   1   6    0.40    2.13
   8  -1  10  246.17    2.73
   8   1   6 1315.94    4.51
  16  -1  -5    0.57    2.68
  17   0  -3  638.91    7.31
  18   1   3    5.99    3.47
  19   0  -2    0.60    4.06
  -7  -4   6   25.99    2.21
  -6  -7  -4  149.77    2.63
  -5  -5  -4   13.80    1.95
  -5  -3  -2   13.94    1.97
  -5  -3   7 1082.11    4.40
  -4  -4  -4 1024.71    4.54
  -4  -4   9    2.47    2.24
  -4  -3  -3    2.78    1.39
  -4  -3   8  170.79    2.76
  -2  -2   8  111.65    1.94
  -1  -1  -2   37.40    2.00
  -1  -1   7  481.86    3.19
   0   0   5    0.55    2.05
   1  -5  -7  178.92    2.52
   1   0   6  168.10    2.60
   2  -2  10   37.44    1.91
   3  -4  -7  669.79    3.79
   5  -5  -8    0.48    2.00
   5  -2  -6    6.16    2.21
   5   0   8    8.93    1.63
   6  -3  -7   72.26    2.68
   6  -1  -5    3.08    2.29
   6  -1  10   58.12    2.51
   9  -4  -8   -1.38    2.41
   9   0   9   67.33    2.52
  10   0   9   27.33    2.58
  11   0   9   99.33    2.94
  16  -2  -6  143.13    3.76
  18   1   1   10.60    4.21
  -9  -6   5   88.26    2.96
  -8  -8  -2   34.41    2.27
  -8  -5   6  519.24    4.55
  -8  -4   4   89.54    2.80
  -7  -8  -3  160.97    2.83
  -7  -7  -3   18.89    2.09
  -7  -5  -2   -0.28    1.99
  -7  -3   2    0.95    2.77
  -7  -3   3  110.99    2.95
  -6  -8  -4   62.53    2.18
  -6  -5  -3    0.17    1.87
  -6  -3   6  436.20    3.31
  -5  -4  -3  150.41    2.60
  -5  -2   5    5.05    1.97
  -4  -6  -5    5.06    1.93
  -3  -3   9   58.48    2.42
  -2  -6  -6   79.23    2.30
  -2  -4  -5   24.59    2.38
  -2  -2  -3  115.05    2.38
  -2  -1  -1   54.34    2.30
  -1  -3  10    0.95    1.63
  -1   0   2    3.90    1.74
  -1   0   3 2191.23    6.85
   0  -7  -7  109.95    2.81
   0  -1   8    3.48    2.25
   1  -2  10    5.56    2.41
   2  -1   9   12.63    2.16
   2   0   7  208.10    2.07
   3   1   2   28.94    2.07
   4  -6  -8   92.50    2.23
   4   0   8  489.18    2.78
   4   1   5   11.65    2.25
   5  -1  10   22.18    2.30
   6   1   6  560.46    3.13
   7   0   9  565.22    3.61
   8   0   9    0.58    1.84
   9   1   7  583.93    3.72
  10   1   7    1.65    2.36
  11   1   7  286.11    3.51
  12   1   7    6.95    2.99
  14  -3  -7   23.52    2.97
  15  -1  -5  462.35    4.86
  -9  -8   0    0.63    2.72
  -9  -7   0    0.61    2.50
  -8  -6   7   19.34    2.05
  -7  -3   4   18.63    2.50
  -6  -4  -2  978.80    4.69
  -4  -8  -5    0.15    2.21
  -4  -7  -5    0.24    2.29
  -3  -5  -5  146.84    2.18
  -2  -7  -6  216.52    2.87
  -2  -3  -4 2680.46    6.75
  -1  -5  -6   23.52    1.54
  -1   0   4    2.24    1.93
   1  -6  -7  150.20    2.78
   2  -5  -7    5.87    1.54
   3   0   8    4.49    2.13
   3   1   4  143.53    2.07
   4  -4  -7   27.89    2.24
   5   1   6   -0.32    2.20
   7   1   7   67.79    2.59
   8  -5  -8  126.77    3.26
   8   1   7    7.00    1.78
  12  -3  -7    6.72    2.75
  13  -3  -7   26.65    2.63
  14  -1  -5    2.83    2.58
  16   0  -3   -0.24    3.07
  -9  -5   3  645.61    8.84
  -8  -6  -1    5.60    2.38
  -6  -4   8  259.17    3.09
  -5  -4   9    2.06    2.02
  -4  -2  -1    3.15    1.75
  -3  -2  -2   19.28    2.04
  -3  -2   8    5.28    1.69
  -2  -3  10  236.14    3.03
  -2  -2   9   69.09    2.21
  -2  -1   7    7.73    2.11
   0  -2  10  454.13    3.47
   1  -7  -7   71.70    2.47
   1  -1   9  449.86    2.81
   1   0   7  764.22    3.57
   3  -5  -7   57.90    2.25
   3  -1  10   45.58    2.40
   3   1   5  562.50    3.49
   4   1   6  490.62    3.36
   5  -4  -7    1.26    2.54
   5   0   9    9.63    2.23
   6   1   7  108.01    2.67
   9  -2  -6    5.21    2.46
  12  -1  -5    4.04    2.45
  18  -1  -4  146.25    4.02
  19   1   2    1.53    3.53
  -9  -6   1   89.49    3.50
  -9  -5   4   42.56    3.37
  -8  -5   0 1547.40    7.74
  -8  -4   5    0.75    2.42
  -7  -5   8    1.32    2.27
  -7  -4   7  349.27    3.33
  -6  -6  -3    8.17    1.96
  -5  -8  -4   -1.15    1.98
  -5  -7  -4    2.53    1.84
  -5  -2   6    3.50    1.95
  -4  -5  -4  609.99    3.37
  -4  -1   3   22.79    1.88
  -3  -6  -5  415.91    3.00
  -3  -1   6   13.00    1.52
  -1  -6  -6   41.54    1.74
   0  -5  -6    0.68    1.91
   2  -6  -7   33.17    1.86
   2   0   8  129.83    2.43
   4  -3  -6  351.71    3.13
   4   0   9    2.50    2.21
   5   1   7 1479.20    4.76
   6  -4  -7    4.55    2.50
   8   0  10   87.90    2.49
   9   1   8    3.11    2.48
  11  -2  -6   11.59    2.49
  12   1   8  390.25    4.16
  13   1   8    3.07    2.66
  -9  -6   6   -1.87    2.29
  -8  -5   7    7.16    2.20
  -7  -6  -2   -0.97    2.07
  -7  -3   5   88.17    2.39
  -6  -3   7   78.06    2.33
  -4  -1   4 2416.20    6.74
  -3  -8  -5  136.22    2.80
  -3  -7  -5   56.63    2.32
  -3  -3  -3   19.35    2.16
  -3  -3  10   25.23    2.17
  -2  -5  -5    4.58    1.95
  -1  -7  -6   10.13    1.63
  -1  -2  10    2.87    2.32
   0   0   7    3.07    2.08
   2  -7  -7    1.61    1.88
   2  -4  -6  175.98    2.83
   2  -1  10  330.17    2.67
   2   1   3   99.44    2.00
   2   1   4 4026.69    8.18
   3  -6  -7  286.60    3.27
   3   1   1  552.44    5.51
   3   1   6   13.16    2.26
   4  -5  -7   14.47    1.61
   4  -2  -5    8.61    2.31
   7   1   8    2.16    2.34
   8   1   8  407.57    2.94
  15   0  -3   23.70    2.99
  17  -1  -4   40.41    3.04
  -8  -8  -1    1.07    2.09
  -8  -7  -1    4.29    2.18
  -7  -8  -2    2.00    2.01
  -7  -7  -2   -2.84    2.41
  -6  -8  -3    1.86    1.80
  -6  -7  -3    2.40    1.76
  -6  -2   3   58.95    2.48
  -6  -2   4  787.44    4.42
  -5  -5  -3 1319.92    4.64
  -4  -2   8  433.97    3.17
  -4  -1   5   12.98    2.04
  -3  -2   9  571.64    3.36
  -3  -1   7  137.89    2.47
  -2  -1   8 1055.45    4.11
  -1  -3  -4    2.47    2.28
  -1  -2  -3 1594.35    5.78
  -1   0   6  168.09    2.08
   0  -6  -6  647.87    3.78
   1  -5  -6   19.87    2.12
   1  -1  10    1.31    2.32
   1   0   8   89.62    2.30
   2   1   5   14.57    2.12
   3  -7  -7   19.78    2.36
   3   0   9  662.24    3.10
   4  -6  -7    5.22    2.30
   5  -3  -6    2.49    1.74
   5   0  10   38.12    2.19
   6   0  10  217.11    2.52
   6   1   8  402.84    3.29
  10  -4  -7    1.87    2.56
  11   2   3   45.96    3.11
  12  -4  -7    2.85    2.64
  12   2   4  164.37    3.88
  14   1  -1    4.11    4.25
  17  -2  -5  233.09    4.14
  -9  -8   1   28.23    3.16
  -9  -5   5  252.52    3.75
  -8  -4   6  166.11    2.83
  -7  -3   6   -0.12    2.05
  -6  -4   9    3.16    2.15
  -6  -3   0 1373.68    8.33
  -6  -2   5    2.46    1.76
  -5  -2   7    1.68    1.51
  -4  -6  -4  381.30    2.78
  -4  -4  -3   66.65    2.42
  -2  -6  -5    4.34    2.04
  -2  -2  10   35.56    2.25
  -1  -1   9  463.82    2.88
   0  -7  -6   -1.77    1.77
   0  -4  -5    0.34    2.35
   2  -1  -3   95.23    2.63
   3  -4  -6    1.87    1.70
   5  -6  -7   -0.45    2.31
   5   1   8    1.78    2.34
   7  -5  -7   31.17    2.39
   9   1   9  260.75    3.26
  10   1   9   11.08    2.54
  11   1   9  157.97    3.27
  12   2   3   -0.22    2.82
  12   2   5   36.10    3.00
  13   2   4   33.87    3.01
  14   0  -3   -0.47    2.80
  15  -3  -6    3.94    2.74
  16  -2  -5    3.96    3.17
  16  -1  -4  179.75    3.73
  -7  -5  -1  205.11    3.00
  -7  -4   0    0.36    2.39
  -7  -4   8   21.33    2.25
  -6  -5  -2  418.40    3.20
  -6  -3   8  293.31    2.95
  -5  -3   9  372.82    2.91
  -4  -8  -4  117.88    2.55
  -4  -7  -4  226.49    2.73
  -4  -3  -2  960.54    4.93
  -4  -3  10   80.83    2.51
  -4  -1   6  493.24    3.29
  -3  -5  -4   25.21    2.04
  -2  -8  -5   -0.07    2.09
  -2  -7  -5   -1.25    1.94
  -2  -4  -4   39.23    2.00
  -2   0   3  139.34    2.15
  -2   0   5   59.78    1.65
  -1  -5  -5  453.57    2.68
  -1   0   7  767.95    3.72
   0  -1  10    1.45    2.32
   0   0   8 1103.07    4.16
   1  -6  -6   36.02    1.84
   1   1   4   17.68    2.00
   2  -5  -6  488.31    3.15
   2   1   6 1322.43    4.28
   4  -4  -6  642.08    3.77
   4   0  10  388.89    2.84
   4   1   8  225.40    2.64
   6  -6  -7    5.22    2.30
   6  -2  -5    0.39    2.43
   7  -3  -6   -1.15    1.82
   7   1   9   47.45    2.68
   8  -5  -7    4.58    2.28
   8   1   9    6.65    1.85
   8   2   3   14.36    2.13
   8   2   5   -0.33    2.36
   9  -5  -7  165.18    3.08
  11   2   6    9.45    2.49
  13  -3  -6   -2.00    2.84
  13   0  -3  992.85    6.54
  14  -3  -6   32.90    2.58
  19  -1  -3   77.96    4.01
  -9  -5   6    0.43    2.14
  -6  -2   6  495.60    3.33
  -5  -6  -3   37.15    1.99
  -5  -4  -2    2.25    1.79
  -5  -3  -1 3159.91    9.77
  -5  -2   8   10.97    2.05
  -4  -2   9    6.65    2.20
  -3  -1   8   10.04    2.23
  -2  -1   9    9.15    2.18
  -2   0   6  331.25    3.00
   1  -7  -6   11.33    1.83
   1   0   9  255.18    2.82
   1   1   3 2622.42    7.25
   1   1   5 1387.14    4.48
   2  -6  -6   75.15    2.53
   2   1   7    8.39    1.98
   3  -5  -6    8.25    2.09
   3   0  10   29.13    1.76
   5  -4  -6    4.34    2.47
   6   1   9    1.11    2.46
   7  -6  -7  113.77    2.71
   7   2   4    8.09    2.13
   9  -3  -6    0.90    2.27
   9   2   6    5.98    2.29
  10  -3  -6    8.35    2.49
  11  -5  -7   68.75    2.37
  11  -3  -6    4.27    2.32
  12   0  -3   -0.58    2.88
  12   2   6   21.45    2.93
  14   2   3    0.54    3.18
  14   2   5    0.85    2.93
  15  -2  -5   14.08    2.63
  15  -1  -4    0.55    2.75
  15   2   4    9.84    3.30
  -8  -6   0  180.54    3.39
  -8  -4   7   67.46    2.55
  -7  -3   7   53.38    2.25
  -6  -4  -1    1.01    1.94
  -5  -8  -3   12.58    1.88
  -5  -7  -3  501.86    3.51
  -4  -1   7   45.52    2.26
  -3  -6  -4    4.06    1.95
  -3  -2  10   20.99    1.70
  -2  -2  -2  593.50    4.28
  -1  -8  -5   53.17    2.53
  -1  -7  -5  196.39    2.76
  -1  -6  -5  142.57    2.06
  -1  -1  10    3.56    2.34
  -1   0   8   89.88    2.41
   0  -5  -5   16.05    2.16
   1  -1  11  188.77    2.52
   1   1   6   52.72    2.20
   2  -7  -6  213.21    3.13
   3   1   8    8.55    2.20
   5   1   9  497.78    3.50
   6   2   5    0.37    2.23
   7   2   6   26.88    2.40
   8  -2  -5    2.96    2.41
   9   2   2   11.22    2.21
   9   2   7  137.27    2.72
  10   2   7    2.02    2.56
  12   2   7    1.22    2.88
  13   2   2    5.48    3.52
  14  -1  -4  109.67    3.10
  17   0  -2   -0.14    3.48
  -8  -8   0   47.30    2.88
  -6  -8  -2   90.20    2.54
  -6  -6  -2  371.42    3.20
  -6  -3   9   -0.71    2.12
  -6  -2   7   15.17    2.02
  -5  -1   5 1746.18    5.34
  -4  -5  -3    1.04    1.81
  -3  -8  -4    0.98    1.97
  -3  -7  -4    9.55    2.21
  -2   0   2  984.41    5.55
   0  -2  -3    1.44    1.98
   0  -1  11    0.86    2.18
   3  -6  -6    3.35    2.07
   3  -1  -3   12.82    2.35
   4   1   9   -1.73    2.30
   6  -4  -6  284.10    2.73
   7  -4  -6   20.97    2.55
   7   1  10    4.39    2.58
  14  -4  -6  196.23    3.60
  14   2   7    2.55    2.69
  15   2   3   22.53    3.27
  15   2   6    1.57    3.12
  16   2   4  112.01    3.86
  16   2   5    4.15    3.19
  18  -1  -3    1.02    3.43
  -9  -5   7  203.35    3.18
  -7  -8  -1  164.22    2.74
  -7  -6  -1  492.55    3.73
  -7  -3   8    1.33    2.08
  -6  -7  -2  156.17    2.49
  -6  -2   2 1701.23    9.50
  -5  -2   9    6.42    2.10
  -5  -1   4  128.11    2.28
  -5  -1   6    0.35    2.03
  -4  -2  10  325.90    3.08
  -4  -1   8  235.43    2.83
  -3  -4  -3  626.42    3.38
  -3  -1   9   84.46    1.85
  -3   0   4  140.04    2.29
  -3   0   5 1739.05    5.26
  -2  -5  -4 1129.11    3.91
  -2  -1  10  339.62    3.19
  -1  -4  -4    0.84    1.38
   0  -8  -5    1.65    2.30
   0  -7  -5    5.35    2.34
   0  -6  -5    1.47    1.90
   0   1   4    1.89    1.92
   0   1   5   11.00    1.99
   1  -5  -5  479.46    3.18
   1   0  10    7.27    1.75
   1   1   7  478.63    2.74
   2   1   8 1060.70    3.81
   3  -7  -6    1.59    1.87
   3   1   9   80.08    2.46
   4  -6  -6  264.37    3.02
   5  -5  -6    0.97    2.12
   5   2   4   59.38    2.41
   5   2   5    0.64    2.39
   5   2   6    3.30    2.13
   6   1  10   70.10    2.11
   6   2   3   53.72    1.79
   7   2   7  489.24    3.18
   9  -4  -6    3.22    2.62
   9   2   8    2.17    2.24
  10   2   8  478.41    3.96
  11   2   8    6.24    2.91
  12   2   8    0.08    2.83
  14   2   2  673.02    6.72
  18  -2  -4  112.94    3.69
  -8  -4   8   51.79    2.50
  -8  -3   5   15.99    2.00
  -7  -7  -1   77.78    2.37
  -6  -2   8  463.57    3.30
  -4  -8  -3   10.35    2.15
  -4  -6  -3   19.85    1.83
  -3   0   6    1.61    2.07
  -2  -8  -4    7.77    2.35
  -2  -6  -4   17.57    2.18
  -1  -1  11  185.82    3.01
  -1   0   9  250.67    2.88
   0   1   6    0.10    1.39
   1   1   2   37.44    2.10
   1   1   8    8.94    2.05
   2   0  11   13.59    2.39
   4  -7  -6   52.07    2.17
   5  -6  -6    3.71    2.27
   5  -3  -5 1282.02    4.89
   5   1  10   24.64    1.92
   6   2   7   15.24    1.84
   7   2   2   -0.13    2.09
   7   2   8   35.11    2.34
  11  -4  -6    4.02    1.81
  16  -3  -5    1.13    2.64
  16   2   3    1.72    3.09
  -9  -8   2    1.08    2.77
  -9  -6   2    1.33    3.69
  -9  -4   5  211.85    3.37
  -8  -3   6 1026.01    4.91
  -7  -2   5 1537.76    5.39
  -5  -5  -2    0.73    1.71
  -5  -1   7 1539.55    4.94
  -4  -7  -3   -0.88    2.12
  -3   0   7 1237.40    4.39
  -2  -7  -4  469.94    3.35
   0   0  10  529.39    3.09
   0   1   3   20.87    1.88
   0   1   7 1176.50    4.25
   1  -8  -5   52.27    2.38
   1  -7  -5  198.16    3.11
   1  -6  -5  153.48    2.60
   2  -5  -5    2.31    2.18
   4   1  10  110.99    2.17
   4   2   4 1354.20    5.20
   4   2   5   10.72    1.73
   4   2   6 1080.02    4.34
   5  -7  -6    0.70    1.86
   5   2   3  318.60    3.28
   5   2   7    2.57    1.68
   6  -3  -5    1.37    2.37
   6   2   8  440.10    3.55
  10   2   9   25.64    2.48
  15  -3  -5  323.95    4.21
  17  -2  -4   14.95    2.64
  17  -1  -3   74.40    3.72
  17   2   4   22.90    3.04
 -10  -6   5    6.05    3.91
  -9  -4   6    1.87    2.09
  -8  -3   7    7.10    2.08
  -7  -3   9   34.42    2.23
  -7  -2   4    8.76    2.18
  -7  -2   6   28.07    2.00
  -5  -2  10   29.38    2.36
  -4  -4  -2 1069.58    4.50
  -4  -1   9   -2.08    1.55
  -3  -5  -3   33.24    2.01
  -3  -3  -2   12.03    2.09
  -3  -1  10   40.57    1.75
  -3   0   3  914.38    4.56
  -2   0   9   91.23    2.46
  -1  -5  -4    0.35    1.41
  -1   0  10    6.52    2.18
  -1   1   5 1327.03    4.60
   0  -4  -4 1435.21    4.35
   0   1   8   -1.98    2.02
   1  -2  -3 1543.13    5.75
   1  -1  -2   39.40    1.70
   1   0  11  100.73    2.24
   1   1   9  475.34    3.19
   2   1   1   58.03    2.50
   3   1  10   42.81    2.51
   4   2   7   62.35    2.57
   5   0  -2    4.25    1.96
   5   2   8    8.32    2.48
   6  -7  -6   50.46    2.25
   7  -7  -6   -1.30    2.41
   7  -6  -6   10.49    2.25
   7   2   9  469.31    3.60
   8  -6  -6   55.76    2.72
   9  -5  -6    1.88    1.82
   9   2   9   58.79    2.13
  11  -5  -6   -0.23    2.32
  14  -3  -5   -0.15    2.68
  15   2   2    1.23    3.59
  16  -2  -4   86.14    3.26
 -10  -6   6  147.75    4.29
  -9  -7   2    3.50    3.29
  -9  -4   4   17.01    2.78
  -9  -4   7   99.16    2.96
  -8  -5   1    5.11    2.75
  -7  -2   7  527.38    3.48
  -6  -5  -1    4.75    1.90
  -6  -2   9    2.86    2.25
  -5  -8  -2    0.58    1.87
  -5  -7  -2    2.71    2.07
  -5  -6  -2    1.67    1.93
  -5  -1   8    1.69    1.53
  -3  -8  -3  121.00    2.78
  -3   0   8    2.58    2.26
  -2  -4  -3   41.39    2.05
  -1  -8  -4    1.11    2.02
  -1  -7  -4    1.34    2.03
  -1  -6  -4    1.86    2.29
  -1   1   4   17.83    1.92
  -1   1   6   52.94    1.67
  -1   1   7  475.47    3.12
   0   0  11   -3.04    2.22
   2  -7  -5    1.31    2.50
   3  -5  -5  146.76    2.58
   3   2   5 1419.14    4.71
   3   2   6    2.29    1.72
   4   2   8  422.71    3.20
   5  -2  -4   58.78    1.83
   6   2   2 1566.61    7.08
   8  -3  -5   13.19    1.71
   9  -6  -6   -1.13    1.86
  10  -3  -5    1.64    2.48
  12  -3  -5    4.21    2.56
  16  -1  -3    4.37    3.11
  -8  -3   8  337.58    3.33
  -7  -5   0    2.25    2.49
  -6  -8  -1   -1.62    2.27
  -6  -1   5    1.22    1.62
  -6  -1   6  553.66    3.40
  -4  -1  10  107.81    2.53
  -4   0   5   12.43    1.86
  -4   0   6 1425.47    4.77
  -3  -7  -3   23.14    2.34
  -3  -6  -3  344.17    2.87
  -1  -2  -2    4.47    2.19
   0  -5  -4    2.04    1.99
   0   1   9    2.01    2.13
   3  -8  -5  117.94    2.89
   3  -7  -5   51.39    2.62
   3  -6  -5  389.16    3.29
   3   2   7 1074.57    3.99
   4   2   3  144.67    2.24
   5  -4  -5    2.64    1.43
   5   2   9    9.91    2.53
  15  -4  -5    6.00    2.95
  15  -2  -4    7.63    2.64
  15   0  -2    1.77    3.02
  -9  -4   8    2.12    2.54
  -8  -8   1   -0.23    2.27
  -7  -8   0    0.59    2.17
  -7  -2   8   35.67    2.20
  -6  -6  -1    0.21    2.33
  -6  -2  10  179.86    2.85
  -6  -1   7  109.77    2.32
  -5  -1   9  497.81    3.03
  -4   0   4 1612.32    5.33
  -4   0   7   85.83    1.76
  -3   0   9  667.91    3.34
  -2   0  10   45.93    2.00
  -1   0  11  104.82    2.81
  -1   1   8    7.89    1.65
   0  -8  -4  224.15    3.06
   1   1  10   -0.53    1.77
   2   2   5   45.49    2.14
   2   2   6  262.95    2.34
   2   2   7  153.76    2.55
   3   2   8    2.34    2.24
   4  -8  -5    3.18    2.58
   4  -5  -5    0.90    1.53
   4   2   9    4.67    2.49
   6  -4  -5    0.78    1.50
   6   2  10  182.81    2.96
   7  -2  -4    8.00    2.41
   7   2  10    0.00    1.88
  14  -4  -5   -0.97    2.77
  19  -1  -2   -0.02    3.21
 -10  -5   6    5.22    2.78
  -8  -3   3   16.85    2.50
  -8  -3   9    5.24    2.02
  -6  -7  -1    0.04    2.01
  -6  -1   4 1107.45    4.69
  -6  -1   8  425.99    3.20
  -5  -4  -1   14.61    1.86
  -4  -8  -2  173.72    2.80
  -4  -5  -2  415.31    3.06
  -4  -3  -1   17.26    2.83
  -4   0   8  501.02    3.37
  -2  -5  -3    5.70    2.04
  -2   1   5   12.88    1.94
  -2   1   6 1293.27    4.15
  -1   1   3 2677.94    7.21
  -1   1   9  482.61    3.31
   0  -7  -4    1.77    1.61
   0  -6  -4  692.84    3.48
   0  -3  -3    4.51    1.57
   0   1  10    4.85    2.26
   2  -2  -3  110.34    2.10
   2   2   8  114.72    2.40
   3   2   9  586.75    3.54
   4  -7  -5    2.71    1.82
   4  -6  -5    0.67    1.69
   5   2   2    3.09    2.19
   5   2  10   32.36    2.64
   6  -1  -3    0.03    2.15
   8  -4  -5    2.96    2.62
  12   2   1    2.82    4.22
 -10  -5   5    1.37    3.40
 -10  -5   7    0.48    2.34
  -8  -7   1    0.99    2.08
  -8  -6   1    4.49    2.46
  -7  -7   0    0.07    1.98
  -7  -6   0    1.34    2.07
  -7  -2   3 1249.95    6.53
  -7  -2   9  514.68    3.61
  -5  -1  10   21.98    2.20
  -4   0   9    4.19    2.01
  -3   0  10   29.43    2.41
  -2  -7  -3    3.52    2.14
  -2  -6  -3   13.02    2.18
  -2   0  11   13.07    2.53
  -2   1   8 1094.68    4.28
  -1  -4  -3  650.86    3.52
   1  -8  -4    3.23    1.77
   1  -5  -4   -1.06    1.54
   1   1  11  184.79    2.96
   1   2   6  137.66    2.51
   1   2   7  618.62    3.47
   3   2   3  899.51    4.42
   4   2  10  338.32    3.54
   5  -6  -5    2.36    1.69
   9   3   6    0.65    2.37
  10  -4  -5   10.99    1.86
  10   3   5   -0.38    2.42
  10   3   6    9.00    2.59
  10   3   7   -1.44    2.75
  11   3   6    2.36    2.85
  11   3   7  211.20    3.70
  12   3   6  529.91    4.82
  14  -5  -5    0.98    2.56
  14  -1  -3    5.53    2.63
  16  -3  -4  118.36    3.33
  16   2   2  247.95    6.49
  18  -2  -3    1.83    2.82
  18   0  -1   -0.03    3.19
  -9  -3   6    1.77    1.91
  -9  -3   7  453.40    4.04
  -8  -2   7  112.75    2.46
  -6  -1   9    1.05    2.34
  -5   0   6    6.74    1.94
  -5   0   7    0.89    2.05
  -4  -7  -2  176.30    2.53
  -4  -6  -2  522.57    3.37
  -3  -4  -2    6.89    1.79
  -2   1   4 3855.49    7.69
  -1   1  10    1.72    2.40
   1  -6  -4    2.73    1.72
   1   2   5  419.78    2.74
   1   2   8   67.40    2.36
   2  -8  -4    4.24    2.50
   3   2  10   20.02    2.58
   6  -7  -5    1.60    1.77
   6  -6  -5    0.88    1.63
   7  -7  -5   13.17    2.45
   7   3   6    3.99    2.34
   7   3   7   46.58    2.60
   8   3   5   13.54    2.13
   8   3   7    3.45    1.82
   8   3   8  299.74    3.25
   9   3   8    2.44    2.75
  10   3   8   -1.39    2.86
  11   3   8    3.37    3.18
  12  -5  -5    3.07    2.49
  12   3   5    2.37    2.72
  12   3   8  235.18    4.24
  13  -5  -5   38.53    2.08
  13   0  -2    5.60    3.08
  13   3   6    0.77    3.02
  13   3   7   26.81    3.07
  18   2   3   -1.34    3.71
  -9  -3   8    3.47    2.50
  -8  -2   5    1.15    1.75
  -8  -2   8   87.90    2.35
  -7  -2  10   -0.21    2.29
  -5  -8  -1    2.17    2.12
  -5   0   5    0.24    1.86
  -5   0   8   10.78    2.16
  -4   0   3  260.57    2.90
  -4   0  10  385.32    3.26
  -3   0   2   31.53    2.02
  -3   1   6   10.72    2.06
  -3   1   7  133.97    2.37
  -2   1   9   10.34    1.79
  -1  -8  -3   81.86    2.66
  -1  -5  -3  851.44    4.10
   0   1  11    3.24    1.90
   0   2   6 2661.17    5.96
   0   2   7    0.30    1.93
   1  -3  -3 1903.91    6.17
   1   2   4    1.77    1.89
   1   2   9  203.94    2.69
   2  -7  -4  483.04    3.88
   2  -5  -4 1177.67    4.14
   3  -2  -3  923.78    4.48
   4   2   2 2271.91    8.11
   6  -3  -4  682.10    4.11
   6   3   7   70.45    2.68
   7   3   8    1.69    2.49
   8  -7  -5   -1.28    1.85
   8  -6  -5    1.10    1.81
   9   3   9  160.07    3.17
  10  -6  -5    3.24    2.67
  11  -6  -5   61.92    2.90
  12  -6  -5    1.74    2.37
  14   3   5    3.37    3.24
  15  -3  -4   -2.18    1.91
  17  -2  -3  577.87    5.19
  -7  -1   6    2.15    1.77
  -7  -1   7   73.43    1.66
  -7  -1   8    1.22    2.24
  -5  -5  -1 1315.63    5.13
  -5  -1   2   38.85    2.74
  -3  -8  -2   -1.16    1.98
  -3   1   5  497.01    3.19
  -3   1   8    7.59    2.32
  -2  -9  -2  151.59    3.12
  -1  -7  -3  362.42    3.23
  -1  -6  -3  276.05    2.90
   0  -4  -3    0.39    2.00
   0  -2  -2 4380.90   10.45
   0   2   5    2.26    1.88
   0   2   8  878.58    3.90
   2  -6  -4   22.21    1.80
   2   2   3  100.97    2.51
   2   2  10   36.66    1.97
   3  -8  -4   -1.55    1.92
   3  -5  -4   23.91    2.27
   5   3   6    2.63    2.35
   6   3   8  272.73    2.78
   7  -3  -4   15.02    2.40
   8   3   9    1.34    1.97
  11   0  -2    0.10    2.93
  13   2   1  741.07   11.12
  14  -3  -4   77.40    2.42
 -10  -4   7   -0.92    2.16
  -8  -2   9    1.62    2.19
  -6  -8   0   43.23    2.29
  -6  -1   3    1.94    2.11
  -5  -7  -1  548.87    3.69
  -5  -6  -1    7.16    1.94
  -5   0   4   80.54    1.95
  -3  -7  -2    0.13    2.14
  -3  -5  -2    1.79    1.95
  -3   1   9   77.85    2.69
   0  -8  -3   -0.03    2.17
   0   2   9    0.28    2.30
   1   2  10    2.53    2.43
   3  -6  -4    5.91    2.29
   4  -8  -4   89.05    2.84
   4   3   6  320.07    2.94
   4   3   7   32.85    2.46
   5   3   5 1179.38    4.89
   5   3   8   -0.23    1.90
   6   3   9   -0.28    2.68
   7   2   1 1362.62    8.91
   7   3   4   14.57    2.24
  13   3   4   22.37    2.98
  15  -4  -4    1.61    2.76
  15   3   5  350.74    4.88
  16  -2  -3    0.34    2.57
  17  -1  -2    1.28    3.08
 -10  -4   8  280.72    3.69
  -8  -8   2   35.58    2.44
  -8  -4   2  334.71    7.62
  -7  -8   1  163.06    3.09
  -7  -4   1 1041.25    7.66
  -7  -1   9   51.61    1.88
  -6   0   7   18.91    2.04
  -5  -3   0   -0.43    2.37
  -5   0  10   39.84    2.35
  -4   1   7   43.69    2.10
  -3  -6  -2    3.35    1.97
  -2  -8  -2   35.53    2.52
  -2   1   3   90.37    2.38
  -1  -9  -2   -2.24    2.50
  -1   2   6  131.71    2.28
  -1   2   7  607.76    3.00
  -1   2   8   69.17    2.34
   0  -7  -3   -1.09    2.28
   0  -5  -3    1.67    2.26
   1   1   1  154.90    3.32
   3  -1  -2   31.40    2.27
   4  -7  -4  234.68    3.01
   4  -6  -4  375.26    3.31
   4  -5  -4  577.82    3.53
   4   3   8  170.18    2.41
   5  -8  -4    4.34    1.97
   5   3   9  353.35    3.18
   6  -8  -4   54.67    2.90
  14  -4  -4  306.68    3.92
  18  -3  -3    1.79    2.46
  -7  -1  10    1.51    2.10
  -6  -7   0  247.11    3.36
  -6   0   6  510.46    2.86
  -6   0   8  557.22    3.09
  -4  -8  -1   -0.43    2.20
  -4  -4  -1    0.23    2.17
  -4   1   6  464.92    2.74
  -4   1   8  224.36    2.27
  -3   1  10   47.96    2.05
  -2  -4  -2  221.33    2.64
  -2  -2  -1   33.47    2.35
  -1  -3  -2   15.87    1.91
  -1   2   5  411.92    2.99
  -1   2   9  213.92    2.90
   0  -6  -3    0.87    2.03
   0   2   4 3021.60    6.79
   0   2  10  447.36    3.15
   1  -8  -3   84.37    2.08
   1  -4  -3  663.28    3.53
   3   2   2   18.13    2.11
   3   3   6    9.13    2.26
   3   3   7  108.14    2.10
   3   3   8    7.89    2.33
   4   3   5    4.85    1.71
   4   3   9   -0.20    1.82
   5  -7  -4    5.41    2.31
   5  -6  -4   11.55    2.24
   5  -5  -4    9.80    2.18
   7  -4  -4    1.15    2.34
  13  -4  -4   18.63    2.61
  15  -5  -4    1.33    2.27
  15  -2  -3   19.61    2.42
  16   3   5   -0.31    2.87
  19  -2  -2    2.04    2.82
 -10  -4   5   16.18    2.94
  -9  -7   3  226.35    4.63
  -9  -3   4   81.27    3.18
  -9  -2   7  149.58    2.54
  -9  -2   8    2.82    2.09
  -8  -1   7    8.16    1.78
  -7  -1   4   35.31    2.22
  -6  -6   0  125.21    2.96
  -6  -5   0  600.85    4.14
  -6   0   9   -0.26    1.66
  -4   1   5   12.31    1.96
  -4   1   9    2.09    1.75
  -2  -7  -2  637.19    3.90
  -2   0   1   41.13    2.43
  -2   2   7  156.88    2.49
  -2   2   8  108.30    2.31
  -1   1   2   39.54    2.11
  -1   2  10    1.33    2.24
   0  -9  -2   -0.96    2.50
   1  -7  -3  361.57    3.35
   1   2   3 1508.37    5.49
   2  -8  -3    4.17    2.55
   2   3   7    8.45    2.34
   2   3   8  733.16    3.88
   3   3   5  333.31    3.09
   3   3   9   62.11    2.12
   4   3  10   71.51    2.97
  14  -5  -4   40.29    2.19
  15   3   4   -0.14    3.21
 -10  -3   7    0.17    2.71
 -10  -3   8    1.79    2.49
  -9  -2   6    6.18    1.90
  -9  -2   9   62.36    2.44
  -8  -1   6 1284.33    4.61
  -8  -1   8  405.93    3.28
  -8  -1   9    9.99    2.04
  -7  -7   1   78.27    2.60
  -6   0  10  221.89    3.05
  -4  -7  -1    3.06    2.11
  -4  -1   1  104.75    4.92
  -4   1  10  120.02    2.84
  -3  -3  -1  337.69    3.26
  -2  -6  -2  106.53    2.48
  -2  -5  -2 1690.40    5.44
  -2   2   6  266.84    2.67
  -2   2   9   70.08    2.49
  -1  -8  -2   -0.25    2.65
   1  -6  -3  266.21    3.03
   1  -5  -3  866.01    3.73
   1  -2  -2    4.16    1.63
   2   3   6  920.66    4.13
   2   3   9    5.12    2.45
   3   3  10   31.95    2.69
   4   3   4 1256.59    5.25
   6   2   1    2.18    2.83
   7  -6  -4   -0.32    2.08
   7  -5  -4    4.32    1.67
   9  -7  -4   10.58    2.38
  10  -7  -4   41.52    2.53
  11  -6  -4   10.33    2.71
  12  -6  -4   41.02    2.88
  12  -5  -4  324.40    3.47
  12   3   3   17.73    2.66
  13  -6  -4    3.42    1.98
  16  -3  -3    0.07    2.68
  16   0  -1    9.30    3.13
 -10  -3   6    9.44    2.36
  -8  -7   2  252.30    3.64
  -7   0   7  571.21    3.28
  -7   0   8   40.76    2.24
  -5  -8   0    0.40    1.95
  -5   1   6    0.37    1.89
  -5   1   7 1424.45    4.25
  -5   1   8    1.99    1.51
  -5   1   9  498.45    3.50
  -4  -9   0   52.38    2.61
  -4  -6  -1    1.06    2.02
  -4  -5  -1    3.34    1.84
  -3  -8  -1  325.71    3.33
  -2  -9  -1    2.76    2.12
  -2   2  10   37.74    2.63
  -1   2   4    3.72    1.92
   1  -9  -2   -1.46    2.52
   1   3   7  353.48    3.16
   1   3   8    6.30    2.26
   2  -7  -3    2.88    2.25
   2   3   5    7.59    2.13
   2   3  10  246.77    3.29
   3  -8  -3  110.46    2.42
   4  -1  -2 1210.09    6.23
   9  -6  -4    6.50    1.83
  12  -2  -3    0.09    1.81
  13   3   3  325.11    4.79
  15  -1  -2   -0.06    2.68
  17  -4  -3  344.20    4.23
  18  -2  -2  168.20    3.93
  19  -1  -1  346.80    5.72
  19   0   0    2.25    3.49
 -11  -5   7   90.72    4.15
  -9  -2   5  302.29    3.27
  -8  -1  10  265.17    3.47
  -7  -6   1  478.31    4.17
  -7   0   6   24.36    1.99
  -5   0   3  489.94    3.79
  -5   1  10   28.27    2.29
  -4   1   4 2247.59    6.11
  -3   2   7 1051.73    4.04
  -3   2   8    3.60    2.19
  -3   2   9  579.02    3.54
  -2   2   5   45.49    1.58
  -1  -7  -2    1.06    2.31
  -1  -4  -2    0.23    2.06
   0  -8  -2  377.81    3.71
   0  -3  -2   -0.39    1.93
   1   3   6   32.87    1.71
   1   3   9  337.73    2.82
   2  -6  -3   10.83    2.34
   2  -5  -3    9.90    1.70
   2   2   2  558.29    4.37
   3   3   4   74.96    2.51
   4  -8  -3    5.30    1.92
   6   3   3    2.84    2.20
   8   4   7   53.46    2.62
   8   4   8   46.14    3.00
   9   4   7   79.15    2.98
   9   4   8   -4.01    2.93
  10   4   7   -0.18    2.87
  10   4   8  263.57    4.50
  11   4   7  134.58    3.45
  15  -3  -3  361.46    3.43
  16  -4  -3    0.30    2.83
  16   3   4  150.79    4.58
  -9  -6   3  335.43    5.30
  -7   0  10   -0.32    2.39
  -6  -8   1    0.04    2.12
  -5  -7   0   -0.20    2.40
  -3   1   3   11.99    2.19
  -3   2   6    2.92    1.91
  -3   2  10   20.75    2.35
  -1  -9  -1   36.75    2.83
  -1  -6  -2   -0.14    2.31
  -1  -5  -2    1.54    2.18
   0   2   3    0.85    1.49
   0   3   7  754.89    3.79
   0   3   8    0.15    1.58
   0   3   9    2.24    2.36
   1   3  10    0.30    1.93
   2  -9  -2  141.07    2.76
   3  -6  -3  355.33    3.39
   4  -7  -3    4.22    2.56
   5  -8  -3    5.05    1.96
   5  -1  -2   37.71    2.28
   5   3   3 2546.18    7.71
   6  -8  -3    5.06    2.56
   6   4   7    4.61    2.24
   6   4   8  240.42    3.28
   7   4   8   22.05    2.06
   7   4   9  253.79    3.73
   9   4   6    2.05    2.65
  11   4   6    6.31    2.78
  12   4   7    0.60    3.08
  14  -3  -3    4.20    2.49
  14  -1  -2  125.53    3.27
  14   3   3    2.92    3.55
  15   1   0   -0.67    4.16
  17  -2  -2    1.55    2.63
  -9  -1   8    3.12    1.99
  -8  -6   2  136.44    3.42
  -7  -8   2    1.23    2.46
  -6   1   7  103.86    2.24
  -6   1   8  410.05    3.11
  -6   1   9    1.72    2.21
  -5   1   5 1660.98    4.81
  -4  -8   0  242.57    3.61
  -4   0   2 4327.79   12.24
  -3  -9   0    1.73    2.20
  -3  -7  -1   60.48    1.78
  -2  -8  -1    2.90    2.35
   0  -7  -2   -2.19    2.30
   0   3   6    1.91    2.05
   0   3  10    2.81    2.48
   1  -8  -2    2.19    2.22
   1   3   5  958.10    4.02
   2  -2  -2  590.99    4.02
   5  -7  -3  469.01    3.74
   5   2   1    5.86    2.96
   5   4   7    2.51    2.43
   5   4   9    3.00    2.47
   6  -3  -3    3.11    2.15
   6   4   9    1.21    1.97
   7  -8  -3  119.24    2.53
   7   4   6   21.53    2.59
  13  -3  -3  300.03    3.37
  15  -5  -3  158.55    3.60
  15  -4  -3   15.90    2.11
  18  -1  -1   10.84    3.37
 -10  -3   5    1.89    2.66
 -10  -2   7   -0.09    2.08
  -9  -5   3  608.31    8.55
  -9  -1   7  587.89    3.57
  -8  -8   3    0.93    2.12
  -8  -5   2  629.40    5.95
  -8   0   8   96.81    2.53
  -8   0   9    1.54    2.14
  -6   1   6  531.69    3.14
  -5  -6   0    1.62    2.38
  -5  -4   0    0.36    1.95
  -4   2   7   60.58    2.38
  -4   2   8  416.83    2.76
  -4   2   9    0.92    2.37
  -3  -6  -1  892.18    4.38
  -3  -4  -1 1988.60    6.40
  -3   2   5 1402.20    4.65
  -2   2   4   35.96    2.12
  -1   3   7  344.00    2.94
  -1   3   8    7.01    1.52
  -1   3   9  335.69    3.16
   0  -9  -1   -1.08    2.50
   0  -4  -2 1996.46    6.05
   2  -8  -2   34.50    2.54
   2   3   4 2349.38    6.39
   4  -6  -3   18.23    1.82
   4   3   3    3.39    2.20
   4   4   7   29.19    2.48
   4   4   8  245.09    3.31
   4   4   9    7.46    2.79
   5   4   6    3.52    2.27
   6   4   6  288.61    2.81
   8   4   5    0.26    2.11
  10   4   5   15.29    2.61
  12  -3  -3   18.44    1.91
  13  -1  -2    0.25    2.48
  14  -6  -3    2.31    2.56
  14  -5  -3    0.94    2.58
  14  -4  -3   -2.24    2.44
  16  -2  -2  215.36    3.66
 -11  -5   6    0.54    3.81
  -9  -1   6   -0.39    1.79
  -8   0   7  121.57    2.18
  -8   0  10   89.89    2.58
  -5  -5   0   -0.86    2.25
  -4   2   6 1087.33    4.15
  -4   2  10  341.62    3.00
  -3  -5  -1  173.61    2.63
  -1  -8  -1  185.37    3.19
  -1  -2  -1 2275.36    8.12
  -1   3   6   35.68    2.06
  -1   3  10   -0.73    1.83
   0  -6  -2  985.03    4.15
   0  -5  -2    1.98    2.32
   0   3   5   26.67    2.21
   1  -7  -2    3.26    2.44
   1  -3  -2   15.21    1.49
   3   4   8   -1.54    2.73
   3   4   9  335.91    3.73
   4   0  -1    1.09    2.66
   8  -7  -3    5.11    2.30
  11  -7  -3   23.78    1.93
  11   4   5  194.93    3.67
  12  -6  -3    3.02    2.75
  12  -4  -3    3.52    2.50
  12  -1  -2 1582.21    6.77
  13  -6  -3  225.87    3.42
  13  -5  -3  161.28    3.09
  13  -4  -3  522.64    3.56
  14   4   6  249.42    4.75
  17   3   4   15.72    3.64
  18   1   1    9.39    4.44
 -11  -3   8    0.03    2.38
 -10  -2   6  584.82    3.94
  -8   0   6  265.60    2.58
  -7  -1   3  223.65    3.67
  -7   1   8    0.17    2.06
  -6  -7   1    0.83    2.14
  -6  -3   1   22.48    3.18
  -5   2   8    6.47    2.15
  -4  -9   1    1.37    2.16
  -2  -9   0   61.57    2.23
  -2  -7  -1    3.17    1.59
  -2  -3  -1    5.57    1.89
  -2   3   8  736.13    3.46
  -2   3   9    5.29    2.21
  -1   2   3 1549.28    5.55
   1  -9  -1   31.83    2.43
   1   2   2    3.85    2.24
   1   3   4    5.25    2.25
   2   4   8   67.04    2.81
   3  -8  -2   -0.69    1.94
   3  -2  -2   19.78    1.77
   3   4   7  627.98    3.50
   6  -5  -3    2.61    1.63
   6   4   5   -2.42    2.41
   8  -6  -3    0.98    2.35
   8  -4  -3    6.65    2.38
  11  -1  -2    1.89    2.17
  12  -5  -3   12.75    2.40
  13   4   5  276.27    4.63
  15  -2  -2    4.91    2.51
  15   3   3  371.27    6.34
  17  -1  -1   23.21    3.36
  18   0   0  109.65    4.17
  19  -2  -1   72.72    3.53
 -11  -4   6    4.41    3.21
  -8  -2   3   16.03    2.48
  -8  -1   4 1018.95    5.18
  -7   1   7   68.17    2.24
  -6   1   5    3.79    1.98
  -5  -8   1    0.11    2.10
  -5   1   4  133.85    2.02
  -5   2   7    2.74    2.13
  -4  -7   0  249.00    3.13
  -3  -8   0    0.18    2.04
  -2  -1   0  249.58    6.37
   0  -8  -1    0.82    2.53
   1  -6  -2    1.24    1.61
   1  -4  -2    0.44    2.14
   2  -9  -1    1.74    2.53
   2  -7  -2  597.78    3.55
   2   4   7   74.31    2.73
   3   3   3   16.59    1.69
   3   4   6    0.90    2.42
   4  -8  -2  164.76    2.78
   5  -8  -2   -1.37    2.72
   5   4   5    0.45    2.38
   9   3   2    7.25    3.07
  10  -5  -3   19.04    1.96
  16  -3  -2  199.38    3.32
  17  -4  -2   -1.64    2.84
 -10  -1   8    0.50    2.12
 -10  -1   9   14.60    2.28
  -9  -2   4   42.60    2.82
  -9   0   8   -0.71    1.94
  -9   0   9   69.34    2.52
  -7  -7   2    0.15    2.49
  -4   1   3   23.32    1.66
  -4   2   5   11.34    1.49
  -3   2   4  101.49    2.39
  -3   3   8    3.12    2.14
  -3   3  10   32.57    2.44
  -2  -6  -1    1.06    1.73
  -2   3   6  951.68    3.65
  -1  -9   0   -1.49    2.31
  -1  -7  -1  132.97    2.78
  -1   3   5  965.45    3.91
   1  -5  -2    4.35    1.68
   1   4   7  367.58    3.27
   1   4   9  133.27    2.45
   2  -6  -2   99.73    2.64
   2  -3  -2 3855.69    8.37
   2   4   6  162.55    2.86
   3  -9  -1   15.36    2.65
   3  -7  -2   -1.54    2.55
   4   2   1    3.08    2.23
   4   4   5    6.55    2.48
   6  -8  -2   92.73    2.95
   7   3   2   -0.74    2.47
   9   4   4   14.82    2.73
  11   3   2    0.65    3.63
  14   4   5    1.17    3.45
 -11  -2   8    5.35    2.65
 -10  -1   7    0.22    1.86
  -9  -1   5  547.20    3.65
  -7   0   4   12.33    2.00
  -7   1   6    0.71    1.41
  -6  -8   2  117.15    2.83
  -6  -6   1    0.34    2.10
  -6   0   3  113.57    2.75
  -6   2   8  451.00    3.17
  -6   2   9    1.49    2.43
  -6   2  10  185.55    2.89
  -4  -6   0  787.64    4.43
  -4  -3   0 1873.30    8.19
  -3  -9   1   13.20    2.29
  -3   3   7  107.39    1.85
  -2  -5  -1    3.91    2.11
  -2  -4  -1    6.34    1.48
   0   3   4    1.95    1.55
   0   4   8  589.84    3.82
   0   4  10  238.87    3.31
   1  -8  -1  182.78    3.09
   2  -5  -2 1670.15    5.70
   2   3   3   20.52    2.33
   3   4   5  862.12    4.48
   4  -7  -2  167.03    2.93
   7   4   4    3.82    2.30
   8  -8  -2   27.08    2.10
   9  -8  -2   -2.51    1.84
  15  -3  -2   -0.21    2.78
  16  -4  -2  147.89    2.77
  16  -1  -1    7.26    3.21
  18  -2  -1    1.50    2.55
 -11  -3   6    0.99    2.43
  -9  -7   4   13.29    2.61
  -8  -7   3    4.51    2.40
  -8   0   5    1.63    1.79
  -8   1   8  417.62    3.00
  -8   1   9    8.14    1.67
  -8   1  10  263.22    3.22
  -6  -1   2 1243.17    7.70
  -6   2   7   15.85    2.05
  -4  -8   1   -1.62    2.44
  -4   3   8  165.39    2.65
  -4   3  10   85.30    2.70
  -3  -7   0    2.73    2.27
  -3   3   6    7.97    2.01
  -2  -8   0   61.31    2.03
  -2   2   3  116.69    2.13
   0  -9   0    2.32    2.29
   0  -7  -1    2.54    2.35
   0   2   2 4272.71   10.55
   0   4   7   -1.67    2.31
   1   4   6   85.74    2.76
   3  -6  -2    0.53    2.29
   3  -3  -2    9.66    2.16
   5  -7  -2   -1.34    2.27
   5   0  -1    0.96    2.82
   6  -7  -2  132.51    2.93
   7   5   8    2.46    2.62
   8   5   8  136.20    3.72
  12  -7  -2  212.03    3.63
  12   0  -1    2.58    3.32
  12   3   2 1350.14    9.87
  12   4   4  104.19    3.95
  14  -6  -2  172.28    3.33
  14  -3  -2   92.85    3.06
  15  -5  -2   -0.56    2.66
  15  -4  -2    2.61    2.88
  15   4   5    9.13    3.45
  19  -1   0   -1.11    3.47
 -11  -2   7  241.12    3.20
 -10  -2   5   28.38    2.26
  -9   0   6    9.87    1.72
  -8   1   7    9.20    1.96
  -7  -8   3  148.75    3.15
  -6  -5   1    5.07    2.66
  -5  -7   1  595.40    4.23
  -5   2   5    0.67    2.21
  -4   3   7   37.20    2.28
  -2  -9   1   -2.40    2.44
  -1  -6  -1  509.43    3.34
  -1  -3  -1  292.48    3.25
  -1   3   4    4.97    2.25
  -1   4   8   45.13    2.47
  -1   4   9  131.62    2.38
   1  -9   0    1.92    2.62
   2  -8  -1    1.38    1.82
   2   4   5   24.28    2.45
   4  -6  -2  510.72    3.78
   5   3   2   14.64    2.46
   7  -7  -2    0.45    2.28
   9  -7  -2    3.26    2.46
   9   5   7  194.26    4.12
  10  -7  -2   23.44    2.39
  10   5   7    4.11    3.06
  11  -7  -2   -1.23    1.81
  11  -2  -2    2.14    2.44
  14  -5  -2   48.13    2.67
  14  -4  -2  402.82    3.85
  16   3   3    2.66    4.35
  17  -2  -1  546.98    4.84
  17   0   0   -1.07    2.98
 -10  -1   6   16.22    1.94
 -10   0   9   25.82    2.35
  -7   1   5  119.73    2.38
  -7   2   8   34.73    2.18
  -7   2   9  498.06    3.45
  -7   2  10    1.13    2.43
  -6  -4   1    0.82    2.35
  -6   1   4 1299.26    5.15
  -6   2   6  473.20    3.09
  -5   3   9  370.66    3.37
  -4  -4   0 1891.59    7.17
  -4   2   4 1548.39    5.10
  -3  -2   0    0.25    2.35
  -2   4   9   38.33    2.36
  -1  -8   0    0.17    2.64
  -1  -5  -1  267.05    3.15
  -1   4   7  380.89    3.16
   0  -2  -1    0.13    1.34
   0   4   6 1679.14    5.03
   1  -7  -1  123.60    2.83
   1   3   3 1883.08    6.13
   3  -8  -1  289.13    3.01
   3   2   1 4147.40   13.33
   4   4   4  818.70    4.62
   4   5   8   84.63    2.97
   4   5   9   -0.67    1.98
   5  -6  -2    4.81    2.20
   5   5   7  494.85    4.15
   7  -2  -2    0.10    2.21
   9  -2  -2   11.78    2.57
  11  -6  -2   -1.18    2.60
  11   5   7   86.85    3.81
  12  -6  -2   26.78    2.65
  13  -5  -2    1.34    2.63
  13  -4  -2    3.15    2.56
  13  -3  -2    1.78    1.71
  13   4   4   16.26    3.05
  15  -1  -1  745.54    5.53
 -12  -3   8  226.28    4.35
 -11  -1   8    1.36    2.14
 -11  -1   9  159.62    3.14
 -10   0   8  566.67    3.58
  -9   1   9  282.82    3.15
  -8   1   6 1383.56    4.66
  -7  -6   2   -2.53    2.27
  -7  -2   2   -0.19    3.55
  -7   2   7  499.66    3.09
  -5   3   8   -1.23    1.73
  -5   3  10   17.32    2.06
  -4   3   6  368.42    3.01
  -3  -6   0    2.57    2.17
  -3   3   5  368.09    3.09
  -2  -7   0  238.31    3.17
  -2   4   8   66.60    1.93
  -1  -9   1   37.03    2.71
  -1  -4  -1 1225.66    5.27
   0  -6  -1   -2.12    2.42
   1   4   5  319.55    2.78
   2  -9   0   61.09    2.30
   2  -1  -1   57.29    2.70
   3   4   4   27.69    2.56
   3   5   8    5.74    2.76
   3   5   9   29.14    2.30
   4  -8  -1    1.54    2.01
   4   3   2  849.94    5.35
   4   5   7   12.11    2.71
   5  -8  -1    1.13    2.66
   6   0  -1   11.57    2.81
   7   5   6    2.87    2.85
   9  -6  -2    0.95    2.38
   9   5   6    2.48    2.97
  10   5   6    7.64    3.08
  11  -3  -2    1.52    2.51
  12  -5  -2  641.69    4.35
  12  -4  -2   48.30    2.86
  12  -3  -2 1235.03    5.12
 -11  -2   6   12.06    2.67
 -10   0   7   -0.69    1.91
  -9   1   8   -0.85    1.57
  -6  -7   2  171.59    3.53
  -5  -8   2    1.16    2.15
  -5   0   2    5.12    2.26
  -5   3   7 1101.57    4.35
  -3  -8   1  308.64    3.46
  -3   4   9  359.66    3.43
  -2   3   4 2587.97    6.68
  -2   4   7   79.77    1.98
  -1   4   6   94.74    1.98
   0  -8   0 1042.97    5.28
   0   4   5    2.25    2.23
   2  -7  -1    0.76    1.82
   2   5   8  347.73    3.92
   2   5   9    3.82    2.14
   3  -9   0    0.27    1.97
   5   5   6    4.04    2.62
   6  -8  -1    3.03    2.41
   7  -8  -1  118.62    3.20
   7  -5  -2   -0.68    2.47
   7  -3  -2    1.47    2.43
   8  -8  -1    0.84    2.68
   9  -5  -2    5.19    2.52
   9  -3  -2   10.38    2.53
  10   0  -1    4.01    2.50
  11  -5  -2    1.44    1.81
  11  -4  -2    1.23    2.50
  11   5   6   -0.56    3.19
  13   1   0   -0.45    3.76
  13   3   2    1.53    4.28
  14  -1  -1    7.02    2.83
  14   4   4  254.67    5.85
  16  -2  -1    8.03    2.46
  17   1   1   23.92    4.69
 -12  -4   7    0.19    3.00
 -11  -1   7  280.27    3.15
  -9   0   5  395.81    3.16
  -9   1   7  610.12    3.44
  -8   2   8   83.03    2.19
  -8   2   9    3.24    2.15
  -7   2   6   28.59    1.96
  -6   2   5    2.03    2.28
  -6   3   8  291.63    3.10
  -6   3   9    1.31    1.84
  -3   4   8   -2.94    1.75
  -1   1   1  164.05    3.48
  -1   2   2    3.44    2.28
   0  -9   1   -1.45    2.81
   0  -5  -1   29.49    2.51
   0  -3  -1  151.86    2.90
   1  -8   0    3.88    2.62
   1  -6  -1  502.46    3.74
   1   5   8    5.27    2.72
   1   5   9  161.04    2.86
   2   4   4   40.52    2.71
   3  -7  -1   55.31    2.50
   3   3   2   10.86    2.33
   4  -9   0   49.47    2.17
   4   5   6  159.70    3.16
   8   0  -1  104.36    3.36
   8   4   3    3.20    2.63
   9   4   3  640.24    5.26
  12   5   6  281.35    4.67
  15  -6  -1   13.04    2.78
  16  -5  -1    3.08    2.71
  16  -3  -1    2.22    2.60
  16   0   0  261.94    4.61
  19  -2   0   -1.28    2.69
  19   0   1   96.90    4.35
 -12  -2   8    0.60    2.39
 -11   0   9   93.13    2.53
 -10  -3   4  300.85    5.45
 -10  -1   5    6.92    2.62
  -9  -1   4  119.18    2.71
  -6  -8   3    2.29    2.61
  -5   2   4   67.10    2.46
  -5   3   6    1.39    2.25
  -4   3   5    6.08    2.21
  -3  -5   0   -0.69    2.24
  -3   4   7  700.38    3.71
  -2  -8   1    4.37    2.44
  -2   4   6  178.75    2.24
  -1  -7   0    2.51    2.16
   0  -4  -1    0.79    2.22
   0   5   8    3.98    2.33
   0   5   9    1.64    2.72
   1  -2  -1 2399.34    8.45
   1   5   7  205.39    3.18
   3   1   0    0.37    4.07
   4  -7  -1    1.39    2.29
   8   5   5    6.47    2.73
  12  -7  -1   -0.74    2.38
  14  -6  -1    1.00    2.76
  15  -2  -1   57.19    2.88
  16  -4  -1    0.92    2.68
 -11  -4   5  210.70    6.94
 -11   0   8    3.81    2.02
 -10   1   8    2.33    1.96
 -10   1   9   15.30    1.75
  -9   1   6   -1.59    1.86
  -8  -6   3    3.39    2.32
  -8   1   5   20.86    1.60
  -8   2   7  110.66    2.42
  -7   3   9   35.17    2.58
  -6   3   7   79.33    1.92
  -4   4   8  274.92    2.67
  -3   3   4   91.39    2.52
  -2  -9   2  173.00    3.29
  -2  -6   0  173.29    2.74
  -1   3   3 1949.39    6.52
  -1   4   5  345.40    2.78
  -1   5   9  178.25    3.27
   1  -9   1   40.35    2.67
   1  -5  -1  263.99    3.23
   1   4   4    0.34    1.90
   2  -8   0   55.08    2.56
   2  -6  -1    2.57    1.73
   2   2   1   32.86    2.53
   2   5   6  531.67    3.89
   5  -7  -1  464.06    3.42
   6   5   5   -0.70    1.80
   7  -7  -1   63.93    2.76
   8  -7  -1    2.51    2.35
   9  -7  -1  165.78    2.97
  10  -7  -1   -0.48    2.37
  10   5   5    4.51    2.95
  11   4   3   44.20    3.57
  15  -3  -1  544.60    4.62
  15   4   4    3.24    3.88
 -12  -2   7    1.17    2.43
 -11  -3   5  369.20    5.46
 -11  -1   6    1.48    2.24
  -9   2   9   63.80    2.48
  -8  -1   3   25.86    2.16
  -7  -7   3   19.04    2.40
  -7  -5   2    0.45    2.62
  -7   3   8   -0.71    2.31
  -5  -5   1 1548.05    6.91
  -5   4   9    1.75    2.51
  -3  -7   1   67.90    2.66
  -3  -4   0    0.38    2.27
  -3  -3   0    0.08    2.23
  -1  -8   1  181.36    3.32
  -1   5   8    5.73    2.67
   0  -7   0    2.60    2.26
   0   5   7  368.92    3.10
   1   5   6   20.42    2.57
   2  -9   1   -1.25    2.71
   2   3   2 4046.44   10.34
   3  -8   0   -3.29    2.46
   3  -6  -1  836.54    4.05
   3  -1  -1  469.32    4.34
   4   5   5    2.26    2.62
  12  -6  -1    4.50    2.70
  12  -1  -1   11.32    2.48
  12   1   0 1257.75   10.14
  14  -5  -1    3.48    2.46
  17  -1   0    1.01    2.93
  18  -2   0  100.07    3.13
 -12  -1   8  356.24    4.03
 -10  -6   5    4.58    3.47
 -10   1   7    1.25    2.04
  -9  -6   4    2.96    3.03
  -9   2   8    3.58    2.17
  -8   2   6  262.60    2.88
  -7   2   5 1727.27    5.59
  -7   3   7   55.61    2.18
  -6   1   3    0.56    2.37
  -6   3   6  441.55    3.39
  -5  -7   2    2.47    2.44
  -5   4   8    7.22    2.36
  -4  -6   1    2.03    2.33
  -2   2   2  643.69    4.60
  -2   4   5   24.66    1.80
  -2   5   9    1.56    2.70
  -1  -6   0   -0.23    2.60
  -1   5   7  204.88    3.08
   0   4   4 1747.31    5.68
   1  -7   0    0.24    2.67
   1  -4  -1 1189.83    5.06
   1  -3  -1  292.26    3.39
   2  -5  -1    1.19    2.46
   3   4   3  672.32    4.64
   3   5   5  156.97    3.14
   4  -8   0  212.34    2.89
   4  -6  -1    1.76    1.84
   5  -8   0    2.36    2.77
  10  -6  -1   -1.27    2.48
  11  -6  -1  158.55    3.03
  12   4   3    0.60    3.32
  12   5   5   -0.87    3.19
  13  -5  -1   31.61    2.81
  14  -4  -1    5.93    2.54
  14  -3  -1    5.42    2.61
  19   1   2    1.95    3.99
 -11   1   9  158.43    2.78
 -10  -2   4 1951.15    9.25
  -9   2   7  156.04    2.43
  -8   3   9    2.22    2.37
  -6  -6   2  408.42    3.96
  -6   4   9   -0.84    2.33
  -5  -8   3    9.79    3.02
  -4   4   6  683.02    3.83
  -3  -8   2    0.89    2.59
  -3   5   9   28.58    2.46
  -2  -5   0  442.23    3.72
  -2   3   3   20.61    2.34
   0   5   6   -0.20    2.66
   2  -2  -1   25.50    2.21
   2   5   5    4.63    2.66
   4  -1  -1   57.92    2.29
   6  -6  -1   -1.95    2.39
   6   6   7    2.66    2.76
   7  -8   0    1.03    1.95
   7   6   7  123.22    3.58
   8  -6  -1    1.26    2.31
   8   6   7   23.99    3.14
   9  -8   0   -0.51    1.95
  11  -1  -1 1065.10    5.82
  13  -4  -1  470.25    3.90
  13   5   5   53.65    3.89
  18   0   1   -1.76    3.55
 -12  -1   7    9.21    2.38
 -11  -2   5  380.18    4.51
 -11   1   8    2.55    1.88
 -10   2   9   21.86    2.39
  -9  -7   5   88.44    3.34
  -9   1   5  640.27    3.87
  -8   3   8  326.48    3.18
  -6   4   8  274.77    3.26
  -3   4   5 1027.38    4.43
  -3   5   8    2.06    2.58
  -2  -7   1    5.34    2.36
  -2   5   7    6.66    2.57
  -1   4   4    2.04    2.52
  -1   5   6   20.06    2.50
   0  -9   2   -0.24    2.15
   1   3   2   18.54    1.88
   2  -7   0  203.52    2.66
   2  -4  -1    8.01    1.71
   2  -3  -1    4.39    2.37
   2   4   3   46.83    2.83
   3   6   8    1.95    2.09
   5   6   7   -0.32    2.98
   7   5   4    5.00    2.74
   9   5   4   40.08    3.47
  10  -1  -1   23.84    2.62
  11  -5  -1  398.18    3.54
  12  -7   0  156.19    3.37
  12  -4  -1   -0.57    2.87
  13  -3  -1   65.84    2.15
  15  -6   0   -0.24    2.37
  16  -1   0  227.30    4.02
  17  -4   0    3.85    2.55
  17  -3   0   -0.75    2.80
 -13  -2   8    3.89    2.92
 -12   0   8    1.47    2.25
 -11   0   6   19.06    2.70
 -10   1   6   21.19    2.15
 -10   2   8  520.60    3.65
  -9   0   4   62.30    2.29
  -8   3   7    4.95    2.04
  -7   3   6    3.40    2.40
  -6   3   5    1.16    2.37
  -5  -4   1   15.44    2.39
  -5  -2   1    6.55    4.41
   0  -6   0 3279.17    7.85
   1  -8   1  170.91    2.74
   1   5   5  514.32    3.55
   1   6   8   19.47    2.73
   3  -7   0    2.15    1.79
   3  -2  -1 3632.12   10.09
   3   6   7  283.52    3.82
   5   5   4   11.77    2.72
   8  -5  -1    3.79    2.40
  10  -5  -1    3.27    1.99
  11  -4  -1  362.50    3.68
  12  -3  -1    7.27    2.56
  16   1   1   10.88    3.58
  16   4   4   59.91    5.50
 -12  -2   6   20.41    2.54
 -11   1   7  265.40    2.86
  -9   2   6    6.21    2.26
  -9   3   9  194.29    3.02
  -8   2   5   -0.82    2.43
  -7  -4   2    0.31    2.74
  -7   4   9  309.02    3.13
  -6  -8   4   76.46    2.98
  -6  -7   3    2.50    2.50
  -6   0   2 2298.95    8.78
  -6   4   7    8.49    2.34
  -5   4   6    2.06    1.80
  -4  -7   2  200.23    3.20
  -4   4   5    5.25    2.23
  -4   5   8   94.34    2.85
  -3  -6   1  954.16    5.00
  -2  -8   2   35.72    2.39
  -1  -7   1  128.02    2.90
  -1  -5   0    1.06    2.50
   0   3   2    2.11    2.39
   0   5   5   15.41    2.85
   1  -6   0    0.62    2.69
   1   4   3  763.17    4.72
   2  -9   2  142.92    3.34
   2  -8   1    3.34    2.40
   3  -3  -1  341.91    3.59
   3   5   4   27.52    2.64
   4  -7   0  205.75    2.62
   4   5   4  585.38    4.04
   5  -7   0    3.28    2.65
   7  -7   0    3.33    2.53
   7   6   6    9.70    3.07
   8   6   6   62.17    3.64
   9  -7   0    0.50    2.39
  10  -7   0    5.86    1.96
  10  -4  -1    0.67    2.51
  11  -3  -1  747.01    4.60
  11  -2  -1  598.07    3.95
  11   1   0    1.47    3.72
  11   5   4   61.03    3.90
  13  -6   0   -0.66    2.95
  14   5   5   -2.08    3.12
 -13  -1   8   -1.27    2.89
 -12   0   7   -0.55    1.99
 -11  -1   5  513.11    4.32
 -10   2   7   -2.07    2.17
  -9   3   8    2.66    2.13
  -8  -5   3   11.84    3.07
  -7   4   8   25.50    1.94
  -5  -3   1 3186.44   13.40
  -4  -8   3    8.17    2.65
  -4  -5   1    3.95    2.15
  -3   3   3   20.45    1.80
  -2  -2   0  882.69    6.97
   1   6   7  157.69    3.52
   3  -8   1  257.53    3.01
   3   6   6    2.95    2.53
   4  -3  -1   14.21    2.44
   4  -2  -1    3.05    2.51
   4   6   6  248.72    3.90
  10  -2  -1    2.16    2.60
  10   6   6  162.82    4.56
  12  -6   0    2.01    2.70
  15  -1   0    1.68    2.86
 -10  -1   4  428.01    4.12
  -9  -2   3 1337.26    9.80
  -8   0   3   26.05    2.22
  -7  -6   3  501.11    4.76
  -7   4   7  367.55    3.44
  -5  -6   2    4.35    2.61
  -5   5   8    0.86    2.52
  -4   5   7   16.29    1.79
  -3   5   6    5.79    2.50
  -1  -8   2    2.04    1.90
  -1   6   8   19.08    2.30
   0  -7   1    4.77    2.59
   0  -5   0    0.78    2.58
   0   4   3   -0.96    1.99
   0   6   7   -0.27    2.98
   2  -6   0  160.46    2.39
   2   5   4 1253.13    5.22
   2   6   6   78.29    3.21
   5  -8   1    1.66    2.23
   5  -2  -1    3.83    2.58
   6  -8   1    0.51    2.62
   8  -8   1   -1.98    2.32
   8  -3  -1   10.79    2.72
   8  -2  -1   63.53    2.71
   9  -8   1   22.28    2.13
   9  -3  -1  803.59    4.79
   9  -2  -1  291.49    3.48
  11  -6   0    4.83    2.67
  12   5   4  445.24    6.21
  15  -4   0    0.30    2.07
  18  -1   1    8.92    3.17
 -13  -3   7   25.46    3.63
 -13  -2   7  310.27    5.35
 -12   1   8  302.56    3.47
 -11   2   8    2.24    2.26
 -10   1   5    6.65    2.09
  -9   3   7  488.45    3.12
  -8   4   8   51.22    2.74
  -7  -7   4   -0.48    2.87
  -7  -1   2   -0.63    3.12
  -5   4   5    4.16    2.44
  -3  -8   3  140.67    3.26
  -3  -7   2   -0.30    2.53
  -2  -6   1    0.33    2.48
  -2   5   5    4.74    2.56
  -2   6   8   29.89    2.93
  -1  -4   0    0.54    2.49
  -1   3   2   18.51    2.68
   0  -8   2  379.46    4.13
   0   2   1    0.73    2.46
   1  -7   1  119.92    3.19
   1   5   4   -0.76    2.68
   1   6   6   45.13    3.10
   3  -6   0    3.19    1.74
   4  -6   0  650.30    4.30
   5   4   2    3.12    2.62
   6   6   5   -0.70    2.83
   7   4   2   -0.32    2.71
  10  -6   0  426.99    3.64
  13   0   0   -0.14    3.51
  15  -3   0    0.48    2.06
  18  -3   1    3.18    2.90
  18  -2   1   -0.88    3.02
 -13   0   8    1.85    2.45
 -11   1   6    1.71    2.41
 -10   3   8    3.48    2.28
  -9   1   4  117.46    2.49
  -6   5   8  155.42    3.16
  -5  -8   4    4.97    2.75
  -5  -7   3  598.90    4.89
  -5   5   7  623.61    3.66
  -4   3   3    0.47    2.61
   0   5   4   -0.87    2.57
   0   6   6  725.26    4.95
   1  -8   2    1.47    2.83
   4   4   2 1051.81    6.02
   4   6   5   -0.17    2.83
   5  -6   0    1.92    1.90
   5   3   1 2630.58   11.41
   5   6   5    2.36    3.12
   6   3   1   22.30    3.07
   7  -6   0   -2.22    2.38
   9   6   5  101.15    3.64
  11  -7   1  128.68    3.14
  12  -7   1   -1.76    2.01
  14  -1   0  214.97    3.72
  16  -5   1    2.04    2.70
 -12   0   6   26.81    2.54
 -12   1   7    8.31    2.30
 -11   2   7  251.89    3.05
  -9   3   6    3.69    2.52
  -8   4   7   72.91    2.77
  -4   4   4 1059.68    4.80
  -3  -5   1  177.50    3.10
  -3   6   8    0.79    2.08
  -2  -7   2  663.85    4.56
  -2   6   7   39.08    2.37
  -1  -6   1  504.58    4.21
   2  -8   2   31.18    2.80
   2  -7   1    1.65    1.91
   2  -5   0  383.83    3.85
   3  -7   1   47.30    2.68
   3   4   2    5.91    2.62
   3   6   5  412.44    4.19
   6   5   3    2.29    2.76
   7   5   3   49.99    3.15
  11  -5   0   -0.67    2.74
  13  -4   0   -0.04    2.57
  14  -6   1    3.71    2.13
  19   0   2   -1.03    3.30
  -6   4   5   -0.51    1.82
  -6   5   7   38.29    2.03
  -2  -8   3   -0.61    1.97
  -1   6   6   47.91    2.43
   9  -7   1  185.50    2.58
   0   0   0    0.00    0.00
_computing_structure_solution     'SHELXT 2018/2 (Sheldrick, 2018)'
;
_shelx_hkl_checksum              9582
_shelx_res_file
;
TITL 3_a.res in Pnma
    3.res
    created by SHELXL-2018/3 at 23:39:24 on 17-Dec-2019
REM Old TITL pyra3b in Pnma #62
REM SHELXT solution in Pnma: R1 0.068, Rweak 0.000, Alpha 0.016
REM <I/s> 0.798 for 100 systematic absences, Orientation as input
REM Formula found by SHELXT: C6 Br N2 O
CELL 0.71073 14.4984 6.7216 8.1125 90 90 90
ZERR 4 0.0018 0.002 0.0065 0 0 0
LATT 1
SYMM 0.5-X,-Y,0.5+Z
SYMM -X,0.5+Y,-Z
SYMM 0.5+X,0.5-Y,0.5-Z
SFAC C H Br N O
UNIT 24 36 4 8 4
EQIV $1 +X,0.5-Y,+Z
EQIV $2 0.5+X,+Y,1.5-Z
DFIX 1.6 0.001 H7a H7b H7a H7b_$1 H7b H7b_$1 H8a H8b H8a H8b_$1 H8b H8b_$1
DFIX 0.98 0.001 C7 H7a C7 H7b C7 H7b_$1 C8 H8a C8 H8b C8 H8b_$1
L.S. 20
PLAN  2
SIZE 0.03 0.197 0.35
TEMP -153.15
HTAB N2 Br1
HTAB N6 Br1_$2
BOND $H
list 4
fmap 2
acta
OMIT -2 58
REM <olex2.extras>
REM <HklSrc "%.\\3.hkl">
REM </olex2.extras>
WGHT    0.066600    0.208300
FVAR       0.63211
BR1   3    0.351959    0.250000    0.501265    10.50000    0.02234    0.02978 =
         0.01952    0.00000   -0.00044    0.00000
O1    5    0.583170    0.250000    0.813527    10.50000    0.02510    0.06925 =
         0.01687    0.00000    0.00280    0.00000
N2    4    0.577824    0.250000    0.532249    10.50000    0.01989    0.03036 =
         0.01760    0.00000    0.00059    0.00000
AFIX  43
H2    2    0.517129    0.250000    0.532890    10.50000   -1.20000
AFIX   0
N6    4    0.718482    0.250000    0.668073    10.50000    0.02172    0.03741 =
         0.01513    0.00000   -0.00047    0.00000
AFIX  43
H6    2    0.751254    0.250000    0.759377    10.50000   -1.20000
AFIX   0
C3    1    0.621009    0.250000    0.385462    10.50000    0.03056    0.02762 =
         0.01521    0.00000    0.00047    0.00000
C5    1    0.764052    0.250000    0.524320    10.50000    0.02303    0.02927 =
         0.02044    0.00000    0.00478    0.00000
C4    1    0.715380    0.250000    0.379080    10.50000    0.02720    0.03276 =
         0.01634    0.00000    0.00237    0.00000
AFIX  43
H4    2    0.746603    0.250000    0.276126    10.50000   -1.20000
AFIX   0
C1    1    0.623342    0.250000    0.682621    10.50000    0.02426    0.03666 =
         0.01878    0.00000   -0.00086    0.00000
C7    1    0.561082    0.250000    0.236190    10.50000    0.03266    0.04717 =
         0.01785    0.00000   -0.00343    0.00000
C8    1    0.866804    0.250000    0.529375    10.50000    0.02407    0.05661 =
         0.02731    0.00000    0.00203    0.00000
H7A   2    0.597114    0.250000    0.133990    10.50000    0.04889
H7B   2    0.522090    0.130982    0.239798    11.00000    0.06828
H8A   2    0.890228    0.250000    0.642717    10.50000    0.05690
H8B   2    0.889017    0.130987    0.471942    11.00000    0.05356
HKLF 4
REM  3_a.res in Pnma
REM wR2 = 0.0963, GooF = S = 1.088, Restrained GooF = 1.082 for all data
REM R1 = 0.0312 for 971 Fo > 4sig(Fo) and 0.0350 for all 1130 data
REM 75 parameters refined using 12 restraints
END
WGHT      0.0666      0.2083
REM Highest difference peak  0.735,  deepest hole -0.593,  1-sigma level  0.112
Q1    1   0.2929  0.1397  0.4909  11.00000  0.05    0.73
Q2    1   0.4206  0.1414  0.4807  11.00000  0.05    0.62
;
_shelx_res_checksum              17268
loop_
_space_group_symop_operation_xyz
'x, y, z'
'-x+1/2, -y, z+1/2'
'-x, y+1/2, -z'
'x+1/2, -y+1/2, -z+1/2'
'-x, -y, -z'
'x-1/2, y, -z-1/2'
'x, -y-1/2, z'
'-x-1/2, y-1/2, z-1/2'
loop_
_atom_site_type_symbol
_atom_site_label
_atom_site_fract_x
_atom_site_fract_y
_atom_site_fract_z
_atom_site_U_iso_or_equiv
_atom_site_adp_type
_atom_site_calc_flag
_atom_site_occupancy
_atom_site_disorder_assembly
_atom_site_disorder_group
Br Br1 0.35196(2) 0.250000 0.50127(2) 0.02388(16) Uani d 1 . .
O O1 0.58317(14) 0.250000 0.8135(2) 0.0371(5) Uani d 1 . .
N N2 0.57782(16) 0.250000 0.5322(3) 0.0226(4) Uani d 1 . .
H H2 0.517129 0.250000 0.532890 0.027 Uiso calc 1 . .
N N6 0.71848(15) 0.250000 0.6681(3) 0.0248(4) Uani d 1 . .
H H6 0.751254 0.250000 0.759377 0.030 Uiso calc 1 . .
C C3 0.6210(2) 0.250000 0.3855(3) 0.0245(5) Uani d 1 . .
C C5 0.7641(2) 0.250000 0.5243(3) 0.0242(5) Uani d 1 . .
C C4 0.71538(19) 0.250000 0.3791(3) 0.0254(5) Uani d 1 . .
H H4 0.746603 0.250000 0.276126 0.031 Uiso calc 1 . .
C C1 0.62334(19) 0.250000 0.6826(3) 0.0266(5) Uani d 1 . .
C C7 0.5611(2) 0.250000 0.2362(3) 0.0326(6) Uani d 1 . .
C C8 0.8668(2) 0.250000 0.5294(4) 0.0360(7) Uani d 1 . .
H H7A 0.5971(13) 0.250000 0.1340(16) 0.049(12) Uiso d 1 . .
H H7B 0.5221(2) 0.13098(8) 0.2398(17) 0.068(8) Uiso d 1 . .
H H8A 0.8902(18) 0.250000 0.6427(11) 0.057(11) Uiso d 1 . .
H H8B 0.8890(9) 0.13099(8) 0.4719(10) 0.054(9) Uiso d 1 . .
loop_
_atom_site_aniso_label
_atom_site_aniso_U_11
_atom_site_aniso_U_22
_atom_site_aniso_U_33
_atom_site_aniso_U_12
_atom_site_aniso_U_13
_atom_site_aniso_U_23
Br1 0.0223(2) 0.0298(2) 0.0195(2) 0.000 -0.00044(6) 0.000
O1 0.0251(9) 0.0693(15) 0.0169(9) 0.000 0.0028(7) 0.000
N2 0.0199(10) 0.0304(11) 0.0176(7) 0.000 0.0006(8) 0.000
N6 0.0217(9) 0.0374(12) 0.0151(8) 0.000 -0.0005(7) 0.000
C3 0.0306(13) 0.0276(12) 0.0152(10) 0.000 0.0005(10) 0.000
C5 0.0230(13) 0.0293(12) 0.0204(9) 0.000 0.0048(9) 0.000
C4 0.0272(12) 0.0328(13) 0.0163(10) 0.000 0.0024(9) 0.000
C1 0.0243(11) 0.0367(14) 0.0188(11) 0.000 -0.0009(10) 0.000
C7 0.0327(14) 0.0472(16) 0.0179(11) 0.000 -0.0034(10) 0.000
C8 0.0241(12) 0.057(2) 0.0273(11) 0.000 0.0020(12) 0.000
loop_
_atom_type_symbol
_atom_type_description
_atom_type_scat_dispersion_real
_atom_type_scat_dispersion_imag
_atom_type_scat_source
C C 0.0033 0.0016 'International Tables Vol C Tables 4.2.6.8 and 6.1.1.4'
H H 0.0000 0.0000 'International Tables Vol C Tables 4.2.6.8 and 6.1.1.4'
Br Br -0.2901 2.4595 'International Tables Vol C Tables 4.2.6.8 and 6.1.1.4'
N N 0.0061 0.0033 'International Tables Vol C Tables 4.2.6.8 and 6.1.1.4'
O O 0.0106 0.0060 'International Tables Vol C Tables 4.2.6.8 and 6.1.1.4'
loop_
_geom_angle_atom_site_label_1
_geom_angle_atom_site_label_2
_geom_angle_atom_site_label_3
_geom_angle_site_symmetry_1
_geom_angle_site_symmetry_3
_geom_angle
_geom_angle_publ_flag
C3 N2 H2 . . 118.1 ?
C3 N2 C1 . . 123.9(2) ?
C1 N2 H2 . . 118.1 ?
C5 N6 H6 . . 117.8 ?
C5 N6 C1 . . 124.4(2) ?
C1 N6 H6 . . 117.8 ?
N2 C3 C4 . . 119.9(2) ?
N2 C3 C7 . . 116.6(3) ?
C4 C3 C7 . . 123.5(2) ?
N6 C5 C4 . . 119.5(3) ?
N6 C5 C8 . . 118.0(3) ?
C4 C5 C8 . . 122.5(2) ?
C3 C4 C5 . . 118.8(2) ?
C3 C4 H4 . . 120.6 ?
C5 C4 H4 . . 120.6 ?
O1 C1 N2 . . 122.8(3) ?
O1 C1 N6 . . 123.6(3) ?
N6 C1 N2 . . 113.5(2) ?
C3 C7 H7A . . 112.1(14) ?
C3 C7 H7B . . 108.2(7) ?
C3 C7 H7B . 7_565 108.2(7) ?
H7A C7 H7B . . 109.44(13) ?
H7A C7 H7B . 7_565 109.44(13) ?
H7B C7 H7B . 7_565 109.43(16) ?
C5 C8 H8A . . 111.8(16) ?
C5 C8 H8B . 7_565 108.4(8) ?
C5 C8 H8B . . 108.4(8) ?
H8A C8 H8B . 7_565 109.39(13) ?
H8A C8 H8B . . 109.39(13) ?
H8B C8 H8B . 7_565 109.40(16) ?
loop_
_geom_bond_atom_site_label_1
_geom_bond_atom_site_label_2
_geom_bond_site_symmetry_2
_geom_bond_distance
_geom_bond_publ_flag
O1 C1 . 1.211(3) ?
N2 H2 . 0.8800 ?
N2 C3 . 1.345(3) ?
N2 C1 . 1.387(3) ?
N6 H6 . 0.8800 ?
N6 C5 . 1.340(3) ?
N6 C1 . 1.384(3) ?
C3 C4 . 1.369(3) ?
C3 C7 . 1.490(4) ?
C5 C4 . 1.373(4) ?
C5 C8 . 1.490(4) ?
C4 H4 . 0.9500 ?
C7 H7A . 0.9799(12) ?
C7 H7B 7_565 0.9800(8) ?
C7 H7B . 0.9800(8) ?
C8 H8A . 0.9802(12) ?
C8 H8B 7_565 0.9802(8) ?
C8 H8B . 0.9802(8) ?
loop_
_geom_hbond_atom_site_label_D
_geom_hbond_atom_site_label_H
_geom_hbond_atom_site_label_A
_geom_hbond_site_symmetry_A
_geom_hbond_distance_DH
_geom_hbond_distance_HA
_geom_hbond_distance_DA
_geom_hbond_angle_DHA
_geom_hbond_publ_flag
N2 H2 Br1 . 0.88 2.41 3.284(2) 173.5 yes
N6 H6 Br1 6_657 0.88 2.43 3.308(3) 175.7 yes

_cod_database_fobs_code 2022134
