#------------------------------------------------------------------------------
#$Date: 2022-11-08 21:40:22 +0200 (Tue, 08 Nov 2022) $
#$Revision: 279112 $
#$URL: file:///home/coder/svn-repositories/cod/cif/2/02/26/2022676.cif $
#------------------------------------------------------------------------------
#
# This file is available in the Crystallography Open Database (COD),
# http://www.crystallography.net/. The original data for this entry
# were provided by IUCr Journals, http://journals.iucr.org/.
#
# The file may be used within the scientific community so long as
# proper attribution is given to the journal article from which the
# data were obtained.
#
data_2022676
loop_
_publ_author_name
'Bosch, Eric'
'Bowling, Nathan P.'
'Speetzen, Erin D.'
_publ_section_title
;
 A structural and computational comparison of close contacts and related
 intermolecular energies of interaction in the structures of
 1,3-diiodo-5-nitrobenzene, 1,3-dibromo-5-nitrobenzene, and
 1,3-dichloro-5-nitrobenzene
;
_journal_coeditor_code           DV3019
_journal_issue                   10
_journal_name_full               'Acta Crystallographica Section C'
_journal_page_first              552
_journal_page_last               558
_journal_paper_doi               10.1107/S2053229622009275
_journal_volume                  78
_journal_year                    2022
_chemical_formula_iupac          'C6 H3 Br2 N O2'
_chemical_formula_sum            'C6 H3 Br2 N O2'
_chemical_formula_weight         280.91
_chemical_name_systematic
;
1,3-Dibromo-5-nitrobenzene
;
_space_group_crystal_system      monoclinic
_space_group_IT_number           11
_space_group_name_Hall           '-P 2yb'
_space_group_name_H-M_alt        'P 1 21/m 1'
_atom_sites_solution_hydrogens   geom
_atom_sites_solution_primary     dual
_audit_creation_method           SHELXL-2018/3
_cell_angle_alpha                90
_cell_angle_beta                 96.486(2)
_cell_angle_gamma                90
_cell_formula_units_Z            2
_cell_length_a                   3.9721(7)
_cell_length_b                   14.164(2)
_cell_length_c                   6.7971(11)
_cell_measurement_reflns_used    2304
_cell_measurement_temperature    100(2)
_cell_measurement_theta_max      27.05
_cell_measurement_theta_min      2.88
_cell_volume                     379.96(11)
_computing_cell_refinement
;
SMART (Bruker, 2014)
;
_computing_data_collection
;
SMART (Bruker, 2014)
;
_computing_data_reduction
;
SAINT (Bruker, 2014)
;
_computing_molecular_graphics
;
X-SEED (Barbour, 2020)
;
_computing_publication_material
;
X-SEED (Barbour, 2020)
;
_computing_structure_refinement
;
SHELXL2018 (Sheldrick, 2015b)
;
_computing_structure_solution
;
SHELXT2018 (Sheldrick, 2015a)
;
_diffrn_ambient_temperature      100(2)
_diffrn_detector_area_resol_mean 8.3660
_diffrn_measured_fraction_theta_full 1.000
_diffrn_measured_fraction_theta_max 1.000
_diffrn_measurement_device_type  'Bruker APEX-I CCD'
_diffrn_measurement_method       'phi and omega scans'
_diffrn_radiation_monochromator  graphite
_diffrn_radiation_source         'fine-focus sealed tube'
_diffrn_radiation_type           MoK\a
_diffrn_radiation_wavelength     0.71073
_diffrn_reflns_av_R_equivalents  0.0440
_diffrn_reflns_av_unetI/netI     0.0355
_diffrn_reflns_limit_h_max       5
_diffrn_reflns_limit_h_min       -5
_diffrn_reflns_limit_k_max       18
_diffrn_reflns_limit_k_min       -18
_diffrn_reflns_limit_l_max       8
_diffrn_reflns_limit_l_min       -8
_diffrn_reflns_number            4446
_diffrn_reflns_theta_full        25.242
_diffrn_reflns_theta_max         27.137
_diffrn_reflns_theta_min         2.876
_exptl_absorpt_coefficient_mu    10.609
_exptl_absorpt_correction_T_max  0.7455
_exptl_absorpt_correction_T_min  0.3431
_exptl_absorpt_correction_type   multi-scan
_exptl_absorpt_process_details
;
(SADABS; Bruker, 2014)
;
_exptl_crystal_colour            colourless
_exptl_crystal_density_diffrn    2.455
_exptl_crystal_description       'cut plate'
_exptl_crystal_F_000             264
_exptl_crystal_size_max          0.38
_exptl_crystal_size_mid          0.26
_exptl_crystal_size_min          0.09
_refine_diff_density_max         1.039
_refine_diff_density_min         -0.521
_refine_ls_extinction_method     none
_refine_ls_goodness_of_fit_ref   1.085
_refine_ls_hydrogen_treatment    constr
_refine_ls_matrix_type           full
_refine_ls_number_parameters     55
_refine_ls_number_reflns         874
_refine_ls_number_restraints     0
_refine_ls_restrained_S_all      1.085
_refine_ls_R_factor_all          0.0355
_refine_ls_R_factor_gt           0.0291
_refine_ls_shift/su_max          0.001
_refine_ls_shift/su_mean         0.000
_refine_ls_structure_factor_coef Fsqd
_refine_ls_weighting_details
'w=1/[\s^2^(Fo^2^)+(0.0519P)^2^] where P=(Fo^2^+2Fc^2^)/3'
_refine_ls_weighting_scheme      calc
_refine_ls_wR_factor_gt          0.0780
_refine_ls_wR_factor_ref         0.0812
_reflns_number_gt                764
_reflns_number_total             874
_reflns_threshold_expression     'I > 2\s(I)'
_cod_data_source_file            dv3019sup1.cif
_cod_data_source_block           2
_cod_depositor_comments
'Adding full bibliography for 2022675--2022677.cif.'
_cod_original_cell_volume        379.97(11)
_cod_original_sg_symbol_H-M      'P 21/m'
_cod_database_code               2022676
_cod_database_fobs_code          2022676
_shelx_space_group_comment
;
The symmetry employed for this shelxl refinement is uniquely defined
by the following loop, which should always be used as a source of
symmetry information in preference to the above space-group names.
They are only intended as comments.
;
_shelx_hkl_file
;
  -1   0   0  301.67   16.70
  -1   0   0  312.77   17.00
  -1   0   0  311.87   16.80
  -1   0   0  313.07   17.10
  -2   0   0  942.01   50.79
  -2   0   0  952.90   51.19
  -2   0   0  956.60   50.49
  -2   0   0  943.31   51.09
  -3   0   0 1251.87   66.39
  -3   0   0 1234.38   67.19
  -3   0   0 1257.97   66.79
  -3   0   0 1222.28   67.39
  -4   0   0  321.37   21.30
  -4   0   0  326.87   19.80
   4   0   0  351.86   21.70
  -4   0   0  315.57   20.60
  -5   0   0   16.80    8.20
  -1  -1   0  465.25   26.30
  -1  -1   0  502.15   26.10
  -1  -1   0  475.75   26.10
  -1  -1   0  488.55   26.40
  -1   1   0  499.35   26.80
  -1   1   0  493.45   26.00
  -1   1   0  481.25   26.20
  -1   1   0  512.95   26.50
  -2  -1   0  375.46   20.40
  -2  -1   0  365.56   20.80
  -2  -1   0  371.36   20.20
  -2  -1   0  356.26   20.70
  -2   1   0  359.46   20.00
  -2   1   0  380.46   21.10
  -2   1   0  367.66   20.40
  -2   1   0  375.06   20.90
  -3  -1   0   20.50    3.90
  -3  -1   0   15.00    4.20
  -3  -1   0   19.90    3.30
  -3  -1   0   14.50    3.90
  -3   1   0   22.40    4.00
  -3   1   0   17.80    3.00
  -3   1   0   19.40    4.40
  -4  -1   0  124.39   12.00
  -4  -1   0  125.79   10.50
  -4  -1   0  138.89   11.10
   4  -1   0  137.59   12.80
  -4   1   0  134.39   11.70
  -4   1   0  130.79   12.10
  -5  -1   0    2.20    7.60
   5   1   0   -1.00    7.60
   0  -2   0  407.46   21.80
   0  -2   0  408.86   21.60
   0   2   0  406.26   21.80
   1  -2   0 1935.91  101.89
  -1  -2   0 1914.01  102.09
  -1  -2   0 2004.20  101.89
  -1  -2   0 1853.11  101.49
  -1   2   0 1918.01  101.59
  -2  -2   0  115.89    7.80
  -2  -2   0  118.59    7.30
  -2  -2   0  119.89    8.00
  -2  -2   0  117.09    7.50
   2  -2   0  115.89    8.10
  -2   2   0  123.09    8.70
  -2   2   0  114.59    7.60
   3  -2   0 1021.20   54.59
  -3  -2   0  995.00   53.59
  -3  -2   0 1025.40   53.79
  -3  -2   0  968.90   54.19
  -3  -2   0  981.70   54.39
  -3   2   0  983.00   53.89
  -3   2   0  987.00   54.69
  -4  -2   0  215.98   16.10
  -4  -2   0  237.68   15.10
  -4  -2   0  222.38   16.50
   4  -2   0  232.28   17.00
  -4   2   0  223.38   16.00
  -4   2   0  224.48   16.60
  -5   2   0   -1.10    8.20
   0  -3   0    0.50    0.80
   0  -3   0    0.40    0.50
   0   3   0   -0.10    0.60
  -1  -3   0 2212.88  115.39
   1  -3   0 2231.78  115.69
  -1   3   0 2090.39  116.59
  -1   3   0 2172.58  115.39
   1   3   0 2222.28  115.69
  -2  -3   0  980.20   53.99
   2  -3   0 1028.90   54.19
  -2  -3   0  988.90   53.49
  -2  -3   0 1034.20   54.19
  -2   3   0  994.70   53.69
  -2   3   0  985.60   55.19
  -3  -3   0   34.10    4.80
  -3  -3   0   34.00    5.40
   3  -3   0   37.80    5.60
  -3  -3   0   38.30    4.30
  -3   3   0   35.50    5.70
  -3   3   0   32.30    4.70
   4  -3   0  160.48   14.00
  -4  -3   0  152.38   11.90
  -4  -3   0  146.99   12.80
  -4  -3   0  149.39   13.20
   4   3   0  136.89   12.00
  -4   3   0  152.98   13.40
  -4   3   0  157.08   12.80
   0  -4   0  465.95   25.40
   0  -4   0  459.35   25.00
   0   4   0  472.95   25.40
   1  -4   0  141.59    8.90
  -1  -4   0  137.59    8.30
   1   4   0  144.59    8.70
  -1   4   0  142.99    8.40
  -1   4   0  157.98    9.60
   2  -4   0    5.50    2.90
  -2  -4   0    3.30    1.80
  -2  -4   0    3.70    2.30
  -2   4   0    5.30    3.90
  -2   4   0    5.20    2.30
   2   4   0    3.10    2.30
  -3  -4   0  213.88   13.30
   3  -4   0  214.78   14.70
  -3  -4   0  198.68   13.80
  -3   4   0  213.08   13.80
  -3   4   0  234.78   15.70
  -4  -4   0   37.10    8.00
  -4  -4   0   30.60    5.90
   4  -4   0   45.40    7.90
   4   4   0   37.40    8.60
  -4   4   0   41.30    7.70
  -4   4   0   40.30    7.00
   4   4   0   42.00    7.60
   0  -5   0   -2.50    1.40
   0  -5   0   -4.00    0.80
   0   5   0   -4.40    1.00
  -1  -5   0 2277.97  122.39
   1  -5   0 2304.57  122.99
  -1  -5   0 2057.69  124.19
  -1   5   0 2586.24  123.59
  -1   5   0 2310.37  122.49
   1   5   0 2368.36  122.89
   2  -5   0 2599.04  135.19
  -2  -5   0 2478.95  135.39
  -2  -5   0 2517.15  134.49
   2   5   0 2559.24  135.09
  -2   5   0 2547.65  134.69
   3  -5   0   29.00    5.40
  -3  -5   0   19.50    3.80
  -3  -5   0   19.20    4.30
  -3   5   0   21.90    4.50
  -3   5   0   18.40    5.90
   3   5   0   25.60    4.90
  -4  -5   0  324.07   20.50
   4  -5   0  322.07   21.90
  -4   5   0  334.47   22.50
   4   5   0  318.87   21.80
  -4   5   0  313.37   20.90
   0  -6   0   33.60    3.50
   0  -6   0   32.40    2.50
   0   6   0   33.80    3.20
   1  -6   0  202.88   12.20
  -1  -6   0  197.28   11.40
  -1  -6   0  189.38   13.60
  -1   6   0  201.28   11.50
  -1   6   0  213.88   12.50
   1   6   0  193.68   11.90
  -2  -6   0   19.40    2.80
  -2  -6   0   14.90    4.00
   2  -6   0   20.50    3.90
  -2   6   0    8.40    5.60
   2   6   0   24.50    3.80
  -2   6   0   21.50    3.30
  -3  -6   0  257.97   15.50
  -3  -6   0  255.57   16.30
   3  -6   0  266.47   17.00
   3   6   0  261.67   16.70
  -3   6   0  240.58   16.00
  -3   6   0  232.08   18.70
  -4  -6   0   53.09    7.10
   4  -6   0   47.70    8.70
  -4   6   0   62.29    9.80
   4   6   0   57.59    8.80
  -4   6   0   57.89    8.00
   0  -7   0   -0.80    1.00
   0  -7   0   -0.30    1.70
   0   7   0   -0.30    1.40
  -1  -7   0 1154.68   62.79
   1  -7   0 1149.78   63.59
  -1  -7   0 1205.78   64.89
  -1   7   0 1167.88   62.89
  -1   7   0 1211.38   63.79
   1   7   0 1193.58   63.49
  -2  -7   0  760.72   41.40
   2  -7   0  775.42   42.30
  -2  -7   0  763.62   43.90
   2   7   0  789.02   42.20
  -2   7   0  680.93   45.00
  -2   7   0  796.62   41.70
   3  -7   0   37.80    6.50
  -3  -7   0   33.60    4.70
  -3  -7   0   35.00    5.50
   3   7   0   43.40    6.30
  -3   7   0   28.30    8.10
  -3   7   0   37.70    5.50
   4  -7   0  194.98   16.40
  -4  -7   0  199.18   14.60
  -4   7   0  185.28   15.00
  -4   7   0  179.38   18.70
   4   7   0  175.08   15.80
   0  -8   0 1995.90  106.99
   0  -8   0 2045.40  108.09
   0   8   0 2035.50  107.89
  -1  -8   0  496.85   27.80
  -1  -8   0  538.95   30.20
   1  -8   0  493.05   28.70
  -1   8   0  527.85   28.90
   1   8   0  506.75   28.60
  -1   8   0  507.55   27.90
   2  -8   0  322.67   19.40
  -2  -8   0  318.37   18.20
  -2  -8   0  298.87   21.70
  -2   8   0  318.07   18.40
  -2   8   0  308.37   22.20
   2   8   0  323.97   19.10
   3  -8   0  458.65   27.70
  -3  -8   0  457.45   26.20
   3   8   0  454.15   27.30
  -3   8   0  456.75   26.60
   4  -8   0  118.79   14.10
  -4  -8   0  133.09   12.50
  -4   8   0  135.99   12.90
   4   8   0  111.19   13.50
   0  -9   0    0.50    2.40
   0  -9   0   -0.40    1.30
   0   9   0    0.80    2.00
  -1  -9   0  239.88   13.50
   1  -9   0  224.68   14.70
  -1  -9   0  245.18   16.20
   1   9   0  215.18   14.20
  -1   9   0  235.78   13.60
  -1   9   0  245.48   14.80
  -2  -9   0  142.99    9.60
   2  -9   0  155.88   11.40
  -2  -9   0  112.79   13.60
  -2   9   0  137.49   13.90
  -2   9   0  151.38   10.00
   2   9   0  152.68   10.70
  -3  -9   0    1.90    3.40
   3  -9   0    1.20    5.30
  -3  -9   0    4.80    4.50
  -3   9   0    2.10    4.30
  -3   9   0   -5.60    8.20
   3   9   0    2.30    4.60
  -4  -9   0   39.80    7.30
   4  -9   0   54.99    9.80
  -4   9   0   49.60    8.50
   4   9   0   51.89    9.40
   0 -10   0 3478.45  182.18
   0 -10   0 3472.55  180.68
   0  10   0 3324.77  181.78
  -1 -10   0  349.17   19.90
   1 -10   0  348.67   21.30
  -1 -10   0  369.96   22.70
  -1  10   0  356.76   21.30
   1  10   0  360.06   20.90
  -1  10   0  348.87   20.00
   2 -10   0  223.38   15.30
  -2 -10   0  216.18   13.60
  -2  10   0  218.08   17.60
  -2  10   0  221.88   13.90
   2  10   0  225.18   14.70
   3 -10   0  779.92   44.60
  -3 -10   0  770.32   42.90
  -3  10   0  777.12   43.30
   3  10   0  766.02   44.10
   4 -10   0  193.28   18.50
  -4 -10   0  216.78   16.60
   4  10   0  224.18   17.90
  -4  10   0  207.08   17.00
   0 -11   0    0.90    1.60
   0 -11   0    0.60    2.90
   0  11   0    0.30    2.60
  -1 -11   0  182.88   11.10
  -1 -11   0  194.18   14.50
   1 -11   0  183.58   13.10
   1  11   0  176.78   12.30
  -1  11   0  178.18   12.70
  -1  11   0  178.08   11.20
   2 -11   0  127.79   10.90
  -2 -11   0   74.29   12.90
  -2 -11   0  111.99    8.40
  -2  11   0  109.69    8.80
   2  11   0  114.19    9.70
  -2  11   0  118.49   12.90
  -3 -11   0    9.60    4.30
   3 -11   0    5.30    6.60
   3  11   0    3.30    5.40
  -3  11   0   -8.10    9.10
  -3  11   0    3.50    4.90
   4 -11   0   49.90   10.60
  -4 -11   0   54.79    8.60
   4  11   0   57.89   10.30
  -4  11   0   64.39    9.60
   0 -12   0  212.68   12.70
   0 -12   0  221.18   15.00
   0  12   0  218.18   14.40
  -1 -12   0  512.55   28.10
  -1 -12   0  530.55   31.50
   1 -12   0  504.25   29.90
  -1  12   0  481.15   29.60
   1  12   0  510.05   29.30
  -1  12   0  496.35   28.10
   2 -12   0   43.10    7.20
  -2 -12   0   38.80    5.00
  -2 -12   0   24.80    9.00
   2  12   0   41.00    6.30
  -2  12   0   32.90    5.00
  -2  12   0   41.50    8.60
   3 -12   0  459.55   28.80
  -3 -12   0  444.46   26.30
  -3  12   0  446.36   26.70
   3  12   0  428.16   27.60
   0 -13   0    1.10    2.10
   0 -13   0    0.30    4.20
   0  13   0   -0.80    3.30
   1 -13   0  531.05   31.20
  -1 -13   0  521.45   32.70
  -1 -13   0  519.75   29.00
  -1  13   0  507.65   29.00
   1  13   0  526.35   30.50
  -1  13   0  521.65   30.90
  -2 -13   0  425.86   24.10
   2 -13   0  408.36   26.40
  -2  13   0  425.56   24.30
   2  13   0  410.56   25.40
  -2  13   0  391.86   27.80
   3 -13   0   14.10    7.90
  -3 -13   0   10.80    4.80
  -3  13   0    2.50   10.70
  -3  13   0   12.90    5.70
   3  13   0    8.00    6.30
   0 -14   0  429.26   24.40
   0 -14   0  442.56   27.30
   0  14   0  443.46   26.60
  -1 -14   0    4.50    2.90
  -1 -14   0    2.30    6.10
   1 -14   0    2.50    5.50
  -1  14   0    3.00    2.90
   1  14   0    3.60    4.00
  -1  14   0   -0.30    4.40
  -2 -14   0   23.20    9.80
   2 -14   0   42.10    8.50
  -2 -14   0   36.30    5.20
  -2  14   0   29.80    8.60
  -2  14   0   28.30    5.30
   2  14   0   49.10    7.60
  -3 -14   0   33.60    6.30
   3 -14   0   36.30    9.60
   3  14   0   34.50    8.30
  -3  14   0   50.99   23.50
  -3  14   0   31.40    6.70
   0 -15   0    6.00    5.80
   0  15   0    4.20    4.50
  -1 -15   0  486.55   27.60
  -1 -15   0  469.55   32.40
   1 -15   0  501.65   30.70
  -1  15   0  490.65   30.00
  -1  15   0  474.15   27.90
   1  15   0  497.65   29.50
   2 -15   0  717.83   42.50
  -2 -15   0  716.93   39.60
  -2  15   0  687.53   43.80
   2  15   0  698.13   41.30
  -2  15   0  713.13   39.80
   0 -16   0  116.69   12.90
   0  16   0   84.59   10.30
  -1 -16   0   27.10    4.60
   1 -16   0   27.60    8.10
  -1 -16   0   29.00    9.70
  -1  16   0   24.10    6.80
   1  16   0   28.00    6.70
   2 -16   0    3.80    7.80
  -2 -16   0    1.20    3.90
  -2  16   0    5.10    4.70
   2  16   0   -1.40    5.30
  -2  16   0    5.70    8.00
   0 -17   0   -2.80    6.90
   0  17   0    1.90    5.10
  -1 -17   0  367.76   22.30
   1 -17   0  374.46   26.40
  -1 -17   0  379.26   28.80
  -1  17   0  374.66   25.50
   1  17   0  392.56   25.00
   0 -18   0  522.25   34.30
   0  18   0  498.35   31.90
  -5   0   1  243.38   19.30
   5   0  -1  272.77   21.90
  -4   0   1  222.48   15.00
  -4   0   1  203.78   16.30
   4   0  -1  220.68   14.30
  -4   0   1  201.68   14.80
  -3   0   1   23.70    4.50
  -3   0   1   16.50    3.80
  -3   0   1   17.10    3.80
  -3   0   1   17.20    3.20
  -2   0   1 2989.00  157.88
  -2   0   1 3049.99  157.08
  -2   0   1 3000.90  157.08
  -2   0   1 2861.21  157.18
  -1   0   1 4871.31  250.57
   1   0  -1 4749.32  250.67
  -1   0   1 4668.93  251.07
   0   0   1   -0.10    1.60
   0   0   1    0.80    1.80
   0   0  -1    3.80    1.80
   0   0  -1   -0.50    1.50
  -1   0  -1 9769.92  512.65
  -1   0  -1 9476.35  513.45
   1   0   1 9999.00  512.85
   2   0   1 1259.37   67.59
  -2   0  -1 1234.18   67.69
  -2   0  -1 1283.17   67.29
  -2   0  -1 1291.27   68.79
  -3   0  -1    1.20    2.50
   3   0   1    3.70    3.60
  -3   0  -1    6.70    4.60
  -3   0  -1    4.70    3.50
  -4   0  -1  411.36   26.00
   4   0   1  395.26   29.20
   4   0   1  383.96   24.30
  -5  -1   1   -2.40    8.20
   5  -1  -1    6.70    8.90
  -5   1   1    5.30    7.60
  -4  -1   1   13.90    6.20
  -4  -1   1   11.80    5.20
   4  -1  -1    6.90    4.20
  -4  -1   1   12.80    5.10
  -4   1   1   17.80    5.80
  -4   1   1    8.50    4.90
  -3  -1   1  303.27   17.80
  -3  -1   1  294.57   18.40
   3  -1  -1  293.27   17.10
  -3  -1   1  303.57   17.40
  -3  -1   1  293.77   17.30
  -3   1   1  292.17   18.40
  -3   1   1  303.57   17.60
  -3   1   1  288.47   17.50
  -2  -1   1   12.00    2.10
  -2  -1   1    9.70    2.40
   2  -1  -1   16.90    2.20
  -2  -1   1   15.50    3.10
  -2  -1   1   12.10    2.20
  -2   1   1   14.60    3.00
  -2   1   1   16.30    2.50
  -2   1   1   12.80    2.20
   1  -1  -1   76.09    4.80
  -1  -1   1   81.39    5.80
  -1  -1   1   80.39    4.80
  -1   1   1   76.49    5.20
  -1   1   1   79.69    4.80
   1   1  -1   80.19    4.70
   0  -1   1  233.48   12.90
   0  -1  -1  233.48   12.70
   0  -1   1  225.28   12.60
   0  -1  -1  219.98   12.50
   0   1  -1  220.88   12.50
   0   1  -1  230.08   12.70
   0   1   1  234.18   12.90
  -1  -1  -1 1716.43   92.69
  -1  -1  -1 1795.52   93.39
   1  -1   1 1782.52   92.79
  -1   1  -1 1898.61   92.99
   1   1   1 1854.21   92.99
  -1   1  -1 1478.75   94.09
  -2  -1  -1  477.05   25.40
   2  -1   1  467.15   25.80
  -2  -1  -1  458.05   26.50
   2   1   1  470.35   25.70
  -2   1  -1  444.86   25.70
  -2   1  -1  465.45   25.20
  -2   1  -1  483.85   27.40
  -3  -1  -1  242.18   15.80
  -3  -1  -1  229.18   13.60
   3  -1   1  225.68   14.60
  -3   1  -1  211.08   13.30
  -3   1  -1  215.88   14.40
  -3   1  -1  232.08   16.20
   3   1   1  241.68   14.40
  -4  -1  -1   14.90    7.00
  -4  -1  -1   10.40    4.30
   4  -1   1   10.00    5.80
  -4   1  -1   15.40    7.30
   4   1   1   11.60    5.70
   5  -2  -1  207.38   19.00
  -5  -2   1  180.28   18.20
  -5   2   1  200.08   17.00
   5   2  -1  163.48   16.00
  -4  -2   1  198.78   15.60
   4  -2  -1  214.38   16.20
  -4  -2   1  189.38   13.80
   4  -2  -1  176.18   15.20
  -4  -2   1  205.48   14.00
  -4   2   1  191.58   15.20
  -4   2   1  206.98   14.70
   3  -2  -1  260.87   14.90
  -3  -2   1  261.47   15.00
  -3  -2   1  260.97   15.00
  -3  -2   1  240.48   16.20
  -3   2   1  240.48   15.20
  -3   2   1  243.98   15.40
  -3   2   1  241.78   16.10
  -2  -2   1 1492.55   82.59
   2  -2  -1 1648.64   82.59
  -2  -2   1 1601.04   83.69
  -2  -2   1 1574.54   82.39
   2   2  -1 1576.44   82.89
  -2   2   1 1462.15   82.69
  -2   2   1 1549.24   83.29
  -2   2   1 1549.54   82.69
  -1  -2   1  667.53   41.90
   1  -2  -1  797.22   40.80
  -1  -2   1  769.32   40.50
  -1   2   1  785.22   41.00
  -1   2   1  762.02   40.60
   1   2  -1  781.42   40.60
   0  -2   1  211.38   11.90
   0  -2  -1  206.38   11.60
   0  -2   1  208.18   11.40
   0   2  -1  208.68   11.80
   0   2  -1  207.58   11.40
   0   2   1  215.38   11.70
   1  -2   1  644.24   33.70
  -1  -2  -1  651.13   34.10
  -1  -2  -1  627.74   33.50
  -1   2  -1  529.95   35.50
   1   2   1  656.23   33.80
  -1   2  -1  642.64   33.70
   2  -2   1 1637.24   84.29
  -2  -2  -1 1609.84   83.89
  -2  -2  -1 1573.94   84.79
  -2   2  -1 1522.55   86.09
  -2   2  -1 1516.85   83.99
   2   2   1 1611.44   84.09
  -3  -2  -1    2.40    4.10
   3  -2   1    0.50    3.70
  -3  -2  -1    3.20    2.80
   3   2   1    0.40    3.40
  -3   2  -1    2.10    3.40
  -3   2  -1    9.30    5.50
  -4  -2  -1  270.47   17.50
  -4  -2  -1  267.57   19.90
   4  -2   1  274.57   18.80
   4   2   1  293.47   18.60
  -4   2  -1  265.37   18.70
  -4   2  -1  296.87   21.00
   5  -3  -1    3.00    8.80
  -5   3   1    2.40    8.00
  -4  -3   1  348.27   20.60
  -4  -3   1  309.57   21.70
   4  -3  -1  345.17   22.40
  -4  -3   1  307.17   20.00
  -4   3   1  331.97   21.10
   4   3  -1  340.87   21.40
   3  -3  -1  697.23   36.50
  -3  -3   1  656.83   37.70
  -3  -3   1  651.63   36.50
   3   3  -1  684.13   37.10
  -3   3   1  654.53   36.80
  -3   3   1  647.44   36.80
  -2  -3   1   85.39    7.60
   2  -3  -1   91.29    6.00
  -2  -3   1   80.29    5.70
  -2   3   1   80.59    6.10
  -2   3   1   79.69    6.00
   2   3  -1   81.69    6.10
  -1  -3   1  855.81   46.10
   1  -3  -1  850.91   46.50
   1   3  -1  893.21   46.40
  -1   3   1  869.71   46.20
   0  -3  -1 3884.71  214.58
   0  -3  -1 4057.29  214.58
   0  -3   1 4185.48  215.08
   0  -3   1 4217.98  214.98
   0   3   1 3996.80  214.88
   0   3  -1 4141.99  214.98
   0   3   1 4060.39  214.68
  -1  -3  -1  110.39    6.80
  -1  -3  -1  120.29    7.40
   1  -3   1  117.49    7.10
  -1   3  -1  109.69    6.80
  -1   3  -1  101.59    8.90
   1   3   1  119.79    7.70
  -2  -3  -1  312.47   18.20
  -2  -3  -1  314.67   17.30
   2  -3   1  319.97   17.80
  -2   3  -1  305.37   17.50
   2   3   1  315.27   17.60
  -2   3  -1  253.07   20.10
  -3  -3  -1  685.03   40.20
   3  -3   1  713.33   39.70
  -3  -3  -1  722.13   38.90
   3   3   1  709.83   39.30
  -3   3  -1  680.73   39.30
  -3   3  -1  764.32   42.20
  -4  -3  -1  124.29   13.30
   4  -3   1  120.29   12.40
  -4  -3  -1  140.39   11.00
  -4   3  -1  129.49   12.20
  -4   3  -1  129.79   14.90
   4   3   1  116.59   11.60
   4  -4  -1   23.50    7.40
  -4  -4   1   19.90    5.40
  -4  -4   1   20.60    6.80
   4   4  -1   20.60    6.40
  -4   4   1   26.90    6.50
  -3  -4   1   20.80    4.90
   3  -4  -1   21.40    5.20
  -3  -4   1   18.70    3.60
   3   4  -1   19.70    4.30
  -3   4   1   23.40    4.40
  -3   4   1   16.30    4.10
  -2  -4   1  264.67   16.50
   2  -4  -1  252.37   14.90
   2  -4  -1  248.98   15.20
  -2  -4   1  249.38   14.40
  -2   4   1  241.98   14.60
   2   4  -1  260.17   14.90
  -2   4   1  247.28   15.40
   1  -4  -1  256.87   14.60
  -1  -4   1  255.77   14.10
   1  -4  -1  243.98   14.50
  -1  -4   1  207.88   16.70
  -1   4   1  256.17   14.20
  -1   4   1  278.67   14.60
   1   4  -1  269.67   14.40
   0  -4  -1   53.39    3.80
   0  -4  -1   54.69    3.60
   0  -4   1   51.19    3.30
   0  -4   1   52.69    4.20
   0   4   1   49.99    3.70
   0   4   1   52.39    3.70
   0   4  -1   56.09    4.10
   1  -4   1  286.97   16.00
  -1  -4  -1  279.67   15.60
  -1   4  -1  273.77   15.60
  -1   4  -1  284.07   17.30
   2  -4   1  132.49    9.20
  -2  -4  -1  143.69    8.50
  -2  -4  -1  131.89    9.50
   2   4   1  137.29    9.10
  -2   4  -1  133.49    8.70
  -2   4  -1   93.29   12.20
  -3  -4  -1   24.00    3.90
   3  -4   1   19.10    4.90
  -3  -4  -1   21.70    5.30
  -3   4  -1   19.70    4.50
   3   4   1   23.20    4.60
  -3   4  -1   20.00    7.40
  -4  -4  -1   74.69    7.90
   4  -4   1   76.39    9.20
  -4  -4  -1   79.59   10.30
  -4   4  -1   81.69    9.20
  -4   4  -1   98.89   12.50
   4   4   1   68.49    8.60
  -4  -5   1  470.75   30.00
   4  -5  -1  485.55   30.40
  -4  -5   1  499.75   28.80
  -4   5   1  485.25   29.10
   4   5  -1  494.55   29.50
  -3  -5   1 1247.18   67.79
   3  -5  -1 1245.18   68.79
  -3  -5   1 1267.97   69.19
  -3   5   1 1223.38   67.99
   3   5  -1 1307.47   68.39
  -3   5   1 1264.57   68.49
   2  -5  -1  314.17   18.20
  -2  -5   1  306.77   19.90
  -2  -5   1  305.57   17.20
   2   5  -1  325.27   17.80
  -2   5   1  257.07   18.90
  -2   5   1  307.47   17.50
   1  -5  -1 3246.88  169.48
  -1  -5   1 3175.88  172.18
  -1  -5   1 3179.08  169.48
   1  -5  -1 3177.28  169.98
  -1   5   1 3333.47  169.88
  -1   5   1 3151.98  169.58
   1   5  -1 3230.58  169.88
   0  -5  -1 4102.79  214.58
   0  -5   1 4033.30  214.48
   0  -5  -1 3923.81  214.78
   0  -5   1 4191.98  215.38
   0   5   1 4079.39  214.88
   0   5   1 4014.90  214.58
   0   5  -1 4164.58  215.18
  -1  -5  -1  285.27   16.00
   1  -5   1  293.17   16.60
   1   5   1  252.37   16.90
  -1   5  -1  282.27   16.00
  -1   5  -1  319.27   17.70
   1   5   1  290.17   16.50
   2  -5   1  439.66   24.20
  -2  -5  -1  424.96   23.50
  -2   5  -1  378.86   27.70
   2   5   1  439.86   24.50
  -2   5  -1  413.56   23.60
   3  -5   1 1194.98   64.39
  -3  -5  -1 1159.88   64.69
  -3  -5  -1 1231.68   63.59
   3   5   1 1253.67   64.29
  -3   5  -1 1051.19   67.19
  -3   5  -1 1156.98   63.79
  -4  -5  -1  232.88   16.20
   4  -5   1  229.98   17.60
  -4   5  -1  253.37   21.20
  -4   5  -1  226.58   16.90
   4  -6  -1   15.90    7.30
  -4  -6   1   18.30    5.70
  -4  -6   1   15.90    6.90
  -4   6   1   17.40    6.40
   4   6  -1   17.60    6.70
   3  -6  -1   71.89    8.20
  -3  -6   1   76.69    7.00
  -3  -6   1   78.59    9.30
  -3   6   1   69.29    8.30
  -3   6   1   74.09    7.90
   3   6  -1   64.09    8.00
  -2  -6   1  255.07   14.60
  -2  -6   1  218.58   17.90
   2  -6  -1  259.17   15.70
   2   6  -1  260.87   15.20
  -2   6   1  253.07   14.80
   1  -6  -1   38.30    3.10
  -1  -6   1   36.60    3.20
   1  -6  -1   34.80    4.30
  -1  -6   1   39.50    6.40
  -1   6   1   34.40    3.40
  -1   6   1   34.90    3.70
   1   6  -1   33.30    3.70
   0  -6  -1   32.90    3.00
   0  -6   1   32.30    3.90
   0  -6   1   37.20    2.60
   0  -6  -1   32.10    3.50
   0   6   1   34.40    2.90
   0   6   1   31.50    3.20
   0   6  -1   37.70    3.70
  -1  -6  -1   69.79    5.20
   1  -6   1   72.09    6.00
  -1   6  -1   67.59    5.00
   1   6   1   73.59    5.70
  -1   6  -1   78.99    6.80
   2  -6   1  186.18   12.00
  -2  -6  -1  175.68   10.90
   2   6   1  176.68   11.70
  -2   6  -1  140.79   15.60
  -2   6  -1  186.48   11.30
  -3  -6  -1   43.20    5.20
   3  -6   1   48.20    6.70
  -3   6  -1   27.90    9.70
   3   6   1   38.70    6.20
   3   6   1   41.40    7.00
  -3   6  -1   47.30    5.90
  -4  -6  -1   79.29    8.50
   4  -6   1   82.59   10.00
  -4   6  -1   89.89   13.70
   4   6   1   83.39   10.60
  -4   6  -1   73.99    9.10
   4  -7  -1  205.78   17.80
  -4  -7   1  206.28   17.30
  -4  -7   1  221.88   15.90
  -4   7   1  222.78   16.50
   4   7  -1  225.88   16.90
   3  -7  -1  547.95   32.40
  -3  -7   1  563.04   33.40
  -3  -7   1  544.75   31.20
  -3   7   1  551.74   31.60
   3   7  -1  574.94   32.10
   2  -7  -1    2.60    3.20
  -2  -7   1    3.00    2.10
  -2  -7   1   -0.30    5.00
  -2   7   1    6.70    2.80
  -2   7   1    5.50    4.60
   2   7  -1    3.50    2.70
   1  -7  -1  215.48   13.30
  -1  -7   1  216.58   12.40
  -1  -7   1  243.48   15.70
   1  -7  -1  208.38   12.20
   1   7  -1  213.98   13.00
  -1   7   1  212.38   12.60
  -1   7   1  222.68   13.10
   0  -7   1 1942.01   99.89
   0  -7  -1 1869.41  100.59
   0  -7   1 1897.91  101.09
   0  -7  -1 1932.41  100.09
   0   7  -1 1908.01  100.89
   0   7   1 1837.92  100.59
   0   7   1 1855.61  100.09
   1  -7   1  511.65   29.20
  -1  -7  -1  516.35   28.40
  -1   7  -1  519.85   28.40
   1   7   1  524.35   29.00
  -1   7  -1  532.45   29.80
   2  -7   1  357.26   21.10
  -2  -7  -1  346.57   20.10
   2   7   1  358.76   21.00
  -2   7  -1  322.77   24.80
  -2   7  -1  367.86   20.40
  -3  -7  -1  687.73   38.70
   3  -7   1  725.33   40.00
   3   7   1  686.63   39.80
  -3   7  -1  689.03   39.00
   4  -7   1   64.49    9.60
  -4  -7  -1   70.29    8.30
   4   7   1   67.09   10.10
  -4   7  -1   64.79    8.90
  -4   7  -1   72.69   13.80
  -4  -8   1  122.59   11.80
   4  -8  -1  104.79   12.10
  -4  -8   1   82.39   11.90
  -4   8   1  112.69   12.50
   4   8  -1  121.49   12.80
  -3  -8   1   39.10    5.10
   3  -8  -1   52.99    7.40
  -3  -8   1   40.00    7.60
   3   8  -1   53.09    6.70
  -3   8   1   49.30    6.20
  -3   8   1   38.40    7.70
  -2  -8   1  950.00   49.90
   2  -8  -1  970.70   50.99
   2   8  -1  967.10   50.69
  -2   8   1  781.72   52.39
  -2   8   1  938.51   50.19
   1  -8  -1 1011.60   56.79
  -1  -8   1 1127.99   58.89
  -1  -8   1 1017.20   55.99
   1   8  -1 1053.09   56.79
  -1   8   1 1058.39   56.79
  -1   8   1 1032.90   56.19
   0  -8   1   80.59    6.90
   0  -8  -1   90.39    5.80
   0  -8  -1   86.09    6.60
   0  -8   1   88.59    5.40
   0   8   1   86.09    6.30
   0   8   1   81.09    5.60
   0   8  -1   89.29    6.70
   1  -8   1 1294.27   70.49
  -1  -8  -1 1323.97   69.59
  -1  -8  -1 1242.48   71.09
  -1   8  -1 1344.47   70.99
   1   8   1 1307.67   70.29
  -1   8  -1 1309.87   69.59
  -2  -8  -1  685.83   37.20
   2  -8   1  672.73   38.10
   2   8   1  663.43   38.00
  -2   8  -1  685.03   37.30
  -2   8  -1  677.83   41.60
  -3  -8  -1    8.30    3.80
   3  -8   1    8.90    5.60
  -3   8  -1    1.30    9.80
  -3   8  -1    8.50    4.60
   3   8   1    6.90    5.10
   4  -8   1  119.59   14.20
  -4  -8  -1  128.09   12.20
  -4   8  -1   89.49   15.90
  -4   8  -1  125.19   13.00
   4   8   1  121.59   14.00
   4  -9  -1    3.20    7.40
  -4  -9   1    6.60    5.90
  -4   9   1   -2.40    6.50
   4   9  -1    7.70    6.90
  -3  -9   1  129.09   13.80
  -3  -9   1  131.99   10.20
   3  -9  -1  123.19   12.30
   3   9  -1  137.29   11.40
  -3   9   1  135.89   11.10
  -3   9   1  120.29   18.60
  -2  -9   1   33.50    3.90
  -2  -9   1    9.10    7.60
   2  -9  -1   37.00    5.60
  -2   9   1   26.10    6.70
  -2   9   1   32.80    4.40
   2   9  -1   34.60    5.00
   1  -9  -1  158.18    9.80
  -1  -9   1  174.28   10.20
  -1  -9   1  179.78   13.60
   1  -9  -1  165.28   11.50
  -1   9   1  169.68   10.40
  -1   9   1  171.28   11.20
   1   9  -1  175.78   11.20
   0  -9   1  232.88   14.60
   0  -9  -1  234.98   13.20
   0  -9   1  240.88   12.90
   0  -9  -1  228.58   14.20
   0   9  -1  228.78   14.30
   0   9   1  223.18   13.10
   0   9   1  221.78   13.90
   1  -9   1   82.09    7.60
  -1  -9  -1   85.89    6.30
  -1  -9  -1   75.79    8.20
  -1   9  -1   83.49    6.10
  -1   9  -1   73.29    7.60
   1   9   1   82.49    6.80
  -2  -9  -1  111.39    8.20
   2  -9   1  107.29    9.80
   2   9   1  106.69    9.10
  -2   9  -1   98.09    8.30
  -2   9  -1  101.69   12.70
   3  -9   1   77.99    9.30
  -3  -9  -1   77.09    8.20
   3   9   1   73.49    8.70
  -3   9  -1   49.20   13.50
  -3   9  -1   67.39    7.80
  -4  -9  -1   21.60    6.50
   4  -9   1    6.90    7.90
   4   9   1   17.60    8.10
  -4   9  -1    8.50   12.60
  -4   9  -1    8.80    7.00
   4 -10  -1  133.49   15.70
  -4 -10   1  142.89   13.30
   4  10  -1  135.09   14.30
  -4  10   1  130.49   14.30
   3 -10  -1   55.89    8.50
  -3 -10   1   40.10    8.90
  -3 -10   1   54.99    6.20
  -3  10   1   57.99    7.00
   3  10  -1   64.19    7.80
  -2 -10   1 1218.78   65.79
   2 -10  -1 1239.88   67.09
  -2  10   1 1263.77   66.19
  -2  10   1 1152.48   68.59
   2  10  -1 1241.58   66.79
   1 -10  -1 1078.69   59.89
  -1 -10   1 1174.18   63.29
   1 -10  -1 1124.09   61.39
  -1 -10   1 1133.19   60.19
   1  10  -1 1120.89   61.29
  -1  10   1 1146.99   61.39
  -1  10   1 1107.29   60.39
   0 -10  -1    8.60    2.20
   0 -10   1    8.70    1.80
   0 -10   1    7.30    3.30
   0 -10  -1   10.50    3.50
   0  10   1    7.40    2.70
   0  10  -1    7.80    3.20
   0  10   1    6.50    1.90
   1 -10   1 2230.68  119.69
  -1 -10  -1 2257.27  118.49
  -1 -10  -1 2169.68  120.49
  -1  10  -1 2276.67  118.49
  -1  10  -1 2236.98  119.99
   1  10   1 2217.08  119.29
  -2 -10  -1  842.62   46.50
   2 -10   1  861.01   47.90
   2  10   1  813.72   47.40
  -2  10  -1  879.01   46.80
  -2  10  -1  868.01   50.69
  -3 -10  -1    2.60    4.10
   3 -10   1    3.80    6.20
   3  10   1   -1.50    5.20
  -3  10  -1   -2.00    4.80
  -3  10  -1   -7.90   10.20
   4 -10   1  260.27   20.80
  -4 -10  -1  275.97   19.00
   4  10   1  260.57   20.70
  -4  10  -1  249.68   19.50
   4 -11  -1    7.70    8.50
  -4 -11   1    1.90    6.10
   4  11  -1    3.40    7.10
  -4  11   1   12.40    7.70
  -3 -11   1   72.79   11.90
  -3 -11   1  119.29    9.80
   3 -11  -1  110.09   12.50
  -3  11   1  120.09   10.80
   3  11  -1  112.79   11.20
   2 -11  -1   -3.60    4.50
  -2 -11   1   -3.40    7.50
  -2 -11   1    0.50    2.60
  -2  11   1    1.30    5.30
  -2  11   1    4.30    3.40
   2  11  -1    0.00    3.60
   1 -11  -1   59.89    7.10
  -1 -11   1   53.59    4.80
   1 -11  -1   46.10    4.60
  -1 -11   1   72.59    9.40
  -1  11   1   54.09    5.10
  -1  11   1   51.89    6.30
   1  11  -1   48.80    6.30
   0 -11   1  133.89    8.10
   0 -11  -1  133.39    8.60
   0 -11   1  132.39   10.60
   0 -11  -1  134.59   10.40
   0  11   1  133.19    9.60
   0  11   1  124.79    8.30
   0  11  -1  136.59   10.10
  -1 -11  -1  242.88   14.20
   1 -11   1  231.18   15.90
  -1 -11  -1  233.88   16.90
  -1  11  -1  226.28   14.00
  -1  11  -1  235.68   16.00
   1  11   1  247.48   15.20
   2 -11   1  168.28   13.80
  -2 -11  -1  160.28   11.40
   2  11   1  162.98   12.50
  -2  11  -1  174.68   11.80
  -2  11  -1  166.88   16.30
   3 -11   1   93.29   10.60
  -3 -11  -1   79.59    8.10
  -3  11  -1   34.20   13.70
  -3  11  -1   68.89    8.20
   3  11   1   72.09    9.20
  -3 -12   1   94.79    9.70
  -3 -12   1   65.19   12.50
   3 -12  -1  113.99   13.10
  -3  12   1  105.59   10.90
   3  12  -1  115.29   11.50
  -2 -12   1  591.14   32.70
   2 -12  -1  591.94   34.60
  -2  12   1  564.04   36.00
   2  12  -1  600.74   34.10
  -2  12   1  579.94   33.00
  -1 -12   1  283.07   16.40
   1 -12  -1  272.17   16.10
   1 -12  -1  279.07   18.60
  -1 -12   1  284.77   20.50
   1  12  -1  301.87   18.10
  -1  12   1  291.57   18.20
  -1  12   1  277.87   16.60
   0 -12  -1   65.79    7.90
   0 -12   1   66.29    4.90
   0 -12   1   60.29    8.00
   0 -12  -1   60.99    5.60
   0  12   1   62.79    6.70
   0  12  -1   68.99    7.30
   0  12   1   59.19    5.10
  -1 -12  -1  223.28   17.60
   1 -12   1  238.18   16.70
  -1 -12  -1  242.88   14.70
   1  12   1  243.78   15.80
  -1  12  -1  254.07   14.70
  -1  12  -1  241.58   16.60
   2 -12   1  565.94   33.60
  -2 -12  -1  563.44   31.60
   2  12   1  523.25   32.50
  -2  12  -1  572.14   31.80
  -2  12  -1  572.44   35.80
   3 -12   1    6.30    7.50
  -3 -12  -1    6.80    5.10
   3  12   1    4.70    6.20
  -3  12  -1   -9.40   11.50
  -3  12  -1    3.40    5.40
  -3 -13   1  180.78   21.50
   3 -13  -1  195.68   17.90
  -3 -13   1  219.08   14.90
   3  13  -1  226.68   16.90
  -3  13   1  223.88   15.90
  -2 -13   1   39.80    5.00
  -2 -13   1   17.70   10.10
   2 -13  -1   51.89    8.40
   2  13  -1   57.39    7.60
  -2  13   1   35.50    8.10
  -2  13   1   49.10    5.90
  -1 -13   1  465.55   25.20
  -1 -13   1  443.06   29.20
   1 -13  -1  421.86   27.50
   1  13  -1  459.25   26.90
  -1  13   1  460.55   27.20
  -1  13   1  439.56   25.40
   0 -13   1 1010.90   56.89
   0 -13  -1 1014.10   54.59
   0 -13   1 1005.40   54.29
   0 -13  -1 1029.50   56.69
   0  13  -1  988.20   56.19
   0  13   1 1025.40   56.09
  -1 -13  -1    3.10    3.00
  -1 -13  -1    1.90    5.40
   1 -13   1    2.50    4.70
  -1  13  -1    0.50    4.40
   1  13   1    6.40    3.90
  -1  13  -1    3.10    3.00
  -2 -13  -1   54.29    6.30
   2 -13   1   49.00    8.50
  -2  13  -1   48.30    6.20
  -2  13  -1   36.20    9.50
   2  13   1   56.79    7.90
   3 -13   1  261.47   20.90
  -3 -13  -1  250.07   17.70
  -3  13  -1  203.28   26.90
  -3  13  -1  271.57   18.00
   3  13   1  248.58   18.80
   3 -14  -1    7.90    8.00
  -3 -14   1    3.40    4.60
  -3  14   1    1.80    5.60
   3  14  -1    2.60    6.40
   2 -14  -1   90.09   10.70
  -2 -14   1   65.39    7.20
  -2 -14   1   33.00   12.20
  -2  14   1   75.29    8.20
   2  14  -1   82.49    9.20
  -2  14   1   51.29    9.90
   1 -14  -1  138.29   13.40
  -1 -14   1  131.79    9.50
  -1 -14   1  143.39   15.00
  -1  14   1  150.38   12.30
   1  14  -1  148.09   11.80
  -1  14   1  137.09    9.80
   0 -14  -1    0.60    4.90
   0 -14  -1    1.90    2.70
   0 -14   1    4.70    5.10
   0  14   1    2.10    3.90
   0  14  -1    1.40    4.10
  -1 -14  -1  224.18   14.10
  -1 -14  -1  208.18   18.30
   1 -14   1  225.58   16.70
   1  14   1  221.38   15.40
  -1  14  -1  212.58   16.30
  -1  14  -1  221.18   13.90
   2 -14   1   17.00    7.50
  -2 -14  -1   13.40    4.60
  -2  14  -1   10.50    7.60
  -2  14  -1   11.40    4.80
   2  14   1   15.30    5.90
  -3 -14  -1   -1.20    5.20
   3 -14   1    3.20    8.50
   3  14   1    4.50    6.70
  -3  14  -1    5.30    6.00
  -3  14  -1   -1.50   12.20
  -2 -15   1   15.50   11.60
   2 -15  -1   34.90    8.90
  -2 -15   1   27.00    4.90
   2  15  -1   34.10    7.20
  -2  15   1   24.10    8.60
  -2  15   1   28.80    5.60
   1 -15  -1  467.25   29.50
  -1 -15   1  459.55   26.30
  -1 -15   1  470.55   31.40
   1  15  -1  469.55   28.60
  -1  15   1  435.16   26.40
  -1  15   1  492.95   29.10
   0 -15  -1  806.12   45.70
   0 -15  -1  773.42   42.40
   0 -15   1  744.83   45.30
   0  15  -1  768.02   44.50
   0  15   1  782.32   44.50
  -1 -15  -1  237.28   14.80
  -1 -15  -1  205.08   19.50
   1 -15   1  229.38   17.70
  -1  15  -1  228.98   17.40
   1  15   1  231.28   16.30
   2 -15   1  184.18   16.90
  -2 -15  -1  174.98   13.00
  -2  15  -1  166.38   13.10
   2  15   1  174.78   14.60
  -2  15  -1  164.88   17.80
   2 -16  -1   90.69   12.00
  -2 -16   1   75.79    8.10
  -2 -16   1   27.40   13.00
   2  16  -1   86.29   10.50
  -2  16   1   73.39    8.00
  -1 -16   1   48.50   10.90
  -1 -16   1   56.29    5.80
   1 -16  -1   58.39    9.80
  -1  16   1   66.19    9.30
   1  16  -1   60.69    8.80
   0 -16   1   23.50    7.80
   0 -16  -1   27.20    8.40
   0  16  -1   26.30    6.70
   0  16   1   27.90    6.50
   1 -16   1   71.19   10.50
  -1 -16  -1   65.79    6.90
  -1 -16  -1   51.09   11.60
  -1  16  -1   62.99    9.60
   1  16   1   63.69    8.70
   2 -16   1   15.90    8.50
  -2 -16  -1   17.30    5.40
   2  16   1   19.70    6.90
  -2  16  -1   12.70    5.90
  -2  16  -1   12.40    9.10
   1 -17  -1   81.79   11.40
  -1 -17   1   72.29   12.90
   1  17  -1   64.39    9.80
  -1  17   1   65.89    9.90
   0 -17  -1  495.95   33.20
   0 -17   1  504.55   33.00
   0  17  -1  500.95   31.20
   0  17   1  497.05   31.10
   1 -17   1   82.99   12.30
  -1 -17  -1   80.39    8.60
  -1  17  -1   65.69   10.40
   1  17   1   85.89   10.30
   0 -18  -1    3.50    8.60
   0 -18   1    6.50    8.50
   0  18  -1    3.50    6.30
   0  18   1    2.60    5.70
  -5   0   2    9.40    9.60
  -5   0   2   16.10    8.00
  -4   0   2  483.65   31.10
  -4   0   2  500.35   29.00
   4   0  -2  504.35   28.80
   3   0  -2  897.71   49.70
  -3   0   2  921.01   51.29
  -3   0   2  932.31   49.80
  -2   0   2  448.76   26.50
   2   0  -2  458.15   25.20
  -2   0   2  463.35   25.10
  -1   0   2 4072.89  221.88
   1   0  -2 4369.26  222.18
  -1   0   2 4201.28  222.98
   0   0  -2 5288.87  263.97
   0   0   2 5165.98  263.67
   0   0  -2 4922.11  263.57
   0   0   2 4589.44  263.67
  -1   0  -2  179.38   13.30
  -1   0  -2  198.78   11.00
   1   0   2  201.38   11.60
   2   0   2  967.20   52.59
  -2   0  -2  979.20   54.69
  -2   0  -2  973.30   51.89
  -3   0  -2 1523.05   82.99
  -3   0  -2 1490.85   79.59
   3   0   2 1466.55   80.39
   4   0   2   77.39    9.50
  -4   0  -2   83.79   12.60
  -5  -1   2   31.50   10.70
  -5   1   2   26.70    8.30
   5   1  -2   26.60    7.60
   4  -1  -2    2.50    4.50
  -4  -1   2    5.80    6.90
  -4  -1   2    2.70    4.90
   4   1  -2    6.90    4.60
  -4   1   2    3.70    5.40
  -4   1   2    8.10    6.90
   3  -1  -2   28.30    4.30
  -3  -1   2   30.80    4.40
  -3  -1   2   37.00    6.40
  -3   1   2   32.80    5.80
  -3   1   2   35.50    4.80
   3   1  -2   28.20    4.10
   3   1  -2   29.20    4.10
  -2  -1   2  150.98   11.10
  -2  -1   2  145.09    8.80
   2  -1  -2  144.39    9.10
   2   1  -2  141.49    9.00
  -2   1   2  142.59    9.00
  -2   1   2  152.98   10.50
   2   1  -2  140.79    8.60
   1  -1  -2   70.89    5.20
  -1  -1   2   56.39    6.50
  -1  -1   2   70.79    4.50
   1   1  -2   76.09    4.90
  -1   1   2   75.69    5.70
  -1   1   2   65.99    4.60
   0  -1   2   55.49    5.10
   0  -1  -2   48.00    5.10
   0  -1   2   65.19    5.50
   0  -1  -2   61.09    4.70
   0   1  -2   57.69    5.10
   0   1   2   45.70    5.50
   0   1  -2   54.99    4.80
  -1  -1  -2  191.58   12.20
   1  -1   2  188.58   10.90
  -1  -1  -2  178.58   10.40
   1   1   2  186.28   11.20
  -1   1  -2  178.38   10.30
  -1   1  -2  168.78   13.30
  -2  -1  -2 1226.48   63.79
   2  -1   2 1145.89   61.89
  -2  -1  -2 1168.68   61.49
   2   1   2 1159.98   62.09
  -2   1  -2 1055.49   64.39
   3  -1   2  131.29   10.30
  -3  -1  -2  137.49   13.20
  -3  -1  -2  121.29    9.10
   3   1   2  129.09   10.50
  -3   1  -2  135.49   14.40
   4  -1   2   73.99    9.20
  -4  -1  -2   73.29   11.70
  -4   1  -2   76.09   12.40
   4   1   2   72.59    9.20
   5  -2  -2    5.20    9.70
  -5  -2   2   -1.80    9.30
   5   2  -2    1.00    6.80
  -5   2   2    6.80    8.00
   4  -2  -2  369.86   22.80
  -4  -2   2  363.86   22.30
  -4  -2   2  374.86   25.20
  -4   2   2  375.16   24.90
  -4   2   2  383.16   23.20
   4   2  -2  374.26   22.60
  -3  -2   2  882.51   47.60
   3  -2  -2  904.81   48.00
  -3  -2   2  912.91   49.90
  -3   2   2  853.71   49.10
  -3   2   2  880.21   48.00
   3   2  -2  848.92   47.80
  -2  -2   2   61.29    7.50
   2  -2  -2   49.70    5.00
  -2   2   2   54.79    4.80
   2   2  -2   48.60    4.30
  -2   2   2   56.19    6.10
  -1  -2   2  771.22   49.50
   1  -2  -2  827.82   48.20
   1   2  -2  908.71   47.50
   1   2  -2  957.90   47.60
  -1   2   2  886.61   47.60
  -1   2   2  980.70   48.20
   0  -2  -2 1907.21  103.09
   0  -2   2 1941.01  103.39
   0  -2  -2 1985.00  103.49
   0  -2   2 1986.10  103.79
   0   2  -2 1971.00  103.49
   0   2  -2 1933.31  103.09
   0   2   2 1918.81  103.79
   1  -2   2  232.98   13.60
  -1  -2  -2  231.58   13.50
  -1  -2  -2  253.17   14.60
   1  -2   2  248.18   13.80
  -1   2  -2  249.78   16.50
   1   2   2  229.48   14.50
  -2  -2  -2  634.54   33.00
  -2  -2  -2  571.44   30.90
   2  -2   2  555.24   31.00
  -2   2  -2  474.55   34.00
   2   2   2  588.04   31.60
   3  -2   2  573.94   33.10
  -3  -2  -2  613.64   32.80
  -3  -2  -2  619.24   35.50
   3  -2   2  585.54   33.40
   3   2   2  598.24   33.70
  -3   2  -2  560.24   37.10
  -4  -2  -2   67.39   11.10
  -4  -2  -2   54.19    6.70
   4  -2   2   75.89    9.00
  -4   2  -2   66.49   12.50
   4   2   2   61.59    8.70
  -4  -3   2   38.10    8.60
   4  -3  -2   34.00    6.70
  -4   3   2   45.90    7.20
   4   3  -2   38.30    6.90
  -3  -3   2  184.58   12.40
  -3  -3   2  204.68   15.30
   3  -3  -2  193.18   12.80
  -3   3   2  195.88   12.80
  -3   3   2  191.48   14.10
   3   3  -2  183.48   12.30
  -2  -3   2 1397.06   76.79
   2  -3  -2 1497.95   77.29
  -2  -3   2 1442.96   79.19
  -2   3   2 1456.45   77.79
  -2   3   2 1426.16   76.89
   2   3  -2 1434.76   76.79
   1  -3  -2  731.23   43.60
  -1  -3   2  806.92   45.50
  -1   3   2  816.42   42.70
   1   3  -2  786.62   42.60
  -1   3   2  832.02   43.20
   0  -3   2  307.87   17.90
   0  -3  -2  310.77   17.40
   0  -3   2  300.47   17.10
   0  -3  -2  307.57   17.10
   0   3  -2  307.27   16.90
   0   3  -2  307.37   17.60
   0   3   2  326.07   17.80
  -1  -3  -2 1951.90  100.39
   1  -3   2 2041.00  100.59
   1  -3   2 1979.60  100.69
  -1  -3  -2 2038.90  101.19
  -1   3  -2 1744.93  102.69
   1   3   2 1594.94  101.29
   2  -3   2  362.76   20.90
  -2  -3  -2  359.06   20.70
  -2  -3  -2  380.86   22.30
  -2   3  -2  363.66   24.90
  -2   3  -2  361.56   21.00
   2   3   2  388.46   21.70
  -3  -3  -2    2.80    3.20
  -3  -3  -2    5.30    5.40
   3  -3   2    1.20    3.80
  -3   3  -2   -1.90    7.80
   3   3   2    2.10    4.30
  -4  -3  -2  263.17   17.30
   4  -3   2  269.97   18.70
  -4  -3  -2  278.27   21.50
   4   3   2  256.87   18.90
  -4   3  -2  273.67   24.10
  -4  -4   2  129.99   14.70
  -4  -4   2  121.29   11.40
   4  -4  -2  123.49   14.00
  -4   4   2  120.29   11.90
   4   4  -2  110.29   11.00
  -3  -4   2   84.59    7.70
   3  -4  -2   88.39    8.90
  -3  -4   2  110.39   11.50
   3   4  -2   83.49    7.50
  -3   4   2   88.79    8.40
  -2  -4   2   -2.60    4.40
   2  -4  -2    5.10    3.40
  -2  -4   2    3.20    2.00
  -2   4   2    2.10    2.30
  -2   4   2    3.20    3.20
   2   4  -2    5.40    2.20
  -1  -4   2  122.39    7.00
   1  -4  -2   81.29    8.50
  -1  -4   2  112.19   10.70
   1   4  -2  119.19    7.30
  -1   4   2  118.89    7.30
   0  -4  -2  839.92   45.40
   0  -4   2  842.92   46.10
   0   4   2  879.71   45.70
   0   4  -2  843.52   44.90
   0   4   2  808.92   45.20
   0   4  -2  852.61   45.70
   1  -4   2    1.20    2.00
  -1  -4  -2   -0.70    1.60
  -1  -4  -2    1.10    2.30
  -1   4  -2    0.10    3.60
   1   4   2    2.50    3.60
   2  -4   2   71.69    6.50
  -2  -4  -2   68.69    7.50
  -2  -4  -2   68.39    5.80
   2   4   2   71.19    7.80
  -2   4  -2   71.59    6.20
  -2   4  -2   65.79   10.10
   3  -4   2   82.69    8.50
  -3  -4  -2   77.49    7.60
  -3  -4  -2   79.69   10.00
  -3   4  -2   67.09   12.60
  -3   4  -2   73.99    8.20
   3   4   2   86.79    8.70
  -4  -4  -2   32.10    6.20
  -4  -4  -2   42.30    9.80
  -4   4  -2   26.00   11.80
   4   4   2   35.10    8.10
   4  -5  -2  348.47   24.30
  -4  -5   2  364.06   22.40
  -4  -5   2  372.76   25.30
  -4   5   2  351.96   22.60
   4   5  -2  339.17   22.20
  -3  -5   2  365.16   23.70
  -3  -5   2  338.87   20.30
   3  -5  -2  350.06   21.90
   3  -5  -2  333.37   22.10
  -3   5   2  332.77   20.70
   3   5  -2  354.56   20.50
  -2  -5   2 2573.14  132.19
   2  -5  -2 2188.28  133.19
   2  -5  -2 2496.45  132.99
   2   5  -2 2626.14  132.39
  -2   5   2 2572.64  132.39
   1  -5  -2 1523.05   81.39
  -1  -5   2 1500.75   80.69
   1  -5  -2 1526.15   81.29
  -1  -5   2 1515.45   83.89
  -1   5   2 1543.55   80.99
   1   5  -2 1517.05   81.09
   0  -5   2 1149.39   62.29
   0  -5  -2 1126.39   61.39
   0   5  -2 1178.18   61.99
   0   5   2 1172.98   61.59
   0   5  -2 1145.29   60.99
   0   5   2 1127.09   61.39
  -1  -5  -2 2640.74  136.19
   1  -5   2 2636.74  136.09
  -1  -5  -2 2593.14  135.59
   1   5   2 2168.18  136.69
  -1   5  -2 2606.24  135.59
  -1   5  -2 2720.73  137.69
  -2  -5  -2  721.23   39.40
   2  -5   2  704.43   38.70
  -2  -5  -2  674.93   38.10
  -2   5  -2  698.93   38.40
   2   5   2  639.14   39.70
  -2   5  -2  776.22   43.30
  -3  -5  -2    9.70    5.70
   3  -5   2    4.10    4.50
  -3  -5  -2    6.40    3.70
  -3   5  -2    1.50    4.20
   3   5   2    3.70    5.80
  -3   5  -2   -5.70    8.90
  -4  -5  -2  296.47   22.60
   4  -5   2  301.07   20.70
  -4  -5  -2  307.37   19.30
   4   5   2  300.27   21.70
  -4   5  -2  247.18   26.20
  -4  -6   2  186.08   17.30
  -4  -6   2  175.88   14.10
   4  -6  -2  159.98   16.30
  -4   6   2  181.28   14.60
   4   6  -2  177.08   14.10
   3  -6  -2   72.39    9.40
  -3  -6   2   60.29    9.70
  -3  -6   2   66.19    7.10
   3  -6  -2   41.60    8.00
   3   6  -2   69.19    7.30
  -3   6   2   71.29    7.90
   2  -6  -2    1.50    4.10
  -2  -6   2    3.10    6.20
   2  -6  -2   13.80    4.10
  -2  -6   2   11.90    2.60
  -2   6   2   15.60    3.10
   2   6  -2   14.80    3.20
  -1  -6   2   59.09    8.20
  -1  -6   2   59.09    4.40
   1  -6  -2   58.99    5.60
   1  -6  -2   63.49    5.30
  -1   6   2   61.19    5.00
   1   6  -2   58.39    5.00
  -1   6   2   56.09    4.50
   0  -6  -2  561.44   31.00
   0  -6  -2  527.55   31.00
   0  -6   2  601.24   32.10
   0   6   2  569.54   31.10
   0   6  -2  592.74   31.70
   0   6   2  569.84   31.10
   1  -6   2    0.50    2.60
  -1  -6  -2    0.80    1.90
   1   6   2    2.20    2.20
  -1   6  -2    1.20    1.90
   1   6   2   -0.50    3.60
  -1   6  -2   -0.40    3.40
   2  -6   2   69.39    7.50
  -2  -6  -2   77.19    6.50
  -2   6  -2   79.69    6.80
  -2   6  -2   66.19   11.20
   2   6   2   63.49    8.40
  -3  -6  -2   73.59    8.90
   3  -6   2   64.29    7.60
  -3  -6  -2   57.39    6.40
  -3   6  -2   48.50   12.80
   3   6   2   60.69    9.40
  -3   6  -2   58.09    7.10
   4  -6   2   36.60    8.00
  -4  -6  -2   42.40    7.00
  -4   6  -2   23.70   13.30
  -4   6  -2   29.50    7.60
   4  -7  -2    4.10    7.50
  -4  -7   2    9.50    5.60
  -4  -7   2   16.70    8.70
  -4   7   2    6.50    6.70
   4   7  -2    7.60    6.00
  -3  -7   2  126.59   14.80
   3  -7  -2  126.59   12.00
  -3  -7   2  129.89    9.80
  -3   7   2  114.29   10.30
   3   7  -2  124.39   10.20
  -2  -7   2  726.83   38.60
  -2  -7   2  662.43   43.90
   2  -7  -2  644.04   39.10
   2  -7  -2  709.23   39.70
  -2   7   2  742.53   38.90
   2   7  -2  746.43   39.10
  -1  -7   2  378.76   23.80
  -1  -7   2  366.96   20.10
   1  -7  -2  348.37   20.90
   1  -7  -2  375.26   20.40
  -1   7   2  362.16   20.40
  -1   7   2  348.27   20.40
   1   7  -2  364.66   20.80
   0  -7  -2    5.50    2.30
   0  -7   2    1.60    2.70
   0  -7   2    5.00    1.30
   0  -7  -2    5.90    2.00
   0   7   2    6.40    2.00
   0   7  -2    4.50    2.60
   0   7   2    9.10    2.30
  -1  -7  -2 1449.65   77.59
   1  -7   2 1426.06   78.29
  -1   7  -2 1393.26   77.39
   1   7   2 1524.25   78.39
  -1   7  -2 1503.35   79.39
   1   7   2 1433.86   78.19
  -2  -7  -2  747.63   40.50
   2  -7   2  748.53   41.30
  -2   7  -2  692.73   45.40
   2   7   2  708.63   41.40
   2   7   2  744.93   42.80
  -2   7  -2  783.42   40.80
  -3  -7  -2   18.20    4.60
   3  -7   2   27.20    6.30
  -3   7  -2   26.00   11.80
  -3   7  -2   24.10    5.60
   3   7   2   20.40    5.70
   3   7   2   17.00    8.00
  -4  -7  -2  278.47   19.20
   4  -7   2  275.27   20.70
   4   7   2  284.17   21.90
  -4   7  -2  291.27   20.20
  -4  -8   2  167.68   13.50
   4  -8  -2  131.49   15.50
  -4  -8   2  130.19   17.00
  -4   8   2  141.79   14.20
   4   8  -2  146.99   13.30
  -3  -8   2  526.45   29.90
   3  -8  -2  503.35   31.40
   3   8  -2  528.95   30.50
  -3   8   2  539.95   30.40
   2  -8  -2    5.30    3.00
  -2  -8   2    4.60    2.60
   2  -8  -2    1.00    3.60
  -2  -8   2    2.00    8.10
   2   8  -2    6.50    3.20
  -2   8   2    3.90    3.00
   1  -8  -2 1085.99   60.59
   1  -8  -2 1122.59   59.79
  -1  -8   2 1106.19   59.69
  -1  -8   2 1193.68   63.29
   1   8  -2 1099.69   60.49
  -1   8   2 1096.99   60.29
  -1   8   2 1132.49   60.09
   0  -8   2 1048.80   55.79
   0  -8   2 1081.19   57.69
   0  -8  -2 1028.70   56.69
   0  -8  -2 1041.60   56.29
   0   8   2 1035.50   56.69
   0   8   2 1040.10   56.39
   0   8  -2 1080.69   57.29
   1  -8   2   72.59    7.40
  -1  -8  -2   66.79    6.00
   1   8   2   80.49    6.80
  -1   8  -2   64.79    5.60
  -1   8  -2   74.59    8.00
   1   8   2   78.09    6.90
  -2  -8  -2  350.06   20.80
   2  -8   2  377.66   22.10
  -2   8  -2  357.66   21.00
  -2   8  -2  348.87   26.10
   2   8   2  349.96   21.80
   3  -8   2  474.55   28.70
  -3  -8  -2  472.85   27.30
   3   8   2  438.36   28.50
  -3   8  -2  472.45   27.80
  -3   8  -2  486.55   35.60
   4  -8   2   28.80    8.40
  -4  -8  -2   28.70    7.10
  -4   8  -2   33.20    8.30
   4   8   2   31.10    9.60
  -4   8  -2   -5.10   13.80
   4  -9  -2   34.20    9.20
  -4  -9   2   29.70    6.90
  -4  -9   2   32.40   10.00
   4   9  -2   31.20    7.60
  -4   9   2   38.20    8.60
  -3  -9   2    3.70    8.40
   3  -9  -2    3.70    5.60
  -3  -9   2    2.60    3.80
   3   9  -2    6.00    4.70
  -3   9   2    7.70    5.00
   2  -9  -2  192.78   12.40
  -2  -9   2  205.48   12.70
  -2  -9   2  207.68   20.90
   2  -9  -2  202.48   14.40
   2   9  -2  209.98   13.70
  -2   9   2  211.38   13.30
   1  -9  -2  101.89    7.20
  -1  -9   2   98.19    6.90
  -1  -9   2  101.29   11.10
   1  -9  -2  110.39    8.80
   1   9  -2  101.39    8.10
  -1   9   2  108.99    7.60
  -1   9   2  103.09    7.80
   0  -9   2   47.20    3.60
   0  -9  -2   42.20    4.60
   0  -9  -2   52.49    5.70
   0  -9   2   45.20    6.00
   0   9   2   44.30    4.90
   0   9  -2   45.90    5.80
   0   9   2   50.39    4.60
  -1  -9  -2  106.29    8.00
   1  -9   2  102.59    9.00
   1   9   2  111.79    8.20
   1   9   2  109.09    8.50
  -1   9  -2  106.89    7.50
  -1   9  -2  115.09   10.00
  -2  -9  -2  158.98   10.70
   2  -9   2  154.38   12.40
  -2   9  -2  131.89   15.90
   2   9   2  143.69   11.50
  -2   9  -2  147.29   10.90
   3  -9   2   15.50    6.80
  -3  -9  -2   17.30    5.00
   3   9   2   20.80    6.60
  -3   9  -2   11.90   12.00
  -3   9  -2   16.20    5.80
  -4  -9  -2   16.90    6.90
   4  -9   2   16.70    8.50
  -4   9  -2   19.20    8.10
   4   9   2   10.60    8.60
  -4   9  -2    0.20   14.70
  -4 -10   2  347.27   21.90
   4 -10  -2  304.87   24.10
  -4  10   2  332.57   22.90
   4  10  -2  321.17   22.40
  -3 -10   2  359.76   32.00
  -3 -10   2  447.46   26.10
   3 -10  -2  451.45   28.10
  -3  10   2  475.05   26.90
   3  10  -2  469.35   27.10
  -2 -10   2   38.50   11.70
   2 -10  -2   53.89    7.00
  -2 -10   2   45.20    4.90
  -2  10   2   48.80    5.60
   2  10  -2   45.00    6.20
   1 -10  -2 1106.39   59.99
  -1 -10   2 1163.18   63.69
   1 -10  -2 1089.29   61.29
  -1 -10   2 1138.29   60.09
  -1  10   2 1117.59   60.39
   1  10  -2 1117.69   61.19
  -1  10   2 1116.09   60.99
   0 -10  -2 1830.42   96.79
   0 -10  -2 1869.01   97.79
   0 -10   2 1816.52   96.39
   0 -10   2 1824.52   98.49
   0  10   2 1809.22   97.49
   0  10   2 1766.32   96.79
   0  10  -2 1821.22   97.99
   1 -10   2  140.19   11.30
  -1 -10  -2  138.79   10.00
   1  10   2  155.48   10.80
  -1  10  -2  143.39    9.50
   1  10   2  145.39    9.70
  -1  10  -2  148.59   12.00
  -2 -10  -2  493.25   28.50
   2 -10   2  506.45   30.00
   2  10   2  484.55   29.50
  -2  10  -2  524.75   28.70
  -2  10  -2  483.35   33.30
   3 -10   2  822.92   48.10
  -3 -10  -2  836.32   46.60
   3  10   2  788.92   47.80
  -3  10  -2  856.31   54.89
  -3  10  -2  871.31   47.10
   3 -11  -2   10.10    7.00
  -3 -11   2   12.50    4.50
  -3 -11   2    4.30    9.90
  -3  11   2   16.80    5.80
   3  11  -2   11.00    5.90
   2 -11  -2   94.29   10.70
  -2 -11   2  108.49    8.00
  -2 -11   2   82.59   15.00
  -2  11   2   95.29    8.70
   2  11  -2  103.89    9.50
  -1 -11   2   19.20    3.00
   1 -11  -2   28.20    5.70
   1 -11  -2   19.70    3.20
  -1 -11   2   18.10    6.60
   1  11  -2   22.10    4.70
  -1  11   2   27.20    4.70
  -1  11   2   25.90    3.90
   0 -11  -2   -0.70    2.50
   0 -11  -2    2.00    3.50
   0 -11   2    0.30    3.70
   0  11   2    1.40    2.20
   0  11   2    2.20    2.80
   0  11  -2    2.70    3.70
  -1 -11  -2   86.49    7.70
   1 -11   2   87.19    8.90
  -1  11  -2   94.49    9.60
   1  11   2   85.89    8.30
  -1  11  -2   84.99    7.00
  -2 -11  -2  330.97   20.70
   2 -11   2  350.86   22.80
  -2  11  -2  351.56   25.90
  -2  11  -2  353.06   20.90
   2  11   2  341.47   21.90
   3 -11   2   56.89    9.60
  -3 -11  -2   47.90    7.20
   3  11   2   53.79    8.90
  -3  11  -2   49.99    7.70
  -3  11  -2   43.70   14.50
  -3 -12   2  381.06   23.30
   3 -12  -2  368.76   25.80
   3  12  -2  380.76   24.70
  -3  12   2  409.06   24.30
  -2 -12   2    4.40    9.60
  -2 -12   2    9.70    3.40
   2 -12  -2   15.40    6.40
  -2  12   2   13.50    4.50
   2  12  -2   17.50    5.30
  -1 -12   2  317.87   23.60
  -1 -12   2  351.16   19.40
   1 -12  -2  322.77   21.50
   1 -12  -2  334.07   19.20
   1  12  -2  350.76   21.10
  -1  12   2  336.87   20.90
  -1  12   2  332.77   19.70
   0 -12  -2  722.43   38.70
   0 -12   2  712.43   40.90
   0 -12  -2  731.93   40.40
   0 -12   2  695.23   38.10
   0  12   2  699.13   39.70
   0  12  -2  689.23   40.20
   0  12   2  689.23   38.60
  -1 -12  -2   52.69    5.60
   1 -12   2   32.30    6.10
  -1  12  -2   39.40    4.80
  -1  12  -2   39.40    6.90
   1  12   2   55.59    7.00
   2 -12   2  195.68   16.70
  -2 -12  -2  214.68   14.20
   2  12   2  203.78   15.30
  -2  12  -2  191.08   19.20
  -2  12  -2  214.38   14.30
  -3 -12  -2  201.68   15.70
   3 -12   2  192.58   18.30
  -3  12  -2  207.38   15.90
   3  12   2  193.88   16.80
  -3  12  -2  201.88   25.50
  -3 -13   2   92.59    9.60
   3 -13  -2   94.99   12.00
  -3  13   2   85.99    9.80
   3  13  -2   84.89   10.30
  -2 -13   2  634.14   34.50
   2 -13  -2  617.14   36.90
  -2 -13   2  556.74   42.70
   2  13  -2  610.34   36.00
  -2  13   2  632.64   35.00
   1 -13  -2  279.47   19.30
   1 -13  -2  255.67   16.10
  -1 -13   2  270.27   21.10
  -1 -13   2  290.87   16.30
  -1  13   2  268.37   18.10
  -1  13   2  264.07   16.70
   1  13  -2  286.57   18.40
   0 -13   2  197.38   15.40
   0 -13  -2  199.28   15.10
   0 -13  -2  191.08   12.70
   0  13   2  199.78   12.30
   0  13  -2  188.88   14.40
   0  13   2  198.88   13.80
  -1 -13  -2  684.13   38.00
   1 -13   2  707.53   40.00
  -1  13  -2  689.33   37.60
   1  13   2  678.73   39.20
  -1  13  -2  645.94   39.90
  -2 -13  -2   37.60    6.00
   2 -13   2   45.40    8.90
  -2  13  -2   39.40   10.40
  -2  13  -2   37.30    6.10
   2  13   2   41.80    7.50
  -3 -13  -2    5.70    6.10
   3 -13   2   15.70    9.00
   3  13   2    9.60    7.30
  -3  13  -2    0.90   12.70
  -3  13  -2    8.90    6.50
  -3 -14   2    4.80   12.60
  -3 -14   2   28.80    5.80
   3 -14  -2   28.10    9.80
  -3  14   2   24.10    7.00
   3  14  -2   27.50    7.60
  -2 -14   2   35.00    5.20
  -2 -14   2   31.20   12.40
   2 -14  -2   38.20    8.80
   2  14  -2   36.40    7.20
  -2  14   2   43.30    6.30
  -1 -14   2   74.39   11.60
  -1 -14   2   82.89    7.20
   1 -14  -2  106.99   11.40
   1  14  -2   85.39   10.00
  -1  14   2   86.09    7.90
  -1  14   2   86.99    9.90
   0 -14  -2  139.99   10.20
   0 -14  -2  136.49   13.50
   0 -14   2  140.49   13.50
   0  14   2  141.69   11.70
   0  14  -2  143.19   12.30
   0  14   2  135.19    9.60
   1 -14   2   -1.70    5.40
  -1 -14  -2    2.00    3.70
   1  14   2    1.30    4.30
  -1  14  -2   -2.50    5.00
  -2 -14  -2   17.20    5.40
   2 -14   2   23.40    8.20
   2  14   2   22.00    6.90
  -2  14  -2   10.70    8.70
  -2  14  -2   18.20    5.60
  -2 -15   2  590.74   32.90
  -2 -15   2  523.45   41.70
   2 -15  -2  576.34   36.20
   2  15  -2  583.24   34.90
  -2  15   2  589.64   33.50
  -1 -15   2  319.67   24.70
   1 -15  -2  337.17   23.20
  -1 -15   2  325.47   19.10
  -1  15   2  318.27   19.50
   1  15  -2  313.87   21.60
  -1  15   2  315.97   21.70
   0 -15  -2   63.89    6.40
   0 -15   2   58.49    9.80
   0 -15  -2   61.79    9.80
   0  15   2   74.99    9.20
   0  15  -2   65.89    9.10
  -1 -15  -2  687.43   37.90
   1 -15   2  655.13   40.60
   1  15   2  675.73   39.50
  -1  15  -2  674.83   40.50
  -2 -15  -2  446.66   26.60
   2 -15   2  452.65   29.80
  -2  15  -2  459.55   26.70
  -2  15  -2  417.46   31.50
   2  15   2  417.16   28.20
   2 -16  -2    2.60    8.70
  -2 -16   2   -1.20   11.00
  -2 -16   2    1.50    3.90
   2  16  -2    0.20    6.20
  -2  16   2    0.20    4.90
   1 -16  -2   77.39   11.50
  -1 -16   2   51.69   11.40
  -1  16   2   54.89    9.10
  -1  16   2   72.39    7.40
   1  16  -2   58.39    9.10
   0 -16   2  111.59   14.70
   0 -16  -2  113.69   14.90
   0 -16  -2  113.89    9.60
   0  16   2  120.89   12.00
   0  16  -2  128.79   12.80
  -1 -16  -2   -1.20    4.10
   1 -16   2    0.70    7.40
   1  16   2    5.00    5.40
  -1  16  -2    4.60    6.40
   1 -17  -2  124.29   14.40
  -1 -17   2   90.99   14.80
  -1  17   2   93.89   13.20
   1  17  -2  119.89   12.90
   0 -17   2   10.70    8.50
   0 -17  -2   13.20    9.00
   0  17   2    5.10    5.70
   0  17  -2    7.80    6.60
  -1 -17  -2  265.47   18.10
   1 -17   2  272.77   22.70
   1  17   2  304.27   20.50
  -1  17  -2  262.57   21.60
   4   0  -3   38.00    6.80
  -4   0   3   57.39   10.60
  -4   0   3   48.80    7.20
   3   0  -3  456.95   27.20
  -3   0   3  503.95   30.30
  -3   0   3  474.65   27.00
   2   0  -3 2047.40  107.69
  -2   0   3 1961.90  107.29
  -2   0   3 2061.69  109.69
  -1   0   3 1370.66   68.39
   1   0  -3 1339.07   68.69
  -1   0   3 1124.89   69.69
   0   0  -3 1805.82   90.89
   0   0   3 1617.94   90.59
   0   0  -3 1625.54   90.29
   1   0   3 2132.29  115.19
  -1   0  -3 2187.88  116.99
  -1   0  -3 2153.88  114.49
   2   0   3  656.23   34.60
  -2   0  -3  634.04   33.40
  -2   0  -3  536.45   37.20
   3   0   3    2.20    4.90
  -3   0  -3   -2.50    8.10
  -3   0  -3    3.60    3.20
  -4   0  -3  783.82   50.19
   4   0   3  773.22   44.90
  -4  -1   3   89.69   10.10
  -4  -1   3   92.59   12.50
   4  -1  -3   81.49    9.00
  -4   1   3  101.09   10.70
  -4   1   3   95.69   12.40
   4   1  -3   92.59    9.20
  -3  -1   3   22.80    7.30
   3  -1  -3   19.00    4.40
  -3  -1   3   23.10    4.50
   3   1  -3   21.40    4.40
  -3   1   3   26.70    6.70
  -3   1   3   23.30    4.70
  -2  -1   3   11.10    2.70
  -2  -1   3    5.50    5.20
   2  -1  -3   13.70    3.40
  -2   1   3    8.90    2.80
  -2   1   3   12.00    4.80
   2   1  -3    8.70    2.90
  -1  -1   3    0.50    3.90
   1  -1  -3    5.70    2.90
  -1  -1   3    6.10    2.30
  -1   1   3    6.00    3.50
   1   1  -3    3.70    2.30
  -1   1   3    5.50    2.30
   0  -1  -3  536.45   33.50
   0  -1   3  610.84   33.90
   0  -1   3  616.74   33.80
   0  -1  -3  640.44   33.80
   0   1  -3  611.04   33.40
   0   1  -3  568.44   33.90
   0   1   3  615.34   34.20
  -1  -1  -3   91.79    6.60
  -1  -1  -3   75.79    9.10
   1  -1   3   90.59    7.20
  -1   1  -3   94.79    6.70
   1   1   3   73.09    7.70
  -1   1  -3   96.79   10.30
  -2  -1  -3   95.59   12.20
  -2  -1  -3  107.09    7.60
   2  -1   3  106.99    8.70
  -2   1  -3  114.39    7.30
   2   1   3  109.69    9.30
  -2   1  -3   94.49   12.40
  -3  -1  -3  290.17   23.00
   3  -1   3  305.37   18.60
  -3  -1  -3  292.17   17.20
   3   1   3  299.47   18.90
  -3   1  -3  224.48   23.20
   4  -1   3    4.50    7.00
  -4  -1  -3   16.10   11.70
   4   1   3   -0.50    6.90
  -4   1  -3   -3.90   11.50
   4  -2  -3   30.60    6.80
  -4  -2   3   38.20   10.10
  -4   2   3   47.90   10.00
  -4   2   3   36.50    7.20
   4   2  -3   46.70    7.00
   3  -2  -3  352.66   21.00
  -3  -2   3  347.67   20.00
  -3  -2   3  353.66   24.30
   3   2  -3  335.87   20.40
  -3   2   3  357.26   23.00
  -3   2   3  332.37   20.50
  -2  -2   3 1224.18   75.59
   2  -2  -3 1410.66   73.59
   2   2  -3 1395.76   73.09
  -2   2   3 1331.77   72.99
  -2   2   3 1462.05   74.79
  -1  -2   3  211.58   15.30
  -1  -2   3  215.58   12.30
  -1   2   3  196.68   12.50
   1   2  -3  210.78   12.20
  -1   2   3  210.28   13.50
   1   2  -3  214.48   12.50
   0  -2   3  130.99   10.40
   0  -2   3  165.98   11.30
   0  -2  -3  175.88   10.20
   0  -2  -3  152.38   10.90
   0   2  -3  171.38   10.90
   0   2  -3  133.19   10.10
  -1  -2  -3 1723.93   94.09
   1  -2   3 1760.22   94.39
  -1  -2  -3 1678.03   95.49
  -1   2  -3 1922.81   96.89
   2  -2   3  477.35   27.30
  -2  -2  -3  464.25   26.60
  -2  -2  -3  485.65   29.90
  -2   2  -3  506.65   31.30
   2   2   3  472.75   28.00
  -3  -2  -3  146.39   10.40
  -3  -2  -3  162.18   16.30
   3  -2   3  150.58   11.70
  -3   2  -3   92.39   15.20
   3   2   3  146.59   12.60
   4  -2   3  120.89   11.70
  -4  -2  -3   98.19   15.60
  -4   2  -3   69.79   16.10
   4   2   3  116.99   13.40
  -4  -3   3  521.85   33.40
   4  -3  -3  454.15   29.60
  -4   3   3  497.05   31.90
   4   3  -3  480.65   28.70
  -4   3   3  470.85   29.10
   3  -3  -3  297.17   18.80
  -3  -3   3  299.57   22.30
  -3   3   3  300.57   18.00
  -3   3   3  315.87   20.40
   3   3  -3  280.27   17.70
   3   3  -3  272.37   17.10
   2  -3  -3   -0.20    3.40
  -2  -3   3   -2.30    5.50
  -2   3   3    0.80    3.80
   2   3  -3    2.10    2.40
   2   3  -3    0.50    1.80
  -2   3   3    1.30    2.70
   1  -3  -3 1755.82   93.29
  -1  -3   3 1840.92   94.89
  -1   3   3 1708.33   92.69
  -1   3   3 1625.04   92.09
   1   3  -3 1756.32   91.99
   1   3  -3 1711.53   91.99
   0  -3   3 1213.78   69.59
   0  -3   3 1329.57   70.39
   0  -3  -3 1333.37   69.19
   0  -3  -3 1297.57   69.89
   0   3   3 1227.08   70.29
   0   3  -3 1304.77   69.29
   0   3  -3 1350.86   69.99
  -1  -3  -3    1.30    3.70
   1  -3   3    0.70    2.60
  -1  -3  -3    3.20    2.30
   1  -3   3    2.20    2.50
  -1   3  -3    1.40    4.80
   1   3   3   -3.30    3.70
  -2  -3  -3  477.45   27.40
  -2  -3  -3  513.05   30.30
   2  -3   3  474.45   27.90
  -2   3  -3  565.44   32.40
   2   3   3  459.15   29.00
  -3  -3  -3  388.66   22.60
  -3  -3  -3  419.86   27.00
   3  -3   3  373.86   23.30
   3   3   3  406.96   24.70
  -3   3  -3  327.87   28.90
  -4  -3  -3   37.00   12.10
   4  -3   3   30.80    8.00
  -4  -3  -3   24.10    6.30
  -4   3  -3   11.70   13.30
   4   3   3   37.70    9.10
  -4  -4   3   27.60   10.40
   4  -4  -3   13.00    7.60
   4   4  -3   23.30    6.30
  -4   4   3   25.20    7.20
  -3  -4   3   19.10    8.20
   3  -4  -3   20.80    5.90
  -3   4   3   27.00    6.80
   3   4  -3   25.50    4.50
  -3   4   3   27.90    5.10
   3   4  -3   20.50    4.00
  -2  -4   3  157.38   15.90
   2  -4  -3  147.09   13.20
  -2   4   3  192.48   11.80
   2   4  -3  200.08   11.60
  -2   4   3  208.78   13.50
   2   4  -3  182.28   11.20
  -1  -4   3  123.69   12.10
   1  -4  -3  115.09   10.40
   1   4  -3  129.99    8.40
   1   4  -3  131.69    8.30
  -1   4   3  124.59    8.60
  -1   4   3  131.29    9.20
   0  -4  -3   23.30    3.20
   0  -4   3   22.50    4.50
   0  -4   3   23.80    3.60
   0  -4  -3   30.20    4.20
   0   4  -3   23.80    4.10
   0   4   3   29.30    5.10
   0   4  -3   22.60    3.00
   1  -4   3  544.05   30.60
  -1  -4  -3  536.65   31.10
   1  -4   3  553.94   30.30
  -1  -4  -3  529.75   30.10
   1   4   3  574.84   32.20
   2  -4   3   22.20    4.10
  -2  -4  -3   22.90    6.10
  -2  -4  -3   26.00    3.90
   2  -4   3   15.20    3.70
  -2   4  -3   20.70    7.80
   2   4   3   17.60    6.00
  -3  -4  -3    9.50    4.00
  -3  -4  -3    6.10    7.40
   3  -4   3    7.20    4.70
   3  -4   3    6.20    4.40
   3   4   3    2.30    6.60
  -3   4  -3   -8.70    9.80
  -4  -4  -3   32.80   11.70
  -4  -4  -3   28.40    6.70
   4  -4   3   26.30    8.00
   4   4   3   35.90    9.70
  -4   4  -3   -3.20   13.40
   4  -5  -3  296.37   23.40
  -4  -5   3  325.57   26.00
   4   5  -3  324.67   20.70
  -4   5   3  325.27   21.50
  -3  -5   3 1368.66   80.49
   3  -5  -3 1292.17   77.99
  -3   5   3 1483.85   76.59
   3   5  -3 1435.66   76.29
   3   5  -3 1483.45   76.39
  -2  -5   3   43.00    9.00
   2  -5  -3   38.90    6.60
  -2   5   3   50.69    6.50
   2   5  -3   44.30    4.50
  -2   5   3   45.50    5.00
   2   5  -3   38.20    4.70
  -1  -5   3 2554.14  140.79
   1   5  -3 2642.84  137.79
  -1   5   3 2549.74  137.69
   1   5  -3 2636.64  137.39
   0  -5   3 2007.80  111.39
   0  -5  -3 2092.59  110.69
   0  -5   3 2045.70  110.29
   0   5  -3 2108.79  111.09
   0   5   3 2170.08  111.19
   0   5   3 2014.80  110.29
   0   5  -3 2097.09  109.99
  -1  -5  -3    8.10    2.80
   1  -5   3    3.80    3.20
   1  -5   3   16.30    3.20
  -1  -5  -3    3.70    3.60
   1   5   3    5.90    5.30
  -1   5  -3    1.00    4.50
   2  -5   3  970.70   53.99
   2  -5   3  940.31   53.99
  -2  -5  -3  999.40   53.79
  -2  -5  -3 1009.80   55.69
  -2   5  -3 1060.99   58.49
  -3  -5  -3  583.04   33.80
   3  -5   3  574.64   34.20
  -3  -5  -3  644.14   37.40
   3  -5   3  580.04   34.30
   3   5   3  564.04   36.50
  -3   5  -3  694.53   41.50
  -4  -5  -3   20.40    6.50
  -4  -5  -3   33.60   11.50
   4  -5   3   26.90    8.10
  -4   5  -3   -3.60   14.20
   4   5   3   21.80   10.00
   4  -6  -3   16.60    8.90
  -4  -6   3   23.40   10.90
  -4   6   3   21.10    7.40
   4   6  -3   13.60    6.20
   3  -6  -3   28.70    8.20
  -3  -6   3   23.90    9.60
   3  -6  -3   44.80    7.70
   3   6  -3   37.60    5.30
  -3   6   3   43.10    6.00
  -2  -6   3  181.68   17.30
   2  -6  -3  141.29   13.00
   2  -6  -3  148.09   11.90
  -2   6   3  155.48   10.60
   2   6  -3  147.39   10.10
  -1  -6   3   45.40    8.40
   1  -6  -3   60.69    6.70
   1  -6  -3   61.49    6.80
   1   6  -3   70.09    6.00
   1   6  -3   68.69    5.40
  -1   6   3   65.49    5.90
   0  -6  -3    6.70    2.90
   0  -6   3    2.10    3.60
   0   6  -3    5.00    2.10
   0   6   3    7.40    3.50
   0   6  -3    3.60    3.10
   0   6   3    5.90    2.30
   1  -6   3  696.43   36.20
   1  -6   3  677.63   35.30
  -1  -6  -3  607.64   35.30
  -1   6  -3  673.03   38.00
   1   6   3  553.74   37.00
  -2  -6  -3   14.30    5.80
  -2  -6  -3   11.10    3.70
   2  -6   3   12.20    3.80
   2  -6   3   14.00    4.40
  -2   6  -3   13.30    8.10
   2   6   3   12.10    6.50
  -3  -6  -3   16.80    5.00
   3  -6   3   19.20    5.80
  -3  -6  -3   18.10    8.30
   3  -6   3   22.00    5.60
  -3   6  -3   18.50   11.60
   3   6   3   14.30    8.20
   4  -6   3   14.10    7.70
  -4  -6  -3   12.40   10.80
  -4  -6  -3   10.80    6.30
  -4   6  -3  -10.20   14.40
   4   6   3   13.60   10.30
   4  -7  -3  473.05   32.10
  -4   7   3  512.75   30.50
  -3  -7   3   57.69    6.20
  -3  -7   3   21.60   10.70
   3  -7  -3   57.69    8.40
   3  -7  -3   43.20    9.30
   3   7  -3   57.69    7.20
  -3   7   3   47.50    6.60
  -2  -7   3    3.00    2.60
  -2  -7   3    2.10    8.00
   2  -7  -3    1.00    4.50
   2  -7  -3   -3.00    4.90
   2   7  -3    1.90    3.00
  -2   7   3    3.60    3.50
  -1  -7   3  525.05   34.20
   1  -7  -3  602.54   31.60
   1  -7  -3  554.24   31.40
  -1   7   3  531.75   30.80
   1   7  -3  546.75   30.30
   1   7  -3  566.24   31.20
   0  -7  -3 1223.18   67.49
   0  -7   3 1277.97   68.89
   0   7   3 1235.48   67.49
   0   7  -3 1255.37   68.39
   0   7   3 1294.27   67.99
   0   7  -3 1254.17   66.89
   1  -7   3   50.49    6.50
  -1  -7  -3   53.49    5.20
   1  -7   3   49.10    5.20
   1   7   3   52.19    6.20
   1   7   3   43.80    7.60
  -1   7  -3   51.09    7.60
  -2  -7  -3  430.16   24.10
   2  -7   3  402.66   24.70
   2   7   3  434.66   27.10
  -2   7  -3  392.26   29.30
  -3  -7  -3  466.65   27.80
   3  -7   3  486.95   28.40
   3  -7   3  462.45   28.70
   3   7   3  413.96   30.90
  -3   7  -3  572.34   36.50
   4  -7   3   11.90    7.80
  -4  -7  -3    9.40    6.60
  -4   7  -3    0.10   15.70
   4   7   3    5.90    9.60
  -4  -8   3   26.60   11.80
   4  -8  -3   15.90    9.00
   4   8  -3   14.20    8.90
  -4   8   3   17.40    8.10
   3  -8  -3  231.48   17.90
  -3  -8   3  237.08   15.40
   3   8  -3  221.78   15.50
  -3   8   3  238.78   16.10
  -2  -8   3  971.50   53.89
   2  -8  -3  945.81   54.99
  -2  -8   3 1154.98   61.19
   2  -8  -3  989.00   55.29
   2   8  -3  950.50   54.29
  -2   8   3 1002.10   54.39
  -1  -8   3  117.69   13.10
   1  -8  -3  134.79   10.50
   1  -8  -3  145.49   10.30
  -1   8   3  133.59    9.50
   1   8  -3  138.49    9.90
   0  -8  -3  399.96   23.60
   0  -8   3  417.56   25.30
   0   8  -3  414.26   24.60
   0   8   3  410.96   23.70
   0   8   3  422.46   23.90
   0   8  -3  422.96   22.90
  -1  -8  -3  601.04   34.00
   1  -8   3  600.74   34.90
   1  -8   3  605.34   33.70
   1   8   3  609.54   35.60
  -1   8  -3  658.43   36.60
   1   8   3  608.74   34.80
   2  -8   3  327.87   20.40
  -2  -8  -3  329.27   19.30
   2   8   3  314.87   22.50
   2   8   3  322.27   20.70
  -2   8  -3  273.37   24.40
  -3  -8  -3   40.30    6.40
   3  -8   3   36.30    7.50
   3   8   3   34.80   10.20
   3   8   3   29.50    7.80
  -3   8  -3   28.20   13.00
   4  -8   3  149.79   15.40
  -4   8  -3  107.29   21.40
   4   8   3  134.29   17.30
  -4  -9   3   18.60   12.10
   4  -9  -3   27.80    9.80
  -4   9   3   19.00    8.40
   4   9  -3   16.20    7.10
  -3  -9   3  125.99   10.70
   3  -9  -3  121.89   13.90
  -3   9   3  127.39   11.90
   3   9  -3  135.69   11.30
   2  -9  -3   -2.30    4.60
  -2  -9   3    7.90    9.50
  -2  -9   3   -0.20    2.80
   2  -9  -3    2.80    4.30
  -2   9   3    3.20    3.70
   2   9  -3    2.00    3.70
  -1  -9   3  108.69   13.00
   1  -9  -3  124.69    9.20
   1  -9  -3  115.59   10.10
  -1   9   3  105.59    8.30
  -1   9   3  118.29    8.70
   1   9  -3  115.99    9.30
   0  -9  -3  129.89    9.60
   0  -9   3  138.59   11.70
   0   9  -3  139.49    8.60
   0   9  -3  143.49   10.90
   0   9   3  130.39    9.70
   0   9   3  136.89    9.90
   1  -9   3    0.10    4.00
  -1  -9  -3    3.50    3.40
   1  -9   3    2.50    2.90
  -1   9  -3    0.70    5.20
   1   9   3    7.50    4.90
   1   9   3    5.10    4.00
   2  -9   3   37.70    6.70
  -2  -9  -3   37.60    5.50
   2   9   3   43.50    7.10
  -2   9  -3   20.50    9.80
   2   9   3   16.90    7.90
   3  -9   3   87.89   10.50
  -3  -9  -3  101.89   10.80
  -3   9  -3   84.29   16.10
   3   9   3   98.49   11.80
   4 -10  -3   13.20    9.50
  -4 -10   3   17.20    6.80
  -4 -10   3   19.70   12.70
   4  10  -3   22.10    7.50
  -4  10   3   22.60    8.80
  -3 -10   3  246.98   16.50
   3 -10  -3  251.67   19.40
  -3  10   3  240.78   17.60
   3  10  -3  253.07   17.20
  -2 -10   3  907.91   51.09
   2 -10  -3  958.50   51.39
   2 -10  -3  915.61   52.79
  -2 -10   3 1031.90   59.19
  -2  10   3  920.31   51.59
   2  10  -3  921.01   51.99
  -1 -10   3  502.75   32.20
  -1 -10   3  468.95   27.40
   1 -10  -3  504.95   29.20
   1 -10  -3  517.35   28.10
   1  10  -3  520.65   29.00
  -1  10   3  468.15   28.30
  -1  10   3  492.85   28.20
   0 -10   3  368.76   23.70
   0 -10  -3  362.76   21.60
   0  10   3  368.46   21.70
   0  10  -3  387.26   23.00
   0  10   3  370.76   22.00
   1 -10   3 1305.77   74.59
  -1 -10  -3 1309.67   73.29
   1  10   3 1416.96   73.99
  -1  10  -3 1374.46   75.69
   1  10   3 1396.86   74.39
   2 -10   3  354.46   22.80
  -2 -10  -3  370.76   21.30
   2  10   3  371.06   22.80
  -2  10  -3  335.37   26.70
   2  10   3  287.07   23.10
   3 -10   3    7.30    7.30
  -3 -10  -3   10.60    6.00
  -3  10  -3   11.40   12.30
   3  10   3   11.40    7.30
  -3 -11   3    8.10    4.60
   3 -11  -3   11.50    8.20
  -3 -11   3    1.70   12.30
   3  11  -3    9.80    5.80
  -3  11   3   10.20    6.30
  -2 -11   3    8.10    3.50
  -2 -11   3    6.30    9.70
   2 -11  -3   13.50    6.50
   2 -11  -3    8.60    4.20
   2  11  -3   12.80    5.10
  -2  11   3   12.80    4.80
   1 -11  -3   36.90    4.70
  -1 -11   3   25.70    3.50
   1 -11  -3   32.50    6.80
  -1 -11   3   17.30    7.60
   1  11  -3   28.30    5.50
  -1  11   3   16.40    4.40
  -1  11   3   23.80    4.50
   0 -11  -3  120.19   11.10
   0 -11   3  120.79   12.30
   0 -11  -3  125.69    9.90
   0  11  -3  140.69   11.40
   0  11   3  131.39    9.70
   0  11   3  141.69   10.40
  -1 -11  -3   12.60    4.30
   1 -11   3    6.90    5.30
  -1  11  -3    4.50    6.00
   1  11   3   10.50    5.00
   1  11   3   13.30    4.40
  -2 -11  -3   40.70    6.30
   2 -11   3   31.00    7.60
   2  11   3   39.80    8.70
  -2  11  -3   19.40    9.90
   2  11   3   37.80    7.90
   3 -11   3  133.99   15.70
  -3 -11  -3  158.38   13.80
  -3  11  -3   90.29   17.50
   3  11   3  143.99   15.10
  -3 -12   3   54.99   16.80
   3 -12  -3  122.19   13.60
  -3 -12   3  117.39   10.80
   3  12  -3  116.09   12.30
  -3  12   3  123.99   12.80
  -2 -12   3  622.84   35.00
   2 -12  -3  609.54   37.30
  -2 -12   3  631.64   43.40
  -2  12   3  626.84   35.60
   2  12  -3  625.54   36.40
   1 -12  -3   88.89    8.00
  -1 -12   3   78.19   11.70
  -1 -12   3   90.19    7.10
   1 -12  -3   91.89   11.20
   1  12  -3   81.79    9.60
  -1  12   3   84.09    9.00
  -1  12   3   91.19    8.20
   0 -12   3   59.89    9.00
   0 -12  -3   55.99    7.90
   0 -12  -3   79.29    6.90
   0  12   3   66.29    7.10
   0  12  -3   66.09    8.30
   0  12   3   62.19    7.60
  -1 -12  -3  718.33   40.90
   1 -12   3  727.43   42.80
   1  12   3  744.23   42.20
   1  12   3  752.22   40.90
  -1  12  -3  723.83   43.40
  -2 -12  -3  158.08   13.10
   2 -12   3  169.48   15.30
  -2  12  -3  150.48   18.70
   2  12   3  157.58   14.30
   3 -12   3   79.29   11.50
  -3 -12  -3   88.59   10.00
  -3  12  -3   54.99   15.60
   3  12   3   72.69   11.40
   3 -13  -3  219.48   20.60
  -3 -13   3  221.58   15.80
   3  13  -3  213.08   17.40
  -3  13   3  237.08   17.50
  -2 -13   3   10.40   10.80
   2 -13  -3    6.00    7.40
  -2 -13   3    2.10    3.50
  -2  13   3    3.60    5.10
   2  13  -3    3.30    5.60
  -1 -13   3  780.62   48.80
  -1 -13   3  818.72   43.90
   1 -13  -3  829.52   46.60
   1 -13  -3  778.72   44.00
  -1  13   3  779.62   44.50
   1  13  -3  826.62   46.00
   0 -13  -3  352.06   23.20
   0 -13  -3  342.37   20.90
   0 -13   3  359.86   24.30
   0  13   3  360.36   22.10
   0  13  -3  348.47   22.70
   0  13   3  333.57   20.60
   1 -13   3    2.40    6.20
  -1 -13  -3    1.50    4.50
   1  13   3    1.20    3.80
  -1  13  -3   -2.10    6.10
   1  13   3    4.30    5.10
  -2 -13  -3  219.08   15.90
   2 -13   3  227.98   18.80
  -2  13  -3  208.98   21.60
   2  13   3  213.38   17.50
   2 -14  -3   80.69   11.70
  -2 -14   3   59.89    6.80
  -2 -14   3   60.99   14.50
  -2  14   3   64.29    8.10
   2  14  -3   69.39    9.40
   1 -14  -3   54.19    9.80
   1 -14  -3   39.10    5.40
  -1 -14   3   30.70    9.70
  -1 -14   3   40.30    4.90
   1  14  -3   47.30    7.90
  -1  14   3   55.09    6.60
   0 -14  -3   27.00    5.30
   0 -14   3   22.40    8.00
   0  14   3   27.00    4.80
   0  14  -3   29.00    7.20
   0  14   3   31.00    6.20
   1 -14   3   55.69    9.60
  -1 -14  -3   63.79    7.30
  -1  14  -3   41.50    9.20
   1  14   3   71.89    9.50
  -2 -14  -3   19.00    6.20
   2 -14   3    9.70    8.40
  -2  14  -3    8.60   10.10
   2  14   3   18.30    7.40
  -2 -15   3    5.90    4.30
   2 -15  -3    9.20    9.00
  -2 -15   3    2.10   11.60
   2  15  -3    4.60    6.80
  -2  15   3   12.00    6.00
   1 -15  -3  449.06   29.20
  -1 -15   3  380.16   30.10
   1  15  -3  433.26   27.10
  -1  15   3  403.66   25.00
   0 -15   3  691.33   41.30
   0 -15  -3  658.03   37.20
   0  15   3  679.43   39.10
   0  15  -3  647.64   39.50
   0  15   3  630.24   36.90
   1 -15   3   31.70    9.10
  -1 -15  -3   20.10    5.60
   1  15   3   27.30    7.10
  -1  15  -3   20.30    8.20
  -2 -15  -3  324.17   20.80
   2 -15   3  310.87   24.70
   2  15   3  331.37   23.10
  -2  15  -3  247.08   26.10
   1 -16  -3    9.30    8.80
  -1 -16   3    5.90    9.30
   1  16  -3    3.00    6.50
  -1  16   3    1.90    4.80
   0 -16   3   22.70    9.40
   0 -16  -3   22.20    5.40
   0  16   3   21.70    7.00
   0  16  -3   20.40    7.60
  -1 -16  -3   84.49    8.90
   1 -16   3   99.89   13.10
   1  16   3   99.59   12.30
  -1  16  -3   92.29   12.60
   0 -17   3  205.38   21.60
   0 -17  -3  217.88   15.60
   0  17   3  244.18   18.60
   0  17  -3  220.08   19.00
  -4   0   4  771.22   45.10
   4   0  -4  809.52   45.90
  -4   0   4  839.92   50.59
  -3   0   4  567.34   33.20
  -3   0   4  612.44   38.20
   3   0  -4  600.64   34.00
  -2   0   4  176.48   11.40
   2   0  -4  201.28   12.70
  -2   0   4  140.09   15.60
   1   0  -4 1680.83  102.99
  -1   0   4 2113.39  103.29
  -1   0   4 1975.50  104.59
   0   0  -4 1406.36   73.09
   0   0  -4 1276.97   72.19
   0   0   4 1310.27   72.79
  -1   0  -4   -3.50    6.30
  -1   0  -4    6.10    3.90
   1   0   4   -1.50    4.00
  -2   0  -4  707.23   43.20
   2   0   4  714.13   39.70
  -2   0  -4  660.43   37.90
   3   0   4  582.94   32.00
  -3   0  -4  442.66   36.40
  -4   0  -4   35.20   17.00
   4   0   4   79.29   11.30
  -4  -1   4   11.70   11.00
   4  -1  -4    0.70    6.60
   4   1  -4   -2.90    5.90
  -4   1   4   -3.10    6.40
  -4   1   4    6.80   10.50
  -3  -1   4   92.09    8.40
  -3  -1   4   72.39   12.30
   3  -1  -4   81.99    8.60
   3   1  -4   85.59    8.30
  -3   1   4   82.09    8.90
  -3   1   4   73.09   11.40
   2  -1  -4   51.99    6.30
  -2  -1   4   49.50    5.70
  -2  -1   4   30.80    8.40
  -2   1   4   51.69    6.00
   2   1  -4   53.09    5.80
  -2   1   4   45.40    8.50
  -1  -1   4   12.50    5.70
   1  -1  -4    9.90    4.30
  -1  -1   4   17.00    4.40
  -1   1   4   19.30    4.40
   1   1  -4   14.40    3.90
  -1   1   4    2.60    5.20
   0  -1   4   19.30    4.60
   0  -1  -4   21.70    5.10
   0  -1   4   18.40    5.00
   0  -1  -4   15.90    6.10
   0   1  -4   23.90    4.70
   0   1   4   24.20    5.80
   0   1  -4   14.40    5.20
  -1  -1  -4  515.25   28.70
  -1  -1  -4  589.84   32.10
   1  -1   4  493.55   29.20
  -1   1  -4  421.66   28.40
  -2  -1  -4   37.20    4.80
  -2  -1  -4   34.20   10.40
   2  -1   4   32.50    6.20
   2   1   4   26.00    6.60
  -2   1  -4   37.40    4.50
  -2   1  -4   34.30    9.80
  -3  -1  -4  -13.10   11.10
   3  -1   4   13.60    6.60
  -3  -1  -4   15.70    4.50
   3   1   4   17.20    7.40
  -3   1  -4    1.60   11.30
  -4  -1  -4   12.90   15.40
   4  -1   4   36.40    9.30
  -4   1  -4   -0.90   15.20
   4   1   4   39.90   10.20
  -4  -2   4  324.27   27.50
   4  -2  -4  289.07   21.00
  -4   2   4  290.67   25.50
  -4   2   4  266.37   19.70
   4   2  -4  281.77   19.70
  -3  -2   4  242.38   23.30
   3  -2  -4  282.47   19.20
  -3   2   4  278.17   17.90
  -3   2   4  331.37   22.60
   3   2  -4  276.67   18.00
   2  -2  -4   42.80    6.50
  -2  -2   4   42.40    9.40
  -2   2   4   69.79    9.40
  -2   2   4   54.99    6.20
   2   2  -4   56.89    5.80
  -1  -2   4 1284.77   62.99
  -1  -2   4 1096.19   60.79
   1  -2  -4 1042.90   61.29
  -1   2   4 1144.39   60.89
   1   2  -4 1127.29   60.59
  -1   2   4 1022.50   61.69
   0  -2   4  998.80   56.89
   0  -2  -4 1086.79   56.89
   0  -2   4 1096.29   56.69
   0  -2  -4  875.61   56.19
   0   2  -4 1038.30   56.19
   0   2   4 1088.09   57.39
  -1  -2  -4    9.90    3.90
  -1  -2  -4   -2.50    6.50
   1  -2   4    6.30    4.10
  -1   2  -4   -4.00    3.60
   1   2   4    1.10    4.60
  -1   2  -4    3.00    5.90
  -2  -2  -4  649.24   35.10
  -2  -2  -4  540.55   39.50
   2  -2   4  672.93   36.20
  -2   2  -4  648.94   34.60
   2   2   4  621.34   37.20
   3  -2   4  327.47   20.60
  -3  -2  -4  221.28   26.30
  -3  -2  -4  311.07   19.00
  -3   2  -4  333.97   27.30
   3   2   4  321.27   22.20
   4  -2   4   10.50    8.10
  -4  -2  -4    7.70   15.20
  -4   2  -4  -17.10   14.50
   4   2   4    6.10    9.30
   4  -3  -4   -0.40    7.70
  -4  -3   4   16.00   12.20
  -4   3   4   11.20   10.70
   4   3  -4    0.10    5.90
  -4   3   4    5.60    7.00
  -3  -3   4  341.57   30.10
   3  -3  -4  449.66   26.90
  -3   3   4  421.66   25.10
   3   3  -4  440.16   25.20
  -3   3   4  462.25   29.10
  -2  -3   4  792.52   47.10
   2   3  -4  806.82   43.40
  -2   3   4  832.42   45.80
  -2   3   4  734.33   43.30
  -1  -3   4  171.98   14.20
  -1  -3   4  148.79   11.50
   1  -3  -4  179.78   12.90
   1   3  -4  166.68   10.90
  -1   3   4  150.38   12.40
   1   3  -4  166.18   11.10
  -1   3   4  174.18   11.70
   0  -3  -4  643.24   34.40
   0  -3   4  623.64   35.60
   0  -3  -4  576.34   35.10
   0  -3   4  616.54   34.70
   0   3  -4  662.23   35.50
   0   3  -4  537.75   34.10
   0   3   4  618.24   35.90
   1  -3   4  970.70   51.89
  -1  -3  -4  974.70   51.59
  -1  -3  -4  863.01   53.09
  -1   3  -4  966.10   53.89
   1   3   4  926.81   52.69
   2  -3   4  110.29    9.90
  -2  -3  -4  119.79    9.20
  -2  -3  -4   97.09   13.70
   2   3   4   89.89   11.30
  -2   3  -4  121.09   14.30
  -3  -3  -4   32.60   12.50
   3  -3   4   37.30    7.30
  -3  -3  -4   40.00    6.10
   3   3   4   35.90    9.50
  -3   3  -4   41.80   12.60
  -4  -3  -4  129.69   20.70
   4  -3   4  165.68   16.00
   4   3   4  161.48   18.10
  -4   3  -4  130.29   21.80
  -4  -4   4   25.80   13.60
   4  -4  -4   31.40    9.50
   4   4  -4   26.10    7.00
  -4   4   4   30.40   11.30
  -4   4   4   39.80    8.20
   3  -4  -4   17.50    7.20
  -3  -4   4    3.20    9.80
  -3   4   4   34.70    8.80
   3   4  -4   27.10    5.20
  -3   4   4   27.30    5.70
   2  -4  -4   37.40    7.10
  -2  -4   4   29.80    8.90
  -2   4   4   43.30    7.60
   2   4  -4   36.40    4.90
  -2   4   4   38.70    5.20
   2   4  -4   43.40    5.10
  -1  -4   4  293.47   21.30
   1  -4  -4  325.97   20.00
  -1   4   4  292.87   19.10
   1   4  -4  317.07   18.10
   1   4  -4  299.47   18.20
  -1   4   4  306.67   18.70
   0  -4   4  192.58   14.40
   0  -4   4  167.88   12.80
   0  -4  -4  201.78   12.50
   0  -4  -4  200.68   14.20
   0   4  -4  197.28   12.70
   0   4   4  165.38   14.70
   0   4  -4  200.28   13.90
   1  -4   4    3.40    4.00
   1  -4   4   -1.80    3.50
  -1  -4  -4    7.00    3.80
  -1  -4  -4    1.40    5.40
  -1   4  -4   -4.40    5.50
   1   4   4    5.00    5.70
  -2  -4  -4  135.49   10.30
   2  -4   4  123.39   10.70
  -2  -4  -4  126.19   15.30
   2  -4   4  124.29   10.20
   2   4   4  120.29   12.70
  -2   4  -4  151.78   15.30
  -3  -4  -4   41.70    6.40
   3  -4   4   46.60    7.50
  -3  -4  -4   39.70   12.40
  -3   4  -4   36.50   12.80
   3   4   4   41.50   10.00
   4  -4   4   -0.70    7.70
  -4  -4  -4    6.10   14.50
  -4  -4  -4   10.70    6.50
   4   4   4    0.70   10.00
  -4   4  -4   -3.20   15.50
  -4  -5   4   24.40   13.20
   4  -5  -4   19.00    9.90
  -4   5   4   32.60    8.40
   4   5  -4   30.00    7.10
  -3  -5   4  198.08   24.30
   3  -5  -4  233.58   20.70
   3   5  -4  280.87   17.70
  -3   5   4  297.57   18.20
  -3   5   4  341.07   22.30
   2  -5  -4 2583.94  127.49
  -2  -5   4 2599.34  129.99
  -2   5   4 2196.78  125.69
   2   5  -4 2165.78  125.39
  -2   5   4 2409.46  127.49
   2   5  -4 2240.48  125.39
  -1  -5   4  108.39   12.80
   1  -5  -4  118.79   11.50
  -1   5   4  131.79    9.80
   1   5  -4  119.89    9.10
   1   5  -4  120.09    8.70
  -1   5   4  112.09   10.00
   0  -5  -4  840.72   46.00
   0  -5   4  724.13   45.00
   0  -5   4  867.51   46.80
   0   5   4  787.72   46.50
   0   5  -4  885.01   46.20
   0   5  -4  801.92   44.70
  -1  -5  -4 1435.06   76.79
   1  -5   4 1428.56   76.79
   1  -5   4 1477.75   77.39
  -1  -5  -4 1393.46   77.79
  -1   5  -4 1197.78   78.89
   1   5   4 1599.44   78.69
  -2  -5  -4  416.76   27.50
   2  -5   4  399.46   23.90
   2  -5   4  389.26   23.80
  -2  -5  -4  404.96   23.70
   2   5   4  374.36   26.10
  -2   5  -4  427.86   28.30
   3  -5   4  189.28   15.00
  -3  -5  -4  196.68   14.10
  -3  -5  -4  170.78   21.00
   3   5   4  164.18   17.40
  -3   5  -4  221.18   22.40
  -4  -5  -4  225.88   17.10
  -4  -5  -4  215.08   26.60
   4  -5   4  232.18   18.80
  -4   5  -4  194.18   25.20
   4   5   4  199.88   21.60
   4  -6  -4   28.20   10.70
  -4  -6   4   21.10   14.10
   4   6  -4   27.90    7.10
  -4   6   4   28.10    8.50
   3  -6  -4    5.80    8.00
  -3  -6   4    0.00   10.20
   3   6  -4    4.80    5.70
   3   6  -4    7.70    4.50
  -3   6   4   10.70    5.30
  -2  -6   4   56.59   10.90
   2  -6  -4   44.50    8.20
   2   6  -4   51.19    6.30
  -2   6   4   54.09    6.20
   2   6  -4   55.39    5.60
  -1  -6   4  295.37   22.20
   1  -6  -4  302.97   19.30
  -1   6   4  313.47   18.80
   1   6  -4  308.37   18.50
   1   6  -4  307.07   18.00
   0  -6  -4  272.47   17.50
   0  -6   4  246.38   16.40
   0  -6   4  277.97   18.70
   0   6  -4  262.67   17.70
   0   6   4  274.07   16.30
   0   6  -4  264.07   16.00
   0   6   4  262.07   18.20
  -1  -6  -4    8.60    4.00
   1  -6   4    4.00    3.60
  -1  -6  -4    0.60    5.20
   1  -6   4    2.70    4.70
   1   6   4    1.30    6.30
  -1   6  -4   -3.30    6.10
   2  -6   4  196.48   14.70
   2  -6   4  194.18   14.30
  -2  -6  -4  219.08   14.50
  -2  -6  -4  216.88   18.40
  -2   6  -4  227.28   19.70
   2   6   4  241.58   18.20
  -3  -6  -4   29.20    6.40
  -3  -6  -4   26.50   11.50
   3  -6   4   18.00    6.60
  -3   6  -4   23.80   12.20
   3   6   4   22.40    9.50
  -4  -7   4   -0.50   13.30
   4  -7  -4    2.20   10.00
   4   7  -4   -2.70    6.30
  -4   7   4    4.00    7.90
  -3  -7   4  365.36   31.50
   3  -7  -4  446.36   28.50
   3  -7  -4  383.86   27.00
   3   7  -4  391.06   23.90
  -3   7   4  400.86   24.50
   3   7  -4  399.36   23.80
  -2  -7   4  329.67   24.60
   2  -7  -4  285.77   19.90
   2  -7  -4  283.97   21.00
   2   7  -4  273.27   17.30
   2   7  -4  270.47   17.50
  -2   7   4  290.47   18.00
  -1  -7   4  203.78   18.90
   1  -7  -4  197.98   16.60
   1  -7  -4  236.58   16.00
   1   7  -4  237.48   14.20
  -1   7   4  246.68   15.30
   1   7  -4  247.18   15.20
   0  -7  -4  303.77   18.20
   0  -7   4  264.17   19.10
   0   7  -4  274.27   16.40
   0   7   4  265.97   18.50
   0   7   4  269.67   16.80
   0   7  -4  273.47   18.30
   1  -7   4 1061.09   56.29
  -1  -7  -4 1077.19   56.69
   1  -7   4 1057.79   57.49
   1   7   4  959.80   58.49
   1   7   4 1056.49   57.49
  -1   7  -4  976.90   59.39
   2  -7   4   73.99    9.70
  -2  -7  -4   82.39    8.00
  -2  -7  -4   83.39   11.40
   2  -7   4   75.89    8.60
   2   7   4   94.69   11.70
  -2   7  -4   71.89   12.80
  -3  -7  -4   12.30   11.20
  -3  -7  -4   32.30    6.80
   3  -7   4   31.30    7.10
   3  -7   4   19.20    9.20
   3   7   4   12.40    9.90
  -3   7  -4   13.40   12.00
   4  -8  -4  243.98   23.50
  -4   8   4  260.37   20.30
   4   8  -4  255.67   18.80
   3  -8  -4  233.68   21.70
   3  -8  -4  240.28   20.30
  -3  -8   4  235.68   26.00
   3   8  -4  247.28   16.70
  -3   8   4  242.78   17.40
   3   8  -4  253.37   16.70
  -2  -8   4  235.08   21.90
   2  -8  -4  148.39   17.40
   2  -8  -4  218.28   17.00
   2   8  -4  220.28   14.00
   2   8  -4  210.58   14.30
  -2   8   4  222.18   14.80
  -1  -8   4  654.53   43.40
   1  -8  -4  712.03   40.40
   1  -8  -4  726.83   40.90
  -1   8   4  720.23   39.80
   1   8  -4  710.33   39.90
   1   8  -4  726.33   38.90
   0  -8  -4  400.36   23.00
   0  -8   4  387.86   24.70
   0   8  -4  371.76   23.70
   0   8  -4  366.06   21.50
   0   8   4  359.16   22.20
   0   8   4  379.46   23.50
  -1  -8  -4    6.20    4.30
   1  -8   4    5.00    3.70
   1  -8   4    5.10    5.40
   1   8   4    3.20    4.80
  -1   8  -4    3.70    6.80
   1   8   4   -8.10    7.10
   2  -8   4  234.38   17.80
   2  -8   4  270.57   16.90
  -2  -8  -4  262.87   17.30
   2   8   4  239.88   19.00
  -2   8  -4  234.18   22.70
   2   8   4  300.77   21.40
   3  -8   4  239.48   18.90
  -3  -8  -4  264.67   18.40
   3  -8   4  271.07   18.80
  -3   8  -4  281.77   26.30
   3   8   4  221.48   21.40
   3   8   4  275.17   23.10
   4  -9  -4    9.90   10.80
   3  -9  -4   23.60    9.30
  -3  -9   4   -1.10   12.00
   3   9  -4   20.30    6.00
  -3   9   4   27.50    6.90
   3   9  -4   28.30    6.10
  -2  -9   4  185.98   20.50
   2  -9  -4  133.69   15.30
   2  -9  -4  175.08   15.40
  -2   9   4  162.38   12.80
   2   9  -4  161.88   12.50
   2   9  -4  168.88   12.00
   1  -9  -4    4.80    5.20
   1  -9  -4    4.70    5.40
  -1  -9   4   -3.50    7.10
  -1   9   4    3.90    4.40
   1   9  -4    2.30    3.10
   1   9  -4    1.70    4.50
   0  -9   4    7.20    6.20
   0  -9  -4    9.30    4.90
   0   9   4   11.80    5.30
   0   9   4    9.20    4.10
   0   9  -4    5.20    3.10
   0   9  -4    9.00    5.30
  -1  -9  -4  128.29   10.60
   1  -9   4  110.19    8.90
   1  -9   4  105.39   11.90
  -1   9  -4   91.89   12.00
   1   9   4  114.79   11.00
   1   9   4  104.59   12.10
   2  -9   4   36.40    7.50
  -2  -9  -4   37.60    6.60
   2  -9   4   44.20    6.50
   2   9   4   27.50    9.90
   2   9   4   40.60    8.40
  -2   9  -4   28.70   10.80
  -3  -9  -4   15.30    6.80
   3  -9   4   10.20    6.90
   3  -9   4    7.80    7.50
   3   9   4    3.20    8.70
  -3   9  -4   11.30   12.60
   3   9   4    5.40   11.10
  -3 -10   4  240.58   27.40
   3 -10  -4  222.68   21.00
   3  10  -4  242.18   17.20
   3  10  -4  249.18   17.00
  -3  10   4  236.68   17.90
  -2 -10   4   27.30   11.60
   2 -10  -4   40.00    8.60
   2 -10  -4   42.00    7.90
   2  10  -4   36.30    5.60
   2  10  -4   30.20    6.30
  -2  10   4   39.70    6.70
   1 -10  -4 1054.99   54.59
  -1 -10   4  886.81   57.59
   1 -10  -4 1003.40   54.99
  -1  10   4  966.10   53.89
   1  10  -4  964.10   52.99
   1  10  -4  981.90   54.49
   0 -10   4  862.81   49.40
   0 -10  -4  865.21   47.20
   0  10  -4  853.41   46.00
   0  10   4  877.01   47.60
   0  10  -4  792.32   48.10
   0  10   4  826.32   47.10
  -1 -10  -4    0.10    4.70
   1 -10   4    3.90    3.90
   1 -10   4    0.70    6.00
   1  10   4    4.50    6.80
   1  10   4    3.50    5.50
  -1  10  -4    0.80    7.00
  -2 -10  -4  491.15   28.60
   2 -10   4  508.15   30.00
   2 -10   4  476.85   28.10
  -2  10  -4  412.26   34.00
   2  10   4  505.65   30.80
   2  10   4  421.56   31.50
   3 -10   4  308.77   21.30
  -3 -10  -4  304.77   21.30
   3 -10   4  277.97   22.20
  -3  10  -4  303.47   28.80
   3  10   4  295.77   24.20
   3 -11  -4   95.29   13.10
  -3 -11   4   48.40   15.70
   3  11  -4   80.69    9.10
   3  11  -4   78.19    9.70
  -3  11   4   80.79   10.10
   2 -11  -4   39.10    9.50
  -2 -11   4   20.80   11.60
   2 -11  -4   45.70    7.90
  -2  11   4   35.70    7.10
   2  11  -4   35.90    7.20
   2  11  -4   28.10    5.80
   1 -11  -4    6.00    5.30
  -1 -11   4   -4.30    7.70
   1 -11  -4    0.70    5.80
   1  11  -4   -0.10    5.00
  -1  11   4    0.70    4.60
   1  11  -4    0.10    3.60
   0 -11  -4    3.60    5.00
   0 -11   4    1.30    6.40
   0  11   4    2.40    4.30
   0  11  -4   -1.50    5.30
   0  11   4    6.80    5.00
   1 -11   4  165.28   15.20
   1 -11   4  137.09   11.10
  -1 -11  -4  164.78   13.10
   1  11   4  154.08   14.10
  -1  11  -4  162.58   16.40
   1  11   4  146.79   13.70
   2 -11   4   12.50    7.70
  -2 -11  -4   20.20    6.50
   2 -11   4   12.00    5.70
   2  11   4   18.10    8.00
  -2  11  -4    8.20   10.70
   2  11   4   -1.90    8.90
   3 -11   4    3.40    7.40
   3 -11   4    2.00    8.40
  -3 -11  -4   10.60    7.50
  -3  11  -4   -5.70   12.40
   3  11   4    8.40    9.00
   3 -12  -4  164.48   17.30
  -3 -12   4  100.09   19.70
   3  12  -4  155.28   13.80
  -3  12   4  149.59   14.90
   3  12  -4  143.69   14.20
   2 -12  -4   -2.00    8.10
  -2 -12   4    0.00   10.70
   2 -12  -4   11.70    6.10
   2  12  -4    5.40    6.00
  -2  12   4    7.00    5.90
   2  12  -4    1.20    5.00
   1 -12  -4  525.65   29.90
   1 -12  -4  513.65   31.70
  -1 -12   4  471.95   34.50
   1  12  -4  501.05   28.60
  -1  12   4  516.75   29.80
   1  12  -4  493.55   30.60
   0 -12   4  452.65   30.20
   0 -12  -4  467.25   27.30
   0  12  -4  436.86   28.50
   0  12   4  451.95   27.60
   0  12   4  457.95   27.20
  -1 -12  -4    2.20    5.40
   1 -12   4   -0.30    7.00
  -1  12  -4    3.00    8.00
   1  12   4   -1.10    5.80
   1  12   4    5.60    6.00
  -2 -12  -4  311.57   20.80
   2 -12   4  319.67   23.10
   2 -12   4  280.97   19.60
  -2  12  -4  266.57   26.50
   2  12   4  312.77   22.80
   2 -13  -4  446.66   31.20
  -2 -13   4  442.06   36.30
  -2  13   4  460.05   28.40
   2  13  -4  482.45   27.80
   2  13  -4  468.25   29.10
  -1 -13   4   32.60   10.80
   1 -13  -4   37.00    9.10
   1 -13  -4   37.60    6.60
  -1  13   4   37.40    6.60
   1  13  -4   33.70    5.40
   1  13  -4   37.20    7.70
   0 -13   4  393.76   27.40
   0 -13  -4  397.46   23.90
   0  13   4  396.66   23.90
   0  13  -4  375.76   25.60
   0  13   4  362.46   24.40
   1 -13   4  252.27   21.20
  -1 -13  -4  268.77   18.60
  -1  13  -4  256.57   21.60
   1  13   4  263.07   19.70
   1  13   4  259.97   18.40
  -2 -13  -4   59.59    8.80
   2 -13   4   51.59    7.80
   2 -13   4   50.99   10.90
  -2  13  -4   27.50   12.70
   2  13   4   56.89   10.80
   2 -14  -4    2.50    9.80
  -2 -14   4   -1.70   11.90
   2  14  -4   -3.80    6.60
   2  14  -4   -2.60    6.00
  -2  14   4    3.10    6.30
   1 -14  -4   59.09   11.00
   1 -14  -4   56.29    7.60
  -1 -14   4   53.89   12.90
  -1  14   4   69.89    8.10
   1  14  -4   52.69    9.00
   0 -14   4   28.00    9.80
   0 -14  -4   26.30    6.20
   0  14  -4   19.50    7.80
   0  14   4   25.50   10.30
   0  14   4   27.70    6.10
   1 -14   4    6.70    8.70
  -1 -14  -4    3.10    6.20
  -1  14  -4    3.00    8.40
   1  14   4    2.80    6.90
  -1 -15   4   52.79   13.50
   1 -15  -4   69.99   17.10
   1 -15  -4   57.79    7.70
  -1  15   4   74.69    8.80
   1  15  -4   58.29    9.90
   0 -15  -4  145.29   13.30
   0 -15   4  153.78   18.60
   0  15  -4  134.39   15.40
   0  15   4  157.38   13.00
  -1 -15  -4  579.34   33.90
   1 -15   4  591.14   37.90
   1  15   4  582.84   35.80
  -1  15  -4  524.75   37.10
   0 -16  -4   14.00    6.40
   0 -16   4   16.30   10.60
   0  16  -4   12.60    8.20
   0  16   4   17.70    9.90
   4   0  -5    5.90    7.90
  -4   0   5    9.40   14.00
   3   0  -5  841.52   44.60
  -3   0   5  806.22   43.10
  -3   0   5  636.34   48.70
   2   0  -5 1218.78   68.09
  -2   0   5 1251.97   67.09
  -2   0   5 1234.58   71.09
  -1   0   5   -2.00    5.80
  -1   0   5   -3.60    6.20
   1   0  -5   -1.70    4.50
   0   0  -5  922.71   51.89
   0   0   5  894.51   52.39
   0   0  -5  982.70   52.99
  -1   0  -5  507.45   31.70
   1   0   5  559.04   32.30
  -2   0  -5  327.87   24.90
  -2   0  -5  262.17   17.80
   2   0   5  250.47   20.40
   3   0   5  117.39   13.70
  -3   0  -5  104.49   17.80
   4  -1  -5   27.40    9.20
  -4  -1   5   10.40   14.80
   4   1  -5   32.70    8.70
  -4   1   5   27.70    7.90
  -4   1   5   35.40   15.40
   3  -1  -5   31.60    7.90
  -3  -1   5   11.00   12.00
  -3  -1   5   40.80    6.50
  -3   1   5   40.50    6.80
  -3   1   5   19.00   11.80
   3   1  -5   39.50    7.40
   2  -1  -5    0.50    5.80
  -2  -1   5   16.90    4.90
  -2  -1   5   19.20    9.50
  -2   1   5   -2.70    8.90
   2   1  -5    9.40    5.40
  -2   1   5   16.80    5.10
  -1  -1   5   70.99    9.60
   1  -1  -5  114.09   10.50
  -1  -1   5  116.29   12.30
   1   1  -5   74.09    8.60
  -1   1   5  100.49   12.90
  -1   1   5   90.39   10.00
   0  -1   5   83.09    9.20
   0  -1   5   80.69    9.50
   0  -1  -5   95.39    9.20
   0  -1  -5   78.89   10.40
   0   1  -5   84.59    9.90
   0   1  -5   91.49    9.60
   0   1   5   74.09    9.30
  -1  -1  -5   -0.50    8.70
   1  -1   5   -0.60    5.40
  -1  -1  -5   -9.30    5.60
  -1   1  -5   -4.00    7.10
   1   1   5   -3.60    5.30
  -1   1  -5  -10.80    5.50
   2  -1   5  118.39   13.40
  -2  -1  -5  130.39   11.50
  -2  -1  -5  129.19   16.90
   2   1   5  101.89   12.70
  -2   1  -5  148.89   17.50
   3  -1   5   24.00    9.10
  -3  -1  -5   -1.50   13.80
   3   1   5   18.10    9.60
  -3   1  -5   10.90   12.90
  -4  -2   5   -6.00   14.80
   4  -2  -5    1.10    8.80
  -4   2   5    7.40    7.70
  -4   2   5    8.00   14.10
   4   2  -5    0.90    7.20
  -3  -2   5  247.08   20.20
   3  -2  -5  250.87   19.80
  -3  -2   5  221.78   25.50
   3   2  -5  290.37   18.50
  -3   2   5  275.37   17.80
  -3   2   5  228.98   24.40
  -2  -2   5  684.63   40.00
   2   2  -5  642.24   36.00
  -2   2   5  641.94   35.70
  -2   2   5  530.65   39.40
  -1  -2   5   42.40    7.80
   1  -2  -5   47.90    6.80
  -1  -2   5   11.90    6.60
  -1   2   5   30.10    8.20
   1   2  -5   31.70    6.00
   1   2  -5   22.10    5.60
  -1   2   5   46.70    7.80
   0  -2   5  506.85   29.50
   0  -2   5  467.35   29.50
   0  -2  -5  555.44   30.10
   0  -2  -5  476.65   30.30
   0   2  -5  430.46   29.60
   0   2  -5  502.25   28.90
   0   2   5  527.95   30.60
   1  -2   5  918.31   57.09
  -1  -2  -5  892.71   56.79
   1   2   5 1072.69   57.59
  -1   2  -5 1207.28   58.89
   2  -2   5   14.90    6.90
  -2  -2  -5   11.90   12.30
  -2  -2  -5   21.40    6.00
   2   2   5    9.40    7.50
  -2   2  -5   21.90   10.00
  -2   2  -5   20.10    6.00
  -3  -2  -5  109.19   11.30
   3  -2   5   99.09   12.20
  -3  -2  -5   94.49   19.70
   3   2   5   98.99   13.90
  -3   2  -5  114.09   17.50
   4  -3  -5  222.78   22.70
  -4   3   5  267.17   20.00
   4   3  -5  281.97   20.00
  -4   3   5  284.27   29.20
  -3  -3   5   52.99   14.20
   3  -3  -5   82.39   11.20
   3   3  -5   89.49    9.10
  -3   3   5  107.39   10.90
  -3   3   5   93.89   14.80
  -2  -3   5  157.18   16.70
   2  -3  -5  112.39   11.90
  -2   3   5  138.49   11.50
   2   3  -5  142.69   11.60
  -2   3   5  115.69   14.50
  -1  -3   5 1101.79   59.99
   1  -3  -5 1134.99   58.79
  -1   3   5  984.10   58.79
   1   3  -5 1005.20   58.09
   0  -3  -5  263.27   21.30
   0  -3   5  370.56   21.40
   0  -3  -5  396.66   22.70
   0  -3   5  313.37   22.10
   0   3  -5  351.86   20.80
   0   3  -5  301.67   22.10
   0   3   5  367.26   23.20
  -1  -3  -5   43.10   11.20
  -1  -3  -5   55.19    7.90
   1  -3   5   49.40    8.00
  -1   3  -5   39.60    6.90
  -1   3  -5   65.39    9.90
   1   3   5   82.39    9.50
   2  -3   5  388.46   25.30
  -2  -3  -5  389.96   24.30
  -2  -3  -5  344.37   30.90
  -2   3  -5  436.56   28.40
  -3  -3  -5  100.29   20.10
   3  -3   5  126.29   14.90
  -3  -3  -5  156.18   13.00
   3   3   5  137.19   16.20
  -3   3  -5  150.68   18.70
   4  -4  -5   -8.60    9.50
  -4  -4   5  -24.80   15.00
  -4   4   5   10.30   14.40
   4   4  -5   -0.30    6.90
  -4   4   5    8.00    8.10
  -3  -4   5    1.50   11.50
   3  -4  -5   15.70    8.20
  -3   4   5   22.60   11.30
  -3   4   5   22.70    6.80
   3   4  -5   19.60    6.00
   2  -4  -5   51.49    8.50
  -2  -4   5   53.69   10.60
  -2   4   5   43.40    6.90
   2   4  -5   47.30    6.30
  -2   4   5   47.00   10.50
  -1  -4   5  190.88   16.60
   1  -4  -5  231.98   15.70
  -1   4   5  195.98   15.30
   1   4  -5  196.88   13.80
  -1   4   5  155.28   15.50
   1   4  -5  180.48   13.80
   0  -4   5  162.38   12.30
   0  -4  -5  151.08   14.10
   0  -4   5  151.58   14.10
   0  -4  -5  118.99   11.90
   0   4  -5  154.78   11.80
   0   4   5  135.89   14.80
   0   4  -5  138.19   13.80
  -1  -4  -5   96.99   13.60
   1  -4   5  123.39   12.00
  -1  -4  -5  133.29   12.60
   1  -4   5  121.89   12.00
   1   4   5  145.49   13.50
  -1   4  -5  123.79   14.30
   2  -4   5   13.90    6.60
  -2  -4  -5   14.10    6.20
  -2  -4  -5  -10.60   11.70
   2   4   5   13.40    7.80
  -2   4  -5   12.40    8.80
   3  -4   5   14.00    7.70
  -3  -4  -5   18.10    6.60
  -3  -4  -5  -21.80   14.70
  -3   4  -5    7.20   12.40
   3   4   5    4.50    9.70
   4  -5  -5  397.36   32.20
  -4   5   5  467.15   29.20
   4   5  -5  468.55   28.60
   3  -5  -5  239.28   20.90
  -3  -5   5  213.98   25.00
   3   5  -5  251.27   17.20
  -3   5   5  242.18   23.90
  -3   5   5  262.17   17.90
  -2  -5   5  144.89   16.90
   2  -5  -5  154.98   14.40
  -2   5   5  132.09   16.10
   2   5  -5  129.49   11.00
   2   5  -5  121.69   10.10
  -2   5   5  135.99   12.00
  -1  -5   5 1395.26   77.09
   1  -5  -5 1505.75   75.69
   1   5  -5 1350.16   74.49
   1   5  -5 1390.56   74.19
  -1   5   5 1363.46   75.29
  -1   5   5 1214.18   75.09
   0  -5   5  683.13   37.90
   0  -5   5  687.23   40.00
   0  -5  -5  632.04   37.30
   0  -5  -5  634.14   39.10
   0   5   5  659.83   39.90
   0   5  -5  751.22   39.80
   0   5  -5  583.54   37.20
   1  -5   5   39.60    7.10
  -1  -5  -5   54.59    7.90
  -1  -5  -5   29.30    9.30
   1  -5   5   32.20    7.30
  -1   5  -5   35.40    9.40
   1   5   5   57.39    9.30
   2  -5   5  635.54   37.10
  -2  -5  -5  658.53   36.90
  -2  -5  -5  522.15   41.30
   2   5   5  675.33   38.90
  -2   5  -5  665.53   40.70
  -3  -5  -5  387.16   24.30
   3  -5   5  403.76   25.40
  -3  -5  -5  266.87   32.70
  -3   5  -5  453.85   31.50
   3   5   5  335.97   27.30
   4  -6  -5   -9.90   12.00
   4  -6  -5    4.40   12.10
  -4  -6   5  -24.00   15.60
   4   6  -5    5.70    7.30
  -4   6   5    9.40    8.80
   3  -6  -5   11.20    8.90
  -3  -6   5    4.60   11.70
   3   6  -5    4.90    5.40
  -3   6   5   13.60    6.90
  -2  -6   5   17.60    9.40
   2  -6  -5   20.10    7.70
   2   6  -5   12.70    4.60
  -2   6   5   12.50    5.80
   2   6  -5   13.60    4.80
  -2   6   5   25.90    9.00
   1  -6  -5  295.77   21.60
  -1  -6   5  287.37   23.10
   1   6  -5  296.27   19.50
   1   6  -5  303.07   18.80
  -1   6   5  318.67   20.70
   0  -6  -5  196.48   17.70
   0  -6   5  244.68   19.20
   0  -6   5  201.38   15.50
   0   6  -5  281.97   18.50
   0   6   5  246.38   15.50
   0   6   5  180.38   18.30
   0   6  -5  218.28   15.30
   1  -6   5  191.48   15.20
  -1  -6  -5  146.99   15.80
   1  -6   5  186.98   14.10
  -1  -6  -5  184.58   15.00
   1   6   5  209.68   17.10
  -1   6  -5  132.09   17.30
  -2  -6  -5    4.50    6.10
   2  -6   5    1.60    5.70
   2  -6   5    8.00    6.20
  -2  -6  -5   -4.60   10.90
  -2   6  -5    1.50    9.30
   2   6   5    4.30    8.30
   3  -6   5   15.20    7.80
  -3  -6  -5   -0.70   15.00
  -3  -6  -5   24.20    7.60
   3   6   5   17.80   10.50
  -3   6  -5   20.10   12.50
   3  -7  -5   91.19   12.90
  -3  -7   5   68.69   15.40
   3  -7  -5   87.69   14.10
  -3   7   5   92.49   10.40
   3   7  -5   98.29   10.70
  -2  -7   5   73.49   12.90
   2  -7  -5   70.09   11.40
   2  -7  -5   74.99   10.80
   2   7  -5   67.39    8.40
  -2   7   5   71.19    8.70
   2   7  -5   66.79    7.20
  -1  -7   5  703.23   44.50
   1  -7  -5  676.03   42.50
   1  -7  -5  707.83   41.80
   1   7  -5  729.83   40.20
  -1   7   5  758.72   41.80
   1   7  -5  730.63   41.10
   0  -7  -5  313.67   21.60
   0  -7   5  262.97   19.00
   0  -7   5  322.97   23.10
   0   7  -5  340.97   22.00
   0   7   5  258.07   21.70
   0   7   5  313.37   19.20
   0   7  -5  284.87   18.80
   1  -7   5   30.20    7.80
  -1  -7  -5   34.30    7.40
   1  -7   5   37.60    6.60
  -1   7  -5   26.50   10.00
   1   7   5   32.40    9.90
  -2  -7  -5  324.47   27.20
   2  -7   5  322.77   21.80
   2  -7   5  324.67   22.50
  -2  -7  -5  347.47   22.60
   2   7   5  367.16   25.10
  -2   7  -5  347.17   27.20
  -3  -7  -5   86.69   10.40
  -3  -7  -5   31.40   16.70
   3  -7   5   77.79   10.50
   3   7   5   74.89   13.40
  -3   7  -5   75.19   15.70
   3  -8  -5  414.96   29.20
   3  -8  -5  370.96   29.00
  -3  -8   5  407.66   32.90
   3   8  -5  355.46   23.60
  -3   8   5  359.16   24.70
   2  -8  -5  552.84   35.60
  -2  -8   5  628.44   38.70
   2  -8  -5  557.74   35.40
  -2   8   5  565.74   33.00
   2   8  -5  545.85   31.80
   2   8  -5  507.65   32.00
   1  -8  -5   35.70    8.30
   1  -8  -5   26.80    8.90
  -1  -8   5   34.30   10.10
  -1   8   5   53.19    8.20
   1   8  -5   31.90    6.70
   1   8  -5   39.90    5.60
   0  -8  -5  193.88   16.50
   0  -8   5  184.48   18.50
   0   8   5  200.98   14.30
   0   8  -5  171.48   13.40
   0   8   5  162.28   16.80
   0   8  -5  220.28   17.00
   1  -8   5  449.36   26.50
   1  -8   5  432.86   28.40
  -1  -8  -5  489.85   27.90
  -1   8  -5  386.96   30.70
   1   8   5  454.15   30.10
   1   8   5  409.76   28.00
  -2  -8  -5   56.59    8.50
   2  -8   5   35.40    8.10
   2  -8   5   37.20    7.20
  -2   8  -5   36.70   12.10
   2   8   5   37.60   10.60
   3  -8   5   55.29    9.70
  -3  -8  -5   69.39   10.30
   3   8   5   42.30   12.50
  -3   8  -5   53.49   14.80
   3  -9  -5   28.70   11.90
   3  -9  -5   47.90   13.40
  -3  -9   5   24.30   13.90
  -3   9   5   49.70    9.20
   3   9  -5   47.10    7.60
   2  -9  -5   -2.50    9.20
   2  -9  -5    7.20    9.20
  -2  -9   5    9.50   10.70
   2   9  -5    7.50    5.00
  -2   9   5   15.10    6.80
   2   9  -5    6.30    5.60
  -1  -9   5   48.90   11.70
   1  -9  -5   27.50    9.50
   1  -9  -5   49.60    8.70
  -1   9   5   71.69    9.00
   1   9  -5   58.49    8.20
   1   9  -5   54.79    6.20
   0  -9   5   35.50    9.80
   0  -9  -5   46.50    8.60
   0   9  -5   29.10    6.50
   0   9   5   27.10    7.80
   0   9   5   48.30    9.50
   0   9  -5   34.40    8.60
   1  -9   5    4.20    7.20
  -1  -9  -5   11.90    7.00
   1  -9   5    6.20    5.20
   1   9   5   -4.80    9.30
  -1   9  -5   -1.00    9.00
   1   9   5    3.20    6.60
   2  -9   5   41.90    7.50
   2  -9   5   35.80    8.70
  -2  -9  -5   57.49    8.90
   2   9   5   38.60   10.50
  -2   9  -5   35.90   12.50
   2   9   5   52.69   12.20
   3 -10  -5  342.47   29.10
  -3 -10   5  386.96   33.50
  -3  10   5  375.46   24.80
   3  10  -5  333.87   23.10
  -2 -10   5  691.73   43.50
   2 -10  -5  652.43   39.80
   2 -10  -5  487.55   38.70
  -2  10   5  662.43   37.10
   2  10  -5  639.44   35.70
   2  10  -5  605.94   36.40
   1 -10  -5   16.80    7.90
  -1 -10   5   13.00   10.20
   1 -10  -5   30.80    9.10
  -1  10   5   32.50    7.80
   1  10  -5   24.80    5.00
   1  10  -5   32.70    7.10
   0 -10   5  490.25   34.60
   0 -10  -5  554.24   32.60
   0  10   5  523.85   32.70
   0  10  -5  508.95   32.90
  -1 -10  -5  603.04   34.30
   1 -10   5  555.54   32.40
   1 -10   5  585.84   35.50
  -1  10  -5  556.04   37.60
   1  10   5  452.35   35.80
   1  10   5  578.34   35.00
   2 -10   5   80.09   11.10
  -2 -10  -5  114.39   11.60
   2 -10   5   75.99    9.30
   2  10   5   74.29   12.70
   2  10   5   95.39   14.70
  -2  10  -5   60.89   14.50
   3 -11  -5   11.80   12.50
  -3 -11   5   16.70   14.40
  -3  11   5   21.70    8.90
   3  11  -5   13.60    7.10
   2 -11  -5   37.40   11.60
   2 -11  -5   32.40   10.60
  -2 -11   5   43.00   13.40
   2  11  -5   41.10    6.90
   2  11  -5   40.20    7.80
  -2  11   5   46.30    8.90
   1 -11  -5   63.19   13.00
  -1 -11   5   38.20   11.90
   1 -11  -5   67.89   10.40
  -1  11   5   72.69    9.60
   1  11  -5   55.99    6.50
   1  11  -5   56.79    8.80
   0 -11   5    7.30    9.30
   0 -11  -5   14.70    7.80
   0  11  -5    7.30    8.00
   0  11   5   14.40    7.80
   1 -11   5    2.40    8.20
  -1 -11  -5    4.20    7.40
  -1  11  -5   -3.20    9.50
   1  11   5    3.50    7.60
   1  11   5   -3.00    9.00
   2 -11   5   41.80    7.80
   2 -11   5   43.60   10.10
  -2 -11  -5   91.09   10.90
   2  11   5   43.60   13.20
  -2  11  -5   36.40   13.80
   2  11   5   44.90   11.10
  -2 -12   5  257.07   27.00
   2 -12  -5  244.08   21.50
   2 -12  -5  274.37   23.90
   2  12  -5  234.18   18.70
   2  12  -5  240.78   17.50
  -2  12   5  251.27   19.40
   1 -12  -5   84.39   10.90
  -1 -12   5   40.60   13.00
  -1  12   5   77.99   10.10
   1  12  -5   57.69    6.70
   1  12  -5   49.20    9.00
   0 -12   5  179.28   21.20
   0 -12  -5  229.28   18.40
   0  12   5  207.18   17.90
   0  12  -5  218.58   19.00
   1 -12   5  520.45   33.70
  -1 -12  -5  560.34   32.00
   1  12   5  449.95   32.90
   1  12   5  495.15   32.70
  -1  12  -5  485.55   35.10
   2 -12   5    6.70    6.40
  -2 -12  -5    7.00    8.60
   2 -12   5    6.50    9.00
   2  12   5  -11.50   11.40
  -2  12  -5    6.80   12.80
   2  12   5    5.00    9.40
  -2 -13   5   60.79   15.90
   2 -13  -5   58.99   13.70
   2 -13  -5   46.60   10.90
  -2  13   5   43.90    9.60
   2  13  -5   55.59    8.10
   2  13  -5   48.80    9.40
   1 -13  -5  423.16   26.50
  -1 -13   5  342.57   31.10
  -1  13   5  396.76   25.70
   1  13  -5  371.96   25.90
   0 -13  -5  178.48   16.60
   0 -13   5  121.69   16.70
   0  13  -5  153.78   17.10
   0  13   5  161.08   15.60
   1 -13   5   30.30   10.70
  -1 -13  -5   45.50    9.40
   1  13   5   40.10   10.30
  -1  13  -5   36.20   11.90
   1  13   5   34.50    9.70
  -1 -14   5   -0.90   11.20
   1 -14  -5    8.00    8.00
   1  14  -5    5.30    7.80
  -1  14   5    4.60    7.40
   0 -14   5   11.40   11.20
   0 -14  -5   16.80    7.90
   0  14   5   23.50    8.40
   0  14  -5   10.50    9.00
  -1 -14  -5    8.90    8.30
   1 -14   5   16.50   10.70
   1  14   5   21.30    9.30
  -1  14  -5   10.30   10.90
   1  14   5   16.40    9.00
   4   0  -6  414.26   29.80
   3   0  -6   95.39   12.50
  -3   0   6   86.29   18.10
  -3   0   6  136.89   13.20
   2   0  -6  236.08   21.00
  -2   0   6  347.67   26.40
  -2   0   6  312.77   20.70
  -1   0   6 1422.86   73.69
   1   0  -6 1192.98   71.99
   0   0  -6  213.88   17.00
   0   0   6  232.08   17.80
   0   0  -6  232.18   18.80
   1   0   6   76.99   10.50
  -1   0  -6  105.39   13.70
  -1   0  -6   79.29   11.00
   2   0   6  229.48   20.40
   3   0   6  228.38   23.50
  -3   0  -6  285.47   28.40
  -4  -1   6  -20.70   17.40
   4  -1  -6    3.30   10.00
  -4   1   6  -28.40   17.30
   4   1  -6   -2.20    9.10
   3  -1  -6   16.80    9.00
  -3  -1   6   15.20    8.10
  -3  -1   6    4.80   13.70
   3   1  -6   18.50    8.40
  -3   1   6    0.30   14.40
  -3   1   6   17.20    7.60
  -2  -1   6  161.68   19.50
  -2  -1   6  143.69   13.30
  -2   1   6  143.39   14.10
  -2   1   6  145.99   17.50
   2   1  -6  103.09   12.30
   1  -1  -6   -0.50    5.70
  -1  -1   6   -2.30    7.20
  -1  -1   6   -8.80    8.10
   1   1  -6   -2.00    5.80
  -1   1   6  -12.10    8.10
  -1   1   6  -17.30    8.30
   0  -1  -6  110.69   13.40
   0  -1   6  119.29   12.40
   0  -1   6  124.99   13.30
   0  -1  -6  139.09   13.20
   0   1  -6  127.19   12.30
   0   1   6  140.59   14.20
   0   1  -6  116.39   13.70
  -1  -1  -6   53.09   12.80
  -1  -1  -6   30.50    9.30
   1  -1   6   42.40    8.90
  -1   1  -6   64.19   11.50
   1   1   6   43.30    8.90
  -1   1  -6   33.20    8.60
  -2  -1  -6   -0.60    7.20
   2  -1   6   -6.90    8.50
  -2  -1  -6    0.00   12.60
  -2   1  -6   -3.30    8.40
   2   1   6    2.10    8.70
  -2   1  -6    4.30   10.90
   3  -1   6    2.50   10.40
  -3  -1  -6   -4.90   15.10
  -3   1  -6    7.10   14.40
   3   1   6   -3.00   10.50
   4  -2  -6  146.59   16.70
  -4  -2   6   87.39   22.40
   4   2  -6  191.58   17.70
  -4   2   6   87.69   22.80
  -4   2   6  186.28   16.70
  -3  -2   6   30.30   14.30
   3  -2  -6   34.70    9.90
   3   2  -6   37.90    8.90
  -3   2   6   10.80   15.60
  -3   2   6   46.40    8.70
  -2  -2   6  149.39   16.30
   2  -2  -6  123.89   13.00
  -2  -2   6  149.99   13.10
   2   2  -6  126.99   14.20
  -2   2   6  123.49   17.80
  -2   2   6  153.08   14.40
  -1  -2   6  705.13   39.90
   1  -2  -6  709.03   38.80
  -1  -2   6  568.24   39.40
   0  -2   6  240.58   18.60
   0  -2   6  291.47   19.30
   0  -2  -6  253.57   20.70
   0  -2  -6  279.87   19.60
   0   2   6  289.27   20.50
   0   2  -6  229.78   19.30
   0   2  -6  261.37   18.10
  -1  -2  -6   65.59   13.80
   1  -2   6   52.19    9.70
  -1  -2  -6   30.20    9.90
  -1   2  -6   84.49   11.60
   1   2   6   67.79   10.00
  -1   2  -6   62.39    9.00
  -2  -2  -6  549.74   37.00
   2  -2   6  426.56   31.40
   2   2   6  409.66   31.10
  -2   2  -6  520.95   33.60
  -3  -2  -6   48.60   18.50
   3  -2   6   37.20   11.70
  -3   2  -6   45.00   15.40
   3   2   6   30.80   11.80
   3  -3  -6  240.28   23.00
  -3  -3   6  356.26   29.80
  -3   3   6  319.27   21.70
  -3   3   6  222.98   29.90
   3   3  -6  321.57   21.70
   2  -3  -6  297.17   22.20
  -2  -3   6  346.37   25.60
  -2   3   6  320.97   22.30
  -2   3   6  263.17   27.00
   2   3  -6  326.67   21.80
   1  -3  -6   -0.70    5.90
  -1  -3   6   -2.90    7.00
  -1  -3   6  -11.30    7.30
   1   3  -6    2.50    7.60
  -1   3   6  -17.20    8.40
  -1   3   6  -15.00    8.40
   1   3  -6   -7.30    5.60
   0  -3   6  672.13   37.90
   0  -3   6  626.54   38.20
   0  -3  -6  568.14   38.50
   0  -3  -6  708.73   38.70
   0   3  -6  593.24   38.40
   0   3  -6  645.64   37.00
   0   3   6  693.33   39.40
  -1  -3  -6  326.47   27.10
  -1   3  -6  311.37   21.40
   1   3   6  325.77   22.80
  -1   3  -6  313.27   23.80
  -2  -3  -6   23.10    8.70
  -2  -3  -6    7.60   15.60
   2  -3   6   17.10    9.20
  -2   3  -6   10.80   10.90
   2   3   6   15.70    9.40
   3  -3   6   65.09   12.60
  -3  -3  -6   80.59   10.50
  -3  -3  -6   60.59   20.10
   3   3   6   64.49   13.50
  -3   3  -6   59.19   15.50
   3  -4  -6   14.60    9.40
  -3  -4   6   14.10   13.30
  -3   4   6  -15.40   14.10
  -3   4   6   31.60    9.10
   3   4  -6   14.10    7.40
  -2  -4   6   -2.80    9.00
   2  -4  -6    3.80    7.20
  -2   4   6   10.20    7.80
   2   4  -6   -2.30    6.10
  -2   4   6  -24.70   10.40
  -1  -4   6   62.79   10.10
   1  -4  -6   66.29    9.00
  -1  -4   6   36.50    8.60
  -1   4   6   39.50   10.50
   1   4  -6   45.10    8.50
  -1   4   6   42.60   10.60
   1   4  -6   49.00    8.20
   0  -4  -6  143.89   15.90
   0  -4   6  132.29   15.40
   0  -4   6  158.08   13.70
   0   4   6  148.59   16.60
   0   4  -6  142.69   12.60
   0   4  -6  119.39   15.30
  -1  -4  -6    3.50   12.00
   1  -4   6   17.60    7.80
   1  -4   6   22.00   12.70
  -1  -4  -6   -7.40    8.30
  -1   4  -6   15.40    9.20
   1   4   6   19.30    8.30
  -1   4  -6   12.10    6.50
  -2  -4  -6   41.10    9.70
   2  -4   6   35.70    9.80
  -2  -4  -6   36.50   17.10
  -2   4  -6   50.09   12.10
   2   4   6   46.70   10.70
   3  -4   6   24.80   10.70
  -3  -4  -6   29.50    9.10
  -3  -4  -6   -5.30   18.80
  -3   4  -6   16.30   13.20
   3   4   6   17.60   11.20
   3  -5  -6  557.34   35.40
  -3  -5   6  616.24   40.10
  -3   5   6  446.06   40.50
   3   5  -6  535.95   33.10
  -3   5   6  558.74   34.00
   2  -5  -6  554.04   32.80
  -2  -5   6  544.45   35.30
  -2   5   6  510.15   32.60
   2   5  -6  481.55   31.10
   1  -5  -6   -0.80    6.90
  -1  -5   6    2.70    8.20
  -1   5   6  -18.20    7.50
   1   5  -6    6.00    6.90
  -1   5   6   -8.70    8.50
   1   5  -6    4.30    6.20
   0  -5  -6  262.47   20.80
   0  -5   6  228.58   20.70
   0  -5   6  261.57   18.10
   0   5   6  272.07   21.60
   0   5  -6  240.18   17.10
   0   5  -6  201.18   20.30
  -1  -5  -6  868.41   58.29
   1  -5   6  882.11   57.69
  -1  -5  -6 1060.89   60.39
   1   5   6 1172.48   58.69
  -1   5  -6 1096.19   59.99
  -2  -5  -6   19.30    9.20
  -2  -5  -6   -4.40   16.10
   2  -5   6   26.10    9.10
  -2   5  -6   19.40   10.80
   2   5   6   19.80    9.70
  -3  -5  -6  139.69   25.10
   3  -5   6  139.69   15.60
   3   5   6  144.39   17.10
  -3   5  -6  145.29   19.20
  -3  -6   6   12.10   13.30
   3  -6  -6   10.30    9.90
  -3   6   6   20.60    9.20
   3   6  -6    8.40    7.00
   2  -6  -6    1.30    8.10
  -2  -6   6   10.60   10.10
  -2   6   6   -9.50   10.20
  -2   6   6    2.70    8.10
   2   6  -6    3.00    5.90
  -1  -6   6   43.50   10.60
   1  -6  -6   57.79   10.00
   1   6  -6   42.80    8.70
  -1   6   6   49.00   10.90
   1   6  -6   40.50    7.70
   0  -6   6  139.59   18.30
   0  -6  -6  148.29   15.20
   0  -6   6  177.78   14.30
   0   6   6  164.68   18.40
   0   6  -6  141.69   17.60
   0   6  -6  175.28   13.70
  -1  -6  -6   25.20   11.60
  -1  -6  -6   17.60    9.70
   1  -6   6   37.70    8.60
   1  -6   6   35.50    9.80
   1   6   6   63.39   11.10
  -1   6  -6   39.10   11.30
   2  -6   6   66.09   10.90
  -2  -6  -6   39.10   17.40
  -2  -6  -6   52.89   11.20
   2   6   6   88.79   12.70
  -2   6  -6   66.79   13.80
   3  -7  -6  153.88   16.70
  -3  -7   6  190.98   24.60
   3  -7  -6  128.09   20.00
   3   7  -6  165.58   15.20
  -3   7   6  184.38   17.70
   2  -7  -6  431.96   28.40
  -2  -7   6  401.96   30.40
   2   7  -6  376.06   25.10
  -2   7   6  409.06   27.40
  -1  -7   6    2.00    9.50
   1  -7  -6    1.20    8.80
   1   7  -6    7.40    7.20
  -1   7   6    7.50    9.30
   1   7  -6    7.90    6.10
   0  -7   6  639.54   41.40
   0  -7   6  661.93   37.20
   0  -7  -6  607.74   39.80
   0   7  -6  650.73   40.50
   0   7   6  634.34   40.30
   0   7  -6  601.84   36.60
   1  -7   6  127.19   14.70
  -1  -7  -6  146.99   15.10
   1  -7   6  140.39   17.30
   1   7   6  175.08   18.10
  -1   7  -6  118.69   16.70
  -2  -7  -6   15.50    9.60
   2  -7   6    3.90    7.80
  -2  -7  -6  -18.90   15.00
   2   7   6    7.40    9.70
  -2   7  -6   10.10   11.80
  -3  -8   6    3.40   13.30
   3  -8  -6   24.70   11.80
   3  -8  -6    7.20   14.40
   3   8  -6    9.50    7.20
  -3   8   6   18.70   10.10
  -2  -8   6  232.48   23.70
   2  -8  -6  226.18   21.50
   2  -8  -6  171.08   22.40
   2   8  -6  213.18   16.30
  -2   8   6  241.38   19.40
   1  -8  -6  454.55   32.10
  -1  -8   6  464.85   34.20
   1   8  -6  479.55   29.80
  -1   8   6  466.95   31.70
   1   8  -6  451.25   28.10
   0  -8  -6    9.30    9.80
   0  -8   6   19.40   10.90
   0   8  -6   18.60   10.00
   0   8  -6   23.40    8.50
   0   8   6    4.00   10.70
  -1  -8  -6   11.90    9.90
   1  -8   6   13.60    9.60
   1  -8   6   16.60    7.60
   1   8   6   23.20   11.10
  -1   8  -6   18.00   11.80
   1   8   6    0.40    8.20
   2  -8   6  227.38   19.40
  -2  -8  -6  252.97   22.50
   2   8   6  266.27   22.30
  -2   8  -6  238.88   25.30
   3  -9  -6   45.10   13.50
   3  -9  -6   13.40   14.90
  -3  -9   6    6.30   13.70
   3   9  -6   26.40    8.00
  -3   9   6   27.50   10.70
  -2  -9   6   44.10   13.80
   2  -9  -6   57.19   12.60
   2  -9  -6   51.39   14.30
  -2   9   6   55.89   11.00
   2   9  -6   59.79    8.10
  -1  -9   6   10.80   11.30
   1  -9  -6   -7.90   10.20
  -1   9   6    5.50    9.50
   1   9  -6    0.20    5.60
   1   9  -6    0.70    7.50
   0  -9   6    0.50   10.70
   0  -9  -6   -8.50    9.70
   0   9   6   -8.90    9.90
   0   9  -6    0.60    9.50
  -1  -9  -6   81.09   12.40
   1  -9   6   47.20   11.40
   1  -9   6   60.29    9.30
   1   9   6   60.29   13.20
  -1   9  -6   35.20   13.50
   1   9   6   30.90    9.70
  -2  -9  -6   19.50   10.70
   2  -9   6    6.70    7.70
   2   9   6    0.60   10.70
  -2   9  -6    7.30   12.70
   2   9   6   -4.00   10.50
  -2 -10   6  115.39   17.20
   2 -10  -6   94.39   15.20
   2 -10  -6   83.99   15.70
   2  10  -6   93.49    9.80
  -2  10   6  120.59   14.00
   2  10  -6   79.79   11.40
  -1 -10   6  730.03   48.30
   1 -10  -6  607.84   44.90
   1  10  -6  735.23   41.00
   1  10  -6  713.03   43.00
  -1  10   6  783.82   44.40
   0 -10   6  143.89   18.50
   0 -10  -6  157.48   17.20
   0  10  -6  162.48   18.80
   0  10   6  143.79   17.20
  -1 -10  -6   79.09   13.20
   1 -10   6   58.89   13.10
   1 -10   6   63.29   12.60
   1  10   6   58.09   11.50
   1  10   6   68.29   14.20
  -1  10  -6   46.60   14.50
   2 -10   6  186.28   16.90
  -2  10  -6  145.59   20.60
   2  10   6  214.38   22.30
  -2 -11   6   44.30   14.50
   2 -11  -6   49.70   14.60
   2 -11  -6   27.20   13.70
   2  11  -6   68.99    8.70
  -2  11   6   60.59   11.60
   2  11  -6   35.50    9.00
   1 -11  -6  -14.20   10.70
  -1 -11   6    3.30   12.10
   1  11  -6    7.80    6.00
  -1  11   6   10.30    9.90
   1  11  -6    8.60    8.20
   0 -11   6   49.60   13.80
   0 -11  -6   58.39   12.70
   0  11  -6   41.60   11.80
   0  11   6   54.89   12.70
  -1 -11  -6   18.20   11.10
   1 -11   6   16.50   10.90
   1  11   6    1.80   11.90
  -1  11  -6   12.00   12.90
   1 -12  -6  212.68   20.30
  -1 -12   6  167.98   22.40
  -1  12   6  254.97   21.10
   1  12  -6  205.68   19.10
   0 -12   6  126.29   18.10
   0 -12  -6  156.28   16.60
   0  12  -6  117.09   15.70
   0  12   6  134.49   16.40
  -1 -12  -6   31.40   11.70
   1 -12   6   24.90   11.80
  -1  12  -6   12.90   13.00
   1  12   6   -0.60   11.90
  -1 -13   6    2.40   13.20
   1 -13  -6   -2.80   11.10
   1  13  -6    4.20    8.80
   0 -13  -6  152.88   16.50
   0 -13   6  110.89   18.00
   0  13   6  144.49   16.50
   0  13  -6  111.99   15.90
   3   0  -7  337.57   26.50
  -2   0   7  195.28   20.50
   2   0  -7  266.97   20.50
  -1   0   7   -5.10   10.20
   1   0  -7    5.10    7.00
  -1   0   7    1.10    9.10
   0   0   7  742.53   43.50
   0   0  -7  711.13   42.30
  -1   0  -7  426.16   30.70
  -1   0  -7  415.96   28.60
   1   0   7  405.66   28.70
  -2   0  -7  -10.50   12.70
  -2   0  -7  -20.10   12.40
   2   0   7   -2.80   10.30
   3  -1  -7    9.10   10.00
  -3  -1   7    3.90   15.10
  -3   1   7   17.80   10.20
   3   1  -7    1.20    9.70
  -3   1   7   -8.60   16.30
   2  -1  -7    5.50    8.30
  -2  -1   7    5.10   11.30
  -2  -1   7  -13.40    8.80
   2   1  -7    2.90    8.30
  -2   1   7    6.80   12.90
  -2   1   7    0.30    9.80
  -1  -1   7  150.78   17.20
  -1  -1   7  131.89   15.60
   1  -1  -7  160.28   15.10
   1   1  -7  168.78   15.30
  -1   1   7  117.09   16.10
  -1   1   7  161.08   18.60
   0  -1  -7   18.20    7.90
   0  -1   7    9.80    8.50
   0   1   7    8.60    9.10
   0   1  -7   13.30    7.10
   0   1  -7   -2.40   13.80
  -1  -1  -7   42.80   13.90
  -1  -1  -7   30.40   10.70
   1  -1   7   46.30   10.40
   1   1   7   37.90   10.10
  -1   1  -7   34.70    9.60
  -1   1  -7   40.50   11.90
  -2  -1  -7  -23.20    9.30
  -2  -1  -7   18.80   14.60
   2  -1   7   13.50   10.70
   2   1   7   29.90   11.30
  -2   1  -7   14.00   13.00
  -3  -2   7  279.87   28.50
   3  -2  -7  216.98   22.40
   3   2  -7  203.38   21.60
  -3   2   7  269.27   21.70
  -3   2   7  233.18   26.90
  -2  -2   7   98.49   12.90
   2   2  -7  118.49   13.50
  -2   2   7  141.99   15.40
  -1  -2   7   14.60    9.80
   1  -2  -7   26.50    7.90
  -1  -2   7   18.50    9.00
  -1   2   7    9.70   10.80
   1   2  -7   16.70    7.80
  -1   2   7    7.00   11.60
   0  -2  -7  365.26   24.20
   0  -2   7  350.46   23.90
   0   2  -7  330.67   22.70
   0   2  -7  293.67   24.10
   0   2   7  374.86   25.50
  -1  -2  -7  289.37   26.00
  -1  -2  -7  246.88   23.30
   1  -2   7  259.37   22.10
   1   2   7  282.87   21.90
  -1   2  -7  263.07   20.70
  -1   2  -7  257.37   23.10
   2  -2   7   -8.60   10.20
  -2  -2  -7  -11.40   14.80
  -2   2  -7   -2.20   11.90
   2   2   7    8.50   10.50
   3  -3  -7    9.50   10.10
  -3  -3   7    0.50   13.90
  -3   3   7  -13.70   17.00
   3   3  -7    0.80    9.10
  -3   3   7   12.90   10.50
   2  -3  -7  207.48   17.90
  -2  -3   7  198.98   21.10
  -2   3   7  193.58   24.50
   2   3  -7  157.98   17.50
  -2   3   7  124.69   16.50
   1  -3  -7  432.76   26.30
  -1  -3   7  408.46   27.20
  -1  -3   7  413.36   27.40
   1   3  -7  337.27   25.90
  -1   3   7  332.97   29.70
   0  -3   7   54.59    9.80
   0  -3  -7   67.69   10.90
   0  -3   7   59.29   10.40
   0   3  -7   64.09    8.80
   0   3   7   70.29   11.90
   0   3  -7   53.69   10.90
  -1  -3  -7  151.68   16.30
   1  -3   7  124.49   14.90
  -1  -3  -7  143.89   19.10
   1   3   7  188.68   17.50
  -1   3  -7  159.58   16.00
  -1   3  -7  135.89   16.30
   2  -3   7   93.29   15.20
  -2  -3  -7  138.59   21.40
  -2   3  -7  130.59   17.20
   2   3   7  134.79   15.70
  -3  -4   7   -1.00   13.40
   3  -4  -7    9.50   10.30
  -3   4   7   10.40   11.10
  -3   4   7  -29.00   17.10
   3   4  -7    4.60    9.20
  -2  -4   7   63.19   13.10
   2  -4  -7   63.99   10.60
  -2   4   7   54.49   16.00
   2   4  -7   47.90   10.20
  -2   4   7   29.40   12.00
  -1  -4   7    2.50    8.70
  -1  -4   7    0.70    8.90
   1  -4  -7    6.80    7.70
   1   4  -7   -0.80    7.30
  -1   4   7  -21.20   11.20
   0  -4   7   30.40    9.60
   0  -4  -7   44.80   10.60
   0  -4   7   30.90    8.70
   0   4   7   42.40   11.30
   0   4  -7   48.00    7.90
   0   4  -7   31.50   10.40
   1  -4   7   30.80    9.90
  -1  -4  -7   11.40   14.80
  -1  -4  -7   20.20   11.70
   1   4   7   44.00   10.60
  -1   4  -7   24.50   11.10
  -2  -4  -7   -2.70   17.50
   2  -4   7    8.10   10.30
  -2  -4  -7  -28.90   11.00
   2   4   7   13.00   10.60
  -2   4  -7    6.80   12.50
  -3  -5   7   19.00   13.90
   3  -5  -7   19.20   10.70
  -3   5   7  -14.20   18.70
  -3   5   7   23.40   12.00
   3   5  -7   14.70    9.30
   2  -5  -7  233.98   19.90
  -2  -5   7  228.28   22.70
   2   5  -7  213.68   18.90
  -2   5   7  199.88   23.10
  -2   5   7  189.18   22.00
  -1  -5   7  488.45   28.90
   1   5  -7  301.57   24.90
  -1   5   7  317.67   29.90
   0  -5   7   67.59   12.10
   0  -5   7   82.89   10.80
   0  -5  -7  103.69   13.30
   0   5   7  105.89   14.20
   0   5  -7   97.69    9.90
   0   5  -7   68.19   12.80
   1  -5   7    7.50    8.70
  -1  -5  -7  -18.30   17.80
  -1  -5  -7  -23.00   11.30
  -1   5  -7    6.40   10.80
   1   5   7   10.40    9.70
  -2  -5  -7  708.53   45.00
   2  -5   7  439.46   36.30
  -2   5  -7  544.65   38.60
   2   5   7  571.94   36.70
   2  -6  -7   73.39   11.60
  -2  -6   7   54.89   13.00
  -2   6   7   38.30   15.40
  -2   6   7   62.19   13.80
   2   6  -7   54.39    9.90
   1  -6  -7    2.50    8.90
  -1  -6   7   -1.50   10.30
  -1   6   7  -29.60   11.90
   1   6  -7   -3.20    7.20
   0  -6   7   40.70   11.90
   0  -6   7   39.10    9.00
   0  -6  -7   41.40   11.90
   0   6  -7   30.60   11.80
   0   6  -7   43.80    7.90
   0   6   7   41.00   12.60
  -1  -6  -7   -4.00   12.10
   1  -6   7   18.90    9.00
  -1   6  -7   21.60   12.40
   1   6   7   25.90   10.90
  -2  -6  -7   -1.30   18.20
   2  -6   7    9.00   10.30
  -2  -6  -7  -17.70   12.10
   2   6   7   11.70   10.90
  -2   6  -7   -0.20   12.40
   2  -7  -7  115.29   17.70
   2  -7  -7  103.89   13.30
  -2  -7   7   85.69   15.20
   2   7  -7   86.69   11.30
  -2   7   7   86.99   15.30
  -1  -7   7  511.55   32.50
  -1   7   7  332.17   31.80
   1   7  -7  369.56   26.70
   0  -7   7   60.09   13.40
   0  -7  -7   63.79   13.30
   0   7  -7   47.40   11.70
   0   7   7   53.79   13.70
   0   7  -7   36.00   12.90
   1  -7   7  165.78   17.80
  -1  -7  -7  156.68   19.20
  -1   7  -7  220.78   23.50
   2  -8  -7   50.89   16.90
   2  -8  -7   76.09   13.00
  -2  -8   7   62.29   14.50
   2   8  -7   69.89   10.20
  -2   8   7   70.79   14.80
   1  -8  -7   12.10   11.30
  -1  -8   7   25.70   12.80
  -1   8   7  -11.70   12.90
   1   8  -7   15.70    7.80
   1   8  -7    4.20   15.20
   0  -8   7  184.08   23.60
   0  -8  -7  201.78   19.70
   0   8   7  172.78   19.80
   0   8  -7  174.78   22.80
  -1  -8  -7   85.49   16.80
   1  -8   7  105.49   13.20
   1   8   7  172.98   17.00
  -1   8  -7  110.19   17.50
  -2  -9   7    9.10   12.70
   2  -9  -7    6.60   11.70
  -2   9   7   15.60   13.20
   2   9  -7    5.00    7.80
  -1  -9   7   28.00   13.70
   1  -9  -7   25.70   12.50
  -1   9   7   -2.50   13.50
   1   9  -7   20.60   10.70
   1   9  -7   16.90    7.80
   0  -9   7   18.80   13.60
   0  -9  -7  -20.50   12.30
   0   9   7   -9.20   12.60
   0   9  -7   10.60   12.80
   1  -9   7   11.30    9.50
  -1  -9  -7  -31.00   13.20
   1  -9   7    1.40   14.10
  -1   9  -7   16.30   14.30
   1   9   7   -8.70   11.60
   1 -10  -7  -17.70   12.20
  -1 -10   7  -10.90   13.00
  -1  10   7  -20.10   12.80
   1  10  -7    4.10   10.30
   1  10  -7   10.20    8.00
   0 -10   7  374.96   32.00
   0 -10  -7  318.27   30.50
   0  10  -7  345.17   30.10
   0  10   7  300.37   29.90
   2   0  -8  240.98   22.30
  -2   0   8  243.08   25.80
  -1   0   8  372.46   29.30
   1   0  -8  388.96   26.70
   0   0  -8  104.79   12.00
   0   0   8   85.49   13.10
   1   0   8  174.48   19.90
  -1   0  -8  126.99   25.90
  -1   0  -8  166.68   16.20
  -2  -1   8   26.00   13.10
   2  -1  -8   45.80   11.00
  -2   1   8   15.20   14.50
   2   1  -8   30.40   11.00
  -2   1   8  -20.80   12.70
  -1  -1   8   -6.00   10.90
   1  -1  -8    1.70    8.40
  -1   1   8   -6.00   12.00
   1   1  -8   11.50    8.60
   0  -1  -8   53.99   10.40
   0  -1   8   51.49   11.20
   0   1   8   50.79   11.80
   0   1  -8   46.30    9.50
  -1  -1  -8   19.90   11.00
   1  -1   8   20.70   11.10
  -1   1  -8   17.20    9.90
  -1   1  -8   14.10   12.90
   1   1   8   27.50   11.20
  -2  -2   8  172.38   22.20
   2  -2  -8  150.58   15.60
   2   2  -8  122.49   15.80
  -2   2   8  163.18   20.30
   1  -2  -8  281.87   21.30
  -1  -2   8  204.38   22.30
  -1  -2   8  260.27   22.90
   1   2  -8  274.87   21.30
  -1   2   8  255.87   25.50
   0  -2  -8    8.00    9.10
   0  -2   8   -0.50    9.30
   0   2  -8    4.80    7.80
   0   2   8   -7.60   10.20
   1  -2   8   66.59   12.90
  -1  -2  -8   60.49   13.20
   1   2   8   55.59   12.40
  -1   2  -8   40.60   13.20
  -1   2  -8   41.90   11.90
   2  -3  -8   99.09   12.70
  -2  -3   8   72.49   14.60
  -2   3   8   95.69   18.70
   2   3  -8   48.00   11.90
  -2   3   8   15.30   15.30
  -1  -3   8   30.00   10.90
   1  -3  -8   45.40   10.20
  -1  -3   8   30.90   11.10
   1   3  -8   37.40    9.80
  -1   3   8   40.50   14.40
   0  -3  -8  267.87   22.20
   0  -3   8  234.38   21.00
   0   3   8  252.77   23.60
   0   3  -8  253.37   19.60
  -1  -3  -8   91.29   14.50
   1  -3   8   83.79   13.50
   1   3   8   82.09   13.70
  -1   3  -8   58.79   14.60
  -2  -4   8   -0.20   11.90
   2  -4  -8    6.60    9.90
   2   4  -8   -5.80    9.70
  -2   4   8  -40.70   13.90
  -1  -4   8   44.20   11.70
   1  -4  -8   60.89   11.10
   1   4  -8   50.99   10.50
  -1   4   8   32.10   14.90
   0  -4  -8   -3.80   10.20
   0  -4   8    9.10    9.00
   0   4   8    1.30   11.20
   0   4  -8   10.40    8.00
  -1  -4  -8    4.60   12.50
   1  -4   8    4.60   10.40
   1   4   8    5.90   11.00
  -1   4  -8    9.90   12.60
  -1  -5   8    7.50   10.80
   1  -5  -8   13.10    9.80
  -1   5   8   -1.60   14.20
   1   5  -8   15.50    9.30
   0  -5   8  234.68   21.30
   0  -5  -8  315.27   25.00
   0   5  -8  271.47   20.50
   0   5   8  310.07   25.90
  -1  -6   8   58.79   13.80
   1  -6  -8   71.59   12.30
   1   6  -8   49.50   10.70
  -1   6   8   31.90   16.40
   0  -6   8    5.30   13.00
   0  -6  -8    1.30   11.70
   0   6   8    3.90   12.50
   1  -7  -8   40.00   11.90
  -1  -7   8   33.70   13.30
   1   7  -8   39.00    9.90
  -1   7   8   -4.10   15.50
   0   7  -8  111.59   23.00
   0   0   0    0.00    0.00
_computing_structure_solution     'SHELXT 2018/2 (Sheldrick, 2018)'
;
_shelx_hkl_checksum              26258
_shelx_res_file
;
TITL eb755_a.res in P2(1)/m
    E:\SOLVED~1\EB751-~1\EB755_~1\eb755_a.res
    created by SHELXL-2018/3 at 12:30:13 on 15-Jul-2022
CELL 0.71073 3.9721 14.1641 6.7971 90.000 96.486 90.000
ZERR 2.0000 0.0007 0.0023 0.0011 0.000 0.002 0.000
LATT 1
SYMM -X, 0.5+Y, -Z
SFAC C H N O BR
UNIT 12 6 2 4 4
BOND
BOND $H
RTAB BRODST Br1 O1_$1
RTAB BROANG C3 Br1 O1_$1
EQIV $1 1-X,1-Y,1-Z
HTAB C2 Br1_$1
ACTA
FMAP 2 1 53
PLAN 20 0 0
HTAB 2.0
LIST 4 1
TEMP -173
L.S. 16
WGHT    0.051900
FVAR       0.59554
BR1   5    0.843249    0.550109    0.224354    11.00000    0.02375    0.01408 =
         0.02537   -0.00274    0.00482    0.00110
O1    4    0.297747    0.673723    0.858469    11.00000    0.04636    0.01912 =
         0.02707    0.00435    0.01355   -0.00498
N1    3    0.365848    0.750000    0.787837    10.50000    0.02090    0.01818 =
         0.01947    0.00000   -0.00160    0.00000
C2    1    0.600554    0.663655    0.520501    11.00000    0.01631    0.01530 =
         0.01968   -0.00060   -0.00302   -0.00036
AFIX  43
H2    2    0.550372    0.605683    0.581154    11.00000   -1.20000
AFIX   0
C3    1    0.745907    0.665874    0.346231    11.00000    0.01303    0.01274 =
         0.02460   -0.00371   -0.00240    0.00150
C1    1    0.530445    0.750000    0.603812    10.50000    0.01437    0.01992 =
         0.01576    0.00000   -0.00111    0.00000
C4    1    0.820406    0.750000    0.256638    10.50000    0.01520    0.02778 =
         0.02066    0.00000    0.00207    0.00000
AFIX  43
H4    2    0.920583    0.750000    0.136165    10.50000   -1.20000
AFIX   0
HKLF 4
REM  eb755_a.res in P2(1)/m
REM wR2 = 0.0812, GooF = S = 1.085, Restrained GooF = 1.085 for all data
REM R1 = 0.0291 for 764 Fo > 4sig(Fo) and 0.0355 for all 874 data
REM 55 parameters refined using 0 restraints
END
WGHT      0.0519      0.0000
REM Instructions for potential hydrogen bonds
HTAB C2 Br1_$1
REM Highest difference peak  1.039,  deepest hole -0.521,  1-sigma level  0.150
Q1    1   0.1610  0.6495  0.7741  11.00000  0.05    1.04
Q2    1   0.4615  0.5474  0.3304  11.00000  0.05    0.91
Q3    1   0.5571  0.5435  0.1687  11.00000  0.05    0.51
Q4    1   0.9207  0.4943  0.3601  11.00000  0.05    0.50
Q5    1   0.6914  0.6053  0.0775  11.00000  0.05    0.48
Q6    1   0.9482  0.6055  0.3584  11.00000  0.05    0.47
Q7    1   0.6412  0.6581  1.0353  11.00000  0.05    0.46
Q8    1   0.9172  0.5841  0.0734  11.00000  0.05    0.45
Q9    1   1.0764  0.5460  0.1673  11.00000  0.05    0.44
Q10   1   1.1120  0.5600  0.2626  11.00000  0.05    0.43
Q11   1   0.5331  0.7500  0.7187  10.50000  0.05    0.39
Q12   1   0.2210  0.6435  1.0309  11.00000  0.05    0.38
Q13   1   0.9393  0.6118  0.2181  11.00000  0.05    0.36
Q14   1   0.8564  0.8262  0.1392  11.00000  0.05    0.36
Q15   1   0.2783  0.6466  0.4461  11.00000  0.05    0.35
Q16   1   1.0678  0.4776  0.2365  11.00000  0.05    0.35
Q17   1   0.1323  0.6778  0.9202  11.00000  0.05    0.34
Q18   1   0.7036  0.6647  0.5098  11.00000  0.05    0.33
Q19   1   0.5221  0.6557  0.4296  11.00000  0.05    0.33
Q20   1   0.5887  0.5959  0.2214  11.00000  0.05    0.33
;
_shelx_res_checksum              79844
loop_
_space_group_symop_operation_xyz
'x, y, z'
'-x, y+1/2, -z'
'-x, -y, -z'
'x, -y-1/2, z'
loop_
_atom_site_type_symbol
_atom_site_label
_atom_site_fract_x
_atom_site_fract_y
_atom_site_fract_z
_atom_site_U_iso_or_equiv
_atom_site_adp_type
_atom_site_calc_flag
_atom_site_occupancy
_atom_site_disorder_assembly
_atom_site_disorder_group
Br Br1 0.84325(8) 0.55011(2) 0.22435(5) 0.02091(17) Uani d 1 . .
O O1 0.2977(7) 0.67372(17) 0.8585(4) 0.0301(6) Uani d 1 . .
N N1 0.3658(10) 0.750000 0.7878(7) 0.0198(9) Uani d 1 . .
C C2 0.6006(8) 0.6637(2) 0.5205(5) 0.0175(7) Uani d 1 . .
H H2 0.550372 0.605683 0.581154 0.021 Uiso calc 1 . .
C C3 0.7459(8) 0.6659(2) 0.3462(6) 0.0171(7) Uani d 1 . .
C C1 0.5304(11) 0.750000 0.6038(7) 0.0169(9) Uani d 1 . .
C C4 0.8204(11) 0.750000 0.2566(8) 0.0212(11) Uani d 1 . .
H H4 0.920583 0.750000 0.136165 0.025 Uiso calc 1 . .
loop_
_atom_site_aniso_label
_atom_site_aniso_U_11
_atom_site_aniso_U_22
_atom_site_aniso_U_33
_atom_site_aniso_U_12
_atom_site_aniso_U_13
_atom_site_aniso_U_23
Br1 0.0237(3) 0.0141(2) 0.0254(3) 0.00110(11) 0.00482(17) -0.00274(12)
O1 0.0464(16) 0.0191(12) 0.0271(15) -0.0050(12) 0.0135(13) 0.0044(11)
N1 0.021(2) 0.018(2) 0.019(2) 0.000 -0.0016(16) 0.000
C2 0.0163(15) 0.0153(14) 0.0197(18) -0.0004(12) -0.0030(13) -0.0006(13)
C3 0.0130(14) 0.0127(15) 0.0246(19) 0.0015(11) -0.0024(13) -0.0037(13)
C1 0.014(2) 0.020(2) 0.016(2) 0.000 -0.0011(19) 0.000
C4 0.015(2) 0.028(3) 0.021(3) 0.000 0.002(2) 0.000
loop_
_atom_type_symbol
_atom_type_description
_atom_type_scat_dispersion_real
_atom_type_scat_dispersion_imag
_atom_type_scat_source
C C 0.0033 0.0016 'International Tables Vol C Tables 4.2.6.8 and 6.1.1.4'
H H 0.0000 0.0000 'International Tables Vol C Tables 4.2.6.8 and 6.1.1.4'
N N 0.0061 0.0033 'International Tables Vol C Tables 4.2.6.8 and 6.1.1.4'
O O 0.0106 0.0060 'International Tables Vol C Tables 4.2.6.8 and 6.1.1.4'
Br Br -0.2901 2.4595 'International Tables Vol C Tables 4.2.6.8 and 6.1.1.4'
loop_
_geom_angle_atom_site_label_1
_geom_angle_atom_site_label_2
_geom_angle_atom_site_label_3
_geom_angle_site_symmetry_1
_geom_angle_site_symmetry_3
_geom_angle
_geom_angle_publ_flag
O1 N1 O1 4_575 . 123.8(4) ?
O1 N1 C1 4_575 . 118.1(2) ?
O1 N1 C1 . . 118.1(2) ?
C3 C2 C1 . . 117.0(3) ?
C3 C2 H2 . . 121.5 ?
C1 C2 H2 . . 121.5 ?
C2 C3 C4 . . 122.0(3) ?
C2 C3 Br1 . . 118.9(2) ?
C4 C3 Br1 . . 119.2(3) ?
C2 C1 C2 4_575 . 123.4(5) ?
C2 C1 N1 4_575 . 118.3(2) ?
C2 C1 N1 . . 118.3(2) ?
C3 C4 C3 4_575 . 118.7(5) ?
C3 C4 H4 4_575 . 120.7 ?
C3 C4 H4 . . 120.7 ?
loop_
_geom_bond_atom_site_label_1
_geom_bond_atom_site_label_2
_geom_bond_site_symmetry_2
_geom_bond_distance
_geom_bond_publ_flag
Br1 C3 . 1.897(3) ?
O1 N1 . 1.225(3) ?
N1 C1 . 1.475(6) ?
C2 C3 . 1.375(5) ?
C2 C1 . 1.389(4) ?
C2 H2 . 0.9500 ?
C3 C4 . 1.385(4) ?
C4 H4 . 0.9500 ?
loop_
_geom_hbond_atom_site_label_D
_geom_hbond_atom_site_label_H
_geom_hbond_atom_site_label_A
_geom_hbond_site_symmetry_A
_geom_hbond_distance_DH
_geom_hbond_distance_HA
_geom_hbond_distance_DA
_geom_hbond_angle_DHA
_geom_hbond_publ_flag
C2 H2 Br1 3_666 0.95 3.09 3.997(3) 160.9 yes
