#------------------------------------------------------------------------------
#$Date: 2020-04-10 08:04:29 +0300 (Fri, 10 Apr 2020) $
#$Revision: 250587 $
#$URL: file:///home/coder/svn-repositories/cod/cif/2/02/20/2022008.cif $
#------------------------------------------------------------------------------
#
# This file is available in the Crystallography Open Database (COD),
# http://www.crystallography.net/. The original data for this entry
# were provided by IUCr Journals, http://journals.iucr.org/.
#
# The file may be used within the scientific community so long as
# proper attribution is given to the journal article from which the
# data were obtained.
#
data_2022008
loop_
_publ_author_name
'Jha, Kunal Kumar'
'Gruza, Barbara'
'Kumar, Prashant'
'Chodkiewicz, Michal Leszek'
'Dominiak, Paulina Maria'
_publ_section_title
;
 TAAM: a reliable and user friendly tool for hydrogen-atom location using
 routine X-ray diffraction data
;
_journal_issue                   3
_journal_name_full
'Acta Crystallographica Section B Structural Science, Crystal Engineering and Materials'
_journal_paper_doi               10.1107/S2052520620002917
_journal_volume                  76
_journal_year                    2020
_chemical_formula_moiety         'C2 H2 N4 O3'
_chemical_formula_sum            'C2 H2 N4 O3'
_chemical_formula_weight         130.06
_space_group_crystal_system      monoclinic
_space_group_IT_number           14
_space_group_name_Hall           '-P 2ybc'
_space_group_name_H-M_alt        'P 1 21/c 1'
_symmetry_Int_Tables_number      14
_audit_creation_date             2019-09-24
_audit_creation_method
;
Olex2 1.2
(compiled 2018.05.29 svn.r3508 for OlexSys, GUI svn.r5506)
;
_cell_angle_alpha                90
_cell_angle_beta                 101.4740(10)
_cell_angle_gamma                90
_cell_formula_units_Z            4
_cell_length_a                   9.3255(10)
_cell_length_b                   5.4503(10)
_cell_length_c                   9.0400(10)
_cell_measurement_temperature    100.0(10)
_cell_volume                     450.29(11)
_computing_molecular_graphics    'Olex2 (Dolomanov et al., 2009)'
_computing_publication_material  'Olex2 (Dolomanov et al., 2009)'
_computing_structure_refinement  'olex2.refine (Bourhis et al., 2015)'
_diffrn_ambient_temperature      100.0(10)
_diffrn_measured_fraction_theta_full 0.9312
_diffrn_measured_fraction_theta_max 0.9313
_diffrn_measurement_device_type  'Bruker platform diffractometer'
_diffrn_radiation_type           'Ag K\a'
_diffrn_radiation_wavelength     .56085
_diffrn_reflns_av_R_equivalents  0.0000
_diffrn_reflns_av_unetI/netI     0.0414
_diffrn_reflns_limit_h_max       21
_diffrn_reflns_limit_h_min       -21
_diffrn_reflns_limit_k_max       13
_diffrn_reflns_limit_k_min       0
_diffrn_reflns_limit_l_max       22
_diffrn_reflns_limit_l_min       0
_diffrn_reflns_number            4080
_diffrn_reflns_theta_full        26.4897
_diffrn_reflns_theta_max         26.49
_diffrn_reflns_theta_min         2.23
_exptl_absorpt_coefficient_mu    0.104
_exptl_crystal_density_diffrn    1.9184
_exptl_crystal_F_000             264.1709
_refine_diff_density_max         0.1491
_refine_diff_density_min         -0.2039
_refine_diff_density_rms         0.0635
_refine_ls_d_res_high            0.7967
_refine_ls_d_res_low             9.1391
_refine_ls_goodness_of_fit_ref   1.0597
_refine_ls_hydrogen_treatment    refall
_refine_ls_matrix_type           full
_refine_ls_number_constraints    0
_refine_ls_number_parameters     90
_refine_ls_number_reflns         867
_refine_ls_number_restraints     0
_refine_ls_restrained_S_all      1.0597
_refine_ls_R_factor_all          0.0151
_refine_ls_R_factor_gt           0.0147
_refine_ls_shift/su_max          0.0001
_refine_ls_shift/su_mean         0.0000
_refine_ls_structure_factor_coef Fsqd
_refine_ls_weighting_details
'w=1/[\s^2^(Fo^2^)+(0.0139P)^2^+0.0322P] where P=(Fo^2^+2Fc^2^)/3'
_refine_ls_weighting_scheme      calc
_refine_ls_wR_factor_gt          0.0395
_refine_ls_wR_factor_ref         0.0397
_reflns_Friedel_coverage         0.0
_reflns_limit_h_max              11
_reflns_limit_h_min              -11
_reflns_limit_k_max              6
_reflns_limit_k_min              0
_reflns_limit_l_max              11
_reflns_limit_l_min              0
_reflns_number_gt                859
_reflns_number_total             867
_reflns_threshold_expression     I>=2u(I)
_iucr_refine_instructions_details
;
TITL beta-NTO
CELL 0.71073 9.3255 5.4503 9.04 90 101.474 90
ZERR 4 0 0 0 0 0 0
LATT 1
SYMM -X,0.5+Y,0.5-Z
SFAC C H N O
UNIT 8 8 16 12

ACTA 
BOND $H
OMIT -10 53
WGHT 0.013903 0.032174
FVAR 1.011371
REM <olex2.extras>
REM <HklSrc "%.\\beta-NTO.hkl">
REM </olex2.extras>

N(2)  3     0.65347  0.73451  0.23551  11.00000  0.00644  0.00993  0.01261 =
 -0.00123  0.00126 -0.00069 
H(2)  2     0.57800  0.61788  0.18780  11.00000  0.01977 
O(3)  4     0.86286  0.59027  0.16003  11.00000  0.00718  0.01212  0.01339 =
 -0.00397  0.00142  0.00082 
N(1)  3     0.61586  0.92553  0.31818  11.00000  0.00585  0.01088  0.01237 =
 -0.00036  0.00272  0.00059 
N(4)  3     0.85255  0.94639  0.30601  11.00000  0.00690  0.00968  0.00917 =
 -0.00093  0.00196 -0.00054 
H(4)  2     0.95622  1.00966  0.31952  11.00000  0.02678 
C(3)  1     0.79839  0.73999  0.22533  11.00000  0.00685  0.00859  0.00937 =
 -0.00023  0.00139  0.00041 
O(5B  4     0.86926  1.36279  0.47652  11.00000  0.01482  0.01216  0.01592 =
 -0.00342  0.00403 -0.00396 
O(5A  4     0.64135  1.32467  0.49783  11.00000  0.01318  0.01750  0.01919 =
 -0.00683  0.00401  0.00253 
N(5)  3     0.75031  1.26095  0.45129  11.00000  0.01069  0.00908  0.00981 =
 -0.00120  0.00181  0.00070 
C(5)  1     0.73791  1.04437  0.35748  11.00000  0.00726  0.00893  0.00909 =
 -0.00060  0.00161  0.00018 
HKLF 4

END
Q1 1 0.8 0.722222 0 11 0.05 0.15
Q2 1 0.633333 0.722222 0.033333 11 0.05 0.14
Q3 1 0.766667 1.333333 0.266667 11 0.05 0.13
Q4 1 0.6 1.111111 0.2 11 0.05 0.12
Q5 1 0.866667 1.222222 0.266667 11 0.05 0.12
Q6 1 0.9 1.277778 0.666667 11 0.05 0.12
Q7 1 0.9 0.777778 0.466667 11 0.05 0.12
Q8 1 0.6 1.277778 0.3 11 0.05 0.12
Q9 1 0.5 1 0.166667 11 0.05 0.12
Q10 1 1 1.111111 0.166667 11 0.05 0.11
Q11 1 0.933333 0.388889 0.3 11 0.05 0.11
Q12 1 0.5 1 0.5 11 0.05 0.1
Q13 1 0.466667 0.555556 0.133333 11 0.05 0.05
Q14 1 1.033333 1.111111 0.333333 11 0.05 0.03
Q15 1 0.833333 0.555556 0.133333 11 0.05 0.02
Q16 1 0.9 1.111111 0.366667 11 0.05 0.01

  REM The information below was added by Olex2.
  REM
  REM R1 = 0.0147 for 859 Fo > 4sig(Fo) and 0.0151 for all 867 data
  REM 90 parameters refined using 0 restraints
  REM Highest difference peak 0.1491, deepest hole -0.2039
  REM Mean Shift 0.0000, Max Shift 0.0001.

  REM +++ Tabular Listing of Refinement Information +++
  REM R1_all = 0.0151
  REM R1_gt = 0.0147
  REM wR_ref = 0.0397
  REM GOOF = 1.0597
  REM Shift_max = 0.0001
  REM Shift_mean = 0.0000
  REM Reflections_all = 867
  REM Reflections_gt = 859
  REM Parameters = 90
  REM Hole = -0.2039
  REM Peak = 0.1491
  REM Flack = n/a

  
;
_cod_data_source_file            10_TAAM_iso_0.8.cif
_cod_data_source_block           10_TAAM_iso_0.8
_cod_original_cell_volume        450.291(40)
_cod_database_code               2022008
_olex2_refinement_description
;
;
_iucr_refine_fcf_details
;
data_beta-NTO
_computing_structure_refinement   'olex2.refine (Bourhis et al., 2015)'
_shelx_refln_list_code            4
loop_
  _space_group_symop_id
  _space_group_symop_operation_xyz
  1  x,y,z
  2  -x,y+1/2,-z+1/2
  3  -x,-y,-z
  4  x,-y-1/2,z-1/2

_space_group_crystal_system       monoclinic
_space_group_IT_number            14
_space_group_name_H-M_alt         'P 1 21/c 1'
_space_group_name_Hall            '-P 2ybc'
_symmetry_space_group_name_H-M    'P 1 21/c 1'
_symmetry_space_group_name_Hall   '-P 2ybc'
_symmetry_Int_Tables_number       14
_cell_length_a                    9.3255
_cell_length_b                    5.4503
_cell_length_c                    9.04
_cell_angle_alpha                 90
_cell_angle_beta                  101.474
_cell_angle_gamma                 90
_cell_volume                      450.29147
loop_
  _refln_index_h
  _refln_index_k
  _refln_index_l
  _refln_F_squared_calc
  _refln_F_squared_meas
  _refln_F_squared_sigma
  _refln_F_squared_weight
  _refln_observed_status
-11 0 2 7.020 6.521 0.499 214.142 o
-11 0 4 2.137 2.806 0.538 279.681 o
-11 1 1 3.971 3.783 0.323 439.890 o
-11 1 2 3.050 3.236 0.332 481.889 o
-11 1 3 14.749 13.716 0.547 127.473 o
-11 1 4 8.768 9.121 0.450 203.414 o
-11 1 5 22.546 22.935 0.763 72.600 o
-11 2 1 3.201 3.793 0.372 410.289 o
-11 2 2 18.173 18.800 0.665 93.202 o
-11 2 3 8.673 7.371 0.401 233.322 o
-11 2 4 11.086 10.168 0.469 173.707 o
-10 0 2 260.173 258.449 6.580 1.583 o
-10 0 4 68.700 70.820 1.994 14.338 o
-10 0 6 17.315 15.760 0.733 90.413 o
-10 1 1 131.806 133.282 3.422 5.293 o
-10 1 2 79.928 82.190 2.151 12.075 o
-10 1 3 116.090 119.996 3.119 6.334 o
-10 1 4 47.750 48.980 1.369 26.452 o
-10 1 5 47.709 47.083 1.300 28.016 o
-10 1 6 2.663 2.503 0.440 367.268 o
-10 1 7 68.189 69.080 1.877 15.437 o
-10 2 1 2.644 2.346 0.538 275.088 o
-10 2 2 12.825 12.152 0.499 149.555 o
-10 2 3 1.552 2.366 0.557 276.882 o
-10 2 4 141.409 143.567 3.695 4.626 o
-10 2 5 55.571 55.374 1.545 21.479 o
-10 2 6 7.588 7.626 0.411 241.336 o
-10 3 1 73.513 75.122 2.004 13.728 o
-10 3 2 33.054 33.318 0.997 45.050 o
-10 3 3 2.443 2.591 0.880 119.685 o
-10 3 5 4.642 4.380 0.372 354.855 o
-9 0 2 199.298 203.907 5.250 2.449 o
-9 0 4 305.985 301.661 7.723 1.172 o
-9 0 6 34.534 32.907 1.085 41.048 o
-9 0 8 141.594 139.255 3.715 4.620 o
-9 1 1 22.510 21.870 0.694 79.056 o
-9 1 2 208.396 209.714 5.328 2.352 o
-9 1 3 15.825 15.828 0.547 119.439 o
-9 1 4 337.831 337.208 8.496 0.975 o
-9 1 5 126.354 128.198 3.295 5.671 o
-9 1 6 29.885 30.933 0.929 50.893 o
-9 1 7 14.434 14.137 0.538 129.612 o
-9 1 8 39.618 40.083 1.202 33.779 o
-9 2 1 477.648 473.354 11.742 0.520 o
-9 2 2 98.104 101.391 2.630 8.526 o
-9 2 3 8.212 7.577 0.372 251.112 o
-9 2 4 144.810 146.060 3.725 4.526 o
-9 2 5 157.947 161.604 4.145 3.765 o
-9 2 6 45.190 44.277 1.261 29.905 o
-9 2 7 83.255 83.862 2.278 11.106 o
-9 2 8 8.855 7.694 0.479 198.530 o
-9 3 1 52.135 53.145 1.466 23.427 o
-9 3 2 2.946 2.855 0.313 529.694 o
-9 3 3 113.275 111.304 2.874 7.143 o
-9 3 4 18.530 17.676 0.645 95.905 o
-9 3 6 75.795 77.771 2.141 12.528 o
-9 4 1 1.847 1.486 0.675 200.323 o
-9 4 2 1.832 1.985 0.870 125.132 o
-9 4 3 207.852 205.265 5.181 2.450 o
-8 0 2 545.192 527.427 13.218 0.412 o
-8 0 4 87.467 83.706 2.278 10.894 o
-8 0 6 1332.380 1345.060 33.289 0.068 o
-8 0 8 138.404 140.243 3.725 4.637 o
-8 1 1 103.473 101.039 2.620 8.390 o
-8 1 2 351.616 353.407 8.809 0.907 o
-8 1 3 907.623 927.849 22.945 0.143 o
-8 1 4 44.681 43.730 1.212 31.244 o
-8 1 6 311.789 317.323 7.929 1.113 o
-8 1 7 21.474 20.345 0.665 84.853 o
-8 1 8 64.842 64.192 1.760 17.114 o
-8 1 9 185.584 186.505 4.781 2.883 o
-8 2 2 269.627 270.630 6.736 1.503 o
-8 2 3 110.618 113.318 2.972 6.907 o
-8 2 4 108.933 107.149 2.767 7.637 o
-8 2 5 45.043 42.215 1.193 31.827 o
-8 2 6 3.140 3.226 0.342 463.399 o
-8 2 7 131.829 133.350 3.490 5.165 o
-8 2 8 25.073 25.028 0.860 61.400 o
-8 3 1 264.284 264.970 6.668 1.540 o
-8 3 2 271.648 276.027 6.902 1.445 o
-8 3 3 69.088 68.298 1.867 15.476 o
-8 3 4 9.913 9.424 0.420 201.257 o
-8 3 5 25.351 25.595 0.811 63.932 o
-8 3 6 84.743 86.824 2.317 10.747 o
-8 3 7 102.913 105.497 2.806 7.703 o
-8 4 1 70.619 70.918 1.897 14.973 o
-8 4 2 60.169 61.259 1.672 18.787 o
-8 4 3 2.799 2.659 0.381 435.013 o
-8 4 4 123.125 125.519 3.256 5.833 o
-8 4 5 137.662 139.050 3.568 4.908 o
-8 4 6 8.907 7.811 0.411 223.812 o
-7 0 2 250.404 253.316 6.423 1.663 o
-7 0 4 623.251 627.215 15.603 0.302 o
-7 0 6 13.307 12.915 0.577 129.587 o
-7 0 8 349.019 347.522 8.848 0.906 o
-7 0 10 93.617 98.957 2.835 7.959 o
-7 1 1 1.332 1.486 0.459 399.970 o
-7 1 2 109.310 114.521 2.982 6.897 o
-7 1 3 248.031 247.500 6.257 1.736 o
-7 1 4 357.045 354.972 8.828 0.899 o
-7 1 5 211.205 215.531 5.485 2.243 o
-7 1 6 187.682 189.437 4.820 2.834 o
-7 1 7 26.843 26.328 0.821 61.316 o
-7 1 8 339.283 342.018 8.672 0.944 o
-7 1 9 5.891 5.025 0.362 322.862 o
-7 1 10 150.633 149.374 3.911 4.182 o
-7 2 1 15.954 14.225 0.518 126.585 o
-7 2 2 161.303 164.185 4.106 3.769 o
-7 2 3 2.746 2.170 0.235 739.418 o
-7 2 4 376.883 386.188 9.679 0.765 o
-7 2 5 491.220 499.428 12.465 0.469 o
-7 2 6 215.237 212.060 5.445 2.255 o
-7 2 8 5.770 4.800 0.342 343.553 o
-7 2 9 23.957 23.170 0.802 67.655 o
-7 3 1 9.593 9.102 0.372 223.298 o
-7 3 2 264.080 264.872 6.658 1.544 o
-7 3 3 150.230 147.282 3.813 4.331 o
-7 3 4 200.335 199.781 5.035 2.590 o
-7 3 5 2.641 2.141 0.459 350.775 o
-7 3 6 13.841 13.316 0.518 137.583 o
-7 3 7 102.139 101.870 2.698 8.142 o
-7 3 8 131.441 130.965 3.392 5.371 o
-7 4 1 90.669 90.510 2.366 10.139 o
-7 4 2 1.566 1.770 0.792 150.549 o
-7 4 3 41.820 41.061 1.183 33.347 o
-7 4 4 96.850 100.677 2.620 8.617 o
-7 4 5 57.324 57.065 1.564 20.806 o
-7 4 6 0.026 1.701 1.007 99.143 o
-7 4 7 15.403 14.225 0.577 119.181 o
-7 5 1 8.670 8.007 0.401 229.444 o
-7 5 2 13.891 13.237 0.518 137.534 o
-7 5 3 155.656 156.344 4.008 3.972 o
-7 5 4 12.967 12.445 0.528 141.835 o
-7 5 5 2.384 2.864 0.763 154.078 o
-6 0 2 135.998 125.118 3.256 5.613 o
-6 0 4 125.989 117.991 3.089 6.224 o
-6 0 6 120.872 120.651 3.197 6.049 o
-6 0 8 292.801 299.715 7.596 1.219 o
-6 0 10 60.845 64.710 1.858 16.528 o
-6 1 1 5.558 4.634 0.244 437.638 o
-6 1 2 246.667 249.748 6.286 1.726 o
-6 1 3 5.926 5.573 0.254 396.876 o
-6 1 4 1.297 1.115 0.362 599.154 o
-6 1 5 2.916 2.170 0.205 791.609 o
-6 1 6 177.381 180.453 4.624 3.077 o
-6 1 7 3.666 3.392 0.274 532.172 o
-6 1 8 28.516 27.657 0.870 56.283 o
-6 2 1 37.960 35.547 0.987 42.014 o
-6 2 2 306.409 307.253 7.694 1.174 o
-6 2 4 131.349 130.212 3.314 5.531 o
-6 2 6 79.332 80.157 2.121 12.357 o
-6 2 7 7.684 6.736 0.352 275.698 o
-6 2 8 336.045 342.458 8.672 0.947 o
-6 2 9 18.775 18.849 0.665 91.828 o
-6 2 10 15.171 14.107 0.606 115.504 o
-6 3 1 1.102 0.997 0.606 254.748 o
-6 3 2 346.157 354.972 8.828 0.908 o
-6 3 3 4.397 3.901 0.254 501.432 o
-6 3 4 110.762 110.933 2.874 7.211 o
-6 3 5 54.240 52.714 1.466 23.077 o
-6 3 6 93.480 93.414 2.464 9.512 o
-6 3 7 22.957 23.170 0.772 71.115 o
-6 3 8 81.909 86.824 2.317 10.887 o
-6 4 1 130.399 131.366 3.334 5.499 o
-6 4 2 511.078 519.645 12.983 0.434 o
-6 4 4 288.616 288.287 7.254 1.313 o
-6 4 5 68.184 69.276 1.877 15.428 o
-6 4 6 57.517 58.873 1.642 19.646 o
-6 4 8 65.187 66.059 1.828 16.312 o
-6 5 1 117.044 119.869 3.119 6.316 o
-6 5 2 235.149 235.396 5.915 1.923 o
-6 5 3 6.699 6.091 0.362 294.235 o
-6 5 4 3.776 3.021 0.381 392.089 o
-6 5 5 13.864 12.504 0.528 137.459 o
-6 5 6 31.294 30.903 0.958 48.570 o
-5 0 4 136.870 137.241 3.471 5.099 o
-5 0 6 271.111 275.440 6.990 1.422 o
-5 0 8 5.720 5.289 0.381 309.542 o
-5 0 10 77.548 77.302 2.190 12.121 o
-5 1 1 53.216 53.751 1.437 23.625 o
-5 1 2 755.676 759.480 18.800 0.210 o
-5 1 3 284.038 286.879 7.137 1.351 o
-5 1 4 96.224 94.391 2.425 9.551 o
-5 1 6 218.312 222.824 5.582 2.152 o
-5 1 7 26.518 25.536 0.782 64.526 o
-5 1 9 312.516 311.427 7.850 1.131 o
-5 1 10 351.814 356.878 8.965 0.884 o
-5 2 1 1967.540 1983.420 48.970 0.032 o
-5 2 3 69.067 70.224 1.838 15.645 o
-5 2 4 33.627 33.905 0.968 45.685 o
-5 2 5 149.707 149.599 3.842 4.283 o
-5 2 6 351.003 357.435 8.975 0.883 o
-5 2 7 272.746 271.413 6.843 1.464 o
-5 2 8 3.857 3.226 0.274 525.593 o
-5 2 9 9.631 8.936 0.459 192.985 o
-5 2 10 2.077 2.689 0.802 142.804 o
-5 3 1 70.030 70.224 1.838 15.555 o
-5 3 2 5.883 5.788 0.284 372.030 o
-5 3 3 8.129 7.508 0.323 275.934 o
-5 3 4 1081.490 1097.740 27.130 0.102 o
-5 3 5 65.064 66.010 1.779 16.799 o
-5 3 6 731.741 746.458 18.477 0.218 o
-5 3 7 24.219 24.998 0.802 66.232 o
-5 3 8 10.079 9.151 0.411 204.232 o
-5 4 1 174.819 177.432 4.507 3.207 o
-5 4 2 30.772 30.600 0.890 52.190 o
-5 4 3 703.008 715.975 17.783 0.235 o
-5 4 4 282.147 285.872 7.117 1.360 o
-5 4 5 16.745 15.906 0.567 113.314 o
-5 4 6 116.147 118.060 3.089 6.425 o
-5 4 7 19.717 19.181 0.675 88.468 o
-5 4 8 45.602 46.516 1.339 27.839 o
-5 5 1 8.638 7.430 0.372 246.101 o
-5 5 2 9.666 9.190 0.411 208.151 o
-5 5 3 71.913 74.203 1.994 13.957 o
-5 5 4 26.882 26.259 0.821 61.311 o
-5 5 5 1.830 2.376 0.372 503.111 o
-5 5 6 21.604 22.202 0.753 75.290 o
-5 6 3 84.457 86.990 2.376 10.455 o
-4 0 2 215.739 206.204 5.201 2.402 o
-4 0 4 918.356 927.673 22.945 0.142 o
-4 0 6 1676.000 1704.330 42.205 0.043 o
-4 0 10 140.590 135.481 3.793 4.534 o
-4 1 1 38.599 37.023 0.978 41.610 o
-4 1 2 47.339 37.492 0.978 37.258 o
-4 1 3 2619.660 2617.070 64.446 0.018 o
-4 1 4 0.976 1.115 0.401 528.473 o
-4 1 5 212.160 219.647 5.543 2.200 o
-4 1 6 11.376 9.444 0.362 205.460 o
-4 1 7 131.637 131.913 3.402 5.342 o
-4 1 8 3.002 2.718 0.264 621.173 o
-4 1 9 303.142 305.386 7.674 1.183 o
-4 1 10 91.554 92.954 2.513 9.386 o
-4 1 11 145.848 143.068 3.686 4.591 o
-4 2 1 25.756 23.454 0.694 72.805 o
-4 2 2 38.601 38.040 1.027 39.768 o
-4 2 3 306.977 312.161 7.753 1.158 o
-4 2 4 133.381 134.787 3.441 5.221 o
-4 2 5 8.691 8.417 0.342 250.942 o
-4 2 6 93.911 96.131 2.503 9.275 o
-4 2 7 161.564 159.248 4.047 3.857 o
-4 2 8 809.535 821.463 20.237 0.182 o
-4 2 9 12.767 12.172 0.499 149.813 o
-4 3 1 350.753 350.963 8.779 0.913 o
-4 3 2 68.914 68.885 1.818 15.898 o
-4 3 3 329.696 330.560 8.193 1.037 o
-4 3 4 279.918 283.066 7.088 1.374 o
-4 3 5 353.954 354.189 8.818 0.903 o
-4 3 6 71.387 71.769 1.906 14.790 o
-4 3 7 43.901 44.043 1.222 31.212 o
-4 3 8 64.486 66.255 1.789 16.751 o
-4 3 9 15.454 15.134 0.596 114.417 o
-4 3 10 4.908 4.018 0.391 335.292 o
-4 4 1 31.362 30.600 0.890 51.732 o
-4 4 2 276.299 276.917 6.912 1.433 o
-4 4 4 2.311 2.121 0.352 519.372 o
-4 4 5 90.246 92.895 2.454 9.698 o
-4 4 6 213.844 211.718 5.348 2.315 o
-4 4 7 1.836 2.239 0.723 174.290 o
-4 4 8 13.988 12.093 0.518 139.758 o
-4 5 1 28.932 28.762 0.860 55.945 o
-4 5 2 467.047 475.290 11.771 0.522 o
-4 5 3 124.829 127.123 3.275 5.748 o
-4 5 4 3.277 3.138 0.381 407.422 o
-4 5 5 37.886 36.192 1.105 38.060 o
-4 5 6 75.963 76.002 2.073 13.035 o
-4 5 7 69.503 71.573 2.004 14.168 o
-4 6 1 41.371 41.824 1.232 32.135 o
-4 6 2 364.456 363.409 9.160 0.845 o
-4 6 3 4.396 3.774 0.372 370.789 o
-4 6 4 77.688 79.629 2.219 11.864 o
-3 0 2 10.828 10.813 0.391 195.498 o
-3 0 6 41.107 39.858 1.163 34.331 o
-3 0 8 5.719 5.211 0.391 303.464 o
-3 0 10 1.430 1.662 0.723 178.922 o
-3 1 1 62.643 68.445 1.770 17.024 o
-3 1 2 552.727 563.170 13.941 0.376 o
-3 1 3 3.600 4.507 0.205 600.075 o
-3 1 4 362.925 367.867 9.102 0.851 o
-3 1 5 14.164 12.485 0.420 157.488 o
-3 1 6 14.745 15.241 0.508 131.089 o
-3 1 7 1.886 1.946 0.352 550.882 o
-3 1 8 463.348 464.360 11.634 0.534 o
-3 1 9 192.979 188.538 4.810 2.814 o
-3 1 10 110.754 113.318 2.972 6.904 o
-3 2 1 726.490 736.437 18.194 0.224 o
-3 2 2 59.370 60.242 1.564 20.260 o
-3 2 3 134.234 139.607 3.578 4.933 o
-3 2 4 7.597 7.459 0.303 296.113 o
-3 2 5 1287.920 1305.320 32.155 0.073 o
-3 2 6 110.904 108.626 2.786 7.501 o
-3 2 7 110.396 110.806 2.874 7.222 o
-3 2 8 2.939 2.317 0.274 623.383 o
-3 2 9 0.420 2.063 1.095 83.235 o
-3 2 10 63.694 65.052 1.770 17.094 o
-3 3 1 24.808 23.542 0.694 74.130 o
-3 3 2 1375.470 1405.180 34.697 0.063 o
-3 3 3 2.543 2.669 0.196 834.554 o
-3 3 4 105.890 108.137 2.776 7.677 o
-3 3 5 27.887 26.142 0.792 62.071 o
-3 3 6 249.243 248.995 6.276 1.724 o
-3 3 7 151.669 152.365 3.881 4.195 o
-3 3 8 97.200 96.904 2.630 8.632 o
-3 3 10 36.905 35.694 1.095 38.922 o
-3 4 1 3.387 3.402 0.215 649.696 o
-3 4 2 17.803 17.255 0.567 107.964 o
-3 4 3 559.285 558.956 13.883 0.378 o
-3 4 4 109.630 109.994 2.864 7.281 o
-3 4 5 25.228 25.057 0.772 66.980 o
-3 4 6 19.422 18.878 0.616 95.704 o
-3 4 7 1.970 1.799 0.616 231.884 o
-3 4 8 25.563 25.986 0.880 59.228 o
-3 4 9 183.893 182.613 4.732 2.943 o
-3 5 1 12.220 11.869 0.450 165.171 o
-3 5 2 90.948 92.612 2.454 9.675 o
-3 5 3 51.494 53.624 1.476 23.349 o
-3 5 4 0.401 1.701 1.007 98.369 o
-3 5 5 3.236 2.737 0.342 470.415 o
-3 5 6 230.980 230.772 5.856 1.968 o
-3 5 7 1.779 1.946 0.430 418.438 o
-3 6 1 27.783 27.882 0.880 56.304 o
-3 6 2 13.551 13.452 0.518 138.616 o
-3 6 3 167.509 171.713 4.429 3.350 o
-3 6 4 69.836 70.566 1.946 14.652 o
-3 6 5 7.700 6.707 0.459 223.235 o
-2 0 2 254.751 273.475 6.863 1.491 o
-2 0 4 124.266 126.917 3.275 5.759 o
-2 0 6 372.268 370.379 9.248 0.825 o
-2 0 8 114.720 111.744 3.070 6.571 o
-2 0 10 482.643 482.299 12.250 0.486 o
-2 1 1 644.568 671.864 16.610 0.270 o
-2 1 2 149.599 143.068 3.617 4.649 o
-2 1 3 22.398 25.663 0.723 73.900 o
-2 1 4 198.939 204.591 5.094 2.547 o
-2 1 5 204.732 210.682 5.338 2.359 o
-2 1 6 0.821 1.183 0.332 726.517 o
-2 1 7 315.017 320.813 7.968 1.100 o
-2 1 9 47.148 47.249 1.300 28.140 o
-2 1 10 4.374 3.383 0.313 443.051 o
-2 1 11 86.959 88.154 2.395 10.217 o
-2 2 1 24.864 27.257 0.743 68.040 o
-2 2 2 35.114 38.851 1.036 40.971 o
-2 2 3 109.972 116.261 2.943 6.969 o
-2 2 4 746.642 768.719 19.084 0.205 o
-2 2 5 74.450 73.235 1.926 14.319 o
-2 2 6 98.566 96.611 2.503 9.088 o
-2 2 7 23.532 22.965 0.714 74.980 o
-2 2 8 102.392 103.014 2.708 8.082 o
-2 2 9 83.994 86.003 2.307 10.856 o
-2 2 10 3.038 3.021 0.459 329.828 o
-2 3 1 35.801 36.192 0.968 43.716 o
-2 3 2 382.750 386.882 9.688 0.760 o
-2 3 3 29.946 27.755 0.782 59.650 o
-2 3 4 3.749 3.177 0.205 643.678 o
-2 3 5 1.099 1.369 0.489 369.052 o
-2 3 6 251.609 252.749 6.413 1.665 o
-2 3 7 6.356 5.348 0.352 315.496 o
-2 3 8 37.158 37.972 1.173 35.913 o
-2 3 9 7.061 5.934 0.401 266.393 o
-2 3 10 3.510 3.177 0.362 422.356 o
-2 4 1 61.252 62.941 1.652 18.764 o
-2 4 2 113.005 113.250 2.904 7.042 o
-2 4 3 84.464 87.049 2.268 11.014 o
-2 4 4 330.473 334.920 8.359 1.005 o
-2 4 5 201.271 204.073 5.172 2.488 o
-2 4 6 4.327 4.096 0.284 464.162 o
-2 4 7 7.474 6.716 0.381 264.060 o
-2 4 9 4.652 3.911 0.401 334.494 o
-2 5 1 200.906 201.795 5.054 2.570 o
-2 5 2 86.925 87.323 2.268 10.882 o
-2 5 3 7.108 6.257 0.323 307.817 o
-2 5 4 2.724 2.620 0.284 608.372 o
-2 5 5 25.334 23.571 0.782 67.092 o
-2 5 7 48.104 49.742 1.466 24.537 o
-2 6 1 127.310 129.469 3.304 5.624 o
-2 6 2 30.192 30.180 0.909 51.872 o
-2 6 3 40.424 40.650 1.173 34.174 o
-2 6 4 2.113 2.532 0.723 171.570 o
-2 6 5 3.548 3.070 0.372 410.802 o
-1 0 2 1287.160 1298.040 32.272 0.073 o
-1 0 4 55.712 51.561 1.408 23.812 o
-1 0 6 403.556 413.982 10.383 0.670 o
-1 0 8 175.128 174.372 4.546 3.180 o
-1 0 10 33.925 34.423 1.183 37.635 o
-1 1 1 618.053 630.187 15.642 0.302 o
-1 1 2 6675.980 5729.920 140.712 0.004 o
-1 1 3 482.666 491.509 12.230 0.486 o
-1 1 4 63.781 61.630 1.633 18.743 o
-1 1 5 127.037 129.880 3.314 5.605 o
-1 1 6 140.600 140.800 3.588 4.825 o
-1 1 7 9.445 9.679 0.372 221.673 o
-1 1 8 57.316 57.827 1.535 21.138 o
-1 1 9 64.787 69.774 1.887 15.630 o
-1 1 11 7.256 6.492 0.420 248.865 o
-1 2 1 2893.990 2842.890 70.009 0.016 o
-1 2 2 89.640 85.231 2.190 11.209 o
-1 2 4 756.921 784.918 19.445 0.198 o
-1 2 5 213.320 214.573 5.387 2.290 o
-1 2 6 23.791 23.542 0.694 75.671 o
-1 2 7 45.762 46.966 1.300 28.541 o
-1 2 8 97.359 99.436 2.601 8.696 o
-1 2 9 12.160 12.113 0.479 157.848 o
-1 2 10 54.076 55.598 1.545 21.704 o
-1 3 1 470.933 486.777 12.044 0.501 o
-1 3 2 488.922 508.354 12.572 0.462 o
-1 3 4 391.603 400.891 9.982 0.719 o
-1 3 5 9.624 8.955 0.372 223.791 o
-1 3 6 312.040 313.314 7.880 1.125 o
-1 3 7 10.238 9.336 0.401 205.015 o
-1 3 8 174.622 167.392 4.223 3.518 o
-1 3 9 23.733 23.747 0.782 68.986 o
-1 4 1 1.689 1.633 0.244 898.147 o
-1 4 2 16.288 16.454 0.528 119.604 o
-1 4 3 391.614 393.559 9.884 0.731 o
-1 4 6 79.261 79.785 2.170 12.067 o
-1 4 7 12.102 11.702 0.508 152.556 o
-1 4 8 40.106 39.448 1.232 32.945 o
-1 4 9 38.106 37.238 1.163 35.972 o
-1 5 1 4.500 3.490 0.244 519.696 o
-1 5 2 151.048 149.305 3.842 4.270 o
-1 5 3 141.712 142.002 3.676 4.663 o
-1 5 4 221.209 222.384 5.661 2.104 o
-1 5 5 9.553 8.437 0.411 213.209 o
-1 5 7 5.929 5.543 0.401 289.431 o
-1 6 1 25.683 25.086 0.802 64.478 o
-1 6 2 6.692 6.843 0.391 270.439 o
-1 6 3 2.695 2.571 0.391 427.241 o
-1 6 4 17.282 16.307 0.596 107.024 o
-1 6 5 65.178 66.392 1.838 16.204 o
0 0 2 469.246 507.151 12.690 0.462 o
0 0 4 1841.450 1857.950 45.861 0.036 o
0 0 6 1384.350 1438.810 35.625 0.060 o
0 0 10 25.892 25.213 0.987 53.109 o
0 1 1 118.538 134.377 3.373 5.589 o
0 1 2 1136.230 1196.510 29.554 0.088 o
0 1 3 8427.150 7477.880 183.826 0.002 o
0 1 4 142.527 148.367 3.754 4.496 o
0 1 5 130.566 136.586 3.471 5.196 o
0 1 6 443.516 461.163 11.468 0.554 o
0 1 7 1.335 1.075 0.411 489.798 o
0 1 8 32.081 32.438 0.948 47.946 o
0 1 9 170.115 168.848 4.321 3.448 o
0 1 10 246.901 246.473 6.237 1.747 o
0 1 11 3.344 2.884 0.362 434.871 o
0 2 0 300.887 294.768 7.440 1.245 o
0 2 1 2.962 3.637 0.186 736.610 o
0 2 2 607.792 637.510 15.730 0.300 o
0 2 3 7.762 6.169 0.235 343.848 o
0 2 4 2161.000 2205.620 54.142 0.026 o
0 2 5 329.239 338.410 8.515 0.979 o
0 2 6 597.689 605.658 14.889 0.330 o
0 2 7 218.989 218.855 5.533 2.182 o
0 2 8 160.454 160.773 4.057 3.848 o
0 2 9 33.490 32.507 0.948 46.998 o
0 2 10 23.436 22.017 0.753 72.757 o
0 3 1 1455.560 1462.990 36.153 0.058 o
0 3 2 21.969 21.234 0.626 86.658 o
0 3 3 226.453 227.272 5.719 2.050 o
0 3 4 75.981 71.221 1.848 14.889 o
0 3 5 381.327 381.299 9.503 0.784 o
0 3 6 741.102 741.276 18.253 0.221 o
0 3 7 150.399 149.667 3.842 4.275 o
0 3 8 320.456 321.028 8.075 1.073 o
0 3 9 3.870 3.911 0.303 466.070 o
0 4 0 48.565 50.671 1.437 24.857 o
0 4 1 71.580 69.422 1.828 15.532 o
0 4 2 360.458 359.684 9.004 0.870 o
0 4 3 305.156 304.867 7.665 1.183 o
0 4 4 42.819 41.403 1.144 33.936 o
0 4 5 33.605 32.331 0.948 46.980 o
0 4 6 361.640 358.335 8.985 0.872 o
0 4 9 193.764 189.193 4.976 2.688 o
0 5 1 90.984 90.060 2.366 10.134 o
0 5 2 12.893 11.399 0.440 164.615 o
0 5 3 28.617 28.039 0.821 58.679 o
0 5 4 7.064 5.700 0.313 321.048 o
0 5 5 33.228 32.976 0.958 46.617 o
0 5 6 15.004 14.899 0.616 113.238 o
0 5 7 40.389 41.559 1.339 29.877 o
0 6 0 439.831 443.125 11.116 0.584 o
0 6 1 1.834 2.258 0.557 273.184 o
0 6 2 391.432 392.269 9.874 0.733 o
0 6 4 1.924 2.268 0.479 346.089 o
0 6 5 14.194 13.276 0.538 132.428 o
1 0 0 65.456 68.542 1.770 16.719 o
1 0 2 914.475 940.911 23.473 0.137 o
1 0 4 783.955 808.362 19.905 0.189 o
1 0 6 54.054 54.406 1.574 21.388 o
1 0 8 534.378 537.839 13.482 0.402 o
1 1 0 0.546 0.635 0.088 3889.760 o
1 1 1 436.340 449.392 11.194 0.578 o
1 1 2 10465.400 8593.650 210.818 0.002 o
1 1 3 6.779 6.228 0.225 377.631 o
1 1 4 47.775 44.434 1.183 30.830 o
1 1 5 220.362 224.241 5.592 2.138 o
1 1 6 222.131 228.172 5.739 2.054 o
1 1 8 68.269 72.023 1.965 14.561 o
1 1 9 53.322 55.598 1.594 21.136 o
1 2 0 401.501 401.722 9.991 0.712 o
1 2 1 1146.050 1176.890 29.104 0.090 o
1 2 2 328.582 324.547 8.017 1.072 o
1 2 3 7.128 5.230 0.235 376.193 o
1 2 4 1707.720 1750.770 43.026 0.041 o
1 2 5 1939.980 1997.970 49.410 0.032 o
1 2 7 7.818 6.843 0.323 287.623 o
1 2 8 228.982 230.684 5.856 1.974 o
1 2 9 3.683 3.363 0.372 400.702 o
1 2 10 36.132 36.544 1.144 37.515 o
1 3 0 118.082 121.306 3.070 6.399 o
1 3 1 469.176 475.681 11.771 0.521 o
1 3 2 12.693 13.022 0.430 162.889 o
1 3 3 11.910 12.915 0.430 168.424 o
1 3 4 46.233 44.678 1.193 31.055 o
1 3 5 0.677 1.447 0.606 257.535 o
1 3 6 218.617 219.647 5.631 2.132 o
1 3 7 139.501 139.255 3.568 4.882 o
1 3 8 742.506 746.135 18.477 0.217 o
1 3 9 49.551 52.802 1.554 22.550 o
1 4 0 81.521 81.496 2.092 12.361 o
1 4 1 245.336 251.713 6.306 1.719 o
1 4 2 105.053 106.846 2.698 7.977 o
1 4 3 400.623 401.722 9.991 0.712 o
1 4 4 39.023 37.600 1.056 38.754 o
1 4 5 37.609 37.972 1.095 38.095 o
1 4 6 43.205 43.691 1.251 30.799 o
1 4 7 110.721 111.050 2.943 7.014 o
1 4 8 189.489 183.337 4.742 2.901 o
1 5 0 349.955 349.409 8.760 0.917 o
1 5 1 37.248 38.157 1.066 39.139 o
1 5 2 146.935 143.136 3.695 4.562 o
1 5 4 389.140 390.157 9.845 0.738 o
1 5 5 153.847 151.857 3.950 4.086 o
1 5 6 42.712 43.965 1.261 30.680 o
1 5 7 5.010 4.419 0.411 312.258 o
1 6 0 1.585 2.004 0.645 216.761 o
1 6 1 2.068 2.366 0.459 363.422 o
1 6 2 4.745 4.282 0.303 420.326 o
1 6 3 17.845 17.177 0.616 101.752 o
1 6 4 45.583 45.392 1.281 29.213 o
1 6 5 18.771 18.038 0.684 90.558 o
2 0 0 6301.370 5283.180 129.938 0.004 o
2 0 2 434.712 463.851 11.624 0.546 o
2 0 4 917.567 964.531 23.766 0.134 o
2 0 6 234.303 236.667 6.022 1.878 o
2 0 8 19.509 19.162 0.831 73.817 o
2 0 10 1.100 1.623 0.929 113.287 o
2 1 0 8.570 8.369 0.274 282.501 o
2 1 1 106.804 121.501 3.070 6.637 o
2 1 2 850.278 858.945 21.215 0.166 o
2 1 3 904.042 917.702 22.642 0.146 o
2 1 4 6.750 6.267 0.284 340.452 o
2 1 5 77.971 76.256 1.965 13.636 o
2 1 6 628.766 653.181 16.219 0.283 o
2 1 7 34.041 35.410 1.056 41.715 o
2 1 8 2.465 1.955 0.332 552.477 o
2 1 9 72.215 72.521 2.024 13.776 o
2 1 10 109.302 113.191 3.031 6.778 o
2 2 0 464.187 468.710 11.556 0.538 o
2 2 1 385.030 394.273 9.776 0.746 o
2 2 2 141.138 145.561 3.725 4.573 o
2 2 3 91.472 87.773 2.278 10.594 o
2 2 4 357.527 361.483 9.024 0.869 o
2 2 5 23.159 22.095 0.665 80.239 o
2 2 6 205.081 202.215 5.142 2.494 o
2 2 8 8.758 7.694 0.430 218.310 o
2 2 9 4.806 4.556 0.352 365.542 o
2 2 10 12.272 11.165 0.538 146.393 o
2 3 0 85.230 86.218 2.258 11.049 o
2 3 1 187.124 190.415 4.830 2.827 o
2 3 2 464.760 470.519 11.712 0.527 o
2 3 3 9.222 8.574 0.352 238.523 o
2 3 4 166.505 164.938 4.116 3.709 o
2 3 5 14.309 12.885 0.469 145.804 o
2 3 6 321.699 320.177 7.958 1.094 o
2 3 7 149.964 151.564 3.940 4.139 o
2 3 8 51.344 51.346 1.486 23.434 o
2 3 9 1.333 1.584 0.655 215.572 o
2 4 0 377.416 384.203 9.532 0.782 o
2 4 1 171.960 170.784 4.341 3.407 o
2 4 2 3.429 3.099 0.215 659.926 o
2 4 3 30.695 31.099 0.890 52.056 o
2 4 4 32.401 34.081 1.007 44.825 o
2 4 5 2.808 2.444 0.264 650.080 o
2 4 6 62.902 61.777 1.682 18.302 o
2 4 7 53.407 57.114 1.613 20.740 o
2 4 8 3.508 2.992 0.352 438.817 o
2 5 0 24.875 23.366 0.714 72.711 o
2 5 1 100.182 102.652 2.649 8.365 o
2 5 2 133.115 132.529 3.412 5.297 o
2 5 3 14.185 14.293 0.538 130.318 o
2 5 4 1.657 2.063 0.518 313.377 o
2 5 5 12.428 10.930 0.489 157.481 o
2 5 6 59.667 59.147 1.642 19.336 o
2 6 0 123.738 123.672 3.236 5.881 o
2 6 1 2.013 1.906 0.567 265.346 o
2 6 2 112.370 112.878 2.962 6.898 o
2 6 3 80.001 81.330 2.190 11.859 o
2 6 4 106.423 107.580 2.835 7.486 o
3 0 0 224.030 223.977 5.592 2.125 o
3 0 2 461.787 463.851 11.497 0.544 o
3 0 4 536.046 554.616 13.834 0.385 o
3 0 6 389.557 398.877 10.070 0.712 o
3 0 8 399.805 403.150 10.246 0.688 o
3 1 0 222.791 214.142 5.387 2.253 o
3 1 1 19.006 15.926 0.469 118.908 o
3 1 3 781.497 800.287 19.807 0.190 o
3 1 4 236.945 236.853 5.934 1.907 o
3 1 5 154.809 155.455 3.920 4.096 o
3 1 6 2.183 1.946 0.264 740.840 o
3 1 7 6.092 5.230 0.352 322.866 o
3 1 8 19.813 19.259 0.675 88.196 o
3 1 9 179.940 179.026 4.605 3.082 o
3 1 10 63.350 64.094 1.848 16.404 o
3 2 0 560.901 581.237 14.450 0.354 o
3 2 1 1204.510 1220.440 30.053 0.084 o
3 2 2 8.012 7.772 0.293 289.754 o
3 2 3 86.606 90.793 2.376 10.269 o
3 2 4 281.034 284.073 7.098 1.368 o
3 2 5 2.697 2.532 0.225 747.924 o
3 2 6 264.696 262.369 6.726 1.524 o
3 2 7 99.923 101.811 2.757 8.006 o
3 2 8 6.396 6.061 0.469 238.112 o
3 2 9 14.470 13.628 0.675 107.733 o
3 3 0 274.526 281.375 6.971 1.416 o
3 3 1 4.163 3.813 0.235 543.513 o
3 3 2 288.023 291.924 7.293 1.301 o
3 3 3 23.068 22.632 0.645 81.567 o
3 3 4 158.254 158.505 4.038 3.902 o
3 3 5 17.559 16.454 0.557 111.213 o
3 3 6 107.990 109.183 2.786 7.573 o
3 3 7 4.347 3.295 0.352 400.737 o
3 3 8 75.940 75.532 2.112 12.786 o
3 3 9 13.113 12.592 0.655 116.663 o
3 4 0 119.212 116.515 3.011 6.573 o
3 4 1 77.969 77.038 2.033 13.129 o
3 4 2 48.702 48.559 1.320 27.199 o
3 4 3 369.203 373.928 9.288 0.821 o
3 4 4 147.413 145.062 3.715 4.516 o
3 4 6 52.891 52.929 1.515 22.558 o
3 5 0 546.854 549.317 13.628 0.392 o
3 5 1 19.294 19.240 0.626 94.507 o
3 5 2 23.701 23.141 0.743 72.343 o
3 5 3 155.454 154.203 3.979 4.021 o
3 5 5 51.599 54.494 1.535 22.352 o
3 5 6 38.901 39.184 1.154 35.563 o
3 6 0 35.479 34.951 1.056 41.098 o
3 6 1 46.054 46.888 1.339 27.679 o
3 6 3 23.755 22.681 0.763 71.106 o
4 0 0 5102.860 4874.020 119.839 0.005 o
4 0 2 44.738 43.143 1.212 31.318 o
4 0 4 504.489 507.415 12.700 0.451 o
4 0 6 462.237 476.971 11.917 0.514 o
4 0 8 0.728 0.997 0.606 260.000 o
4 1 0 243.359 238.623 5.954 1.878 o
4 1 1 95.928 88.995 2.297 10.256 o
4 1 2 13.353 11.722 0.381 173.790 o
4 1 3 886.377 896.086 22.017 0.154 o
4 1 4 14.002 13.042 0.469 146.998 o
4 1 5 34.688 37.717 1.056 40.802 o
4 1 6 101.588 101.997 2.640 8.366 o
4 1 7 142.093 144.769 3.783 4.478 o
4 1 8 7.605 7.078 0.430 235.539 o
4 1 9 14.332 14.195 0.645 111.857 o
4 2 0 94.751 96.552 2.444 9.482 o
4 2 1 130.590 127.191 3.207 5.789 o
4 2 2 48.833 45.636 1.242 29.095 o
4 2 3 125.282 126.057 3.197 5.917 o
4 2 5 71.997 73.440 1.985 14.054 o
4 2 6 21.064 20.296 0.694 82.916 o
4 2 7 58.261 58.277 1.721 18.647 o
4 2 8 221.515 218.063 5.612 2.135 o
4 2 9 14.480 12.993 0.704 104.147 o
4 3 0 117.417 118.314 3.031 6.543 o
4 3 1 231.314 229.061 5.749 2.018 o
4 3 2 61.264 61.630 1.633 19.072 o
4 3 3 296.263 302.179 7.635 1.203 o
4 3 4 484.908 487.833 12.054 0.496 o
4 3 5 222.538 220.086 5.543 2.162 o
4 3 6 2.873 2.493 0.411 396.245 o
4 3 8 136.606 141.504 3.813 4.515 o
4 4 0 640.923 650.454 16.033 0.286 o
4 4 1 395.257 397.929 9.943 0.721 o
4 4 2 204.681 205.520 5.191 2.458 o
4 4 3 73.282 74.046 1.936 14.305 o
4 4 4 2.456 2.395 0.284 640.434 o
4 4 5 12.737 12.279 0.479 153.988 o
4 4 6 91.087 95.427 2.552 9.190 o
4 4 7 40.544 40.494 1.242 32.374 o
4 5 0 40.314 40.689 1.134 35.270 o
4 5 1 33.856 33.318 0.997 44.577 o
4 5 2 77.107 78.769 2.102 12.669 o
4 5 3 101.324 104.764 2.737 7.988 o
4 5 4 6.137 5.563 0.352 318.014 o
4 5 5 38.498 39.076 1.154 35.742 o
4 6 0 3.346 3.216 0.391 391.887 o
4 6 1 64.028 66.685 1.789 16.776 o
4 6 2 308.823 311.535 7.850 1.136 o
5 0 0 31.008 27.814 0.811 57.042 o
5 0 2 872.031 876.298 21.772 0.158 o
5 0 4 23.148 21.322 0.821 68.367 o
5 0 6 36.765 37.492 1.232 34.446 o
5 0 8 92.111 95.779 2.728 8.444 o
5 1 0 407.384 405.819 10.040 0.702 o
5 1 1 0.910 1.066 0.274 965.586 o
5 1 2 1165.930 1173.840 29.065 0.089 o
5 1 3 108.587 105.927 2.689 7.916 o
5 1 4 88.083 85.944 2.258 10.909 o
5 1 5 146.943 145.923 3.725 4.502 o
5 1 6 52.543 53.536 1.476 23.163 o
5 1 7 10.242 9.464 0.440 191.763 o
5 1 8 289.192 295.277 7.440 1.262 o
5 2 0 62.561 66.255 1.740 17.453 o
5 2 1 504.249 518.707 12.836 0.443 o
5 2 2 46.961 47.660 1.310 27.939 o
5 2 3 12.117 12.054 0.450 165.241 o
5 2 4 1.541 1.711 0.332 630.574 o
5 2 5 791.169 806.681 19.885 0.188 o
5 2 6 400.944 407.969 10.187 0.691 o
5 2 7 64.875 65.140 1.818 16.483 o
5 2 8 116.524 117.415 3.148 6.280 o
5 3 0 41.537 40.005 1.085 36.274 o
5 3 1 1.825 1.926 0.293 699.016 o
5 3 2 745.235 757.515 18.780 0.211 o
5 3 3 17.127 15.593 0.538 116.749 o
5 3 4 60.827 60.614 1.662 18.857 o
5 3 5 18.577 17.353 0.616 99.637 o
5 3 6 148.354 144.134 3.705 4.525 o
5 3 7 14.992 14.450 0.606 115.532 o
5 4 0 65.993 68.298 1.867 15.763 o
5 4 1 42.337 43.456 1.212 32.036 o
5 4 2 23.167 22.740 0.733 74.155 o
5 4 3 510.960 509.018 12.719 0.448 o
5 4 4 8.969 8.075 0.391 229.364 o
5 4 5 38.252 37.463 1.124 37.031 o
5 4 6 116.889 115.938 3.070 6.481 o
5 5 0 1178.730 1190.570 29.476 0.087 o
5 5 1 6.399 5.885 0.362 302.321 o
5 5 2 5.830 4.585 0.313 368.670 o
5 5 3 18.957 18.487 0.635 95.076 o
5 5 4 119.666 121.042 3.197 6.068 o
5 6 0 38.846 38.851 1.183 34.819 o
5 6 1 1.463 3.177 1.134 75.719 o
6 0 0 204.535 202.890 5.152 2.488 o
6 0 2 280.496 275.235 6.892 1.432 o
6 0 4 530.127 528.385 13.364 0.410 o
6 0 6 132.952 136.518 3.744 4.694 o
6 0 8 5.355 4.976 0.489 248.261 o
6 1 0 97.296 99.201 2.542 8.931 o
6 1 1 177.321 175.936 4.487 3.213 o
6 1 2 51.037 53.536 1.437 24.070 o
6 1 3 63.366 64.573 1.721 17.660 o
6 1 4 351.403 359.576 9.004 0.877 o
6 1 5 34.006 34.012 1.007 43.916 o
6 1 6 51.719 53.966 1.525 22.524 o
6 1 7 239.843 237.860 6.042 1.853 o
6 1 8 45.092 45.871 1.369 27.453 o
6 2 0 15.468 14.782 0.499 130.646 o
6 2 1 25.392 25.057 0.743 68.772 o
6 2 2 29.154 30.502 0.851 55.492 o
6 2 3 3.836 3.177 0.254 558.036 o
6 2 4 10.705 9.884 0.411 194.950 o
6 2 6 23.954 23.659 0.811 66.668 o
6 2 7 2.339 2.307 0.469 345.729 o
6 3 0 54.701 55.110 1.496 22.343 o
6 3 1 27.833 28.068 0.821 59.431 o
6 3 2 224.397 225.307 5.700 2.070 o
6 3 3 100.152 102.418 2.698 8.195 o
6 3 4 152.056 152.659 3.959 4.087 o
6 3 5 29.104 27.315 0.870 55.914 o
6 3 6 9.579 8.105 0.420 211.105 o
6 3 7 19.402 19.162 0.704 86.100 o
6 4 0 21.967 21.821 0.694 80.008 o
6 4 1 6.271 5.416 0.313 344.313 o
6 4 2 52.430 53.575 1.476 23.180 o
6 4 3 2.679 2.669 0.420 387.581 o
6 4 4 56.345 59.509 1.652 19.642 o
6 4 5 13.227 12.406 0.518 142.682 o
6 5 0 25.538 26.084 0.821 62.831 o
6 5 1 106.609 109.682 2.855 7.393 o
6 5 2 0.890 1.486 0.919 116.391 o
7 0 0 21.154 18.438 0.684 85.400 o
7 0 2 293.883 300.840 7.616 1.212 o
7 0 4 302.799 306.109 7.890 1.139 o
7 0 6 551.711 546.814 13.736 0.387 o
7 1 0 372.106 369.920 9.239 0.826 o
7 1 1 180.394 188.049 4.722 2.955 o
7 1 2 5.690 4.830 0.274 402.487 o
7 1 3 204.258 202.890 5.074 2.539 o
7 1 4 33.215 32.370 0.948 47.220 o
7 1 5 3.813 3.128 0.284 516.655 o
7 1 7 18.561 17.529 0.675 92.644 o
7 2 0 797.971 817.386 20.188 0.183 o
7 2 1 94.067 94.157 2.415 9.688 o
7 2 2 173.971 173.668 4.458 3.270 o
7 2 3 11.247 10.246 0.420 185.886 o
7 2 4 6.723 5.944 0.352 301.274 o
7 2 5 25.165 24.441 0.821 64.146 o
7 2 6 102.718 105.067 2.796 7.747 o
7 3 0 233.141 236.579 5.934 1.919 o
7 3 1 4.384 3.021 0.274 501.088 o
7 3 2 31.160 30.082 0.909 51.174 o
7 3 4 1.580 3.119 0.841 132.114 o
7 4 0 214.392 215.971 5.494 2.225 o
7 4 1 4.220 3.441 0.313 448.478 o
7 4 2 122.736 121.628 3.207 5.983 o
7 4 3 10.962 9.679 0.420 190.650 o
7 4 4 45.898 44.043 1.300 28.895 o
7 5 0 67.862 69.325 1.877 15.456 o
7 5 1 10.115 8.838 0.440 195.631 o
7 5 2 1.167 1.623 0.997 98.730 o
8 0 0 1633.240 1639.730 40.435 0.046 o
8 0 2 11.477 10.470 0.518 157.311 o
8 0 4 112.197 111.989 3.138 6.446 o
8 0 6 73.427 73.949 2.249 12.088 o
8 1 0 2.377 2.082 0.293 638.661 o
8 1 1 46.998 45.949 1.251 29.363 o
8 1 2 15.365 15.173 0.528 125.451 o
8 1 3 328.019 325.183 8.134 1.052 o
8 1 4 279.730 280.378 7.049 1.387 o
8 1 5 12.356 11.204 0.479 159.408 o
8 1 6 98.082 100.325 2.679 8.364 o
8 2 0 21.019 22.261 0.723 78.663 o
8 2 1 2.003 1.779 0.323 613.752 o
8 2 2 433.284 432.782 10.735 0.619 o
8 2 3 106.931 109.740 2.855 7.383 o
8 2 4 35.719 33.797 0.997 43.374 o
8 2 5 145.725 148.005 3.901 4.253 o
8 3 0 317.016 323.795 8.114 1.069 o
8 3 1 99.415 97.901 2.581 8.726 o
8 3 2 362.271 360.583 9.014 0.867 o
8 3 3 10.624 9.962 0.469 177.825 o
8 3 4 93.482 94.108 2.532 9.206 o
8 4 0 47.815 49.322 1.378 26.216 o
8 4 1 31.122 32.536 0.978 47.293 o
8 4 2 3.007 3.050 0.831 129.698 o
8 4 3 82.622 84.194 2.288 11.076 o
9 0 0 2.797 4.194 0.508 280.180 o
9 0 2 18.219 17.989 0.733 86.417 o
9 0 4 58.773 57.739 1.848 17.199 o
9 1 0 160.480 159.101 4.038 3.879 o
9 1 1 121.216 126.458 3.265 5.838 o
9 1 2 442.406 438.599 10.930 0.598 o
9 1 3 120.691 124.258 3.236 5.931 o
9 1 4 34.162 33.592 1.036 42.845 o
9 1 5 12.815 12.787 0.547 137.736 o
9 2 0 267.799 265.449 6.668 1.532 o
9 2 1 71.899 73.998 1.994 13.966 o
9 2 2 97.699 99.436 2.601 8.684 o
9 2 3 46.899 46.966 1.339 27.460 o
9 2 4 12.985 12.201 0.518 144.399 o
9 3 0 168.618 167.235 4.223 3.566 o
9 3 1 26.871 26.484 0.821 61.206 o
9 3 2 49.026 50.075 1.427 24.993 o
9 3 3 23.188 22.887 0.763 71.742 o
9 4 0 2.776 2.982 0.499 299.689 o
9 4 1 50.445 51.942 1.496 23.389 o
10 0 0 609.924 618.328 15.339 0.313 o
10 0 2 21.256 19.817 0.792 74.257 o
10 1 0 4.110 3.432 0.332 429.577 o
10 1 1 80.635 79.472 2.112 12.358 o
10 1 2 8.811 8.818 0.420 215.443 o
10 1 3 187.467 189.105 4.898 2.777 o
10 2 1 72.987 74.711 2.004 13.783 o
10 2 2 223.561 224.955 5.690 2.078 o
10 3 0 2.647 2.131 0.440 373.212 o
10 3 1 58.766 59.098 1.642 19.460 o
11 1 0 37.952 39.712 1.163 35.549 o
;
_olex2_submission_special_instructions 'No special instructions were received'
loop_
_space_group_symop_id
_space_group_symop_operation_xyz
1 x,y,z
2 -x,y+1/2,-z+1/2
3 -x,-y,-z
4 x,-y-1/2,z-1/2
loop_
_atom_site_label
_atom_site_type_symbol
_atom_site_fract_x
_atom_site_fract_y
_atom_site_fract_z
_atom_site_U_iso_or_equiv
_atom_site_adp_type
_atom_site_occupancy
_atom_site_refinement_flags_posn
N(2) N 0.65347(5) 0.73451(9) 0.23551(6) 0.00975(13) Uani 1.000000 .
H(2) H 0.5780(10) 0.6179(18) 0.1878(10) 0.020(2) Uiso 1.000000 .
O(3) O 0.86286(4) 0.59027(7) 0.16003(5) 0.01098(12) Uani 1.000000 .
N(1) N 0.61586(5) 0.92553(9) 0.31818(6) 0.00958(12) Uani 1.000000 .
N(4) N 0.85255(5) 0.94639(9) 0.30601(5) 0.00853(12) Uani 1.000000 .
H(4) H 0.9562(11) 1.0097(19) 0.3195(11) 0.027(2) Uiso 1.000000 .
C(3) C 0.79839(6) 0.73999(10) 0.22533(7) 0.00830(13) Uani 1.000000 .
O(5B O 0.86926(4) 1.36279(8) 0.47652(5) 0.01417(12) Uani 1.000000 .
O(5A O 0.64135(4) 1.32467(9) 0.49783(5) 0.01651(12) Uani 1.000000 .
N(5) N 0.75031(5) 1.26095(9) 0.45129(6) 0.00989(13) Uani 1.000000 .
C(5) C 0.73791(6) 1.04437(10) 0.35748(6) 0.00843(13) Uani 1.000000 .
loop_
_atom_site_aniso_label
_atom_site_aniso_U_11
_atom_site_aniso_U_22
_atom_site_aniso_U_33
_atom_site_aniso_U_12
_atom_site_aniso_U_13
_atom_site_aniso_U_23
N(2) 0.0064(2) 0.0099(3) 0.0126(3) -0.00069(17) 0.00126(18) -0.00123(18)
O(3) 0.0072(2) 0.0121(2) 0.0134(2) 0.00082(15) 0.00142(15) -0.00397(16)
N(1) 0.0059(2) 0.0109(2) 0.0124(2) 0.00059(18) 0.00272(18) -0.00036(18)
N(4) 0.0069(2) 0.0097(2) 0.0092(2) -0.00054(17) 0.00196(18) -0.00093(17)
C(3) 0.0068(3) 0.0086(3) 0.0094(3) 0.00041(19) 0.0014(2) -0.00023(19)
O(5B 0.0148(2) 0.0122(2) 0.0159(2) -0.00396(16) 0.00403(17) -0.00342(17)
O(5A 0.0132(2) 0.0175(2) 0.0192(2) 0.00253(17) 0.00401(18) -0.00683(18)
N(5) 0.0107(3) 0.0091(2) 0.0098(2) 0.00070(17) 0.00181(18) -0.00120(17)
C(5) 0.0073(3) 0.0089(3) 0.0091(3) 0.0002(2) 0.0016(2) -0.0006(2)
loop_
_atom_type_symbol
_atom_type_description
_atom_type_scat_dispersion_real
_atom_type_scat_dispersion_imag
_atom_type_scat_source
_atom_type_scat_dispersion_source
C C 0.00347 0.00161
'Clementi & Roetti, C., At. Data Nucl. Data Tables 1974, 14, (177-478); Clementi & Raimondi, J. Chem. Phys., 1963, 38, (2686-2689)'
'Henke, Gullikson and Davis, At. Data and Nucl. Data Tables, 1993, 54, 2'
H H 0.00000 0.00000
'Clementi & Roetti, C., At. Data Nucl. Data Tables 1974, 14, (177-478); Clementi & Raimondi, J. Chem. Phys., 1963, 38, (2686-2689)'
'Henke, Gullikson and Davis, At. Data and Nucl. Data Tables, 1993, 54, 2'
N N 0.00653 0.00323
'Clementi & Roetti, C., At. Data Nucl. Data Tables 1974, 14, (177-478); Clementi & Raimondi, J. Chem. Phys., 1963, 38, (2686-2689)'
'Henke, Gullikson and Davis, At. Data and Nucl. Data Tables, 1993, 54, 2'
O O 0.01158 0.00611
'Clementi & Roetti, C., At. Data Nucl. Data Tables 1974, 14, (177-478); Clementi & Raimondi, J. Chem. Phys., 1963, 38, (2686-2689)'
'Henke, Gullikson and Davis, At. Data and Nucl. Data Tables, 1993, 54, 2'
loop_
_geom_angle_atom_site_label_1
_geom_angle_atom_site_label_2
_geom_angle_atom_site_label_3
_geom_angle
_geom_angle_site_symmetry_1
_geom_angle_site_symmetry_3
_geom_angle_publ_flag
N(1) N(2) H(2) 119.6(5) . . ?
C(3) N(2) H(2) 127.8(5) . . ?
C(3) N(2) N(1) 112.52(4) . . ?
C(5) N(1) N(2) 102.92(4) . . ?
C(3) N(4) H(4) 125.6(6) . . ?
C(5) N(4) H(4) 128.6(6) . . ?
C(5) N(4) C(3) 105.74(5) . . ?
O(3) C(3) N(2) 126.77(5) . . ?
N(4) C(3) N(2) 104.11(5) . . ?
N(4) C(3) O(3) 129.11(5) . . ?
O(5A N(5) O(5B 126.31(5) . . ?
C(5) N(5) O(5B 116.41(5) . . ?
C(5) N(5) O(5A 117.28(5) . . ?
N(4) C(5) N(1) 114.70(5) . . ?
N(5) C(5) N(1) 122.18(5) . . ?
N(5) C(5) N(4) 123.11(5) . . ?
loop_
_geom_bond_atom_site_label_1
_geom_bond_atom_site_label_2
_geom_bond_distance
_geom_bond_site_symmetry_2
_geom_bond_publ_flag
N(2) H(2) 0.982(10) . ?
N(2) N(1) 1.3673(7) . ?
N(2) C(3) 1.3731(7) . ?
O(3) C(3) 1.2317(7) . ?
N(1) C(5) 1.2963(7) . ?
N(4) H(4) 1.011(10) . ?
N(4) C(3) 1.3806(7) . ?
N(4) C(5) 1.3573(7) . ?
O(5B N(5) 1.2207(7) . ?
O(5A N(5) 1.2248(6) . ?
N(5) C(5) 1.4446(7) . ?
loop_
_refln_index_h
_refln_index_k
_refln_index_l
_refln_F_squared_meas
_refln_F_squared_sigma
1 0 0 70.11 1.81
1 1 0 0.65 0.09
0 1 1 137.45 3.45
2 0 0 5404.01 132.91
0 0 2 518.75 12.98
-1 0 2 1327.73 33.01
-1 1 1 644.6 16
1 1 1 459.67 11.45
1 0 2 962.43 24.01
-2 0 2 279.73 7.02
2 1 0 8.56 0.28
0 1 2 1223.88 30.23
-2 1 1 687.23 16.99
-1 1 2 5860.97 143.93
2 1 1 124.28 3.14
1 1 2 8790.19 215.64
3 0 0 229.1 5.72
-2 1 2 146.34 3.7
2 0 2 474.46 11.89
-3 0 2 11.06 0.4
0 2 0 301.51 7.61
-3 1 1 70.01 1.81
3 1 0 219.04 5.51
-1 1 3 502.75 12.51
1 2 0 410.91 10.22
0 2 1 3.72 0.19
0 1 3 7648.9 188.03
2 1 2 878.59 21.7
-1 2 1 2907.91 71.61
1 2 1 1203.81 29.77
-3 1 2 576.05 14.26
3 1 1 16.29 0.48
-2 1 3 26.25 0.74
1 1 3 6.37 0.23
2 2 0 479.43 11.82
3 0 2 474.46 11.76
0 2 2 652.09 16.09
-2 2 1 27.88 0.76
-1 2 2 87.18 2.24
4 0 0 4985.49 122.58
-1 0 4 52.74 1.44
0 0 4 1900.44 46.91
2 2 1 403.29 10
-4 0 2 210.92 5.32
1 2 2 331.97 8.2
-2 0 4 129.82 3.35
-3 1 3 4.61 0.21
-2 2 2 39.74 1.06
-4 1 1 37.87 1
2 1 3 938.69 23.16
4 1 0 244.08 6.09
-1 1 4 63.04 1.67
1 0 4 826.85 20.36
0 1 4 151.76 3.84
-4 1 2 38.35 1
-3 2 1 753.28 18.61
3 2 0 594.53 14.78
-2 1 4 209.27 5.21
0 2 3 6.31 0.24
2 2 2 148.89 3.81
4 1 1 91.03 2.35
-3 2 2 61.62 1.6
1 1 4 45.45 1.21
3 2 1 1248.35 30.74
-2 2 3 118.92 3.01
1 2 3 5.35 0.24
4 0 2 44.13 1.24
-4 1 3 2676.92 65.92
2 0 4 986.59 24.31
-3 1 4 376.28 9.31
3 1 3 818.59 20.26
5 0 0 28.45 0.83
4 1 2 11.99 0.39
1 3 0 124.08 3.14
-3 2 3 142.8 3.66
0 3 1 1496.45 36.98
3 2 2 7.95 0.3
2 1 4 6.41 0.29
-4 2 1 23.99 0.71
-5 1 1 54.98 1.47
-4 0 4 948.89 23.47
2 2 3 89.78 2.33
-1 3 1 497.91 12.32
4 2 0 98.76 2.5
5 1 0 415.1 10.27
-1 2 4 802.87 19.89
1 3 1 486.56 12.04
-5 1 2 776.85 19.23
0 2 4 2256.06 55.38
-1 1 5 132.85 3.39
-4 2 2 38.91 1.05
-2 2 4 786.3 19.52
0 1 5 139.71 3.55
2 3 0 88.19 2.31
-2 1 5 215.5 5.46
0 3 2 21.72 0.64
-2 3 1 37.02 0.99
-4 1 4 1.14 0.41
4 2 1 130.1 3.28
-1 3 2 519.98 12.86
3 0 4 567.3 14.15
5 1 1 1.09 0.28
1 2 4 1790.81 44.01
2 3 1 194.77 4.94
1 3 2 13.32 0.44
-5 1 3 293.44 7.3
-2 3 2 395.73 9.91
1 1 5 229.37 5.72
-4 2 3 319.3 7.93
-3 1 5 12.77 0.43
-3 2 4 7.63 0.31
4 1 3 916.58 22.52
5 0 2 896.34 22.27
3 2 3 92.87 2.43
3 1 4 242.27 6.07
-3 3 1 24.08 0.71
3 3 0 287.81 7.13
-5 0 4 140.38 3.55
4 2 2 46.68 1.27
0 3 3 232.47 5.85
2 3 2 481.28 11.98
2 2 4 369.75 9.23
-5 2 1 2028.78 50.09
-6 0 2 127.98 3.33
5 1 2 1200.69 29.73
6 0 0 207.53 5.27
5 2 0 67.77 1.78
-3 3 2 1437.32 35.49
3 3 1 3.9 0.24
-2 3 3 28.39 0.8
-1 2 5 219.48 5.51
-1 0 6 423.45 10.62
1 3 3 13.21 0.44
2 1 5 78 2.01
-5 1 4 96.55 2.48
-6 1 1 4.74 0.25
-2 0 6 378.85 9.46
0 2 5 346.15 8.71
-4 1 5 224.67 5.67
-2 2 5 74.91 1.97
0 0 6 1471.72 36.44
-4 2 4 137.87 3.52
-6 1 2 255.46 6.43
6 1 0 101.47 2.6
4 0 4 519.02 12.99
5 2 1 530.57 13.13
-1 1 6 144.02 3.67
-5 2 3 71.83 1.88
-3 0 6 40.77 1.19
-2 1 6 1.21 0.34
-3 3 3 2.73 0.2
1 2 5 2043.67 50.54
3 3 2 298.6 7.46
-4 3 1 358.99 8.98
0 1 6 471.71 11.73
-3 2 5 1335.17 32.89
2 3 3 8.77 0.36
4 2 3 128.94 3.27
4 3 0 121.02 3.1
1 0 6 55.65 1.61
-6 1 3 5.7 0.26
3 2 4 290.57 7.26
4 1 4 13.34 0.48
-1 3 4 410.06 10.21
6 1 1 179.96 4.59
0 3 4 72.85 1.89
-4 3 2 70.46 1.86
5 1 3 108.35 2.75
-3 1 6 15.59 0.52
-2 3 4 3.25 0.21
-6 0 4 120.69 3.16
4 3 1 234.3 5.88
3 1 5 159.01 4.01
5 2 2 48.75 1.34
1 1 6 233.39 5.87
6 0 2 281.53 7.05
1 3 4 45.7 1.22
0 4 0 51.83 1.47
-4 0 6 1743.31 43.17
2 2 5 22.6 0.68
-5 2 4 34.68 0.99
-6 2 1 36.36 1.01
1 4 0 83.36 2.14
0 4 1 71.01 1.87
-4 2 5 8.61 0.35
-4 3 3 338.12 8.38
2 0 6 242.08 6.16
-6 1 4 1.14 0.37
-1 4 1 1.67 0.25
-3 3 4 110.61 2.84
-6 2 2 314.28 7.87
6 2 0 15.12 0.51
3 3 3 23.15 0.66
6 1 2 54.76 1.47
1 4 1 257.47 6.45
-7 0 2 259.11 6.57
-4 1 6 9.66 0.37
-1 2 6 24.08 0.71
4 3 2 63.04 1.67
7 0 0 18.86 0.7
-2 2 6 98.82 2.56
2 4 0 392.99 9.75
2 3 4 168.71 4.21
5 0 4 21.81 0.84
0 4 2 367.91 9.21
-2 4 1 64.38 1.69
0 2 6 619.51 15.23
2 1 6 668.12 16.59
-5 3 1 71.83 1.88
-1 4 2 16.83 0.54
-7 1 1 1.52 0.47
5 3 0 40.92 1.11
6 2 1 25.63 0.76
-7 1 2 117.14 3.05
-5 3 2 5.92 0.29
2 4 1 174.69 4.44
-1 3 5 9.16 0.38
1 4 2 109.29 2.76
5 2 3 12.33 0.46
7 1 0 378.38 9.45
-3 2 6 111.11 2.85
-2 4 2 115.84 2.97
-5 0 6 281.74 7.15
0 3 5 390.02 9.72
-2 3 5 1.4 0.5
5 1 4 87.91 2.31
-4 3 4 289.54 7.25
3 2 5 2.59 0.23
4 1 5 38.58 1.08
-1 1 7 9.9 0.38
5 3 1 1.97 0.3
-7 1 3 253.16 6.4
-5 2 5 153.02 3.93
-2 1 7 328.15 8.15
3 0 6 408 10.3
-6 1 5 2.22 0.21
-3 4 1 3.48 0.22
3 4 0 119.18 3.08
-5 3 3 7.68 0.33
-1 4 3 402.56 10.11
0 4 3 311.84 7.84
-5 1 6 227.92 5.71
1 3 5 1.48 0.62
0 1 7 1.1 0.42
2 4 2 3.17 0.22
6 1 3 66.05 1.76
-6 2 4 133.19 3.39
-3 3 5 26.74 0.81
7 1 1 192.35 4.83
-7 0 4 641.56 15.96
4 3 3 309.09 7.81
3 3 4 162.13 4.13
6 2 2 31.2 0.87
-3 1 7 1.99 0.36
-3 4 2 17.65 0.58
3 4 1 78.8 2.08
-2 4 3 89.04 2.32
-4 2 6 98.33 2.56
3 1 6 1.99 0.27
1 4 3 410.91 10.22
2 2 6 206.84 5.26
-7 1 4 363.09 9.03
5 3 2 774.84 19.21
7 0 2 307.72 7.79
-7 2 1 14.55 0.53
-7 2 2 167.94 4.2
2 3 5 13.18 0.48
-5 3 4 1122.85 27.75
-6 3 1 1.02 0.62
7 2 0 836.08 20.65
-4 1 7 134.93 3.48
-3 4 3 571.74 14.2
-4 3 5 362.29 9.02
3 4 2 49.67 1.35
-6 0 6 123.41 3.27
5 2 4 1.75 0.34
-4 4 1 31.3 0.91
2 4 3 31.81 0.91
-6 3 2 363.09 9.03
4 4 0 665.33 16.4
7 1 2 4.94 0.28
4 2 5 75.12 2.03
6 3 0 56.37 1.53
-1 2 7 48.04 1.33
-7 2 3 2.22 0.24
6 0 4 540.47 13.67
-2 2 7 23.49 0.73
-8 0 2 539.49 13.52
0 4 4 42.35 1.17
-1 3 6 320.48 8.06
-4 4 2 283.25 7.07
-2 3 6 258.53 6.56
4 0 6 487.88 12.19
-2 4 4 342.58 8.55
-5 2 6 365.61 9.18
0 2 7 223.86 5.66
-6 1 6 184.58 4.73
6 2 3 3.25 0.26
0 3 6 758.23 18.67
5 1 5 149.26 3.81
4 4 1 407.03 10.17
8 0 0 1677.23 41.36
7 2 1 96.31 2.47
2 1 7 36.22 1.08
-6 3 3 3.99 0.26
4 3 4 498.99 12.33
-3 2 7 113.34 2.94
6 3 1 28.71 0.84
1 4 4 38.46 1.08
6 1 4 367.8 9.21
-8 1 1 103.35 2.68
-8 1 2 361.49 9.01
-7 1 5 220.46 5.61
3 2 6 268.37 6.88
5 3 3 15.95 0.55
-3 3 6 254.69 6.42
-2 0 8 114.3 3.14
-1 0 8 178.36 4.65
4 1 6 104.33 2.7
3 3 5 16.83 0.57
-3 4 4 112.51 2.93
8 1 0 2.13 0.3
-5 1 7 26.12 0.8
-7 2 4 395.02 9.9
1 3 6 224.67 5.76
1 2 7 7 0.33
3 4 3 382.48 9.5
-8 1 3 949.07 23.47
-5 3 5 67.52 1.82
-3 0 8 5.33 0.4
4 4 2 210.22 5.31
-1 1 8 59.15 1.57
-4 2 7 162.89 4.14
-8 0 4 85.62 2.33
7 1 3 207.53 5.19
2 4 4 34.86 1.03
-5 4 1 181.49 4.61
-6 3 4 113.47 2.94
7 2 2 177.64 4.56
6 3 2 230.46 5.83
5 4 0 69.86 1.91
-4 3 6 73.41 1.95
-5 4 2 31.3 0.91
8 1 1 47 1.28
-3 1 8 474.98 11.9
0 1 8 33.18 0.97
-7 0 6 13.21 0.59
1 5 0 357.4 8.96
0 5 1 92.12 2.42
3 1 7 5.35 0.36
-8 1 4 44.73 1.24
0 4 5 33.07 0.97
1 0 8 550.14 13.79
-6 2 6 81.99 2.17
-2 4 5 208.74 5.29
2 3 6 327.5 8.14
5 2 5 825.13 20.34
-4 4 4 2.17 0.36
-1 5 1 3.57 0.25
-7 3 1 9.31 0.38
1 5 1 39.03 1.09
5 4 1 44.45 1.24
6 2 4 10.11 0.42
-7 3 2 270.93 6.81
-8 2 2 276.82 6.89
-7 2 5 510.85 12.75
-5 4 3 732.35 18.19
8 0 2 10.71 0.53
-7 1 6 193.77 4.93
7 3 0 241.99 6.07
5 0 6 38.35 1.26
4 2 6 20.76 0.71
2 5 0 23.9 0.73
1 4 5 38.84 1.12
-4 1 8 2.78 0.27
1 1 8 73.67 2.01
5 3 4 62 1.7
0 5 2 11.66 0.45
-2 5 1 206.41 5.17
-6 1 7 3.47 0.28
-3 4 5 25.63 0.79
-1 5 2 152.72 3.93
8 2 0 22.77 0.74
-5 2 7 277.62 7
4 4 3 75.74 1.98
4 3 5 225.12 5.67
3 4 4 148.38 3.8
-8 2 3 115.91 3.04
-1 3 7 9.55 0.41
-7 3 3 150.65 3.9
-2 3 7 5.47 0.36
7 0 4 313.11 8.07
2 5 1 105 2.71
6 1 5 34.79 1.03
1 5 2 146.41 3.78
-6 3 5 53.92 1.5
8 1 2 15.52 0.54
5 1 6 54.76 1.51
-2 2 8 105.37 2.77
-1 2 8 101.71 2.66
-2 5 2 89.32 2.32
-5 3 6 763.53 18.9
0 3 7 153.09 3.93
7 2 3 10.48 0.43
6 3 3 104.76 2.76
-5 0 8 5.41 0.39
2 0 8 19.6 0.85
7 3 1 3.09 0.28
5 4 2 23.26 0.75
-9 0 2 208.57 5.37
-3 3 7 155.85 3.97
7 1 4 33.11 0.97
-3 2 8 2.37 0.28
0 2 8 164.45 4.15
3 3 6 111.68 2.85
2 4 5 2.5 0.27
-3 5 1 12.14 0.46
3 5 0 561.88 13.94
-5 4 4 292.41 7.28
-6 4 1 134.37 3.41
-1 5 3 145.25 3.76
3 2 7 104.14 2.82
0 5 3 28.68 0.84
-8 2 4 109.6 2.83
-4 4 5 95.02 2.51
2 5 2 135.56 3.49
2 1 8 2 0.34
-7 3 4 204.35 5.15
-6 4 2 531.53 13.28
1 3 7 142.44 3.65
6 4 0 22.32 0.71
4 1 7 148.08 3.87
-3 5 2 94.73 2.51
3 5 1 19.68 0.64
-2 5 3 6.4 0.33
-1 4 6 81.61 2.22
-7 2 6 216.91 5.57
-2 4 6 4.19 0.29
-4 3 7 45.05 1.25
-4 2 8 840.25 20.7
1 2 8 235.96 5.99
0 4 6 366.53 9.19
-6 2 7 6.89 0.36
-3 4 6 19.31 0.63
-6 0 8 306.57 7.77
-2 1 9 48.33 1.33
-1 1 9 71.37 1.93
-3 1 9 192.85 4.92
8 2 1 1.82 0.33
9 0 0 4.29 0.52
-9 1 2 214.51 5.45
-9 1 1 22.37 0.71
-9 1 3 16.19 0.56
9 1 0 162.74 4.13
7 3 2 30.77 0.93
-8 0 6 1375.82 34.05
4 4 4 2.45 0.29
-9 0 4 308.56 7.9
6 4 1 5.54 0.32
8 1 3 332.62 8.32
5 4 3 520.66 13.01
8 2 2 442.68 10.98
-7 1 7 26.93 0.84
5 2 6 417.3 10.42
-3 5 3 54.85 1.51
3 0 8 412.37 10.48
3 5 2 23.67 0.76
-6 3 6 95.55 2.52
-4 5 1 29.42 0.88
5 3 5 17.75 0.63
2 5 3 14.62 0.55
4 5 0 41.62 1.16
1 4 6 44.69 1.28
2 3 7 155.03 4.03
-8 2 5 43.18 1.22
-8 1 6 324.58 8.11
-1 5 4 227.47 5.79
-9 1 4 344.92 8.69
6 3 4 156.15 4.05
-5 4 5 16.27 0.58
-8 3 1 271.03 6.82
-8 3 2 282.34 7.06
0 5 4 5.83 0.32
6 0 6 139.64 3.83
7 2 4 6.08 0.36
-7 3 5 2.19 0.47
-4 5 2 486.16 12.04
9 1 1 129.35 3.34
4 3 6 2.55 0.42
-2 5 4 2.68 0.29
-6 1 8 28.29 0.89
3 1 8 19.7 0.69
0 1 9 172.71 4.42
-6 4 4 294.88 7.42
4 5 1 34.08 1.02
-5 2 8 3.3 0.28
2 2 8 7.87 0.44
8 3 0 331.2 8.3
-5 3 7 25.57 0.82
-9 2 2 103.71 2.69
4 2 7 59.61 1.76
-9 2 1 484.18 12.01
6 4 2 54.8 1.51
-8 3 3 69.86 1.91
1 5 4 399.08 10.07
-4 4 6 216.56 5.47
6 1 6 55.2 1.56
-4 1 9 312.37 7.85
7 1 5 3.2 0.29
-2 3 8 38.84 1.2
-1 3 8 171.22 4.32
-9 2 3 7.75 0.38
-4 5 3 130.03 3.35
9 0 2 18.4 0.75
2 4 6 63.19 1.72
-3 5 4 1.74 1.03
9 2 0 271.52 6.82
3 5 3 157.73 4.07
-7 4 1 92.58 2.42
8 0 4 114.55 3.21
5 1 7 9.68 0.45
-7 4 2 1.81 0.81
1 1 9 56.87 1.63
8 3 1 100.14 2.64
-9 1 5 131.13 3.37
-3 3 8 99.12 2.69
0 3 8 328.37 8.26
8 2 3 112.25 2.92
4 5 2 80.57 2.15
7 4 0 220.91 5.62
3 3 7 3.37 0.36
-8 3 4 9.64 0.43
-2 2 9 87.97 2.36
2 5 4 2.11 0.53
5 4 4 8.26 0.4
9 1 2 448.63 11.18
-5 5 1 7.6 0.38
-1 2 9 12.39 0.49
4 4 5 12.56 0.49
-8 2 6 3.3 0.35
5 5 0 1217.8 30.15
-1 4 7 11.97 0.52
-9 2 4 149.4 3.81
8 1 4 286.79 7.21
-7 4 3 42 1.21
-7 0 8 355.47 9.05
4 0 8 1.02 0.62
-2 4 7 6.87 0.39
-5 5 2 9.4 0.42
-3 2 9 2.11 1.12
-1 5 5 8.63 0.42
-6 4 5 70.86 1.92
-10 0 2 264.36 6.73
9 2 1 75.69 2.04
-7 3 6 13.62 0.53
-5 1 9 318.55 8.03
-5 4 6 120.76 3.16
0 5 5 33.73 0.98
-6 2 8 350.29 8.87
3 2 8 6.2 0.48
0 2 9 33.25 0.97
-4 3 8 67.77 1.83
1 3 8 763.2 18.9
6 4 3 2.73 0.43
-2 5 5 24.11 0.8
-4 5 4 3.21 0.39
-6 3 7 23.7 0.79
-8 1 7 20.81 0.68
7 4 1 3.52 0.32
-3 4 7 1.84 0.63
5 5 1 6.02 0.37
-7 1 8 349.84 8.87
4 1 8 7.24 0.44
-9 0 6 33.66 1.11
6 2 6 24.2 0.83
6 3 5 27.94 0.89
3 4 6 54.14 1.55
-10 1 2 84.07 2.2
-5 5 3 75.9 2.04
8 3 2 368.83 9.22
2 1 9 74.18 2.07
10 0 0 632.47 15.69
-4 2 9 12.45 0.51
5 3 6 147.43 3.79
7 2 5 25 0.84
-10 1 1 136.33 3.5
1 5 5 155.33 4.04
-3 5 5 2.8 0.35
-7 4 4 102.98 2.68
4 5 3 107.16 2.8
1 4 7 113.59 3.01
-8 3 5 26.18 0.83
-10 1 3 122.74 3.19
5 2 7 66.63 1.86
-9 1 6 31.64 0.95
1 2 9 3.44 0.38
0 6 0 453.26 11.37
7 3 4 3.19 0.86
-10 0 4 72.44 2.04
-9 2 5 165.3 4.24
10 1 0 3.51 0.34
1 6 0 2.05 0.66
-2 0 10 493.33 12.53
-4 4 7 2.29 0.74
0 6 1 2.31 0.57
7 0 6 559.32 14.05
9 2 2 101.71 2.66
9 1 3 127.1 3.31
-5 3 8 9.36 0.42
2 3 8 52.52 1.52
-1 6 1 25.66 0.82
-1 0 10 35.21 1.21
5 5 2 4.69 0.32
7 4 2 124.41 3.28
-9 3 2 2.92 0.32
-3 0 10 1.7 0.74
-9 3 1 54.36 1.5
1 6 1 2.42 0.47
8 2 4 34.57 1.02
-10 1 4 50.1 1.4
2 5 5 11.18 0.5
-5 5 4 26.86 0.84
-6 5 1 122.61 3.19
-5 2 9 9.14 0.47
-2 1 10 3.46 0.32
-4 5 5 37.02 1.13
2 6 0 126.5 3.31
-9 3 3 113.85 2.94
-6 4 6 60.22 1.68
0 6 2 401.24 10.1
-2 6 1 132.43 3.38
5 4 5 38.32 1.15
-1 6 2 7 0.4
0 0 10 25.79 1.01
-8 2 7 136.4 3.57
9 3 0 171.06 4.32
-6 5 2 240.78 6.05
2 4 7 58.42 1.65
6 1 7 243.3 6.18
6 5 0 26.68 0.84
-3 1 10 115.91 3.04
6 4 4 60.87 1.69
-8 4 1 72.54 1.94
-4 0 10 138.58 3.88
-7 2 8 4.91 0.35
4 2 8 223.05 5.74
-8 4 2 62.66 1.71
10 1 1 81.29 2.16
2 6 1 1.95 0.58
-7 4 5 58.37 1.6
1 6 2 4.38 0.31
8 3 3 10.19 0.48
-10 2 2 12.43 0.51
-8 0 8 143.45 3.81
5 0 8 97.97 2.79
3 1 9 183.12 4.71
-7 3 7 104.2 2.76
2 2 9 4.66 0.36
8 1 5 11.46 0.49
4 4 6 97.61 2.61
-10 2 1 2.4 0.55
-2 6 2 30.87 0.93
-2 3 9 6.07 0.41
0 5 6 15.24 0.63
0 1 10 252.11 6.38
8 4 0 50.45 1.41
-1 3 9 24.29 0.8
-5 4 7 19.62 0.69
-6 5 3 6.23 0.37
-10 2 3 2.42 0.57
-8 3 6 88.81 2.37
4 5 4 5.69 0.36
-8 4 3 2.72 0.39
-9 3 4 18.08 0.66
6 5 1 112.19 2.92
-4 1 10 95.08 2.57
-9 2 6 45.29 1.29
-10 1 5 48.16 1.33
-3 6 1 28.52 0.9
3 6 0 35.75 1.08
9 3 1 27.09 0.84
-8 1 8 65.66 1.8
5 1 8 302.03 7.61
5 5 3 18.91 0.65
-3 5 6 236.05 5.99
-1 6 3 2.63 0.4
-1 4 8 40.35 1.26
9 0 4 59.06 1.89
-6 3 8 88.81 2.37
3 3 8 77.26 2.16
2 6 2 115.46 3.03
0 3 9 4 0.31
7 4 3 9.9 0.43
10 0 2 20.27 0.81
3 5 5 55.74 1.57
9 2 3 48.04 1.37
1 5 6 44.97 1.29
-9 1 7 14.46 0.55
-5 0 10 79.07 2.24
-3 6 2 13.76 0.53
-5 5 5 2.43 0.38
3 6 1 47.96 1.37
-2 6 3 41.58 1.2
-6 2 9 19.28 0.68
6 3 6 8.29 0.43
-10 2 4 146.85 3.78
8 4 1 33.28 1
-3 4 8 26.58 0.9
1 6 3 17.57 0.63
-4 3 9 15.48 0.61
-2 2 10 3.09 0.47
-8 4 4 128.39 3.33
9 1 4 34.36 1.06
7 2 6 107.47 2.86
-7 1 9 5.14 0.37
10 1 2 9.02 0.43
-6 5 4 3.09 0.39
-1 2 10 56.87 1.58
6 2 7 2.36 0.48
-3 2 10 66.54 1.81
-5 1 10 365.04 9.17
6 5 2 1.52 0.94
5 3 7 14.78 0.62
-10 0 6 16.12 0.75
1 3 9 54.01 1.59
-4 5 6 77.74 2.12
10 2 1 76.42 2.05
3 2 9 13.94 0.69
-7 4 6 1.74 1.03
8 2 5 151.39 3.99
-11 0 2 6.67 0.51
-3 6 3 175.64 4.53
-4 4 8 12.37 0.53
1 4 8 187.53 4.85
-4 6 1 42.78 1.26
9 3 2 51.22 1.46
2 5 6 60.5 1.68
2 6 3 83.19 2.24
0 2 10 22.52 0.77
4 6 0 3.29 0.4
2 0 10 1.66 0.95
-7 5 1 8.19 0.41
-1 6 4 16.68 0.61
8 3 4 96.26 2.59
4 1 9 14.52 0.66
-10 1 6 2.56 0.45
-7 5 2 13.54 0.53
0 6 4 2.32 0.49
6 4 5 12.69 0.53
-4 6 2 371.72 9.37
-10 2 5 56.64 1.58
-8 2 8 25.6 0.88
5 2 8 120.1 3.22
8 4 2 3.12 0.85
7 5 0 70.91 1.92
-11 1 2 3.31 0.34
5 4 6 118.59 3.14
-6 0 10 66.19 1.9
-2 6 4 2.59 0.74
5 5 4 123.81 3.27
8 0 6 75.64 2.3
4 6 1 68.21 1.83
-8 3 7 107.91 2.87
2 1 10 115.78 3.1
-11 1 1 3.87 0.33
-9 2 7 85.78 2.33
4 5 5 39.97 1.18
-8 4 5 142.23 3.65
-11 1 3 14.03 0.56
-1 5 7 5.67 0.41
1 6 4 46.43 1.31
-7 5 3 159.92 4.1
-11 0 4 2.87 0.55
-7 3 8 133.96 3.47
4 3 8 144.74 3.9
-2 5 7 50.88 1.5
7 4 4 45.05 1.33
-9 0 8 142.44 3.8
6 0 8 5.09 0.5
-6 5 5 12.79 0.54
-10 3 2 34.08 1.02
7 1 7 17.93 0.69
2 3 9 1.62 0.67
1 2 10 37.38 1.17
-10 3 1 76.84 2.05
-5 5 6 22.71 0.77
9 2 4 12.48 0.53
-7 2 9 23.7 0.82
0 5 7 42.51 1.37
-4 6 3 3.86 0.38
10 2 2 230.1 5.82
8 1 6 102.62 2.74
-5 4 8 47.58 1.37
2 4 8 3.06 0.36
-3 6 4 72.18 1.99
7 5 1 9.04 0.45
10 1 3 193.43 5.01
-9 4 2 2.03 0.89
-10 3 3 2.65 0.9
11 1 0 40.62 1.19
3 6 3 23.2 0.78
4 4 7 41.42 1.27
-9 4 1 1.52 0.69
-5 2 10 2.75 0.82
-3 5 7 1.99 0.44
-11 1 4 9.33 0.46
-9 3 6 79.55 2.19
3 5 6 40.08 1.18
-9 1 8 41 1.23
6 1 8 46.92 1.4
4 6 2 318.66 8.03
10 3 0 2.18 0.45
-9 4 3 209.96 5.3
2 6 4 110.04 2.9
-8 1 9 190.77 4.89
9 3 3 23.41 0.78
9 4 0 3.05 0.51
-7 5 4 12.73 0.54
1 5 7 4.52 0.42
5 6 0 39.74 1.21
4 2 9 13.29 0.72
-10 2 6 7.8 0.42
9 1 5 13.08 0.56
-2 1 11 90.17 2.45
-1 6 5 67.91 1.88
8 4 3 86.12 2.34
-7 4 7 14.55 0.59
-11 2 2 19.23 0.68
-2 3 10 3.25 0.37
-4 5 7 73.21 2.05
-1 1 11 6.64 0.43
0 6 5 13.58 0.55
-10 1 7 70.66 1.92
-2 4 9 4 0.41
-2 6 5 3.14 0.38
-4 6 4 81.45 2.27
-1 4 9 38.09 1.19
-7 0 10 101.22 2.9
2 2 10 11.42 0.55
-11 2 1 3.88 0.38
7 5 2 1.66 1.02
6 3 7 19.6 0.72
3 1 10 65.56 1.89
-11 2 3 7.54 0.41
-8 4 6 7.99 0.42
-3 3 10 36.51 1.12
-11 1 5 23.46 0.78
5 6 1 3.25 1.16
10 3 1 60.45 1.68
-3 4 9 186.79 4.84
9 4 1 53.13 1.53
3 3 9 12.88 0.67
-5 6 3 88.98 2.43
5 1 9 228.28 5.89
8 3 5 137.17 3.58
-4 1 11 146.34 3.77
-6 2 10 14.43 0.62
1 6 5 18.45 0.7
-6 4 8 67.57 1.87
3 4 8 152.35 4
0 4 9 193.52 5.09
-6 5 6 31.61 0.98
0 1 11 2.95 0.37
8 2 6 41.31 1.23
5 5 5 12.16 0.52
-3 6 5 6.86 0.47
4 6 3 54.32 1.55
-7 1 10 152.79 4
10 0 4 201.53 5.45
2 5 7 31.57 1.01
11 2 0 64.43 1.78
3 6 4 86.51 2.34
6 5 4 30.24 0.96
-8 5 1 3.21 0.61
-11 2 4 10.4 0.48
-4 3 10 4.11 0.4
-8 5 2 3.93 0.37
6 4 6 22.06 0.79
-7 5 5 2.93 0.78
-10 3 5 4.48 0.38
-9 2 8 7.87 0.49
6 2 8 97.14 2.66
5 3 8 36.29 1.23
-4 4 9 14.68 0.64
4 5 6 156.23 4.05
-8 2 9 16.9 0.69
-11 0 6 58.23 1.74
8 5 0 19.78 0.72
-5 5 7 50.67 1.45
5 6 2 98.62 2.68
-9 3 7 48.62 1.42
-8 5 3 18.63 0.67
5 4 7 41.93 1.32
9 2 5 198.3 5.07
-2 2 11 4.6 0.39
1 4 9 112.19 2.99
-5 1 11 5.21 0.4
-9 4 5 2.4 1.36
2 6 5 33.21 1.04
-5 6 4 70.66 1.97
1 3 10 17 0.69
-3 2 11 144.38 3.75
1 1 11 2.4 0.72
-6 6 1 27.02 0.9
-2 5 8 51.22 1.5
-1 5 8 3.29 0.5
-4 6 5 249.26 6.35
-7 3 9 41.5 1.28
-10 2 7 32.22 1.06
7 5 3 73.36 2.06
-11 1 6 5.37 0.38
4 0 10 243.39 6.55
-6 6 2 43.41 1.3
3 2 10 15.81 0.76
-10 0 8 26.58 1.02
7 0 8 22.01 1.04
-5 3 10 49.21 1.43
-3 5 8 8.73 0.51
0 5 8 7.88 0.54
-1 6 6 21.06 0.77
5 2 9 4.55 0.58
-4 2 11 120.17 3.16
-5 4 9 160.22 4.18
-9 1 9 16.58 0.68
1 7 0 87.57 2.3
-2 6 6 13.34 0.59
0 7 1 91.03 2.4
3 5 7 2.99 0.9
0 2 11 169.03 4.37
0 6 6 4.92 0.43
4 1 10 2.57 0.71
-1 7 1 7.65 0.43
-8 0 10 4.86 0.56
-8 4 7 12.58 0.55
-7 2 10 19.52 0.72
-10 1 8 23.81 0.82
4 6 4 81.67 2.22
1 7 1 9.22 0.46
4 3 9 73.98 2.17
-7 4 8 12.67 0.56
2 4 9 50.18 1.49
-3 6 6 52.43 1.52
-4 5 8 196.7 5.13
-6 5 7 121.48 3.24
-8 1 10 80.91 2.27
2 3 10 92.41 2.54
1 6 6 3.71 0.44
1 2 11 168.56 4.44
-6 3 10 4.16 0.44
-2 0 12 113.72 3.33
-3 0 12 393.7 10.12
-1 0 12 55.65 1.84
11 0 2 33.01 1.21
10 1 4 11.5 0.55
11 1 2 17.52 0.68
9 3 4 11.4 0.55
10 3 2 3.99 0.36
9 4 2 210.22 5.39
11 2 1 3.6 0.38
-11 2 5 40.5 1.18
8 4 4 4.17 0.48
8 5 1 97.14 2.6
9 0 6 456.98 11.67
-6 6 3 2.14 0.85
7 1 8 107.04 2.92
6 6 1 99.36 2.69
-10 3 6 69.96 1.91
-10 4 2 3.59 1.16
-12 1 2 24.52 0.83
5 6 3 188.21 4.86
-7 5 6 320.48 8.06
9 1 6 69.76 1.95
-11 3 2 56.42 1.62
2 7 0 56.19 1.57
-12 1 3 157.28 4.06
0 7 2 33.11 1
-2 7 1 3.82 0.36
3 6 5 5.75 0.42
-1 7 2 12.97 0.54
10 2 4 12.71 0.56
-11 3 1 1.59 0.87
-10 4 3 36.29 1.08
12 0 0 38.13 1.37
-5 6 5 6.55 0.46
-9 4 6 31.47 1.01
2 7 1 3.92 0.37
6 5 5 4.16 0.42
1 7 2 155.63 4.04
11 2 2 4.18 0.34
6 1 9 8.35 0.71
10 4 0 6.84 0.44
5 5 6 173.34 4.5
-2 7 2 7.54 0.44
11 1 3 34.19 1.12
8 3 6 35.39 1.14
-12 1 4 82.54 2.23
-11 2 6 18.63 0.67
-6 6 4 4.84 0.4
9 4 3 110.92 2.97
10 3 3 2.81 0.89
-8 5 5 18.94 0.71
6 6 2 239.66 6.13
12 1 0 4.42 0.4
-11 3 4 12.82 0.58
-11 1 7 5.25 0.38
-4 6 6 12.88 0.58
-6 4 9 39.29 1.2
7 5 4 8.05 0.46
-10 4 4 11.93 0.52
-9 3 8 56.28 1.67
6 3 8 97.5 2.73
3 7 0 2.63 1.08
-9 2 9 56.55 1.67
-1 7 3 18.55 0.67
10 1 5 36.61 1.13
-2 4 10 2.86 1.69
0 7 3 102.37 2.73
7 4 6 34.79 1.1
8 2 7 11.18 0.56
-8 3 9 2.97 0.79
2 6 6 16.83 0.69
-5 5 8 11.28 0.54
2 5 8 3.49 0.49
-1 4 10 21.53 0.81
-9 5 2 3.67 1.22
-7 6 1 11.02 0.56
4 5 7 39.97 1.21
-10 2 8 20.4 0.79
7 2 8 56.87 1.67
-3 4 10 86.4 2.4
-9 5 1 15.57 0.64
3 7 1 56.96 1.68
-2 3 11 43.3 1.34
-2 7 3 9.66 0.5
10 4 1 24.14 0.83
5 0 10 6.4 0.85
3 4 9 11.79 0.66
-3 3 11 35.14 1.14
9 2 6 14.12 0.61
8 4 5 151.31 3.99
7 6 0 2.71 1.21
-12 1 5 26.93 0.9
-2 1 12 106.54 2.91
-9 5 3 2.94 1.69
-4 0 12 411.77 10.59
-6 2 11 2.76 0.81
-10 3 7 3.36 0.63
-12 2 3 185.31 4.82
-3 1 12 13.18 0.63
11 3 1 23.76 0.82
0 4 10 43.18 1.38
-7 1 11 21.72 0.84
-8 2 10 29.55 0.98
9 5 0 19.49 0.74
-12 2 1 3.75 0.48
4 6 5 120.89 3.17
3 3 10 3.17 1.7
2 2 11 49.34 1.64
12 1 1 14.66 0.64
-1 6 7 91.78 2.59
-1 1 12 40.2 1.26
-7 6 3 10.19 0.52
-4 4 10 11.16 0.58
-2 6 7 4.04 0.49
3 1 11 38.2 1.34
5 1 10 56.37 1.71
-10 4 5 24.2 0.83
0 0 12 3.68 0.68
-6 6 5 182.55 4.7
8 5 3 44.09 1.35
-8 4 8 71.47 1.98
-7 5 7 48.96 1.47
5 3 9 3.63 0.64
-9 0 10 17.8 0.96
-4 3 11 143.59 3.74
6 2 9 13.54 0.75
-5 6 6 6.16 0.43
0 6 7 30.47 1.16
3 7 2 175.01 4.6
6 6 3 8.09 0.49
0 3 11 17.95 0.79
-4 7 1 144.67 3.82
11 2 3 11.97 0.6
11 0 4 28.29 1.37
2 7 3 20.95 0.82
-1 5 9 34.22 1.16
7 6 1 66.39 1.86
-7 3 10 80.57 2.26
4 7 0 6.75 0.5
-8 5 6 2.71 1.06
-3 6 7 5.03 0.51
-1 7 4 6.97 0.46
-12 0 6 617.87 15.51
12 2 0 2.83 0.75
-11 2 7 8.71 0.57
-5 0 12 415.47 10.64
0 7 4 5.57 0.41
-3 5 9 1.66 0.95
-4 7 2 17.95 0.71
3 6 6 29.06 1
0 1 12 142.73 3.8
-11 0 8 122.21 3.38
8 0 8 5.95 0.8
9 5 1 2.94 1.22
1 4 10 186.05 4.83
-9 1 10 3.6 0.57
10 2 5 44.89 1.41
-2 7 4 97.14 2.66
9 4 4 41.54 1.43
-7 4 9 94.03 2.56
-6 5 8 7.29 0.52
3 5 8 8.63 0.62
0 5 9 57.5 1.73
12 0 2 4.6 0.59
4 7 1 75.79 2.14
11 1 4 1.88 0.78
-7 6 4 14.46 0.66
10 3 4 182.47 4.78
1 6 7 167.62 4.43
-5 4 10 70.56 2.07
-12 1 6 154.58 4.03
1 7 4 10.46 0.58
-5 1 12 4.32 0.44
6 5 6 4.38 0.67
-5 3 11 4.18 0.42
1 0 12 227.38 6.06
-11 1 8 144.96 3.83
8 1 8 254.12 6.6
11 3 2 9.51 0.61
1 3 11 11.26 0.6
-4 5 9 21.59 1
7 5 5 3.95 1.17
-4 6 7 2.4 1.36
-4 7 3 19.68 0.8
-11 3 6 3.68 0.59
-3 2 12 3.35 0.8
12 1 2 45.94 1.5
-7 2 11 188.62 4.94
-3 7 4 75.64 2.14
7 6 2 141.87 3.79
10 0 6 113.21 3.45
12 2 1 26.37 0.92
4 4 9 26.28 1.08
5 5 7 18.52 0.85
-1 2 12 3.1 0.91
-10 4 6 3.88 0.76
3 2 11 10.63 0.72
5 2 10 3.72 0.67
1 1 12 2.85 0.45
7 1 9 4.07 0.63
4 7 2 62.28 1.85
-6 0 12 110.61 3.53
-9 3 9 30.9 1.2
-11 4 2 49.55 1.52
-4 2 12 11.76 0.6
-8 1 11 21.84 0.9
-6 6 6 37.16 1.35
2 7 4 31.17 1.14
9 5 2 4.02 0.71
5 6 5 14.98 0.77
4 3 10 18.16 0.92
2 4 10 134.58 3.69
-11 4 1 14.64 0.73
2 6 7 74.49 2.23
-11 4 3 7.27 0.52
-13 0 2 37.49 1.4
-10 3 8 8.79 0.68
7 3 8 10.54 0.66
10 1 6 3.66 1.08
5 7 0 28.48 1.06
-10 2 9 21.53 0.92
8 5 4 113.4 3.26
6 6 4 3.06 0.79
-8 6 1 17.7 0.83
4 1 11 25.88 1.07
-5 7 2 15.24 0.73
-1 7 5 8.05 0.53
0 2 12 2.86 1.3
-12 3 2 212.4 5.51
7 4 7 21.92 0.98
6 0 10 513.16 14
-6 1 12 26.74 0.99
-5 5 9 6.23 0.58
-6 4 10 17.4 0.83
4 6 6 6.7 0.56
0 7 5 175.4 4.61
-6 3 11 16.65 0.78
-12 3 3 30.21 1.06
-2 7 5 37.23 1.32
8 4 6 66.05 2.1
-4 7 4 102.98 2.92
11 2 4 90.92 2.69
-8 3 10 76.9 2.26
8 6 0 38.43 1.3
-8 5 7 13.8 0.71
-5 6 7 5.36 0.6
-12 3 1 6.11 0.47
10 4 3 9.05 0.65
11 4 0 82.1 2.39
-13 1 2 4.77 0.43
-8 6 3 2.86 1.38
2 3 11 9.87 0.75
-13 0 4 111.05 3.16
-12 2 6 3.82 0.7
5 7 1 4.51 0.71
-7 5 8 112.76 3.06
4 5 8 22.66 1.03
6 4 8 3.37 0.88
8 2 8 26.34 1.05
-10 5 2 5.96 0.51
-5 7 3 64.63 1.93
2 5 9 28.74 1.06
6 1 10 25.39 1.24
6 3 9 30.07 1.22
-2 6 8 22.94 1.01
-1 6 8 32.01 1.26
-13 1 1 48.08 1.46
-10 5 1 48.66 1.59
9 2 7 4.11 1.41
1 7 5 35.11 1.24
7 6 3 118.98 3.34
-8 4 9 135.35 3.7
-12 3 4 53.74 1.72
12 2 2 13.51 0.73
4 7 3 3.25 1.62
-10 0 10 122.81 3.72
13 0 0 29.26 1.27
2 1 12 36.87 1.35
-10 5 3 4.66 1.74
3 7 4 3.67 0.93
-13 1 4 116.55 3.11
12 3 0 323.17 8.2
-11 3 7 54.63 1.77
9 4 5 16.85 0.86
-2 4 11 18.4 0.9
-9 5 6 232.11 6.03
-3 6 8 60.03 1.91
0 6 8 94.67 2.74
1 2 12 31.37 1.18
7 2 9 4.57 0.64
-3 4 11 13.23 0.79
10 5 0 28.29 1.15
10 3 5 90.46 2.68
3 6 7 17.65 0.83
-1 4 11 24.97 1.02
-8 6 4 146.19 3.99
11 1 5 27.41 1.16
-8 2 11 31.78 1.15
-10 4 7 13.8 0.8
9 5 3 13.29 0.81
11 4 1 4.94 0.87
5 7 2 20.13 0.89
13 1 0 29.78 1.08
3 4 10 15.83 0.81
10 2 6 35.28 1.39
4 2 11 84.57 2.7
-6 5 9 7.03 0.6
-10 5 4 11.97 0.69
-11 1 9 3.32 1.39
2 7 5 99.18 2.75
-5 7 4 73.62 2.27
5 4 9 109.16 3.13
-7 6 6 18.32 0.92
-6 7 1 11.46 0.67
-6 2 12 93.97 2.62
-12 3 5 21.45 0.94
-2 5 10 20.13 1
-4 7 5 139 3.89
7 5 6 36.14 1.44
-4 6 8 23.55 1.08
1 6 8 8.35 0.73
-13 1 5 38.32 1.26
0 4 11 32.9 1.31
-3 3 12 41.93 1.44
-6 6 7 14.64 0.85
-7 3 11 27.44 1.16
-1 5 10 51.83 1.77
-7 4 10 4.23 0.84
-6 7 2 11.14 0.66
6 7 0 47.54 1.61
-13 2 2 122.94 3.33
-3 5 10 2.94 1.62
12 3 1 5.1 0.64
-13 2 3 20.81 0.88
3 3 11 4.78 0.59
5 3 10 17.47 0.9
3 0 12 43.1 1.89
6 6 5 31.51 1.38
-1 7 6 12.26 0.82
-12 2 7 8.26 0.71
3 5 9 56.37 1.85
-12 0 8 97.2 3.08
9 0 8 48 1.87
8 6 2 31 1.2
6 2 10 4.34 0.94
8 5 5 43.93 1.55
5 6 6 11.91 0.79
-13 2 1 303.91 7.74
-2 7 6 150.28 4.19
-2 1 13 65.37 2.04
0 7 6 187.12 5.33
0 5 10 52.35 1.87
5 1 11 79.6 2.68
10 4 4 13.36 0.81
-6 7 3 3.58 0.85
2 2 12 19.89 1.12
4 7 4 62.76 1.95
-13 2 4 77.53 2.22
6 7 1 10.77 0.77
-13 0 6 36.91 1.6
-4 5 10 3.25 1.78
12 2 3 101.71 3.03
-5 4 11 4.84 0.71
7 6 4 56.06 1.93
-10 5 5 5.6 0.54
-1 1 13 4.6 0.53
11 4 2 22.01 0.99
-8 5 8 57.41 1.86
5 5 8 19.97 0.97
5 7 3 2.71 1.45
-12 1 8 18.16 0.92
12 0 4 73.1 2.82
-9 3 10 68.01 2.18
-4 1 13 20.08 0.91
1 4 11 150.95 4.13
-3 7 6 4.05 1.17
11 2 5 13.69 0.93
-11 4 6 13.03 0.8
3 7 5 68.66 2.09
11 3 4 18.24 0.92
-5 6 8 12.26 0.86
2 6 8 65.51 2.14
8 1 9 8.95 0.75
-10 2 10 3.48 0.86
13 2 0 169.65 4.53
-9 6 2 4.69 0.87
-12 3 6 48.16 1.75
-13 1 6 6.08 0.56
-5 7 5 6.8 0.69
-5 3 12 8.71 0.71
10 1 7 26.86 1.12
-11 2 9 3.48 1.3
8 3 8 22.49 1.19
7 0 10 5.82 0.97
12 1 4 4.53 0.74
1 5 10 221.89 6.17
-7 2 12 4.02 0.75
-9 4 9 182.95 4.87
1 8 0 8.24 0.64
0 8 1 26.09 1.04
9 3 7 10.85 0.91
9 5 4 156.08 4.35
-9 6 3 20.21 0.92
10 5 2 23.12 1.15
-13 2 5 19.31 0.9
4 4 10 60.45 2.05
-6 7 4 3.78 0.86
12 3 2 211.96 5.59
-1 8 1 50.71 1.75
9 6 0 5.14 0.72
13 0 2 66.78 2.7
-5 1 13 11.52 0.81
-10 4 8 11.79 0.74
7 4 8 20.27 1.08
-5 5 10 92.29 2.88
6 7 2 44.65 1.72
-9 2 11 26.43 1.14
-4 7 6 43.14 1.54
11 0 6 7 1.35
7 3 9 8.09 0.82
8 6 3 25.66 1.37
-12 4 2 15.1 0.82
-7 6 7 29.19 1.43
9 4 6 34.08 1.37
2 8 0 15.08 0.82
-8 3 11 5.63 0.68
-6 4 11 4.87 0.93
-2 6 9 38.32 1.56
-12 4 3 97.79 2.79
0 8 2 9.72 0.69
2 7 6 70.41 2.11
-8 4 10 3.32 1.86
5 2 11 58.05 2.15
-1 6 9 10.65 0.88
13 1 2 143.74 4.1
-12 4 1 49.84 1.78
-7 7 1 2.86 1.69
-11 0 10 11.12 1.22
-8 6 6 120.63 3.62
10 3 6 21.45 1.11
2 4 11 4.71 1.12
-9 6 4 16.97 0.87
-10 5 6 20.19 1.02
-7 7 2 8.95 0.74
4 3 11 37.05 1.46
3 2 12 75.06 2.5
1 8 2 72.18 2.19
4 0 12 27.19 1.78
9 6 1 25.88 1.16
-12 2 8 49.46 1.77
-4 2 13 19.92 0.94
7 7 0 3.1 1.69
-6 3 12 5.04 0.78
-11 5 2 67.37 2.12
-2 8 2 3.44 1.18
-6 6 8 158.18 4.38
3 6 8 42.51 1.6
0 6 9 165.61 4.86
5 7 4 27.69 1.23
11 4 3 4.75 0.76
-12 4 4 20.65 1.01
8 2 9 55.43 2.55
1 1 13 46.92 1.6
2 5 10 51.44 1.85
-11 5 1 8.91 0.79
4 7 5 92.81 2.72
-11 5 3 70.81 2.22
-1 7 7 70.36 2.47
12 4 0 98.76 3.04
-13 2 6 126.83 3.58
-7 7 3 4.11 1.23
-6 1 13 14.8 1.11
-13 3 3 13.14 0.85
-11 4 7 6.64 0.66
-2 7 7 14.96 1.14
10 2 7 8.28 1.09
-14 0 2 3.64 0.96
-6 7 5 9.64 0.82
4 1 12 4.11 0.77
-3 8 1 86.96 2.63
-12 3 7 28.93 1.36
3 8 0 6.67 0.62
7 5 7 3.87 2.12
-10 1 11 22.8 1.26
6 3 10 52.74 1.96
-4 6 9 19.89 1.26
-1 8 3 57.05 1.99
7 6 5 4.7 1.08
10 4 5 35.93 1.37
-13 3 1 18.29 0.98
-6 5 10 2.83 0.91
0 8 3 38.13 1.41
-5 7 6 5.95 0.72
0 7 7 3.25 0.99
2 8 2 4.79 0.63
8 5 6 151.17 4.35
0 2 13 24.94 1.41
7 7 1 97.14 2.9
2 3 12 24.26 1.21
11 5 0 44.33 1.72
-5 2 13 12.31 0.78
-3 7 7 28.13 1.34
-13 3 4 174.13 4.75
-14 0 4 4.83 1.21
-3 8 2 56.96 1.9
5 6 7 6.87 0.79
-11 5 4 17.98 0.92
6 1 11 21.42 1.44
-2 8 3 32.87 1.41
-12 1 9 231.28 6.48
-8 2 12 80.57 2.75
12 3 3 31.37 1.28
-14 1 2 74.7 2.23
-9 6 5 60.03 2.23
-14 1 3 62.05 1.94
3 7 6 7.83 0.67
-9 5 8 41.19 1.73
1 8 3 82.65 2.51
6 5 8 124.28 3.75
7 2 10 22.89 1.58
-12 4 5 171.14 4.71
-2 4 12 4.02 1.3
11 3 5 4.21 0.95
-9 0 12 22.86 1.26
9 6 2 12.88 0.9
-8 5 9 68.56 2.29
-7 4 11 152.2 4.44
-7 7 4 41.73 1.71
13 2 2 81.83 2.82
-10 3 10 32.97 1.38
1 7 7 19.6 1.25
-14 1 1 5.51 0.87
-14 1 4 139 3.82
12 4 1 137.03 4
8 6 4 5.06 0.77
-1 4 12 8.68 0.87
9 5 5 49.63 1.86
-2 5 11 7.78 0.85
11 2 6 39.21 1.8
3 4 11 49.89 2.03
5 4 10 66.93 2.21
-11 3 9 4.49 2.05
12 1 5 4.53 1.49
14 0 0 82.86 3.06
13 1 3 34.61 1.91
-3 5 11 15.74 1.07
-7 3 12 104.69 3.32
-5 6 9 17.22 1.22
-3 8 3 20.95 1.15
-1 5 11 6.17 0.97
2 1 13 10.75 0.89
-4 4 12 10.75 0.96
-9 1 12 16.68 1.1
-10 5 7 61.01 2.06
3 8 2 23.49 1.08
-4 8 1 66.98 2.16
2 8 3 27.59 1.13
1 2 13 3.48 1.01
-8 6 7 17.8 1.11
4 8 0 36 1.48
3 5 10 45.01 1.73
-11 2 10 31.78 1.52
-7 1 13 13.45 1.06
-1 8 4 207.1 5.61
-10 4 9 17.8 0.96
-6 2 13 8.73 0.98
4 6 8 32.15 1.39
-13 0 8 194.6 5.69
-9 3 11 13.1 1.04
10 0 8 4.11 1.96
0 8 4 69.26 2.3
-13 2 7 102.68 3.28
0 4 12 39.66 1.7
4 2 12 36.32 1.59
-10 6 2 23.12 1.1
-10 2 11 3.83 1.2
14 1 0 15.1 1.33
5 5 9 8.93 0.95
2 6 9 16.51 1.1
-9 4 10 10.04 0.99
-4 5 11 67.42 2.36
-14 1 5 4.55 0.79
-2 8 4 22.97 1.38
-10 6 1 4.84 0.66
-6 7 6 13.56 1.13
0 5 11 51.27 2.23
5 7 5 26.65 1.36
-3 3 13 105.49 3.08
4 8 1 32.97 1.38
11 4 4 3.59 1.4
5 3 11 43.3 1.86
-7 5 10 205.64 5.85
2 7 7 3.47 1.13
-10 6 3 34.82 1.38
9 1 9 48.5 2.42
13 3 1 3.38 1.01
8 0 10 90.4 3.31
1 8 4 109.41 3.2
6 7 4 353.33 9.36
5 0 12 285.27 9.42
-8 7 1 152.2 4.22
6 2 11 26.65 1.67
-13 1 8 109.98 3.52
10 1 8 90.92 3.32
-8 7 2 17.75 1.06
-9 6 6 3.01 1.53
-12 2 9 91.55 3.1
-5 4 12 5.3 0.82
-14 2 2 5.1 0.75
-14 2 3 32.25 1.33
-7 7 5 12.58 1.09
3 3 12 11.89 0.95
-1 3 13 11.32 0.97
-12 3 8 5.48 0.83
9 3 8 163.61 4.91
-4 3 13 4.69 0.78
-3 0 14 8.26 1.07
10 6 0 12.48 1
4 7 6 4.66 2.3
9 4 7 166.07 4.79
-2 0 14 44.13 2.03
-4 8 3 11.76 0.91
12 4 2 43.57 1.78
9 6 3 12.01 1.02
8 3 9 10.07 0.93
-3 8 4 8 1
8 7 0 54.14 1.9
-5 7 7 147.43 4.15
10 5 4 15.76 1.07
-14 0 6 153.69 4.69
3 8 3 5.72 0.72
8 1 10 12.05 1.37
-8 7 3 96.79 3.19
-14 2 4 6.35 0.91
-13 3 6 59.71 2.27
-4 0 14 95.84 3.58
5 1 12 52.61 2.31
-6 6 9 12.14 1.05
10 3 7 17.67 1.34
-5 5 11 4.06 0.93
-10 6 4 56.06 1.98
7 4 9 32.9 1.51
-1 0 14 160.45 5.09
4 8 2 4.43 0.9
12 2 5 18.24 1.41
12 3 4 53.13 2.14
13 2 3 3.1 1.78
-3 1 14 49.38 1.77
1 5 11 9.42 1.05
-1 7 8 190.85 5.55
-2 6 10 83.14 2.84
-2 1 14 34.68 1.59
2 2 13 3.48 1.86
7 6 6 245.58 6.96
-8 4 11 5.57 0.71
-9 2 12 12.14 1.19
14 1 1 28.42 1.76
7 7 3 12.48 1.02
2 8 4 45.82 1.67
0 3 13 4.66 1.45
-11 5 6 22.43 1.19
-5 8 1 13.16 1
-12 0 10 78.32 3.66
13 0 4 19.1 1.52
-1 6 10 45.7 2.15
-14 1 6 43.38 1.66
6 6 7 28.07 1.49
-5 3 13 25.91 1.37
-7 2 13 4.32 1.18
-3 6 10 14.03 1.03
10 4 6 26.99 1.37
3 1 13 8.7 1.08
-4 1 14 191.43 5.4
4 4 11 15.83 1.19
-8 3 12 14.27 1.25
10 6 1 9.51 0.89
-3 7 8 27.37 1.66
0 7 8 8.31 1
-1 8 5 19.84 1.1
7 3 10 8.29 0.88
-1 1 14 3.72 2.11
-11 1 11 64.05 2.4
3 6 9 5.22 1.01
-5 0 14 10.71 1.51
14 2 0 3.72 1.96
8 6 5 5.32 0.93
-6 4 12 118.4 3.59
-9 5 9 10.87 0.97
-14 2 5 12.2 1.07
3 7 7 48.62 1.72
-8 7 4 49.67 1.99
0 8 5 12.62 1
-2 8 5 17.12 1.29
4 5 10 12.52 0.93
-10 0 12 17.12 1.91
-12 1 10 74.18 2.64
0 6 10 70.86 2.83
13 1 4 8.75 1.19
13 3 2 103.96 3.36
-13 4 2 129.69 3.83
-10 5 8 8.17 0.82
7 5 8 25.33 1.42
9 2 9 11.5 1.4
5 8 1 31.95 1.49
-13 4 3 78.59 2.61
12 0 6 25.06 2.22
-4 6 10 4.53 0.92
-13 2 8 4.77 1.24
10 2 8 27.59 1.95
11 3 6 15.31 1.29
-10 6 5 6.47 0.92
-12 4 7 4.7 0.9
-8 6 8 237.53 6.66
5 6 8 39.66 1.89
-12 5 2 58.64 2.16
-5 8 3 15.76 1.26
-5 1 14 20.35 1.25
6 4 10 19.44 1.22
-7 7 6 41.34 1.85
-13 4 1 52.87 1.92
1 8 5 9.25 0.88
14 0 2 54.94 3.07
1 7 8 68.41 2.58
-12 5 3 18.19 1.1
-10 1 12 23.46 1.34
-3 8 5 24.37 1.42
-8 5 10 9.13 0.91
1 3 13 7.21 0.98
4 8 3 4.26 1.31
0 1 14 70.11 2.66
-9 6 7 22.49 1.42
2 4 12 48 2.2
3 8 4 4.38 1.31
8 2 10 43.69 2.42
2 5 11 18.32 1.21
-13 4 4 9.87 0.83
-6 3 13 4.24 1.14
5 2 12 7.99 1.14
12 1 6 105.37 3.76
12 4 3 64.79 2.27
-13 3 7 95.26 3.16
6 7 5 97.79 3.09
4 3 12 27.12 1.62
1 6 10 50.67 2.48
-3 2 14 29.78 1.41
6 5 9 5.21 1.44
-2 2 14 67.08 2.36
-7 6 9 41.69 1.82
14 1 2 40.81 2.15
14 2 1 12.1 1.23
10 6 2 32.73 1.58
11 5 3 69.31 2.5
-12 5 4 166.38 4.64
-13 1 9 30.4 1.59
5 8 2 29.78 1.47
-14 1 7 4.92 0.97
13 4 0 45.21 1.73
-8 7 5 76.74 2.68
-5 6 10 37.83 1.92
12 5 0 12.29 1.01
3 2 13 3.87 2.12
1 0 14 158.56 5.44
-4 2 14 68.26 2.63
6 3 11 68.56 2.43
-11 5 7 7.45 0.85
-12 3 9 4.57 2.38
-14 3 2 12.92 0.97
7 7 4 45.41 1.98
-14 3 3 7.08 0.8
-11 4 9 18.05 1.22
-1 2 14 20.76 1.31
-5 8 4 5.3 0.98
-11 2 11 41.27 1.85
-6 1 14 36.58 1.81
-6 8 1 67.13 2.41
-7 4 12 56.87 2.13
10 5 5 15.26 1.15
-8 2 13 81.5 2.98
6 0 12 7.34 1.85
-13 4 5 56.33 2.03
-12 2 10 126.36 4.11
-5 7 8 33.94 1.5
2 7 8 17.85 1.19
13 2 4 127.04 4.26
-6 8 2 48.12 2.12
-9 7 2 8.31 0.95
-9 7 1 5.29 2.07
-14 3 4 111.05 3.67
4 6 9 20.03 1.24
1 1 14 5.66 1.24
-9 4 11 47 2.02
7 2 11 8.26 1.33
-15 0 2 204.52 6.86
4 1 13 23.38 1.62
-1 8 6 9.75 1.12
12 3 5 6.01 1.09
13 3 3 17.57 1.26
-11 6 2 5.09 1.06
-2 8 6 32.32 1.74
-2 5 12 15.81 1.31
-9 7 3 31.2 1.61
-9 3 12 75.85 2.87
-2 4 13 43.81 2.03
0 8 6 125.15 4.03
-3 4 13 40.42 1.91
-10 2 12 3.79 2.19
-7 5 11 16.34 1.21
-9 1 13 4.7 1.12
-11 6 1 18.78 1.17
-11 6 3 14.39 1
-7 3 13 8.63 1.04
4 8 4 20.48 1.3
13 4 1 26.74 1.37
12 5 1 10.48 0.95
6 8 1 69.41 2.45
-1 5 12 14.23 1.43
-15 1 3 83.47 3.12
12 2 6 9.66 1.36
-7 0 14 6.26 2.33
3 5 11 4.42 1.89
5 5 10 10.65 1.12
3 4 12 13.58 1.28
9 0 10 66.15 4.05
-1 4 13 6.91 1.1
5 8 3 28.84 1.48
-12 4 8 4.36 1.13
-7 7 7 6.49 1.18
14 3 0 174.06 5.15
-4 4 13 6.92 0.92
-3 8 6 49.55 2.07
-6 6 10 56.55 2.17
-14 3 5 19.92 1.42
-4 5 12 54.41 2.3
14 2 2 23.32 1.62
11 0 8 53.26 3.28
8 6 6 4.86 1.45
3 8 5 26.96 1.5
8 4 9 55.03 2.14
-1 7 9 4.9 1.39
-13 2 9 13.08 1.3
1 8 6 9.62 1.01
10 6 3 5.63 0.93
10 1 9 27.05 1.93
13 1 5 125.35 4.3
11 6 0 12.56 1.02
-8 7 6 38.91 1.8
9 3 9 6.63 1.24
-10 5 9 4.98 2.06
-9 7 4 37.45 1.8
-13 4 6 148.01 4.67
-5 8 5 6.04 0.87
-11 6 4 11.62 0.94
-13 3 8 46.31 2.2
10 3 8 17.1 1.46
10 4 7 40.84 1.8
9 1 10 5.72 1.48
0 5 12 344.92 9.92
6 6 8 34.64 1.84
9 7 1 4.02 1.28
12 4 4 7.5 1.07
-6 2 14 5.06 1.08
-9 5 10 54.32 2.08
-11 0 12 60.82 3.32
-14 1 8 32.9 1.86
15 0 0 199.49 6.95
-8 6 9 18.14 1.46
0 4 13 6.4 1.24
-5 4 13 6.25 0.99
8 3 10 24.23 1.71
2 1 14 48.25 2.29
6 8 2 5.92 1.11
-12 5 6 27.19 1.35
-12 1 11 88.81 3.28
1 2 14 11.87 1.67
5 3 12 24.97 1.44
-15 1 5 25.6 1.67
9 6 5 4.57 1.58
-2 6 11 5.09 1.04
-4 8 6 44.65 2.04
-8 4 12 106.79 3.6
-13 0 10 43.34 2.84
-11 5 8 7.97 1.29
8 5 8 203.83 5.83
7 4 10 56.24 2.16
-3 3 14 6.69 0.98
-4 7 9 34.79 1.95
11 3 7 14.52 1.42
9 5 7 14.75 1.15
-1 6 11 17.9 1.45
-11 1 12 34.61 1.94
14 3 1 26.74 1.55
-10 6 7 6.26 2.18
2 8 6 11.36 1.05
12 5 2 7.45 0.85
11 6 1 38.91 1.68
-9 2 13 5.5 1.03
13 4 2 39.06 1.69
-7 8 1 7.55 0.87
-11 6 5 44.61 1.84
5 7 7 14.36 1.16
-7 8 2 154.43 4.85
1 7 9 3.75 1.49
11 4 6 51.65 2.33
-13 1 10 6.1 1.1
1 5 12 29.06 2.04
7 5 9 30.07 1.58
-1 3 14 3.95 2.04
-4 6 11 4.11 1.45
7 8 0 15.86 1.15
1 9 0 33.11 1.69
0 9 1 5.51 1.1
12 1 7 17.02 1.68
-8 5 11 29.81 1.61
-8 0 14 8.24 1.57
5 8 4 6.08 0.96
9 7 2 7.02 1.26
-12 3 10 5.33 1.57
-1 9 1 144.38 4.69
1 4 13 113.66 4.67
-7 6 10 4.26 2.12
-11 4 10 34.96 1.88
10 5 6 5.73 1.71
-1 8 7 20.3 1.43
1 9 1 89.21 3.06
8 7 4 164.15 5.3
-7 8 3 45.74 2.03
4 5 11 15.88 1.43
5 1 13 13.12 1.89
-2 8 7 28.13 1.85
7 3 11 6.94 1.15
-7 2 14 14.8 1.29
-13 4 7 55.7 2.37
9 2 10 3.17 1.85
-6 8 5 13.08 1.19
-5 3 14 49.51 2.2
-10 4 11 5.98 1.03
-5 7 9 6.26 1.04
-5 8 6 5.19 1.01
2 9 0 14.03 1.15
-14 2 8 23.46 1.63
6 8 3 3.95 2.27
0 9 2 25.18 1.42
-2 9 1 4.87 1.43
-10 3 12 4.02 2.28
7 0 12 36.14 3.21
-1 9 2 78.32 2.71
-8 7 7 18.4 1.31
7 8 1 9.77 0.99
-10 1 13 5.36 1.06
10 6 4 4.95 1.39
0 3 14 36.69 3.05
-3 1 15 88.08 3.15
2 2 14 4.06 1.34
-3 8 7 34.01 1.85
-12 2 11 11.52 1.34
-7 7 8 9.94 1.06
4 7 8 6.31 1.22
-2 1 15 15.29 1.27
-5 6 11 4.94 1.13
2 9 1 14.25 1.16
1 9 2 5.17 1.12
-12 5 7 17.17 1.29
-10 7 2 29.1 1.62
2 7 9 25.45 1.57
6 5 10 3.87 1.56
-4 1 15 25 1.53
1 6 11 4.42 2.21
-2 9 2 62.33 2.37
-11 2 12 11.46 1.3
-11 6 6 111.49 3.74
7 1 12 75.33 3.96
-7 8 4 17.32 1.3
1 8 7 20.92 1.34
2 5 12 176.36 5.5
-10 7 3 18.11 1.35
8 2 11 89.04 3.68
-9 7 6 24.85 1.47
-14 1 9 35.82 2.05
-13 2 10 4.66 1.54
-3 9 1 5.03 1.56
-6 3 14 23.03 1.73
-9 6 9 5.56 1.09
-4 8 7 13.51 1.3
0 9 3 21.5 1.31
-9 4 12 42.9 2.04
-5 1 15 43.53 2.06
-10 5 10 4.7 1.4
-7 4 13 10.42 1.32
7 6 8 7.92 1.2
-3 9 2 49.8 2.03
1 3 14 105.99 4.76
3 9 1 3.95 2.27
-2 9 3 5.26 1.46
-6 7 9 9.75 1.12
4 3 13 4.38 1.65
-11 5 9 4.26 1.45
1 9 3 11.85 1.09
-7 5 12 22.06 1.55
-2 7 10 40.04 2.16
6 3 12 6.59 1.12
-8 2 14 33.84 1.88
-6 6 11 13.36 1.47
-6 8 6 49.13 2.14
-9 0 14 24.97 2.25
-8 6 10 5.35 1.54
-1 7 10 7.9 1.18
-12 0 12 122.81 5.12
-2 2 15 22.23 1.53
3 7 9 5.56 1.15
3 2 14 51.14 3
-2 5 13 8.45 1.22
0 7 10 7.87 1.16
5 5 11 13.25 1.24
-12 1 12 14.52 1.44
-1 2 15 5.73 1.75
-7 3 14 233.85 6.7
3 5 12 10.04 1.73
-4 5 13 6.8 1.16
4 1 14 34.47 2.64
2 3 14 5.13 2.46
3 4 13 7.44 1.26
1 1 15 17.77 1.92
-1 4 14 49.38 2.57
-8 4 13 8.21 1.12
-2 6 12 4.49 1.97
0 2 15 14.21 2.24
-5 5 13 5.44 2.31
-7 1 15 21.78 1.57
-5 4 14 4.67 1.25
0 4 14 3.79 2.19
15 1 0 57.32 2.54
-15 2 2 28.77 1.77
-15 2 4 15.78 1.26
13 3 4 11.32 1.17
13 2 5 78.75 3.25
-15 2 1 26.77 1.8
-15 1 6 4.69 0.99
14 2 3 12.65 1.37
14 0 4 233.57 7.98
-13 5 2 86.96 2.8
15 1 1 26.62 1.83
-13 5 3 6.77 0.84
-15 2 5 16.31 1.5
-14 4 2 92.99 2.89
-14 4 3 18.11 1.12
-13 5 1 9.98 0.97
-10 7 1 38.13 1.82
14 3 2 103.84 3.48
13 0 6 58.23 3.43
-14 4 1 4.15 1.42
-13 5 4 29 1.49
-14 4 4 5.82 0.97
12 5 3 26.34 1.48
12 4 5 50.58 2.3
13 4 3 74.7 2.85
10 7 0 4.7 1.5
12 2 7 6.52 1.56
11 5 5 20 1.34
8 6 7 4.9 1.47
13 1 6 79.07 3.15
9 7 3 44.29 2.16
7 8 2 107.54 3.42
13 5 0 211 6.1
-15 1 7 12.67 1.39
-15 2 6 264.55 7.61
-12 6 2 46.96 1.93
14 4 0 7.35 0.85
9 6 6 142.23 4.36
7 7 6 37.45 2.02
-12 6 3 31.2 1.54
6 7 7 27.28 1.57
9 4 9 4.26 1.34
15 2 1 5.82 1.07
-15 3 3 20.76 1.45
15 1 2 42.75 2.28
10 4 8 6.02 1.1
-8 8 2 33.73 1.95
-15 3 2 21 1.21
10 7 1 7.78 0.94
-7 8 5 19.23 1.39
8 7 5 9.46 1.18
-3 9 3 21.31 1.33
-4 9 1 6.04 1.12
-12 6 4 46.84 1.93
-15 3 4 20.76 1.39
7 2 12 14.23 1.61
8 8 0 13.56 1.06
-5 8 7 5.95 1.35
14 2 4 10.56 1.31
10 3 9 5.35 1.23
13 3 5 6.95 1.12
8 4 10 56.15 2.2
-1 9 4 94.67 3.33
-15 3 1 5.66 1.13
-11 6 7 8.38 1.02
-4 9 2 11.97 1.12
-10 7 5 4.46 1.51
9 3 10 45.5 2.31
14 3 3 17.2 1.34
-8 7 8 5.58 1.15
-12 5 8 244.73 7.04
9 5 8 28.32 1.56
-13 1 11 34.22 2.07
11 1 9 11.97 1.49
10 6 5 15.34 1.2
-2 8 8 33.04 2.03
-1 8 8 62.09 2.74
11 4 7 7.67 1.26
-2 9 4 16.14 1.21
-14 3 8 133.89 4.44
11 3 8 30.74 1.93
14 4 1 17.45 1.3
7 8 3 4.66 2.53
4 9 1 27.41 1.51
13 2 6 32.05 2.04
6 1 13 63.81 3.69
-14 4 6 4.86 1.6
-15 0 8 8.29 1.83
12 0 8 55.03 4.05
-9 7 7 8.47 1.1
-16 0 2 122.68 5.05
-12 3 11 35.57 1.97
-13 5 6 78.54 2.87
-16 0 4 29.26 2.43
10 5 7 8.82 1.02
8 8 1 17.47 1.2
-3 8 8 12.56 1.45
0 8 8 10.91 1.35
-11 4 11 8.07 1.19
9 1 11 20.13 1.91
12 5 4 13.8 1.18
-14 0 10 9.46 1.83
-12 6 5 41.5 1.82
-11 1 13 9.98 1.27
3 8 7 17.6 1.46
-8 8 4 13.47 1.34
-11 3 12 77.11 3
9 7 4 4.9 1.67
-7 7 9 19.95 1.39
-4 9 3 12.37 1.12
-16 1 3 18.55 1.55
15 3 0 25.73 1.52
-12 4 10 58.32 2.52
-7 6 11 8.24 1.21
-3 9 4 30.01 1.58
13 4 4 45.41 2.18
-5 7 10 47.25 2.35
12 6 1 6.56 1.09
-1 6 12 32.9 2.1
15 2 2 5.86 1.57
-16 1 4 59.61 2.64
-8 5 12 98.76 3.58
3 6 11 6.22 1.17
-13 3 10 33.91 1.96
-14 1 10 21.34 1.66
12 3 7 4.95 1.64
-4 6 12 57.09 2.49
-4 8 8 116.04 3.94
1 8 8 24.94 1.44
-5 9 1 20.57 1.33
-10 4 12 5.06 2.62
-6 8 7 11.38 1.17
13 5 2 29.1 1.59
-16 1 1 19.73 1.65
15 1 3 35.5 2.14
-10 6 9 48.92 2.18
-10 7 6 65.37 2.72
-12 2 12 103.9 3.85
12 4 6 37.34 2.02
5 3 13 17.25 1.5
-5 9 2 5.11 1.42
-1 9 5 8.4 1.04
6 8 5 8.52 1.05
10 2 10 21 1.87
8 8 2 94.56 3.68
-16 1 5 19.25 1.61
-9 6 10 7.26 1.23
11 2 9 5.72 1.31
-11 7 2 25 1.56
5 8 6 101.1 3.32
16 0 0 17.6 2.21
-8 3 14 50.88 2.44
14 4 2 56.46 2.34
-10 0 14 4.74 2.54
11 6 4 38.35 1.78
1 5 13 6.77 1.37
-10 3 13 5.69 1.17
-13 4 9 108.78 3.88
2 7 10 5.79 1.26
4 2 14 16.65 1.91
-3 3 15 3.64 2.03
-12 6 6 80.25 3.01
5 9 1 17.72 1.29
-6 5 13 22.6 1.6
-5 6 12 54.27 2.7
7 8 4 19.15 1.5
-13 5 7 6.56 1.44
8 6 8 9.29 1.17
13 1 7 22.97 1.93
9 2 11 20.4 1.87
7 7 7 16.61 1.44
-5 9 3 31 1.6
-16 0 6 49.59 3.21
-6 4 14 12.31 1.39
-6 7 10 62.28 2.56
9 6 7 47.83 2.24
3 3 14 66.93 3.53
16 1 0 52.22 2.56
-16 2 3 50.45 2.43
-10 1 14 12.82 1.37
12 6 2 73.93 2.68
7 3 12 57.46 2.82
-3 9 5 27.63 1.51
-5 8 8 5.53 1.3
2 8 8 5.35 1.41
4 9 3 6.46 1.65
-15 2 8 12.37 1.39
12 2 8 24.82 2
-9 8 2 28.52 1.83
11 7 0 9.07 0.98
4 8 7 5.09 1.23
3 9 4 9.2 1.06
5 0 14 16.95 2.42
-9 8 1 41.93 2.14
1 4 14 82.97 4.04
14 2 5 4.86 1.8
-11 7 4 27.72 1.64
6 5 11 18.47 1.29
-16 2 4 30.77 1.73
-7 2 15 10.65 1.16
-14 3 9 5.98 1.76
-12 5 9 28.36 1.69
-14 5 2 5.25 1.13
4 4 13 8.31 1.21
1 6 12 14.36 1.57
-9 7 8 67.08 2.7
6 7 8 4.26 2.28
-16 1 6 37.49 2.2
-14 2 10 82.26 3.27
6 4 12 10.36 1.1
-9 8 3 40.81 2.15
-8 6 11 48.92 2.31
-8 7 9 11.14 1.24
13 3 6 51.83 2.46
9 8 0 76.32 2.83
5 9 2 5.86 1.1
-16 2 1 5.93 2.81
5 1 14 5.82 1.9
10 6 6 7.39 0.98
-14 5 4 168.79 5.14
-2 7 11 19.57 1.62
-15 4 2 42.32 1.83
-15 1 9 25.15 1.84
-3 0 16 52.87 2.92
2 9 5 6.7 1.29
-13 0 12 154.13 5.96
-5 9 4 47.13 2.22
12 5 5 8.35 1.3
-7 8 7 14.18 1.29
13 5 3 58.37 2.29
-3 7 11 8.52 1.26
-6 9 1 9.05 1.03
-6 6 12 42.75 2.35
-1 7 11 30.97 1.94
2 5 13 22.06 1.75
-4 9 5 5.57 1.69
-4 0 16 9.79 2.03
-2 0 16 25.54 2.21
-9 5 12 45.86 2.23
8 2 12 20.13 1.78
-10 7 7 12.1 1.27
11 7 1 26.55 1.55
0 3 15 24.4 2.73
-1 8 9 21.5 1.72
-6 9 2 10.71 1.08
10 4 9 12.69 1.45
13 4 5 18.73 1.48
6 9 0 57.64 2.28
-13 6 2 81.67 2.82
-8 8 6 7.8 1.11
-7 5 13 6.53 1.61
-9 8 4 61.76 2.69
-15 4 1 6.35 0.97
14 0 6 11.04 1.99
-13 6 3 46.72 2.05
16 1 1 19.92 1.69
15 3 2 6.86 1.15
-1 9 6 41.73 1.98
-12 6 7 7.95 2.78
-13 1 12 35.75 2.12
13 2 7 6.99 1.7
9 8 1 6.28 1.34
14 4 3 28.58 1.73
14 5 0 4.31 1.71
5 7 9 8.7 1.26
6 6 10 38.58 2.05
-4 7 11 18.03 1.55
-13 6 1 47.13 2.02
-2 9 6 25 1.71
-14 5 5 14.94 1.41
-2 1 16 15.95 1.51
-6 8 8 32.05 1.87
3 8 8 8.43 1.2
15 1 4 35.78 2.23
0 8 9 4.57 2.38
-10 2 14 20.4 1.68
-14 4 8 13.62 1.37
11 4 8 17.35 1.6
-5 0 16 17.37 1.9
0 7 11 7.8 1.37
0 9 6 68.51 2.63
-9 3 14 20.89 1.62
-7 7 10 43.22 2.17
-6 9 3 10.09 1.07
3 1 15 15.48 2.03
2 6 12 14.27 1.56
9 5 9 8.17 1.13
-13 6 4 5.5 1.58
-12 4 11 14.64 1.45
6 9 1 10.06 1.07
14 1 6 28.97 2.16
11 0 10 5.21 2.78
-15 4 5 34.79 1.98
-13 5 8 18.63 1.45
10 5 8 72.85 2.92
-16 1 7 21.03 1.76
6 8 6 9.68 1.1
12 6 3 47.09 2.06
10 3 10 8.17 1.39
5 9 3 34.96 1.74
-13 3 11 5.23 1.21
-16 2 6 7.31 3.33
-3 9 6 15.26 1.59
-4 8 9 43.65 2.14
7 8 5 18.97 1.36
-1 1 16 6.1 2.66
3 9 5 7.19 1.29
-10 6 10 89.43 3.4
1 9 6 50.27 2.17
13 6 0 6.63 1.51
4 3 14 28.68 2.38
8 4 11 54.1 2.65
5 2 14 67.86 3.76
8 5 10 36.61 1.82
5 8 7 18.78 1.38
11 1 10 5.21 2.03
5 5 12 6.5 1.19
1 3 15 8.52 2.01
1 8 9 6.38 1.71
-11 0 14 114.23 5.07
-5 7 11 35.43 2.04
-15 2 9 17.77 1.57
-9 8 5 7.87 1.14
-13 4 10 114.49 3.98
11 7 2 26.4 1.7
16 0 2 12.45 2.1
-6 0 16 6.41 1.75
-3 5 14 11.06 1.24
1 7 11 36.91 2.3
-9 1 15 24.14 1.71
-7 6 12 32.73 2.06
-11 3 13 51.18 2.49
12 4 7 9.04 1.35
-16 3 3 6.02 1.62
9 8 2 17.88 1.65
-6 9 4 12.54 1.44
12 1 9 17.27 1.95
-14 5 6 8.59 1.14
-15 3 8 108.72 3.88
12 3 8 40.08 2.43
-16 3 2 10.04 1.43
6 9 2 21.22 1.41
3 5 13 7.9 1.75
7 2 13 5.09 1.87
14 3 5 16.73 1.69
-4 5 14 29.26 1.98
-16 3 4 49.97 2.25
5 4 13 28.26 1.69
-7 3 15 8.31 1.33
-9 6 11 48.87 2.56
-3 2 16 64.69 2.61
-15 4 6 65.85 2.68
-13 2 12 6.04 1.25
16 1 2 21.67 1.73
-11 5 11 9.96 1.27
-15 0 10 65.95 3.85
-6 1 16 12.29 1.47
0 1 16 23.29 2.4
-14 3 10 16.51 1.51
-5 8 9 5.48 1.71
-9 7 9 12.75 1.31
-8 5 13 5.69 1.82
-2 2 16 5.86 1.8
15 2 4 48.75 2.43
8 7 7 12.56 1.36
-8 4 14 10.75 1.3
-2 6 13 4.57 2.13
13 0 8 209.7 8.51
13 5 4 174.77 5.39
-8 8 7 56.19 2.38
-10 4 13 21.45 1.61
-16 3 1 38.06 2.22
-12 2 13 32.11 2.04
-7 9 1 5.67 1.29
-10 7 8 14.8 1.41
7 7 8 41.15 2.16
13 6 1 88.76 3.22
-7 8 8 11.81 1.24
4 8 8 26.55 1.76
-7 9 2 15.48 1.23
7 5 11 5.33 1.88
-16 2 7 12.43 1.46
9 1 12 14.39 1.82
3 6 12 10.6 1.37
-12 7 2 9.72 1.2
-12 6 8 45.21 2.3
9 6 8 49.17 2.36
-5 5 14 10.65 1.43
2 8 9 10.87 1.48
-4 4 15 46.1 2.4
-4 6 13 6.34 1.24
9 7 6 24.29 1.71
7 9 0 113.02 3.83
-14 2 11 9.9 1.36
-10 8 1 15.64 1.54
3 4 14 21.28 1.8
-6 7 11 21.17 1.6
8 3 12 46.27 2.57
-5 2 16 74.03 3.2
-1 2 16 10.61 2.09
-12 7 3 18.86 1.51
5 9 4 7.32 1.32
6 1 14 70.96 3.39
-16 1 8 23 1.87
-10 5 12 18.05 1.56
7 4 12 68.86 3.04
8 6 9 50.45 2.43
-8 7 10 49.97 2.29
-12 7 1 71.22 2.78
0 5 14 9.9 1.53
4 9 5 6.44 1.69
1 0 16 112.83 6.88
-10 8 3 6.72 1.26
2 7 11 7.35 1.32
-13 6 6 168.25 5.37
-7 9 3 22.83 1.61
12 5 6 85.01 3.21
2 3 15 14.34 2.09
-9 8 6 37.49 1.95
10 6 7 7.31 1.27
-17 0 2 80.68 4.1
-17 0 4 184.5 6.85
-6 9 5 12.6 1.45
13 3 7 10.3 1.44
-9 2 15 25.3 1.81
6 7 9 9.07 1.23
10 8 0 4.82 2.47
10 2 11 72.34 3.16
-5 9 6 45.33 2.38
16 3 0 6.92 1.36
14 5 2 5.62 1.54
-10 3 14 9.83 1.34
-5 4 15 4.57 2.29
6 9 3 5.44 1.74
-12 7 4 103.1 3.59
13 4 6 7.29 1.38
9 8 3 11.16 1.42
7 9 1 20.05 1.37
12 2 9 13.62 1.57
-14 5 7 97.5 3.38
-7 1 16 4.34 2.37
1 1 16 5.93 1.78
-17 1 3 67.03 2.95
15 1 5 4.7 1.77
12 7 0 81.99 3.1
-15 4 7 4.34 2.44
0 10 0 129.96 5.27
-6 8 9 38.28 2.04
-10 8 4 5.63 1.52
-17 1 2 18.08 1.71
-17 1 4 38.24 2.19
16 2 2 95.14 3.69
-6 2 16 15.81 1.62
-16 3 6 16.56 1.51
-6 5 14 101.1 3.92
-8 3 15 5.17 1.8
10 7 5 31.17 1.94
0 10 1 26.93 1.59
7 8 6 70.91 2.73
0 4 15 40.84 3.45
-1 10 1 11.34 1.17
-7 9 4 48 2.45
1 9 7 9.66 1.12
6 8 7 42.94 2.04
-3 8 10 11.81 1.44
1 10 1 11.62 1.1
1 5 14 5.86 2.81
15 4 2 15.34 1.39
11 6 6 6.04 1.37
-10 1 15 10.56 1.36
-15 3 9 14.52 1.49
9 2 12 6.92 1.77
4 5 13 13.54 1.63
-14 0 12 12.52 2.12
-15 2 10 9.35 1.36
3 8 9 6.53 1.18
-17 1 1 73.62 3.14
-17 1 5 34.57 2.08
-12 7 5 47.62 2.24
-4 9 7 6.32 1.79
6 5 12 5.58 1.57
2 10 0 59.15 2.4
0 10 2 6.91 3.08
6 2 14 81.18 4.22
-16 2 8 8.87 1.27
13 2 8 19.49 1.77
-1 10 2 48.29 2.13
0 8 10 41.38 2.55
-9 4 14 18.84 1.61
1 6 13 11.04 1.47
14 1 7 51.78 2.85
-11 6 10 23.55 1.75
-13 1 13 9.24 1.37
-8 0 16 6.58 3.07
-1 7 12 40.27 2.47
7 3 13 8.7 1.77
-15 5 3 50.23 2.21
-6 6 13 48 2.58
-12 4 12 7.18 1.22
-4 8 10 15.59 1.45
3 7 11 16.36 1.77
2 10 1 27.97 1.65
-3 3 16 12.45 1.99
17 0 0 82.1 4.51
-17 0 6 6.02 1.53
-14 1 12 6.02 2.73
1 10 2 24.52 1.6
-13 3 12 186.87 5.99
10 4 10 56.96 2.81
-8 8 8 6.66 1.9
5 8 8 26.4 1.79
-12 0 14 7.14 1.7
-2 10 2 19.55 1.38
-2 3 16 41.46 3.48
-4 7 12 5.21 1.85
15 3 4 26.71 2.02
6 4 13 35.21 1.99
-9 8 7 6.44 1.68
2 9 7 21.95 1.66
-7 2 16 27.34 2.04
13 5 5 9.14 1.23
-16 1 9 27.56 2.02
15 2 5 27.44 2.04
-15 5 1 5.86 1.05
-8 1 16 7.9 1.25
2 1 16 21.28 1.83
6 9 4 13.32 1.4
-8 9 1 9.92 1.27
6 6 11 7.47 1.77
-8 9 2 39.06 2.06
-7 5 14 5.09 1.84
-12 6 9 7.34 1.25
-16 3 7 7.18 1.4
-14 6 2 9.51 1.04
-7 9 5 73.41 3.08
17 1 0 28.29 2.04
-17 1 6 6.49 1.6
9 5 10 78.64 3.35
0 7 12 6.32 1.78
14 5 3 9.33 1.25
-12 1 14 52.26 2.56
-14 3 11 29.39 1.98
-11 4 13 5.44 1.71
-1 10 3 19.65 1.44
4 9 6 15.03 1.49
0 10 3 42.71 2.08
9 8 4 15.98 1.65
2 10 2 5.09 1.99
-16 4 3 6.99 1.36
-14 5 8 70.81 2.83
10 8 2 42.94 2.44
8 9 0 60.22 2.37
-15 4 8 8.04 1.33
12 4 8 21.39 1.83
-16 4 2 37.87 2.25
-14 6 1 11.16 1.1
-5 8 10 10.85 1.25
-14 6 4 40.39 1.91
-12 7 6 14.21 1.38
-12 5 11 31.54 1.99
14 4 5 37.16 2.12
3 10 1 32.9 1.76
-16 4 4 8.66 1.17
-7 4 15 36.43 2.28
-2 10 3 34.93 1.81
-5 7 12 47.71 2.49
-10 2 15 8.45 1.43
-15 1 11 8.95 1.44
1 10 3 10.73 1.2
-11 7 8 127.78 4.27
8 7 8 16.36 1.55
16 2 3 28.48 1.99
-17 2 1 46.39 2.53
12 6 5 13.21 1.24
-17 2 5 12.26 1.58
-14 4 10 100.14 3.78
5 1 15 54.45 2.92
-2 9 8 18.63 1.76
-1 9 8 10.02 1.31
12 0 10 11.42 2.53
9 7 7 5.62 2.81
-11 5 12 14.23 1.49
2 6 13 7.97 1.54
7 9 3 6.66 3.07
15 5 0 86.79 3.19
12 3 9 22.26 1.9
-16 4 1 53 2.4
-7 6 13 9.92 1.68
15 4 3 22.17 1.64
-13 2 13 6.02 1.68
4 8 9 36.18 2.31
-10 8 6 16.56 1.49
15 0 6 18.78 2.47
-11 3 14 63.09 2.86
-3 9 8 6.14 1.68
1 7 12 16.39 1.75
-14 2 12 18.86 1.75
16 3 2 14.92 1.58
-16 4 5 86.9 3.24
0 3 16 63.23 4.2
11 1 11 5.62 2.89
-11 8 2 57.46 2.68
10 0 12 13.45 2.62
-14 6 5 52.87 2.53
-8 9 4 6.58 3.24
-8 7 11 28.2 1.85
-4 10 1 10.32 1.12
-11 8 1 25.21 1.87
17 1 1 11.24 1.49
-17 1 7 35.5 2.25
-11 8 3 12.31 1.45
3 0 16 16.17 2.51
-16 2 9 35.53 2.22
10 7 6 10.3 1.31
-1 10 4 6.05 1.4
-8 2 16 13.96 1.55
2 2 16 13.91 2.06
15 1 6 42.35 2.62
4 7 11 6.58 1.52
2 4 15 8.49 2.22
5 5 13 6.17 1.65
10 6 8 28.64 1.83
0 10 4 24.08 1.62
9 3 12 70.71 3.28
17 2 0 85.17 3.6
-15 5 6 6.17 1.36
-17 2 6 89.55 3.35
13 4 7 37.2 2.49
7 8 7 46.43 2.37
-4 1 17 27.34 2.13
-12 2 14 165.38 5.48
-6 7 12 5.43 1.31
-6 8 10 20 1.64
-2 10 4 14.87 1.37
16 4 0 8.96 1.35
-8 5 14 62.09 2.88
-10 4 14 7.29 1.38
-11 1 15 11.04 1.44
1 9 8 17.72 1.72
8 8 6 16.31 1.58
-16 3 8 87.4 3.42
13 3 8 21.42 1.86
-2 1 17 26.89 1.93
-6 9 7 22.43 1.88
-10 5 13 24.82 1.79
13 1 9 37.87 2.66
10 8 3 10.87 1.48
3 1 16 5.53 2.71
8 6 10 56.46 2.61
-16 0 10 27.31 2.85
5 6 12 14.85 1.71
-13 7 3 47.25 2.31
6 9 5 5.77 2.89
-15 2 11 30.84 2.07
6 8 8 15.83 1.38
-16 4 6 16.05 1.56
6 7 10 4.42 2.38
-8 4 15 27.25 1.94
-3 6 14 12.79 2.04
5 9 6 6.67 1.83
11 6 7 10.32 1.47
-2 6 14 5.77 2.48
14 6 1 34.15 1.79
-8 8 9 6.41 1.96
7 5 12 10.36 1.45
-3 10 4 27.69 1.67
-14 6 6 7.42 1.55
14 5 4 18.47 1.55
-7 3 16 36.29 2.35
-8 9 5 7.94 1.3
1 3 16 52.09 3.9
-17 3 3 75.06 3.22
-1 1 17 16.07 2.21
-13 7 4 10.56 1.29
-16 1 10 9.79 1.48
3 6 13 4.74 2.62
-4 6 14 29.55 2.12
-1 5 15 28.58 2.21
9 8 5 7.42 1.85
7 2 14 5.21 2.55
-2 8 11 4.02 2.28
12 7 3 11.4 1.32
7 9 4 11.89 1.41
-15 4 9 5.21 2.47
-17 3 4 18.47 1.73
17 0 2 68.36 4.12
-17 0 8 87.4 4.66
14 0 8 86.4 5.35
-1 6 14 40.77 2.45
-11 6 11 6.02 1.31
4 10 2 5.37 2.8
11 2 11 16.19 1.86
-3 8 11 14.98 1.6
-8 6 13 16.65 1.79
-1 8 11 35.86 2.41
11 7 5 20.81 1.7
-10 8 7 6.34 1.99
-5 5 15 10.28 1.46
2 10 4 5.89 2.2
-5 10 1 32.66 1.75
-12 6 10 14.96 1.55
11 8 1 5.41 1.9
-5 9 8 13.54 1.63
2 9 8 9.66 1.45
13 6 4 6.73 1.15
9 1 13 33.73 2.47
13 7 0 23.52 1.69
-9 9 2 6.14 1.2
-17 2 7 41.15 2.39
3 8 10 16.85 1.87
4 9 7 52.13 2.56
-9 9 1 6.77 1.78
-11 8 5 60.96 2.62
16 2 4 15.95 1.73
-15 5 7 15.43 1.6
7 6 11 7 1.21
-5 10 2 10.81 1.18
-10 3 15 7.78 1.29
-11 7 9 5.13 1.94
17 1 2 18.71 1.76
-5 6 14 9.73 1.48
-13 0 14 24.64 2.56
-4 2 17 56.46 2.98
-7 7 12 9.81 1.3
-4 4 16 5.82 1.22
-9 9 3 18.84 1.69
15 4 4 20 1.64
-2 10 5 12.88 1.44
-4 10 4 12.12 1.36
-2 2 17 33.49 3.23
9 9 0 65.8 3.12
-7 8 10 5.06 2.62
13 2 9 5.06 1.94
-14 1 13 10.65 1.47
0 6 14 11.74 1.58
-12 4 13 9.88 1.4
-15 0 12 19.33 2.64
-9 2 16 16.02 1.63
-13 3 13 26.37 1.91
14 4 6 88.19 3.44
12 6 6 7.08 1.34
15 5 2 23.09 1.64
-9 7 11 6.87 1.45
8 9 3 29.81 2.1
-7 9 7 19.23 1.71
-13 1 14 6.43 1.35
-14 4 11 11.6 1.43
14 6 2 125.55 4.44
-5 4 16 34.54 2.89
-1 4 16 6.7 1.97
-2 9 9 6.1 2.01
-2 7 13 8.96 1.49
-3 7 13 4.95 1.6
-3 10 5 7.42 1.96
-9 5 14 14.09 1.55
5 7 11 49.42 2.83
-1 9 9 10.83 1.4
4 10 3 11.08 1.24
-13 6 9 9.13 1.36
-14 6 7 18.71 1.74
-15 1 12 46.19 2.57
-9 9 4 6.84 1.35
-8 3 16 15.86 1.65
2 3 16 26.74 3.1
11 4 10 5.41 1.95
-12 5 12 11.08 1.4
-18 0 4 11.36 2.12
-3 9 9 31.37 2.12
3 7 12 6.66 2.92
17 3 0 12.37 1.54
-17 3 6 44.49 2.24
-1 7 13 4.49 2.52
11 8 2 21.39 1.89
10 5 10 8.59 1.44
9 9 1 68.36 3.22
-7 1 17 8.66 1.5
-18 0 2 67.96 4.06
-12 7 8 10.85 1.48
9 7 8 39.36 2.18
-13 5 11 6.5 2.07
-4 7 13 5.48 1.81
1 8 11 29.84 2.13
-9 4 15 33.59 2.19
11 5 9 20.38 1.79
-10 1 16 9.22 1.42
4 1 16 8.05 1.52
10 4 11 28.93 2.23
0 9 9 35.93 2.41
-11 8 6 43.06 2.24
6 5 13 4.9 2.62
5 10 2 8.54 1.1
-18 1 3 13.62 1.64
4 5 14 9.9 1.55
1 6 14 143.88 5.33
-13 7 6 7.67 1.23
1 5 15 9.02 3.29
-11 4 14 7.67 1.51
4 6 13 20.05 1.93
17 2 2 22.74 1.92
2 10 5 5.86 1.99
14 2 8 93.51 3.89
16 4 2 7.58 1.6
-18 1 2 44.61 2.56
-5 10 4 15.36 1.53
-6 4 16 11.2 1.69
12 7 4 4.82 2.47
1 1 17 23.26 2.52
-9 8 9 6.92 1.77
-4 9 9 6.94 1.94
7 9 5 6.99 1.92
6 6 12 5.69 2.88
-4 10 5 6.23 1.93
8 8 7 15.88 1.58
-16 5 3 16.17 1.57
4 8 10 14.23 1.81
-12 1 15 59.24 2.86
-6 10 2 78.59 2.93
0 2 17 25.51 3.03
-16 5 2 11.36 1.5
-5 7 13 6.34 2.9
-10 8 8 17.93 1.58
15 1 7 11.34 1.86
-15 6 3 6.91 1.31
14 5 5 10.46 1.47
-18 1 5 20.65 1.85
-16 5 4 9.05 1.86
7 3 14 19.31 2.43
-15 6 2 70.31 2.72
-8 7 12 5.06 2.62
-9 9 5 22.29 1.76
9 4 12 43.06 2.6
7 7 10 8.75 1.3
-15 4 10 14.3 1.5
6 2 15 8.43 2.13
17 1 3 67.57 3.06
-17 1 9 6.41 2.98
-2 10 6 5.69 3.21
12 3 10 5.13 2.87
-18 1 1 35.39 2.36
-12 8 3 15.74 1.64
6 4 14 5.33 1.95
13 4 8 7.18 1.86
-15 6 4 9.27 1.33
-16 1 11 6.7 1.43
13 7 2 9.29 1.28
-12 8 1 7.72 1.53
-18 0 6 7.31 2.22
10 6 9 28.58 2.08
-6 10 3 17.17 1.54
-17 3 7 12.95 1.49
4 10 4 30.21 1.88
15 5 3 7.63 1.82
8 9 4 19.41 1.82
-15 6 1 11.22 1.17
6 10 1 10.83 1.18
15 3 6 69.16 3.24
-7 6 14 10.4 1.55
-3 3 17 8.86 3.45
9 6 10 9.27 1.46
4 4 15 8 1.87
-7 2 17 24.34 2.04
-8 1 17 14.64 1.56
-16 5 5 8.05 1.35
-3 10 6 6.1 3.15
-10 2 16 5.21 1.86
11 0 12 12.58 2.7
16 2 5 37.56 2.43
18 0 0 95.61 4.99
8 5 12 21.64 2.04
-11 3 15 9.73 1.46
13 0 10 26.31 3.35
-2 3 17 5.53 2.64
3 10 5 10.58 1.35
-8 9 7 6.32 1.84
-18 1 6 48.75 2.6
-18 2 3 11.44 1.52
-7 4 16 67.08 3.44
-17 4 3 30.87 2.13
3 3 16 12.48 2.18
2 6 14 8.57 1.97
15 4 5 12.58 1.45
-12 6 11 22.12 1.78
-6 7 13 8.04 3.34
-5 10 5 9.92 3.62
-18 2 4 70.26 3.22
-15 6 5 13.27 1.57
-11 8 7 17.42 1.55
-13 7 7 15.24 1.64
8 2 14 61.43 3.2
13 5 7 17.72 1.79
-10 9 2 11.1 1.56
-18 2 2 6.29 1.32
-10 7 11 7.23 3.17
1 2 17 15.34 2.61
2 9 9 21.72 1.96
-10 9 1 6.22 2.18
16 5 0 12.08 1.5
15 6 0 51.22 2.49
13 1 10 71.42 3.7
-6 10 4 61.29 2.72
5 0 16 44.49 3.72
-10 9 3 5.53 2.88
8 6 11 11.44 1.42
-16 3 10 18.45 1.8
-18 2 5 13.03 1.58
-12 7 9 30.57 2.12
-14 7 2 92.87 3.47
-14 7 3 17.8 1.59
-13 6 10 39.82 2.35
17 2 3 14.12 1.74
-17 2 9 43.38 2.53
-8 5 15 6.02 2.66
-2 8 12 6.99 1.52
12 6 7 6.29 2.09
2 10 6 4.82 2.7
-3 8 12 5.88 1.66
9 9 3 5.77 2.13
16 0 6 9.88 2.57
-7 10 1 19.97 1.45
-14 7 1 57 2.85
7 1 15 7.14 3.33
-14 7 4 50.54 2.47
-1 8 12 8.4 2.23
-14 0 14 20.08 2.55
3 8 11 9.79 1.65
-10 9 4 58.64 2.85
-15 5 9 11.06 1.32
-17 3 8 18.11 1.76
14 3 8 33.56 2.29
-17 0 10 16.61 2.47
-18 1 7 21.7 1.96
-8 2 17 19.6 1.81
13 7 3 7.35 1.38
-2 9 10 6.66 3.24
7 9 6 11.79 1.61
-9 7 12 7.4 1.62
-8 6 14 13.47 1.7
5 10 4 6.87 1.34
-1 9 10 45.82 2.64
-18 2 6 7.23 2.1
-7 7 13 26.43 1.85
-3 9 10 36.69 2.36
-3 6 15 4.9 2.7
-3 0 18 46.92 5.47
12 2 11 9.31 1.78
-1 10 7 50.1 2.55
15 6 1 6.5 1.91
2 4 16 5.37 2.87
7 5 13 5.37 2.03
-7 10 3 6.02 2.98
-14 1 14 22.32 1.93
-2 10 7 21.09 1.76
-9 1 17 19.97 1.72
-3 5 16 20.62 2.42
17 1 4 11.28 1.61
0 8 12 12.41 1.69
-6 10 5 8.02 1.22
-13 5 12 16.85 1.65
18 1 1 47.54 2.69
6 3 15 6.02 2.82
14 7 0 51.57 2.46
-13 3 14 20.59 1.82
-9 8 10 9.13 1.38
-12 4 14 37.83 2.29
8 9 5 25.66 2.16
-14 7 5 6.66 3.24
-5 10 6 10.95 1.43
-4 5 16 22.23 2.46
0 10 7 10.71 1.55
3 6 14 10.09 2.38
15 5 4 40.31 2.25
18 2 0 13.45 1.72
13 2 10 17.17 1.96
2 2 17 27.22 3.07
0 9 10 31.61 2.23
7 10 1 14.48 1.51
14 6 4 9.38 1.34
3 5 15 9.42 1.68
9 7 9 13.25 1.51
-3 10 7 12.79 1.52
-12 8 6 4.98 2.79
14 5 6 35.53 2.36
-4 1 18 15.34 1.83
-13 7 8 11.02 1.49
9 0 14 30.64 3.45
-16 5 7 4.98 2.39
3 10 6 6.34 3.15
-15 4 11 23.29 1.94
-16 0 12 10.65 2.25
-11 8 8 23.61 1.78
-7 3 17 9.7 1.57
-8 9 8 6.28 1.58
-10 3 16 19.47 1.88
4 3 16 25.88 2.84
15 0 8 11.16 2.71
-2 1 18 14.71 2.69
-13 1 15 20.54 1.93
-5 5 16 6.29 1.88
-5 6 15 9.87 1.53
13 6 6 19.97 1.88
-7 10 4 5.29 2.88
-11 2 16 37.83 2.36
-18 3 3 6.26 3.07
-9 9 7 9.18 1.49
-1 0 18 7.55 2.84
11 5 10 43.69 2.5
9 1 14 17.7 2.1
10 2 13 7.87 3.51
7 8 9 45.29 2.42
-16 1 12 9.72 1.51
8 3 14 81.99 4.4
-18 2 7 6.78 1.41
1 3 17 7.39 2.19
11 4 11 8.45 1.59
-9 5 15 7.85 1.9
12 4 10 5.66 2.13
11 7 7 8.21 1.44
-7 9 9 7.67 1.99
-8 8 11 7.42 1.31
10 9 2 13.25 1.66
0 6 15 25.66 2.22
-12 3 15 6.29 2.14
7 10 2 36.72 2.22
16 2 6 10.46 1.59
17 4 1 18.73 2.03
18 0 2 8.5 2.13
-17 4 7 19.31 1.71
10 8 6 5.69 2.72
-4 7 14 6.23 1.9
-14 2 14 42.55 2.5
4 8 11 6.66 3.07
16 5 2 39.59 2.15
-1 7 14 29.88 2.3
-11 7 11 13.12 1.59
-6 1 18 9.05 1.64
18 2 1 26.21 2.12
17 3 3 10.04 1.56
-6 5 16 9.46 1.61
0 5 16 40.46 3.74
-17 3 9 23.67 2.01
-4 4 17 14.82 4.05
1 11 0 7.37 1.22
-6 6 15 13.73 2.11
-18 3 1 23.55 1.98
-6 10 6 15.01 1.63
-9 6 14 11.54 1.67
13 7 4 5.62 1.95
-12 0 16 23.76 2.69
6 0 16 5.69 2.13
-13 8 2 57.18 2.9
1 11 1 6.44 1.89
-10 9 6 7.67 2.44
-13 8 3 40.23 2.44
-12 6 12 11.95 1.53
-8 10 2 50.27 2.55
7 7 11 7.83 2.2
9 5 12 8.43 2.04
-12 8 7 21.39 1.67
10 6 10 12.48 1.78
-13 6 11 5.25 2.06
-11 9 2 21.89 1.94
-7 0 18 58.97 4.38
-2 2 18 9.42 3.54
-10 1 17 7.57 1.35
-13 2 15 10.3 1.54
-2 11 1 20.54 1.52
6 5 14 9.94 2.23
-16 5 8 26.89 1.9
13 5 8 8.91 2.2
3 2 17 15.12 2.8
-1 11 2 32.52 1.95
8 10 0 9.4 1.75
-5 10 7 8.28 1.57
2 9 10 28.1 2.19
-11 9 1 12.29 1.62
-12 1 16 31.57 2.23
-18 3 6 11.5 1.55
-5 2 18 10.02 1.58
-11 9 3 7.39 1.52
-8 10 3 12.16 1.44
-13 8 4 14.94 1.67
-16 4 10 8.35 1.47
12 7 6 6.1 3.29
2 11 1 23.15 1.62
1 11 2 47.13 2.22
-16 2 12 12.69 1.65
-1 10 8 34.89 2.23
11 3 12 9.38 1.71
11 8 5 5.93 2.97
14 7 2 9.75 3.7
18 3 0 8.21 1.6
-19 0 4 62 3.97
7 10 3 44.41 2.48
8 9 6 13.23 1.7
13 3 10 36.25 2.42
9 4 13 29.26 2.37
-13 7 9 20.51 1.88
-10 8 10 13.8 1.69
10 9 3 8.05 1.58
-16 6 2 5.66 2.03
13 8 0 41.27 2.47
-17 5 3 23.29 1.97
17 1 5 36.51 2.43
-1 2 18 15.29 2.67
-17 1 11 7.58 1.95
15 5 5 9.16 1.51
-6 4 17 6.64 1.5
14 6 5 8.16 1.49
-11 9 4 17.15 1.81
-16 6 4 7.02 1.54
8 1 15 5.21 2.72
-17 5 4 5.66 2.06
17 4 2 9.88 1.7
6 9 8 63.33 2.96
14 4 8 23.17 2.02
-3 11 1 7.75 1.32
3 11 0 6.8 1.88
-6 2 18 12.2 1.72
-6 7 14 7.72 1.38
-7 8 12 10.27 1.42
-19 1 3 5.93 3.22
0 11 3 9.64 1.3
-8 10 4 15.52 1.58
-18 1 9 12.08 4.07
2 11 2 8.52 2.95
-13 8 5 14.36 1.66
-8 9 9 15.24 1.73
0 4 17 11.38 2.49
-14 4 13 7.72 1.58
-11 3 16 36.58 2.43
-16 6 1 6.78 2.08
18 2 2 34.82 2.37
15 6 3 9.22 1.26
1 7 14 28.01 2.41
3 11 1 8.07 1.23
-9 8 11 20.54 1.96
-2 9 11 12.97 1.79
-19 1 2 36.4 2.46
4 7 13 9.72 1.81
13 1 11 65.9 3.65
1 11 3 9.68 1.23
-17 5 1 10.27 1.75
-15 0 14 6.66 3.4
14 0 10 19.86 3.24
14 3 9 33.8 2.37
-10 2 17 5.53 2.95
-10 9 7 5.37 3.04
1 10 8 58.97 3.09
-2 8 13 5.44 2.87
-6 10 7 14.62 1.79
-9 7 13 15.71 1.81
-12 2 16 15.88 1.75
6 2 16 24.73 2.39
16 3 6 23.26 2.08
-15 4 12 8.29 1.95
13 8 1 11.24 1.57
0 2 18 52.09 4.03
-11 9 5 28.77 2.09
2 6 15 33.42 2.95
-9 3 17 6.38 2.3
18 1 3 8.35 1.59
-15 7 2 6.7 2.25
6 10 5 35.07 2.24
-14 5 12 7.23 1.52
17 3 4 12.82 1.65
-17 3 10 51.61 2.76
-1 8 13 13.96 1.77
-7 4 17 30.67 2.49
-12 8 8 9.53 1.56
9 8 8 8.52 1.58
11 1 13 6.86 2.26
5 9 9 20.51 2.04
-4 9 11 43.85 2.54
-8 1 18 7.1 1.42
-15 1 14 13.21 1.7
-10 4 16 19.39 2.09
4 4 16 6.66 3.15
-19 1 1 6.59 2.03
16 4 5 23.12 2.02
2 11 3 44.29 2.16
8 8 9 12.05 1.62
4 11 0 8.63 1.57
-8 10 5 22.89 1.75
13 7 5 28.74 2.16
17 2 5 6.26 3.38
-17 2 11 17 4.31
-16 5 9 22.03 1.77
2 5 16 20.62 3.11
-13 8 6 10.46 1.73
-4 3 18 58.69 6.53
-18 4 4 4.9 2.78
-19 1 6 5.44 2.96
-14 1 15 7.72 2.02
-7 7 14 18.37 1.88
0 11 4 9.16 1.42
8 2 15 7 1.97
-4 11 2 12.86 1.36
-17 5 6 45.29 2.34
8 4 14 9.98 1.76
9 7 10 13.21 1.55
14 7 3 15.69 1.64
12 8 4 6.26 3.38
-16 6 6 13.03 1.65
-8 6 15 32.73 2.4
4 2 17 15.41 2.4
-13 3 15 7.49 2.13
-14 7 8 7.03 1.51
-19 2 4 10.56 1.64
19 0 0 7.92 2.11
0 8 13 13.36 1.82
4 11 1 6.41 3.23
-12 4 15 15.01 1.93
-11 1 17 10.83 1.58
10 9 4 11.24 1.87
-9 10 2 51.78 2.55
-5 8 13 23.79 1.96
5 6 14 18.37 1.88
-12 7 11 8.36 1.58
-18 4 5 7.47 2.76
-15 7 5 21.28 1.91
9 3 14 5.86 2.9
-19 2 2 5.86 2.97
-8 8 12 45.58 2.51
-15 6 9 35.78 2.3
12 2 12 41.69 2.87
-16 3 12 6.02 2.25
7 8 10 13.14 1.54
-18 0 10 22.46 2.93
-17 4 9 75.9 3.19
7 0 16 11.66 2.62
-11 7 12 10.07 1.6
-18 3 8 8.64 1.48
15 3 8 42.59 2.66
-4 11 3 7.42 2.42
-18 4 1 14.41 1.75
-11 9 6 8.71 1.45
1 2 18 12.41 2.58
10 1 14 6.58 3.56
-16 4 11 60.73 2.95
13 8 2 28.2 2.1
8 7 11 7.8 2.18
3 11 3 7.05 1.4
16 6 1 7.23 2.03
-9 0 18 8.63 2.08
7 5 14 14.71 2.44
17 0 6 66.73 5.05
8 10 3 39.25 2.56
-18 1 10 22.63 2.08
-6 3 18 28.13 2.26
-19 1 7 8.12 3.51
-8 2 18 12.58 1.62
-13 1 16 15.88 1.79
14 2 10 22.2 2.26
-19 2 1 6.87 2.08
7 1 16 13.32 1.84
-2 6 16 5.69 2.88
8 9 7 49.76 2.84
1 8 13 7.02 2.35
-18 4 6 6.38 1.82
17 5 1 7.55 1.65
3 6 15 12.45 1.88
18 3 2 18.05 2.09
-12 6 13 8.49 2.27
5 1 17 12.75 1.91
-8 10 6 8.42 1.53
-10 9 8 11.28 1.57
7 9 8 10.89 1.68
5 11 0 17.57 1.48
14 6 6 28.39 2.33
-6 8 13 8.75 2.13
-19 2 6 10.27 1.58
18 0 4 71.01 4.45
-16 6 7 12.26 1.77
-3 10 9 14.68 1.66
-3 5 17 11.95 2.55
-1 11 5 77.63 3.33
-17 1 12 18.05 1.91
9 9 6 21.2 2.02
10 5 12 23.17 2.2
-16 2 13 25.09 2.1
3 10 8 9.9 1.77
-6 9 11 8.73 1.67
-11 5 15 5.89 2.27
-5 6 16 8.61 2.45
-2 11 5 11.58 1.55
-4 11 4 6.14 2.33
-8 9 10 7.99 2.07
-11 2 17 9.11 1.54
-10 7 13 5.06 2.7
13 5 9 7.54 1.73
6 3 16 33.11 3.25
0 3 18 13.87 2.68
15 7 1 41.81 3.3
11 6 10 5.21 2.95
-14 8 2 8.64 2.06
-14 8 3 13.94 1.68
-4 7 15 16.36 2.04
7 10 5 17.2 1.72
10 6 11 9.05 1.72
1 11 5 53.57 2.77
-7 3 18 10.36 1.7
3 7 14 6.83 2.23
16 0 8 14.52 3
-12 9 4 17.15 1.84
10 2 14 9.92 1.78
7 7 12 43.18 2.68
-3 11 5 7.14 2.36
4 11 3 17.85 1.7
-11 4 16 6.17 3.46
14 7 4 18.68 1.87
-14 8 1 35.07 2.52
-17 3 11 5.83 1.77
12 9 0 26.74 2.11
2 2 18 40.31 5.18
-14 7 9 7.06 1.9
10 4 13 5.06 2.78
3 0 18 13.65 3.86
10 9 5 6.83 2.4
-13 2 16 21.64 1.98
7 2 16 13.45 2.33
2 8 13 27.5 2.39
-19 1 8 8.68 1.59
16 1 8 17.5 2.08
-19 3 4 7.8 3.02
9 10 2 21.42 2.05
5 11 2 9.27 3.86
16 4 6 8.64 2.06
-7 8 13 6.26 2.06
-6 5 17 12.24 4.08
8 10 4 25.45 2.12
-9 2 18 12.05 1.67
-14 4 14 7.92 1.71
-19 3 2 17.22 2.02
13 3 11 6.94 2.43
-17 4 10 14.27 1.75
-6 11 1 25.21 1.69
-5 10 9 10.36 1.64
-12 1 17 37.95 2.48
-16 6 8 10.4 1.63
13 6 8 40.12 2.77
-3 9 12 7.42 1.6
-6 11 2 8.07 1.62
-14 5 13 19.86 2.09
6 11 0 8.56 1.68
9 8 9 51.91 2.68
12 9 1 7.18 2.43
-7 10 8 19.18 2.1
10 8 8 7.63 3.34
18 3 3 6.38 2.33
3 9 11 6.73 3.71
5 9 10 9.22 2.7
4 6 15 5.69 3.21
-10 1 18 7.8 2.41
-6 1 19 8.77 1.72
-15 3 14 17.42 1.88
-2 11 6 8.82 1.87
-6 7 15 7.68 1.56
-10 10 1 13.03 1.75
14 3 10 10.77 1.99
-4 9 12 12.05 1.79
-16 0 14 39.36 3.46
13 0 12 42.86 4.24
0 11 6 7.47 3.42
-9 7 14 32.08 2.34
-5 4 18 10.54 2.61
-7 6 16 27.28 2.26
-6 11 3 16.78 1.67
-10 10 3 7.39 3.33
-15 5 12 54.14 3.18
8 8 10 49.72 2.58
-10 9 9 7.67 2.11
6 11 1 44.53 2.48
-19 3 6 13.34 1.75
19 1 2 52.95 3.01
9 2 15 6.5 3.16
-17 6 2 6.02 3.38
-17 6 4 9.68 1.77
-16 4 12 14 1.64
-9 9 10 60.5 3.17
10 10 0 14.25 1.79
-3 2 19 6.66 3.32
-2 8 14 17.98 2.19
-18 4 8 6.34 3.07
-19 2 8 54.94 2.98
16 2 8 24.82 2.36
14 8 1 32.01 2.21
3 11 5 5.69 3.04
9 10 3 25.27 2.2
11 9 4 8.12 2.45
-14 8 6 7.67 1.61
-1 4 18 19.7 3.01
-14 0 16 50.58 3.76
6 1 17 6.17 2.19
-4 8 14 7 1.71
-5 11 5 8.49 2.57
8 6 13 22.89 2.41
8 9 8 27.22 2.22
16 6 3 7.42 2.35
-18 5 2 5.21 2.72
-11 8 11 31.27 2.35
9 7 11 52 3.12
-19 1 9 5.53 3.04
-11 7 13 12.69 1.73
-8 8 13 16.19 1.88
9 9 7 7.37 2.2
-7 1 19 9.77 1.91
7 10 6 15.45 1.89
-16 7 3 7.31 3.33
-12 2 17 31.17 2.38
12 9 2 7.75 2.15
10 3 14 61.25 3.38
-12 8 10 20.7 1.94
-12 5 15 6.73 3.56
13 8 4 7.1 2.4
14 6 7 11.52 1.77
-16 7 2 16.02 1.99
-20 0 4 22.23 2.89
-3 10 10 14.48 1.64
8 1 16 7.63 3.75
6 11 2 7.23 3.25
15 5 7 18.81 1.8
14 7 5 6.02 3.21
15 0 10 8.04 3.75
4 0 18 7.23 3.09
7 9 9 12.2 1.76
17 5 3 8.38 2
-14 7 10 12.12 1.67
-13 3 16 19.7 1.97
-18 5 1 7.72 3.59
-20 0 2 7.75 2.19
2 11 6 6.17 3.13
-10 8 12 7.77 2.17
-16 7 1 6.78 1.98
5 3 17 7.8 3.68
-7 11 1 15.03 1.63
15 7 3 12.67 1.62
-4 10 10 15.64 1.8
-9 3 18 25.45 2.15
15 1 10 51.09 3.13
4 9 11 6.41 3.23
19 2 2 7.26 2.52
17 6 0 50.23 2.76
-10 10 5 6.94 2.23
-17 6 6 20.38 1.98
17 3 6 27.75 2.24
-8 10 8 5.93 3.29
-17 3 12 62.33 3.13
-8 5 17 14.41 2.44
-15 2 15 9.6 1.56
-11 0 18 37.98 3.33
14 8 2 8.04 2.14
-20 1 2 12.41 1.73
-14 8 7 9.13 1.74
-18 5 6 9.11 2.39
-9 10 7 32.66 2.54
-17 4 11 12.65 1.69
6 2 17 25.73 2.5
-20 0 6 74.18 4.6
18 3 4 42.43 2.97
8 4 15 12.73 2.95
14 2 11 23.12 2.31
-6 11 5 24.76 1.97
-12 9 7 13.08 1.69
-8 1 19 8.91 1.68
6 9 10 15.52 2.03
-6 8 14 8.71 2.21
1 10 10 12.95 1.75
4 4 17 12.58 3.75
-11 1 18 20.89 2.06
5 6 15 8.71 1.86
-19 4 3 15.24 4.46
11 5 12 5.44 2.96
9 10 4 25.21 2.17
-19 4 4 8.12 2.03
13 5 10 8.04 2.57
1 1 19 37.79 3.5
2 9 12 26.49 2.38
18 2 5 21.89 2.16
-5 10 10 8.21 3.6
8 2 16 24.05 2.32
-3 11 7 21.03 1.9
-19 0 10 6.17 3.13
-20 1 1 6.26 3.14
12 4 12 8.98 2.36
13 4 11 9.7 1.66
-8 7 15 8.49 2.43
-3 3 19 10.17 4.04
-17 2 13 8.23 1.7
16 3 8 10.85 1.8
1 4 18 32.73 3.6
-7 11 4 7.45 1.64
-9 8 13 8.45 1.85
-10 9 10 8.96 2.23
1 11 7 8.57 2.21
-20 2 4 14.18 2.01
17 6 1 7.14 2.33
-20 2 3 34.5 2.68
7 5 15 24.94 3.06
4 10 9 12.22 1.93
15 6 6 11.28 1.67
15 2 10 11.36 2.35
-18 1 12 10.04 1.75
-11 9 9 14.94 2.02
-18 5 7 19.95 1.82
11 4 13 12.52 2.38
20 0 0 60.26 4.24
-11 10 2 19.55 2.15
-4 11 7 15.83 1.72
-19 4 1 5.77 3.21
-13 9 5 36.98 2.48
-20 2 2 8.89 1.84
-15 8 4 15.95 2.08
2 10 10 8.47 2.22
7 11 2 7.72 2.13
13 8 5 11.95 1.83
-9 6 16 13.32 2.41
-14 5 14 26.49 2.35
-19 4 6 17.4 1.9
17 5 4 9.6 1.75
9 8 10 8.02 2.11
-20 1 7 8.93 2.55
14 8 3 16.63 1.98
20 1 0 20.92 2.09
-11 2 18 7.24 2.07
-6 10 10 7.42 2.52
-16 4 13 6.34 2.42
15 7 4 17.12 1.86
11 8 8 6.17 3.37
-3 9 13 12.16 2.03
5 0 18 29.65 3.66
-11 4 17 21.86 2.24
2 11 7 6.17 3.3
-1 6 17 9.38 2.59
13 9 1 10.48 1.57
-16 6 10 11.6 2.29
-12 8 11 9 1.91
6 11 4 8.09 1.6
-8 11 1 10.25 1.73
-16 7 7 25.09 2.13
-20 2 1 7.55 2.28
19 3 2 12.97 1.94
-9 10 8 24.29 2.31
2 1 19 11.26 3.49
-1 9 13 8.49 2.11
-12 9 8 6.58 3.64
9 9 8 8.64 1.83
-4 9 13 27.19 2.35
-14 7 11 10.09 1.75
4 11 6 11.1 1.9
15 8 0 7.23 2.4
-8 10 9 8.7 3.44
19 4 0 9.66 1.9
10 4 14 8.77 3.52
-5 11 7 11.58 1.59
9 6 13 19.81 2.22
-5 5 18 6.58 3.31
-8 11 3 10.83 1.56
15 4 9 10.67 1.74
9 0 16 18.32 3.06
-19 2 10 45.66 2.8
9 10 5 16.83 1.92
0 12 0 8.75 1.79
-12 0 18 36.11 3.28
17 6 2 6.91 3.73
14 3 11 7.23 3.81
-20 0 8 7.39 2.61
17 0 8 18.81 3.38
-16 1 15 7.68 1.73
-3 10 11 7.29 2.12
1 12 0 5.73 2.27
-1 10 11 23.99 2.17
10 7 11 11.12 2
-18 5 8 27.37 2.13
-10 10 7 16.36 2.04
7 11 3 13.71 1.69
0 9 13 39.66 2.76
11 10 1 8.54 1.61
3 10 10 13.01 2.01
-5 9 13 9.51 1.79
18 3 5 19.76 2.08
-14 3 16 8.45 3.69
1 12 1 14.92 1.55
9 1 16 6.34 2.05
-9 4 18 5.86 3.29
8 11 1 50.1 2.97
-3 11 8 9.31 1.68
-15 8 6 18.45 2.14
-20 1 8 11.83 1.86
16 7 2 6.7 2.42
-6 5 18 32.52 3.8
-6 7 16 11.64 1.97
0 7 16 16.29 3.05
5 10 9 8.28 3.68
20 2 0 21.42 2.14
-17 3 13 8.52 3.6
3 11 7 9.88 2.34
-8 11 4 9.38 1.49
-4 0 20 14.32 4.25
-8 8 14 6.73 3.71
-1 12 2 9.14 2.29
14 0 12 11.08 2.86
-10 8 13 7.31 3.33
-20 3 4 37.95 2.62
18 5 2 20.4 2.22
-15 6 12 17.98 1.98
-3 8 15 9.77 2.29
11 3 14 9.53 2.44
15 8 1 10.13 2.35
15 3 10 19.6 2.26
2 12 1 6.94 2.32
9 7 12 65.17 3.54
1 12 2 8.89 2.54
-7 6 17 11.5 4.14
-7 11 6 15.03 1.7
-4 8 15 7.31 3.49
-19 1 11 22.57 2.28
-2 12 2 12.97 1.69
3 8 14 22.83 2.47
16 6 5 11.48 1.85
-2 0 20 18.45 4.49
6 7 14 9.22 2.31
-16 7 8 6.41 3.06
13 7 8 10.83 1.86
-6 11 7 18.14 1.81
13 1 13 15.29 2.11
-11 9 10 13.8 1.94
-6 9 13 8.82 2.26
-18 6 4 8.14 2.19
-5 10 11 13.6 1.95
-13 9 7 8.47 1.75
8 6 14 12.26 2.06
4 9 12 42.86 2.99
-8 3 19 10.65 4.04
8 11 2 6.58 3.39
1 6 17 19.78 3.15
-4 4 19 12.33 3.99
1 10 11 30.64 2.59
-11 3 18 9.42 2.71
-3 4 19 9.35 3.86
0 12 3 10.42 1.69
3 1 19 8.12 3.43
-19 4 8 21.98 2.05
2 12 2 8.23 1.77
16 4 8 18.03 2.04
19 3 3 9.02 1.91
-5 8 15 26.68 2.54
13 8 6 7.18 2.58
-12 6 15 9.24 2.26
19 2 4 9.31 1.83
1 7 16 9.87 2.26
-17 7 3 32.22 3.24
17 5 5 9.77 2.44
12 1 14 10.09 3.88
15 1 11 11.83 2.13
-18 6 5 17.02 2.1
9 2 16 20.21 2.21
-20 3 6 139.64 5.67
6 9 11 16.43 2.16
3 12 1 7.95 2.42
-2 12 3 18.99 2.07
-12 9 9 9.68 3.7
-2 4 19 10 3.78
20 0 2 35.32 3.42
17 2 8 6.73 3.71
-6 1 20 11.26 2.48
17 6 3 14.5 2.19
-17 6 9 13.58 1.95
-19 5 3 17.93 1.96
-19 5 4 6.7 2.44
4 10 10 45.01 2.86
0 8 15 7.11 1.66
-16 6 11 29 2.26
-14 9 1 16.8 2.04
4 11 7 23.41 2.24
10 3 15 7.5 2.73
-10 10 8 10.67 2.47
-20 1 9 36.65 2.51
-19 3 10 19.2 5
-18 3 12 10 1.63
-19 5 2 35.61 2.76
-7 0 20 28.36 3.16
13 9 3 8.35 2.15
9 10 6 15.34 1.9
-19 5 5 9.51 2.46
2 9 13 9.35 2.73
-6 10 11 13.51 1.94
-12 10 3 19.33 2.22
-3 2 20 10.5 3.97
13 2 13 7.95 3.91
14 2 12 61.15 3.52
6 1 18 7.55 3.75
-1 12 4 8.21 2.72
-13 7 13 19.57 2.07
-12 8 12 33.28 2.53
0 12 4 8.4 2.59
19 4 2 8.77 2.68
-4 12 2 8.64 1.68
-7 1 20 7.92 2.57
10 8 10 10.98 1.87
-15 4 15 13.23 1.99
8 1 17 8.05 2.04
20 3 0 27.25 2.44
-8 5 18 38.65 3.28
-15 5 14 14.48 2.05
11 6 12 9.49 2.2
18 6 0 13.65 3.69
-2 11 9 18.86 2.11
-13 0 18 23.81 2.96
18 1 7 9.02 2.87
-8 11 6 9.38 1.8
-16 7 9 8.57 1.67
15 2 11 10.58 4.22
-9 11 4 11.16 1.7
-8 7 16 11.04 1.73
2 7 16 50.97 3.21
1 12 4 25.57 2.03
1 8 15 10.46 2.72
-11 10 7 10.15 1.72
-18 2 13 10.42 2.96
9 11 1 13.12 1.87
-6 2 20 9.35 2.37
18 3 6 10.19 2.49
-19 4 9 10.36 1.91
-7 4 19 10.32 2.72
3 11 8 11.52 1.85
0 11 9 26.18 2.33
-19 0 12 22.74 3.46
-13 1 18 26.31 2.22
5 3 18 10.91 2.81
-15 8 8 20.19 2.24
-21 1 4 44.13 3.19
18 4 5 36.91 2.84
8 4 16 9.85 3
-21 1 3 11.28 2.08
-20 2 9 37.87 2.62
5 9 12 8.75 2.34
-16 8 4 20.38 2.36
-1 2 20 7.23 3.57
10 6 13 14.48 3.8
4 12 2 6.34 3.39
-21 1 5 13.71 2.6
17 4 7 14.34 1.93
-17 4 13 7.42 2.53
7 11 5 14.3 1.88
-2 10 12 10.93 1.92
11 9 7 8.07 2.1
14 6 9 9 1.8
2 12 4 28.13 2.29
19 5 0 7.63 4.07
-3 10 12 20.21 2.29
-14 9 6 11.32 1.98
-20 4 4 21.72 2.13
-21 1 2 36.65 2.8
-20 4 3 49.13 3.15
10 0 16 13.4 4.25
-8 1 20 8.45 1.71
15 5 9 13.69 2.02
15 8 3 11.5 3.73
5 12 0 9.27 1.63
5 11 7 8.17 2.35
-4 9 14 8.77 2.2
15 4 10 8.73 2.78
-14 6 14 9.25 2.34
-9 6 17 12.45 2.41
1 11 9 10.58 4.22
-12 3 18 8.87 2.31
-9 11 5 25.82 2.26
-1 12 5 9.47 2.84
17 6 4 8.64 2.75
-20 3 8 28.71 2.35
17 3 8 9.18 3.77
-18 5 10 10.54 1.85
16 2 10 7.39 3.74
-17 3 14 11.4 1.9
-19 5 7 14.66 4.28
-8 9 13 8.21 3.6
-20 1 10 9.66 1.98
-20 4 5 22.63 2.14
9 11 2 13.27 1.88
-20 4 2 9.55 2.87
18 2 7 10.98 2.01
-21 1 6 9.51 2.48
20 1 3 9.96 2.46
17 7 1 12.16 4.15
5 5 17 9.51 3.95
8 11 4 18.65 2.05
-17 1 15 9.02 2.72
16 7 4 36.43 2.68
15 7 6 25.6 2.4
-3 7 17 9.85 2.73
0 10 12 14.18 2.03
-17 5 12 37.2 2.56
-5 12 3 7.06 3.9
-4 7 17 8.79 2.4
-5 11 9 35.25 2.53
10 7 12 9.75 3.55
-21 1 1 21.72 2.18
1 12 5 13.29 1.88
-4 3 20 46.06 6.35
-10 8 14 15.08 1.98
-2 7 17 9.51 3.61
11 10 4 12.16 1.82
13 7 9 9.49 1.85
-21 2 4 11.02 2.03
-11 2 19 10.85 1.98
3 7 16 9.96 2.92
3 12 4 21 1.9
12 9 6 10.04 2.74
9 6 14 28.8 3.28
-5 10 12 22.66 2.48
-20 4 1 41.42 3.09
-16 6 12 11 1.71
-9 0 20 18.76 2.83
-16 8 6 9.85 3.87
-21 2 5 10.42 4.21
-8 8 15 9.96 1.87
14 9 2 47.91 3.57
-13 9 9 9.6 1.93
5 12 2 7.72 3.91
-8 2 20 13.01 1.99
5 8 14 27.41 2.51
7 0 18 6.66 3.55
-16 7 10 25.66 2.28
-19 4 10 13.71 2.38
16 4 9 9.85 1.96
-18 4 12 7.63 2.66
-18 3 13 8.04 3.34
-9 11 6 12.05 1.92
1 10 12 6.83 3.56
9 5 15 13.87 3.26
7 10 9 8.73 2.52
-6 3 20 6.91 3.81
-6 9 14 19.02 2.41
-20 2 10 22.83 2.26
-4 12 5 21.14 2.04
16 5 8 25.3 2.44
-21 2 6 25.48 2.45
-6 12 2 9.18 3.93
20 2 3 22.09 2.4
18 6 2 10.89 2.26
10 2 16 8.63 2.45
21 1 0 16.36 2.04
7 1 18 8.96 2.01
17 2 9 10.63 2.09
-17 2 15 28.48 2.34
1 9 14 7.18 2.61
16 8 1 31.14 3.38
-3 8 16 11.28 2.01
-1 3 20 11.26 4.31
4 9 13 18.32 2.29
20 3 2 32.76 2.78
-17 7 8 8.96 1.8
19 1 6 8.7 4.02
-20 4 7 11.18 2.41
20 4 0 47 3.33
-21 2 1 11.32 1.96
-4 8 16 12.05 2.67
15 8 4 25 2.46
15 0 12 11.26 3.02
-12 5 17 8.45 2.35
13 0 14 20.54 3.51
-21 0 8 10.09 3.8
-14 0 18 6.58 3.64
6 6 16 7.8 3.74
6 11 7 16.29 2.23
-6 12 3 10.69 1.69
4 12 4 9.73 1.89
14 1 13 8.84 2.46
-15 9 3 7.23 3.65
20 0 4 19.36 3.51
-16 8 7 10.09 1.91
-12 10 7 16.36 2.09
5 12 3 7.44 2.18
6 10 10 26.96 2.52
-13 7 14 15.5 2.17
18 4 6 7.5 2.82
-14 8 11 6.5 3.63
-15 2 17 7.58 1.77
-5 8 16 17.65 2.34
9 1 17 6.73 2.57
-15 9 4 10.58 3.97
-21 1 8 13.47 1.92
0 11 10 14.03 1.89
18 1 8 11.12 2.62
-20 1 11 6.99 3.65
13 9 5 20.57 2.31
-21 2 7 23.2 2.46
17 6 5 7.72 3.42
-17 6 11 10.17 4.12
-15 9 1 10.3 1.91
-4 11 10 10.46 2.89
-7 9 14 10.6 2.11
12 10 3 14.75 1.91
19 5 2 8.89 2.06
-10 11 5 8.98 2.45
-9 2 20 9.59 3.87
-7 7 17 15.15 2.71
5 11 8 19.6 2.2
-10 0 20 17.6 2.82
-16 4 15 6.83 3.56
4 7 16 27.15 2.66
-16 5 14 61.11 3.47
-14 9 8 6.34 3.46
-19 6 4 20.78 2.41
-6 12 4 9.11 2.41
12 8 9 19.89 2.27
-9 11 7 7.8 3.74
16 6 7 26.25 2.49
13 10 0 10.38 2.76
-11 3 19 13.87 2.01
6 12 2 15.83 1.86
-21 3 3 9.6 2.62
-12 9 11 26.62 2.54
-15 4 16 10.09 2.1
-18 7 4 8.89 2.77
-19 6 2 9.73 2.43
-11 10 9 16.78 2.19
16 8 2 25.76 3.14
-18 7 2 14.46 2.69
-10 1 20 8.7 4.09
0 8 16 16.22 2.75
-17 4 14 12.71 2.18
1 7 17 36.72 3.38
1 11 10 7.58 2.31
-19 5 9 8.93 2.17
-19 6 5 37.23 2.82
-11 9 12 25.15 2.5
-7 11 9 11.44 1.79
15 9 0 25 2.43
2 12 6 21.61 2.18
1 6 18 7.06 2.64
-12 7 15 21.45 2.45
8 9 11 10.75 2.05
-7 12 1 26.34 2.31
-5 11 10 10.07 1.83
8 5 16 11.12 3.1
14 2 13 7.67 2.83
-9 10 11 11.4 2.09
-13 9 10 17 2.2
11 6 13 10.67 2.47
17 7 3 34.75 3.47
-17 7 9 19.89 2.25
7 12 0 16 2.04
14 6 10 8.12 4.01
-20 3 10 9.68 3.94
12 9 7 21.2 2.38
-18 7 1 12.77 2.7
13 2 14 13.08 2.63
6 8 14 16.17 2.87
13 8 8 19.47 2.38
-3 10 13 9.07 2.48
-21 2 8 42.78 3.06
-16 7 11 8.89 2.54
-20 5 4 11.3 1.77
-20 5 3 9.35 2.27
-16 3 16 18.37 2.03
-1 12 7 12.75 1.93
15 5 10 11.6 2.15
-5 4 20 19.95 5.02
-2 12 7 11.99 4.56
-6 12 5 7.16 2.1
-1 10 13 7.63 3.9
4 8 15 9.96 2.86
-21 1 9 8.61 4.42
17 0 10 13.12 3.17
11 0 16 10.5 4.54
-5 12 6 16.78 1.92
-16 6 13 11.6 1.98
0 12 7 37.42 2.72
-8 9 14 6.58 3.47
-20 5 5 9.85 4.11
6 12 3 6.99 3.81
3 1 20 21.09 3.31
8 10 9 11.74 4.22
-10 9 13 11.62 2.02
-18 7 6 11.64 2.13
-17 8 3 8.61 3.84
10 10 7 8.49 2.46
-17 8 2 7.87 3.99
3 12 6 8.89 2.52
7 11 7 18.55 2.48
12 10 4 22.2 2.23
-17 1 16 7.58 2.21
11 7 12 8.7 3.85
8 0 18 17.75 3.41
8 11 6 9 2.27
13 7 10 8.59 1.86
10 6 14 8.36 2.89
7 9 12 10.04 2.51
-7 12 4 8.86 2.52
-20 0 12 58.55 4.41
10 11 3 10.04 2.85
1 12 7 13.4 1.91
11 11 0 8.04 4
-20 4 9 11.99 3.1
2 6 18 6.5 3.48
-14 9 9 14.64 2.09
-8 10 12 16.19 2.32
-16 1 17 24.79 2.33
7 10 10 25.73 2.56
-18 6 10 20.62 2.42
-19 6 7 8.7 4.09
-4 12 7 11.44 1.72
-8 11 9 8.77 1.92
13 9 6 10.91 2.42
-7 1 21 10.61 2.97
-20 1 12 51.91 3.2
14 8 7 8.12 3.6
-11 7 16 7.39 3.74
7 3 18 13.45 2.73
-13 8 13 20.43 2.25
-18 5 12 18.45 2.09
9 11 5 25.51 2.36
11 10 6 8.36 3.84
-14 8 12 22.01 2.31
-7 4 20 10.25 4.04
-17 6 12 8.12 4.25
8 4 17 13.76 2.85
5 12 5 10.61 2.56
11 11 1 24.17 2.27
-11 10 10 14.36 2.11
-11 11 5 18.08 2.27
-8 8 16 20.11 2.5
2 8 16 10.09 3.95
-8 12 1 9.07 2.37
-19 0 14 100.8 5.78
-9 7 17 11.62 2.43
-13 10 7 11.1 1.96
2 3 20 13.23 4.18
-12 8 14 36.76 2.73
4 12 6 17.42 2.18
13 3 14 25.94 2.63
-9 9 14 7.06 3.56
-7 11 10 20.62 2.18
-14 3 18 8 2.74
-11 4 19 10.36 1.95
-3 7 18 11.99 4.47
-4 7 18 6.34 3.55
-19 1 14 9.18 4.26
9 6 15 10.32 4.29
-15 8 11 10.28 3.18
5 8 15 9.75 3.12
4 4 19 7.87 3.74
-13 7 15 11.74 4.41
7 12 3 14.27 2.02
10 1 17 6.83 3.8
6 9 13 13.76 2.14
-5 7 18 16.34 3.23
1 9 15 7.31 3.82
8 12 1 10.63 2.62
3 6 18 17.6 4.49
-16 5 15 12.08 3.11
-11 9 13 11.04 3.03
2 10 13 8.36 4
-11 11 6 9.11 4.19
-17 4 15 29.94 2.59
9 5 16 14.07 3.29
-12 5 18 17.3 2.27
-17 5 14 8.16 2.97
-7 12 6 11.56 2.02
-14 9 10 9.51 2.52
-12 0 20 55.07 4.76
-2 8 17 7.72 4.07
-1 13 1 16.63 1.93
1 13 1 9.4 2.61
-15 4 17 12.33 2.15
5 12 6 10.17 4.45
-9 1 21 10.83 4.63
2 13 0 8.77 4.18
-16 6 14 10.11 2.19
-12 1 20 16.34 2.23
-6 11 11 12.24 3.11
8 9 12 8.98 2.52
10 2 17 11 2.25
-8 11 10 7.87 4.31
-14 1 19 8.28 4.01
2 11 11 9.87 2.68
-10 5 19 8.71 2.36
5 10 12 16.65 2.28
2 9 15 9.11 2.9
-3 10 14 8.73 2.84
2 12 8 8.82 2.53
-14 6 16 25.18 3.16
-4 10 14 8.36 2.97
-1 10 14 9.42 4.35
5 9 14 11 4.54
9 1 18 10.91 2.22
-11 3 20 10.09 3.02
-12 2 20 7.14 3.89
5 1 20 6.99 3.73
-16 0 18 8.21 3.07
-7 5 20 20.54 3.62
4 8 16 8.89 2.94
-2 9 16 13.23 4.66
-15 3 18 23.61 2.54
-13 6 17 11.68 2.63
-5 9 16 14 2.29
-6 0 22 13.16 4.84
-7 0 22 21.81 5.45
-8 0 22 8.36 4.41
