#------------------------------------------------------------------------------
#$Date: 2020-06-06 01:23:54 +0300 (Sat, 06 Jun 2020) $
#$Revision: 252947 $
#$URL: file:///home/coder/svn-repositories/cod/cif/2/02/21/2022139.cif $
#------------------------------------------------------------------------------
#
# This file is available in the Crystallography Open Database (COD),
# http://www.crystallography.net/. The original data for this entry
# were provided by IUCr Journals, http://journals.iucr.org/.
#
# The file may be used within the scientific community so long as
# proper attribution is given to the journal article from which the
# data were obtained.
#
data_2022139
loop_
_publ_author_name
'Okuniewski, Andrzej'
'Rosiak, Damian'
'Chojnacki, Jaros\/law'
_publ_section_title
;
 Impact of the anion and chalcogen on the crystal structure and properties
 of 4,6-dimethyl-2-pyrimido(thio)nium halides
;
_journal_coeditor_code           WP3004
_journal_issue                   5
_journal_name_full               'Acta Crystallographica Section C'
_journal_page_first              468
_journal_page_last               475
_journal_paper_doi               10.1107/S2053229620005525
_journal_volume                  76
_journal_year                    2020
_chemical_formula_iupac          'C6 H9 N2 S +, I -'
_chemical_formula_moiety         'C6 H9 N2 S +, I -'
_chemical_formula_sum            'C6 H9 I N2 S'
_chemical_formula_weight         268.11
_chemical_name_common            '4,6-Dimethyl-2-pyrimidothionium iodide'
_chemical_name_systematic
;
4,6-Dimethyl-2-sulfanylidene-2,3-dihydropyrimidin-1-ium iodide
;
_space_group_crystal_system      orthorhombic
_space_group_IT_number           63
_space_group_name_Hall           '-C 2c 2'
_space_group_name_H-M_alt        'C m c m'
_atom_sites_solution_hydrogens   mixed
_atom_sites_solution_primary     dual
_audit_creation_method
;
Olex2 1.2
(compiled 2018.05.29 svn.r3508 for OlexSys, GUI svn.r5506)
;
_cell_angle_alpha                90
_cell_angle_beta                 90
_cell_angle_gamma                90
_cell_formula_units_Z            4
_cell_length_a                   8.7198(14)
_cell_length_b                   15.095(3)
_cell_length_c                   7.0716(11)
_cell_measurement_reflns_used    1294
_cell_measurement_temperature    120
_cell_measurement_theta_max      26.65
_cell_measurement_theta_min      3.89
_cell_volume                     930.8(3)
_computing_cell_refinement
;
X-AREA (Stoe & Cie, 2009)
;
_computing_data_collection
;
X-AREA (Stoe & Cie, 2009)
;
_computing_data_reduction
;
X-RED32 (Stoe & Cie, 2009)
;
_computing_molecular_graphics
;
OLEX2 (Dolomanov <i>et al.</i>,  2009)
;
_computing_publication_material
;
OLEX2 (Dolomanov <i>et al.</i>,  2009)
;
_computing_structure_refinement
;
SHELXL2018 (Sheldrick, 2015b)
;
_computing_structure_solution
;
SHELXT (Sheldrick, 2015a)
;
_diffrn_ambient_temperature      120.0
_diffrn_detector                 'image plate (34 cm diameter)'
_diffrn_detector_area_resol_mean 6.67
_diffrn_measured_fraction_theta_full 0.996
_diffrn_measured_fraction_theta_max 0.997
_diffrn_measurement_device       '2-circle goniometer'
_diffrn_measurement_device_type  'Stoe IPDS 2T'
_diffrn_measurement_method       'rotation method'
_diffrn_radiation_monochromator  'parabolic x-ray mirror'
_diffrn_radiation_probe          x-ray
_diffrn_radiation_type           MoK\a
_diffrn_radiation_wavelength     0.71073
_diffrn_reflns_av_R_equivalents  0.0579
_diffrn_reflns_av_unetI/netI     0.0292
_diffrn_reflns_limit_h_max       11
_diffrn_reflns_limit_h_min       -11
_diffrn_reflns_limit_k_max       20
_diffrn_reflns_limit_k_min       -20
_diffrn_reflns_limit_l_max       9
_diffrn_reflns_limit_l_min       -9
_diffrn_reflns_number            7434
_diffrn_reflns_theta_full        25.242
_diffrn_reflns_theta_max         28.887
_diffrn_reflns_theta_min         3.948
_diffrn_source                   'microfocus sealed X-ray tube'
_diffrn_source_current           1.000
_diffrn_source_power             0.050
_diffrn_source_voltage           50
_exptl_absorpt_coefficient_mu    3.60
_exptl_absorpt_correction_T_max  0.8373
_exptl_absorpt_correction_T_min  0.5204
_exptl_absorpt_correction_type   integration
_exptl_absorpt_process_details
;
[X-RED32 (Stoe & Cie, 2009), analogous to Coppens (1970)]
;
_exptl_crystal_colour            yellow
_exptl_crystal_density_diffrn    1.913
_exptl_crystal_description       plate
_exptl_crystal_F_000             512
_exptl_crystal_size_max          0.17
_exptl_crystal_size_mid          0.123
_exptl_crystal_size_min          0.05
_refine_diff_density_max         1.104
_refine_diff_density_min         -0.880
_refine_ls_extinction_method     none
_refine_ls_goodness_of_fit_ref   1.072
_refine_ls_hydrogen_treatment    mixed
_refine_ls_matrix_type           full
_refine_ls_number_parameters     42
_refine_ls_number_reflns         708
_refine_ls_number_restraints     6
_refine_ls_restrained_S_all      1.067
_refine_ls_R_factor_all          0.0270
_refine_ls_R_factor_gt           0.0245
_refine_ls_shift/su_max          0.000
_refine_ls_shift/su_mean         0.000
_refine_ls_structure_factor_coef Fsqd
_refine_ls_weighting_details
'w=1/[\s^2^(Fo^2^)+(0.0431P)^2^] where P=(Fo^2^+2Fc^2^)/3'
_refine_ls_weighting_scheme      calc
_refine_ls_wR_factor_gt          0.0593
_refine_ls_wR_factor_ref         0.0599
_reflns_number_gt                661
_reflns_number_total             708
_reflns_threshold_expression     'I > 2\s(I)'
_cod_data_source_file            wp3004sup1.cif
_cod_data_source_block           10
_cod_database_code               2022139
_shelx_space_group_comment
;
The symmetry employed for this shelxl refinement is uniquely defined
by the following loop, which should always be used as a source of
symmetry information in preference to the above space-group names.
They are only intended as comments.
;
_shelx_estimated_absorpt_t_min   0.580
_shelx_estimated_absorpt_t_max   0.841
_shelx_hkl_file
;
  -9 -11  -2  217.77   10.21
  -8 -12  -4    6.66   11.08
  -8 -10  -3  138.10   11.25
  -7  -9   6   18.68   10.99
  -6 -10  -5   68.07   11.09
  -6  -6   5   78.48    9.38
  -5  -5  -3   87.07    7.41
   3  -9  -7  192.94   23.22
   5  -7   8    3.81   12.65
   5  -5   7   22.90   10.92
   5  -1   0   12.18    4.69
   6  -6   7   43.66   10.59
   6  -2  -1  701.11   11.31
   7  -7   7  190.84   13.21
   9  -7   5  131.06    9.20
   9  -5   3   19.63    8.50
  -8 -10   5   58.99   11.27
  -8  -8  -1   27.77    5.68
  -8  -8   3   14.88    8.61
  -7  -7  -2  220.59    9.03
  -6  -8  -4  209.53    8.91
  -4  -2   0  376.04    8.90
  -3  -3   5  212.04   11.74
   3  -1  -2  123.31    7.69
   7  -5   6  193.61   10.64
   7  -3   4  347.65    9.45
   8  -4   4   22.81    7.65
   9  -5  -1   33.76    5.91
  10  -6   0   92.32    6.96
  10  -6   2   58.50    6.86
  -9 -11  -1   -2.15    7.94
  -9 -11   3    1.39   11.11
  -8  -8   0  187.75    8.95
  -8  -8   2  177.54    9.17
  -6  -8   6  132.00   11.48
  -5  -5   5   53.33    8.06
  -4 -10  -6   53.93   11.16
  -4  -4   5  941.34   17.16
  -4  -2   1 1921.00   18.47
  -1  -7  -6  116.01   12.63
   2   0   3    1.06    5.21
   4  -6   8   68.18   12.19
   4   0   1    1.27    5.28
   6  -8  -6  120.37   13.66
   6  -6  -5   88.45    9.67
   6  -4   6   15.44    8.59
   7  -7  -5  452.09   14.29
   7  -3  -2  470.34    9.99
   8  -6   6   63.57   11.43
   8  -4  -2   23.57    6.91
   9  -5   4  237.89   10.62
  10  -8  -3    6.33   10.70
  10  -6  -1   38.75    8.99
  10  -6   3   34.87    7.31
  11  -7   1  150.39   11.99
  -9 -11   0  278.55   10.25
  -9 -11   1   -1.51   10.66
  -9 -11   2  258.05   12.11
  -8 -10  -2   98.52    9.29
  -8  -8   1   24.13    5.95
  -7 -11  -4  322.30   11.55
  -7  -9  -3  335.58    8.60
  -6  -6  -2  337.46    9.21
  -5  -9  -5  407.21   10.26
  -5  -7  -4   78.73    5.84
  -2  -4  -4   42.79    6.62
  -1  -5  -5   93.19    9.48
  -1  -3   6  413.32   31.90
   4  -4   7  404.45   13.52
   4   0   2 1957.38   18.42
   5  -7  -6   39.29   11.40
   5  -5  -5   63.99    9.74
   5  -3   6  176.95    9.65
   6  -2  -2  524.48   10.24
   7  -9  -6   32.45   12.78
   8  -8  -5    8.90   11.23
   8  -6  -4  121.78    9.09
   9  -5  -2  330.33    9.54
  10  -6   4   35.37   10.57
  11  -7   0   22.73    8.36
  -9 -13  -1  117.88   13.18
  -8 -10   4   75.01    8.49
  -7  -9   5  195.68   10.93
  -7  -7   3  665.52   12.08
  -6 -12  -5  181.14   12.71
  -6  -6   4  248.77    8.90
  -4  -6  -4  264.00    8.70
  -3  -9  -6  224.89   11.43
  -2  -8  -6  221.20   11.82
   1  -9  -7  246.91   23.44
   4   0   0 2339.84   20.49
   5  -1   4   19.99    6.14
   6  -4  -4   34.31    7.53
   7  -3   5  113.60    8.51
   8  -4   5  219.72   10.12
   9  -7  -4   38.45    9.21
  10  -6  -2   61.84    8.63
  11  -7  -1  154.66   11.58
  -9 -13   0  115.65   13.07
  -8 -10  -1  147.20    8.97
  -7  -7   0  241.91    8.42
  -7  -7   2  200.94    8.71
  -6  -8  -3   17.80    7.29
  -5 -13  -6   77.72   11.69
  -5  -9   7  189.11   14.57
  -5  -7   6   42.21    9.65
  -5  -5  -2  944.79   12.22
  -3 -13  -7   29.19   13.61
   2  -2   6  310.40   13.10
   2   0  -1    2.29    5.27
   3  -1   5  513.02   12.39
   4   0   3    1.85    5.38
   6  -2   5  289.34    8.84
   7  -1   1  136.03    6.77
   8  -2   1  319.58    7.25
   8  -2   2  330.75    8.88
   9  -5   5   19.57    7.22
   9  -3   0  242.87    8.55
   9  -3   1   53.37    5.38
   9  -3   2  185.30    8.35
  10  -4   1  354.49    9.74
  -9 -13   1  104.96   11.74
  -8 -12  -2   17.31   10.83
  -8 -10   0  141.00    9.15
  -8 -10   3   99.34    7.44
  -7 -13  -4   97.95   11.39
  -7  -9  -2  108.21    8.35
  -7  -7   1  811.49   10.87
  -6 -10  -4  100.49    8.48
  -4  -4  -2   55.75    5.88
  -2  -6  -5  127.55    8.35
   3  -5   8  131.99   14.34
   5  -1  -2   17.27    5.67
   7  -5   7   30.50    9.77
   7  -3  -3  199.70    8.47
   7  -1   2  160.37    5.90
   8  -4  -3  314.44    9.44
   8  -2   3  228.95    8.67
   9  -5  -3   38.17    8.90
   9  -3   3   45.63    8.11
  10  -4   0   16.07    8.14
  10  -4   2   10.01    5.98
  -8 -12   4    6.69   11.64
  -8 -10   1  145.11    8.83
  -8 -10   2   89.92    7.17
  -7 -11  -3   -0.25    6.98
  -7  -9   4   86.01    9.46
  -6 -14  -5   43.75   13.78
  -6  -8   5   11.34    8.05
  -6  -6   3  105.91    7.67
  -5 -11  -5   22.48    9.76
  -5  -5   4  567.38   10.94
  -4  -6   6  149.98   10.79
  -2 -12  -7  139.03   13.50
   1  -1   5  213.48   12.39
   4  -2   6  142.17    9.03
   4   0  -1    0.70    5.58
   6  -4   7  181.13   10.97
   6   0   1    4.44    5.40
   7  -1   3   84.52    6.86
   8  -2  -1  340.04    8.65
   9  -3  -1   61.65    7.37
  10  -6  -3   36.84   10.07
  10  -4  -1  333.33    9.65
  10  -4   3  257.92    8.41
  11  -5   0  120.36   10.43
  11  -5   1   19.42    7.47
  11  -5   2  115.33   10.55
  -8 -14  -2   52.93   12.97
  -8 -12  -1  227.19   11.34
  -7  -9  -1  489.07   10.26
  -6 -10   6   47.53   11.04
  -6  -6   2  345.01    9.19
  -5  -7  -3  805.76   12.23
  -1 -11  -7    2.52   12.43
   1  -5   8  187.00   19.73
   3  -3   7   81.30    9.13
   4  -6  -6  161.96   14.68
   4  -4  -5  965.03   19.81
   5  -5   8  105.36   14.03
   5  -1   5  349.44    9.26
   6   0   0 2375.64   18.78
   6   0   2 1714.22   14.66
   7  -3   6  193.38    9.20
   7  -1  -1  130.05    7.17
   8  -4   6    5.49   10.01
   8  -2   4  226.19    8.89
   9  -3   4  136.23    7.50
  10  -4   4    5.59    9.81
  -8 -12   0   23.23    9.57
  -8 -12   3  157.57   10.90
  -7 -11   5   -1.61    7.91
  -7  -9   3  333.49   10.16
  -6 -12  -4   -1.20    9.29
  -6  -8  -2  304.34    8.97
  -6  -6   1  150.97    6.09
  -5  -9  -4  255.44    7.82
  -4  -8   7    4.25   10.11
  -4  -4   4   31.81    5.86
  -3  -5   6  341.74   13.82
   0 -10  -7   92.38   13.37
   4   0   4 1068.73   13.16
   5  -9  -7  120.31   18.55
   6   0   3    3.19    6.48
   7  -1   4  119.27    7.39
   9  -3  -2  208.93    8.46
  11  -5  -1   18.23    7.26
  -8 -14  -1   32.24   12.50
  -8 -12   1  224.51   11.00
  -8 -12   2   23.48    9.19
  -7 -13  -3  168.68    9.62
  -7 -11  -2  470.36   10.09
  -7  -9   0  122.06    7.49
  -7  -9   2  118.83    8.04
  -6 -10  -3  132.31    8.77
  -5  -5   3   72.96    6.62
  -4 -10  -5   11.63    8.38
  -4  -6  -3  174.32    7.52
  -3 -11  -6  492.01   14.60
  -3  -9   8   73.91   15.92
  -3  -3   4  281.44   10.70
  -2  -2   4  547.78   16.27
   3   1   1 1323.86   15.86
   5  -3   7   42.29    9.78
   6  -2   6  173.02    9.35
   7  -5  -5   46.43   10.68
   8  -6  -5   26.49   10.06
   8  -2  -2  334.56    7.44
   9  -3   5   25.19    9.15
  10  -4  -2   10.61    5.85
  -7  -9   1  392.02    8.37
  -6  -8   4  204.44    8.81
  -5 -13  -5   80.00   11.30
  -5  -7   5  481.54   11.85
  -5  -5   2  939.78   12.41
  -2  -4   6   15.26    9.76
   3  -1  -3  925.57   17.43
   3   1   2  118.92    5.73
   5   1   1  819.02   11.29
   6   0  -1   -1.72    4.72
   6   0   4 1058.88   12.67
   7  -7  -6   53.67   14.04
   7  -1  -2  168.05    7.70
   8  -8  -6   40.68   13.21
   8  -4  -4   17.35    8.34
   8  -2   5  124.04    8.48
   9  -1   1  146.27    7.28
  10  -6  -4   50.72   10.10
  10  -2   2   91.80    7.58
  -8 -14   0   81.81    8.56
  -8 -14   1   68.16   11.91
  -8 -14   2   69.17   12.22
  -7 -15  -3  147.64   10.77
  -7 -11  -1    4.05    7.77
  -6 -14  -4  101.87   11.74
  -5 -11   7    5.55   10.83
  -5  -9   6  138.12   11.62
  -5  -7  -2  105.51    7.01
  -5  -5   1   89.21    5.15
  -4  -8  -4  384.59    8.69
  -3  -7   7  293.97   14.70
  -3  -5  -3  202.35    7.51
  -3  -3  -1  930.23   13.42
   4  -4   8    3.42   11.26
   4   0  -2 1840.39   18.57
   5  -1  -3  590.50   11.35
   5   1   2   11.41    4.02
   7  -3  -4  331.43   10.29
   7  -1   5   57.69    7.92
   8   0   1    1.00    6.00
   9  -1   0   24.49    7.15
   9  -1   2   24.86    5.06
   9  -1   3  116.50    7.48
  10  -2   0  103.82    8.41
  10  -2   3  188.14    9.15
  11  -3   0   60.38    8.39
  11  -3   1   59.09    6.88
  11  -3   2   35.13    9.04
  -7 -13  -2  108.12    7.91
  -7 -11   3   -3.64    8.46
  -6 -12   6   -0.32   10.65
  -6 -10   5   72.25    9.45
  -6  -8   3   20.98    7.08
  -5 -15  -5   77.40   13.58
  -5 -11  -4  566.69   12.23
  -4  -4   0   69.53    5.97
  -4  -4   3 1488.72   16.03
  -2 -10  -6   68.95    9.37
  -2  -2  -1 2773.21   25.84
   1  -3   7   67.84   13.27
   3   1   3  943.89   14.19
   4   0   5    0.76    5.49
   5   1   0   10.82    4.01
   6  -6  -6  127.86   12.56
   7  -3   7   35.01    9.30
   8   0   2 1100.55   11.42
   9  -3  -3   48.43    8.38
  10  -4  -3  284.56   11.40
  11  -3   3   40.89    7.47
  -7 -15  -2    8.11   12.00
  -7 -13   4   83.66   11.99
  -7 -11   1    5.91    8.17
  -7 -11   2  507.21   11.50
  -6 -12  -3  236.27    8.74
  -6 -10  -2  135.60    6.99
  -6  -8   2  272.33    8.10
  -5  -9  -3  712.43   10.40
  -3 -13  -6   69.08   11.50
  -2  -8   8   94.35   15.50
   3  -1   6   31.31    7.59
   5  -1   6   14.61    7.48
   6  -4   8    5.34   13.02
   6   0  -2 1679.18   15.94
   8  -2  -3  236.79    7.11
   8  -2   6  121.37    9.46
   8   0   3   -2.40    4.79
   9  -3   6   65.32    8.33
   9  -1  -1  141.71    6.46
   9  -1   4   20.92    7.93
  10  -2   4   66.26    7.25
  11  -3  -1   51.19    7.07
  -7 -13  -1  243.11    8.56
  -6  -8   1   24.56    4.68
  -5  -7   4   75.22    6.62
  -4 -12  -5  193.64   10.64
  -4  -6   5  102.25    7.94
  -4  -4   1 2258.13   18.34
  -4  -4   2   50.68    4.61
  -1 -13  -7   81.98   12.72
  -1  -9  -6  102.82   10.05
   0   0   3    1.67   10.84
   4  -2   7  269.80   11.65
   5   1  -1  841.39   11.90
   6  -2  -4  324.69    9.56
   6   0   5    2.78    6.41
   7   1   1  115.59    5.28
   7   1   2  154.39    6.11
   8   0  -1    1.38    6.39
   8   0   4  695.30   11.00
  -7 -13   0  159.51   10.25
  -7 -13   3  174.42   10.72
  -6 -14  -3  135.93   11.73
  -6 -10  -1  148.20    8.14
  -6 -10   4   87.12    8.89
  -5 -13  -4  150.91   10.32
  -4 -10   7    8.69   11.81
  -4  -6  -2  376.84    7.90
  -3  -3   0  411.13    9.72
  -2  -8  -5    7.66    6.82
  -2  -6   7   64.91   11.10
   2  -4   8    5.93   13.32
   5   1   4   18.76    6.07
   6  -2   7  125.51   10.21
   7  -1  -3   95.27    7.42
   7  -1   6   51.47    8.73
   7   1   0  184.42    6.48
   9  -1  -2   12.45    6.57
  10  -2  -2   87.35    8.32
  10  -2   5   92.87   10.96
  11  -3  -2   35.37    9.12
  -7 -15  -1  183.57    9.57
  -7 -13   1  245.50   10.64
  -7 -13   2  127.58    9.42
  -6 -12  -2   -0.20    7.90
  -6 -12   5  161.91   10.39
  -4 -14  -5  168.12   11.68
  -4 -10  -4   89.81    7.81
  -4  -8  -3    0.85    6.34
  -4  -8   6  239.38   10.78
  -2  -6  -4  502.49   10.93
   0  -8  -6  216.72   12.58
   1  -7  -6  100.06   13.22
   2   0  -2 2885.02   31.65
   2   0   5    0.31    6.54
   3   1  -1 1273.38   16.89
   3   1   4   61.25    6.26
   9  -5  -5   29.68   10.65
   9  -1   5   60.31    6.78
  10  -4  -4   10.67   10.22
  11  -1   1  138.33    9.38
  11  -1   2    5.64    8.58
  -7 -15   0    4.27   10.39
  -7 -15   3  142.65   11.58
  -6 -16  -3    9.89    8.53
  -6 -10   0  174.78    7.92
  -6 -10   3  113.31    8.26
  -5 -15  -4    2.59   10.16
  -5 -11  -3   24.79    7.51
  -5  -9  -2  377.69    7.86
  -5  -7   3  716.45   11.21
  -3  -3   1  909.68   13.90
  -3  -3   2  368.78    9.49
  -2 -12  -6    0.98    9.34
   0 -12  -7  125.92   13.24
   2  -6   9   21.54   21.58
   4   2   1 1780.14   16.70
   4   2   2  329.97    8.43
   5  -3  -5   74.44    9.52
   5  -3   8   68.48   12.39
   6  -8  -7    4.01   14.99
   6   2   2  466.99    9.26
   7   1  -1  132.86    5.84
   7   1   4   93.68    5.90
   8  -4  -5  213.43   11.40
   8   0  -2 1240.71   13.40
   8   0   5   -5.42    7.61
   9  -3  -4  147.93    9.76
  10   0   0  489.61   10.95
  10   0   1    2.60    6.00
  10   0   2  377.72    8.59
  10   0   3    2.89    7.28
  11  -1   0    5.09    8.75
  11  -1   3  112.55   10.15
  -7 -15   1  202.68    9.84
  -7 -15   2   12.06    8.70
  -6 -14  -2  158.93   11.31
  -6 -14   5   60.80   12.77
  -6 -12  -1  346.69   10.22
  -6 -12   4    4.17    9.80
  -6 -10   1  131.26    7.57
  -5  -7   2   91.70    6.80
  -4 -16  -5    8.78   12.41
  -3  -5  -2  776.03   11.39
  -3  -5   5  107.63    8.64
  -2  -2   0 1465.30   19.40
  -1  -7  -5  847.19   16.18
  -1  -7   8   36.71   15.38
   5  -5  -6  299.88   15.25
   6   0   6  523.64   11.49
   6   2   3  468.30    9.50
   8  -6  -6   78.12   12.22
   8  -2  -4  236.22    9.87
   8  -2   7   56.58   11.17
   9   1   0   20.31    7.02
   9   1   1  141.74    6.41
   9   1   2   23.15    5.29
  10  -2  -3  180.30   10.79
  11  -3  -3   40.11   10.63
  -6 -16  -2  331.22   13.42
  -1  -5  -4  947.43   16.18
  -1  -5   7   42.65   13.49
   1 -11  -7   -0.16   11.47
   1   1   1  311.08   12.65
   1   1   2  323.44   12.19
   2  -2   7  298.11   15.67
   4   0   6  544.71   12.42
   4   2   0  417.15    9.38
   4   2   3 1134.74   13.89
   5  -1   7  148.70   11.67
   5   1  -2   15.72    5.39
   5   1   5  300.14    8.81
   6   0  -3    3.94    5.73
   6   2   0  555.79    9.07
   7  -3  -5  100.32    9.16
   9  -1  -3  110.03    8.67
   9  -1   6    8.30   10.29
  10   0  -1    3.14    8.23
  10   0   4  250.92   10.65
  -6 -14  -1  180.50   10.22
  -6 -12   0    8.79    7.13
  -6 -12   3  283.12   10.22
  -5 -13  -3  130.31    7.73
  -5 -13   6   79.40   11.77
  -5  -9   4  268.58    8.79
  -4 -12  -4   50.54    8.17
  -4 -12   7  126.57   12.98
  -3  -9  -4  465.72   10.22
  -2 -14  -6  115.25   11.57
   3  -3   8   83.12   11.94
   4   0  -3   -0.06    5.31
   5  -1  -4   16.49    7.30
   7  -5  -6  160.80   12.13
   7  -1   7   31.18    8.91
   7   1  -2  166.19    7.59
   7   1   5   54.31    6.09
   8   2   1  311.13    7.36
   8   2   2  330.40    7.57
   9   1  -1  144.85    8.42
   9   1   4    6.45    7.75
  -6 -14   4   82.01    8.59
  -6 -12   1  317.68    9.55
  -6 -12   2    4.87    8.06
  -5 -15  -3  144.99   10.86
  -5 -11  -2  774.44   10.98
  -5 -11   5   18.27    8.65
  -4 -10  -3   18.09    6.93
  -4  -8  -2  591.09   10.41
  -3 -13  -5   63.82    9.44
  -3  -9   7  180.38   11.84
  -3  -7  -3  999.22   12.30
  -3  -7   6   74.66    9.04
  -2  -2   1 2848.08   27.94
  -2  -2   2 1113.71   17.89
  -1 -11  -6  356.53   12.63
  -1  -1   3  239.35   14.72
   0 -14  -7   32.33   12.17
   0  -6  -5   98.71    9.39
   3  -5   9   19.83   17.64
   6   2   4  292.15    7.34
   7  -1  -4   99.96    7.77
   8   0  -3   -7.88    6.75
   8   0   6  375.22   11.92
   8   2   0  407.71    8.25
   8   2   3  229.62    6.83
  10   0  -2  367.99    9.67
  10   0   5    0.38    9.82
  11  -1  -2    7.52    8.46
  -6 -16  -1    7.78    8.02
  -6 -14   0  151.69   10.05
  -6 -14   3  143.49   10.34
  -5 -17  -3   43.31   11.06
  -5  -9   3  753.86   11.58
  -4 -14  -4  161.88   10.20
  -4 -10   6   50.05    9.25
  -4  -8   5    3.07    6.79
  -2 -10  -5  112.83    8.53
   0  -4  -4   80.09    8.44
   2 -10  -7   53.90   14.72
   3   1   5  467.52   11.11
   4   2   4  235.21    7.94
   6  -2   8   69.58   10.99
   8   2   4  225.46    8.81
   9   1   5   60.73    8.24
  11   1   1  136.87    9.95
  11   1   2   10.25    8.91
  -6 -16   0  420.40   12.62
  -6 -16   3   10.59   11.60
  -6 -14   1  160.14    9.63
  -6 -14   2  121.29   10.16
  -5 -11  -1   42.28    6.98
  -5  -9   1  960.60   11.72
  -5  -9   2  427.73    9.05
  -4 -16  -4  250.25   12.42
  -4  -6   1  183.25    7.09
  -4  -6   2  380.38    8.62
  -3 -15  -5  150.53   10.27
  -3  -5  -1  299.36    8.11
  -2 -10   8   39.57   14.90
   1   1   3  244.83   11.55
   2  -2  -4  575.41   24.36
   3  -9  -7  154.12   23.32
   3  -1   7  201.54   11.82
   4   2  -1 1743.50   16.50
   5   3   1  175.13    6.98
   7   3   1  242.15    7.24
   7   3   2  508.09    9.36
   8   2  -1  328.64    7.50
   9  -3  -5   26.30   10.30
   9   1  -2   23.53    7.29
  10  -2  -4   60.28   10.56
  10   2   1  246.23   10.17
  10   2   2   96.74    8.76
  11   1   0    2.19    9.32
  11   1   3   78.48    7.74
  -6 -16   1   20.93   10.14
  -6 -16   2  297.63   12.83
  -5 -13   5   80.87    8.21
  -5 -11   4  511.79   11.57
  -2  -4   5  663.50   15.14
   1  -5  -5   85.01   10.95
   2   2   2 1078.08   16.38
   3  -3  -5  199.43   15.65
   3   1  -2  115.98    6.73
   4  -2   8   41.79   11.82
   5   1   6    9.91    7.16
   5   3   3  152.77    7.35
   6  -2  -5  274.74   12.02
   6   0   7   -0.44    7.73
   6   2   5  269.26    8.57
   7   1   6   55.14    8.62
   7   3   0  559.97    9.81
   7   3   3  188.26    7.69
   9  -1  -4   11.42    8.30
  10   2   0  122.24    9.50
  10   2   3  182.31    9.73
  11  -1  -3  105.08   11.09
  -5 -17  -2   28.90   10.99
  -5 -15  -2    0.71    7.32
  -5 -15   5   63.63   13.63
  -4 -12  -3  334.83    8.50
  -3 -11  -4  878.97   12.11
  -1 -13  -6  121.51   10.70
   0 -10  -6  129.20   11.54
   1 -13  -7   74.30   13.94
   5   3   0  476.70    8.67
   6  -4  -6    4.31   10.18
   6   2  -2  491.92    9.62
   7   1  -3   88.45    7.56
   8  -2  -5  144.91   11.59
   8   0   7    0.72    9.96
   8   2   5  135.97    8.98
   9   3   1   70.59    7.58
   9   3   2  228.77    8.73
  10   0  -3    5.38    9.23
  11   1  -1  118.08    7.84
  -5 -13  -1  181.77    7.58
  -5 -11   1   35.47    7.07
  -5 -11   3   10.33    7.47
  -4 -12   6   -1.38    9.33
  -4 -10  -2  118.86    6.05
  -4  -8   4  365.60    9.17
  -3 -11   7   32.85   10.88
   0  -6   8   59.52   17.12
   5   1  -3  561.73   10.69
   7   3  -1  224.47    7.77
   7   3   4  296.42    7.94
   8  -4  -6    5.93   12.04
   8   2  -2  318.42    7.48
   9   1   6   -0.22    8.01
   9   3   0  286.01    9.57
  10   2  -1  232.63    7.98
  -5 -17  -1   59.16   10.88
  -5 -15  -1  161.96    9.97
  -5 -11   2  728.68   10.30
  -4 -18  -3  152.05   11.89
  -4 -16  -3   14.17    9.08
  -4 -14  -3  293.95    8.63
  -4 -10   5   20.81    7.98
  -3  -7  -2  261.16    7.05
  -3  -5   0 1035.85   13.03
  -2  -8   7    2.13    9.91
  -1 -15  -6    0.99   10.78
  -1  -9  -5  570.63   12.67
  -1  -1   1    6.99    5.03
   1  -1   6   73.10   12.08
   2   2   3 1560.05   19.28
   4   0   7   -0.70    9.23
   5   3   4  261.21    7.08
   8   0  -4  790.01   13.29
   9   1  -3  115.37    8.45
   9   3   4  135.38    8.95
  10   2   5   97.02    9.77
  11   1  -2    1.30    8.95
  -5 -15   4    4.31    7.77
  -5 -13   0  248.61    7.63
  -5 -13   3  138.36    9.46
  -4 -14   6   99.37   11.19
  -4  -8   3    5.18    5.85
  -3 -15  -4   -3.05    9.56
  -3  -9   6  219.45   11.37
  -3  -7   5  596.68   12.15
  -3  -5   3  188.56    7.24
  -2 -14  -5  114.25    9.73
  -2  -6   6  234.22   11.06
  -1  -1   2  274.97   13.74
   2   0   6  692.12   17.30
   2   2   0 1522.62   19.65
   3   3   2  371.78    9.26
   5  -1   8    3.52   11.32
   5   3  -1  163.13    5.83
   6   2   6  141.29    8.49
   6   4   1 1025.32   11.80
   6   4   2   56.23    6.55
   7   3   5   98.53    7.76
   8   2   6  108.43    9.38
   8   4   1  457.09    9.08
   8   4   2   31.43    6.69
   9   3  -1   56.48    7.96
  10   2  -2   78.77    8.59
  11   3   1   50.16    9.81
  11   3   2   45.69    9.84
  -5 -17   0   42.88    9.60
  -5 -17   3   50.82   11.48
  -5 -15   0    3.86    6.14
  -5 -15   3  145.73   10.59
  -5 -13   1  179.21    7.34
  -5 -13   2  209.70    7.92
  -4 -12  -2   60.56    6.26
  -4  -8   2  617.83   10.31
  -3 -17  -4   22.87    9.49
  -3 -13   7   24.26   12.37
  -3  -5   1  325.13    8.34
  -3  -5   2  803.34   11.99
  -2 -16  -5   13.19   10.24
   3   3   1  906.74   12.93
   6   4   0   79.37    6.53
   6   4   3  663.75    9.80
   7   1   7   27.85    9.91
   8   4   0   44.08    6.97
   8   4   3  323.64    7.99
  10  -2  -5  107.23   12.70
  11   3   0   55.46   10.32
  11   3   3   41.74   10.42
  -5 -17   1   78.06    9.83
  -5 -17   2   36.70   10.16
  -5 -15   1  176.30    8.01
  -5 -15   2    2.63    7.31
  -4 -14  -2  270.67   10.18
  -4 -12   5  198.12   10.17
  -4 -10   4   94.78    7.69
  -3 -11  -3  108.61    8.31
  -2 -10  -4  149.77    8.05
  -2  -4  -1 1720.94   18.17
   0 -12  -6    3.73    9.25
   2 -12  -7  101.42   13.88
   3   1   6   27.77    7.21
   3   3   3  423.03    9.64
   4  -2  -5  599.97   16.60
   5   3   5   84.38    6.89
   6   2  -3  456.86    9.41
   7  -1  -5   63.36    8.64
   7   3  -2  449.25    9.47
   8   4   4   26.30    7.31
   9   3   5   22.17    6.75
  10   0  -4  258.03    9.99
  10   4   2   13.47    8.72
  11   1  -3   96.04   11.12
  -4 -18  -2  117.26    8.99
  -4 -16  -2  399.67    9.67
  -4 -14   5  164.04   11.83
  -1 -11  -5   -0.19    7.83
  -1  -9   8   40.70   12.88
  -1  -7  -4  220.65    8.53
   1  -9  -6   91.09   10.51
   3   3   0  436.91    9.65
   5   1   7  159.94   10.83
   6   4   4   36.69    6.71
   7  -3  -6  181.77   12.08
   7   1  -4  100.11    7.73
   8   4  -1  450.43   10.15
   9  -1  -5   76.97   11.06
   9   3  -2  193.44    7.19
  10   4   0   22.40    8.94
  10   4   3  264.95    9.06
  11   3  -1   69.16    9.89
  -4 -16   5   12.67   10.79
  -4 -12  -1  479.45    8.89
  -4 -10   3   22.26    6.88
  -3 -13  -3  125.73    8.73
  -3 -11   6  486.10   12.77
  -3  -9  -2  672.98   10.50
  -2  -4   4   39.23    6.12
   0 -14  -6   59.52   10.37
   1   1   4  156.19   10.17
   2   2   4  559.60   12.55
   4   2   6  131.41    9.38
   4   4   2   57.76    4.64
   6   0   8  190.50   13.10
   6   4  -1  982.64   11.82
   7   3   6  174.60    9.74
   7   5   1   92.76    6.36
   7   5   2  518.71    9.54
   9  -3  -6   77.35   13.02
   9   1  -4   10.36    8.72
   9   5   2  365.04    9.58
  10   2  -3  183.45   10.58
  10   4   4    6.17    9.52
  -4 -18  -1  239.55   10.79
  -4 -16  -1   24.24    9.32
  -4 -14  -1  360.26    9.95
  -4 -12   4   37.40    6.52
  -3 -17  -3   32.95    9.29
  -3 -15  -3  241.16   10.01
  -3  -7   4  153.10    7.12
  -2 -12  -4   -0.52    6.92
  -2 -10   7   62.85   10.92
  -2  -8  -3    7.61    5.96
  -2  -6  -2  825.94   12.39
  -1  -3   5  133.76   10.80
   0 -16  -6  142.37   12.99
   0  -8  -5   85.85    8.11
   3   3   4  264.73    8.40
   4   4   3 1595.73   15.77
   5  -1  -5  333.82   12.21
   6  -6  -7   35.02   19.17
   7   5   3   80.78    7.64
   8   2   7   45.13   11.26
   8   4   5  170.47   10.11
   9   3   6   85.02   12.04
   9   5   1   26.00    5.67
   9   5   3   26.26    8.96
  10   4  -1  371.45    9.27
  -4 -16   4  299.98   12.68
  -4 -14   4  154.64   10.07
  -4 -12   3  347.74   10.48
  -3 -13   6   64.67   11.23
  -3  -9   5  390.45   10.41
  -2 -18  -4   29.12   11.24
  -1 -17  -5   33.08   10.81
   4   4   0   68.08    5.96
   6   4   5  402.45    9.65
   7   5   0  590.02    9.07
   8   0  -5    6.07    8.59
   8   4  -2   23.77    6.83
   9   5   0  400.70    8.94
  -4 -18   1  261.55   11.46
  -4 -18   3  202.34   12.72
  -4 -16   3   15.62   10.10
  -4 -14   0  266.74    7.71
  -4 -14   3  309.11   10.52
  -4 -12   1  451.62   10.05
  -4 -12   2   54.13    8.54
  -3 -15   6   -0.16   11.53
  -3 -11  -2 1470.13   15.07
  -3  -7   3 1006.80   13.26
  -2 -16  -4  265.46    9.84
  -2  -4   0   90.49    5.19
  -1 -15  -5  135.11    7.91
  -1 -11   8  125.43   15.16
   2   2  -1 2662.16   25.89
   3   1  -3  835.53   15.63
   4   4   4   34.01    6.04
   5   1  -4   18.01    5.61
   5   3   6  151.33    9.04
   5   5   1  106.84    6.55
   5   5   2  904.76   11.84
   7   5   4  284.26    7.71
   8  -2  -6  123.76   13.38
   9   3  -3   34.53    6.00
   9   5   4  209.63    8.09
  10   4  -2   14.48    8.77
  11   5   1   36.66    8.18
  11   5   2  108.86    8.61
  -4 -18   2  109.44    9.07
  -4 -16   1   34.87    8.36
  -4 -16   2  493.61   12.10
  -4 -14   1  367.96    8.66
  -4 -14   2  250.18   10.18
  -3 -19  -2  113.65    8.78
  -3 -17  -2   19.52    9.72
  -3 -13  -2  168.80    8.65
  -3  -7   1 1640.53   15.61
  -3  -7   2  275.22    8.15
  -2 -12   7  127.12   13.47
  -2  -8   6  207.24    9.96
  -2  -6   5  109.69    8.59
  -1  -7   7  377.24   14.23
   1 -11  -6  331.62   14.43
   2   0  -3    1.09    7.15
   3 -11  -7   26.87   12.92
   3   3  -1  855.27   12.88
   4  -4  -6   14.06   16.18
   5   5   3   59.24    5.14
   6   0  -5    3.20    8.56
   6   4  -2   60.98    6.53
   7   5  -1   90.28    6.88
   8   2  -4  205.08    7.71
   8   4   6    7.00    9.40
   8   6   1   75.30    7.24
   8   6   2  193.18    8.32
   9   5  -1   33.06    6.01
  10   0  -5   -1.96   11.38
  10   2  -4   67.59    9.95
  11   5   0  147.58    9.19
  -3 -15  -2    2.06    5.83
  -3 -11   5   57.99    8.06
  -3  -9   4  427.28   10.08
  -2 -10  -3  171.55    8.24
   4   2  -3 1120.01   14.79
   4   4  -1 2175.37   17.71
   5  -3  -6  162.12   14.66
   5   5   0 1040.94   11.62
   7  -5  -7   21.05   15.79
   7   3   7   51.13    9.56
   7   5   5   43.63    8.33
   8   6   0  214.19    8.48
   8   6   3   45.59    6.08
   9   5   5   13.81    9.72
  10   6   1   38.97    8.44
  10   6   2   71.12    7.47
  10   6   3   33.70    9.15
  11   3  -3   38.95    8.02
  11   5  -1   27.02   10.55
  -3 -19  -1    3.33    9.63
  -3 -15   5  168.14   11.92
  -3 -13   5   77.10   10.18
  -2 -18  -3  291.89   11.67
  -2  -4   1 1684.98   18.23
  -2  -4   2   64.54    5.75
  -1  -5   6  456.78   14.73
   0 -10  -5  172.89    9.48
   1 -13  -6  104.48   10.95
   2  -8  -6  189.12   13.39
   3   3   5  182.43    8.89
   5   5   4  579.36   10.78
   6   2  -4  296.58    9.17
   6   4   6   17.77    7.55
   6   6   1  153.71    7.29
   6   6   2  308.51    8.49
   8   4  -3  305.29    9.05
   8   6   4  121.75    8.99
   9   1  -5   65.43   12.04
   9   5  -2  338.46    9.99
  10   6   0   95.67    9.96
  -3 -17  -1   39.96    9.05
  -3 -13  -1  165.28    8.38
  -3  -9   3  688.57   11.72
  -2 -16  -3   12.01    8.74
  -2 -12  -3  388.82    9.87
  -2  -6  -1  293.78    8.76
   0  -6  -4  241.23   10.05
   1 -15  -6    4.85   10.11
   2   2   5  669.13   15.36
   3 -13  -7   17.03   14.33
   3  -1   8   12.85   14.46
   4   0   8  177.83   14.56
   4   4   5  806.50   13.17
   5   3  -3  141.93    6.98
   6  -2  -6  166.76   12.36
   6   6   0  354.18    8.42
   6   6   3  104.26    5.58
   7   5  -2  459.23    9.40
   8   6  -1   57.75    7.11
   9  -1  -6    4.36   13.49
  10   4  -3  272.60   11.58
  10   6   4   39.53    7.72
  -3 -19   1    2.03   10.35
  -3 -17   4    9.68   10.88
  -3 -11   4  908.90   13.30
  -3  -9   2  689.75   11.78
  -2 -10   6   80.87    9.18
  -1 -17  -4   34.29   10.47
   0 -16  -5   31.10   10.27
   0 -12  -5  286.40   10.83
   0  -8   8  100.70   13.32
   1   1  -1  296.23   13.03
   5   1   8   10.41   10.83
   5   5  -1   83.79    4.99
   7   1  -5   67.92    8.83
   9   3  -4  118.10    7.74
   9   7   1  380.39   10.34
   9   7   2   55.29    8.65
   9   7   3  306.78   10.50
  10   6  -1   31.52    7.16
  11   5  -2  114.64    8.48
  -3 -19   2  104.61    9.28
  -3 -17   0   27.84    6.79
  -3 -17   3   37.65   10.44
  -3 -15   0    4.23    7.61
  -3 -15   4    2.36    7.02
  -3 -13   4  108.35    7.36
  -2 -12   6   -1.28    9.60
  -1 -15  -4    6.81    8.19
  -1 -13  -4  187.66    8.60
  -1  -9   7  261.90   13.81
   1  -7  -5  872.46   18.79
   3   1   7  207.07   12.65
   4  -2   9   57.33   18.41
   4   2   7  251.75   11.53
   5   5   5   55.39    6.69
   6   2   8   58.40   13.30
   6   4  -3  634.70   10.85
   7  -1  -6   52.48   11.20
   7   3  -4  323.51    9.84
   7   5   6  166.56   10.09
   7   7   1  831.48   11.50
   7   7   2  215.39    8.48
   8   6   5   35.36    7.07
   9   7   0   84.06    8.97
  11   7   1  194.86   11.93
  -3 -17   1   47.84    6.72
  -3 -17   2   22.73    8.79
  -3 -15   3  270.13   10.52
  -3 -13   3  113.70    9.20
  -3 -11   2 1411.65   14.90
  -3 -11   3   89.95    6.22
  -2 -20  -1  226.81   13.48
  -2 -18  -2   81.11    8.03
  -2 -14   6  118.11   10.76
  -2 -10  -2  209.22    8.63
  -2  -8   5    5.54    6.68
  -2  -6   4  446.22   10.67
   1  -5   8  169.51   19.53
   2  -6   9   23.06   22.37
   5   3   7   32.23   10.04
   6   6  -1  145.72    7.05
   7   7   0  236.68    8.35
   7   7   3  587.04    9.82
   8   6  -2  178.84    8.10
   9   5  -3   13.74    8.30
   9   7   4   40.35    7.38
  10   6  -2   73.10    9.49
  11   7   0   27.99   12.38
  -3 -15   1  327.16    8.18
  -3 -15   2   -0.23    6.24
  -3 -13   1  134.67    6.30
  -3 -13   2  164.83    9.21
  -2 -12  -2    7.65    7.04
  -2  -6   0 1025.00   14.15
  -1 -19  -3    9.81   10.03
   0  -4  -3 1560.28   23.81
   3   3  -2  369.34    9.49
   4 -10  -7    7.19   14.91
   4   4  -2   56.60    5.75
   6   6   5   68.21    7.92
   7   7   4  137.67    8.85
   8   2  -5  145.11   10.40
   9   7  -1  444.55   11.43
  10   4  -4    6.17    9.99
  -2 -18  -1  395.68   11.74
  -1 -13   7   93.90   13.37
  -1 -11   7    1.59   10.84
   0 -10   8   49.65   13.02
   2 -10  -6   66.22    9.38
   3   5   1  322.95    8.95
   3   5   2  889.60   12.74
   4   6   2  407.77    9.24
   5   5  -2  932.24   12.05
   6   4   7  180.16   11.98
   7   5  -3   74.74    7.61
   8   0  -6  399.88   17.79
   8   4  -4   12.81    8.32
   8   6   6   68.76   11.19
   8   8   1   22.77    7.47
   8   8   2  151.43    8.85
   8   8   3   20.81    8.25
   9   7   5  148.33   11.88
  10   8   1   -2.37    7.10
  10   8   2  111.21    8.40
  10   8   3   14.74   11.46
  11   7  -1  153.93    9.82
  -2 -20   1  226.42   11.64
  -2 -18   4   66.17   11.53
  -2 -16   5    0.55    8.38
  -2 -14   5  129.38   10.97
  -2 -10   5  105.46    8.62
  -2  -6   3  214.27    8.30
  -1 -17  -3   69.50    7.00
  -1  -9  -3  954.49   13.73
  -1  -3   4  776.81   17.82
   0 -18  -4   67.90   10.44
   0  -8  -4  361.20   10.51
   1 -17  -5   32.80   11.00
   2 -14  -6   96.09   11.38
   2 -12  -6   -1.20   10.76
   2   4   2   81.14    6.31
   3   5   3  206.64    7.66
   4   4   6   12.59    7.80
   4   6   1  229.93    6.91
   4   6   3  175.28    7.64
   5   7   2  107.67    7.16
   7   7  -1  817.73   10.47
   8   8   0  164.57    8.92
  10   8   0  142.63    8.84
  -2 -18   0   67.97    8.93
  -2 -16  -1   12.57    6.33
  -2 -12   5  241.02    8.81
  -2  -8   4  371.41   10.33
  -2  -6   1  262.81    7.75
  -2  -6   2  832.28   13.29
  -1 -19  -2   93.04   11.36
  -1 -15  -3  272.47    9.59
  -1 -11  -3    3.74    7.15
  -1  -7   6  105.14    9.38
   1   1   5  198.72   13.83
   2   0   7    1.71   12.64
   2   2  -2 1046.92   17.62
   2   4   1 2107.60   20.99
   3   3   6  163.52   10.77
   4 -12  -7   68.97   14.88
   4   6   0  477.26    9.66
   5   7   1 1042.49   12.02
   5   7   3  772.30   11.92
   7   5   7   22.34   10.94
   7   7   5  359.98    9.59
   8   6  -3   40.55    7.91
   8   8   4  118.26    9.51
   9   7  -2   56.19    6.79
  10   6  -3   33.99    7.48
  10   8  -1   23.82    9.35
  -2 -18   1  354.19   11.11
  -2 -18   2   83.25   10.36
  -2 -18   3  278.82   10.16
  -2 -16   0  648.94   11.70
  -2 -16   4  364.06   10.95
  -2 -14  -1  259.91    7.46
  -2 -12  -1  509.62   10.12
   0 -16  -4  354.56    9.97
   0  -6   7   68.42   11.31
   2   4   3 1278.93   16.87
   3   5   0  929.23   12.34
   4   6   4  250.37    8.43
   5   1  -5  351.95   12.87
   5   3  -4  272.06    8.81
   5   7   0  117.96    6.87
   6   6   6   97.23    9.62
   6   8   1   23.45    6.61
   6   8   2  308.15    9.29
   8   8  -1   16.76    8.05
   9   1  -6   11.83   12.62
   9   5  -4  239.17   11.69
   9   9   1  313.47   10.87
   9   9   2   87.54    9.37
  -2 -16   3    5.57    9.17
  -2 -14   4  242.52   10.22
  -2 -12   4    6.66    8.16
  -2 -10   4  148.09    8.92
  -1 -17  -2   64.54    9.32
  -1 -15   6   -0.10   12.24
  -1  -5   5   92.28    8.26
  -1  -3   0 2052.64   25.72
   0 -14  -4   96.67    8.43
   0 -12  -4   11.25    6.91
   1 -13  -5  198.05   10.01
   1 -11  -5    2.42    7.70
   3   5   4  607.13   11.35
   4   2  -4  221.58    9.34
   5   7   4   78.44    7.28
   6   2  -5  297.18   11.33
   6   4  -4   39.27    6.75
   6   8   3   11.71    5.09
   7   7  -2  184.89    6.52
   8   8   5    9.90   10.41
   9   9   0   86.91    9.81
   9   9   3  253.36    9.75
  -2 -16   1   13.03    6.21
  -2 -16   2  532.84   11.33
  -2 -14   0  346.57    8.07
  -2 -14   3  195.17    9.60
  -2  -8   1    7.82    6.42
  -2  -8   3   10.30    4.94
  -1 -19  -1   48.33    8.28
  -1 -13   6  131.01   11.09
  -1  -9   6  100.59    9.93
  -1  -7  -2  411.00    9.74
   0 -18  -3  265.29   12.06
   2   4   0  119.01    6.71
   3  -7  -6   77.57   13.64
   6   8   0  327.08    7.47
   6   8   4  206.85    9.23
   7  -3  -7   37.58   16.40
   7   7   6   60.19   10.43
   7   9   1  390.87   10.15
   9   7  -3  273.75   11.34
   9   9   4   47.69   10.84
  10   8  -2  111.21   11.37
  -2 -14   1  278.48    8.98
  -2 -14   2  349.95   10.42
  -2 -12   3  433.25   10.94
  -2 -10   3  195.48    9.38
  -2  -8   2  519.27   10.26
  -1 -19   0  100.82   11.03
  -1 -17   5   30.78   11.84
  -1 -15  -2    5.03    7.40
  -1 -11   6  329.28   11.41
   2   4   4   42.02    7.29
   4   0  -5    1.09    8.42
   4   4  -3 1520.77   16.61
   4   6  -1  186.93    6.26
   5   5  -3   73.33    6.88
   5   7  -1 1008.00   12.23
   7   5  -4  306.24   10.37
   7   9   0  140.09    8.07
   7   9   3  302.60    8.28
   8  -2  -7   56.33   15.97
   8   8  -2  154.17    9.20
   9   9  -1  340.98   11.45
  10   6  -4   43.80   12.75
  10  10   1    9.07    9.90
  10  10   2   44.54   11.83
  -2 -12   2   -1.03    7.20
  -2 -10   2  194.38    9.10
  -1 -19   1   21.78   10.47
  -1 -19   3   27.85   11.29
  -1 -17  -1   77.63    8.87
  -1 -13  -2  344.63    9.24
  -1  -9  -2  303.55    9.35
  -1  -5  -1  229.98    8.61
  -1  -3   3  280.75   11.98
   0 -16  -3   53.24    8.64
   0 -14   7   27.08   13.95
   0  -8   7   36.91   12.55
   1 -17  -4   37.81   11.05
   1  -7   8   38.82   14.88
   1   3   2 1394.78   20.78
   2   2   6  275.59   13.58
   3 -15  -6    1.28   10.94
   3   5  -1  287.55    7.65
   4   6   5  118.25    8.07
   5   3   8   71.42   12.75
   5   7   5  459.15   10.85
   6   0  -6  574.52   17.92
   6   4   8    4.76   12.40
   6   6  -3  104.52    5.92
   6   8  -1   26.16    6.68
   7   1  -6   68.36   12.87
   7   9   4   71.43    8.91
   8   8   6   60.31   12.90
   8  10   2  112.34    9.43
  10  10   0   55.62   12.08
  -1 -19   2   80.92    8.97
  -1 -17   4   37.98   10.19
  -1 -15   5  196.29   11.34
  -1 -11  -2  881.68   11.98
   0 -20  -1  289.97   13.71
   0 -12   7  138.63   14.68
   0  -6  -3  153.19    9.07
   1  -5  -4  967.84   21.28
   2 -16  -5    5.32   10.49
   3 -13  -6   69.32   12.87
   3   5   5  110.79    7.55
   4   2   8   52.48   14.79
   5   5   7   28.77   10.49
   6  -4  -7  161.04   34.03
   6   8   5    3.49    8.76
   7   7  -3  689.59   12.23
   8   2  -6  133.04   14.40
   8   6  -4  107.66    7.82
   8  10   1  128.34    7.63
   8  10   3  132.53   10.90
  10   8  -3    3.20   11.27
  -1 -17   0   71.95    6.93
  -1 -17   3   68.34   10.29
  -1 -15  -1  367.41   10.13
  -1 -13   5  222.89   11.83
  -1  -7   5  885.73   15.37
  -1  -3   1  428.16   12.36
   0 -18  -2  125.32    8.77
   0 -14  -3  243.91    9.93
   0 -10   7   91.04   12.43
   0  -4   6   43.15   10.07
   1 -19  -3   20.15   11.47
   1   3   1  414.22   11.60
   3   3  -3  443.41   11.48
   4   4   7  362.58   15.81
   6   6   7   34.50   11.21
   7   9  -1  431.74    8.74
   7   9   5  181.32   10.92
   8  10   0  121.19    7.24
   8  10   4   91.47   10.17
   9   9  -2   83.73    8.06
  10  10  -1   21.50   12.12
  -1 -17   1   80.29    7.29
  -1 -17   2   66.26    9.79
  -1 -15   4   10.00    8.86
  -1 -13  -1  535.49   10.88
  -1 -11   5    3.79    8.34
  -1  -9   5  576.66   12.66
  -1  -5   4  977.36   17.86
  -1  -3   2 1480.32   22.69
   0 -20   0  169.81   12.28
   0 -16   6  213.01   14.44
   1 -15  -4    2.37    6.83
   1 -11   8  157.50   15.97
   1  -9   8   47.35   13.40
   1   3   3  286.60   11.01
   2  -6  -5  111.32   11.37
   4   6  -2  397.01    9.37
   4   8   2  592.78   10.99
   5 -11  -7    4.51   15.40
   5  -9  -7  124.14   18.89
   5  -1  -6   19.39   12.88
   5   7  -2   94.46    5.67
   5   9   2  396.93    9.49
   6   8  -2  242.35    8.55
   7   7   7  174.49   14.21
   8   8  -3   13.28    8.34
   8  10  -1  144.63    9.30
   9   3  -6   94.39   13.06
   9   7  -4   47.17   11.53
   9  11   1   -0.04   10.72
   9  11   2  268.43   12.52
   9  11   3    6.33   10.74
  -1 -15   0    3.85    7.21
  -1 -11  -1    5.33    6.87
   0 -20   1  288.48   11.96
   0 -20   2  129.30   13.66
   0 -18  -1  419.89   12.49
   0 -16  -2  606.10   12.50
   0 -10  -3  249.51    9.45
   1  -3   7   69.96   15.69
   2 -18  -4   52.07   13.16
   2   4  -1 1831.93   20.01
   4   8   1    0.91    6.59
   4   8   3   -1.21    7.01
   5   7   6   36.32    8.36
   5   9   1 1014.52   12.13
   5   9   3  750.16   12.19
   6  10   2  143.10    9.11
   7   9  -2  103.47    7.96
   8  10   5   73.99   11.13
   9  11   0  319.17   12.95
  10  10  -2   19.17   12.18
  -1 -15   1  390.32   10.45
  -1 -15   2   11.57    8.85
  -1 -15   3  263.62    8.45
  -1 -13   4  261.46   10.69
  -1  -5   0 2630.87   26.03
   0 -18   4   84.62   11.28
   0 -14   6   70.95   11.11
   0  -2   5  294.97   17.47
   1 -19  -2   80.83   11.94
   1 -17  -3   74.30   10.52
   1 -13  -4  217.80    8.04
   2 -12  -5  249.09   11.53
   3   7   1 1688.52   16.93
   3   7   2  281.08    7.65
   4   6   6  145.55   10.26
   5   9   0  508.44    9.91
   6   8   6  116.62   10.79
   6  10   1  149.20    6.95
   6  10   3  124.51    8.85
   9   9  -3  266.62   12.14
  -1 -11   4  664.46   12.92
  -1  -7   4  240.91    9.87
   0 -18   0  146.05   10.34
   0 -16   5   47.78   11.36
   1  -7  -4  209.14   10.20
   1   3   0 1968.48   25.39
   2 -10  -5  101.73    9.96
   2  -8  -5    4.58    9.20
   2   4   5  723.09   15.39
   3   3   7   79.93   12.58
   3   5  -2  876.75   12.86
   3   7   3 1028.77   13.13
   4   8   4  399.59   10.67
   5   5  -4  610.40   12.06
   5   9   4  249.21    9.23
   6   6  -4  225.50    9.22
   6  10   4  111.52    9.12
   7   7  -4  129.38    9.11
   7   9   6   38.63   11.96
   7  11   1    2.69    9.05
   7  11   2  496.12   10.53
   7  11   3    0.20    9.53
   8  10  -2   96.82   10.02
   9  11  -1    6.06    8.09
  -1 -13   2  357.03   10.41
  -1 -13   3  373.56    8.92
  -1  -9   4  191.07    9.69
  -1  -5   3  161.95    9.41
   0 -18   1  406.21   11.92
   0 -18   2  129.78   11.30
   0 -18   3  267.39    9.94
   0 -16  -1   79.42    9.36
   0 -14  -2  161.86    7.28
   0 -12   6   -2.62   10.15
   0  -6   6  147.03   12.46
   1  -9  -4  165.76    8.47
   2 -16  -4  373.33   13.39
   3   7   0  403.31    9.45
   4 -14  -6   89.76   13.83
   5   3  -5   86.08   10.31
   7  11   0  546.25   12.03
   7  11   4  295.66   10.99
   8   0  -7    4.22   15.76
   8  12   2   15.29   10.86
  -1 -11   3    6.53    7.80
  -1  -5   1  243.26   10.06
   0 -16   4  401.16   12.26
   0 -10   6  139.87   10.90
   0  -8   6  215.20   14.13
   1 -19  -1   26.57   10.38
   1 -15  -3  278.62   10.46
   1 -13   7  100.21   13.52
   2   6   2  820.09   13.29
   3   5   6  333.59   12.50
   3   7   4  173.39    8.35
   4   0   9    2.97   28.03
   4   8  -1    2.96    5.89
   5   7  -3  842.47   12.96
   5   9  -1  996.69   11.75
   6   8  -3   17.19    7.45
   6  10  -1  153.83    8.64
   7  -1  -7   20.41   16.96
   7   3  -6  182.39   15.01
   7   9  -3  297.64   10.09
   8   8  -4  119.50   11.39
   8  12   0   24.96    9.71
   8  12   1  207.87    9.15
   8  12   3  180.85   13.13
   9  11  -2  230.12   13.42
  -1 -11   2 1108.60   14.21
  -1  -9   3 1053.64   15.15
  -1  -7   3 1608.68   19.14
  -1  -5   2 2077.15   23.92
   0 -16   0  725.41   12.56
   0 -14   5  119.83    8.78
   0 -12  -2   15.91    5.78
   1 -17  -2   41.23    7.65
   1   3   4  821.67   18.70
   2 -18  -3  286.46   10.68
   2   6   1  251.47    7.76
   2   6   3  201.53    8.38
   3   1   8   14.48   18.83
   4   4  -4   42.22    6.82
   4   6  -3  162.56    7.91
   4   8   5    0.45    6.89
   5   9   5  393.16   11.95
   6  10   5   80.77   10.72
   7  11  -1    0.45    6.45
   8   4  -6    4.15   12.49
   8  12   4    8.95   12.07
   9   9  -4    2.94   11.29
  -1  -9   2  294.73    9.74
  -1  -7   1 2546.55   22.84
  -1  -7   2  410.23   11.20
   0 -16   1   63.24    8.98
   0 -16   2  587.14   13.28
   0 -14  -1  357.80    8.78
   0 -10  -2  441.06   11.03
   1 -19   3   19.00   12.31
   1 -17   5   55.08   12.00
   1 -15   6   -2.65   12.35
   1 -13  -3  374.81   11.33
   1 -11   7   -0.23   11.99
   3  -5   9   20.71   22.63
   3   7  -1 1599.39   16.66
   4 -12  -6    4.48   12.11
   5   7   7  196.08   15.13
   6   2  -6  170.61   12.66
   6   8   7   -1.61   12.58
   7  11   5    2.12   11.37
   8  12  -1  197.78   11.59
   9  13   0  124.76   12.73
   0 -14   4  122.43   10.06
   0  -8  -2  520.59   11.83
   1 -19   1   38.43    8.44
   1 -19   2   94.01    9.59
   1 -17  -1   87.70   10.55
   1  -5   7   40.93   14.25
   2 -20  -1  258.60   11.20
   2   4  -2   78.85    7.44
   2   6   0 1184.22   15.56
   3 -17  -4   16.19   11.01
   3 -13  -5   68.04   10.37
   5   9  -2  410.17    9.97
   5  11   2  808.35   13.03
   6  10  -2  150.94    9.15
   7  11  -2  442.60   11.28
   9  11  -3    3.40   10.83
   0 -14   0  182.60    9.06
   0 -12  -1  736.90   12.29
   1 -17   4   25.02   11.03
   1 -15  -2    7.95    8.21
   1  -9   7  276.68   14.50
   1  -7   7  411.56   17.65
   1   1  -2  349.93   17.63
   2 -20   0   55.16   12.82
   2 -18  -2   95.51   11.02
   2 -16  -3   11.97    9.81
   2 -10   8   34.74   14.60
   2  -4   8    5.02   16.62
   2   6   4  490.01   12.57
   3   7   5  595.58   13.00
   4 -10  -6   44.17   12.17
   4  -4  -6   12.28   18.11
   4   2  -5  668.93   18.80
   4   6   7   50.24   12.89
   4   8  -2  600.20   11.43
   4  10   1   17.10    7.27
   4  10   2  139.90    8.35
   5  11   1   37.48    6.08
   5  11   3   40.86    8.65
   6  10   6   55.07   10.86
   6  12   2   -1.11    6.62
   6  12   3  273.67   11.26
   7  13   2  127.57   10.72
   9  13  -1  127.35   13.80
   0 -14   2  183.41   10.04
   0 -14   3  234.01    8.44
   0 -10   5  191.27    9.93
   1 -17   0   73.03    9.88
   1 -13   6  155.67   11.93
   1 -11  -3    3.51    7.58
   2 -20   1  267.67   14.10
   2 -12  -4    1.50    7.93
   3   5  -3  220.92    9.27
   4   4   8    4.87   15.75
   4  10   3   26.91    7.69
   5   9   6  133.33   11.35
   5  11   0  982.30   13.39
   6   8  -4  182.37    9.51
   6  12   0    8.30    8.20
   7   9  -4   77.46    9.84
   7  13   1  246.95    9.98
   8  12  -2    5.41    8.14
   0 -12   4   -1.05    8.02
   0  -8   5   71.66    8.75
   0  -4   5  875.94   20.34
   1 -17   1   89.58   10.08
   1 -17   2   59.15   10.82
   1 -17   3   65.47   10.09
   1 -15   5  168.78    9.29
   2  -8   8  101.31   15.41
   2  -6   8  107.80   16.72
   3 -11  -5   51.81   10.16
   3   9   1  941.17   13.30
   4  -8  -6  205.68   14.85
   4   8   6  217.41   11.03
   4  10   0  143.60    6.45
   5 -13  -6   83.69   16.12
   5   7  -4   74.68    8.10
   5  11   4  532.51   10.94
   6  12   4    4.44    7.40
   7  13   0  125.87    8.84
   7  13   4   74.59   11.20
   8   2  -7   57.44   18.73
   8   8  -5   -0.05   11.86
   8  10  -4   81.48   12.54
   8  14   1   60.47   13.39
   8  14   2   73.12   13.63
   0 -10  -1  362.77    9.05
   0  -6   5  111.02    9.73
   1 -15  -1  367.11   10.70
   1 -13  -2  392.82   10.97
   1   3  -1  456.69   13.44
   2 -18  -1  399.15   11.24
   2   6  -1  293.13    9.73
   3 -19  -2  126.72   10.26
   3 -17  -3   45.86   12.13
   3 -15  -4   -1.65    7.38
   3  -1  -5  542.10   37.48
   4  10   4   82.46    6.58
   5   1  -6   11.77   12.21
   5  11  -1   36.07    8.46
   6  -8  -7    5.35   17.63
   6  10  -3  112.46   10.12
   6  12  -1  325.52   10.69
   7  11  -3    5.37    9.64
   7  13  -1  239.61   10.64
   8   6  -6   78.55   13.78
   8  14   0   78.12   12.48
   0 -12   2   14.71    8.25
   0 -10   4  303.97   11.34
   1 -15   4   12.37    9.59
   1   5   2 2013.49   22.85
   2 -18   0   83.78   11.84
   2 -18   4   52.16    9.20
   2 -16  -2  625.12   13.63
   2 -14  -3  233.30   10.37
   2   4   6   19.90   11.20
   3   9   0  866.42   12.75
   4  -6  -6  130.54   16.04
   4  10  -1   20.53    7.23
   5   9  -3  709.51   11.63
   5  11   5   18.66   10.63
   6  12   5  183.40   13.47
   7   5  -6  188.54   14.58
   8  14  -1   82.80   12.03
   1 -15   0   12.62    8.24
   1 -15   3  311.26   11.56
   1 -13   5  226.68   12.09
   1   5   1  238.68    8.98
   2 -18   2   92.41   13.28
   2 -18   3  304.04   12.94
   2 -16   5    5.05   12.05
   2 -12   7  140.48   14.06
   3 -19  -1    6.42   13.31
   3  -9  -5  428.44   15.47
   3   9   4  496.27   11.70
   4   6  -4  277.54   10.66
   4   8  -3    8.97    7.34
   6   4  -6   16.80   13.80
   7   1  -7   37.13   17.05
   0 -10   3  272.37   11.13
   0  -6  -1  191.41    9.95
   1 -15   1  405.39   11.19
   1 -15   2   11.34    9.77
   1 -13  -1  581.12   12.29
   1 -11  -2 1083.68   15.87
   1  -5  -3  157.64   11.64
   1   5   3  174.58    9.65
   2 -14   6  127.77   13.47
   2   6   5  130.71    9.91
   2   8   1    8.46    6.90
   2   8   2  578.55   11.89
   3   5   7   63.05   13.52
   3   7   6   91.04   10.86
   4 -18  -3  214.85   12.25
   4 -16  -4  344.54   14.84
   4  10   5   12.19    9.85
   5 -11  -6  304.07   18.34
   5   7   8   19.79   17.53
   5   9   7  205.24   15.71
   5  13   2  221.74   10.71
   6  -6  -7   30.74   21.10
   6  12  -2    8.84    6.80
   6  14   2  161.98   12.98
   7  13  -2  128.48   11.76
   0 -10   2  490.42   12.15
   0  -8   4  418.62   11.97
   1  -9   6  101.73   10.91
   1   3   5  164.19   14.60
   2 -16  -1    8.17    7.84
   2  -8  -4  387.75   12.39
   2   8   3    9.58    7.39
   3 -19   0  153.86   10.89
   3 -17  -2   30.64   11.37
   3 -13  -4  119.22    8.70
   3   9  -1  944.98   12.63
   4  12   2   72.96    8.64
   5  13   1  182.25    8.71
   5  13   3  166.71   11.20
   6  12   6   -2.67   12.60
   6  14   0  160.91   11.14
   6  14   1  180.73    9.77
   6  14   3  167.11   13.28
   7  15   2   -6.01   13.93
   7  15   3  164.82   13.94
   8  14  -2   73.86   13.62
   0  -8   0  691.53   13.37
   1 -13   4  236.22    9.56
   1 -11   5   13.98    8.95
   1   5   0 2689.73   26.43
   2 -16   4  371.17   10.91
   2 -14  -2  393.92   11.81
   2 -12  -3  477.74   11.07
   2 -10   7   62.27   13.13
   3 -19   1    1.60    9.25
   3 -19   2  140.83   11.33
   3 -15  -3  264.21    9.93
   3  -7  -5  595.50   18.04
   4 -12  -5  232.99   13.39
   4  10  -2  132.09    7.06
   4  12   1  495.65   10.17
   4  12   3  384.97   12.06
   5  11   6  297.37   15.08
   5  13   0  270.41    9.14
   6   8  -5    3.88    9.39
   6  10  -4  102.32   11.77
   6  14   4  106.16   11.85
   7   9  -5  214.41   13.54
   7  11  -4  332.35   15.39
   7  15   0   10.63   12.70
   8  10  -5   90.02   14.63
   8  12  -4    6.20   14.22
   0  -8   3  172.97   10.27
   0  -2   4  816.79   25.46
   1 -13   3  398.62   11.63
   1  -7   6  116.84   12.27
   2 -16   0  658.86   11.71
   2 -16   3   11.04   10.89
   2 -14   5  123.69   12.39
   3 -15   6    6.92   14.80
   3 -13   7    8.01   15.27
   3   9   5  422.36   12.90
   3  11   2 1412.85   16.17
   4 -18  -2  151.56   14.17
   4   4  -5  942.71   19.81
   4   8   7   -4.25   13.06
   4  12   0   55.92    6.61
   5   9  -4  262.22   11.42
   5  13   4  151.49    9.21
   6  12  -3  247.37   11.89
   6  14  -1  179.08   11.93
   7  13  -3  183.75   12.57
   8   8  -6   56.31   16.75
   0  -8   1  366.66   10.97
   0  -4   4   85.89   10.28
   1 -11  -1    4.26    8.06
   1  -9  -2  295.29   10.89
   1   5   4 1009.51   20.00
   2 -16   1   13.39    6.82
   2 -16   2  636.82   12.48
   2 -12   6    3.03   10.32
   2  -6  -4  489.09   14.97
   2   8   4  379.22   11.56
   3 -17  -1   50.59    9.04
   3 -17   4   16.18   12.04
   3  -9   8   98.15   17.20
   3  11   1  120.48    6.90
   3  11   3   85.21    9.18
   4 -16  -3   18.43   12.97
   4  10   6   42.38   11.61
   4  12   4   39.52   10.57
   5   3  -6  173.51   15.40
   5  11  -3   26.44   10.03
   5  13  -1  203.02    8.62
   6 -12  -6   -0.65   15.24
   7   7  -6   77.10   14.82
   7  15  -1  237.64   11.33
   0  -8   2  590.48   11.74
   0  -6   0  305.24   10.66
   1 -11   4  711.22   13.94
   1  -5   6  494.81   18.48
   1  -1   6   80.88   19.03
   2 -14  -1  347.17   11.99
   2  -8   7    3.08   12.97
   2   8  -1    7.83    7.40
   3 -17   0   20.11   11.75
   3  -5  -5  109.46   14.14
   3   9  -2  713.03   11.98
   6  14   5   70.98   11.67
   7   3  -7   12.38   19.92
   0  -6   3  163.90    9.72
   1  -9   5  592.87   13.54
   2 -14   4  234.68   10.84
   2 -12  -2    3.50    8.87
   2 -10  -3  199.15    9.73
   2   0  -4 1509.78   50.64
   3 -17   1   44.60   11.43
   3 -17   2   12.86   12.15
   3 -15  -2    0.89    7.51
   3 -13  -3  137.02   10.80
   3  11   4  943.67   15.63
   4 -10  -5   17.82   10.99
   4  10  -3   19.75    9.07
   5  13  -2  203.70   11.46
   6   6  -6  112.39   14.87
   7  15  -2    2.46   13.49
   0  -6   1  218.39   10.53
   1 -11   3    8.85    8.63
   1  -3   6  433.24   19.28
   1   5  -1  260.57   10.09
   1   7   1 2373.55   23.29
   1   7   2  464.93   12.25
   2 -14   0  410.16   11.72
   2  -4  -4   33.30   10.49
   2  10   1  239.34    9.17
   2  10   2  198.17    9.73
   3 -15   5  181.37   10.23
   3 -11   7   25.01   14.24
   3  -7   8   35.03   17.88
   3   3   8   83.59   26.73
   3  11  -1  113.68    9.03
   4 -18   0  179.46   13.71
   4 -18   3  184.66   14.74
   4  12   5  204.67   13.35
   5 -15  -4    3.22    9.88
   5  11   7    8.96   14.05
   5  15   2    2.85    9.16
   5  15   3  149.26   11.85
   6   0  -7    1.21   22.42
   6  16   0  345.30   14.08
   6  16   1   28.35   10.55
   6  16   2  376.41   12.97
   6  16   3   19.59   13.87
   7  11  -5    4.74   12.55
   7  13  -4   81.25   13.08
   0  -6   2  312.82   11.42
   0  -4   0  419.39   14.48
   1 -11   2 1069.73   15.69
   1  -7  -2  422.81   12.19
   1   7   3 1608.91   20.08
   2 -14   1  330.22   11.14
   2 -14   2  379.47   11.99
   2 -14   3  219.48    8.92
   2 -12   5  250.45    9.91
   2 -10   6   64.29   10.55
   2  -6   7   69.75   14.66
   2   6   6  266.57   13.92
   2   8   5    6.84    9.02
   2  10   3  204.81    9.85
   3 -15  -1  359.52   12.83
   3 -13   6   55.12   11.92
   3  -3  -5  182.58   20.06
   3   9   6  246.41   13.94
   4 -18   1  297.44   13.34
   4 -18   2  150.44   13.45
   4 -16  -2  477.47   13.86
   4  12  -2   60.15    9.94
   4  14   2  262.07   12.32
   5  15   0   -0.72    7.83
   6  12  -4   -2.95   12.86
   0  -4   3 1711.31   25.91
   0   2   1  536.42   22.14
   1  -9  -1 1434.88   16.95
   1  -9   4  185.44   10.25
   1  -7   5  837.94   17.04
   1   7   0  545.96   12.80
   2  -2  -4  508.89   30.70
   2  10   0  255.24    9.46
   3 -15   4   10.91    9.56
   3   1  -5  451.37   23.20
   4 -16   5    4.24   10.21
   4 -14  -3  286.71   12.84
   4  14   3  325.59   10.31
   5 -17  -2   18.85   12.94
   5  11  -4  574.64   14.92
   5  15  -1  169.65   11.18
   5  15   4   -0.65   12.54
   6 -10  -6   46.40   17.12
   6  16  -1    4.15   13.31
   7   9  -6   39.39   15.91
   2 -12  -1  579.28   12.24
   2 -12   4   -3.31    9.53
   2   8  -2  552.28   11.43
   3 -15   0    3.78    9.73
   3 -15   3  269.32   12.26
   3  -9  -4  450.43   12.85
   3  -5   8  146.11   19.11
   3   9  -3  697.28   12.57
   3  11   5   57.83   10.91
   3  13   1  159.81   10.04
   3  13   2  167.24   10.20
   4 -16  -1   17.10   11.76
   4 -14   6   93.06   15.79
   4  10   7    6.74   13.68
   4  14   4  186.50   12.52
   5  -7  -6   37.48   13.74
   5   5  -6  312.55   17.73
   5   9  -5  428.52   14.69
   5  13  -3  148.62   11.30
   7  -7  -7  142.45   21.63
   7   5  -7   17.69   19.79
   0  -4   1 2994.12   33.18
   0  -4   2  207.85   10.74
   2 -10  -2  203.65   10.24
   2  -4   7  339.74   18.41
   2   6  -3  220.11    9.06
   2  10  -1  231.02    9.39
   2  10   4  143.10    9.82
   3 -15   1  396.97   11.90
   3 -15   2    0.12   10.03
   3 -13  -2  165.30    8.40
   3 -13   5   69.97   11.19
   3 -11  -3  104.36   10.26
   3  -9   7  189.41   16.25
   3   7  -4  175.07   10.71
   3  11  -2 1398.41   15.38
   3  13   0  194.32   10.16
   3  13   3  112.25   10.36
   4 -16   4  258.03   12.64
   4 -12   7  102.88   14.52
   4  -2   9   78.94   28.86
   4  12   6   19.39   13.63
   4  14  -1  418.53   10.49
   5 -15  -3  127.97   14.35
   5 -11  -5    9.13   11.19
   5  15   5   58.27   14.88
   6   8  -6  110.57   14.60
   6  16  -2  302.25   14.71
   0  -2   3  435.97   19.00
   1  -9   3 1073.72   15.66
   1   5   5   88.51   12.14
   1   7   4  238.73   11.28
   2 -12   3  395.71   11.18
   2 -10   5  117.73   10.20
   3 -11   6  497.73   15.55
   4 -16   0  558.15   14.15
   4 -16   3   -6.16   11.73
   4  -8  -5    4.62    9.96
   4   0   9    0.65   33.31
   4   8   8  111.48   20.26
   4  10  -4  110.75   10.47
   4  12  -3  350.81   12.30
   5 -17  -1   53.45   10.42
   5  15  -2   -0.31   11.31
   6 -16  -3   11.83   14.27
   6   2  -7   92.76   20.95
   1  -9   2  319.93   10.99
   1   9   2  271.21   10.38
   2 -12   2    8.36    8.53
   2  12   1  555.75   11.78
   2  12   2   11.90    8.14
   3  13  -1  177.98   10.01
   3  13   4  102.77    8.83
   4 -16   1   27.98   10.91
   4 -16   2  503.42   14.38
   4 -14  -2  272.67   11.95
   4  -8   8  121.71   20.06
   4  14  -2  270.77   12.16
   4  14   5  193.72   13.92
   5 -17   0   49.11   12.83
   5 -17   3   37.61   13.37
   5  17   0   61.61   11.56
   5  17   1   67.36   10.90
   5  17   2   40.55   10.35
   5  17   3   51.63   14.16
   6 -14  -4  102.64   15.19
   6 -12  -5  153.85   14.87
   6  12  -5  140.92   13.63
   6  14  -4  102.39   13.93
   0   2   3  465.25   25.67
   1  -7   4  227.24   10.31
   1  -5   5   87.73    9.98
   1   5  -2 2111.48   26.33
   1   9   1 1311.30   15.98
   2   4   7  336.83   27.83
   2  10   5  122.87   12.32
   2  12   3  446.86   12.16
   3 -13  -1  148.32    7.96
   3 -13   4  116.75   10.29
   3  -3   8   84.88   18.36
   3   3  -5  182.81   14.41
   3  11   6  456.68   16.60
   4 -14   5  182.79   10.20
   4   8  -5    0.86   10.00
   4  16   0  520.31   13.37
   4  16   1   25.83    9.04
   4  16   2  417.26   11.74
   4  16   3   22.08   10.74
   5 -17   1   59.90   12.59
   5 -17   2   39.46   13.31
   5  13  -4  131.15   12.17
   6  16  -3   13.69   12.35
   0   0   3    1.65   16.02
   0   4   1 3298.82   37.74
   0   4   2  226.74   12.28
   1   9   0  409.87   11.18
   1   9   3  995.90   15.92
   2 -10  -1  252.45   10.66
   2 -10   4  125.14    9.79
   2  -2   7  298.89   20.96
   2   8   6  198.77   13.12
   2  12   0   15.28    5.76
   3   9   7  210.61   17.72
   3  11  -3  107.55   10.02
   3  13   5   67.06   11.06
   4 -12  -3  386.20   12.24
   4 -12   6   24.02   12.83
   5 -15  -2   -0.01   10.40
   5 -15   5   59.04   14.23
   5   7  -6   40.22   12.89
   5  11  -5   20.00   11.96
   5  15  -3  126.09   12.91
   5  17  -1   49.55   13.34
   6 -16  -2  307.17   15.10
   6   4  -7  161.21   20.50
   7   7  -7  171.93   19.46
   2  -6  -3  198.23   10.82
   2   8  -3    7.85    6.14
   2  12   4    2.82    8.45
   3 -13   0  170.44    7.71
   3 -13   3  101.24    7.70
   3 -11  -2 1455.26   17.90
   3 -11   5   58.60   10.49
   3  -7  -4  160.35   10.61
   3  -7   7  262.64   16.34
   3   5   8  136.58   24.97
   3   9  -4  473.75   13.65
   3  13  -2  172.74   11.13
   3  15   0    6.41    8.73
   3  15   1  360.37   10.22
   3  15   2    3.85    7.25
   3  15   3  253.03   11.48
   4 -14  -1  429.17   12.88
   4 -14   4  170.12   11.61
   4 -10   7   12.97   12.70
   4  12   7   96.16   15.55
   4  16  -1   32.93   11.18
   4  16   4  299.24   15.60
   6  -8  -6  108.58   14.69
   6  10  -6   53.46   15.19
   0  -2   2 1446.86   30.69
   1  -7   0  536.82   12.66
   1  -7   3 1571.51   19.20
   2  -8  -2  537.82   12.78
   2  -8   5   10.80    8.46
   2  -6   6  261.03   12.80
   2   4  -4   42.16    9.18
   2  12  -1  553.78   10.44
   3 -13   1  160.15    7.66
   3 -13   2  160.34    8.34
   3  -9   6  233.06   12.86
   4   2  -6  110.58   15.84
   4  12  -4   29.70    8.24
   4  14  -3  298.51   12.35
   4  14   6   96.80   15.56
   5 -15  -1  168.46   13.31
   5 -15   4    1.48   12.20
   5 -13  -3  147.95   11.91
   5 -13   6   94.47   15.09
   5  -9  -5  433.96   15.50
   5  -5  -6  288.49   19.89
   5  17  -2   55.99   13.63
   7  -5  -7   27.25   19.95
   0   4   3 1762.51   31.13
   1   7  -2  456.84   13.18
   1   7   5  894.51   19.55
   1   9  -1 1480.17   17.14
   1   9   4  185.32   10.14
   2 -10   3  178.83    9.32
   3  -1   8   12.20   20.46
   3  15  -1  361.65   12.38
   3  15   4    2.15   12.65
   4 -14   0  281.17    9.18
   4  -6  -5  104.65   13.31
   4  -6   8   71.23   18.70
   4  16  -2  424.34   13.87
   4  16   5   15.44   13.70
   5 -11   7    2.50   15.34
   6 -16  -1   36.31   12.40
   6 -14  -3  135.60   14.67
   6  14  -5   77.22   16.81
   7 -15  -3  188.81   15.69
   7  -9  -6   33.52   16.75
   0   4   0  436.11   14.05
   0   6   1  211.01   11.20
   0   6   2  313.66   12.27
   1  -7   1 2592.42   23.96
   1  -7   2  438.49   11.79
   1  -3   5  155.34   12.16
   1  11   1    2.69    5.66
   1  11   2  922.14   13.58
   2 -10   2  196.83   10.29
   2  14   0  345.01   11.10
   2  14   1  263.51    9.25
   2  14   2  305.01    9.57
   3 -11   4  837.03   14.19
   4 -14   1  369.14   10.08
   4 -14   2  261.82    9.42
   4 -12  -2   59.50    9.76
   4 -12   5  211.08   11.65
   4   4  -6   14.34   12.54
   4  10  -5   22.88   11.56
   4  18   1  291.14   15.50
   4  18   2  142.78   15.02
   5 -15   0   -0.98    9.80
   5 -15   3  130.23   10.76
   5   9  -6  151.95   14.98
   5  15  -4    0.96   13.10
   6 -16   0  390.58   15.07
   6 -16   3    6.98   13.76
   6 -10  -5   62.97   13.48
   6   6  -7   29.07   15.54
   1  -5  -1  218.04   10.45
   1  -5   4 1009.07   17.78
   1  -3  -2 1482.98   29.16
   1  11   0 1151.94   14.26
   1  11   3    8.99    9.15
   2   0   7   -0.29   16.80
   2   6  -4  524.01   14.36
   2   6   7   63.72   17.66
   2  10  -3  207.50   11.32
   2  10   6   69.24   12.46
   2  12  -2    3.11    6.70
   2  12   5  280.12   12.83
   2  14   3  204.82    9.05
   3 -11  -1  103.51    7.24
   3  11  -4  949.70   16.53
   3  13  -3  108.55    8.92
   3  13   6   78.15   14.73
   4  18   0  161.27   11.01
   4  18   3  177.66   12.04
   5 -15   1  166.43    9.24
   5 -15   2    2.35    8.49
   5 -13   5   93.51   12.31
   5  13  -5   90.95   14.06
   5  17  -3   57.39   14.04
   6 -16   1   39.62   12.51
   6 -16   2  350.12   14.56
   6 -12  -4    6.89   10.87
   6  12  -6   -2.65   15.87
   7 -13  -4   89.67   14.55
   7 -11  -5   -2.61   14.37
   0   6   0  285.27   11.71
   2  14  -1  289.03   11.57
   2  14   4  228.93   12.36
   3 -11   3   93.66    8.62
   3  11   7   37.44   14.98
   3  15  -2   -1.73    7.88
   3  15   5  170.43   14.52
   3  17   0   24.86   11.29
   3  17   1   53.89    8.62
   3  17   2   22.33    9.23
   3  17   3   30.34   11.16
   4 -10  -3   16.69    9.30
   4 -10   6   45.19   11.06
   4  -8   7   -0.52   12.73
   4   6  -6  132.68   13.70
   4  16  -3   28.20   11.87
   4  18  -1  299.46   14.77
   5 -13  -2  219.70   11.35
   6 -14  -2  119.40   12.65
   6 -14   5   59.21   14.54
   7 -15  -2   10.31   13.58
   0   6   3  168.72   11.21
   1   3  -3  292.83   13.62
   1   9  -2  313.61   11.46
   1   9   5  599.04   17.28
   1  11  -1    4.83    8.67
   1  11   4  625.40   14.40
   2  -8  -1   10.15    7.24
   3  -9   5  387.92   12.11
   3  -5   7   61.33   12.89
   3   7   8   28.33   20.41
   4 -12  -1  486.75   12.19
   4 -12   4   34.30    8.71
   4  -8  -4  412.06   13.11
   5  -7   8   18.20   17.36
   6   8  -7    2.66   15.93
   0   8   1  365.48   11.89
   1   5  -3  170.15   10.59
   1  13   1  581.36   12.50
   1  13   2  357.60   11.18
   2  -6   5  111.48    9.09
   2  -4   6   15.55   10.00
   2   8  -4  386.94   12.81
   2  16   1   12.36   10.51
   2  16   2  589.27   14.37
   3 -11   2 1450.73   15.85
   3  -9  -2  717.17   14.07
   3  -7   6   95.06   11.01
   3  17  -1   47.40    9.03
   3  17   4   31.23   14.13
   4  12  -5  209.28   11.65
   4  18  -2  134.04   14.47
   5 -13   4  163.36   11.68
   5 -11   6  289.12   14.71
   5  -9   7  172.58   15.74
   5  11  -6  318.65   17.60
   6 -14   4   89.65   13.35
   6 -12   6    5.20   14.63
   0   8   0  690.66   14.43
   1  -5   3  166.63    9.68
   1  13   0  362.05   11.10
   1  13   3  390.81   12.55
   2  -8   3    7.35    7.68
   2  12  -3  444.00   10.94
   2  14  -2  355.37   12.54
   2  16   0  748.38   14.46
   2  16   3   11.42   11.11
   3  -5  -4  628.13   16.69
   3   1   8   20.63   23.61
   3   9  -5  414.19   14.03
   3  13  -4  120.95   12.24
   3  15  -3  275.06   13.20
   4 -12   0   60.39    9.27
   4 -12   3  314.25    9.14
   4  -4   8    4.36   15.28
   4   8  -6  208.59   14.31
   5 -13  -1  179.77    9.11
   5 -11  -3   28.49    7.05
   5  -7  -5  480.99   16.79
   5  15  -5  110.00   17.48
   6 -14  -1  166.01   11.79
   6  -6  -6   99.47   13.20
   7 -15  -1  190.90   11.45
   7 -13  -3  180.23   15.49
   0   4  -1 2914.60   32.57
   0   6  -1  196.27   10.71
   0   8   3  189.15   10.86
   1  -5   0 2618.14   27.69
   1   5   6  474.40   23.34
   1  11  -2 1145.49   16.81
   2  -4  -3 1307.37   25.16
   2   8   7   -0.25   15.21
   2  12   6    0.82   12.49
   2  14   5  108.60   12.60
   2  16  -1   11.36    9.73
   3  15   6    0.72   15.79
   3  17  -2   30.63   12.45
   3  19   1    4.70   13.95
   3  19   2  133.70   13.99
   4 -12   2   77.82    7.62
   4 -10   5   22.89    9.92
   5 -13   0  279.82   11.52
   5 -13   3  129.42    8.66
   6 -14   0  171.43   11.95
   6 -14   3  130.99   12.45
   6 -12  -3  241.84   10.60
   7 -15   0   12.91   12.05
   7 -15   2   11.41   13.72
   7 -15   3  147.27   11.97
   0  10   1  415.38   12.19
   0  10   2  513.82   13.23
   1   1  -3  280.56   20.03
   1  11   5   -2.38   10.02
   1  13  -1  559.08   10.95
   1  13   4  253.13   11.72
   2  -8   2  525.08   11.03
   2  10  -4  163.73   12.16
   2  16   4  435.96   16.97
   3  -9   4  417.96    9.91
   3  13   7   30.90   17.21
   3  19   0  161.99   14.51
   4 -10  -2  122.98   10.17
   4  14  -5  174.38   14.47
   4  18  -3  186.54   16.20
   5 -13   1  204.35    9.85
   5 -13   2  218.25    9.45
   5 -11   5   16.75   10.26
   6 -14   1  203.21   12.18
   6 -14   2  122.07   11.09
   7 -15   1  212.23   11.19
   7  -7  -6   66.68   15.40
   8 -12  -4   12.09   14.69
   8  -8  -6   51.06   18.30
   0   2  -1  430.09   18.10
   0   4   4   77.31   12.89
   0   6   4  253.54   13.37
   0   8  -1  393.12   12.35
   1  -5   2 1654.44   20.95
   1   7   6  107.04   14.11
   1  15   1  394.79   12.30
   1  15   2    6.81    9.98
   3  -9  -1  894.73   13.49
   3   9   8   75.78   22.07
   3  11  -5   63.92   12.00
   3  19  -1   -2.28   14.13
   4  -8   6  244.90   12.97
   4  -6   7   62.11   13.40
   4  10  -6   53.63   13.21
   5   5  -7   17.67   16.14
   6 -12   5  174.49   12.52
   6  -8  -5    8.30   11.72
   7 -11  -4  318.02   13.72
   7  -3  -7   40.42   20.97
   8 -14  -2   56.02   13.08
   8 -10  -5   83.37   16.06
   0  10   3  303.33   11.79
   1  -3   4  842.25   18.80
   1  -1   5  199.79   14.63
   1  13  -2  354.55   11.82
   1  15   0    2.92    7.07
   1  15   3  271.88   12.75
   2  -6   4  459.65   12.00
   2  10   7   65.26   16.87
   2  16  -2  581.43   12.84
   2  18   0   93.89   13.19
   2  18   1  389.39   12.11
   2  18   2   71.38    9.97
   3  -9   3  681.69   12.84
   3  -3   7   85.30   14.73
   3  15  -4   -1.96   12.36
   3  17  -3   58.61   13.84
   4  -4  -5  842.83   22.57
   5 -11  -2  742.94   12.57
   5  -5   8  134.93   18.33
   5  -3  -6  155.94   17.78
   5   3  -7   33.12   21.50
   6 -12  -2    3.51   10.62
   7 -13  -2  120.92   11.71
   7  -9  -5  200.04   13.80
   0   8   4  415.86   13.75
   0  10  -1  409.17   12.44
   0  12   1  807.29   14.53
   0  12   2    8.64    9.98
   1  11  -3    6.16    9.42
   1  15  -1  397.78   12.68
   2  12  -4    2.50    7.83
   2  14   6  139.28   15.76
   2  16   5   10.19   14.58
   2  18   3  264.89   11.84
   3  -7   5  583.39   13.25
   3  19  -2  134.15   15.70
   4 -10  -1   23.36    8.54
   4  -8  -3    1.65    8.18
   5 -11   4  493.98   12.58
   5  -9   6  116.70   11.85
   5  -7   7  204.48   18.13
   5   9  -7  171.57   19.54
   6 -10   6   54.40   14.22
   7 -13   4  101.94   14.32
   8 -14  -1   73.93   13.40
   0  12   0   16.25    9.03
   1   9   6  103.00   12.36
   1  13   5  213.87   13.15
   1  15   4   -1.38   11.61
   2  18  -1  385.60   11.82
   2  18   4   68.34   13.71
   3  -5   6  348.95   13.90
   3  13  -5   77.99   14.18
   4 -10   3   24.35    8.01
   4  -2   8   65.34   18.70
   4  16  -5   16.82   16.64
   5 -11  -1   28.28    9.31
   6 -12   4    0.01    8.40
   7 -13  -1  258.56   13.66
   8 -14   0   91.70   14.71
   8 -12  -3  172.03   15.02
   0   6  -2  313.10   11.63
   0   8  -2  555.70   13.68
   0  10   4  298.49   12.45
   0  12   3  544.23   12.13
   1  17   0   61.05   10.71
   1  17   1   96.94   12.04
   1  17   2   51.85   11.77
   2  -4   5  689.97   15.61
   2  -2   6  287.89   15.88
   2   8  -5    4.80   11.03
   2  16  -3    8.38   12.74
   3  -7  -2  278.32   10.67
   4  -6  -4  239.62   11.76
   5 -11   3   26.59    9.68
   5  -9  -3  740.32   15.15
   6 -12  -1  302.30   10.00
   6 -12   3  242.11   12.68
   6  -8   7    6.86   13.74
   7 -13   0  115.47   13.31
   7 -13   3  177.83   10.96
   7 -11  -3    3.96   12.30
   8 -14   1   60.04   12.02
   8 -14   2   63.55   11.69
   0  12  -1  712.04   12.61
   0  14   1  365.77   12.73
   0  14   2  174.50   11.36
   1  15  -2    7.31    8.48
   1  17   3   70.56   12.43
   2  -6   3  206.48    9.33
   2   2   7  316.02   31.79
   2  14  -4  252.48   10.83
   2  18  -2   90.27   10.63
   2  20   1  249.65   13.68
   3   7  -6   73.80   13.52
   3  17  -4    3.65   10.85
   4  -8   5    2.04    6.35
   5 -11   0  972.84   14.44
   5 -11   2  722.86   13.16
   5  11  -7    0.95   17.09
   6 -12   0   -1.04    9.90
   6 -12   2   -2.92   10.26
   6 -10  -3  119.08   10.05
   7 -13   1  243.28   13.04
   7 -13   2  122.37   10.28
   0   4  -2  211.51    9.77
   0  10  -2  478.06   11.76
   0  12   4   12.24    9.86
   0  14   0  182.88    8.63
   1   7  -4  213.60   10.80
   1   9  -4  158.84   11.13
   1  17  -1   88.28    9.08
   2   4  -5  679.33   20.14
   2  10  -5  113.68   11.53
   2  20  -1  237.63   15.24
   3  -7   4  172.53    9.34
   3   5  -6  317.19   17.44
   5 -11   1   15.22    6.76
   5  -9   5  429.35   13.14
   6 -12   1  344.88    9.94
   6 -10   5   57.61   11.86
   6  -4  -6   16.01   14.05
   7 -11   5    5.71   12.06
   8 -12  -2   25.24   12.46
   8 -10  -4   46.35   13.70
   0  12  -2   10.50   10.12
   0  14  -1  379.92   13.23
   0  14   3  246.67   10.54
   1  -3   3  291.60   12.77
   1   5  -4 1008.59   19.42
   1  15   5  183.62   14.86
   1  17   4   43.62   14.34
   2  -6   0 1063.62   16.65
   2  -6   2  773.94   13.79
   2  18  -3  321.41   17.37
   4  -8  -2  617.61   13.47
   4  -6   6  148.18   11.80
   4  -4   7  409.54   17.74
   5  -7  -4   73.95    9.87
   5  -5  -5   55.81   10.83
   8 -12   4   14.97   14.40
   8  -6  -6   65.52   17.95
   9 -13  -1   80.13   12.84
   0   8   5   82.65   11.95
   0  16   1   86.06   11.81
   0  16   2  574.64   14.62
   1  11  -4  700.39   15.71
   1  13   6  143.43   14.83
   1  15  -3  295.76   11.25
   1  17  -2   69.48   10.18
   1  19   0  105.28   14.17
   1  19   1   26.08   10.27
   1  19   2   98.79   14.55
   2  -6   1  297.23   10.49
   2  12  -5  267.33   14.64
   2  16  -4  364.08   13.15
   3  -5  -3  221.36   11.08
   4  -8   4  361.32   11.24
   5  -7   6   34.95   12.01
   5  -3   8   91.04   17.08
   7 -11  -2  452.51   13.26
   7 -11   4  311.43   14.45
   7  -9   6   48.72   15.12
   7  -5  -6  162.73   15.91
   8  -8  -5   10.82   12.90
   9 -13   0   95.72   15.24
   9 -13   1  110.15   16.55
   9 -11  -3   -0.34   14.79
  -1   7   1 2601.28   26.45
  -1   9   1 1523.74   19.93
  -1   9   2  282.66   12.29
   0   6   5  109.96   14.19
   0  10   5  185.89   13.73
   0  14   4  113.51   12.74
   0  16   0  668.31   13.00
   1  19  -1   39.87   14.22
   1  19   3   28.69   15.17
   3  -7  -1 1555.10   17.97
   3  -7   3 1027.74   14.80
   3   3   8   79.76   29.97
   4   8  -7   -5.92   15.72
   5  -9  -2  370.53   10.31
   5  -9   4  258.18   10.99
   5  -5   7   30.20   13.47
   6 -10  -2  133.52    8.61
   6 -10   4  103.11   10.74
   6  -8   6  139.21   13.03
   6  -6  -5   77.92   12.13
   6  -4   8    9.01   20.32
   7  -7  -5  380.28   16.71
   8 -12  -1  218.43   11.28
   8 -12   3  187.06   14.25
  -1   7   0  570.47   13.85
  -1   7   2  389.94   11.61
  -1   9   0  370.37   10.61
  -1  11   1    9.63    9.76
  -1  11   2 1019.95   17.77
   0   8  -3  159.58   10.69
   0  10  -3  298.94   12.57
   0  14  -2  168.44    9.62
   0  16  -1   97.52   11.82
   0  16   3   61.44    8.91
   1  13  -4  248.68   11.47
   1  17   5   64.79   15.92
   2  14  -5  144.11   15.49
   3  -5   5  101.02    9.14
   3  -3  -4  279.96   15.22
   3  -1   7  221.88   16.94
   4  10  -7   11.30   15.20
   6  -6   7   53.10   14.87
   6   0  -7    1.63   23.21
   7 -11  -1    1.37   10.54
   7 -11   3   11.78   12.41
   7  -7   7  202.40   18.45
   8 -12   0   18.60    9.45
   8 -12   1  245.42   14.93
   8 -12   2   24.59   12.65
   8 -10  -3  109.37   14.80
  -1   5   1  242.79   11.50
  -1  11   0 1228.51   16.43
  -1  13   1  532.94   14.02
   0   0   2 9999.00  154.60
   0   6  -3  162.94   10.33
   0  12   5  333.52   15.57
   0  18   1  392.83   15.27
   1  15   6  -12.76   15.15
   1  17  -3   81.01   11.03
   2  -4   4   39.59    7.74
   2  18  -4   60.14   12.63
   3  -7   2  272.56    9.57
   4  -8  -1    5.01    7.90
   4  -8   3   -4.14    7.98
   4   0   8  177.77   21.72
   5  -9  -1  976.98   15.01
   6 -10  -1  163.83   10.89
   6 -10   3  114.37   11.04
   7 -11   0  556.33   14.59
   7 -11   2  479.30   15.20
   8 -10   5   60.07   13.57
  -1   5   2 1753.37   25.94
  -1   7   3 1566.91   22.90
  -1   9  -1 1394.18   18.28
  -1   9   3  951.86   16.44
  -1  11  -1    2.66    9.28
  -1  11   3    1.28   10.54
  -1  13   0  433.07   13.05
  -1  13   2  385.83   13.55
   0  16   4  426.01   17.11
   0  18   0  148.74   10.49
   1  -3   0 1899.21   28.86
   1  -3   2 1355.92   22.59
   1   3  -4  844.52   23.02
   1  15  -4    3.69    9.11
   2  16  -5    6.25   16.30
   3  -3   6  164.88   11.84
   3   3  -6  172.48   19.57
   3  15  -6    0.58   17.15
   4  -6   5   96.04    9.71
   7 -11   1   12.94   10.98
   7  -9  -3  368.14   13.87
   7  -9   5  221.82   13.71
   9  -9  -4   -0.16   12.07
  -1   5   0 2468.95   27.46
  -1  13  -1  549.44   13.45
  -1  13   3  409.48   14.02
  -1  15   1  404.55   13.43
   0  14  -3  267.55   14.52
   0  14   5  136.61   14.04
   0  18  -1  386.86   12.33
   0  18   3  277.84   12.72
   1  -3   1  421.19   14.88
   1  19  -3   39.81   15.28
   5  -9   2  354.80   10.74
   5  -7  -3  765.10   15.21
   5  -7   5  450.12   13.23
   6 -10   0  170.73    8.38
   6 -10   1  159.97   10.60
   6 -10   2  154.44    8.77
   6  -8  -3   16.40    9.85
   6  -8   5    4.86   10.70
   8 -10   4   76.08   14.93
   8  -2  -7   49.17   23.35
   9 -11  -1   -4.06   14.87
   9 -11   3   -1.93   16.34
  -1  15   0   -2.90   11.38
  -1  15   2    2.29   11.74
   0   2  -2 1527.20   31.24
   0  20   1  291.27   17.26
   1   9  -5  538.22   14.64
   1   9   7  249.52   22.82
   1  11  -5    1.38   10.48
   1  11   7    1.19   17.55
   1  17  -4   37.96   15.10
   7  -1  -7   33.09   19.67
   8 -10  -2  100.00    9.44
   8  -8  -4  116.99   13.31
   8  -8   6   51.79   12.77
   9 -11   0  306.99   17.40
   9 -11   2  252.89   16.12
   9  -7  -5  153.00   16.27
  -1   9  -2  278.44   11.43
  -1  11  -2 1072.16   17.20
  -1  11   4  636.18   15.69
  -1  15  -1  416.68   14.11
  -1  15   3  286.64   14.46
   0   4  -3 1648.37   25.30
   0  10  -4  237.80   11.84
   0  16  -3   75.16   15.43
   0  16   5   56.23   15.69
   0  18  -2  124.51   11.55
   0  18   4   64.91   17.40
   0  20   0  173.84   12.70
   0  20   2  134.08   12.48
   1  -1   4  149.00   12.85
   1   7  -5  825.63   17.34
   2  -2   5  707.95   18.38
   2   8  -6  204.61   13.48
   2  10   8   24.45   24.29
   3  -5   4  597.42   12.83
   4  -4   6   17.69   11.49
   4  -2   7  282.18   16.96
   5  -1   8    3.03   18.96
   7  -9   4  100.25   12.30
   7  -7   6   58.23   15.72
   8 -10   3  139.10   14.54
   9 -11   1   -1.86   10.07
  -1   9   4  199.19   11.55
  -1  13  -2  377.16   13.79
  -1  13   4  212.17   13.91
  -1  17   0   58.84   13.00
  -1  17   1   91.23   10.52
  -1  17   2   57.27   13.63
   0   8  -4  337.84   12.79
   0  10   6  120.04   16.38
   0  12  -4    8.34   11.02
   0  20  -1  304.86   13.55
   1  13   7   96.77   18.88
   1  15  -5  178.90   15.93
   2   0   6  745.82   23.53
   2   2  -5  749.73   30.23
   2  14  -6  118.78   16.34
   4  -4  -4   38.60    9.51
   5  -5   6  311.29   14.62
   6  -6   6  123.43   14.30
   6  -2   8   68.71   20.98
   7  -9  -2   95.81    8.59
   7  -5   7   33.03   16.44
   8 -10  -1  145.41   11.10
   8  -6  -5   25.17   13.66
   9  -9  -3  224.34   13.27
  10 -10  -2   26.59   12.50
  -1   5   3  156.87   11.26
  -1   7  -2  388.56   10.77
  -1  15  -2  -12.25   12.71
  -1  17  -1  103.27   13.32
  -1  17   3   85.77   13.57
   0   4   5  827.59   33.51
   0  12   6    1.41   15.39
   0  14  -4  121.90   13.88
   0  20  -2  124.33   18.39
   2  -4  -1 1741.23   23.50
   2  -2  -3 1506.75   33.11
   2   8   8   95.37   35.02
   3   9  -7  163.37   18.28
   3  11  -7   19.19   16.06
   3  13  -7   22.45   19.95
   4  -2  -5  602.07   22.58
   4   4  -7  380.58   32.64
   5  -7   4   68.34    9.62
   5  -5  -4  610.78   15.28
   5  -3   7   43.11   15.19
   6  -8  -2  319.77   12.03
   6  -4   7  221.39   17.75
   7  -9   3  323.73   13.65
   8 -10   0  131.77   12.49
   8 -10   1  153.45   13.18
   8 -10   2  110.71   10.65
   8  -8   5    2.99   14.03
   8  -4  -6    4.73   15.29
  10 -10  -1    5.27   16.24
  -1   7   4  221.77   12.80
  -1  15   4    0.50   13.91
  -1  19   0   99.58   14.08
  -1  19   1   29.24   15.60
   0   8   6  212.93   17.13
   0  14   6   65.47   17.06
   0  16  -4  430.06   16.48
   1   7   7  410.27   30.71
   1  17  -5   57.06   16.32
   2   6  -6  232.66   13.88
   4  -6  -2  386.57   11.70
   5  -7  -2   89.19    9.52
   7  -9  -1  383.05   10.72
   7  -5  -5   43.03   13.24
   8  -8  -3   16.89   12.48
   9  -9   4   33.81   14.60
  10 -10   0   18.83   17.15
  10 -10   2   16.18   16.04
  -2  12   1  611.03   14.75
  -1  11  -3    0.67   10.50
  -1  13  -3  386.63   14.25
  -1  17  -2   57.03   15.13
  -1  19   2  108.63   12.47
   0   6  -4  242.14   11.82
   2  -4   2   64.76    7.87
   3  -5   3  191.99    9.20
   5  -1  -6    9.01   14.42
   6  -8   3   20.49    9.42
   7  -9   0  133.15   11.66
   7  -9   1  465.03   13.82
   7  -9   2  132.90    9.11
   7  -7   5  413.83   14.91
   7  -3  -6  160.65   16.31
   9  -9  -2   79.16   10.22
   9  -7  -4   26.86   14.23
  10 -10   1   -1.58   11.10
  -2  10   0  249.57   11.38
  -2  10   1  222.20    9.96
  -2  10   2  205.36   12.19
  -2  12   0    4.05    7.16
  -2  12   2   13.95   11.30
  -2  14   0  399.91   14.48
  -2  14   1  339.37   14.68
  -1   3   1  495.95   17.43
  -1   9  -3  918.69   15.14
  -1  11   5    2.50   13.82
  -1  15  -3  316.48   15.76
  -1  17   4   18.17   16.31
  -1  19   3    7.92   16.94
   0  16   6  163.35   20.70
   0  18  -4   97.03   16.47
   1  -1  -2  299.74   23.35
   2  -4   0  100.30    8.46
   3  -3   5  210.76   10.54
   3   7  -7  270.29   19.44
   4  -6   3  158.99    9.43
   5  -7   3  714.18   13.31
   5  -3  -5   83.10   13.31
   5   7  -8   10.11   22.66
   6  -8  -1   26.02    6.70
   6  -8   2  302.66   12.05
   6  -4  -5  398.43   15.82
   6  -2  -6  153.76   15.94
   8  -6   6   70.91   16.62
   9  -9  -1  337.78   16.42
   9  -9   3  243.20   12.55
  10  -8  -3    1.56   13.97
  -2   8   1    5.67    8.37
  -2  10  -1  228.44   10.53
  -2  12  -1  614.86   14.12
  -2  14  -1  299.01   13.05
  -2  14   2  343.21   11.56
  -2  16   0  732.56   16.86
  -2  16   1   21.14   13.18
  -1   5  -2 1980.54   24.89
  -1  13   5  214.35   15.35
  -1  17  -3   80.35   15.45
  -1  19  -2  104.91   17.62
   0  12  -5  309.51   13.32
   1   1   5  188.74   17.99
   1  13  -6  113.11   13.31
   2  -4   1 1774.38   22.52
   3   1   7  237.90   21.04
   4  -6  -1  205.46   10.10
   4  -4   5  755.33   15.33
   4   2   8   49.92   19.68
   5  -7  -1  975.40   14.39
   5  -5   5   49.47   10.22
   6  -8   0  339.74   11.41
   6  -6   5   66.52    8.92
   7  -7  -3  629.29   13.04
   9  -9   0   91.46   14.59
   9  -9   2   86.16   14.00
   9  -7   5  170.99   17.06
  -2   8   0  593.37   12.61
  -2   8   2  526.00   13.90
  -2  12   3  464.54   15.91
  -2  14   3  215.58   14.55
  -2  16  -1   19.65   12.22
  -2  16   2  614.78   17.18
  -1   7  -3 1655.05   21.23
  -1   9   5  559.76   17.88
  -1  15   5  183.50   17.09
   0  10  -5  184.41   12.12
   0  14  -5  128.96   15.43
   1  15  -6    7.07   17.68
   3  -5   2  819.48   14.07
   3  -1   6   29.36   13.21
   4  -6   2  385.08   11.04
   7  -7   4  130.52   12.19
   7  -5   6  183.68   15.87
   8  -8   3   18.44   13.06
   8  -6  -4  121.11   13.18
   9  -5  -5   19.48   15.58
  10  -8  -2  122.08   15.80
  -2   8  -1    6.77    7.96
  -2  10   3  180.62   11.90
  -2  12  -2    6.16   10.16
  -2  14  -2  338.61   14.08
  -2  16   3    5.39   13.62
  -2  18   0   98.14   15.71
  -2  18   1  409.27   17.42
  -2  18   2   83.14   14.48
  -1   3   2 1453.22   29.34
  -1  11  -4  640.43   15.21
  -1  13  -4  234.24   13.88
  -1  17   5   54.61   16.24
  -1  19  -3   24.65   18.61
   0  16  -5   69.33   17.04
   1   9  -6   91.13   12.47
   2  12  -7  115.08   16.88
   3  -5   1  343.45   11.30
   6  -6  -3  111.33   10.19
   6  -4   6   15.33   12.98
   7  -3   7   54.78   16.45
   8  -8  -1   23.90   11.81
   9  -7  -3  343.26   16.95
   9  -3  -6   82.20   18.52
  10  -8   3   -9.09   16.15
  10  -6  -4   44.90   16.65
  -2  10  -2  199.82   11.53
  -2  16  -2  616.77   18.16
  -2  18  -1  419.98   16.93
  -1  15  -4    7.48   10.27
   0   8  -5   76.95   10.02
   2  10  -7   57.68   17.58
   3  -3  -3  422.49   14.95
   4  -2   6  137.10   14.33
   5  -3   6  155.43   13.28
   5   1   8    6.53   17.55
   6   0   8  217.44   21.66
   7  -7  -2  197.32   12.15
   8  -8   0  190.51   13.32
   8  -8   2  164.54   12.11
   8  -6   5   43.00   13.41
   9  -7   4   56.50   15.08
  10  -8  -1    4.80   15.85
  -2   8   3    2.56    9.03
  -2  12   4    2.79   11.45
  -2  14   4  220.09   15.94
  -2  18  -2  104.38   16.26
  -2  20   0   64.06   18.37
  -2  20   1  242.66   19.56
  -1   3  -1  452.34   15.68
  -1   5   4  938.73   24.41
  -1  17  -4   34.65   12.71
   4   0   7    0.68   13.57
   5  -1   7  177.84   18.65
   6  -2   7  136.18   16.50
   7  -7   3  639.52   15.04
   8  -8   1   10.30    8.19
   8  -4  -5  213.72   16.20
   8   0  -7    3.15   21.52
  10  -8   0  164.09   16.11
  10  -8   1    9.83   13.37
  10  -8   2  126.53   11.59
  -2   6   0 1112.72   18.38
  -2   6   1  291.78   10.74
  -2   8  -2  562.05   13.55
  -2  12  -3  400.70   13.69
  -2  16   4  426.38   18.91
  -2  20  -1  241.53   14.85
   0   6   6  141.53   20.87
   0  12   7  154.89   22.93
   0  14   7   49.34   19.83
   7  -7  -1  850.27   15.72
   9  -7  -2   63.78   12.87
  -3  13   1  157.04   11.90
  -2   6   2  817.28   17.35
  -2  10   4  142.41   11.88
  -2  16  -3   22.91   11.64
  -2  18   4   50.28   20.09
  -1   7   5  871.24   24.02
  -1  13   6  132.74   17.85
  -1  15   6    4.29   19.27
   0   4  -4   90.30   10.79
   1  -1   3  219.24   12.16
   1   7  -6  114.00   12.81
   2   4  -6   15.97   14.85
   2   8  -7   -2.26   14.38
   4  -4   4   39.04    8.49
   6  -6  -2  296.59   10.05
   6  -6   3  120.63   10.61
   7  -7   1  849.37   15.14
   7  -7   2  188.77    9.91
   7  -5   5   44.97    9.16
   8  -6  -3   57.90    9.31
   8  -6   4  146.53   14.03
   8  -4   6    2.60   14.39
   8  -2  -6  121.71   17.73
   9  -7   3  333.96   13.16
   9  -5  -4  235.31   15.35
  10  -6  -3   21.30   16.11
  11  -7  -1  199.93   18.69
  -3  11   0 1654.30   19.70
  -3  11   1  115.66   11.34
  -3  13   0  162.26    9.54
  -3  13   2  153.77   13.06
  -3  15  -1  312.47   14.26
  -3  15   0    6.05   10.07
  -3  15   1  362.90   13.26
  -3  15   2   -6.66   13.95
  -3  17   0    7.02   16.19
  -3  17   1   15.48   16.86
  -2   6  -1  278.94   11.53
  -2  10  -3  165.66    9.46
  -2  18  -3  303.09   15.75
  -1   5  -3  158.39   10.61
  -1  11   6  315.40   21.70
  -1  13  -5  222.71   15.04
   0  12  -6   -2.41   13.44
   0  14  -6   53.86   16.03
   3   5   8   97.99   29.45
   6  -4  -4   23.55   10.11
   8  -2   7   13.61   18.80
   9  -7  -1  389.69   15.67
   9  -5   5    8.83   15.60
  10  -6   4   16.17   12.56
  11  -7   0   45.26   16.41
  11  -7   1  124.77   16.06
  -3  11   2 1385.03   19.75
  -3  13  -1  150.61    9.44
  -3  17   2   -5.71   16.06
  -3  19   1    2.66   16.55
  -2  14   5  124.76   18.46
  -1   7  -4  212.42    9.53
  -1  11  -5    2.40   11.10
   3   5  -7   61.54   21.41
   5  -5  -2  956.10   16.50
   5  -5   3   74.23    9.63
   6  -6  -1  166.01   11.08
   6  -4   5  377.25   13.44
   7  -3  -5  100.16   13.84
   7  -3   6  181.92   15.76
   7   1  -7   30.25   21.03
   9  -7   1  384.05   11.77
  -3  11  -1  118.94    8.54
  -3  13  -2  192.62   12.83
  -3  13   3  114.64   12.77
  -3  15  -2   -0.55   12.91
  -3  19  -1   -5.87   17.44
  -3  19   2  115.26   18.90
  -2   8   4  372.81   15.33
  -2  12  -4   -7.62   11.89
  -2  12   5  230.19   16.53
  -2  14  -4  195.16   11.43
  -2  16   5    2.32   17.55
   0   2  -3  460.78   19.95
   1  11  -7    0.90   17.44
   1  11   8  122.24   33.78
   7  -5  -3   80.96   11.16
   8  -6  -2  178.85   10.69
   9  -3  -5   17.03   17.72
   9  -3   6   80.09   18.06
  10  -6   3   25.33   11.92
  11  -5  -3   -0.29   17.55
  -3   9   0  811.74   14.02
  -3   9   1  874.70   15.20
  -3  17  -2   21.63   12.39
  -3  17   3   49.95   13.46
  -2   6  -2  863.85   16.51
  -2   6   3  193.65   11.52
  -2   8  -3    1.41    7.02
  -2  18  -4   60.45   14.51
  -1   9  -5  553.14   14.77
   2   0   5    3.74   10.15
   2   4   7  342.63   30.41
   4  -4  -2   60.71    8.90
   4  -4   3 1459.10   18.77
   5  -3  -4  296.15   13.19
   5  -3   5   85.42   10.58
   7  -1  -6   57.86   14.58
   7  -1   7   44.39   15.35
   8  -6   2  196.59   12.79
   8  -4  -4    0.85   12.08
   8  -4   5  200.77   15.57
   9  -5  -3   29.95   13.98
   9  -5   4  279.50   16.71
  10  -6  -1   44.52   15.27
  10  -6   2   64.39   15.17
  10  -4  -4    5.32   15.84
  -3   9  -1  909.95   15.90
  -3   9   2  709.89   15.88
  -3  11  -2 1444.91   17.84
  -3  11   3   92.22   11.80
  -2  10  -4  139.30   12.32
  -1   3  -2 1509.16   25.44
  -1   3   3  270.04   17.04
  -1   9   6  109.09   17.09
   2   0  -4 1429.37   54.51
   3  -3   3  404.21   11.93
   3  -1   5  464.38   16.37
   3   9  -8   74.24   21.68
   4  -2   5  625.24   15.47
   4   4   8    1.94   22.16
   5  -5  -1   77.06    7.42
   6  -2  -5  291.76   17.83
   6  -2   6  152.98   13.77
   6   2   8   68.97   20.03
   8  -6  -1   51.34    8.75
   8  -6   0  227.70   12.91
   8  -6   1   68.11   11.10
   9  -1  -6   12.15   20.10
  10  -6   0  108.05   15.16
  10  -6   1   45.28   13.76
  11  -5  -2  104.85   17.31
  -3  15  -3  270.09   13.41
  -3  15   4    7.18   15.35
  -3  17  -3   48.86   18.02
  -3  17   4   32.79   19.07
  -2  10   5  109.95   14.12
  -1  15  -6   -8.20   18.03
   0   8  -6  231.19   16.73
   1   3  -5  165.08   16.86
   4  -2  -4  228.53   14.31
   5   3   8   53.06   20.24
   6  -4   4   40.90   10.62
   6   0   7    0.64   15.20
   7  -5  -2  534.73   14.76
   7  -5   3   75.56   12.03
  -4  16   0  534.15   18.51
  -4  16   1   20.51   15.53
  -3   9  -2  727.76   15.20
  -3  13   4  111.77   14.96
  -2  14  -5  144.98   15.71
  -2  16  -5   13.34   17.05
  -1  13  -6  142.21   15.76
   0  14  -7   53.29   17.40
   1   9  -7  265.47   17.62
   4  -4   2   55.74    9.00
   5  -1   6    6.82   12.21
   6  -4  -3  678.79   15.08
   6   2  -7  116.91   23.35
   7  -3   5  111.55   13.65
   8  -2   6  120.00   15.55
   9  -5  -2  398.93   15.13
   9  -5   3   29.06   10.18
  10  -4   4    7.02   16.54
  11  -5  -1   38.07   15.51
  11  -5   1   34.65   16.75
  11  -5   2  113.68   13.32
  -4  14  -1  359.05   14.74
  -4  14   0  267.84   11.82
  -4  14   1  347.78   13.18
  -4  16  -1   43.22   15.37
  -4  16   2  476.18   18.90
  -4  18  -1  328.06   19.70
  -4  18   0  152.83   15.01
  -4  18   1  305.16   20.48
  -3   7   0  400.33   13.02
  -3   7   1 1671.57   21.70
  -3   9   3  686.31   16.07
  -3  11  -3  105.19    8.76
  -2   4   0  104.97    7.90
  -2   4   1 2092.32   28.25
  -2  12  -5  241.32   15.29
   1  -1   2  262.67   14.38
   1   5  -6  471.49   22.55
   2   2   6  278.04   19.43
   3  -1  -4   52.58   12.27
   4   0   6  539.24   20.14
   5   1   7  182.00   18.45
   6   0  -6  536.90   22.78
   7  -5  -1   95.88   11.27
   8  -4   4   17.84    9.50
   8  -2  -5  159.61   16.08
   8   0   7    1.23   17.99
   9  -5   2  388.14   15.15
   9  -3   5   15.58   11.19
  10  -4  -3  283.12   14.39
  -4  12  -1  444.04   13.51
  -4  12   0   57.89    8.85
  -4  12   1  465.29   14.71
  -4  16  -2  440.41   17.09
  -4  18   2  118.04   14.66
  -3   7  -1 1605.86   20.51
  -3  11   4  886.49   19.05
  -3  13  -4   87.08   13.21
  -3  15  -4  -11.50   11.28
  -3  17  -4   13.75   13.69
  -2   6  -3  223.38   11.41
  -2   8  -4  350.64   13.65
  -2  14   6  146.35   19.56
  -1   5  -4 1035.75   19.98
  -1   7  -5  847.78   18.17
  -1  11  -6  333.00   16.05
  -1  13   7  110.36   24.89
   0  12  -7  156.51   18.32
   2   6  -7   64.79   17.52
   3  -3   2  348.45   11.98
   3   1   6   31.51   14.31
   3   3   7   79.22   18.58
   4  -4   0   62.84    8.93
   4  -4   1 2359.84   24.14
   4   2   7  281.34   20.46
   5  -3   4  277.93   12.10
   5  -1  -5  335.26   17.84
   6  -4   3  663.02   14.71
   7  -5   0  616.17   14.25
   8  -4  -3  313.84   13.43
   9  -5  -1   27.94   10.01
   9  -5   0  427.92   15.52
   9  -5   1   43.33   11.80
   9  -3  -4  140.88   14.67
  10  -4   3  294.72   17.00
  -4  12   2   69.31   12.57
  -4  14  -2  256.70   12.16
  -4  16   3   14.63   18.11
  -4  18  -2  136.44   15.23
  -4  18   3  214.27   20.53
  -3   7   2  270.71   11.76
  -3   9  -3  689.60   15.80
  -3  15   5  192.85   18.17
  -2   4  -1 1864.21   24.41
   2  -2   2 1063.70   20.09
   2  10  -8   24.83   23.38
   6  -4  -2   63.66   10.38
   6  -2   5  289.42   14.08
   7  -1   6   56.74   15.21
   8  -4   3  346.39   14.75
   9  -1   6   15.82   15.91
  10  -4  -2   20.38   13.90
  10  -2   5   93.39   17.94
  11  -3  -3   36.26   16.87
  -4  10   0  149.16   11.44
  -4  10   1   16.46   10.60
  -4  12  -2   55.35   12.03
  -4  14   3  277.49   16.79
  -4  16  -3   28.05   15.40
  -3  11  -4  943.99   18.34
  -3  13   5   79.89   18.22
  -2   4   2   66.21    9.07
  -2  10  -5  114.69   12.11
  -2  12   6    1.69   16.52
   3  -3   1  999.89   18.64
   7  -3   4  341.51   14.11
   7   1   7   42.05   17.77
   8  -2   5  138.52   14.29
   8   0  -6  374.21   21.30
   8   2  -7   38.68   20.74
   9  -3   4  158.54   15.34
  10  -4   2   14.99   13.00
  11  -3   3   45.18   16.68
  -4  10  -1   20.24    9.99
  -4  12   3  324.58   14.93
  -4  14  -3  328.60   16.49
  -3   7  -2  282.30   10.03
  -2   6   4  442.93   15.93
  -2   8   5    0.59   12.03
  -2  14  -6  140.95   17.65
   0   8   7   30.32   29.34
   0  10  -7   98.34   16.73
   3  -3   0  412.74   12.41
   8  -4  -2   21.08    9.56
   8  -4   2   24.01   11.61
   9  -1  -5   85.80   18.52
  10  -4  -1  395.32   14.25
  10  -4   0   24.30   14.96
  10  -4   1  353.34   14.92
  10  -2  -4   77.85   16.90
  11  -3  -2   43.29   15.72
  -5  17   0   54.76   16.44
  -4  10   2  114.31    9.40
  -4  16   4  320.27   21.47
  -3   9   4  421.46   14.63
  -3  15  -5  167.98   13.87
  -2   4  -2   71.90    9.27
  -1   3  -3  317.25   14.15
  -1  11   7    0.31   22.59
   2  -2   1 2757.84   33.56
   5  -3   3  133.61   10.62
   5   3  -7   36.76   22.82
   6  -4  -1  931.65   15.98
   6   0   6  527.18   18.66
   6   4   8    6.51   20.64
   7  -3  -3  189.63   12.98
   7  -1  -5   55.61   15.79
   8  -4  -1  472.07   15.22
   9  -3  -3   42.66   10.19
  10  -2   4   82.18   16.70
  11  -3  -1   55.60   17.85
  11  -3   2   48.01   11.18
  -5  15  -1  140.31   15.85
  -5  15   0   -8.89   11.20
  -5  15   1  194.06   17.32
  -5  17  -1   78.62   18.03
  -5  17   1   60.08   14.57
  -4  10  -2  141.68    9.20
  -4  12  -3  356.71   12.03
  -4  14   4  197.28   17.41
  -4  16  -4  274.15   20.20
  -3   7   3 1054.47   18.78
  -3  11   5   60.00   16.66
  -3  13  -5   68.16   15.10
  -2  12  -6   -0.86   15.12
  -1  13  -7  125.33   18.91
   0   6  -6  143.36   16.13
   1   7  -7  400.06   21.44
   1  11  -8  122.53   23.04
   2  -2   0 1583.50   27.32
   3  -1   4   55.78    9.41
   4   0  -5   -0.09   14.46
   5  -1   5  335.98   13.59
   5   1  -6    9.61   15.38
   6  -2  -4  279.85   13.37
   6   2   7  134.63   17.61
   8  -4   0   18.65   10.97
   8   0   6  425.94   18.54
   8   2   7   58.11   19.73
   9  -3   3   54.91   10.06
   9  -1   5   82.39   15.84
  11  -3   0   79.01   16.20
  11  -3   1   73.22   12.18
  -5  13   0  283.80   14.87
  -5  13   1  185.05   15.19
  -5  15   2   -0.72   16.01
  -5  17  -2   56.08   18.40
  -5  17   2   56.12   13.79
  -4   8   0  754.99   15.77
  -4   8   1   -0.34    9.78
  -4  10   3   12.31   10.26
  -4  14  -4  193.26   17.24
  -3   7  -3 1117.37   18.59
  -3   9  -4  446.16   12.53
  -2   6  -4  535.41   15.10
  -2   8  -5    0.40   10.27
  -2  10   6   73.18   17.99
  -1   5   5   82.08   18.18
   1  -1   1   17.29    8.20
   4  -2  -3 1093.95   21.13
   5  -3  -2  433.65   13.86
   5   5   8  114.29   24.85
   6  -2   4  294.41   13.73
   7  -3   3  179.43    9.67
   7  -1   5   73.33   13.47
   8  -2   4  232.83   14.38
   9  -3  -2  234.64   14.73
   9   1  -6    5.23   18.95
  10  -2  -3  215.58   18.07
  -5  13  -1  170.22   10.53
  -5  15  -2   -1.12   11.38
  -4   8  -1    1.61    6.59
  -4  10  -3   27.06   11.33
  -4  12   4   50.83   13.69
  -3   5   0  967.91   17.04
  -3   5   1  289.35   12.00
  -3  11  -5   80.29   13.99
  -3  15   6   -2.76   19.63
   2   0   4 1432.67   26.03
   2   8   8   88.24   39.46
   3   7  -8   29.22   30.26
   5  -3   2  392.86   12.70
   9  -3   2  199.15   10.54
   9   1   6    4.92   19.28
  10  -2   3  172.48   14.68
  10   0   5  -12.45   17.74
  -5  11   0  883.39   17.53
  -5  13  -2  197.80   14.27
  -5  15   3  119.46   19.44
  -5  17  -3   43.79   20.26
  -5  17   3   69.79   16.08
  -4  12  -4   44.02   13.79
  -4  16   5   41.32   21.07
  -3   5  -1  305.54   10.53
  -3  15  -6  -22.92   20.73
  -2  10  -6   82.92   14.13
  -1   7   6  105.54   20.12
  -1  11  -7   -1.79   16.46
   1   1   4  163.81   15.57
   4  -2   3 1039.97   16.80
   4   0   5    6.48    9.66
   4   6   8   66.86   25.59
   5   1   6   11.01   13.28
   5   3   7   45.70   19.42
   7  -3  -2  449.74   12.73
   7  -3   2  473.81   13.51
   7   1  -6   58.22   15.86
   7   3  -7   43.66   22.58
   9  -3  -1   59.34   10.10
   9  -3   0  274.60   13.97
   9  -3   1   56.59    8.82
   9  -1  -4   15.73   13.76
  10  -2  -2   79.63   14.71
  11  -1  -3  105.85   16.46
  11  -1   3   90.55   17.01
  -5  11  -1   38.10    8.60
  -5  11   1   23.99    8.30
  -5  15  -3  143.69   13.49
  -4   8  -2  596.60   12.97
  -4  16  -5   12.33   14.95
  -3  13   6   72.97   21.96
  -1   5  -5   87.65   11.35
  -1   7  -6  122.09   16.30
   0   8  -7   38.85   15.50
   2   8  -8   99.57   24.84
   3   7   8   28.49   27.23
   5  -3  -1  177.55    9.38
   7   1   6   61.36   14.37
   7   3   7   37.17   18.89
   8  -2  -3  262.69   13.54
   8  -2   3  264.06   14.25
   8   0  -5   -0.24   16.37
   9  -1   4    9.81   12.48
  10  -2   2   87.54   10.86
  -5  11  -2  793.24   17.59
  -5  11   2  783.84   17.29
  -5  13  -3  141.95   15.78
  -5  13   3  129.26   15.52
  -4  14  -5  163.42   18.04
  -4  14   5  190.51   20.91
  -3   5  -2  922.98   17.32
  -3   5   2  854.99   17.35
  -3  13  -6   73.85   17.36
  -2   4  -3 1289.71   21.37
   5  -1  -4   26.38   12.56
   6  -2   3  478.82   14.63
   8   0   5    2.46   12.16
  10  -2  -1  276.05   13.03
  10  -2   0  136.78   15.71
  10  -2   1  232.36   12.16
  11  -1  -2    8.49   13.91
  11  -1   2   -0.39   13.83
  -6  16  -1   26.36   18.14
  -6  16   0  369.65   16.16
  -6  16   1   40.47   19.66
  -5  15  -4    8.90   18.54
  -5  15   4   -2.19   16.79
  -4   8  -3    2.73   10.69
  -4  10  -4   90.23    9.72
  -4  10   4   91.07   12.94
  -3   7  -4  196.52   12.48
  -3   7   4  174.13   12.44
  -3   9  -5  413.21   15.32
  -3   9   5  422.24   18.26
   1   9  -8   38.00   21.42
   4   2   6  134.39   16.73
   5  -1   4   23.71    7.65
   6   0  -5    0.63   12.36
   6   0   5    0.76   11.21
   7  -1   4  105.09   11.94
  10   0  -4  278.09   15.11
  10   0   4  245.81   14.01
  11  -1  -1  157.64   18.20
  11  -1   0    8.69   17.03
  11  -1   1  137.04   15.57
  -6  14  -1  176.39   16.11
  -6  14   0  158.20   12.52
  -6  14   1  180.36   16.73
  -6  16  -2  375.00   20.30
  -6  16   2  317.52   21.25
  -5   9  -1  975.93   16.99
  -5   9   0  502.06   14.64
  -5  11  -3   25.42   13.77
  -4   6   0  489.55   14.06
  -4   8   3    3.91    9.82
  -4  12  -5  213.55   15.89
  -4  12   5  208.07   20.14
  -1   9  -7  273.31   20.46
   3  -1  -3  863.45   23.62
   3  -1   3  863.45   18.08
   3   1   5  521.54   17.35
   4   4   7  395.10   21.96
   8  -2  -2  359.95   14.11
   8  -2   2  342.58   11.26
   8   2  -6  126.13   21.06
   8   2   6  125.23   13.50
   9  -1  -3  110.79   14.24
   9  -1   3  138.98   10.19
   9   1   5   73.87   14.62
  -6  14  -2  147.18   17.02
  -6  14   2  135.01   15.55
  -5  11   3   21.98   11.91
  -5  13  -4  159.45   13.14
  -5  13   4  166.18   16.20
  -4   6   1  189.18   10.95
  -3  11  -6  463.45   15.69
  -2   6  -5  125.38   11.80
  -2  12   7  128.75   26.13
   4   2  -6  131.29   20.15
   6  -2  -2  502.49   15.14
   6   2   6  164.64   15.13
   6   4   7  188.91   22.36
   8  -2  -1  377.90   14.62
   8  -2   1  343.68   13.86
   9   3   6   92.10   20.95
  10   0   3    6.83   14.48
  10   2   5  122.26   17.08
  -6  12  -1  336.69   15.20
  -6  12   0   11.94   10.34
  -6  16  -3    9.88   15.05
  -6  16   3   17.89   20.39
  -5   9  -2  419.74   11.76
  -5   9   2  375.32   14.86
  -5  15  -5   82.80   18.76
  -4  14  -6  108.18   21.16
  -3   5  -3  211.52   11.63
  -3  11   6  499.00   23.34
  -1   3  -4  860.66   21.43
   0  10  -8   61.15   23.80
   3   1  -5  457.65   25.76
   4  -2   1 2081.18   24.65
   7  -1   3   90.83   11.68
   7   1   5   60.05   13.95
   8  -2   0  361.19   11.60
   8   0   4  718.43   16.94
   9  -1  -2   35.26   13.11
   9  -1   2   15.65   11.89
  10   0  -3   -9.01   14.24
  11   1  -3   99.94   18.96
  11   1   3  102.45   15.91
  -6  12  -2   12.70   13.57
  -6  14  -3  157.74   18.24
  -5  11  -4  547.46   17.87
  -4   6  -2  408.12   13.03
  -4   8  -4  423.14   15.34
  -4  10  -5   23.42   14.34
  -3   5   3  180.15   11.53
   3   3   6  158.08   18.18
   3   5   7   61.14   18.87
   4  -2   0  367.90   12.98
   4   0   4 1053.82   19.61
   5  -1   3  573.29   14.95
   5   1   5  328.35   14.62
   5   7   8    3.13   24.21
   6  -2  -1  702.78   16.87
   6   2  -6  157.15   19.40
   7  -1  -3   90.61   12.12
   9  -1   1  142.69   12.93
   9   3  -6   80.44   18.95
  10   0   2  420.15   17.01
  -6  12   2   11.61   10.48
  -6  14   3  117.83   14.77
  -5  13  -5   91.05   17.55
  -5  15   5  109.00   22.64
  -4   6   2  359.99   10.99
  -4  14   6  116.18   23.53
  -2   2   0 1552.35   27.21
  -2   4  -4   37.54   10.23
  -2   6   5  121.51   16.55
  -2   8   6  219.04   23.21
  -2  10  -7   75.09   16.73
  -1   1  -1  278.12   16.03
  -1   9   7  279.09   36.23
   2   2   5  723.53   23.43
   4   4  -7  357.36   35.50
   7   1  -5   49.18   16.10
   7   3   6  165.09   16.39
   7   5   7   22.74   19.19
   9  -1  -1  162.62   11.56
   9  -1   0   16.17   11.97
   9   1   4    9.77   10.14
  10   0  -2  422.21   16.68
  10   2   4   70.85   17.01
  11   1  -2   16.33   16.12
  11   1   2    3.13   11.95
  -7  15  -1  258.75   19.52
  -7  15   0   13.20   19.57
  -7  15   1  226.28   18.92
  -6  10  -1  144.79   13.01
  -6  10   0  171.75   14.50
  -6  12  -3  273.09   17.71
  -6  14  -4  125.25   18.53
  -5   7   0  116.45   11.49
  -5  11   4  501.20   18.31
  -4   8   4  383.91   15.35
  -4  10   5   22.03   15.13
  -4  12  -6   26.13   17.70
  -3   7  -5  589.24   16.57
  -2   2  -1 2858.82   34.37
  -1  11  -8  145.15   22.23
   2   0   3    1.52    8.52
   3  -1   2  114.64   10.55
   6   4  -7  194.54   23.46
   8   0   3    5.66   11.92
   8   2   5  137.76   14.00
   9   1  -4   30.75   14.43
  10   0  -1   -0.68   14.70
  10   0   1    2.45   10.81
  11   1   0    0.95   17.12
  11   1   1  163.52   16.32
  -7  15  -2    2.35   18.99
  -6  10  -2  138.16   13.85
  -6  10   1  135.42   10.12
  -6  12   3  248.07   17.08
  -5   7  -1 1033.09   15.85
  -5   7   1 1012.94   17.78
  -5  13   5   63.58   17.84
  -4   6  -3  170.25   12.60
  -1   1   1  280.82   18.54
   5   3   6  164.28   16.08
   5   5   7   25.66   18.46
   6   0  -4 1096.12   20.73
   7  -1  -2  152.00   13.04
   8   4   6    1.31   17.62
   9   3   5   17.33   16.00
  10   2  -4   79.18   17.78
  -7  13  -1  248.06   17.77
  -7  13   0  126.20   13.30
  -7  13   1  229.63   18.36
  -7  15   2   17.78   19.19
  -6  10   2  117.85   13.70
  -6  14   4   90.62   20.10
  -5   7  -2  108.41   11.57
  -5   9  -4  257.91   15.06
  -5  11  -5   19.91   15.23
  -3   3   0  410.24   13.90
  -3   5  -4  677.61   16.50
  -3  11  -7   32.83   18.21
  -2   2   1 2610.74   35.22
   2   6   7   71.27   22.90
   4   0  -4 1050.14   23.59
   4   8   8  101.38   27.40
   5  -1   2   17.77    9.74
   5   1  -5  353.52   17.47
   7   1   4   98.04   12.78
   8   0  -3    0.17    8.32
   8   2  -5  153.26   16.49
   9   1   3  117.79   10.92
  10   2   3  194.63   16.35
  11   3   3   37.92   18.57
  -7  13  -2  108.01   13.14
  -7  15  -3  203.17   17.39
  -6  10  -3  108.06   14.97
  -6  12  -4   -0.39   12.62
  -5   7   2   88.16   10.82
  -4   6   3  158.54   11.16
  -4   8  -5   -5.60   12.67
  -4  10  -6   48.60   15.16
  -4  12   6   18.47   24.29
  -3   3  -1  845.17   16.69
  -3  13   7   40.92   30.01
  -1   5  -6  489.36   20.72
  -1   7  -7  386.80   22.19
   0   6  -7   59.85   17.91
   2   4   6   11.94   16.97
   6   0   3   -1.97   11.32
   6   2   5  307.29   14.17
   7  -1  -1  121.81    9.63
   7   3  -6  175.87   18.89
   8   0   2 1121.65   16.45
  -7  13  -3  178.92   17.67
  -7  13   2  128.42   16.91
  -7  15   3  192.90   22.29
  -6   8   0  296.01   13.48
  -6  14  -5   73.77   15.98
  -5   7  -3  725.74   16.83
  -5  13  -6   80.19   15.59
  -3   3   1  812.98   17.54
  -2   2  -2 1041.75   20.54
  -1   1  -2  300.69   17.28
   0   4  -6   42.01   15.31
   3  -1   1 1313.17   22.97
   3   1   4   53.31   12.35
   4   0   3   -1.36    9.26
   4   2   5  632.40   17.70
   5  -1  -2   10.99    9.28
   6   6   7   44.03   19.38
   7   5  -7   21.38   24.43
   8   0  -2 1123.40   18.84
   8   0   1   10.79   11.17
   8   2   4  203.62   14.61
   9   1   2   28.13   13.04
  10   2  -3  191.93   15.90
  10   2   2   69.62   14.41
  11   3  -3   41.36   14.38
  11   3   2   35.24   16.95
  -7  11  -2  474.56   17.56
  -7  11  -1    8.04   10.90
  -7  11   1   20.92   14.12
  -6   8  -1   21.58    8.30
  -6   8   1   23.48   11.17
  -6  10   3  111.42   13.73
  -6  12   4   -6.94   15.78
  -5   9   4  244.56   15.38
  -4   4  -1 2307.09   25.25
  -4   4   0   69.11    9.95
  -4   6  -4  263.36   14.14
  -4  12  -7   55.76   19.03
  -3   9   6  248.02   22.29
  -2   4   4   41.12   13.09
  -2   8  -7    4.96   16.53
  -1   3   4  834.09   45.33
   1   3   5  152.94   18.97
   1   5  -7   53.72   24.60
   5   1   4    8.65   10.11
   6   4   6   11.64   12.93
   7   3   5   97.93   14.62
   8   0  -1    3.91   12.03
   8   0   0 1376.01   20.61
   8   4  -6    7.66   17.77
   9   1  -2   41.13   13.60
   9   3   4  155.31   15.51
  10   4   4    8.50   16.69
  11   3  -2   57.60   17.83
  -8  14  -1   67.93   18.14
  -8  14   0   84.68   18.43
  -7  13   3  185.43   20.62
  -6   8  -2  265.17   11.02
  -6  10  -4  107.32   15.32
  -6  12  -5  187.23   18.73
  -5   9  -5  425.53   17.77
  -5  11   5   20.86   17.31
  -2  10   7   66.25   27.68
  -1   9  -8   40.99   22.33
   0   8  -8  105.24   23.17
   3  -1  -1 1303.47   24.34
   3  -1   0  214.30   11.48
   3   9   8   78.01   29.01
   4   4   6   12.90   16.43
   4   6   7   61.88   17.97
   5  -1  -1  806.05   15.87
   6   0  -3    3.81   10.52
   7   1   3   90.16   11.50
   7   5   6  162.07   17.03
   7   7   7  182.59   20.96
   8   4   5  195.30   17.00
   9   1  -1  178.09   15.48
   9   1   0   24.55   13.39
   9   1   1  139.11   10.12
  10   2  -2   74.04   11.76
  10   2   1  255.94   15.68
  11   3  -1   64.40   18.98
  11   3   0   57.92   18.61
  11   3   1   59.48   12.85
  -8  14  -2   73.33   19.81
  -8  14   1   69.55   21.43
  -7  11  -3  -12.53   17.14
  -7  11   2  451.93   17.12
  -7  13  -4   87.87   16.04
  -6  14   5   76.67   23.89
  -5  11  -6  302.75   21.62
  -4   4  -2   53.64    7.64
  -3   5   4  613.50   20.80
  -3   9  -7  167.78   18.70
  -2   4  -5  732.08   20.53
   1   7   7  403.11   36.21
   8   2  -4  221.68   15.74
   8   6   6   65.60   19.81
   9   5   5   22.53   15.45
  10   2  -1  234.92   14.65
  10   2   0  137.70   12.61
  11   5   3   27.84   18.89
  -7   9  -1  432.08   16.52
  -7   9   0  157.61   14.64
  -6   8  -3   17.53   10.36
  -5   5  -1   88.91    8.15
  -5   5   0 1078.78   17.11
  -5   7  -4   72.34    9.65
  -5  13   6   94.60   27.15
  -4   8   5    2.66   17.14
  -3   5  -5  101.43   12.14
  -2   2   2 1084.47   26.46
  -2  10  -8   50.40   21.08
   1   7  -8   29.02   26.06
   5   3  -6  157.74   19.17
   6   2  -5  303.54   17.39
   6   2   4  301.72   14.21
   8   2   3  217.57   10.85
   9   3  -4  132.51   16.02
   9   3   3   40.48   14.44
  10   4  -4    1.00   16.67
  10   4   3  290.04   17.42
  -8  12  -1  180.69   14.61
  -8  12   0   39.73   18.29
  -8  14   2   64.15   15.83
  -7   9  -2  131.86   14.11
  -7   9   1  387.10   16.16
  -7  11  -4  308.11   18.56
  -6  10  -5   93.19   16.07
  -6  10   4   95.99   14.28
  -5   5   1   90.04   10.35
  -4   8  -6  232.07   13.18
  -3   3  -3  421.56   12.64
  -2   2  -3 1681.12   26.62
   1   1   3  272.52   18.63
   2   0   2 2882.41   37.75
   4   0  -3   -0.88   10.24
   4   0   2 1828.58   24.16
   5   3   5  100.13   12.46
   5   7   7  218.81   24.03
   6   0  -2 1786.35   23.35
   7   1  -3   97.88   13.13
   7   1   2  156.99   11.71
  11   5   2  108.27   19.34
  -8  12  -2   13.12   12.94
  -8  12   1  224.66   15.21
  -7  11   3   -6.17   12.23
  -7  13   4   80.54   20.96
  -6   8  -4  194.39   14.76
  -6  12  -6   -9.01   20.70
  -4   4  -3 1586.26   20.59
  -4   4   2   58.85    9.25
  -4   6  -5  116.18   13.29
  -4   6   4  259.89   14.47
  -4  10   6   20.82   19.04
   5   1  -4   12.32   10.81
   5   5   6  317.15   18.38
   5   7  -8    3.21   27.86
   6   0  -1    8.23   11.26
   7   3   4  309.60   14.75
   8   2   2  340.24   14.18
  10   4   2   -0.94   15.06
  10   6   4   21.03   18.19
  -8  12   2   24.40   16.88
  -7   9   2   97.30   14.44
  -6   6  -2  329.63   13.48
  -6   6  -1  154.35    9.42
  -6   6   0  398.33   12.14
  -6   8   3   10.05   12.04
  -5   5  -3   74.42   11.88
  -5   9  -6  119.66   18.45
  -3  11   7   36.31   28.72
   2  10   8   29.86   30.41
   3   3   5  216.72   14.76
   5   5  -7   34.64   22.97
   6   4   5  389.62   16.15
   6   8   7   -1.74   20.88
   7   1  -2  149.92   13.70
   8   2  -3  240.34   11.70
   8   4   4    3.03   13.47
   9   5  -5   -4.88   17.66
   9   5   4  207.86   16.24
  11   5   0  124.09   19.57
  11   5   1   -5.23   12.78
  -8  10  -1  171.77   16.95
  -8  10   0  127.60   17.51
  -5   7  -5  486.65   17.51
  -5   9   5  437.53   20.83
  -5  11  -7    1.38   20.64
   3   7   7  288.72   21.92
   4   2   4  231.84   12.96
   6   4  -6   19.71   19.72
   6   6   6  123.97   17.27
   7   1  -1  126.49   12.73
   7   5   5   50.54   15.12
   8   2   1  343.91   14.18
   8   8   6   45.31   22.22
   9   3   1   50.24   12.74
   9   7   5  150.15   18.72
  10   4  -2   12.53   16.00
  10   4   1  338.50   16.37
  11   5  -1   53.37   14.58
  -9  13  -1  124.08   22.87
  -9  13   0  128.96   23.77
  -8  10  -2  103.44   12.43
  -8  10   1  166.32   17.19
  -8  12  -4    7.63   21.88
  -7   7  -1  825.96   18.10
  -7   7   0  228.72   13.72
  -7   9  -4   89.17   17.60
  -7  11  -5    9.35   14.18
  -6   6  -3  117.55   12.11
  -5   7   4   77.38   13.23
  -1   1  -3  257.13   17.05
   2   2   4  569.94   19.99
   3   1   3  929.36   19.85
   3   3  -6  168.06   22.88
   3   5   6  342.00   18.77
   4   0   1   -1.60    9.24
   4   2  -5  587.55   23.48
   6   2   3  526.27   15.31
   7   7   6   69.50   16.66
   8   2  -2  316.77   12.22
   8   2  -1  357.18   15.85
   8   2   0  400.68   15.68
   8   6   5   38.71   12.65
   9   3  -2  189.30   12.42
   9   3  -1   47.34   15.26
   9   3   0  213.05   15.42
  10   4  -1  383.25   15.96
  10   4   0   19.25   11.87
  10   6   3   23.53   16.85
  -9  13   1  102.71   16.90
  -8  10  -3  151.71   18.64
  -8  12   3  174.83   20.58
  -7   7  -2  222.20   14.88
  -7   9   3  301.06   17.10
  -7  11   4  280.90   15.57
  -6   8  -5    8.12   15.18
  -6  10  -6   58.26   14.66
  -5  11   6  300.44   25.40
  -4   4  -4   30.60   11.59
  -3   3  -4  274.35   13.96
  -3   7  -7  326.19   22.75
   5   1   2   15.31    9.93
   6   6  -7   34.20   24.05
   7   3   3  170.70   12.43
   7   5  -6  171.29   19.57
   8   6  -6   66.43   21.22
   9   5   3   15.45   15.35
  10   6  -4   43.37   18.63
  -8  10   2  118.48   16.05
  -7   7   1  782.13   14.37
  -6  10   5   91.01   21.39
  -5   5  -4  604.20   14.86
  -4   4   3 1549.27   25.24
  -4   8  -7    7.29   15.89
  -4  12   7  110.68   30.98
  -2   6  -7   72.25   16.82
   2   0   1    2.37    9.32
   3   1  -4   61.18   14.42
   4   0   0 2300.36   27.22
   4   8   7   -3.75   21.93
   5   3   4  268.88   13.84
   7   7  -7  160.86   24.30
   8   4   3  348.79   12.44
   9   5  -4  265.76   18.95
  10   6   2   73.70   17.20
  11   7   1  120.62   19.73
  -9  11  -2  268.60   21.50
  -9  11  -1    8.80   13.75
  -9  11   0  316.66   16.61
  -8   8  -1   28.21   14.15
  -8   8   0  174.11   13.98
  -8  10  -4   90.14   20.40
  -7   9  -5  196.32   17.98
  -6   6  -4  230.81   15.36
  -6   8   4  195.01   16.01
  -5   5   3   59.04   10.27
  -4   6  -6  152.33   16.18
  -3   3   3  429.88   18.50
  -3   9  -8   84.40   22.44
  -2   8  -8  116.94   22.18
   0   2  -5  319.40   23.81
   0   8   7   35.56   33.57
   1  11   8  106.91   40.70
   4   4   5  965.49   20.39
   8   4  -4   12.95   14.69
   9   7   4   39.29   16.68
  10   6  -3   32.01   17.79
  11   7  -1  199.52   21.98
  11   7   0   44.60   19.11
  -9  11  -3   -4.13   19.36
  -9  11   1    6.74   13.60
  -8   8  -2  174.74   16.11
  -8   8   1   27.99   12.52
  -8  12   4    8.49   19.26
  -7   7   2  210.27   13.47
  -5   3  -1  183.17   11.88
  -5   7  -6   61.58   16.48
  -2   4  -6   19.53   16.33
  -1   5  -7   44.78   17.75
  -1   7  -8   42.02   21.54
   4   6   6  137.39   16.63
   5   9   7  223.45   25.27
   6   4   4   37.05   12.69
   8   4   2   25.73   12.01
   8   6   4  131.16   15.32
   9   5   2  354.55   12.80
  10   6   1   43.11   15.06
  -9  11   2  259.62   19.53
  -8   8  -3   21.39   16.87
  -8  10   3  104.64   14.38
  -7   7  -4  147.16   16.06
  -6   4  -1 1021.14   18.00
  -6   4   0   74.28   10.12
  -6   6   3  112.35   12.53
  -6   8  -6  122.42   17.63
  -6  12   6    7.88   24.73
  -5   3  -2  417.65   13.89
  -4   2  -1 1913.04   23.96
  -4   2   0  419.46   14.68
   2   0  -2 3213.90   50.09
   5   1  -2   19.17   10.54
   5   5   5   46.53   12.65
   7   3   2  495.40   12.46
   7   5   4  317.10   13.14
   7   9   6   19.24   21.62
   8   8   5   15.63   16.71
   9   5  -3   34.52   14.42
   9   7  -5  181.90   21.42
  10   6  -2   69.24   13.16
  10   6  -1   38.83   17.33
  10   6   0   95.90   16.76
  10   8   3   10.69   14.36
  -9   9  -1  342.82   19.72
  -9   9   0   96.95   16.14
  -8   8   2  147.54   14.34
  -8  10  -5   92.50   22.09
  -7   9   4   78.20   16.89
  -7  11   5    3.99   21.51
  -6   4  -2   70.39   11.73
  -5   5  -5   52.10   14.08
  -4   2  -2  345.51   11.60
  -4   4  -5  955.43   20.46
  -1   1   2  341.18   27.93
   2   8   7    6.40   19.84
   4   2   3 1068.23   18.25
   5   3  -5   87.56   14.38
   5   7   6   26.12   15.83
   6   6   5   74.48   14.64
   6   8   6   93.24   18.31
   7   3  -3  191.03   13.90
   7   7   5  403.89   17.89
   8   4  -3  342.29   15.17
   9   5  -2  392.32   17.52
   9   5   1   13.69   10.25
   9   7   3  272.91   18.73
  -9   9  -2   91.92   14.36
  -9   9   1  314.23   18.50
  -8   8  -4  125.31   17.53
  -7   5  -2  520.84   16.20
  -7   5  -1   95.84    9.33
  -7   5   0  593.74   14.89
  -7   7   3  666.28   17.70
  -7   9  -6   36.70   19.22
  -6   4   1  938.45   17.91
  -6   6  -5   88.15   15.47
  -5   3  -3  132.60   12.13
  -4   2   1 1860.19   25.76
  -4   6   5  112.05   18.49
  -3   1  -1 1371.62   24.76
  -3   3  -5  220.71   14.02
   0   4   5  901.41   42.05
   2   0   0 3644.21   45.16
   2   4   5  732.22   24.22
   3   1   2  107.77    9.34
   5   1  -1  859.65   16.59
   6   2  -2  494.42   16.15
   6   4  -5  430.01   18.27
   7   5  -5   51.62   15.18
   8   4  -2   31.22   13.60
   9   5  -1   40.60   14.28
   9   5   0  419.54   13.54
   9   9   4   55.21   19.06
  10   8   2  104.56   16.96
  -9   9  -3  285.71   21.41
  -9  11   3   -1.10   20.88
  -8   6  -1   86.40   13.30
  -7   5   1   80.95   11.73
  -7   7  -5  446.87   18.45
  -6   4  -3  666.89   14.68
  -5   7   5  478.29   21.20
  -4   8   6  272.64   24.98
  -3   1  -2  131.20   11.91
  -3   1   0  225.72   11.65
  -3   7   6   94.97   24.53
   2   2  -5  714.54   35.94
   3   3   4  292.28   14.44
   5   3   3  137.76   12.06
   6   2  -1  731.24   18.29
   7   3  -2  507.82   16.35
   8   4   0   41.38    9.66
   8   6   3   52.07   10.24
   8   8  -6   77.96   23.02
   9   7  -4   31.86   19.38
  10   8  -3   12.16   19.28
 -10  10  -1   16.59   21.69
  -9   9   2   91.69   15.63
  -8   6  -2  202.18   14.98
  -8   6   0  218.80   11.28
  -8  10   4   61.17   19.56
  -7   5  -3   77.76   15.18
  -5   9   6  154.50   26.43
  -3   5   5  123.48   20.53
   2   6   6  264.95   18.89
   3   5  -7   58.41   23.32
   3   7  -8   34.67   31.92
   3   9   7  205.93   25.29
   4   4  -6   20.28   16.92
   6   4   3  671.27   16.39
   7   5   3   65.31    9.26
   8   8   4  113.87   16.66
   8  10   5   32.92   21.51
   9   7   2   65.19   14.90
  10   8  -2  117.66   20.25
  10   8   1   -9.34   12.76
 -10  10  -2   41.45   16.62
 -10  10   0   53.91   15.71
  -9   9  -4   50.38   21.89
  -8   6   1   64.19   13.37
  -8   8  -5   11.26   18.56
  -8   8   3    6.48   11.61
  -6   4   2   66.90   11.27
  -6   8   5   -3.11   18.38
  -5   3   2  422.60   14.58
  -5   5   4  612.13   19.04
  -5   7  -7  251.87   22.51
  -4   6  -7   45.60   18.82
  -4   8  -8   96.20   26.92
  -2   2   3 1632.89   39.53
  -1   3  -6  454.38   23.93
   4   2  -4  240.67   14.88
   4  10   7   14.06   20.91
   5  11   7   14.94   20.93
   7   7  -6   75.16   19.44
   8   6  -4  146.30   16.64
  10   8  -1    9.59   16.08
  10   8   0  132.55   13.83
 -10  10   1   10.75   15.28
  -9   7  -2   66.81   17.17
  -9   7  -1  405.45   15.33
  -9   7   0   90.25   16.06
  -6   4  -4   35.48    9.82
  -6   6  -6  125.96   17.34
  -6   6   4  241.22   16.16
  -6   8  -7    5.94   20.93
  -6  10   6   56.26   27.54
  -5   3  -4  302.52   15.50
  -5   5  -6  330.01   18.78
  -4   4   4   45.64   14.72
  -3   7  -8   52.86   23.87
  -1   1  -4  179.81   17.78
   3   1  -3  979.13   24.59
   4   2   2  355.41   13.31
   4   4   4   45.94   11.63
   5   5  -6  328.44   21.87
   6  10   6   57.91   20.03
   7   7   4  132.65   14.15
   7   9   5  229.53   21.53
   8   6   2  188.93   11.23
   9   7  -3  283.81   15.59
  10  10   2   39.48   15.76
 -10  10   2   45.94   19.17
  -9   7  -3  318.38   20.46
  -9   7   1  387.23   18.35
  -9   9   3  243.10   22.13
  -8   6  -4  160.50   16.89
  -8   6   2  197.70   15.40
  -7   7  -6   76.37   19.21
  -7   7   4  136.63   17.20
  -7   9   5  212.99   21.70
  -4   2  -4  236.37   13.57
  -4   2   2  344.01   14.66
  -4   4  -6   -4.34   14.13
  -3   1  -3  946.50   19.42
  -3   5  -7   67.96   17.57
   2   2   3 1622.87   29.05
   3   1   1 1284.64   22.45
   3   5   5  127.78   13.29
   3   7   6   81.94   16.64
   5   3  -4  291.88   14.01
   5   5   4  615.37   17.30
   6   6   4  234.97   13.67
   6   8  -7    6.76   20.80
   7   5  -4  327.02   15.31
   7   5   2  520.82   15.60
   9   7  -2   72.17   15.90
   9   7  -1  427.60   18.92
   9   7   0   70.18   14.60
  10  10   1  -10.90   18.45
 -10   8  -2  156.04   19.46
 -10   8  -1    4.15   19.33
 -10   8   0  143.66   17.93
   1   1   2  325.85   18.64
   4   6   5   90.15   13.41
   4   8   6  266.89   18.84
   5   3   2  396.40   12.29
   5   7   5  451.84   17.61
   5   9   6  138.32   17.78
   6   4   2   61.39    9.04
   6   8   5   16.83   12.38
   8   6  -3   39.38   11.49
   8   6   1   46.03    9.74
   8   8  -5   15.99   18.94
   8   8   3   15.90   16.24
   9   9  -4   74.30   21.03
   9   9   2   86.51   17.60
  10  10  -2   42.99   21.37
  10  10   0   30.76   19.55
   8  10   4   57.81   13.37
  10  10  -1   15.77   15.03
  -2  -2  -5  679.32   19.39
  -2   0  -7   -4.34   15.09
  -1   5  -9    5.62   27.89
   3 -15  -2    6.73   14.32
   6  12   2   15.45   14.38
   9  11   3   15.04   22.25
  -1  -3  -9    2.09   22.16
   0 -10  -8   17.60   16.04
   0  -6  -1  205.09   13.41
   0  12  -4   -2.07   16.23
   1 -13  -7   80.53   18.82
   1 -13  -4  267.77   15.47
   2 -12  -1  558.26   14.55
   2 -10   0  264.47   14.65
   2   8   1    4.48    8.14
   4 -16  -2  462.12   19.20
   5 -17  -2   50.30   19.00
  -1  -7  -6  105.82   15.15
  -1  -5  -8  203.83   19.42
  -1  -3  -2 1596.40   27.13
  -1   3  -9   14.79   25.28
   0 -10  -7   95.17   19.30
   0  -8  -2  580.43   15.86
   1 -11  -2  955.67   16.09
   1   3   1  485.02   17.44
   1  11  -1   -3.73   11.59
   2 -14  -3  201.49   11.57
   3  11   1  129.59   10.94
   7  11   3   11.88   16.05
   0 -10  -6  147.12   16.18
   0   8  -1  397.90   16.99
   1 -11  -8  117.99   23.56
   1  15  -6   -5.36   26.16
   2 -14  -4  227.64   15.73
   2  12   0    7.11   12.28
   2  16  -3    9.95   16.24
   3 -15  -3  277.09   15.66
   3 -13  -1  156.49   14.17
   6  16   1  -11.23   18.66
  -1  -5  -7   33.32   16.92
   0  -6  -9   31.13   21.85
   1  15  -4   -0.68   18.51
   2 -14  -6  108.49   15.19
   2   0   2 2581.48   43.27
   4 -16  -3   33.73   15.31
   4   6   3  189.56   14.80
   5 -17  -3   47.30   18.77
   7  15   2   -8.15   20.58
   9   9   4   -1.05   15.92
   1 -11  -7    3.57   18.67
   1 -11  -3   -0.81    8.23
   1   5   1  223.30   12.10
   2 -12  -2    1.49   11.51
   2   4   2   83.15   12.67
   2  10   1  258.17   14.58
   3 -15  -6   -6.51   16.74
   3 -15  -5  189.46   21.00
   3 -15  -4   -1.01   11.07
   4 -16  -4  301.50   19.79
   4 -14  -1  428.61   17.53
   5 -15  -1  181.32   16.85
   6 -16  -1   17.38   17.47
  -1  -5  -5  104.22   14.26
  -1  -1  -8    2.53   17.18
   0  -8  -7   17.13   16.23
   0   4   0  463.19   20.66
   1 -11  -4  677.23   16.76
   3  15   0    1.01   15.37
   4 -16  -5   12.88   15.56
   4   8   3   -5.16   12.40
  -1  -3  -7   76.11   15.36
  -1   1  -8    4.83   16.94
   0  -6  -8   69.40   18.65
   0  -4  -9  100.91   20.50
   1 -11  -5   -6.09   10.29
   1  -9  -8   61.02   20.94
   2 -12  -7  147.19   20.14
   2  -6   1  301.50   21.60
   2   6   2  992.66   20.68
   3 -13  -2  164.27   13.43
   7 -15   0    6.50   20.42
   9   3   5   -4.60   21.80
  10   0   5   -0.88   25.65
   1  -9  -2  304.19   13.35
   1  -7  -9   79.59   21.98
   1   7   1 2607.82   30.92
   1  11   0 1270.55   22.97
   2 -12  -6    9.67   16.50
   2 -12  -3  458.06   14.29
   2 -10  -1  238.54   13.42
   3   3   3  440.93   17.43
   4 -12   0   71.61   13.87
   5   1   4    3.23   13.65
   6 -16  -2  288.57   21.74
   9   5   5   -0.57   22.64
  -1  -3  -6  460.85   17.70
   0  -4  -1 2945.41   37.18
   0  -2  -9   10.89   22.02
   0   6   0  308.89   15.95
   1  -9  -7  299.44   20.19
   2 -12  -5  281.73   17.59
   2 -12  -4    3.12   14.63
   3 -13  -7   17.59   15.47
   4 -14  -2  249.57   14.98
   4 -10   1   19.94   16.64
   4  10   3   31.81   13.97
   4  16   1   42.73   18.12
   5 -15  -2   -2.96   15.79
   5 -13   0  251.82   18.14
   5  15   2   -3.16   13.55
   6 -14   0  149.58   19.64
   7  11   4  334.79   22.36
   7  15   3  161.03   21.18
   8 -12   2   -0.72   27.86
   8   2   5  128.35   20.39
   8   4   5  199.36   21.18
   8  12   4  -21.08   18.41
   9   7   5  164.71   25.26
  10  -2   5    2.67   26.15
  -1  -3  -5  176.85   14.67
   0  -4  -8   19.26   17.89
   0  10  -1  407.58   16.79
   0  12  -2   -1.15   12.42
   1  15  -2   -4.60   15.35
   2 -10  -8   -0.63   15.68
   2  12   1  622.42   15.36
   2  16  -1    9.83   16.25
   3 -13  -6   75.89   19.31
   5  -1   4    0.01   13.97
   6 -16  -3   32.51   22.63
   6  -4   4   27.38   22.11
   8   0   5   -0.59   21.64
   0  -6  -6  153.93   15.19
   0   0  -9    3.17   18.35
   0   6  -9    2.79   30.13
   1  -9  -6  102.79   14.49
   1  -7  -8   19.20   17.85
   1  -7  -1 2532.90   30.23
   1  -5  -9   29.21   21.86
   1  -5   0 2593.23   39.97
   3 -13  -5   61.66   12.97
   3 -13  -4  105.89   12.81
   3  15   1  387.67   18.57
   4 -14  -6   70.58   16.29
   4 -14  -3  337.94   15.58
   5 -15  -3  116.68   20.11
   8   8   5    1.43   22.18
  -1  -1  -6   65.47   14.05
  -1   3  -7   64.85   20.21
  -1   5  -7   55.78   20.57
   0  -6  -5   82.91   13.87
   0   2  -9   12.36   22.71
   0   4  -9  112.27   27.71
   2 -10  -7   62.58   16.88
   2 -10  -2  193.34   13.23
   3 -11  -1   95.09   11.49
   3  -1   3  975.74   29.22
   3  13   2  159.31   16.58
   4 -14  -5  199.03   16.09
   4 -14  -4  185.64   14.34
   4  12   3  374.94   17.77
   5 -15  -5   94.01   16.43
   5 -15  -4    0.57   14.69
   5 -11   1   28.56   15.09
   6 -12   1  343.42   19.98
   6  12   4   -8.49   17.00
   7 -15  -1  165.05   21.71
   7   1   5   42.22   19.26
   9  -3   5    0.07   31.85
  -1   7  -2  377.72   24.58
   0  -4  -7  409.78   19.79
   0  -2  -8  146.20   20.57
   1  13   0  420.86   17.54
   2  10   2  198.21   11.68
   3  19  -1    2.13   19.02
   4   4   4   46.63   14.44
   6  16   3   15.38   23.17
   8  -2   5  136.37   27.82
   8  10   5   37.40   24.51
  -1   1  -6   99.80   17.06
   0  14  -3  263.16   17.82
   1  -3  -9   13.50   21.73
   2 -10  -6   75.03   11.35
   2 -10  -3  192.96   12.79
   2  -6  -9   31.31   22.47
   2  16   0  778.62   21.27
   3 -11  -7   20.41   14.63
   4 -12  -1  442.01   13.31
   4  16   2  495.00   22.82
   4  18   1  302.19   23.13
   5 -13  -1  179.72   15.43
   5  11   4  588.81   21.73
   6 -14  -1  165.49   16.08
   6 -10   2  113.91   21.15
   7  -1   5   53.27   22.56
   0  12  -1  819.94   20.09
   1  11   1   -5.70   13.12
   1  17  -3   86.48   19.57
   2 -10  -5   93.80   10.85
   2 -10  -4  138.58   14.20
   3 -11  -6  513.52   19.59
   3 -11  -2 1419.21   21.53
   3  11   3  105.77   14.66
   3  17   1   69.18   16.61
   4 -12  -7   87.73   16.88
   6  14   4  101.97   19.88
   7 -15  -2    5.87   20.70
   8 -14   0   79.12   23.88
   0   0  -8  562.55   21.38
   0  10   0  630.67   18.33
   1  17  -2   56.10   19.60
   2  12   2    2.80   10.30
   2  18  -1  375.02   16.92
   3  -9   0  863.89   20.00
   3  15   2   -2.24   16.38
   3  19   0  182.43   20.02
   4 -12  -6   36.62   18.35
   4  14   3  313.79   15.57
   6 -14  -2  156.70   17.67
   6   8   5    3.90   13.66
   7 -15  -3  188.07   27.26
   7  11   5    5.06   24.00
  -1   7  -6  108.34   23.30
   0  -2  -7  152.49   15.27
   1  -1  -9   50.17   20.75
   1   7   2  462.94   16.31
   2  -8  -7    4.56   12.52
   2  -8  -1   13.44    9.57
   3 -11  -5   69.48   11.40
   3 -11  -3   98.98   11.59
   4 -12  -2   59.27    9.74
   4  10   4   79.31   12.36
   5 -13  -6   67.86   16.78
   5 -13  -2  226.64   15.83
   5  13   4  160.52   14.78
   6   0   5    0.03   19.81
   6  10   5   91.19   21.23
   9 -13   1   90.96   28.46
  -1   5  -6  468.64   24.83
   0  -4  -5  812.59   16.68
   0  -4  -3 1765.14   25.02
   1  -5  -7   22.26   14.65
   1  -3  -8  199.73   18.35
   1  13   1  593.38   18.52
   1  15   0   10.72   14.08
   2  -6  -8  105.30   20.03
   2   8   3   11.51   12.08
   2  16   1   16.24   15.32
   3  13   3  119.23   15.89
   4 -12  -5  229.59   14.12
   4 -12  -4   49.75   15.68
   4 -12  -3  367.29   15.96
   5 -13  -5   91.18   18.08
   5 -13  -4  163.46   18.60
   5 -13  -3  164.03   16.52
   5   5   5   51.93   16.76
   5   7   5  480.44   20.04
   5  17   3   41.66   16.82
   6 -14  -4  116.98   20.87
   6 -14  -3  160.39   20.13
   7 -13   0  134.00   19.24
  -1   1  -4  149.48   14.27
   0  -4  -4   86.52    9.27
   0   4  -8    8.65   21.89
   0   8  -8  111.92   28.25
   0  12  -7  159.78   52.66
   1   1  -9   47.70   19.84
   1  17  -1   85.15   16.55
   2   2   3 1545.36   27.78
   2  14   2  349.94   17.68
   2  18   0   99.03   20.12
   3  -9  -7  209.76   14.94
   3   5   4  639.57   19.31
   3   7   4  190.52   14.68
   4 -10   0  138.34   12.24
   4  12   4   25.69   11.59
   4  16   3   12.46   19.35
   5   3   5  102.67   15.18
   5  15   4    1.03   18.54
   6 -12   0   13.19   16.47
   6  12   5  171.04   23.38
   8 -14  -1   82.55   22.19
   8   4   6   17.97   22.03
   8   8   6   73.43   25.75
   9   1   6   19.05   30.14
  -1  11  -3    6.23   17.35
   0  -2  -6  370.02   17.26
   0   0  -7    2.31   14.39
   0   6  -8   83.14   23.45
   0   6   1  221.28   14.79
   0  12   0   18.04   12.67
   3  -7  -8   32.86   21.01
   3  -7   1 1666.04   33.81
   3  -5  -9   13.53   21.84
   3   9   4  441.51   17.39
   3  17   2   13.91   14.46
   3  19   1    2.41   20.52
   4 -10  -7    2.40   12.86
   5 -11  -7    8.66   21.07
   5 -11   0  918.90   20.83
   8  -4   5  191.01   31.16
   8   2   6  101.18   23.80
  -1   3  -5  156.85   17.45
   0   4   1 3299.94   41.12
   0   8   1  386.15   15.73
   0  16  -4  389.95   27.20
   0  16  -3   60.97   17.54
   1  -5  -6  457.90   13.73
   1  -5  -1  236.75   13.44
   1   3  -9   15.79   21.19
   1  11   2 1131.73   21.39
   2  -8  -5   -1.98    8.89
   2  -6  -7   77.45   16.37
   2  -2  -9  117.49   22.86
   3  -9  -6  236.83   15.44
   4  14   4  167.30   18.73
   5  11   5   16.20   19.46
   6  14   5   90.33   25.11
   7  -3   5  117.96   23.55
   7   9   6   22.41   21.07
   8 -14  -2   97.90   23.08
   8 -12   1  238.36   24.73
  -1   7  -1 2498.79   41.78
   0  10   1  364.86   15.59
   1  -3  -7   74.78   15.50
   1  -1  -8   29.04   16.83
   1  15   1  386.17   17.61
   1  19  -3    0.13   22.07
   2  -4  -8    8.49   17.26
   2  16   2  583.77   18.76
   2  18   1  438.95   21.37
   3  -5   2  830.75   57.10
   4 -10  -6   27.30   16.05
   4  -8  -8   93.44   16.73
   6 -12  -6   -7.29   21.59
   7 -13  -1  247.45   18.44
   7   3   6  167.00   21.48
  -1   5  -1  260.02   20.88
  -1   9  -1 1556.07   31.32
   1  -5  -5   92.72   13.28
   1   1   2  345.30   17.13
   1   5  -9   11.92   21.42
   1   7  -9   97.43   25.40
   1  13   2  364.96   15.07
   1  19  -2  101.38   20.70
   3  -9  -5  410.89   13.39
   3  -7  -7  309.71   18.52
   4 -10  -1   23.23   10.68
   4   8   5   22.78   16.70
   6 -12  -1  288.81   16.55
   6   6   6   89.20   19.20
   9  -5   5   10.32   35.27
   9  -1   6   14.22   27.84
  -1   5  -5   96.04   17.87
   0   0  -6 1706.23   25.52
   0  16  -5   39.83   29.30
   2   0  -9    4.49   20.21
   2  20   0   31.24   23.25
   3  -9  -2  683.95   15.80
   3  -5  -8  114.10   20.14
   3  -3  -9   33.70   21.54
   3   1   4   76.69   13.74
   3  17   3   25.28   19.87
   3  19   2   94.64   17.07
   4 -10  -5   18.49   13.78
   4   4   5  647.20   17.91
   4  10   5   13.29   12.27
   4  16   4  324.42   22.25
   5 -11  -5   25.56   16.90
   5 -11  -1   34.36   11.84
   6 -12  -5  163.17   15.91
   6   4   6   13.73   17.83
   6   8   6   99.69   15.49
   6  10   6   78.93   21.06
   7 -13  -4   79.27   19.22
   7 -13  -2  116.42   15.12
   7 -11   1   -1.63   17.89
   7   1   6   68.85   24.53
  -1   3  -4  822.31   25.23
  -1   9  -5  554.22   45.67
   0  -2  -4  873.54   19.77
   0  -2  -2 1505.60   27.33
   0  12   1  814.00   19.58
   1  -5  -2 2056.62   26.07
   1   1  -8   44.51   17.13
   2   0   3    2.96   10.62
   4 -10  -4  107.62   14.87
   4 -10  -2  127.13   12.55
   4  -8  -7    8.34   12.79
   4  -8   1    0.86   12.14
   5 -11  -4  570.08   18.01
   5  -9  -7  200.68   20.01
   5  15   5   56.91   23.77
   6 -12  -4    8.29   15.48
   6 -12  -3  276.70   17.91
   6 -12  -2    6.84   16.01
   6  12   6   -5.38   22.20
  -1   3  -2 1474.88   63.02
  -1  11  -1    8.28   12.17
  -1  13  -3  408.65   23.82
   0   4  -7  405.51   19.72
   1  -5  -3  177.44    9.96
   1  -3  -6  407.29   13.55
   1  -1  -7  131.06   15.40
   1   7   3 1512.00   21.51
   1   9   3 1070.72   20.22
   1  15   2    8.21   15.13
   1  17   1  105.38   16.17
   2   6   4  547.04   18.17
   2  10   4  156.81   13.84
   2  18   2   86.74   18.75
   3  -7  -6   96.15   13.78
   3  15   4    1.52   18.02
   4 -10  -3   13.20    8.70
   4  -6  -8   48.03   19.79
   5 -11  -3   25.13   14.57
   5 -11  -2  795.56   16.34
   6 -10   1  138.97   16.98
   9 -13  -1  106.13   25.04
  -1   7  -5  866.69   35.12
  -1  13  -2  398.72   22.61
   0  14   1  347.60   15.80
   1   5   3  146.42   10.26
   1  11   3    2.93   12.71
   2  20   1  228.44   17.59
   5  -9   1 1004.22   23.60
   5  -7  -8    4.53   18.87
   5   5   6  313.99   19.24
   5   7   6   20.94   13.08
   6   2   6  191.17   19.85
   8 -12   0   27.69   16.19
   0   0  -5    3.29   10.85
   0   2   1  404.45   17.64
   0   6  -7   66.40   18.64
   0   8   2  616.68   17.43
   0  10  -7   93.68   29.03
   0  10   2  469.25   16.86
   0  18  -3  249.36   23.02
   0  18  -2  100.25   19.03
   2   4   4   28.92    9.40
   2  12   4   -4.19   10.70
   3  -5  -7   73.45   15.98
   3  11   5   52.45   16.41
   4  -8  -6  266.55   12.71
   5  -9  -6  135.78   16.89
   8 -10   2   99.27   21.95
  -1   7   0  574.14   19.47
  -1   9   0  348.73   15.98
  -1  13  -1  556.79   18.86
   0   6   2  301.99   12.20
   0   8  -7   27.14   20.87
   1  -3  -5  163.90   13.99
   1  13   3  376.09   13.81
   1  17   2   65.77   16.02
   2  -6  -1  275.89   13.15
   2  14   4  228.40   16.62
   3  -3  -8   89.44   13.11
   3   5   5  116.84   12.05
   3  17   4   11.42   21.10
   4  16   5   12.90   22.05
   5   3   6  140.66   16.89
   7 -11  -5   -6.78   20.39
   7 -11   0  533.02   21.59
   7   7   7  169.89   27.59
   8 -12  -4    6.22   20.92
   8 -12  -1  238.58   21.72
   8  -2   6  142.19   27.17
   9  -9   3  246.66   36.15
   0  12   2   24.12   10.04
   0  18  -4   78.82   27.66
   1   1  -7  119.56   13.91
   1   5  -8  190.39   20.81
   1  19   1   26.35   14.70
   2  -6  -2  888.91   18.77
   2  -4  -6   28.85    9.41
   2  -2  -7  320.54   17.40
   2   0  -8  306.25   15.96
   2  18   3  315.98   23.43
   3  13   5   58.36   13.12
   4  -8  -5    8.54   13.27
   4  -6  -7   64.13   15.23
   4  -4  -8    7.20   18.57
   4  -2  -9   82.72   17.39
   4   8   6  278.94   18.99
   4  10   6   60.84   18.23
   5  -7  -7  253.62   19.34
   6 -10  -5   52.85   17.36
   6  -8  -7    8.27   18.96
   7  -1   6   56.96   21.50
   7   5   7   35.50   24.54
   8 -12  -3  170.76   22.49
   8 -12  -2   18.59   18.89
   0  16   1   84.72   12.63
   1  -3   0 1907.03   40.43
   1  -1  -6   88.97   13.42
   1  15   3  322.55   17.96
   2   2   4  581.35   17.37
   2   6  -9   31.95   22.52
   3   1  -9   74.51   16.55
   3   3   5  212.91   15.88
   3  15   5  172.79   19.40
   4   0   5    0.51   12.53
   4   6   6  152.73   18.32
   4  12   6   20.70   21.17
   5  -9  -5  409.01   13.84
   6 -10   0  174.08   16.12
   6   0   6  574.44   24.79
   6   8   7   20.40   23.63
   8   2   7   36.76   24.05
   9 -11   1   -3.01   19.66
   9  -3   6   76.65   32.96
  -1   5  -4  971.09   32.21
  -1   5   0 2506.95   38.88
  -1  13   0  406.10   16.64
  -1  15  -3  304.11   23.46
  -1  15  -2   12.25   15.44
   0   0  -4  -11.60   11.12
   0   4   2  217.80   11.21
   0  14   2  167.08   11.88
   1   7  -8   17.88   19.97
   1   9   4  174.29   13.84
   1  11  -8   90.20   29.71
   2  16   4  385.78   17.19
   3  -5  -6  357.16   16.04
   3  -1   4   58.70   13.27
   4  -8  -4  424.12   15.21
   5  -9   0  432.99   16.01
   6 -10  -4  125.80   15.43
   6   6   7   23.60   22.91
   7 -11  -3    3.84   15.98
   7 -11  -2  499.00   21.61
   7 -11  -1   10.02   16.26
   7   3   7   46.08   23.00
  -1   9   1 1370.03   23.52
   0   4  -6   44.12   13.75
   1   7   4  233.25   14.30
   1   9  -8   29.27   21.33
   1  11   4  590.43   14.89
   1  17   3   89.53   19.39
   1  19   2   79.03   20.47
   2  -4  -5  739.37   18.01
   2   2  -8  111.38   18.32
   2   8   5   14.53   14.42
   2  12   5  264.93   16.70
   3  -7  -1 1570.03   22.28
   3  -3  -7   86.76   14.83
   3  -1  -8   23.11   15.73
   3   3  -9   20.25   20.98
   4  -6  -6  153.10   14.28
   4   0  -9   -9.06   21.62
   4   4   6    8.48   15.68
   4  14   6  114.59   17.85
   5  -9  -4  269.30   12.53
   5   1   6    6.41   19.75
   6 -10  -3  109.45   14.86
   7  -9  -6   50.93   17.73
   7  -9   2  112.33   19.08
  10 -10   2   33.02   27.26
  -1  11   1   10.55    9.25
  -1  15   0   20.50   13.66
   0   8   3  176.99   12.82
   0  12   3  553.06   16.83
   0  16   2  565.27   20.11
   0  18   1  383.23   21.12
   0  20  -2  123.43   23.21
   0  20  -1  259.34   21.34
   1  13   4  221.17   12.97
   2   6   5  123.93   15.27
   2  18   4   60.90   23.05
   3  -7  -2  289.80   11.07
   3   9   6  230.81   17.72
   4  -8  -3   -1.08   11.23
   5  -9  -3  705.48   17.44
   5   9   7  174.18   23.59
   5  11   7    6.54   22.88
   6 -10  -1  141.14   14.04
   6  -8  -6  110.01   13.16
   6   4   7  227.22   23.20
   8 -10  -5   67.71   21.17
   9 -11   0  343.31   25.95
  -1   7   1 2355.17   28.95
  -1  13   1  543.31   18.49
   1  -3  -3  315.34   11.73
   1  -1  -5  198.78   13.69
   1  15   4   18.88   17.03
   2  -2  -6  281.26   15.32
   2   0  -7    3.02   13.54
   2  14   5  143.27   14.17
   3   7   6   86.57   17.60
   3  11   6  486.49   18.70
   3  13   6   60.18   21.01
   4  -8  -1    1.74    6.83
   4  -2  -8   49.23   16.84
   5  -9  -1 1016.92   19.39
   5   7   7  224.30   18.63
   7  -7  -7  211.74   21.43
   8 -10   1  154.74   20.77
   9 -11  -3    4.36   21.28
  -1  17  -2   48.46   22.29
  -1  17  -1   85.86   16.02
   0  14   3  213.18   12.97
   1  -3  -2 1551.81   25.14
   1  -3  -1  441.71   17.52
   1   1  -6   77.61   12.91
   1  19   3   24.29   20.51
   2  -4   1 1651.98   43.56
   2   4   5  719.93   19.00
   2  16   5   12.87   19.18
   3   1   5  527.11   18.23
   4   2  -9   34.81   24.08
   5  -5  -7   15.82   12.51
   5  -3  -8   63.04   18.68
   5   5   7   32.17   19.35
   6  -8   2  276.42   21.12
   6  -6  -7   54.57   13.83
   6  -4  -8   13.49   21.56
   7  -9  -5  199.28   14.85
   7   1   7   24.44   22.40
   8 -10  -4   36.08   18.08
   8   0   7    3.49   26.93
   9 -11  -1    8.71   18.32
  -1  15  -4    7.65   25.50
  -1  15   1  421.09   17.45
  -1  17   0   49.72   15.36
   0   6  -6  154.40   18.05
   0  20   1  266.55   20.91
   1   1   3  271.47   14.08
   1  17   4   44.12   20.83
   3   1  -8   17.10   13.06
   3   5   6  345.52   19.23
   3  15   6   -0.26   16.70
   4   2   6  145.17   16.76
   4  10   7   11.31   21.03
   4  12   7  138.09   22.71
   5  -7  -5  484.07   16.49
   6  -8  -5    4.35   10.96
   6  -4   5  431.86   29.14
   6   2   7  139.07   21.26
   8  -8  -6   61.03   20.92
  -1   9   2  301.95   14.69
  -1  11   2  930.85   17.76
  -1  13   2  330.09   16.45
  -1  17  -3   85.15   24.62
   1   5  -7   49.66   15.39
   1   9   5  585.39   18.39
   1  11   5    6.09   14.83
   3  -3  -6  190.51   13.34
   3  -1  -7  232.12   16.28
   4  -6   2  358.51   22.37
   4   8   7    0.98   14.08
   5  -3   5   96.30   20.48
   7  -9  -4  105.48   16.72
   8 -10  -3  134.63   17.21
   8 -10   0  134.35   19.07
  -1   5   1  246.25   12.10
  -1  17   1   76.99   16.64
   0   2   2 1493.07   26.17
   0   4   3 1670.93   23.36
   0  10   4  274.29   14.39
   0  12   4   14.18   14.50
   1  13   5  206.12   13.71
   2  -4  -3 1311.11   20.62
   2   0   4 1559.39   27.06
   2   6  -8   83.86   18.45
   2   8   6  208.42   15.98
   2  10   6   70.57   16.95
   2  12   6    8.59   18.35
   4  -4  -6    7.93   13.16
   4   0  -8  159.61   17.14
   4   6   7   80.94   20.45
   5  -7   2   91.67   14.62
   5   3   7   43.17   18.53
   6  -8  -4  222.89   15.56
   6  -6  -6  103.66   15.74
   6  -2   6  198.68   22.20
   7  -9   1  460.24   21.82
   7  -7  -6   41.26   13.98
   8 -10  -2  113.71   18.59
   8 -10  -1  147.83   17.28
   8  -8   3   16.96   21.39
  10 -10   1   19.78   20.71
  -1   7   2  414.34   12.63
  -1  15   2   -2.59   15.88
  -1  19  -1   26.31   21.94
   0  14   4  124.56   16.82
   0  20   2  116.18   22.67
   1  -1  -4  177.61   12.28
   1  -1   2  301.29   17.25
   1  15   5  134.39   15.17
   2   2  -7  309.95   13.02
   2  14   6  112.88   15.59
   3   3  -8   95.56   17.25
   4  -2  -7  259.41   15.94
   5  -7  -4   84.86   12.73
   5  -5  -6  321.29   13.24
   5  -1  -8    0.25   18.38
   6  -2  -8   42.13   20.87
   7  -9  -3  360.00   17.31
   7  -5  -7   18.36   19.10
   7  -5   5   44.03   32.42
   8  -8  -5   13.90   18.83
  -1   7  -4  210.22   22.96
  -1  19  -2   77.57   21.13
   0   4  -5  867.11   22.01
   0   8  -6  193.33   19.37
   0  14  -6   48.82   38.52
   0  16   4  372.93   20.56
   1   7  -7  385.86   20.42
   1  17   5   46.12   19.89
   2  -2   3 1505.60   33.75
   2   2   5  762.21   19.47
   2   6   6  259.57   16.95
   2   8  -8   67.56   20.50
   3   9   7  227.47   21.19
   3  11   7   21.90   15.79
   3  13   7   15.99   24.04
   4  -2   5  637.89   24.52
   5  -3  -7   26.27   12.31
   5  -1   6   14.26   15.03
   6  -4  -7  213.22   14.65
   9  -9  -4   27.64   14.34
   9  -9   2   84.60   18.57
  10 -10  -2   34.68   20.00
  10 -10  -1    6.22   19.60
  10 -10   0   32.60   20.86
  -1   9   3  996.91   19.03
  -1  11   3    4.59    9.54
  -1  13   3  397.78   17.53
  -1  17   2   55.45   17.77
  -1  19   1   37.23   17.24
   0   6   4  269.58   13.59
   1   1  -5  194.01   12.75
   1   5   5  108.19   13.85
   2  -4  -2   84.98   10.58
   3  -3  -5  218.73   12.84
   3   7   7  289.99   19.04
   4   4   7  370.09   17.55
   5   7   8   15.48   25.94
   6  -8  -3   13.47    9.13
   7  -9  -2  111.72   11.26
   7  -9  -1  410.41   17.40
   7  -9   0  142.85   16.50
   7  -7  -5  419.36   18.79
  -2  10  -1  227.33   16.16
  -2  12   0    9.04   12.05
  -2  14  -1  305.14   21.38
  -1  15   3  302.72   18.12
   0  10  -6  113.87   23.46
   0  18   4   76.86   22.07
   1  11   6  366.95   18.51
   2  10  -8   15.79   21.05
   3   1  -7  247.81   15.57
   3   5  -8  126.00   18.02
   4  -6  -3  194.00   12.27
   4   0   6  546.34   21.33
   4   2  -8   55.26   13.90
   5  -7  -3  729.99   14.43
   6  -8   1   26.99   12.83
   6  -6  -5   69.82   13.51
   6   0   7   11.19   19.59
   6   4   8   10.75   24.38
   7  -1   7   56.02   24.50
   8  -8  -4  131.13   17.46
   8  -6  -6   38.41   14.19
   9  -9  -3  279.82   18.84
   9  -7   4   34.32   31.89
  -2  12  -2    8.70   16.74
  -2  12   1  505.98   17.34
  -2  14   0  385.98   17.85
  -1   5  -3  164.25   22.14
  -1   5   2 1737.20   23.35
  -1   7   3 1585.52   21.98
  -1  17   3   74.39   16.24
  -1  19  -3   26.20   27.59
  -1  19   2   97.91   20.28
   0  10   5  165.58   15.10
   0  12  -6    5.58   25.73
   0  12   5  283.56   13.01
   0  14   5  122.37   17.91
   1   9  -7  234.16   20.10
   1   9   6   89.75   16.89
   1  13   6  150.99   15.01
   1  15   6    2.63   19.38
   2  -4  -1 2085.12   29.56
   2  -4   0  111.24   11.80
   2   4   6   17.88   13.71
   2  12   7  104.95   20.24
   3  -1  -6   51.91    9.03
   5  -5  -5   40.98    8.48
   5   1  -8    0.43   17.54
   5   1   7  179.57   20.92
   5   5   8  121.55   21.77
   6  -8  -2  259.53   11.68
   6   0  -8  215.40   21.72
   7  -5  -6  172.64   16.84
   9  -9  -2   93.00   19.14
   9  -9   1  329.77   23.89
   9  -7  -5  225.74   21.72
  10  -8   3    5.05   25.88
  -2  10   1  239.97   14.72
  -2  14  -2  301.17   21.48
  -2  14   1  294.01   17.62
  -1   3   0 2007.47   41.96
  -1  17  -4   38.81   32.20
   0   8   5   87.52   12.81
   0  16   5   63.98   20.10
   1  11  -7   -1.24   21.55
   1  13  -7   70.25   26.05
   2  10   7   44.40   14.66
   3  -5  -2  895.27   15.95
   3  -1   5  472.74   17.84
   3   5   7   84.00   13.48
   4  -6  -2  364.40   13.30
   4  -2  -6  151.68   15.08
   4   0  -7   -5.90   10.71
   4   8   8   88.42   18.35
   5  -7  -2  109.52   12.31
   5  -3  -6  161.75   14.48
   5  -1  -7  163.04   17.61
   6  -8  -1   24.07   11.82
   6  -4  -6   21.27   14.27
   7  -7  -4  126.44   15.37
   7  -3  -7   21.04   17.30
   8  -4   6    7.30   30.81
  -2   8   0  587.43   18.55
  -2  10  -2  213.69   19.25
  -2  16  -1   10.67   17.56
  -2  16   1   16.94   15.09
  -1  11   4  586.88   14.48
  -1  13   4  210.53   13.49
  -1  15   4    3.19   17.91
   0   4   4   95.78   11.04
   1   1   4  160.69   11.80
   1   3   5  152.17   12.96
   1   7   6   91.47   11.13
   2   2  -6  284.00   15.20
   2   8   7   -5.84   18.11
   3   1   6   43.31   12.88
   4  -4   4   37.44   16.74
   4   2   7  302.84   18.75
   4   4  -8    2.21   17.87
   4   6   8   45.67   20.53
   5  -7   1 1064.97   23.82
   6  -2  -7  127.17   13.74
   8  -8  -3   18.59   10.76
   8  -6  -5   57.88   17.21
   8  -2   7   55.46   28.60
   9  -9  -1  325.69   15.69
   9  -9   0  111.49   16.46
  -2   8  -1    7.10   11.38
  -2   8   1    3.98   10.57
  -2  10   2  191.12   13.64
  -2  12   2   11.99    9.67
  -2  14   2  331.91   16.91
  -1   3  -1  506.30   42.23
  -1   9   4  179.26   10.44
  -1  19   3   29.33   15.37
   0   2   3  429.40   13.03
   1   5  -6  448.99   17.66
   2   0  -5   -0.92   11.33
   3  -5  -1  331.90   13.67
   3   3  -7   92.36   14.76
   3   9   8  111.79   21.04
   4  -6  -1  206.49   12.19
   4  -6   1  202.56   13.76
   5  -7  -1  983.94   17.44
   5  -7   0  118.47   12.23
   6  -6  -4  205.79   11.02
   6   2   8   54.34   24.27
   8  -8   2  155.42   20.63
   9  -7  -4   28.38   18.12
  10  -8  -3   -1.24   17.72
  -2  16   2  612.18   21.12
  -1   3   1  485.33   17.27
  -1   5   3  160.68   11.39
  -1  17   4   33.78   15.10
   0   6  -5   97.16   13.47
   0   6   5   81.22    9.88
   0  12   6   -1.19   16.92
   2   6  -7   58.73   14.12
   3  -5   0 1013.25   22.58
   3   3   7   89.14   14.59
   4  -6   0  466.24   16.13
   5   3  -8   59.88   14.42
   5   3   8   34.04   21.45
   7  -7  -3  664.12   17.66
   8  -8  -2  155.87   15.32
   8  -4  -6    1.37   17.43
  -2  12   3  447.96   16.27
  -2  14   3  189.31   16.00
  -1   7   4  248.15   12.75
  -1  13   5  219.65   16.71
   0  10   6  107.43   16.05
   0  16   6  214.38   23.67
   1   1  -4  170.54   12.11
   1   5   6  507.20   14.28
   1  11   7   -4.39   14.49
   2   0   5   -2.49   10.10
   2   2   6  297.84   14.96
   3  -1  -5  511.82   15.55
   3   1  -6   26.24   12.49
   3   7   8   26.42   22.09
   4   2  -7  247.23   17.23
   4   6  -8   43.25   20.59
   8  -8  -1   16.44   14.29
  10  -8   2  154.76   25.70
  -2   8   2  493.68   13.25
  -2  10   3  202.20   13.82
  -2  16   3   29.36   17.08
  -2  18   2   87.39   20.80
  -1  11   5   -1.75   10.27
  -1  15   5  157.36   19.96
   0   8   6  214.64   15.62
   1   9   7  249.49   16.12
   2  10   8   52.25   20.36
   3  -3   4  256.08   17.01
   4  -2  -5  597.92   15.41
   4   4   8    4.69   18.90
   5  -3  -5   90.20   12.60
   5   1  -7  189.62   17.10
   6  -6  -3  109.79   12.43
   6  -4  -5  387.99   12.70
   6   0  -7   10.42   16.17
   7  -3  -6  160.20   12.35
   7  -1  -7   31.42   14.28
   8  -8   0  169.61   16.12
   8  -8   1   21.18   13.83
   8  -6  -4  139.03   16.82
   9  -7  -3  297.85   17.79
   9  -5  -5   13.23   18.73
  10  -8  -1   -8.43   18.65
  -2  18  -2  102.09   25.39
  -2  20   0   55.59   22.42
  -1   3   2 1429.73   22.88
  -1   9   5  586.89   16.59
  -1  17   5   29.30   16.36
   0   4  -4   73.67   11.84
   1  -1  -2  286.50   13.61
   1  -1   3  240.91   13.90
   1   7  -6  103.29   17.73
   2   4   7  372.52   18.12
   2   8  -7   -7.91   16.98
   3   5  -7   54.49   15.53
   5  -1  -6   25.28   13.89
   5   5  -8  125.39   20.68
   6  -2  -6  168.83   11.72
   7  -7  -2  231.26   14.46
   9  -3  -6   46.91   20.16
  10  -8   0  155.45   19.52
  10  -8   1   13.41   17.98
  10  -6  -4   22.76   17.44
  -2   6   1  272.86   14.07
  -2   8   3    9.76   10.12
  -2  12   4    9.83   14.58
  -2  14   4  226.68   17.26
  -2  18   3  270.38   16.38
   1   7   7  383.68   15.15
   2   4  -6   -3.28   11.39
   2   8   8   83.39   20.62
   3   5   8  150.74   21.45
   5  -5  -3   68.73    8.88
   5  -1   7  149.10   21.20
   6   4  -8   -2.08   14.64
   8  -4  -5  188.00   16.52
  -2   6   0 1157.11   24.74
  -2  10   4  130.66   13.95
  -2  14  -3  197.93   26.17
  -2  16   4  292.75   16.79
  -1   7   5  862.88   17.27
  -1  13   6  113.10   17.74
  -1  15   6   -1.08   18.52
   0   6   6  155.94   13.83
   0  12   7  151.16   21.02
   0  14   7   10.31   16.83
   1   1   5  190.57   11.99
   1   3   6  440.83   16.20
   4   0   7    2.82   15.47
   6  -6  -2  308.67   14.27
   7  -7  -1  825.57   18.92
   8  -6  -3   43.15   13.99
   8  -2  -6  132.26   17.59
   8   0  -7    0.73   15.00
   9  -7  -2   54.86   16.16
  -2   6   2  944.86   18.19
  -2  12  -3  412.37   31.47
  -2  18   4   49.12   21.48
  -1  11   6  331.99   17.69
   0  10   7   79.11   14.41
   1  11   8  117.84   24.36
   2  -2   4  540.87   19.28
   2   0  -4 1469.44   20.27
   2   2  -5  784.17   18.11
   2   6   8  102.03   19.96
   2  10  -7   63.20   18.48
   3   1   7  218.51   17.27
   4  -2   6  124.16   15.15
   4   2   8   75.09   18.26
   5   1   8   10.56   20.67
   5   3  -7   48.74   14.90
   5   7  -8   16.06   18.67
   6  -4  -4   39.31   11.70
   6  -2   7  115.90   23.16
   6   0   8  221.40   27.23
   6   2  -7  102.64   17.64
   7  -7   2  221.13   18.64
   7  -3  -5   93.46   14.19
   7   1  -7   41.89   16.98
   9  -7   3  328.34   24.61
   9  -5  -4  218.84   17.04
  10  -6  -3   40.23   15.13
  11  -7  -1  170.49   21.63
  -3  13   0  168.56   15.23
  -3  13   1  150.40   14.76
  -3  13   2  167.15   15.15
  -3  15   1  341.68   18.93
  -3  15   2    1.87   16.02
  -2   8   4  360.68   13.70
  -2  12   5  270.20   16.36
  -2  14   5  126.35   18.98
  -2  16  -3   13.11   25.23
  -1   3   3  320.10   12.53
  -1   9  -4  163.63   23.32
  -1   9   6   90.69   14.54
   0   0   2 9852.79   70.10
   0   8  -5   73.16   15.92
   0   8   7   57.51   15.69
   1   5   7   48.26   11.78
   1   9   8   34.57   21.24
   3  -1   6   30.32   12.43
   3   3  -6  168.52   12.86
   5  -3   6  171.13   20.33
   7  -7   0  260.06   14.63
   7  -7   1  802.90   22.46
   7  -1  -6   64.40   13.94
   9  -7  -1  453.96   19.19
  -3  11   1  127.68   13.09
  -3  11   2 1393.44   22.74
  -3  17   0   20.85   17.30
  -3  17   1   57.96   17.91
  -3  17   2   18.52   19.40
  -2   6   3  195.18   11.61
  -2  16   5   11.11   14.82
   1   9  -6  101.52   14.60
   2   2   7  310.28   15.65
   2  12  -7   91.52   20.53
   3  -1  -4   41.50    7.25
   3   1  -5  465.49   15.68
   3   3   8   90.78   18.03
   4   2  -6  140.25   13.63
   5   1  -6    8.24   13.43
   6  -6  -1  142.96   12.18
   6  -2  -5  296.22   13.76
   6   0  -6  536.20   17.77
   7  -5  -3   61.70   12.86
   9  -3  -5   38.80   13.06
   9  -1  -6   28.77   17.93
  11  -7   0   33.14   18.28
  11  -7   1  167.44   22.03
  -3  11   0 1743.55   25.79
  -3  13   3  130.46   16.21
  -3  15   3  284.11   17.44
  -3  17   3   51.53   18.45
  -2   6  -1  276.98   18.47
  -2  10   5  104.10   10.55
  -1   5   5  108.22   11.90
  -1  13   7  113.49   18.53
   0   4   6   40.95   12.10
   1   5  -5   86.92   11.22
   1   7   8   39.44   17.22
   2   0   6  728.71   17.96
   3  -3  -2  353.07   13.03
   4  -4  -2   51.57    9.88
   4   0  -5    1.23   10.72
   4   6  -7   46.61   16.46
   5  -1  -5  319.45   13.38
   8  -6  -2  191.56   11.80
   8  -4  -4   17.85   10.72
   8   2  -7   68.33   15.81
   9  -7   0   81.46   15.35
   9  -7   2   62.16   18.12
  10  -6  -2   78.02   16.09
  10  -4  -4    2.03   16.74
  -3  11   3   96.77   12.94
  -3  13  -1  146.68   15.77
  -3  15  -1  336.98   19.82
  -3  19   0  171.54   26.13
  -2  14   6  124.64   18.20
  -2  18  -3  284.74   35.19
  -1   7   6  106.65   10.45
  -1  11   7    7.41   18.58
   0   2   5  302.47   12.95
   0   6   7   70.34   15.02
   1  -1   4  150.83   12.45
   2   4   8   16.13   17.98
   3   9  -7  154.36   18.37
   5   5  -7   16.86   17.22
   6  -6   3  118.35   20.36
   6   4  -7  203.93   17.74
   7  -3   7   47.01   29.41
   7   3  -7   13.94   16.95
   8  -2  -5  158.76   15.72
   8   0  -6  419.99   19.55
   9  -7   1  393.78   17.72
   9  -5  -3   20.16   11.35
  10  -6   4   46.01   25.58
  10  -2  -5   77.46   20.83
  -3   9   2  659.86   14.98
  -3  13   4  103.17   15.83
  -3  15   4    1.34   12.62
  -3  17  -1   50.36   19.98
  -3  17   4   18.12   20.14
  -2   6   4  533.76   13.94
  -2   8   5    5.28    8.57
  -2  12   6    2.76   16.41
  -1   9   7  278.31   16.96
   0   0   3   -1.19    8.07
   0  10   8   50.22   16.39
   1   3   7   57.84   13.31
   1  11  -6  302.18   22.35
   3   5   9   23.36   23.14
   5  -5  -1   91.29   10.85
   6  -6   0  354.81   14.24
   6  -4  -3  651.07   13.71
   7  -3  -4  360.45   15.37
   8  -6  -1   80.22   12.72
   8  -6   4  136.56   24.90
  10  -6  -1   43.79   16.58
  11  -5  -2  128.44   19.29
  -3   9   3  715.53   16.74
  -3  11   4  829.93   16.48
  -2  10   6   79.19   14.54
   0   8   8  129.67   18.51
   1  -1  -1    1.92    7.98
   1   1   6   93.16   11.40
   1   5   8  225.56   17.78
   2   6   9    7.40   20.52
   6  -4   6   20.35   24.82
   7  -5  -2  481.37   15.01
   7  -1  -5   62.96   12.79
   7   1  -6   67.60   12.58
   9  -3  -4  161.43   16.70
   9   1  -6    4.56   19.02
  -3  19  -1  -11.98   27.36
  -2   4   1 1910.11   28.15
  -2   4   2   96.45   10.97
  -1   5   6  466.11   15.20
   3  11  -7   21.60   17.44
   4   4  -6   11.75   12.94
   4   8  -7    3.55   14.21
   5   3  -6  139.34   14.84
   6  -6   1  160.39   13.36
   6  -6   2  334.47   18.99
   6   2  -6  170.04   14.53
   7   5  -7   39.11   18.35
   8  -4  -3  373.11   14.90
   9  -5  -2  392.29   16.23
   9  -1  -5  105.86   15.90
  10  -6   0   94.94   16.07
  10  -4  -3  273.55   14.87
  -3   9   4  419.23   12.10
  -3  11   5   41.88   14.03
  -2   4   3 1256.04   19.02
  -2   6   5  143.85   11.19
  -2   8   6  199.60   14.03
  -2  12   7  132.58   18.32
  -1   3   5  146.02   11.56
  -1   7   7  397.46   17.26
  -1  11   8  120.93   23.53
   0   4   7  399.97   16.94
   1  13  -6  117.45   20.97
   1  15  -6    8.15   25.40
   2  -2   5  642.43   18.97
   2   8  -6  185.91   15.83
   3   1   8   20.32   16.01
   3  13  -7   12.14   21.70
   4  -4  -1 2271.07   26.01
   4   0   8  210.10   20.10
   4   2   9  106.29   25.67
   5   7  -7  179.04   17.07
   6   0  -5    4.31   12.17
   6   6  -7   32.14   16.49
   8  -6   0  229.49   14.69
  10  -6   3   18.42   22.73
  10  -2  -4   49.44   18.56
  11  -5  -1   38.44   18.33
  -3   7   1 1563.01   23.09
  -3   7   2  281.77   11.17
  -3   7   3 1035.18   17.64
   0   0   4 3655.35   32.21
   0   2   6  356.86   14.32
   1   7   9  104.37   22.86
   2  -2  -1 2641.61   33.68
   2   2  -4  553.98   14.90
   3  -3  -1  778.44   18.14
   3  -1   7  220.63   18.25
   3   3  -5  212.07   13.04
   3   3   9    0.49   20.85
   5  -5   0 1034.47   19.99
   5  -1   8    6.77   23.01
   5   1  -5  314.68   14.26
   6  -4  -2   66.02   10.92
   8   2  -6  123.83   14.03
  10  -6   1   45.27   17.76
  10  -6   2   79.68   19.52
  10   0  -5   -0.31   16.99
  11  -3  -3   20.28   13.96
  -4  14   1  330.23   17.18
  -4  14   2  236.83   13.74
  -4  14   3  304.12   17.13
  -4  16   1   -1.57   16.66
  -4  16   3   -0.68   19.82
  -3  15  -2    1.78   17.74
  -3  15   6   -7.50   16.75
  -2   4   4   38.54    9.54
   0   2  -2 1400.84   32.56
   1  -1   5  186.05   11.22
   2   0   7    1.84   12.86
   3   1  -4   65.04   10.46
   4  -2   7  269.99   19.90
   4   2  -5  589.92   13.95
   7  -5  -1   76.44   11.61
   7  -3  -3  174.59   13.29
   8  -6   1   53.35   14.36
   8  -6   3   42.80   17.22
   8   0  -5   -0.80   10.36
   9  -5  -1   22.45   13.89
   9  -3  -3   28.71   14.98
  10  -4  -2   10.02   14.66
  11  -5   0  140.88   19.30
  -4  12   2   64.75   10.63
  -4  12   3  347.56   16.47
  -4  14   4  157.68   18.44
  -4  16   4  277.99   21.56
  -4  18   1  259.79   23.83
  -3  17  -2   25.70   21.34
  -2   6   6  241.90   13.82
  -1   1   2  314.58   13.64
  -1   1   3  222.99   11.52
  -1   5   7   46.34   12.50
   1   3   8  207.05   18.41
   2  10  -6   82.17   17.25
   4  -4   5  810.58   32.86
   4  12  -7   54.00   22.37
   6   4  -6   13.09   14.32
   6   8  -7    4.56   16.92
   8  -6   2  200.32   15.33
   8  -4  -2   38.11   12.30
  -4  12   4   48.08   15.16
  -3  13  -2  156.99   18.38
  -2   4   0  102.78   11.21
  -2   8   7   14.41   14.76
  -1   7   8   36.98   17.69
   0   4  -3 1563.53   31.64
   0  12  -5  296.27   23.99
   1   1   7   90.28    9.76
   1   5   9   37.32   21.45
   4   6  -6  150.31   13.98
   5  -5   1   86.40   13.44
   5  -3  -2  402.62   13.12
   5   5  -6  296.35   16.64
   7  -5   5   51.22   30.47
   7  -1  -4  104.14    9.88
   7   1  -5   56.53   10.53
   8   4  -6   -3.38   17.96
   9  -5   5   10.50   26.14
   9  -1  -4    7.87   13.91
   9   1  -5   86.57   11.98
  11  -5   1   13.64   18.27
  -4  10   2  130.90   13.19
  -4  10   3   22.37   11.73
  -4  16   5   10.36   15.13
  -4  18   0  144.19   22.25
  -3   7   0  373.92   15.34
  -3   7   5  580.65   14.85
  -3   9   6  222.64   14.47
  -3  13   7   18.17   20.28
  -3  19  -2  104.66   26.11
  -2  10   8   13.27   18.17
  -1   1   4  152.11   10.19
   0   0   5    2.37    8.37
   0   4   8   14.13   15.61
   4  -4   0   56.70    9.40
   5  11  -7    9.95   19.53
   6  -2   8   70.28   24.92
   9  -5   0  409.12   15.98
  10  -4  -1  342.93   18.45
  10  -2  -3  155.21   13.97
  10   2  -5   49.72   19.23
  -4  10   1   16.29   11.24
  -4  10   4   85.46   13.66
  -3  11   7   26.19   17.70
  -1   1   1  299.70   15.32
   0   6   9   44.22   20.46
   2  12  -6   -5.54   18.33
   5  -3   7   45.27   18.57
   6  -4  -1  910.80   17.42
   6   2  -5  272.85   11.75
   7   5  -6  171.73   17.72
   8   2  -5  122.82   15.53
  -4  10   5   12.17   12.29
  -4  14   6   84.02   22.09
  -3   5   3  191.77    9.55
  -2   6   7   75.78   14.11
  -1  11  -4  606.21   33.28
   1  -1   6   70.38   11.41
   1   5  -4  918.79   20.46
   3   1   9   71.77   24.05
   3   5  -5  110.06   12.30
   4  -2  -2  315.57   11.69
   5  -5   2  932.86   25.78
   5   3  -5   76.38   11.84
   6   6  -6  104.98   14.89
   7  -3  -2  482.63   14.37
   8  -4  -1  452.45   14.90
   8   0  -4  769.11   17.35
   9  -3  -2  197.49   11.39
  11  -3  -1   34.32   17.47
  -4   8   2  577.90   15.43
  -4   8   3    9.78   11.14
  -4  12   6   32.92   17.60
  -3   7   6   83.21    9.29
  -3   9   7  198.96   16.68
  -2   4   6   20.72    7.53
  -2   8   8  101.06   13.92
  -1   1   5  196.12   11.04
  -1   3   7   68.27   12.97
  -1   5   8  180.49   12.98
   0  14  -5   98.02   22.70
   1   9  -5  535.60   19.08
   2   0   8  294.17   20.06
   2   2   9  109.21   19.78
   2  14  -6  101.44   21.84
   3  -3   6  156.90   15.51
   4   0   9   -0.96   23.20
   4   4  -5  787.98   15.81
   5  -5   3   73.43   17.95
   5   7  -6   39.46   14.02
   9  -5   1   40.83   12.54
   9   3  -5   19.08   16.81
  10  -4   0    8.50   14.39
  -5  15   3  133.70   19.95
  -5  15   4   -2.49   16.67
  -4   8   4  395.48   11.56
  -4  10   6   43.94   14.03
  -4  16  -1   31.10   19.99
  -3   5   1  324.23   13.53
  -3   5   5  121.59   10.75
  -3  11  -2 1390.05   35.26
  -2   2   3 1628.57   22.35
  -1   7   9  145.71   22.51
   0   0   6 1554.13   21.11
   0  16  -5   32.71   24.79
   1   1   8   38.15   14.42
   1   3   9   30.10   14.90
   3  -3   0  403.14   14.88
   3  -1  -2  107.30    7.89
   3  -1   8   14.95   16.44
   7  -5   1  103.89   11.52
   7   3  -5   82.84   11.04
   9  -5   2  368.57   20.89
   9  -5   4  252.61   22.79
   9  -1  -3  139.01   11.73
   9   1  -4   19.83   14.63
  -5  13   2  191.58   15.12
  -5  13   3  146.71   15.75
  -5  13   4  134.02   17.28
  -5  15   2    0.57   12.17
  -5  17   2   34.51   21.43
  -4   8   5   -1.25   11.81
  -4  10   0  132.82   11.58
  -4  12   7   99.48   18.41
  -4  14  -1  341.59   17.59
  -4  18  -1  251.19   23.61
  -3   7   7  261.81   15.07
  -2   2   2 1152.44   20.16
  -2   2   4  521.96   11.87
   0   2   8  125.64   15.15
   0   4   9  129.62   19.94
   2   0  -2 2676.73   29.69
   2   4  -4   47.57    9.78
   3   3  -4  264.13   12.56
   4   2  -4  234.75   10.16
   5  -3  -1  170.15   10.68
   7  -1  -3   94.12    8.48
   7   1  -4  118.43   12.70
   7   7  -6   55.16   12.80
   9  -5   3   21.67   17.28
  10   0  -3    1.39   15.44
  11  -1  -2    8.44   16.78
  -5  13   5   65.37   19.22
  -5  15   5   86.97   16.00
  -5  17   1   51.91   20.04
  -4   8   1    2.38    7.03
  -3   9   8  111.45   19.47
  -2   4   7  323.08   14.52
  -2   6   8   95.67   12.94
  -1   1   6   69.86   10.34
   0   8  -4  356.22   18.17
   4  -2   8   57.24   19.88
   4  10  -6   65.29   15.16
   5   9  -6  156.50   17.36
   6  -4   0   75.37   10.16
   6  -2  -2  501.68   13.88
   6   4  -5  414.21   13.33
   6   8  -6  123.30   16.16
   7  -5   2  513.81   19.39
   8  -4   0   40.72   11.75
   8   4  -5  217.12   13.35
   8   8  -6   14.54   17.79
   9  -3  -1   52.17    9.67
  10  -4   1  339.23   17.38
  11   1  -3   89.02   19.56
  -5  11   2  778.72   17.90
  -5  11   3   22.16    9.79
  -5  11   4  494.61   13.89
  -5  13   1  156.21   14.36
  -4   8   6  246.61   14.04
  -4  10   7    2.45   16.38
  -1   3   8  171.03   14.80
  -1   5   9   19.33   19.06
   1  -1   7   96.44   14.55
   2   8  -5    0.61   10.88
   3  13  -6   63.08   17.92
   5   5  -5   47.35   12.36
   7  -3  -1  240.96   13.06
   7   9  -6   48.05   19.11
   8   2  -4  206.07   13.58
   9   5  -5   31.40   16.06
  -5  11   5   20.24   11.63
  -5  13   6   76.37   21.29
  -4   6   3  160.49    9.20
  -4   6   4  253.68   10.19
  -4  12  -1  427.15   18.07
   0   0   7    0.23    9.92
   1  11  -5    6.31   12.16
   2  -2   0 1520.51   31.01
   2  -2   7  288.56   15.50
   3   7  -5  597.73   16.63
   3  15  -6    1.17   20.91
   4   6  -5   94.63   12.55
   6   2  -4  303.55   10.43
   7  -5   3   80.57   15.71
   7  -5   4  300.80   20.90
   7   5  -5   50.13   15.06
   8   0  -3   -0.32    8.91
  10  -4   2   15.01   15.23
  10  -2  -1  227.02   13.72
  11  -3   1   80.08   16.62
  -5   9   3  732.67   17.47
  -5   9   4  281.78   15.57
  -5  11   6  296.07   18.94
  -4   6   2  421.11   13.92
  -4   6   5   84.99    8.52
  -4   8   7    3.33   15.11
  -3   3   3  461.24   13.30
  -3   3   4  291.87   10.22
  -3   5   7   75.87   13.20
  -3   7   8   41.05   12.68
  -2   2   1 2754.04   33.64
  -2   6   9   25.52   18.17
  -1   1   7   94.05   10.77
   6  10  -6   47.17   14.00
   9  -1  -2   21.02    9.41
   9   1  -3  122.75   13.98
   9   3  -4  146.79   14.34
  11  -1  -1  173.03   16.50
  -5   9   5  435.47   16.71
  -5  11   1   29.35   12.04
  -5  15   0    4.53   16.61
  -5  17   0   54.96   19.39
  -4   6   6  120.84   12.18
  -3   7  -1 1543.84   31.17
  -2   4   8    1.74   10.34
   0   2   9   50.90   16.62
   1   1   9   58.99   17.01
   2   0   9    2.33   19.00
   4  -4   6   12.91   17.23
   4  14  -6  106.96   20.67
   5   3  -4  273.24   12.32
   6   6  -5   79.14   13.85
   7  -1  -2  156.16   11.92
   7   3  -4  344.60   14.94
   8  -4   1  435.52   15.23
   8   6  -5   44.24   12.38
   9  -3   0  214.52   10.72
   9   7  -5  200.56   20.33
  10  -4   4    9.51   18.53
  10   0  -2  458.17   18.24
  10   2  -3  196.99   16.79
  10   4  -4    3.98   12.03
  11  -3   2   46.65   17.53
  -6  14   4  103.48   18.97
  -6  16   3   12.80   21.56
  -5   9   2  373.13   12.58
  -5   9   6  128.91   15.50
  -5  11   7    4.32   19.00
  -4   8   0  739.40   17.98
  -3   3   2  351.83   11.21
  -3   3   6  161.11   11.01
  -3   5   0  981.83   21.23
   1   7  -4  216.99   15.24
   2  10  -5  109.81   15.97
   3  -3   7   79.29   13.73
   3  -1   9   96.12   22.19
   5  13  -6   63.08   17.94
   6  -4   1  939.17   18.95
   6  12  -6    0.78   15.30
   8  -2  -1  378.45   14.04
  11   1  -2    5.99   13.35
  11   3  -3   31.94   13.75
  -6  12   4    1.39   14.30
  -6  14   3  101.09   14.94
  -6  14   5   57.62   14.98
  -4   6   1  203.07   11.75
  -4   6   7   58.97   12.47
  -3   5   8  155.61   16.42
  -1  -1   4  154.73   10.39
  -1   3   9   20.50   13.45
  -1  13  -4  211.15   25.25
   0  -2   4  780.35   19.10
   0   0   8  545.93   16.72
   1  -1   8   29.90   14.75
   4   4  -4   32.51    8.15
   5  -3   0  506.63   14.36
   5  -3   8   71.39   24.07
   7  -3   0  502.58   14.78
   7   7  -5  370.66   16.95
   8   4  -4   29.06   13.42
  10  -2   0  115.58   13.67
  11  -3   3   52.73   20.13
  -6  12   3  286.79   16.26
  -6  12   5  163.42   19.40
  -6  14   2  124.54   17.13
  -5   7   3  811.92   17.08
  -5   7   4   61.07    9.29
  -5   7   5  459.80   14.85
  -5   9   7  211.86   17.95
  -4   4   4   45.00   10.46
  -4   4   5  828.50   15.17
  -4  10  -1   24.63   13.74
  -2   4   9  157.09   17.44
  -1  -1   5  196.49   10.86
  -1   1   8   49.59   14.26
   0  -2   3  455.29   15.99
   0  -2   5  289.45   12.75
   1  -3   4  890.11   22.98
   3   5  -4  588.05   15.99
   4  -4   2   52.93   13.22
   4   0  -2 1727.43   21.65
   4   8  -5    3.33    8.81
   6   4  -4   33.49   12.02
   8  -4   2   29.73   12.38
   8  -4   6    9.62   26.70
   8   0  -2 1192.91   18.98
   8   2  -3  259.81   13.76
   8   8  -5    3.26   13.32
   9  -3   1   61.37   12.63
   9  -1  -1  157.84   13.73
   9   5  -4  239.87   16.21
  10   6  -4   45.36   18.32
  11  -1   0    6.46   11.78
  -6  12   2   10.67   13.45
  -6  12   6    1.36   20.47
  -5   7   6   36.07   13.39
  -5   9   1  949.31   16.83
  -4   4   3 1633.20   19.33
  -3   3   7   78.74   11.69
  -2   0   4 1509.24   20.57
  -1  -1   3  248.13   10.52
   1  -3   5  161.70   13.34
   1  15  -5  131.92   18.69
   1  17  -5   25.12   22.91
   2  -2   8  116.30   15.84
   3  -1  -1 1227.70   21.33
   6   8  -5    3.02   12.64
  -6  10   3  131.88   14.96
  -6  10   4   92.41   11.05
  -6  10   5   83.16   12.60
  -6  16   1   13.96   18.90
  -5   7   2  109.80   12.17
  -4   4   6    6.56    8.14
  -4   6   8   79.85   16.70
  -3   5   9   33.16   16.43
  -2   0   5    2.73    9.16
  -2   2   8  106.37   10.70
  -1  -1   6   52.61   10.03
   1  -3   3  289.93   17.81
   2  12  -5  245.87   17.10
   3  -3   1  840.78   23.71
   4  -2   9   75.18   25.82
   7   5  -4  326.43   15.40
   7   9  -5  219.45   17.30
   8  10  -5   79.82   18.73
   9   1  -2   19.87    9.31
   9   3  -3   47.97   10.23
  10  -2   1  231.51   16.23
  10   0  -1   -0.08   10.47
  10   2  -2   97.05   15.62
  11   1  -1  147.28   15.36
  11   3  -2   33.10   17.77
  -6  10   6   60.48   13.04
  -5   7   7  193.82   16.47
  -4   4   2   62.93    9.73
  -4   4   7  368.99   14.82
  -3   3   1  841.24   17.27
  -2   0   3   -1.08    6.36
  -2   0   6  706.87   15.20
   0  10  -4  244.43   15.80
   1  -3   6  437.64   17.79
   3   3  -3  460.68   13.57
   4  10  -5   18.82   13.28
   5   5  -4  571.99   13.24
   6  -4   2   62.48   11.15
   8  -4   3  352.96   16.96
   8  -2   0  427.20   14.05
   8   6  -4  131.43   14.91
   9   7  -4   37.23   17.13
  11  -1   1  162.05   16.74
  -6   8   4  186.52   14.02
  -6   8   5    7.59   13.15
  -6  10   2  129.47   13.64
  -5   5   5   47.35   11.71
  -5  15  -1  158.76   18.60
  -5  17  -1   41.26   18.74
  -4  14  -2  246.39   22.85
  -3   1   4   44.80    9.32
  -3   1   5  521.40   14.49
  -3   3   8   86.44   10.39
  -1   1   9   70.64   16.49
  -1  15  -4    5.99   22.40
   0   0   9   -3.32   15.39
   2  14  -5  103.58   19.81
   3  -3   8   76.69   17.95
   3   1  -2  131.94    9.94
   6  10  -5   80.47   15.15
   7  -3   1  230.17   12.00
   7  11  -5    5.19   17.38
   8  -4   4   17.54   16.37
   8  -4   5  199.22   23.15
   9  -3   2  177.75   13.56
  -7  13   4   92.78   19.25
  -7  15   3  135.97   23.76
  -6   8   3   19.33   11.43
  -6  12   1  316.53   16.50
  -5   5   3   92.73   11.26
  -5   5   6  324.39   13.94
  -5   7   8   25.44   18.14
  -3   1   3  868.33   16.34
  -3   1   6   39.53    9.69
  -3   9  -2  670.90   28.66
  -2   0   7    1.13   10.18
  -2   2   9  124.07   17.42
  -1  -1   7  110.16   10.81
   0  -2   7  147.91   12.87
   1  -1   9   61.25   17.16
   2   4  -3 1411.41   21.97
   2  16  -5    9.55   21.96
   4  -4   7  381.08   28.27
   4   6  -4  272.59   13.43
   5  11  -5   24.63   15.93
   6   6  -4  231.05   13.69
   9  -1   0   19.82   11.67
  10  -2   2   91.35   14.51
  -7  13   3  175.07   19.29
  -6   8   7    0.71   14.63
  -5   5   7   41.70   12.98
  -5   7   1 1086.47   19.17
  -5   9   0  448.04   16.11
  -4   2   5  591.39   15.02
  -4   4   8   -1.72   15.08
  -4   6   0  453.38   15.63
  -2   4  -1 1924.36   45.27
  -1  -1   2  304.94   13.55
  -1  17  -4   18.81   24.90
   1   9  -4  178.56   14.47
   2  -4   5  739.34   24.74
   2   0  -1    4.84    7.75
   3   7  -4  181.77   12.17
   3  13  -5   57.21   15.61
   4  -2   0  375.71   13.59
   4  12  -5  208.30   16.36
   6  -2   0  566.99   14.83
   6  12  -5  159.97   19.25
   7   7  -4  156.44   14.71
   8   0  -1    4.89   10.64
   8   4  -3  313.16   11.10
   9  -3   3   52.19   16.61
   9   5  -3   36.24   12.71
   9   9  -4   63.26   18.95
  10   0   0  492.58   15.37
  10   6  -3   29.01   12.04
  11  -1   2   10.04   14.15
  11   1   0    3.02   13.73
  -7  11   5    5.15   14.32
  -7  15   2   -1.26   18.73
  -6  16   0  369.79   21.34
  -5  13  -1  167.58   14.83
  -4   2   4  213.58    9.09
  -4   2   6  130.02   11.81
  -3   1   7  195.52   10.37
  -3   3   9   18.91   12.89
  -2   0   2 3082.58   31.46
   0  -2   2 1465.18   31.98
   1  -3   7   64.02   12.82
   2  -4   4   41.07   14.74
   2  -2   9  126.98   18.90
   3  15  -5  145.46   18.88
   5  -3   1  166.26   11.53
   5  13  -5   66.25   16.64
   6  14  -5   91.20   21.37
   8   2  -2  313.25   10.90
   8   8  -4   94.60   12.95
   9   3  -2  237.35   13.80
  10   2  -1  268.05   15.68
  10   4  -2   15.37   14.90
  11   3  -1   64.98   12.79
  -7  11   3    2.51   14.77
  -7  13   2   96.99   16.06
  -6   6   4  229.05   14.33
  -6   6   5  102.61   13.44
  -6   6   6  113.98   13.30
  -6   8   2  315.02   13.92
  -6  10   1  151.30   13.09
  -6  14   0  161.05   17.63
  -5   5   8  135.57   15.91
  -4   2   3 1104.91   17.31
  -4   4   1 2367.85   26.32
  -2   0   8  311.12   15.75
  -1  -1   8   32.49   12.68
   0  -2   8  130.17   15.39
   2  -4   6   17.25   15.47
   2   2  -2 1094.18   19.83
   5  15  -5   62.52   20.27
   6  -4   3  671.50   22.14
   8  -2   1  314.34   13.37
   9  -3   4  150.22   19.28
   9  -3   6   62.34   23.27
  10  -2   3  185.79   16.92
  11  -1   3  117.80   18.19
  -7   9   4   93.33   16.28
  -7   9   5  188.82   18.22
  -7   9   6   48.12   17.59
  -5   3   5   97.86   11.89
  -4   2   7  246.58   10.95
  -3   1   2  119.83    9.66
  -3   1   8   15.73   12.86
   0  12  -4   11.63   14.90
   4   4  -3 1568.61   20.45
   6   0  -1    3.84    9.52
   6   8  -4  209.06   14.49
   7  -3   2  464.98   15.88
   7   5  -3   69.45   11.93
   7   9  -4  102.40   15.77
   8  10  -4   50.85   17.84
   9  -3   5   31.10   20.06
   9  -1   1  134.12   12.30
   9   7  -3  300.67   17.28
  10   8  -3   10.58   13.11
  11   1   1  143.11   17.44
  -7  11   2  448.05   17.33
  -6   6   3  127.63    9.25
  -6   6   7   34.23   11.55
  -6  12   0    5.18   15.39
  -5   3   4  277.00    9.75
  -5   3   6  134.81    9.35
  -4  12  -2   51.68   18.64
  -2   2   0 1658.29   31.45
   4   8  -4  405.44   14.98
   7  -1   0  175.10   11.36
   8   6  -3   52.77    9.51
  10  -2   4   89.65   17.06
  10  -2   5  132.31   23.99
  10   0   1    3.92   12.84
  -7   9   3  300.89   12.77
  -7  15   1  226.05   20.17
  -5   3   7   34.42    9.80
  -5  11  -1   37.97   14.84
  -4   2   8   57.85   10.40
  -2   0   9    6.25   15.47
  -1  -1   9   46.31   14.06
   1  -3   8  181.49   16.58
   2  -4   7  353.98   19.92
   3  -3   9   20.42   21.06
   4  -4   3 1524.73   39.66
   4   0  -1    5.10    5.95
   4   2  -2  352.50   12.24
   8  12  -4   17.49   18.67
  10   6  -2   70.53   15.03
  11   3   0   74.98   15.60
  11   5  -1   53.47   15.80
  -8  12   4    0.12   19.63
  -8  14   3   -3.15   22.98
  -7   7   4  165.41   13.49
  -7   7   5  395.85   17.89
  -7   7   6   54.62   16.25
  -6   4   5  407.37   14.69
  -6   4   6   15.40   12.22
  -6   8   1   17.53   11.48
  -5   3   3  131.17    8.21
  -5   3   8   57.91   14.32
  -4   2   2  321.36   12.02
  -3  -1   5  495.98   13.97
  -3   1   9   73.96   16.88
  -2  -2   5  684.63   16.28
  -2  -2   6  269.58   12.94
   0  -2   9   47.34   18.91
   1   1  -1   30.13    8.36
   1  11  -4  672.36   19.35
   2  10  -4  124.87   11.97
   3   5  -3  201.82   11.37
   5   5  -3   68.15   10.67
   5   9  -4  242.54   11.62
   6  10  -4  118.71   14.70
   7   1  -1  117.45    8.60
   7  11  -4  293.18   16.57
   8  -2   2  339.84   13.73
   8   0   0 1247.99   16.93
   8   4  -2   21.21   11.70
   9   1   0   16.35   12.23
   9   5  -2  325.13   12.41
   9   9  -3  283.34   18.08
  10   2   0   97.85   13.00
  10   4  -1  417.76   17.22
  -8  10   5   82.86   18.32
  -7   9   2  100.12   13.61
  -6   4   4   47.46   11.06
  -6   4   7  190.72   15.61
  -6   6   2  309.89   11.21
  -5   5   1   91.04   10.67
  -5   7   0  102.60   10.73
  -4   2   9   51.51   17.99
  -3  -1   6   34.85    8.17
  -1  -3   5  150.00   11.36
  -1  -3   6  419.70   15.12
   0  14  -4   92.53   17.05
   5  -1   0    9.93    8.70
   6  -4   4   32.53   14.79
   6   6  -3  123.77   11.90
   8   2  -1  319.15   11.06
   8   8  -3    9.76   13.53
   9   3  -1   61.86    9.56
  10   0   2  401.55   16.54
  11   1   2    0.26   14.01
  -8  10   4   70.37   16.99
  -8  12   3  169.23   15.20
  -7   7   3  687.65   17.33
  -7  11   1    6.61   12.36
  -4   0   5   -0.58    7.38
  -4   0   6  516.34   12.80
  -3  -1   4   53.51    7.32
  -3  -1   7  208.88   12.99
  -3   3   0  442.83   15.12
  -2  -2   4  560.12   12.86
  -2  -2   7  305.91   13.53
   4  -4   8    3.55   21.70
   4  10  -4   96.05   11.81
   5  11  -4  511.51   17.41
   6  12  -4    0.16   15.55
   7  -3   3  186.72   14.36
   7   7  -3  620.47   14.05
   7  13  -4   76.44   14.19
   9  -1   2   14.59   11.33
   9  11  -3   26.13   18.79
  10   8  -2  139.11   16.17
  11   7  -1  187.65   20.13
  -6   4   8   -1.03   12.79
  -5   1   5  318.18   13.40
  -5   1   6   13.89   12.58
  -5   3   2  417.81   13.22
  -4   0   4 1071.19   15.24
  -4   0   7   -4.17    8.45
  -3   5  -1  343.27   18.30
  -1  -3   4  849.59   17.90
  -1  -3   7   67.26   12.61
  -1   9  -3  937.21   30.19
   1  -3   9   10.38   16.79
   2  -4   8    5.55   16.65
   3  -1   0  206.84   11.81
   4   6  -3  184.29   11.97
   5  -3   2  407.29   15.56
   9   7  -2   75.36   13.72
  11   1   3  101.53   16.99
  11   3   1   58.91   14.71
  11   5   0  150.71   18.61
  -8   8   5   -0.86   17.84
  -8   8   6   68.07   15.18
  -8  10   3  109.06   17.45
  -8  12   2   16.86   15.05
  -7   5   4  309.84   14.22
  -7   5   5   48.92    9.95
  -7   5   7   11.86   16.56
  -6  16  -1   20.75   20.71
  -5   1   4   17.50    9.19
  -5   1   7  171.32   14.32
  -4   0   8  193.21   14.26
  -3  -1   8   13.80   10.44
  -2  -2   8   99.25   14.66
   0  -4   6   42.56   11.70
   1  13  -4  198.47   15.72
   2  12  -4    4.89   12.62
   4  12  -4   32.80   13.95
   5  13  -4  145.50   17.19
   6  -4   5  420.42   25.97
   6  14  -4   94.40   17.73
   7  -1   1  112.67   10.85
   8   6  -2  204.31   13.15
   8  10  -3  101.53   15.19
  10   2   1  262.34   15.01
  10   6  -1   30.44   14.91
  10  10  -2   38.58   18.44
  -8   8   4   94.20   13.14
  -7   7   2  191.83   13.71
  -7  15   0   10.01   17.68
  -6   2   5  274.35   12.79
  -6   2   6  181.30   14.17
  -6  14  -1  153.18   17.83
  -5   1   8    2.65   12.75
  -4   0   3    1.44    8.14
  -3  -1   3  875.62   14.80
  -3   1   1 1253.48   20.97
  -2  -2   3 1565.33   22.12
  -2   0   1    0.84    7.75
  -1  -3   8  201.80   14.86
   0  -4   5  900.51   20.61
   0  -4   7  422.06   19.74
   0   8  -3  159.78   14.93
   1   7  -3 1561.30   25.51
   4  -2   1 1689.25   27.00
   5   7  -3  789.52   16.52
   5  15  -4    1.10   17.47
   6  -4   6   15.81   24.17
   6   8  -3   11.21   11.96
   7   9  -3  324.74   14.86
   8  -2   3  241.44   14.12
   8   0   1    3.10   10.70
   9  -1   3  120.17   13.25
   9   1   1  145.37   13.26
  10   0   3    0.04   13.00
  10   4   0   24.99   13.13
  -7   9   1  422.34   15.38
  -7  13   0  107.66   19.31
  -6   2   7  104.44   11.17
  -6   6   1  144.64    9.06
  -5   9  -1  989.58   22.02
  -4   0   9    2.29   14.88
  -4   4   0   60.63    9.37
  -3  -1   9   94.77   17.37
  -2  -2   9  122.01   15.25
   1  15  -4    1.35   15.04
   1  17  -4   21.92   18.82
   2  -2   1 2747.66   52.74
   2  14  -4  198.57   16.16
   4  14  -4  171.44   16.44
   8   4  -1  439.05   14.46
   8  12  -3  166.74   15.00
   9   3   0  287.46   14.11
   9   9  -2   76.28   15.85
  11   3   2   64.27   17.04
  -8   6   5   37.13   16.02
  -8   6   6   67.45   14.13
  -8   8   3   34.86   10.41
  -8  10   2   81.08   16.52
  -7   5   3   73.30    9.08
  -6   2   4  305.44   10.50
  -6   2   8   25.89   16.44
  -6   4   2   63.05    8.23
  -6   8   0  303.58   13.32
  -4   2   1 2024.01   24.14
   2  16  -4  271.95   19.59
   2  18  -4   34.64   20.90
   3   7  -3 1077.78   19.04
   3  17  -4   10.32   19.38
   7  -3   4  316.28   15.92
   7   1   0  173.18    9.49
   7  11  -3    0.20   15.28
   8   2   0  401.33   11.05
  10   0   4  236.18   18.95
  10   8  -1   26.49   15.85
  11   5   1   22.58   16.55
  11   7   0   26.09   13.85
  -8   6   4  129.55   15.95
  -7   3   5   80.97   13.59
  -7   3   7   17.31   15.78
  -6  12  -1  307.03   18.41
  -1  -3   3  297.07   12.90
  -1  -3   9    7.14   16.65
   0  -4   4   87.91   11.01
   0  -4   8   17.29   16.17
   3  -3   2  368.12   20.51
   6  10  -3  109.76   13.62
   8  -2   4  227.33   16.86
   8   8  -2  156.32   13.08
   9  -1   4   15.66   14.15
  10   2   2   77.34   15.61
  -9   9   4   68.57   17.98
  -9  11   3    8.06   19.13
  -7   3   4  344.32   14.66
  -7  11   0  522.56   18.36
  -5   3   1  178.48   10.82
  -5  17  -2   14.95   28.71
  -4  -2   6  149.17   12.75
  -4   6  -1  218.09   15.22
  -2  12  -3  403.83   28.30
  -1  -1   1  299.42   14.20
   2  -4   9  131.93   20.83
   4   8  -3   -0.97    8.17
   7   7  -2  238.67   13.36
   7  13  -3  183.90   16.00
   9   7  -1  470.67   16.37
  10   0   5    0.09   17.91
  10   4   1  360.20   16.54
  10   6   0   82.26   14.52
  10  10  -1    7.36   16.61
  11   3   3   40.35   18.31
  -8   4   6    3.32   16.34
  -8   8   2  164.13   14.61
  -7   5   2  510.49   14.98
  -7   7   1  809.49   17.94
  -5  -1   5  314.52   13.08
  -5  -1   6   15.64    9.08
  -5   5   0 1116.90   19.71
  -5  15  -2   -2.05   21.50
  -4  -2   5  644.67   15.33
  -4  -2   7  266.16   11.66
  -4  10  -2  125.66   18.81
  -3  -3   5  201.86   11.46
  -3  -3   6  165.14    9.99
  -3  -3   7   97.28   13.85
   3  -5   6  344.14   28.01
   4   2  -1 1771.38   22.30
   7  -3   5  105.55   15.90
   7  -1   2  154.11   10.78
   7  15  -3  158.08   15.75
   8   0   2 1117.11   18.89
   9   1   2   18.86    9.08
  -8  10   1  127.22   14.00
  -6   0   5   12.02   10.37
  -6   0   7   -1.36   12.98
  -5  -1   8    4.47   14.07
  -4   0   2 1771.64   20.55
  -3  -3   8   68.08   14.86
  -3  -1   2  118.91    7.79
  -2  -4   6   28.86   11.09
   0  -4   9  124.47   18.93
   1  -5   6  470.51   18.01
   1  -5   7   43.48   14.28
   5  -1   1  802.78   17.06
   6  12  -3  226.90   12.66
   7  -3   7   33.34   24.76
   8  -2   5  111.10   18.09
   9  -1   6    8.31   21.67
   9   5   0  403.33   14.76
  -9   7   4   24.00   17.64
  -9  11   2  273.99   20.54
  -8   4   4    8.19   14.15
  -7   1   6   55.81   13.19
  -7   3   3  195.78    9.95
  -6   4   1  946.51   17.55
  -5  -1   4   13.23    9.42
  -5   1   2   21.76    6.77
  -2  -4   5  712.67   16.70
   3  -5   7   65.63   20.10
   3   9  -3  707.83   16.80
   4  10  -3   17.70   11.48
   5  -3   3  132.00   13.23
   5  11  -3   31.67   12.60
   6  14  -3  121.23   15.53
   6  16  -3   -2.16   20.24
   7  -3   6  192.16   20.57
   7   9  -2  101.77   13.33
   8  -2   6  124.83   21.56
   8  -2   7   44.55   24.17
   8   4   0   29.29   11.73
   8  12  -2   18.76   16.13
   9   9  -1  341.31   15.37
  10   2   3  168.08   12.79
  10   8   0  149.36   15.60
  -7   1   5   66.28   12.32
  -7   1   7   21.30   12.94
  -6   0   4 1076.58   16.90
  -6   2   2  485.83   13.34
  -6  10  -1  159.75   16.48
  -4  -2   9   93.15   18.83
  -3  -3   4  303.84   12.16
  -3  -3   9   27.59   15.04
  -2  -4   8    6.92   14.81
   1  -5   5   97.58   14.33
   1  -5   8  208.66   20.69
   1   9  -3  959.82   20.48
   5   1   0    9.86    8.50
   5  13  -3  164.53   14.96
   6   0   1    5.46    9.41
   7   1   1  115.63   11.13
   8  14  -2   59.31   20.14
  10   4   2    7.43   14.62
  10   6   1   35.29   15.97
  -9   5   5   16.02   17.82
  -9   7   3  328.19   17.21
  -8   2   6  122.36   15.11
  -8   2   7   51.07   17.46
  -8   6   2  187.97   13.92
  -8  14   0   73.66   18.14
  -6   6   0  383.55   13.70
  -5  13  -2  206.29   25.47
  -1  11  -3    4.12   15.04
   0  10  -3  272.14   16.88
   2   2  -1 3062.89   34.97
   5  15  -3  113.66   19.48
   5  17  -3   26.14   21.22
   6   8  -2  259.51   10.79
   7   3   0  510.69   12.05
   7  11  -2  466.05   17.32
   8   8  -1   29.01   11.89
   9   1   3  105.97   10.29
   9   7   0   99.40   13.96
   9  11  -1   -1.21   14.42
  10   2   4   73.98   16.36
  10  10   0   16.13   17.92
  11   5   3    6.48   16.49
  -9   5   4  258.69   17.63
  -9   9   2   72.10   13.07
  -9  13   1  100.78   20.79
  -8   2   5  170.12   15.31
  -8   4   3  317.00   12.31
  -8   8   1   22.16   12.87
  -7   1   4   99.25    9.34
  -7  15  -1  192.74   22.50
  -5  -1   3  550.83   13.15
  -2  -4   4   33.34    8.61
  -2  -4   9  153.56   18.51
  -1  -5   7   53.97   13.08
   3  11  -3   98.39   12.23
   4  -4   4   32.19   14.93
   4   6  -2  400.31   11.35
   4  12  -3  324.23   14.46
   5   7  -2   94.86    9.03
   8   0   3    3.89   11.36
  -8  12   0   18.40   16.32
  -7   3   2  463.24   12.10
  -7   5   1  102.05    9.30
  -6   0   3   -3.13    9.24
  -4  -2   3 1096.90   15.95
  -2  14  -3  187.88   23.47
  -1  -5   8  215.10   18.25
   2   0   0 3552.06   43.49
   3  -5   8  143.92   27.19
   4  14  -3  274.42   17.64
   4  16  -3    9.02   16.69
   4  18  -3  185.92   21.68
   6  -2   3  484.16   15.51
   7  -1   3   95.33   10.80
   7  13  -2  108.52   15.44
   7  15  -2   16.15   18.77
   9   3   2  225.74   13.41
   9   5   1   35.66   11.96
  10   2   5   33.23   19.68
  10   8   1    2.41   16.90
  -9   3   6   71.97   14.57
  -8   2   4  239.36   13.96
  -7  13  -1  207.18   20.02
  -6  -2   6  198.43   14.22
  -6  -2   7  154.78   16.40
  -5  -3   7   47.19   13.91
  -3  -3   3  436.28   13.05
  -2  16  -3    9.11   22.38
  -1  -5   5   96.71   10.72
   0  -4   3 1792.05   30.85
   1  -5   9   17.36   22.86
   1  11  -3    2.13   11.87
   3  13  -3  118.76   13.19
   6  10  -2  154.22   10.72
   8   6   0  246.14   12.35
   8  10  -1  123.76   11.00
   9   1   4   18.91   13.65
   9   9   0   92.78   14.74
  10   4   3  304.38   16.73
  10   6   2   67.68   15.25
 -10   8   3   -9.85   18.72
  -9   3   5   34.68   12.16
  -9   5   3   41.38   15.06
  -9   7   2   47.64   15.62
  -8   4   2   22.08   11.01
  -7  -1   6   53.11   15.34
  -7  -1   7   30.77   12.73
  -7   1   3   94.95    8.25
  -7   7   0  243.82   13.06
  -6  -2   5  283.74   13.82
  -6  -2   8   59.13   12.36
  -5  -3   5   84.31   10.82
  -5  -3   8   63.46   12.76
  -4  -4   6   14.64   11.93
  -4  -4   8    2.44   16.71
  -1  -5   9   14.49   21.72
  -1  19  -3   15.80   23.17
   3   3  -1  918.05   17.93
   6  12  -2    3.47   13.59
   8   4   1  440.06   14.51
   8  12  -1  243.97   17.42
  10  10   1   10.59   17.75
 -10   6   4   22.29   14.24
 -10  10   2   46.56   17.96
  -9   3   4  139.51   16.31
  -8   0   6  472.71   18.95
  -8   0   7   -3.69   19.06
  -8   6   1   66.75   12.19
  -8  10   0  129.22   14.44
  -7  -1   5   62.28   12.09
  -5   1   1  807.96   14.68
  -5   3   0  467.72   14.13
  -4  -4   5  904.02   17.40
  -4   0   1   -0.43    8.69
  -4   2   0  370.19   13.44
  -3  -5   7   57.57   14.89
  -1  -3   2 1483.00   26.19
   0  12  -3  538.13   20.22
   1  19  -3   18.42   21.30
   2   6  -2  926.26   18.73
   2  18  -3  272.51   22.10
   4  -2   2  313.98   14.24
   7   5   0  629.47   14.78
   7   9  -1  466.18   15.28
   8   0   4  734.76   19.14
   8  14  -1   56.80   19.37
   9   1   5   82.94   18.26
   9   7   1  417.46   17.39
   9  11   0  326.61   17.86
  -9   9   1  339.69   17.77
  -8   0   5   -1.46   13.11
  -8   2   3  239.77   11.31
  -7  11  -1    4.65   16.77
  -6  -2   4  327.52   12.94
  -6   2   1  695.03   15.48
  -3  -5   6  361.08   15.23
  -3   1   0  209.45   11.82
  -1  17  -3   60.35   21.22
   0  18  -3  240.69   23.97
   1  13  -3  359.19   16.81
   2  16  -3    7.26   15.47
   4   4  -1 2339.40   23.76
   4   8  -2  632.50   13.68
   6  16  -2  247.95   16.22
   7   1   2  137.22   10.90
   7   3   1  258.52   12.85
   9   3   3   44.98   12.84
   9   5   2  361.57   15.56
   9  13   0   72.44   20.39
  10   4   4    8.72   15.46
  10   8   2  153.60   18.39
 -10   6   3   33.68   16.11
  -9   1   6   13.69   17.36
  -7  -1   4  103.14   11.90
  -6   4   0   90.99   10.40
  -5  -3   4  288.72   10.44
  -5  -1   2   16.32    6.14
  -5  11  -2  820.35   31.66
  -3  -5   5  125.87   11.62
  -2  -4   3 1333.25   21.14
  -1  -5   4  998.31   20.29
   0  -6   7   58.47   12.86
   0  14  -3  196.43   17.27
   0  16  -3   43.09   19.12
   1  -5   4 1033.38   28.22
   1  15  -3  239.15   16.80
   1  17  -3   59.31   18.06
   3  -1   1 1344.32   25.88
   5  -1   2   20.82    9.07
   5  11  -2  753.00   15.00
   6   0   2 1771.94   22.61
   7  -1   4  102.31   12.88
   7  11  -1   18.09   13.86
   9   1   6   11.00   18.10
  10   6   3   30.87   14.86
 -10   4   4   10.07   18.61
  -9   1   5   81.76   16.57
  -9   3   3   40.99   15.21
  -9   5   2  374.32   13.24
  -9  13   0  101.43   23.23
  -7   3   1  242.71   10.52
  -4  -4   4   38.55   10.81
  -4  -2   2  344.03   12.12
  -3  -5   9   28.68   19.47
   0  -6   6  151.25   14.53
   0  -6   8   73.64   16.52
   0   6  -2  320.16   16.24
   3  -5   9   22.86   31.44
   3   1   0  196.64   10.33
   5  -3   4  270.83   16.75
   5   3   0  490.81   13.65
   5  13  -2  214.33   15.84
   5  17  -2   46.49   20.00
   6  -2   4  314.24   16.33
   6   2   1  714.42   15.48
   6   8  -1    4.95    7.29
   7  13  -1  234.06   17.58
   8   0   5    8.97   16.26
   8  10   0  130.73   13.68
   9   9   1  337.00   16.71
  10  10   2   20.58   19.47
  -9   7   1  421.35   17.95
  -7  -3   7   51.05   15.20
  -6  -4   7  207.89   16.32
  -2  -6   6  258.53   13.99
  -2  -6   7   71.58   14.07
  -2  -6   8  104.15   16.25
   4   2   0  406.90   13.40
   4  10  -2  117.19   11.76
   5   1   1  838.81   16.83
   5  15  -2   -7.39   11.83
   7   7   0  267.37   13.09
   7  15  -1  227.02   16.31
   8   2   3  259.16   12.75
   8   6   1   63.59    9.66
   9   3   4  158.94   15.64
 -10   2   5  142.11   19.96
  -9   1   4   12.19   10.98
  -9  11   0  276.82   18.39
  -8  -2   6  132.91   15.33
  -8  -2   7   78.05   19.60
  -8   2   2  357.61   11.66
  -8   4   1  475.09   15.45
  -7   5   0  601.84   15.55
  -7   9  -1  438.76   19.00
  -6  -4   6   25.38   12.95
  -6  -4   8    2.23   17.53
  -6  -2   3  508.91   11.46
  -5  -5   7   17.95   16.43
  -5  -3   3  154.74   10.22
  -5   5  -1   90.31   13.24
   0  -6   9   31.44   21.33
   4   0   1    3.34    6.44
   6  10  -1  170.15   13.27
   8   0   6  430.08   22.46
   8   4   2   18.35    9.08
   8  12   0   13.42   11.59
   8  14   0   88.24   19.16
   9   5   3   33.08   12.97
   9   7   2   73.91   13.64
   9  11   1   -7.47   12.40
  10   6   4   20.33   13.86
  10   8   3    5.57   12.52
 -10   4   3  261.25   15.01
 -10   6   2   51.70   17.49
  -9  -1   6   13.25   15.95
  -8   0   3   -8.74   12.21
  -8  14  -1   60.97   22.01
  -6  -4   5  403.20   15.58
  -5  -5   6  309.29   15.58
  -5  -5   8  141.64   20.28
  -2  -6   9   42.08   20.33
   0  -6   5  119.65   14.75
   2  -6   7   70.31   20.39
   3   9  -2  671.77   14.45
   4  12  -2   55.76    9.37
   4  16  -2  401.11   20.02
   4  18  -2  130.39   16.48
   7  -1   5   63.90   13.51
   8   0   7    7.90   20.57
   9  13   1   83.43   14.85
 -10   2   4   85.14   17.79
  -9   3   2  248.82   14.85
  -8  -2   5  150.27   11.05
  -6   6  -1  163.88   13.64
  -5  -5   5   59.98   11.55
  -4  -6   7   68.70   16.51
  -4  -6   8   63.29   17.75
  -3   3  -1  939.29   24.72
  -2  -6   5  140.37   11.37
   2  -6   8   95.93   24.11
   2   8  -2  552.61   14.90
   3  19  -2  125.24   21.56
   4  14  -2  232.70   12.62
   6  12  -1  314.12   12.87
   6  14  -1  158.10   17.30
   6  16  -1    2.66   18.46
   7   1   3   99.09    8.91
   7   5   1   84.03    8.42
   7   9   0  128.64    9.83
   8   8   1   19.91    9.40
   9   3   5   27.97   14.71
   9   9   2   96.65   16.14
 -10   8   1    9.68   16.67
  -9  -1   5  100.41   12.40
  -9   5   1   35.77   13.87
  -9   9   0  102.63   16.32
  -8   6   0  244.11   14.12
  -8  12  -1  215.35   19.55
  -7  -3   4  319.45   13.35
  -4   8  -2  603.19   28.54
  -2  -2   1 3031.98   33.99
   0  -2   1  464.17   25.24
   7   3   2  462.17   12.23
   7  11   0  559.32   16.37
   8   2   4  215.45   13.99
   9   3   6   90.83   21.44
 -10   0   5    6.21   18.45
 -10   4   2    1.42   14.04
  -8  -2   4  234.50   11.09
  -7   1   1  134.29   12.20
  -6  -4   4   30.66   11.92
  -6   0   1   -1.35    6.97
  -6  14  -2  116.44   28.06
  -5  -1   1  825.34   15.97
   2  -6   6  264.90   24.34
   2   4  -1 2157.82   28.51
   3  13  -2  154.96   14.03
   3  17  -2   30.42   16.60
   6  -2   5  293.34   15.88
   6   0   3    8.52    9.66
   7  -1   6   68.63   15.62
   7  13   0  156.21   16.35
   7  15   0    6.27   19.34
   8   4   3  367.42   15.03
   8   6   2  193.65   10.93
   8  10   1  129.96   11.12
   9   5   4  261.81   17.14
   9   7   3  344.22   13.37
   9  11   2  238.36   14.89
  -9  -1   4    4.69   10.39
  -8   0   2 1223.91   19.52
  -8   2   1  320.89   14.33
  -8  10  -1  170.72   18.60
  -7  -1   2  161.22    9.10
  -6  -2   2  507.78   13.46
  -6   2   0  583.92   15.47
  -5  -5   4  596.90   15.29
  -5   1   0    6.70    9.25
  -4  -6   5  110.74   12.20
  -1  -7   7  409.48   18.69
  -1  -7   8   37.28   16.74
  -1  -5   3  157.42   12.84
   2  10  -2  189.48   12.40
   3  15  -2   11.88   10.57
   5  11  -1   32.84   12.18
   5  17  -1   63.91   18.93
   6   4   1  983.21   15.58
   7  -1   7   33.79   19.83
   7   7   1  815.42   16.77
   8  12   1  204.91   12.18
   8  14   1   45.06   19.12
 -10   6   1   54.61   16.54
  -9   7   0   74.13   14.04
  -8  -4   6   15.23   16.84
  -7  -5   6  187.77   17.14
  -7  -5   7    9.24   14.15
  -7   3   0  588.53   15.83
  -6  12  -2    9.39   22.21
  -5   9  -2  406.78   24.04
  -3  -7   7  271.06   16.80
  -3  -7   8   45.57   16.92
  -3  -5   3  225.63   11.69
  -2  -6   4  528.46   15.31
  -1  -7   6  113.10   14.64
   2  -6   9   24.48   29.47
   4   8  -1    0.97   10.07
   5  -3   5   82.49   14.99
   5  13  -1  172.00   15.11
   5  15  -1  160.88   16.87
   6   2   2  468.30   14.49
   7   1   4  110.35   12.30
   8   2   5  143.43   15.00
   8   8   2  155.63   14.43
   9   5   5   13.81   17.37
   9   9   3  245.68   17.31
 -11   3   3   46.59   18.78
 -11   5   2  120.81   17.86
  -9  -3   6  103.17   14.45
  -9   1   2   29.31    9.58
  -9   3   1   63.42   14.00
  -8  -4   5  225.08   15.17
  -7  -3   3  200.86   12.40
  -6  -6   6  113.56   15.06
  -6  -6   7   52.21   13.18
  -4  -2   1 2016.05   23.71
  -4   0   0 2246.34   26.93
  -3  -7   6   76.71   10.44
  -2  -4   2   85.95   11.03
  -1   7  -2  417.35   22.05
   1  19  -2   84.50   21.14
   2  12  -2    9.71   11.11
   4  -4   5  823.10   31.34
   4   4   0   60.50    9.98
   5  -1   3  577.42   16.33
   6  -2   6  170.39   18.16
   6  10   0  185.80   13.88
   9   7   4   40.14   15.15
   9  11   3    9.95   19.37
 -10  10   0   21.82   19.59
  -9  -3   5   24.44   16.13
  -9  -1   3  124.07   10.90
  -8   4   0   31.15    8.76
  -7  -5   5   53.16   14.11
  -6  -4   3  643.50   13.07
  -5  -7   7  225.32   17.87
  -5  -7   8    6.68   18.61
  -4  -6   4  272.15   13.37
   0  20  -2   98.24   22.49
   5   3   1  192.18   11.21
   6  12   0    2.73   13.75
   7   3   3  202.85   12.80
   7   5   2  480.27   12.08
   7   9   1  395.57   12.05
   8   2   6  128.97   17.15
   8   4   4   22.91   14.32
   8   6   3   58.40   13.53
   8  10   2   97.82   15.94
 -10   0   3   -3.66   15.81
  -8   8  -1   25.63   14.21
  -6  -6   5   91.21   13.24
  -5  -7   6   45.53   14.17
  -4  -4   2   64.14    9.89
  -1  -7   5  899.08   21.51
   0  -6   4  261.05   14.48
   0   8  -2  575.71   19.12
   1  -7   7  430.98   26.14
   1  17  -2   42.83   16.98
   3   7  -1 1698.84   21.86
   4  -2   3 1158.00   25.94
   4  10  -1   17.57    9.06
   4  16  -1   30.09   16.30
   5   1   2   10.96    9.18
   6  -2   7  137.98   20.73
   6  -2   8   29.12   23.15
   6  14   0  155.99   13.42
   7  11   1    3.03   13.27
   8   2   7   24.47   19.52
   8  12   2    6.39   17.58
   9   9   4    8.76   16.67
 -11   7   1  157.65   16.57
 -10   4   1  402.98   15.47
 -10   8   0  174.35   18.89
  -9  -3   4  138.63   15.45
  -9   5   0  428.27   16.60
  -9  13  -1   65.33   21.44
  -8  -4   4   24.88    9.94
  -7  -5   4  311.27   15.40
  -6   4  -1  978.43   19.70
  -5  -5   3   72.94    8.53
  -5   3  -1  184.33   12.52
   1  -7   8   47.17   20.47
   3   3   0  445.50   14.30
   4  12  -1  456.16   15.14
   4  14  -1  375.25   17.48
   6   0   4 1083.29   21.45
   7   1   5   68.21   13.95
   7  13   1  244.87   13.91
   8   8   3   12.38   15.18
 -11   1   3  114.90   19.46
 -11   3   2   73.37   18.28
 -10  -2   4   92.30   16.56
  -9  11  -1    2.68   18.35
  -8  -2   2  369.97   14.56
  -8   0   1    0.01   11.24
  -7   5  -1   97.75   11.39
  -6  10  -2  142.30   20.71
  -5  -7   5  463.98   16.31
  -2  -8   7    3.66   16.11
  -2  -8   8   88.42   17.99
  -1  19  -2  106.61   21.42
   0  18  -2  128.08   19.77
   1  15  -2    4.54   14.74
   3  -3   3  439.25   23.26
   3  19  -1    6.11   15.68
   4   2   1 1843.16   24.35
   5  -3   6  154.32   19.68
   7   7   2  183.22   13.36
   8   4   5  224.02   16.43
 -11   5   1   33.74   17.11
  -9  -1   2   23.33   13.54
  -9   1   1  160.81   13.93
  -8  -6   6   77.38   18.85
  -7  -7   7  166.45   19.48
  -7   1   0  163.62   12.44
  -6  -6   4  230.70   10.99
  -6  -2   1  696.51   13.30
  -4  -8   7    2.70   11.43
  -4  -8   8  116.35   18.38
  -3  -3   1  973.49   18.69
  -2  -8   6  221.33   18.50
   1  -7   9  122.40   28.74
   2  20  -1  263.56   24.00
   3   9  -1  915.68   18.17
   3  17  -1   48.18   18.19
   5  17   0   49.86   14.15
   6   4   2   62.06   10.70
   8   6   4  118.29   10.95
   8  10   3  131.52   17.25
 -10   0   2  495.92   18.84
 -10   6   0   74.37   16.49
  -9  -5   5   20.40   15.35
  -9  -3   3   48.07   14.14
  -8  -4   3  376.78   14.78
  -8   2   0  463.40   15.79
  -7  -7   6   78.34   16.72
  -6  -4   2   71.85   10.45
  -6   0   0 2360.21   24.99
  -4  -8   6  255.22   17.38
  -4  -6   3  175.63   12.30
  -4   2  -1 1908.55   28.98
  -3  -7   4  187.79   12.08
  -3  -1   0  224.68   12.71
  -3  19  -2  112.25   26.80
  -2  -6   3  208.26   11.91
   0  10  -2  434.80   17.59
   0  16  -2  556.24   21.30
   1  -7   6  123.82   16.99
   2   2   0 1665.52   28.33
   4   0   2 1812.64   26.21
   5  11   0  860.70   15.51
   5  13   0  261.49   16.34
   5  15   0   -3.00   12.18
   6   2   3  475.94   12.91
   6  16   1   33.05   19.40
   7   1   6   61.92   15.17
   7   3   4  337.34   14.05
   7   5   3   59.55    8.87
   7   9   2  132.79   12.85
   8   4   6    0.59   17.16
   8  12   3  183.95   15.38
 -10  -2   3  207.57   13.57
 -10   2   1  266.04   12.59
  -9   3   0  265.73   15.01
  -8  -6   5   30.95   12.04
  -7  -5   3   67.73   12.64
  -6  -8   7   -2.01   20.09
  -5  -7   4   63.56   12.20
  -3  -5   2  981.11   18.04
  -2  18  -2   99.03   24.34
  -1  17  -2   65.61   21.08
   3  11  -1  115.91   13.59
   3  13  -1  148.84   14.20
   3  15  -1  380.99   16.66
   5  -3   7   42.24   20.04
   5  -3   8   75.66   25.44
   6  10   1  126.84    9.66
   6  12   1  299.98   15.87
   6  14   1  186.08   17.26
   7   1   7   46.33   18.93
   7  11   2  514.67   17.44
   7  13   2  130.39   16.41
   7  15   2    2.41   13.48
   8   6   5   20.38   18.34
   8   8   4  121.52   14.91
 -11  -1   3  122.10   20.23
 -11   1   2   12.51   13.79
  -7  -7   5  415.27   17.97
  -5  -5   2  909.36   16.43
  -5  -1   0   17.98    9.12
  -4  -8   5    1.85   12.07
  -4  18  -2  134.76   30.26
  -2  -8   5    6.93   12.96
  -1  -7   4  246.81   14.61
   0  -8   7   35.32   17.79
   0  -8   8  107.84   21.81
   0  12  -2   11.52   11.92
   3   1   1 1284.94   23.71
   4  18   0  173.20   18.49
   5  -1   4   22.12   10.39
   6   0   5    1.24   14.55
   7   7   3  611.80   17.75
   8  10   4   71.89   19.46
 -11   3   1   42.66   19.48
 -11   7   0   22.53   18.09
 -10  -4   4    9.19   12.74
 -10   4   0   18.21   15.93
  -9  -5   4  248.41   14.20
  -9   7  -1  427.29   19.62
  -8  -6   4  162.57   15.78
  -7  13  -2  103.71   30.29
  -6  -6   3  117.26    9.37
  -6   8  -2  271.16   21.86
  -5   7  -2  103.62   16.00
  -3  -9   7  191.89   17.01
  -3  -9   8  100.14   17.96
  -1  -3   1  502.33   18.24
  -1   9  -2  269.45   18.40
   6   6   2  309.28   11.07
   7   3   5  110.46   14.24
   8   6   6   67.97   20.21
   8   8   5   12.09   17.93
   8  12   4    2.70   15.84
  -9  -3   2  207.14   15.42
  -9  -1   1  165.34   14.98
  -8  -4   2   29.93   11.51
  -8  -2   1  383.89   15.29
  -7  -7   4  143.58   14.14
  -7   3  -1  244.52   13.31
  -6  -8   5   13.89   13.53
  -6   2  -1  714.24   16.93
  -5  -9   7  164.44   21.00
  -5  17  -2   35.16   34.93
  -1  15  -2   -0.43   14.92
   1  19  -1    4.50   19.41
   2   8  -1    3.16   10.03
   2  16  -1   19.24   16.90
   3  -1   2  110.61   12.86
   3   5   0 1007.21   18.87
   4  -4   6   13.18   17.31
   5   3   2  399.80   11.76
   5  17   1   68.12   20.41
   7   5   4  314.31   15.16
   7  15   3  159.79   20.89
   8  10   5   34.78   20.95
 -10   0   1   13.14   15.64
 -10  10  -1   11.48   19.68
  -8  -8   6   25.10   18.38
  -8   0   0 1317.68   20.00
  -8   4  -1  488.25   16.92
  -7  -3   1  254.74   10.27
  -5  -9   6  152.68   18.49
  -4  -8   4  397.18   14.73
  -3  -9   6  233.86   16.69
  -3  17  -2   28.32   22.80
  -2  16  -2  587.14   27.74
   0  -8   6  224.76   19.05
   3  19   0  152.20   16.70
   4   4   1 2378.80   26.17
   4  12   0   44.99   13.52
   4  14   0  276.70   13.63
   5   1   3  556.15   15.43
   6   2   4  305.90   14.12
   6   4   3  691.68   16.50
   6   8   2  293.30   14.53
   6  16   2  298.14   20.05
   7   3   6  156.69   16.47
   7  11   3    0.72   15.25
   7  13   3  182.11   17.85
   8   8   6   41.76   21.74
 -11  -3   3   31.94   17.89
 -11  -1   2   -6.93   14.62
 -11   1   1  147.41   16.92
 -11   5   0  156.53   20.57
 -10  -4   3  273.21   14.76
 -10   8  -1   13.00   21.78
  -9  -7   5  216.72   20.49
  -9  -5   3   30.44   11.36
  -9   1   0   26.69   13.89
  -8  -6   3   38.07   12.83
  -7  -5   2  486.77   12.37
  -7  -1   0  189.40   13.56
  -7   9  -2  108.46   19.09
  -5  -7   3  790.00   14.85
  -4  -2   0  415.53   14.37
  -4   6  -2  434.87   26.59
  -3  -7   3 1129.42   19.67
  -1  -5   2 1944.11   29.98
  -1  11  -2  857.17   23.89
   1  -5   3  165.79   20.41
   2  10  -1  225.71   13.64
   2  12  -1  538.27   17.46
   2  14  -1  275.92   13.19
   5  11   1   42.71   12.97
   5  13   1  193.85   15.43
   5  15   1  168.50   14.40
   6   0   6  569.00   19.92
   6  10   2  159.24   14.48
   6  12   2    7.31   14.00
   6  14   2  132.68   15.63
   7   7   4  140.72   15.55
 -10   2   0  130.91   16.99
  -8  -8   5   21.66   17.77
  -7  -9   6   33.50   19.96
  -6  -8   4  215.77   11.92
  -6  -4   1  963.60   15.41
  -5  -9   5  450.70   18.67
  -4  -6   2  414.80   13.86
  -3  -9   5  415.42   15.73
  -2  -8   4  355.76   14.11
  -2   8  -2  521.86   28.87
  -1  -9   7  292.00   20.18
  -1  -9   8   42.05   19.95
   2  20   0   70.68   20.99
   3  17   0   42.23   15.95
   4  18   1  320.09   22.43
   6   0   7   -4.73   18.38
   6   0   8  230.69   23.26
   7   3   7   33.23   16.38
   7   5   5   16.00   16.27
 -10  -6   4   53.96   19.85
  -9  -7   4   32.62   16.01
  -7  -7   3  723.55   17.83
  -6  -6   2  338.26   13.32
  -6  -2   0  558.65   13.37
  -4 -10   7   15.89   18.12
  -3   1  -1 1398.96   28.05
  -2  -4   1 2237.32   29.66
  -2  14  -2  297.83   22.37
   0   4  -1 3293.33   52.11
   1  -7   5  876.79   30.68
   2   0   1    0.81    8.83
   4  -4   7  391.75   29.29
   4  -2   4  241.59   16.48
   5  -1   5  349.14   18.15
   5   5   2  960.57   18.26
   6   6   3  126.11   12.60
   6  16   3   20.19   20.48
   7   9   4   72.60   13.11
   7  11   4  342.00   20.09
   7  13   4   74.59   18.67
 -11   3   0   62.05   19.41
 -10   6  -1   51.76   17.92
  -9  -3   1   47.68   13.11
  -8   2  -1  355.17   14.91
  -7  -9   5  210.60   17.71
  -6   6  -2  336.62   19.95
  -4 -10   6   56.85   14.76
  -4  16  -2  459.33   33.69
  -1  -9   6  106.90   14.51
   0  -6   3  154.99   13.47
   0  18  -1  411.57   22.16
   3  15   0    2.01   10.95
   4  -4   8    5.29   23.05
   4  16   1   40.61   18.06
   5  17   2   46.27   15.12
   6   2   5  302.33   15.77
   7   5   6  189.47   18.01
   7   7   5  433.54   18.61
 -11  -3   2   43.54   19.75
 -11  -1   1  147.91   18.05
 -10  -4   2   10.55   11.51
 -10  -2   1  279.18   14.16
  -9  -5   2  403.81   13.34
  -9   3  -1   63.53   14.64
  -8  -8   4  123.29   13.04
  -8  10  -2   87.62   21.75
  -8  12  -2   13.50   26.74
  -7   1  -1  132.48   12.95
  -7   7  -2  203.28   16.69
  -6 -10   6   67.06   20.01
  -4  -8   3   -6.46   11.88
  -3  15  -2    2.54   19.51
  -2  -6   2  934.24   19.35
  -1  19  -1   29.85   21.43
   0  -8   5   79.81   15.36
   2   4   0  102.00   10.46
   2  18   0  115.44   19.29
   3   9   0  812.21   17.98
   3  19   1    9.70   20.55
   4   2   2  333.59   11.90
   5  15   2   -1.26   17.25
   6   4   4   28.64    9.11
   6   8   3    6.10   13.29
   6  12   3  271.90   17.86
   6  14   3  119.76   13.25
   7   5   7   24.43   19.53
   7   9   5  234.25   19.97
   7  11   5    3.26   21.91
 -10  -6   3   40.74   17.84
 -10   0   0  543.66   18.85
  -9  -7   3  307.11   17.41
  -9  -1   0   23.07   10.64
  -8  -6   2  181.41   11.03
  -6  -8   3   21.61    9.33
  -5  -7   2   95.69   12.29
  -5  -3   0  500.47   14.96
  -2 -10   7   78.20   19.27
  -2 -10   8   31.65   21.10
  -2  -2   0 1633.67   27.99
  -2  12  -2    4.50   16.56
  -2  20  -1  255.91   26.59
   3  11   0 1670.07   21.73
   4   0   3    4.64    9.84
   5   1   4   22.17   10.37
   5   3   3  143.35   12.65
   6  10   3  127.98   11.75
   7   7   6   75.89   20.58
 -11   1   0   17.57   17.59
 -11   7  -1  187.42   24.07
  -8   8  -2  132.46   18.11
  -7  -9   4   78.89   12.15
  -7  -5   1  102.23    9.07
  -7  -3   0  540.27   15.81
  -6   0  -1    5.64    7.96
  -4 -10   5   28.58   13.78
  -4   0  -1   -1.71    9.59
  -3  -9   4  459.68   13.43
  -3  -5   1  317.83   11.45
  -1  -7   3 1614.79   26.36
   1  11  -1    1.16   11.60
   1  19   0  127.08   21.03
   2  16   0  714.96   21.07
   3   3   1  915.44   19.52
   5  -1   6   13.91   15.91
   5  11   2  806.60   18.29
   5  13   2  212.72   12.45
   5  17   3   39.52   20.35
   6   2   6  186.50   15.85
   6   6   4  221.99   15.44
   7   9   6   37.15   19.32
  -8  -8   3   19.32   11.01
  -7  -7   2  221.60   11.19
  -5 -11   7   11.18   20.46
  -3  -3   0  426.56   14.56
  -2 -10   6   76.68   16.23
  -1  -9   5  547.68   19.25
   2  -2   2 1146.49   37.81
   2  20   1  273.53   18.86
   3  17   1   66.95   18.11
   6   2   7  136.25   17.98
   6   2   8   79.61   20.94
   6  14   4   73.04   14.97
 -11   5  -1   -3.69   20.58
  -9  -9   4   33.92   20.61
  -9   1  -1  156.72   15.24
  -8 -10   5   63.28   15.28
  -8   0  -1   -9.08   12.13
  -8   6  -2  179.44   19.03
  -8  14  -2   67.01   52.49
  -7   5  -2  521.71   19.69
  -6  -6   1  155.36   11.93
  -5 -11   6  279.05   21.97
  -5  -9   3  714.07   17.11
  -3  13  -2  162.21   22.90
  -2  -8   3    1.49   10.29
   0  20   0  188.18   21.57
   3  -5   6  322.61   30.26
   5  -1   7  155.31   20.10
   5  -1   8   12.06   21.80
   5   5   3   87.06   12.72
   6   8   4  180.83   13.16
   6  10   4  122.22   17.56
   6  12   4   10.35   12.49
 -10  -2   0  121.25   15.52
 -10   2  -1  252.62   19.86
  -9  -7   2   66.19   15.45
  -9  -5   1   21.95   11.61
  -9   9  -2   73.16   23.56
  -7  -9   3  359.35   17.65
  -6 -10   4   88.80   11.78
  -6  -8   2  288.18   14.06
  -6  -4   0   81.22   11.46
  -5  -1  -1  868.69   19.10
  -5  15  -2    0.27   30.07
  -4 -10   4   95.52   13.55
  -4  -6   1  227.33   12.57
  -3 -11   7   11.87   22.18
  -1  17  -1   90.43   17.39
   1  17   0   64.57   19.46
   2   6   0 1131.20   21.75
   2  14   0  339.73   13.68
   3  15   1  407.13   18.05
   4   4   2   56.93   10.72
   6   4   6   10.43   16.25
   6   6   5   68.10   15.93
 -11  -1   0   -8.50   18.92
 -10  -8   3    7.78   19.98
  -9  -3   0  238.42   12.76
  -9   7  -2   58.59   22.28
  -8 -10   4  101.25   19.72
  -8  -6   1   73.93   13.67
  -7 -11   5    7.23   19.41
  -7  -1  -1  138.25   10.31
  -5 -11   5   21.45   17.07
  -4  -4   0   69.64   10.83
  -4  14  -2  255.49   29.73
  -3 -11   6  491.81   21.62
  -3  19  -1    2.33   26.12
  -2 -10   5  119.74   14.33
   2  12   0    0.02   14.50
   2  18   1  446.17   22.66
   3  -5   9   13.21   32.96
   4  14   2  262.03   17.94
   4  18   3  225.21   20.48
   5   1   5  314.36   15.92
   5   3   4  274.97   15.07
   5   7   3  830.46   18.75
   5  13   3  129.62   12.78
   6   8   5   12.81   16.87
   6  12   5  184.65   21.71
 -11   3  -1   52.62   15.07
  -9  -9   3  252.30   20.51
  -8  -8   2  137.10   15.82
  -8  -4   0   27.60   10.21
  -4  -8   2  593.99   14.52
  -3  -9   3  692.45   17.86
   2   8   0  546.74   16.12
   3   5   1  314.29   11.85
   3  13   1  151.98   15.28
   4  -2   5  615.32   21.22
   5   9   3  727.15   18.11
   5  11   3   17.40   10.68
   5  15   4    2.24   18.08
   6   4   7  201.61   15.86
   6   4   8   12.03   20.19
   6   6   6  113.51   20.32
   6  10   5   64.09   14.77
  -9  -1  -1  178.58   14.92
  -9   5  -2  333.47   23.01
  -7   3  -2  477.62   17.90
  -6 -12   6   -6.82   23.68
  -6 -10   3  112.74   15.21
  -6  -2  -1  713.74   17.89
  -5  -7   1 1069.44   19.11
  -5   3  -2  416.07   20.14
  -4 -12   7  120.32   24.50
  -4   4  -2   53.94   15.83
   0  18   0  135.69   19.14
   1  19   1   35.10   21.84
   3   1   2  124.49   11.41
   3  17   2   15.74   19.23
   4  12   2   51.70   11.25
   4  16   3   25.02   18.03
   6   8   6  136.00   19.61
   6  10   6   38.98   20.50
   6  12   6   -4.68   17.45
 -11  -5   1   28.84   15.95
 -11   1  -1  141.84   19.70
 -10  -6   1   48.12   18.19
 -10   0  -1   -1.21   13.15
 -10   8  -2  121.94   27.65
 -10  10  -2   47.73   29.00
  -8 -10   3  155.16   18.30
  -8  -2  -1  355.16   16.69
  -7 -11   4  316.56   15.43
  -7  -9   2  120.83   15.03
  -7  -5   0  603.08   14.31
  -5 -11   4  542.34   19.08
  -4 -12   6   31.37   17.71
  -3 -11   5   59.96   15.13
  -1  -9   4  183.49   14.13
  -1  15  -1  376.59   19.14
   0  -8   4  370.38   19.47
   1  15   0    2.15   11.30
   2  16   1   23.75   17.18
   3  -3   4  274.16   19.17
   3  11   1  101.12   11.42
   4   2   3 1072.97   19.13
   5   1   6   15.57   14.95
   5   5   4  592.75   19.24
   5  15   5   76.43   22.57
   6   8   7    5.28   23.84
 -11  -3   0   61.16   19.63
 -10  -8   2  113.05   15.59
 -10  -4   0   22.54   18.29
 -10   6  -2   71.05   20.81
  -9  -7   1  425.73   18.88
  -6 -12   5  146.84   16.93
  -5  -9   2  386.87   12.64
  -4 -10   3   18.46   12.67
  -2 -10   4  126.79   14.74
  -2  20   0   56.55   25.34
   0  20   1  327.18   26.17
   1   3   0 2003.11   36.46
   3  -5   7   55.47   25.17
   3  -5   8  126.78   30.17
   4   0   4 1100.55   23.06
   4  14   3  336.57   18.82
   5   1   7  147.78   21.62
   5   1   8    6.08   22.09
   5   3   5   85.01   13.18
   5   7   4   72.32   14.50
   5  11   4  552.45   19.74
  -9  -9   2   68.76   18.23
  -9  -5   0  408.11   14.89
  -8   2  -2  337.58   17.71
  -7  -3  -1  240.54   15.61
  -6  -8   1   15.28   12.36
  -4 -12   5  185.53   17.10
  -4  -2  -1 1996.24   27.62
  -3  -1  -1 1248.31   25.36
  -2  16  -1   15.17   17.91
   1  13   0  400.08   18.36
   2  18   2   92.19   18.69
   3  -1   3  837.36   23.43
   3  15   2    2.53   11.80
   4  -2   6  146.34   19.26
   4  -2   9   89.80   27.56
   4  16   4  268.55   19.81
   5   9   4  241.15   13.44
   5  13   5   70.55   19.79
 -10  -2  -1  276.22   17.96
 -10   4  -2    3.40   18.83
  -8  -8   1   24.71   10.95
  -7 -11   3    5.17   17.70
  -7   1  -2  163.17   13.54
  -6 -12   4    7.83   17.66
  -6  -6   0  324.95   12.26
  -5  -3  -1  179.51   13.58
  -4  18  -1  316.99   32.80
  -3 -11   4  849.06   20.35
  -3  17  -1   47.82   25.11
  -2  -6   1  294.02   14.45
  -1  13  -1  521.18   21.47
   0  16   0  690.99   21.99
   1  17   1   92.40   18.52
   2   2   1 2800.64   37.66
   2  14   1  302.30   16.51
   3  17   3   59.99   17.99
   4   4   3 1559.55   24.25
   4  12   3  377.48   17.47
   5  11   5   29.76   19.15
   5  13   6  104.81   24.11
 -11  -7   1  207.97   24.98
 -11  -1  -1  136.35   17.66
  -9 -11   3    2.06   22.75
  -9  -3  -1   49.09   16.79
  -8 -12   4    3.98   15.76
  -8 -10   2  114.99   18.25
  -6 -10   2  142.00   16.30
  -5 -13   6   72.85   23.08
  -5 -11   3   37.27   14.65
  -3  -7   1 1637.67   22.30
  -1 -11   7    2.15   23.02
  -1 -11   8  112.77   30.00
  -1  -7   2  379.60   16.52
  -1  -5   1  226.05   13.95
   0 -10   7   91.44   28.00
   1  19   2   77.52   21.46
   3  13   2  168.03   15.33
   4  -2   7  267.61   21.83
   4  -2   8   64.80   22.16
   4  10   3    3.57   13.59
   4  14   4  173.21   17.67
   4  16   5   23.98   20.96
   5   3   6  167.81   16.08
   5   5   5   49.97   12.48
   5   7   5  431.41   20.61
   5   9   5  394.65   20.62
 -11  -5   0  169.25   23.62
 -11   5  -2  115.27   26.30
 -10  -8   1   17.36   19.58
 -10  -6   0  110.10   19.73
  -9   1  -2   15.20   17.05
  -8  -4  -1  416.56   17.97
  -7  -9   1  427.74   16.57
  -6  -4  -1  974.19   20.31
  -5 -13   5   73.82   18.53
  -4  -8   1    6.08   12.00
  -4  12  -2   57.35   23.29
  -2 -12   7  111.61   26.69
  -2   0  -1    2.89   10.42
   0 -10   8   56.04   30.91
   1  -7   4  231.74   22.30
   1  11   0 1133.44   20.65
   2  12   1  595.05   18.67
   2  16   2  563.75   20.35
   3   3   2  363.54   15.64
   4   6   3  174.34   14.67
   5   3   7   56.63   18.26
   5   3   8   97.27   20.45
   5   5   6  309.97   21.32
   5  11   6  309.39   21.95
 -10 -10   2   44.14   22.50
  -9  -9   1  309.74   18.53
  -9  -7   0   64.80   16.43
  -8 -12   3  201.34   21.14
  -8   0  -2 1226.07   23.94
  -7  -7   0  244.25   11.97
  -6   0  -2 1665.54   26.90
  -6  14  -2  150.67   40.44
  -5   1  -2    9.84   12.43
  -4 -12   4   41.75   15.94
  -4  -6   0  473.31   13.60
  -2  -4   0  119.05   11.66
  -1 -11   6  348.81   25.23
   0  20   2  118.10   24.47
   1   5   0 2513.70   36.38
   1   9   0  356.68   16.42
   2  18   3  286.67   21.05
   3  15   3  248.91   14.52
   3  17   4   19.71   15.07
   4   0   5    4.60   12.19
   4   2   4  241.95   14.92
   4  12   4   33.25   16.07
   5   5   7   27.36   19.69
   5   5   8  141.84   24.75
   5   7   6   43.69   18.03
   5   9   6  163.63   18.85
   5   9   7  199.05   23.65
   5  11   7   17.01   16.83
 -11  -3  -1   46.52   22.63
 -11   3  -2   55.34   23.21
 -10  -4  -1  378.74   21.71
  -7 -13   4   85.97   16.43
  -7 -11   2  517.76   20.86
  -6 -12   3  239.75   14.48
  -5  -7   0  114.49   12.73
  -5  13  -2  233.06   34.49
  -4 -10   2  127.78   11.17
  -4   2  -2  339.91   18.51
  -3 -13   7   30.31   25.99
  -2 -12   6    3.56   18.69
  -2  14  -1  319.05   21.20
  -2  18   0  108.94   22.23
  -1  11  -1    3.97   13.22
   0 -10   6  127.37   22.26
   1  -1   1   47.46   16.30
   1  15   1  395.18   17.87
   2   4   1 1789.37   28.74
   3   5   2  942.65   20.69
   4  14   5  186.13   16.74
   5   7   7  225.74   21.52
   5   7   8   18.96   19.56
 -10   0  -2  463.49   23.01
  -9 -11   2  256.21   18.15
  -9  -5  -1   41.89   17.07
  -8  -8   0  179.76   15.93
  -7  -5  -1  101.01   10.91
  -6 -14   5   74.18   22.65
  -5 -13   4  146.06   19.59
  -3 -13   6   68.60   21.79
  -3 -11   3   99.14   13.43
  -3  19   0  169.17   26.74
  -2 -10   3  174.37   14.05
  -1  -9   3  957.77   22.53
  -1  19   1   47.08   16.44
   0  -6   2  295.06   19.52
   1  17   2   81.98   18.59
   1  19   3   21.52   20.56
   2  14   2  347.65   18.81
   3  13   3  119.02   15.52
   4   0   9    0.42   23.56
   4   4   4   46.55   14.72
   4  10   4   96.86   16.59
   4  14   6  119.52   21.22
 -11  -7   0    4.91   25.10
 -11   1  -2    1.93   22.20
  -9  -1  -2   32.65   13.07
  -8 -10   1  122.80   13.53
  -6 -10   1  172.20   17.10
  -6  -8   0  330.82   15.17
  -5 -11   2  737.74   16.84
  -2 -12   5  247.22   21.52
  -2  20   1  230.71   19.91
  -1 -11   5   -1.16   16.69
   2   6   1  255.42   14.53
   2  16   3   13.53   19.13
   2  18   4   55.96   16.53
   3  15   4   -7.76   12.48
   4   0   6  529.32   21.46
   4   6   4  282.06   18.19
   4  12   5  223.08   15.54
 -10 -10   1    0.31   22.07
  -8 -12   2    3.60   20.95
  -8  -6  -1   73.11   16.85
  -7 -13   3  190.57   15.93
  -5  -5  -1   93.29   12.87
  -4 -14   6   72.17   26.24
  -4 -12   3  396.43   17.70
  -4  -4  -1 2392.92   27.99
  -3 -13   5   68.20   18.23
  -3  15  -1  384.64   23.67
  -1   3  -1  403.87   46.09
  -1   9  -1 1373.11   32.03
   0  12   0   14.11   14.41
   0  16   1  105.83   18.12
   1  13   1  589.63   20.23
   3  -3   5  215.07   20.75
   3   1   3  904.68   22.98
   4   0   7   -4.31   17.41
   4   0   8  213.63   22.65
   4   2   5  629.14   20.01
   4  10   5   11.40   17.56
   4  12   6   35.91   21.26
   4  12   7   52.71   25.35
 -11  -5  -1   18.16   17.10
 -11  -1  -2   22.34   21.16
 -10  -6  -1   65.59   19.98
 -10  -2  -2   92.47   21.02
  -9  -9   0  108.52   17.64
  -7  -9   0  149.86   16.15
  -6 -14   4  112.17   22.69
  -6 -12   2    7.48   16.80
  -6  -6  -1  170.93   14.60
  -6  -2  -2  497.09   18.95
  -5  -1  -2   16.81   12.48
  -5  17  -1   73.86   29.87
  -4  16  -1   43.54   25.32
  -3  -3  -1 1020.84   22.92
   0  18   2  121.49   19.59
   2  -6   9   18.35   37.26
   2  12   2    5.53   14.50
   3  -3   9   20.94   29.51
   3  13   4   86.38   15.75
   3  15   5  171.99   16.59
   4   2   9   87.30   27.42
  -9 -11   1    0.00   15.49
  -9  -3  -2  248.06   20.18
  -7 -11   1    2.86   12.28
  -7  -3  -2  500.90   20.06
  -5 -13   3  139.34   14.01
  -4 -14   5  172.63   22.29
   0 -10   5  187.18   21.52
   0  -8   3  169.83   15.82
   0  -4   1 3161.35   55.28
   1  15   2    7.12   16.80
   1  17   3   81.57   20.18
   2  16   4  432.65   20.96
   3  15   6   -7.09   17.54
   4   2   6  130.28   17.93
   4   2   8   79.08   26.12
   4   4   5  965.17   24.71
   4   6   5  108.72   17.97
   4   8   5    3.18   12.34
   4  10   6   32.62   15.39
   4  10   7   20.83   21.67
  -9  -7  -1  419.27   17.29
  -8  14  -2   60.66   62.72
  -7 -13   2  123.17   22.06
  -4 -10   1   37.16   14.75
  -4  -8   0  739.47   18.91
  -4   0  -2 1926.13   32.84
  -3 -13   4  104.71   16.76
  -3  -9   1  933.21   18.60
  -2 -12   4   -2.73   15.78
  -2  12  -1  643.49   23.47
  -1  17   1   99.24   16.03
  -1  19   2  105.83   17.35
   1  11   1   11.68   14.66
   2   0   2 2637.37   44.36
   2  14   3  210.12   14.15
   3  -1   4   48.61   14.18
   3   3   3  457.67   18.59
   4   2   7  289.27   21.70
   4   8   6  256.02   20.42
   4   8   7   -4.74   20.32
   4   8   8   77.39   25.85
 -11  -7  -1  200.86   24.90
 -11  -3  -2   72.42   25.09
 -10 -10   0   37.63   22.30
  -9   5  -3   22.77   25.31
  -8 -12   1  186.53   22.50
  -8  -4  -2   29.62   16.92
  -8   6  -3   43.12   23.90
  -6 -14   3  102.84   20.99
  -5 -15   5   62.54   25.42
  -5 -11   1   43.65   15.43
  -5  -9   0  496.18   17.17
  -3  -7   0  356.30   13.21
  -3  17   0   25.07   21.77
  -2  -8   1    7.71    8.59
  -2  18   1  394.13   23.68
  -1 -11   4  630.21   24.39
   0  10   0  603.94   20.07
   0  14   1  357.27   19.67
   2  16   5    0.45   19.18
   3  -3   8   92.32   25.95
   3   5   3  217.04   16.00
   3  11   4  866.27   18.44
   3  13   6   37.69   22.65
   4   4   6   17.76   15.88
   4   4   7  372.85   23.91
   4   4   8   -3.61   20.04
   4   6   6  135.59   18.65
   4   6   8   45.88   22.12
 -10  -8  -1   12.33   21.37
 -10  -4  -2   18.04   15.40
  -9   3  -3   52.82   21.59
  -9   7  -3  252.06   31.03
  -8  -8  -1   27.21   17.72
  -7   5  -3   56.87   21.71
  -6 -10   0  178.29   17.12
  -4 -14   4  169.29   15.52
  -4 -12   2   58.58   11.19
  -4  10  -2  133.77   30.04
  -4  18   0  157.67   27.54
  -3   3  -2  351.15   28.80
  -2 -10   2  210.63   15.19
  -1   5  -1  223.35   23.63
   0  16   2  562.56   21.90
   0  18   3  261.67   16.97
   1  -9   6   99.08   41.80
   1  17   4   37.65   21.08
   2  14   4  212.87   18.05
   3  -3   6  177.87   21.60
   3  13   7   14.13   19.25
 -10   2  -3  183.87   29.02
 -10   4  -3  256.06   27.85
 -10   6  -3   25.29   26.97
  -9  -5  -2  391.78   22.15
  -8 -14   2   65.78   25.38
  -7 -15   3  186.44   25.89
  -7  -5  -2  491.78   18.79
  -7   3  -3  167.66   19.70
  -6 -12   1  350.17   15.76
  -6  -4  -2   57.29   12.03
  -5 -15   4   -1.57   21.90
  -5 -13   2  218.86   19.15
  -5  -3  -2  442.51   18.26
  -4  -6  -1  224.17   14.95
  -2  -2  -1 3018.35   43.03
  -1  19   3   18.45   22.60
   1  13   2  343.96   17.44
   1  15   3  263.61   19.67
   2  12   3  437.34   14.34
   3  -3   7   79.67   21.52
   3   9   4  475.11   17.90
   3  11   5   67.82   17.96
 -11  -5  -2  105.53   27.57
 -11   3  -3   32.32   33.16
  -9 -13   1   72.12   27.53
  -9  -9  -1  342.09   23.54
  -8   8  -3    7.77   31.21
  -7 -11   0  556.23   21.14
  -7   7  -3  630.09   38.79
  -6  -8  -1   28.98   10.56
  -3 -13   3  118.98   15.75
  -1  -9   2  287.07   16.85
  -1  -7   1 2313.96   34.17
   0  18   4   61.51   23.37
   1   9   1 1394.18   23.66
   1  17   5   35.14   17.26
   2  14   5  107.42   20.01
   3  -1   9   98.10   27.41
   3   1   4   62.38   15.09
   3  11   7   36.83   23.55
 -11   1  -3   70.38   25.65
 -10  -6  -2   77.02   23.28
 -10   0  -3  -10.56   22.77
 -10   8  -3    2.76   34.31
  -8   0  -3   -4.38   17.70
  -7 -13   1  248.14   18.34
  -7  -9  -1  496.07   20.18
  -7   1  -3  102.94   17.41
  -6 -14   2  123.00   15.85
  -4 -14   3  308.00   21.23
  -4  -2  -2  340.03   18.07
  -3  -5  -1  344.84   16.56
  -2 -12   3  413.65   19.34
  -1  15   1  394.55   19.17
  -1  17   2   55.74   18.03
   2  -6   8  107.47   31.65
   2   2   2 1132.87   27.83
   2   6   2  925.97   21.85
   2  14   6  129.96   23.29
   3  -1   5  529.61   24.62
   3   7   4  153.25   13.33
   3   9   5  437.25   21.46
  -9  -1  -3  133.94   21.44
  -8 -12   0   28.43   22.13
  -5 -15   3  149.86   24.94
  -4  14  -1  409.59   28.36
  -3 -15   6   -2.94   28.71
  -2 -14   6  103.73   26.97
  -2  10  -1  264.81   20.96
  -2  18   2   84.08   24.42
   0 -10   4  255.02   22.88
   0  12   1  733.01   21.76
   0  16   3   64.44   18.77
   1  15   4   15.39   17.63
   2   4   2   76.13   14.56
   2  12   4    1.37   11.61
   3  -1   8   11.32   28.23
   3   1   9   92.38   28.70
   3   5   4  633.09   18.36
   3   9   6  222.73   21.24
   3   9   7  154.11   22.63
   3   9   8  100.78   19.69
 -10 -10  -1   22.31   19.58
 -10  -2  -3  187.66   26.01
  -9  -7  -2   83.53   16.65
  -9   9  -3  255.01   46.91
  -8 -14   1   70.37   19.87
  -8 -10  -1  139.81   16.24
  -8  -2  -3  222.87   20.13
  -7 -15   2   15.77   18.15
  -7  -1  -3   99.88   18.05
  -6  -6  -2  332.98   18.26
  -6  16  -1   23.53   26.86
  -5 -11   0  965.41   22.97
  -4 -12   1  465.08   19.67
  -4 -10   0  145.61   16.85
  -3 -15   5  163.88   23.06
  -3   1  -2  120.52   16.09
  -3  19   2  120.11   27.47
  -2  16   1    7.31   19.16
  -1 -11   3    6.11   16.36
   0  14   2  157.94   18.00
   1  11   2 1017.96   22.02
   1  13   3  377.34   18.99
   3   3   9   29.39   24.04
   3   5   9   -2.58   20.08
   3   7   5  620.23   20.91
   3   7   8   20.13   24.74
  -9 -13   0  133.07   28.45
  -9  -3  -3   21.78   23.43
  -7  -7  -2  187.64   15.23
  -6 -16   3    8.64   26.51
  -6 -12   0    1.46   18.56
  -6   0  -3    3.64   15.45
  -6   6  -3  113.12   30.53
  -5 -13   1  188.06   15.23
  -5  -9  -1 1029.71   21.42
  -5  -5  -2  880.70   19.59
  -4 -16   5   10.18   28.67
  -3 -11   1   97.74   12.83
  -3  15   0   14.40   20.35
  -2 -14   5  111.40   23.77
  -1 -13   6  156.81   30.01
  -1 -13   7   74.99   32.75
  -1  17   3   48.31   20.32
   1  15   5  175.10   17.08
   1  15   6    0.19   23.09
   2  -6   7   54.87   28.47
   2  12   6   10.27   21.23
   3  -1   6   44.52   18.58
   3  -1   7  251.72   23.30
   3   1   5  461.69   21.84
   3   1   8   12.31   22.64
   3   5   5  124.65   18.90
   3   5   8  101.63   24.89
   3   7   6  106.55   20.18
   3   7   7  323.28   22.06
 -11  -3  -3   48.93   30.87
 -10  -8  -2  126.02   21.57
  -9 -11  -1    3.21   17.85
  -8  -8  -2  170.36   17.20
  -7 -13   0  158.31   22.34
  -6 -14   1  207.63   23.20
  -6 -10  -1  163.40   13.83
  -5  11  -2  847.43   45.22
  -4 -14   2  250.38   20.79
  -4  -8  -1   -7.01   14.20
  -4  16   0  539.44   32.70
  -3 -13   2  174.83   18.02
  -1  -5   0 2583.22   39.75
   1   5   1  235.60   16.36
   2  -4   9  122.56   36.36
   2  -2   3 1528.44   41.57
   3   3   5  178.61   19.32
   3   3   8   86.54   23.09
   3   5   6  313.45   21.55
   3   5   7   80.01   21.26
 -10  -4  -3  299.51   23.49
  -9  -9  -2   63.80   25.12
  -8  -4  -3  351.88   23.26
  -7 -15   1  255.75   25.92
  -7 -11  -1    6.63   13.16
  -7  -3  -3  192.69   19.35
  -7  13  -2  100.63   44.04
  -5 -15   2    9.11   21.60
  -5  17   0   44.99   24.70
  -4 -16   4  313.84   26.24
  -4  -4  -2   53.76   10.70
  -3 -15   4    5.14   21.28
  -2  -4  -1 2153.90   33.95
  -2  18   3  288.15   23.33
  -1 -13   5  224.39   27.56
  -1  13   1  578.77   22.72
  -1  15   2    8.80   17.63
   0  16   5   57.27   23.48
   1   1   1   21.54   13.59
   1   3   1  406.91   21.44
   1  13   4  201.79   17.62
   2  10   8   36.90   25.95
   3   1   6   32.40   17.59
   3   1   7  217.66   21.98
   3   3   6  175.91   19.95
   3   3   7   86.75   19.91
  -9  -5  -3   29.99   22.02
  -8 -14   0   82.04   27.55
  -8 -12  -1  200.04   23.95
  -6 -16   2  353.97   27.92
  -6  -8  -2  315.58   18.72
  -6  -2  -3  506.36   22.01
  -6  12  -2    1.11   36.33
  -3  -7  -1 1617.79   26.82
  -3  19   3   -3.71   24.58
  -2 -12   2   16.40   15.29
  -2  -8   0  603.61   19.64
  -1  17   4   29.34   20.52
   0  -8   2  526.94   23.00
   0  10   1  367.24   15.49
   0  14   3  210.92   17.63
   0  16   6  179.13   24.33
   1  11   3    5.47   14.28
   1  13   5  222.58   20.50
   2  -4   4   39.22   21.99
   2   6   3  206.30   16.46
   2  10   5  105.04   14.75
   2  10   6   80.20   20.07
   2  10   7   75.75   23.86
 -10 -10  -2   60.43   31.28
 -10  -6  -3    8.25   24.84
  -7  -9  -2  132.04   20.43
  -5  -7  -2  120.75   17.48
  -3  11  -1  121.43   22.66
  -2  16   2  562.75   24.10
  -2  18   4   44.65   25.00
  -1  17   5   60.44   26.44
   0  12   2   13.19   15.57
   1  13   6  132.99   23.10
   1  13   7  115.22   23.16
  -9 -13  -1   65.89   29.53
  -8 -10  -2  128.98   18.15
  -8  -6  -3   43.35   21.87
  -7  -5  -3   58.22   19.91
  -6  -4  -3  676.31   23.65
  -5 -13   0  277.85   21.83
  -4 -16   3    8.94   22.81
  -4 -12   0   63.28   17.68
  -3 -15   3  275.96   22.21
  -2  14   1  256.02   20.28
  -1 -13   4  243.22   24.69
   0 -10   3  302.32   23.41
   0  14   4  119.83   19.37
   2  -2   9  118.14   34.52
   2   4   3 1327.75   27.68
   2   6   9   23.30   26.38
   2   8   8  119.42   18.59
  -9 -11  -2  248.81   29.91
  -9  -7  -3  357.53   26.52
  -6 -14   0  167.98   17.82
  -6 -12  -1  314.67   17.72
  -5 -15   1  152.99   23.34
  -5 -11  -1   18.01   12.85
  -5  -1  -3  569.19   22.98
  -4 -14   1  439.67   23.03
  -4  -6  -2  419.45   18.99
  -3 -11   0 1691.90   28.41
  -3  -3  -2  388.85   20.18
  -3  17   2   16.10   17.09
  -2 -14   3  208.14   21.72
  -2   8  -1    8.54   17.18
  -1 -11   2  965.25   24.97
  -1  -9   1 1374.50   27.79
  -1  15   3  310.82   15.99
   0  -6   1  204.20   17.99
   1   7   2  381.98   18.79
   1  11   4  644.93   20.00
   1  11   8  155.48   29.69
   2  -4   8    7.91   27.76
   2   0   3    5.29   14.82
   2   2   3 1557.17   33.01
   2   4   9  142.72   30.80
   2   6   4  482.88   21.43
   2   8   5   -8.03   13.41
   2   8   6  200.69   21.71
   2   8   7   -0.81   20.33
 -10  -8  -3   -3.71   29.42
  -7 -15   0   -0.49   20.35
  -7 -13  -1  235.84   18.55
  -6 -16   1   20.60   19.34
  -3 -13   1  154.96   14.51
   0  14   5  116.62   16.24
   0  14   6   77.15   24.26
   0  14   7   42.45   20.80
   1  11   5    2.12   18.61
   1  11   7    7.21   23.99
   2   0   9    2.68   26.77
   2   2   9  139.62   25.98
   2   6   8   70.90   22.63
  -8 -14  -1   28.77   21.74
  -6 -10  -2  157.56   15.43
  -3  15   1  338.04   17.95
  -2  -6  -1  270.41   14.49
  -2  16   3    1.00   14.48
  -1  13   2  311.54   15.69
   0  12   3  538.98   17.13
   1  11   6  321.83   18.38
   0   0   0    0.00    0.00
_computing_structure_solution     'SHELXT 2014/5 (Sheldrick, 2014)'
_computing_structure_solution     'SHELXT 2018/2 (Sheldrick, 2018)'
;
_shelx_hkl_checksum              50439
_shelx_res_file
;
TITL 10_a.res in Cmcm
    10.res
    created by SHELXL-2018/3 at 13:34:15 on 18-Dec-2019
REM Old TITL tiopyra4_a.res in Cmcm
REM SHELXT solution in Cmcm: R1 0.057, Rweak 0.020, Alpha 0.055
REM <I/s> 0.399 for 20 systematic absences, Orientation as input
REM Formula found by SHELXT: C6 I N2 S
CELL 0.71073 8.7198 15.0951 7.0716 90 90 90
ZERR 4 0.0014 0.0032 0.0011 0 0 0
LATT 7
SYMM -X,-Y,0.5+Z
SYMM -X,+Y,0.5-Z
SYMM +X,-Y,-Z
SFAC C H I N S
UNIT 24 36 4 8 4
EQIV $1 +X,+Y,1.5-Z
DFIX 1.6 0.001 H7a H7b H7a H7b_$1 H7b H7b_$1
DFIX 0.98 0.001 C7 H7a C7 H7b C7 H7b_$1
L.S. 20 0 0
PLAN  2
SIZE 0.05 0.123 0.17
TEMP -153.15
HTAB N2 I1
BOND $h
list 4
fmap 2 53
acta
OMIT -2 58
REM <olex2.extras>
REM <HklSrc "%.\\10.hkl">
REM </olex2.extras>
WGHT    0.043100
FVAR       0.27476
I1    3    0.000000    0.185276    0.750000    10.25000    0.01939    0.01578 =
         0.02494    0.00000    0.00000    0.00000
S1    5    0.500000    0.127866    0.750000    10.25000    0.02309    0.01131 =
         0.04294    0.00000    0.00000    0.00000
N2    4    0.368211    0.287247    0.750000    10.50000    0.01769    0.01401 =
         0.02673    0.00000    0.00000   -0.00138
AFIX  43
H2    2    0.280127    0.258795    0.750000    10.50000   -1.20000
AFIX   0
C1    1    0.500000    0.237757    0.750000    10.25000    0.02084    0.01459 =
         0.02407    0.00000    0.00000    0.00000
C4    1    0.500000    0.422600    0.750000    10.25000    0.02042    0.01371 =
         0.02621    0.00000    0.00000    0.00000
AFIX  43
H4    2    0.499999    0.485535    0.750000    10.25000   -1.20000
AFIX   0
C3    1    0.364286    0.376639    0.750000    10.50000    0.02287    0.01285 =
         0.02456    0.00000    0.00000    0.00393
C7    1    0.210856    0.418916    0.750000    10.50000    0.02619    0.01752 =
         0.04581    0.00000    0.00000    0.00711
H7A   2    0.220024    0.483623    0.750000    10.50000    0.06225
H7B   2    0.154913    0.399889    0.636873    11.00000    0.04924
HKLF 4
REM  10_a.res in Cmcm
REM wR2 = 0.0599, GooF = S = 1.072, Restrained GooF = 1.067 for all data
REM R1 = 0.0245 for 661 Fo > 4sig(Fo) and 0.0270 for all 708 data
REM 42 parameters refined using 6 restraints
END
WGHT      0.0431      0.0000
REM Highest difference peak  1.104,  deepest hole -0.880,  1-sigma level  0.140
Q1    1   0.0000  0.1799  0.9003  10.50000  0.05    1.10
Q2    1   0.1493  0.1805  0.7500  10.50000  0.05    0.58
;
_shelx_res_checksum              76139
loop_
_space_group_symop_operation_xyz
'x, y, z'
'-x, -y, z+1/2'
'-x, y, -z+1/2'
'x, -y, -z'
'x+1/2, y+1/2, z'
'-x+1/2, -y+1/2, z+1/2'
'-x+1/2, y+1/2, -z+1/2'
'x+1/2, -y+1/2, -z'
'-x, -y, -z'
'x, y, -z-1/2'
'x, -y, z-1/2'
'-x, y, z'
'-x+1/2, -y+1/2, -z'
'x+1/2, y+1/2, -z-1/2'
'x+1/2, -y+1/2, z-1/2'
'-x+1/2, y+1/2, z'
loop_
_atom_site_type_symbol
_atom_site_label
_atom_site_fract_x
_atom_site_fract_y
_atom_site_fract_z
_atom_site_U_iso_or_equiv
_atom_site_adp_type
_atom_site_calc_flag
_atom_site_occupancy
_atom_site_disorder_assembly
_atom_site_disorder_group
I I1 0.000000 0.18528(2) 0.750000 0.02004(12) Uani d 1 . .
S S1 0.500000 0.12787(8) 0.750000 0.0258(3) Uani d 1 . .
N N2 0.3682(3) 0.28725(19) 0.750000 0.0195(6) Uani d 1 . .
H H2 0.280127 0.258795 0.750000 0.023 Uiso calc 1 . .
C C1 0.500000 0.2378(3) 0.750000 0.0198(9) Uani d 1 . .
C C4 0.500000 0.4226(3) 0.750000 0.0201(9) Uani d 1 . .
H H4 0.499999 0.485535 0.750000 0.024 Uiso calc 1 . .
C C3 0.3643(4) 0.3766(2) 0.750000 0.0201(6) Uani d 1 . .
C C7 0.2109(5) 0.4189(2) 0.750000 0.0298(8) Uani d 1 . .
H H7A 0.220(4) 0.4836(3) 0.750000 0.062(18) Uiso d 1 . .
H H7B 0.1549(12) 0.3999(11) 0.63687(7) 0.049(11) Uiso d 1 . .
loop_
_atom_site_aniso_label
_atom_site_aniso_U_11
_atom_site_aniso_U_22
_atom_site_aniso_U_33
_atom_site_aniso_U_12
_atom_site_aniso_U_13
_atom_site_aniso_U_23
I1 0.01939(17) 0.01578(17) 0.02494(19) 0.000 0.000 0.000
S1 0.0231(6) 0.0113(5) 0.0429(8) 0.000 0.000 0.000
N2 0.0177(12) 0.0140(12) 0.0267(15) -0.0014(10) 0.000 0.000
C1 0.021(2) 0.015(2) 0.024(2) 0.000 0.000 0.000
C4 0.020(2) 0.014(2) 0.026(3) 0.000 0.000 0.000
C3 0.0229(15) 0.0128(14) 0.0246(17) 0.0039(12) 0.000 0.000
C7 0.0262(17) 0.0175(15) 0.046(3) 0.0071(13) 0.000 0.000
loop_
_atom_type_symbol
_atom_type_description
_atom_type_scat_dispersion_real
_atom_type_scat_dispersion_imag
_atom_type_scat_source
C C 0.0033 0.0016 'International Tables Vol C Tables 4.2.6.8 and 6.1.1.4'
H H 0.0000 0.0000 'International Tables Vol C Tables 4.2.6.8 and 6.1.1.4'
I I -0.4742 1.8119 'International Tables Vol C Tables 4.2.6.8 and 6.1.1.4'
N N 0.0061 0.0033 'International Tables Vol C Tables 4.2.6.8 and 6.1.1.4'
S S 0.1246 0.1234 'International Tables Vol C Tables 4.2.6.8 and 6.1.1.4'
loop_
_geom_angle_atom_site_label_1
_geom_angle_atom_site_label_2
_geom_angle_atom_site_label_3
_geom_angle_site_symmetry_1
_geom_angle_site_symmetry_3
_geom_angle
_geom_angle_publ_flag
C1 N2 H2 . . 117.8 ?
C3 N2 H2 . . 117.8 ?
C3 N2 C1 . . 124.5(3) ?
N2 C1 S1 3_656 . 123.0(2) ?
N2 C1 S1 . . 123.0(2) ?
N2 C1 N2 3_656 . 113.9(4) ?
C3 C4 H4 . . 120.4 ?
C3 C4 H4 3_656 . 120.4 ?
C3 C4 C3 . 3_656 119.2(4) ?
N2 C3 C4 . . 118.9(3) ?
N2 C3 C7 . . 117.0(3) ?
C4 C3 C7 . . 124.1(3) ?
C3 C7 H7A . . 111(2) ?
C3 C7 H7B . . 108.9(10) ?
C3 C7 H7B . 10_557 108.9(10) ?
H7A C7 H7B . . 109.43(13) ?
H7A C7 H7B . 10_557 109.43(13) ?
H7B C7 H7B . 10_557 109.43(16) ?
loop_
_geom_bond_atom_site_label_1
_geom_bond_atom_site_label_2
_geom_bond_site_symmetry_2
_geom_bond_distance
_geom_bond_publ_flag
S1 C1 . 1.659(5) ?
N2 H2 . 0.8800 ?
N2 C1 . 1.371(4) ?
N2 C3 . 1.350(4) ?
C4 H4 . 0.9500 ?
C4 C3 . 1.372(4) ?
C4 C3 3_656 1.372(4) ?
C3 C7 . 1.482(5) ?
C7 H7A . 0.9800(11) ?
C7 H7B . 0.9800(7) ?
C7 H7B 10_557 0.9800(7) ?
loop_
_geom_hbond_atom_site_label_D
_geom_hbond_atom_site_label_H
_geom_hbond_atom_site_label_A
_geom_hbond_site_symmetry_A
_geom_hbond_distance_DH
_geom_hbond_distance_HA
_geom_hbond_distance_DA
_geom_hbond_angle_DHA
_geom_hbond_publ_flag
N2 H2 I1 . 0.88 2.68 3.561(3) 175.2 yes

_cod_database_fobs_code 2022139
