#------------------------------------------------------------------------------
#$Date: 2020-06-06 01:23:54 +0300 (Sat, 06 Jun 2020) $
#$Revision: 252947 $
#$URL: file:///home/coder/svn-repositories/cod/cif/2/02/21/2022138.cif $
#------------------------------------------------------------------------------
#
# This file is available in the Crystallography Open Database (COD),
# http://www.crystallography.net/. The original data for this entry
# were provided by IUCr Journals, http://journals.iucr.org/.
#
# The file may be used within the scientific community so long as
# proper attribution is given to the journal article from which the
# data were obtained.
#
data_2022138
loop_
_publ_author_name
'Okuniewski, Andrzej'
'Rosiak, Damian'
'Chojnacki, Jaros\/law'
_publ_section_title
;
 Impact of the anion and chalcogen on the crystal structure and properties
 of 4,6-dimethyl-2-pyrimido(thio)nium halides
;
_journal_coeditor_code           WP3004
_journal_issue                   5
_journal_name_full               'Acta Crystallographica Section C'
_journal_page_first              468
_journal_page_last               475
_journal_paper_doi               10.1107/S2053229620005525
_journal_volume                  76
_journal_year                    2020
_chemical_formula_iupac          'C6 H9 N2 S +, Br -'
_chemical_formula_moiety         'C6 H9 N2 S +, Br -'
_chemical_formula_sum            'C6 H9 Br N2 S'
_chemical_formula_weight         221.12
_chemical_name_common            '4,6-Dimethyl-2-pyrimidothionium bromide'
_chemical_name_systematic
;
4,6-Dimethyl-2-sulfanylidene-2,3-dihydropyrimidin-1-ium bromide
;
_space_group_crystal_system      monoclinic
_space_group_IT_number           15
_space_group_name_Hall           '-C 2yc'
_space_group_name_H-M_alt        'C 1 2/c 1'
_atom_sites_solution_hydrogens   geom
_atom_sites_solution_primary     dual
_audit_creation_method
;
Olex2 1.2
(compiled 2018.05.29 svn.r3508 for OlexSys, GUI svn.r5506)
;
_cell_angle_alpha                90
_cell_angle_beta                 101.575(10)
_cell_angle_gamma                90
_cell_formula_units_Z            4
_cell_length_a                   8.4675(11)
_cell_length_b                   14.9142(19)
_cell_length_c                   6.8814(9)
_cell_measurement_reflns_used    2102
_cell_measurement_temperature    120
_cell_measurement_theta_max      28.75
_cell_measurement_theta_min      3.78
_cell_volume                     851.35(19)
_computing_cell_refinement
;
X-AREA (Stoe & Cie, 2009)
;
_computing_data_collection
;
X-AREA (Stoe & Cie, 2009)
;
_computing_data_reduction
;
X-RED32 (Stoe & Cie, 2009)
;
_computing_molecular_graphics
;
OLEX2 (Dolomanov <i>et al.</i>,  2009)
;
_computing_publication_material
;
OLEX2 (Dolomanov <i>et al.</i>,  2009)
;
_computing_structure_refinement
;
SHELXL2018 (Sheldrick, 2015b)
;
_computing_structure_solution
;
SHELXT (Sheldrick, 2015a)
;
_diffrn_ambient_temperature      120.0
_diffrn_detector                 'image plate (34 cm diameter)'
_diffrn_detector_area_resol_mean 6.67
_diffrn_measured_fraction_theta_full 0.997
_diffrn_measured_fraction_theta_max 0.998
_diffrn_measurement_device       '2-circle goniometer'
_diffrn_measurement_device_type  'Stoe IPDS 2T'
_diffrn_measurement_method       'rotation method'
_diffrn_radiation_monochromator  'parabolic x-ray mirror'
_diffrn_radiation_probe          x-ray
_diffrn_radiation_type           MoK\a
_diffrn_radiation_wavelength     0.71073
_diffrn_reflns_av_R_equivalents  0.1180
_diffrn_reflns_av_unetI/netI     0.0591
_diffrn_reflns_limit_h_max       10
_diffrn_reflns_limit_h_min       -10
_diffrn_reflns_limit_k_max       18
_diffrn_reflns_limit_k_min       -18
_diffrn_reflns_limit_l_max       8
_diffrn_reflns_limit_l_min       -8
_diffrn_reflns_number            5070
_diffrn_reflns_theta_full        25.242
_diffrn_reflns_theta_max         26.994
_diffrn_reflns_theta_min         3.749
_diffrn_source                   'microfocus sealed X-ray tube'
_diffrn_source_current           1.000
_diffrn_source_power             0.050
_diffrn_source_voltage           50
_exptl_absorpt_coefficient_mu    5.02
_exptl_absorpt_correction_T_max  0.7403
_exptl_absorpt_correction_T_min  0.2624
_exptl_absorpt_correction_type   integration
_exptl_absorpt_process_details
;
[X-RED32 (Stoe & Cie, 2009), analogous to Coppens (1970)]
;
_exptl_crystal_colour            yellow
_exptl_crystal_density_diffrn    1.725
_exptl_crystal_description       prism
_exptl_crystal_F_000             440
_exptl_crystal_size_max          0.21
_exptl_crystal_size_mid          0.14
_exptl_crystal_size_min          0.04
_refine_diff_density_max         2.213
_refine_diff_density_min         -1.618
_refine_ls_extinction_method     none
_refine_ls_goodness_of_fit_ref   1.052
_refine_ls_hydrogen_treatment    constr
_refine_ls_matrix_type           full
_refine_ls_number_parameters     49
_refine_ls_number_reflns         933
_refine_ls_number_restraints     0
_refine_ls_restrained_S_all      1.052
_refine_ls_R_factor_all          0.0663
_refine_ls_R_factor_gt           0.0644
_refine_ls_shift/su_max          0.000
_refine_ls_shift/su_mean         0.000
_refine_ls_structure_factor_coef Fsqd
_refine_ls_weighting_details
'w=1/[\s^2^(Fo^2^)+(0.1393P)^2^] where P=(Fo^2^+2Fc^2^)/3'
_refine_ls_weighting_scheme      calc
_refine_ls_wR_factor_gt          0.1641
_refine_ls_wR_factor_ref         0.1681
_reflns_number_gt                871
_reflns_number_total             933
_reflns_threshold_expression     'I > 2\s(I)'
_cod_data_source_file            wp3004sup1.cif
_cod_data_source_block           9
_cod_database_code               2022138
_shelx_space_group_comment
;
The symmetry employed for this shelxl refinement is uniquely defined
by the following loop, which should always be used as a source of
symmetry information in preference to the above space-group names.
They are only intended as comments.
;
_shelx_estimated_absorpt_t_min   0.420
_shelx_estimated_absorpt_t_max   0.825
_shelx_hkl_file
;
  -7  -9  -2    0.06    0.76
  -7  -5  -4   50.74    1.54
  -6  -8  -1    4.44    1.02
  -6  -2  -4  111.03    2.12
  -4 -16   1    7.79    0.98
  -4 -14   1  123.26    2.05
  -4 -12   1   66.46    1.48
  -4  -2  -1  792.06    3.23
  -3 -19   1   16.55    1.28
  -3  -7   1  464.23    2.51
  -3  -3   0   20.42    0.96
  -1 -15   2   18.74    1.52
  -1 -11   2  132.71    2.25
   0 -18   2   28.71    1.16
   2 -18   2   21.31    1.65
   4   0   0 1104.79    4.17
   5   7  -5  156.45    2.06
   9  -3  -1   35.89    1.36
   9   5  -6   57.45    1.84
  10   2  -4   19.43    1.51
  -7 -13  -2   15.49    1.23
  -7 -11  -2   33.77    1.07
  -7  -7  -3   64.61    1.43
  -5 -17   0    0.96    1.01
   1 -17   2    5.11    1.43
   3 -17   2    6.32    1.42
   3  -9   2   61.33    3.00
   4   8  -8    8.77    1.81
   4   8  -7   16.98    1.92
   6   6  -4   16.13    0.95
   7   7  -6   88.69    2.31
   9  -7   0   42.85    1.88
  11  -1  -3   35.02    1.47
  11   1  -4    0.43    1.26
  -6 -16  -1    1.80    0.77
  -6 -14  -1   22.56    1.18
  -6 -10  -1    1.50    0.89
  -6  -2  -5   64.50    1.95
  -5 -15   0    5.85    1.04
  -5 -13   0   32.92    1.16
  -5 -11   0   77.68    1.42
  -5  -5  -1    0.49    0.95
  -5  -1  -3  186.82    1.86
  -3 -17   1    0.55    1.14
  -2 -20   1   15.60    0.99
   0 -10   2  178.12    2.39
   2   8  -7    3.10    1.80
   4 -14   2    1.42    1.81
   4   8  -6   37.37    2.02
   6   8  -7    2.38    2.36
   8  -4   0    2.73    1.05
   8   2  -2  229.89    2.09
   8   6  -5   16.58    1.55
   9   5  -5    1.70    1.02
  10   4  -5   84.12    2.22
  -7 -11  -3    1.56    1.23
  -7  -9  -3   32.06    1.16
  -7  -7  -4   47.95    1.48
  -6  -4  -3   98.29    1.79
  -6  -2  -6   33.52    1.78
  -3 -15   1   15.23    1.38
  -3  -9   1  323.68    2.28
  -3   1  -2    2.35    0.97
  -2  -6   1  131.77    1.59
  -2  -2   0  952.35    4.22
   0 -14   2    0.37    1.17
   0 -12   2   75.03    1.81
   1  -9   2    2.00    0.99
   2 -16   2   77.46    2.07
   2   6  -3  106.41    1.71
   2   8  -8   24.89    2.01
   3   3  -1  741.29    3.32
   3   7  -4  187.46    2.22
   4 -12   2    0.76    1.83
   4   6  -3   79.67    1.27
   5   7  -4  103.51    1.62
   7  -7   1  142.75    2.86
   7   1  -1    7.48    1.11
   7   7  -5  160.76    2.25
   8   0  -1    1.07    1.02
   8   4  -3  110.46    1.76
   9   1  -2    2.13    1.11
   9   3  -3   49.34    1.46
  10  -4  -1  118.54    2.07
  11  -3  -2    3.08    1.32
  -7 -13  -3    3.09    0.94
  -7  -7  -5   38.93    1.68
  -4 -18   0   43.41    1.19
  -3 -13   1    0.07    1.03
  -3 -11   1  143.57    1.88
  -2 -18   1   14.96    1.31
   1 -15   2   27.40    1.50
   3 -15   2    9.03    1.50
   3   5  -2  493.22    2.74
   7   5  -3    1.35    0.78
   8 -12   1    9.67    2.51
  10   2  -3   76.64    1.82
  -7 -11  -4   17.88    1.44
  -7  -9  -4    0.43    0.90
  -6 -16  -2   27.58    1.28
  -6  -8  -2   23.27    1.12
  -5 -17  -1    4.20    1.02
  -5  -7  -1  266.23    2.09
  -4 -16   0   54.14    1.73
  -1 -19   1   25.50    1.43
   1 -13   2   65.39    1.93
   1 -11   2  134.99    2.29
   2 -14   2    5.06    1.56
   3   1   0   43.64    1.25
   5   9  -8    4.07    2.00
   6   6  -3   53.49    1.34
   8   6  -4   29.92    1.49
   9  -5   0   90.39    1.92
   9  -1  -1   37.03    1.31
   9   5  -4   89.38    1.63
  10   0  -2  122.81    1.68
  10   4  -4    2.27    1.32
  -6 -14  -2    1.25    1.07
  -6 -12  -2   27.26    1.29
  -6 -10  -2   35.64    1.34
  -6  -6  -3   38.19    1.29
  -4   2  -5  198.15    3.07
  -3 -19   0    4.47    1.05
  -2 -16   1   16.90    1.28
  -1  -5   1    0.99    0.89
   0 -20   1   30.15    1.28
   1   3  -1  290.53    2.76
   1   7  -4  238.21    2.72
   2 -10   2   60.63    2.03
   2   8  -5   12.12    1.20
   3 -13   2   24.30    1.89
   3   9  -8   25.30    2.26
   3   9  -7  105.54    2.51
   5  -3   1  110.66    1.97
   5   5  -2  409.94    2.30
   6   0   0 1208.51    3.85
   7  -1   0   76.00    1.36
   7   7  -4  153.77    1.97
   8 -10   1    1.83    1.57
   8   8  -6    6.36    1.49
  11   1  -3   34.34    1.19
  11   3  -4    2.97    1.42
  -5 -15  -1    2.30    0.66
  -5 -13  -1    2.19    0.79
  -5  -1  -4    0.59    1.08
  -4 -14   0    0.66    0.73
  -4 -12   0    1.11    0.84
  -4  -4  -1  878.63    2.78
  -4   2  -7   55.53    2.74
  -3  -5   0  392.73    2.13
  -3   3  -4   36.68    2.03
  -2  -8   1   40.91    1.07
   2 -12   2   47.30    1.77
   3 -11   2  144.26    3.27
   3   9  -6   56.95    1.77
   5   9  -6   14.21    1.50
   6  -4   1  230.26    2.50
   8  -2   0  114.98    1.83
  10  -8   0   18.85    1.57
  10  -2  -1   72.05    1.62
  10   6  -5    6.13    1.32
  11  -5  -1    1.20    1.29
  11  -1  -2    0.99    1.16
  -6  -8  -3    3.37    1.09
  -6  -4  -6    0.52    1.25
  -6  -4  -5   36.64    1.45
  -4 -18  -1    4.04    1.09
  -4   0  -3    0.17    1.11
  -4   2  -6   29.22    2.12
  -3 -17   0   10.62    1.13
  -2 -20   0    2.16    0.92
  -2 -12   1   73.51    1.75
  -2 -10   1    1.25    0.92
  -1 -17   1   10.82    1.22
   3   7  -3  387.79    2.85
   4   8  -4   50.42    1.24
   5   1   0    3.40    0.69
   5   7  -3  312.89    2.42
   8   4  -2    2.57    1.05
   9   3  -2   28.47    1.21
   9   7  -5   52.82    1.51
  -6 -14  -3   22.90    1.11
  -6 -12  -3   22.57    1.38
  -6 -10  -3   -0.52    1.06
  -6  -6  -4   21.92    1.28
  -5 -17  -2    1.90    0.76
  -5  -1  -5   73.27    1.97
   0 -18   1    7.91    1.09
   0  -4   1 1206.98    6.04
   1 -19   1   24.04    1.45
   4  -2   1  661.23    3.83
   4   4  -1 1183.98    3.94
   5   9  -5  254.13    3.29
   7  -5   1    3.57    1.05
   7   5  -2  277.01    2.22
   8  -8   1   -0.09    1.35
   8   2  -1   79.78    1.66
   8   6  -3   13.08    1.25
   8   8  -5   -0.61    0.97
   9  -3   0   25.80    1.13
   9   5  -3    1.06    1.13
  10  -6   0    2.55    1.40
  10   4  -3  116.56    1.99
  -5  -1  -7   19.94    1.71
  -5  -1  -6    1.08    1.43
  -4 -16  -1    3.85    0.99
  -3 -15   0   12.46    1.13
  -2   0  -1    0.38    0.76
  -1 -15   1   11.83    1.07
   2   8  -4  103.49    2.04
   3   9  -5  167.45    2.36
   4   6  -2   62.22    1.13
   4  10  -8    6.12    1.86
   6  10  -7   -0.99    2.00
   7   9  -5   80.63    1.76
   9   1  -1   30.88    1.27
  10   6  -4    1.63    1.16
  11  -3  -1   17.08    1.34
  11   3  -3   13.10    1.36
  -6 -12  -4   18.32    1.42
  -6 -10  -4   21.68    1.30
  -6  -8  -4   13.45    1.12
  -6  -6  -5   10.17    0.93
  -5 -13  -2   37.27    1.39
  -5  -7  -2   70.74    1.23
  -4  -6  -1   47.64    0.90
  -3 -19  -1   11.49    1.08
  -2 -18   0   36.41    1.03
  -1  -7   1  725.36    3.47
   0   8  -7   -0.49    1.51
   2   4  -1  916.88    3.97
   4  10  -6   22.78    1.68
   6   4  -1  427.19    2.48
   6   6  -2   27.76    1.14
   7   7  -3  161.27    1.75
  10   0  -1   -0.34    0.98
  11   1  -2    0.38    1.17
  -6  -8  -6    7.24    1.34
  -5 -11  -2   67.56    1.54
  -5  -9  -2   22.86    1.06
  -4 -18  -2   42.75    1.23
  -4 -14  -1  110.78    1.58
  -3 -13   0   18.22    0.90
  -1 -19   0    0.14    1.08
  -1 -13   1   29.39    1.44
  -1   7  -7  100.40    3.93
   0 -16   1    4.72    1.04
   0   8  -6   32.81    1.89
   1   9  -7  118.63    3.01
   2  -2   1 1276.24    8.70
   2   6  -2  183.20    1.92
   3 -19   1   12.44    1.15
   5   9  -4   25.94    1.31
   8  -6   1   16.45    1.50
   8   8  -4   11.82    0.98
  -6 -10  -5   -0.63    0.93
  -5  -5  -3    2.41    0.98
  -4 -12  -1   49.65    1.21
  -3 -17  -1    0.56    1.03
  -2 -16   0   98.25    1.66
  -2  -4   0   10.12    0.75
  -1 -11   1   21.73    1.23
  -1  -9   1  488.66    3.02
  -1   7  -6  112.77    3.52
   0 -20   0    3.14    1.09
   0   6  -3   38.44    1.37
   0   8  -8   12.06    1.97
   1 -17   1    6.67    1.01
   1   9  -8    1.96    1.82
   2 -18   1   11.88    1.16
   4   8  -3   42.15    1.10
   6   8  -3    0.92    1.02
   6  10  -5   -1.78    1.63
   7   1   0   51.13    1.06
   7   9  -4   -0.02    0.99
   8   0   0  512.93    3.07
   8  10  -6   18.16    1.58
   9   9  -5   39.98    1.66
  10  -4   0   -0.04    1.15
  -5 -13  -3   -1.70    1.13
  -4 -16  -2   57.57    1.33
   1   7  -3  521.07    3.77
   1   9  -6    3.13    1.22
   2  10  -7    4.19    1.75
   3   9  -4   94.29    1.74
   4  10  -5    8.41    1.01
   5   5  -1    1.72    0.96
   5   7  -2  152.41    1.82
   5  11  -7   18.99    1.95
   6  -2   1  220.91    2.16
   6   2   0  209.58    1.66
   7  -3   1  116.01    1.88
   9  -1   0    1.87    0.96
   9   5  -2  108.71    1.92
  10   4  -2    0.56    1.18
  10   6  -3    7.91    1.27
  11  -1  -1   27.67    1.21
  -5 -15  -4    7.84    1.29
  -5 -11  -3   46.70    1.45
  -5  -7  -3   96.25    1.66
  -5  -3  -7   13.58    1.54
  -5  -3  -5   34.90    1.50
  -4  -4  -2    2.31    0.89
  -4   0  -4  473.37    3.25
  -2 -14   0    7.77    1.03
   0 -14   1  110.22    1.99
   2   2   0  912.25    4.26
   2  10  -8   13.60    1.79
   3   5  -1   54.85    1.27
   4 -18   1    2.58    1.19
   5  -1   1  172.11    2.64
   5  11  -6   67.83    2.22
   7  11  -6   28.69    2.56
   8   4  -1  118.72    1.70
   8   6  -2   25.59    0.99
   8  10  -5    2.09    1.21
   9   3  -1   28.89    1.22
   9   7  -3   56.22    1.32
  11   3  -2    5.06    1.14
  11   5  -3    1.40    0.95
  -5  -5  -4  175.30    2.11
  -5  -3  -6   12.42    1.34
  -4 -14  -2    3.59    0.89
  -3 -15  -1   10.62    0.82
  -3   3  -8    8.31    2.01
  -2 -18  -1   13.45    1.16
  -1 -17   0    6.70    0.74
  -1   7  -8   33.32    3.65
   0   8  -5    1.19    1.29
   1   9  -5  253.15    3.07
   2   8  -3   36.97    1.41
   2  10  -6   29.22    1.56
   3  -1   1  600.84    3.90
   3   7  -2  298.39    2.11
   5   3   0  114.17    1.47
   6  10  -4   66.67    1.56
   7   7  -2  157.90    2.14
   8  -4   1   72.54    1.86
   9 -11   1    2.13    2.07
   9  -9   1   34.57    2.42
  10  -2   0    3.82    1.30
  10   2  -1   40.48    1.51
  10   8  -4   15.59    1.18
  -5 -13  -4   12.44    1.03
  -4 -16  -3    1.26    1.02
  -4 -12  -2    1.41    1.01
  -3 -17  -2    3.96    1.03
  -2 -12   0   79.87    1.59
  -2  -6   0  177.86    1.59
   0 -18   0   55.31    1.39
   0 -12   1  103.68    2.02
   0  -6   1   46.47    1.33
   1 -15   1    6.40    1.11
   3 -17   1    2.33    1.00
   3  11  -7   46.96    2.14
   4  10  -4   39.17    1.65
   5   9  -3  290.96    2.13
   5  11  -5   31.40    1.69
   7   9  -3  167.91    1.97
   7  11  -5    3.12    1.03
   9  -7   1   44.12    2.21
  11   1  -1   33.91    1.35
  -5 -13  -5    0.88    1.15
  -5 -11  -4   40.92    1.33
  -5  -9  -4   12.72    1.23
  -5  -5  -7    3.13    1.28
  -5  -5  -5    2.23    1.11
  -4 -10  -2   43.97    1.27
  -4  -8  -2  130.39    1.55
  -3 -13  -1    0.65    0.62
  -3   1  -3  388.34    3.29
  -2 -10   0  107.70    1.59
  -2  -8   0   72.34    1.18
  -1 -19  -1   37.99    1.29
   1 -19   0    0.71    1.04
   2 -20   0    0.41    1.01
   2 -16   1   16.00    1.11
   3   3   0   14.54    0.74
   3  11  -6  113.75    2.01
   5 -17   1    3.21    1.27
   6   6  -1   71.86    1.37
   6   8  -2   45.06    1.34
   8   2   0  151.88    1.93
   9   1   0    0.55    0.91
  -5 -11  -5   27.21    1.33
  -5  -9  -5   65.95    1.86
  -5  -7  -5   63.01    1.75
  -4 -16  -4   33.38    1.40
  -4 -14  -3  113.61    1.73
  -4   0  -7   -1.16    1.42
  -4   0  -5   -0.41    1.12
  -3   3  -5   83.28    2.78
  -2 -16  -1   19.07    1.11
  -1 -15   0   21.49    0.98
  -1   7  -5  212.20    4.27
   0 -20  -1   22.77    1.48
   0 -10   1    1.61    0.99
   0  -8   1   26.26    1.20
   3   9  -3  352.12    3.06
   4   8  -2  120.20    1.66
   4  12  -7   16.08    1.88
   6  12  -6   17.86    1.48
   7  -1   1    4.56    1.04
   7   3   0  106.86    1.41
   9  -5   1   -0.92    1.32
   9   7  -2   36.46    1.43
  10   6  -2    2.87    1.17
  10   8  -3    3.01    1.11
  11  -3   0    3.23    1.28
  11   5  -2   23.65    1.29
  -5  -9  -6    7.39    1.21
  -5  -7  -6   17.30    1.31
  -4   0  -6  133.10    2.75
  -2 -18  -2   32.60    1.32
   1 -13   1   25.70    1.27
   3  11  -5   88.39    1.92
   4   0   1    0.21    0.90
   5  11  -4  126.63    2.41
   6   0   1    0.45    0.90
   6   4   0    8.63    1.02
   6  10  -3   -0.33    1.03
   7  11  -4   55.86    1.59
   8  -2   1   47.25    1.64
   8   8  -2    9.05    1.12
   9   9  -3   44.56    1.70
  10   0   0   90.12    1.85
  -4 -14  -4    1.30    1.15
  -4  -2  -4   67.71    1.51
  -3 -17  -3    2.20    0.80
  -3   3  -7   23.95    2.17
  -1 -13   0  110.57    1.75
   0 -16   0   97.86    1.70
   4 -16   1    3.28    1.21
   4   4   0    1.70    0.64
   4  12  -6    3.70    0.94
   6 -16   1    2.57    1.23
   8   6  -1   18.69    1.20
   8  12  -5   10.00    1.15
  -4 -10  -3   30.06    1.38
  -4  -6  -3   57.85    1.40
  -3 -13  -2   26.69    1.08
  -3   3  -6   26.84    2.05
  -1 -19  -2    1.24    1.06
  -1 -17  -1    5.98    0.78
  -1  -3   0  472.43    3.04
   0   8  -4   67.89    1.83
   1 -17   0    9.44    1.10
   2 -14   1   96.16    2.02
   2  10  -4   62.69    1.53
   3 -19   0    1.52    1.13
   3 -15   1   10.05    1.31
   4  10  -3   20.33    0.98
   5   9  -2   42.64    1.31
   7   7  -1  277.07    2.22
   7   9  -2    1.05    0.97
   8  10  -3    3.99    0.88
   9  -3   1   12.28    1.40
   9  11  -4   37.20    1.63
  11  -1   0   -1.41    1.12
  -4 -14  -5   36.36    1.20
  -4 -12  -4    0.08    1.20
  -4  -8  -3    9.29    0.83
  -3 -17  -4    1.75    0.79
  -3 -15  -3    7.63    0.98
  -2 -18  -3   12.45    1.18
  -2 -16  -2   94.96    1.54
  -2  -2  -1 1290.02    4.14
   0 -18  -1   12.67    1.19
   1 -11   1   24.13    1.29
   2 -18   0   32.85    1.30
   4  12  -5   26.64    1.27
   5   1   1  291.01    2.23
   5  13  -6   21.90    1.54
   7 -15   1    3.23    1.72
   8   4   0    1.01    0.97
   9   3   0   29.67    1.26
  10  -8   1    1.47    1.63
  -4 -12  -5   19.09    1.57
  -4  -4  -4    2.11    0.99
  -4  -2  -7   60.31    1.92
  -4  -2  -5  197.53    2.48
  -3  -3  -2   26.65    0.88
  -2 -12  -1   76.16    1.34
  -1 -11   0  162.56    1.77
   0 -14   0    2.39    0.96
   1 -19  -1   23.07    1.40
   1   7  -2  413.91    3.01
   2   6  -1  131.14    1.64
   2   8  -2  115.09    1.59
   3  11  -4  213.19    2.41
   5   5   0  416.75    2.27
   5  11  -3   51.10    1.39
   6  12  -4   23.01    1.16
   7   1   1    5.55    0.93
   7   5   0  257.03    1.98
   7  11  -3    8.46    1.14
   7  13  -5   12.75    1.86
   8   0   1    0.90    0.93
   8  12  -4   36.09    1.54
  10  -6   1    7.03    1.56
  10   2   0   13.46    0.98
  10   8  -2   22.20    1.40
  -4 -12  -6    0.70    1.13
  -4 -10  -4   12.16    0.98
  -4  -8  -4   87.61    1.80
  -4  -6  -4   16.76    1.21
  -4  -2  -6   27.09    1.48
  -3 -15  -4    8.25    1.12
  -1 -15  -1    9.78    1.01
  -1  -9   0    8.13    1.00
   1   5  -1    0.59    0.57
   2 -20  -1   17.18    1.08
   3   7  -1  479.76    2.72
   3   9  -2  199.77    1.95
   5  13  -5   -0.24    1.52
   6   8  -1    1.77    0.95
   6  10  -2  104.54    1.76
   9  -1   1   17.35    1.22
   9   7  -1   73.51    1.77
   9   9  -2    4.06    0.91
  10  -4   1   54.77    2.02
  10   6  -1    7.86    1.16
  11   1   0   -0.94    1.14
  11   5  -1    0.62    1.13
  -4 -10  -6   15.01    1.46
  -4  -4  -7   78.84    2.24
  -3 -13  -3   -0.65    0.65
  -3  -5  -2  347.71    2.23
  -2 -14  -2    6.28    0.95
  -1 -19  -3   21.66    1.05
  -1 -17  -2    7.97    1.13
  -1  -7   0  491.98    2.68
   1  -9   1  463.46    4.04
   2 -12   1   83.06    1.81
   4  12  -4    9.76    1.37
   5 -15   1    0.62    1.14
   6   2   1  234.30    2.13
   8   8  -1    2.31    1.07
   8  10  -2   36.10    1.52
   9  11  -3    6.38    1.00
  -4  -8  -7    3.32    1.33
  -4  -8  -6   41.18    1.84
  -4  -8  -5    8.12    1.19
  -4  -6  -7    9.78    1.40
  -4  -6  -5   23.71    1.30
  -3 -15  -5    2.38    0.90
  -3  -1  -3  358.59    2.85
  -3   1  -4    0.82    1.11
  -2 -16  -3   13.12    0.86
  -2  -4  -1  547.53    2.55
   0 -16  -1    3.13    1.02
   1 -15   0   24.66    1.06
   1  11  -7    7.82    1.76
   2  10  -3    2.48    0.94
   2  12  -7   21.13    1.81
   2  12  -6    4.78    1.49
   3   1   1  564.64    3.28
   3  13  -7   -0.84    1.41
   4 -18   0   32.94    1.63
   4   8  -1   50.29    1.06
   4  10  -2   52.93    1.34
   6   6   0   31.90    0.98
   6  12  -3   46.67    1.49
   7  13  -4   20.79    1.47
   9   5   0   77.55    1.52
  10  -2   1   31.03    1.55
  10   4   0    0.05    1.02
  -4  -6  -6    2.90    0.96
  -3 -13  -4   23.80    1.15
  -3 -11  -3   69.12    1.32
  -3   1  -8    0.06    1.36
  -2  -6  -1   80.82    1.17
  -1 -13  -1   29.61    1.10
   0 -18  -2   47.71    1.31
   0 -12   0  114.35    1.69
   0   6  -2    4.67    0.96
   1  -7   1  574.93    4.39
   1  -5   1    4.24    1.21
   1   9  -3  370.63    3.03
   1  11  -6   50.44    1.99
   2 -16   0   87.01    1.65
   2   4   0    7.95    0.73
   3 -17   0   11.02    1.09
   3 -13   1    0.21    1.11
   3  13  -6    9.15    1.46
   4 -14   1  112.02    2.22
   4   6   0   71.56    1.33
   5  13  -4   51.81    1.79
   6  14  -5   43.09    1.93
   7   9  -1  160.76    1.98
   8   2   1   80.18    1.42
   8   6   0   20.88    1.20
   8  12  -3   13.86    1.04
   9   1   1   16.21    1.16
  11   3   0    2.25    1.08
  -3 -13  -5    1.74    1.14
  -2 -16  -4   41.26    1.12
  -1 -17  -3    3.55    1.15
  -1   7  -4  245.46    4.58
   1 -19  -2    0.58    1.21
   1 -17  -1   13.30    1.16
   2  12  -5   44.96    1.66
   4  14  -6    2.06    1.26
   5   3   1  128.84    1.68
   5   9  -1  362.97    2.32
   5  11  -2  193.76    2.08
   7  11  -2   52.63    1.34
  10   8  -1    1.81    1.09
  10  10  -2    6.62    1.33
  -3 -13  -6    2.99    1.08
  -3  -9  -3  204.07    2.08
  -3  -3  -3  221.70    2.03
  -2 -16  -5    4.33    1.21
  -1 -15  -2   22.80    0.95
  -1   1  -1    4.27    1.12
   0   4  -1 1192.01    5.38
   1  11  -5   12.19    1.32
   2 -18  -1   15.52    1.19
   3 -19  -1    7.10    1.18
   4  12  -3   71.60    1.90
   5   7   0  148.33    1.80
   7   7   0  156.41    1.80
   7  13  -3   12.47    1.22
   9   9  -1   75.62    1.77
   9  11  -2   30.50    1.48
  10   0   1   -0.50    1.15
  -3  -7  -3  214.64    2.17
  -3  -5  -3    5.30    1.03
  -3   1  -7   55.33    2.01
  -3   1  -5  159.11    2.81
  -1 -11  -1   29.37    1.08
   0 -18  -3    4.29    1.35
   0 -10   0  351.17    2.59
   0  10  -7    2.84    1.95
   0  10  -6   59.06    2.50
   1 -13   0   95.24    1.74
   2 -10   1   -0.63    1.19
   2   0   1    0.67    0.90
   4  14  -5   68.38    1.83
   6 -14   1   34.89    1.84
   6   4   1  294.78    2.31
   6  10  -1   -0.55    1.03
   6  14  -4    0.41    1.03
  10   6   0    1.53    0.98
  -3 -11  -6   44.53    1.42
  -3 -11  -5   27.78    1.20
  -3  -9  -4   60.79    1.62
  -3  -1  -8   -0.94    1.35
  -3   1  -6    0.52    1.28
  -2 -14  -4    3.96    1.06
  -1 -17  -4    2.83    0.85
   0 -16  -2  111.22    1.75
   0 -14  -1   92.26    1.51
   5  13  -3    3.06    1.02
   6  -6   2   32.14    3.00
   6  -4   2    2.05    1.45
   6   8   0   70.04    1.39
   6  12  -2   42.69    1.46
   8   4   1  110.25    1.71
   8  10  -1    2.69    0.84
   8  12  -2   33.47    1.26
   9   3   1   11.94    1.28
   9   7   0   23.66    1.12
  11  -1   1   14.56    1.55
  -3  -9  -7   80.85    1.96
  -3  -3  -8   11.36    1.49
  -3  -1  -4    0.45    0.98
  -2 -14  -5   54.08    1.47
  -2 -12  -3   36.72    1.00
  -2   4  -8    0.53    1.83
  -1 -15  -3   13.53    1.10
   0  10  -5    3.15    1.44
   1 -19  -3   26.08    1.29
   2 -14   0    5.88    1.02
   2   8  -1   58.28    1.17
   2  12  -4   21.57    1.26
   3   9  -1  392.37    2.67
   3  13  -4   10.30    1.13
   5 -17   0    1.55    1.01
   5  15  -5    2.70    1.32
   7  -5   2   79.44    3.07
   8   8   0   15.98    1.20
   8  14  -3   17.56    1.36
  10   2   1   26.13    1.45
  -3  -9  -6   15.16    1.27
  -3  -7  -4   87.32    1.59
  -3  -1  -7   54.85    2.13
  -2 -14  -6    1.59    0.91
   0 -18  -4   25.39    1.18
   1 -17  -2    6.73    1.17
   1 -15  -1   10.70    1.09
   1  11  -4  107.61    1.93
   2  10  -2  104.55    1.72
   3 -15   0    8.01    1.27
   3 -11   1  148.10    2.49
   3  11  -2  348.70    3.02
   4 -16   0   68.69    1.72
   4   4   1  905.44    3.41
   4  10  -1   33.56    1.03
   4  14  -4    4.87    1.25
   5  -5   2  234.29    5.63
   5   5   1    0.13    1.04
   6  -2   2  128.38    3.08
   6  14  -3   64.95    1.84
   7  -3   2   60.26    2.24
   7   5   1    2.06    0.75
   7  11  -1   10.72    1.17
   7  13  -2   24.32    1.32
  10  10  -1    4.29    1.35
  11   1   1   10.92    1.46
  -3  -7  -7   37.10    1.43
  -3  -7  -6   44.96    1.66
  -3  -7  -5  144.89    2.34
  -3  -5  -7    1.04    1.27
  -3  -5  -4  185.34    2.17
  -3  -3  -7   20.13    1.63
  -3  -1  -5  155.20    2.29
  -2 -12  -4   42.50    1.40
  -2   4  -4    4.62    1.82
  -1 -15  -4   30.95    1.24
   0  -8   0  105.58    1.60
   2 -18  -2   52.42    1.64
   3 -19  -2    1.79    1.34
   3   3   1  459.90    2.66
   3   7   0  350.03    2.45
   4   8   0  142.22    1.80
   5 -13   1    1.45    1.07
   5  -3   2   48.71    2.00
   5  11  -1   56.56    1.47
   5  15  -4    7.99    1.34
   7  -1   2   31.61    1.81
   7   9   0    2.40    1.06
   8  -4   2    1.25    1.59
   9   5   1    0.22    1.03
   9  11  -1    6.85    1.33
  10   8   0   14.64    1.15
  -3  -5  -6  111.94    2.18
  -3  -5  -5    1.96    1.23
  -3  -1  -6    1.10    1.12
  -2 -12  -5   43.80    1.44
   0 -16  -3    2.30    0.90
   0 -12  -1   91.36    1.60
   0  10  -8   12.39    3.16
   1 -11   0  184.89    2.10
   1   7  -1  580.32    3.07
   2 -16  -1   15.00    0.90
   3 -17  -1    0.94    1.02
   4 -18  -1    4.20    0.98
   4 -12   1   54.05    1.61
   5   9   0   42.90    1.28
   5  13  -2   65.13    1.63
   6   6   1   40.86    1.38
   7  -7   2   84.22    4.12
   7  15  -3    5.26    1.26
   8  -6   2    7.42    1.92
   8  -2   2   52.99    2.14
   8   6   1   20.56    1.23
   9   9   0    2.79    1.22
  10   4   1   56.79    1.68
  -2 -12  -6   12.46    1.02
  -1 -15  -5    6.25    0.87
  -1  -7  -1  845.19    3.44
   0 -14  -2    0.73    0.75
   2  -8   1   36.96    1.56
   2  12  -3   61.02    1.47
   3  13  -3    0.25    0.72
   3  15  -6    2.80    1.85
   4  14  -3  160.47    2.33
   5  -1   2    0.01    1.08
   6   0   2  483.53    4.07
   6  12  -1   47.13    1.40
   6  16  -4   54.52    1.89
   7 -13   1    5.44    1.64
   8  12  -1   19.14    1.09
   8  14  -2   -1.71    1.26
  -2   2  -3  649.83    5.87
   0 -16  -4   65.79    1.50
   0  -6   0    2.25    1.00
   0  10  -4  131.39    2.70
   1 -17  -3   12.90    1.04
   2  14  -6    0.69    1.45
   6 -16   0   37.50    1.63
   6  10   0   57.83    1.28
   6  14  -2   -0.82    1.23
   7   1   2   36.44    1.50
   7   7   1  132.30    2.17
   8  10   0   34.41    1.22
   9  -5   2   46.93    2.78
   9  -3   2   14.55    1.76
   9  -1   2    0.05    1.54
  -2 -10  -7    0.50    0.91
  -2 -10  -6   35.62    1.47
  -2  -8  -8    7.87    1.56
  -2   4  -7   80.65    3.16
  -1 -13  -4   46.13    1.33
   0 -16  -5    3.39    1.17
   1 -15  -2   26.59    1.30
   1 -13  -1   32.24    1.25
   2 -18  -3   12.14    1.06
   2 -12   0   80.29    1.56
   2   2   1 1634.68    5.57
   2  14  -5   67.45    2.14
   3  15  -5    7.89    1.48
   5   7   1  304.19    2.27
   5  15  -3   -0.03    1.07
   6   2   2  131.93    2.23
   7  13  -1   14.43    1.33
   9   7   1   49.65    1.54
  10   6   1    8.42    1.24
  -2   2  -8   25.44    2.14
  -1  -5  -1    4.47    0.83
   0 -14  -3  103.04    1.83
   0 -10  -1    2.45    0.91
   1 -17  -4    5.33    1.19
   3   5   1   28.47    1.08
   3  11  -1  200.86    2.07
   4  12  -1  111.45    1.74
   5   1   2    1.83    0.98
   6   8   1    2.27    1.00
   6  16  -3    1.73    1.56
   7  11   0   56.12    1.37
   7  15  -2   22.78    1.48
   8   2   2   54.29    1.89
   8   8   1   -0.95    1.10
   9   1   2   -0.04    1.17
   9  11   0   33.80    1.43
  -2  -8  -7    4.17    1.36
  -2  -8  -4   36.92    1.37
  -2  -6  -3   99.11    1.45
  -1 -13  -6   14.63    1.02
  -1   7  -8   22.10    3.59
   0 -12  -2  123.65    1.71
   0  -4   0  102.00    1.84
   0   8  -2  103.70    1.97
   1 -17  -5    7.94    1.44
   1  -9   0    6.34    0.97
   1   5   0 1087.08    4.07
   1  13  -7    2.60    2.07
   1  13  -6   33.27    2.06
   2 -18  -4   43.86    1.68
   2 -16  -2   70.33    1.41
   2 -14  -1  162.03    2.08
   2  10  -1    1.30    0.89
   3 -17  -2   13.26    1.42
   3 -13   0   21.79    1.20
   3   9   0  180.25    1.80
   3  13  -2   21.60    1.28
   3  15  -4   11.47    1.20
   4 -18  -2   46.42    1.72
   4  -2   2   77.00    2.40
   4  10   0   45.98    1.29
   4  14  -2    3.15    1.23
   4  16  -4   52.00    1.64
   5 -17  -1    5.34    1.17
   5 -15   0    5.50    1.10
   5  13  -1    4.55    1.14
   7   3   2   60.05    1.60
  10  -4   2   -1.32    1.70
  10  -2   2    8.88    1.68
  10   0   2   42.31    2.28
  -2  -8  -6   24.10    1.40
  -2  -8  -5   13.70    1.25
  -1  -3  -1  361.32    2.67
   0 -14  -4    2.20    1.08
   1  13  -5    8.30    1.46
   2  12  -2   54.95    1.48
   3 -15  -1   17.66    1.22
   3  -9   1  338.03    3.51
   4 -16  -1    8.21    1.14
   4 -14   0    1.54    1.02
   5  11   0  107.59    1.56
   5  15  -2    8.89    1.18
   7   9   1   90.30    1.85
   8   4   2    1.50    1.15
   8  12   0   45.08    1.64
   8  14  -1   17.88    1.14
   9   3   2   15.95    1.39
  10   8   1    2.35    1.21
  -2  -6  -7   31.23    1.65
  -2  -6  -4   92.55    1.77
  -2  -4  -3  445.29    3.01
  -2  -2  -8   21.54    1.82
  -2   0  -8   80.82    2.44
  -2   4  -6    1.62    1.48
  -2   4  -5  179.82    4.08
  -1 -11  -7    7.73    1.31
  -1 -11  -4   95.04    1.70
   0 -14  -5   55.87    1.53
   1 -15  -3    7.38    0.87
   2   8   0   81.44    1.32
   4  -4   2    2.64    1.84
   5   3   2   47.33    1.28
   6 -12   1   23.38    1.60
   6   4   2    1.03    0.81
   6  12   0   33.88    1.15
   6  14  -1   48.27    1.38
   7   5   2   88.99    1.74
   9  -7   2   13.25    2.32
   9   9   1   57.46    1.63
  10   2   2    9.08    1.44
  -2  -6  -6   29.16    1.51
  -2  -6  -5   67.51    1.68
  -2   0  -3    0.94    1.04
  -1 -11  -6   52.31    1.58
  -1 -11  -5   15.14    1.16
  -1  -9  -8    0.10    1.28
  -1   5  -2  483.41    5.88
  -1   7  -3  340.15    4.45
   0 -14  -6    0.02    0.80
   0   6  -1   38.42    1.31
   1 -13  -2  123.89    1.71
   1   9  -1  575.48    2.99
   1  13  -4   67.09    1.91
   2 -16  -3   12.20    1.35
   2  -6   1  104.45    2.50
   2   4   1  648.70    3.26
   3  15  -3   16.89    1.33
   4   2   2   75.96    1.63
   4   8   1   33.52    1.24
   4  16  -3   10.31    1.37
   5   9   1  300.38    2.59
   7 -15   0   14.48    1.48
   7  15  -1    8.71    1.24
   8  10   1    2.92    1.14
  -2  -4  -7   80.87    2.09
  -2   2  -7   46.33    2.17
   0 -12  -3   64.94    1.18
   0  -8  -1   34.26    1.10
   1 -15  -4   13.29    0.98
   1 -11  -1   16.24    0.86
   1  11  -2  125.49    1.92
   2  14  -3  111.93    1.94
   3 -17  -3    2.82    1.20
   3   7   1  410.06    2.50
   4 -18  -3    4.30    1.30
   4 -10   1   35.07    1.67
   5 -11   1   37.08    1.70
   5  17  -3    8.72    1.40
   6  10   1   -0.10    0.76
   7  13   0   24.14    1.08
   8 -12   1    9.04    1.95
   8   6   2    6.58    1.14
   9   5   2   51.41    1.40
  10  -6   2    1.58    1.74
  10   4   2   -0.41    1.23
  -2  -4  -6    0.95    1.21
  -2  -4  -4    5.35    1.17
  -2  -2  -7   52.96    1.91
  -2   0  -7    0.45    1.38
  -1  -9  -7   53.65    1.57
   1 -15  -5    2.56    0.97
   2 -16  -4   68.46    1.80
   2 -14  -2    3.18    1.18
   2 -10   0   89.30    1.67
   3  13  -1    0.41    0.95
   4  12   0    3.48    1.01
   4  14  -1  170.03    2.10
   5   5   2  216.17    2.27
   7  11   1    4.94    1.22
  -2  -4  -5  215.16    2.59
  -1  -9  -6    1.76    1.09
  -1  -7  -8   32.65    1.66
  -1   9  -5  111.05    4.28
   0 -12  -7   11.67    1.21
   0 -12  -4   47.68    1.22
   2 -16  -5    4.11    1.41
   3 -17  -4    7.02    1.44
   3  11   0  270.00    2.33
   4   4   2    4.20    0.97
   5 -17  -2    1.44    1.26
   5  13   0   36.29    1.16
   5  15  -1    1.26    0.88
   6 -16  -1    0.51    1.32
   7   7   2   75.62    1.53
   8  14   0   -0.09    1.00
   9   7   2   18.26    1.40
   9  11   1    1.28    0.99
  10   6   2    4.02    1.32
  -1  -9  -5   99.05    1.63
  -1  -5  -2  700.87    3.58
   0 -12  -6   25.09    1.09
   0 -12  -5   29.17    1.11
   0  12  -6   24.36    2.23
   0  12  -5   24.12    1.73
   1 -13  -3   15.67    0.98
   1  -7   0  385.26    2.97
   1   7   0  193.47    1.61
   2  12  -1   66.62    1.48
   2  16  -5    2.79    1.78
   3 -17  -5   -1.36    1.49
   3 -15  -2    8.72    1.01
   3  15  -2    9.30    1.16
   4 -16  -2   66.68    1.81
   5  11   1   46.81    1.38
   5  17  -2    2.57    1.51
   6 -14   0   -0.58    1.04
   6  14   0    0.46    0.85
   6  16  -1    2.46    1.33
   8   8   2    7.92    1.22
  -2   0  -5   -0.96    1.41
  -1  -7  -7   85.12    1.84
  -1  -1  -9    0.82    1.73
  -1   1  -9    1.53    1.72
   2   6   1   67.28    1.11
   2  14  -2    3.01    1.04
   3 -13  -1    0.21    1.06
   3 -11   0  266.28    2.60
   5 -15  -1   -0.07    1.09
   5   7   2   69.78    1.61
   6   8   2   23.27    1.29
   6  12   1   31.29    1.37
   7  15   0   19.71    1.48
  -1  -5  -8   32.48    1.43
   0  -6  -1   49.82    1.33
   0  10  -2  230.84    2.68
   0  12  -4   55.92    1.94
   1 -13  -7    0.36    0.97
   1 -13  -4   56.39    1.31
   1 -11  -2  160.20    2.01
   2 -14  -3  111.17    1.97
   2  16  -4   59.98    1.97
   3   1   2    1.73    1.06
   3   9   1  208.50    1.77
   4 -14  -1  129.71    2.28
   4 -12   0    2.66    1.10
   4   6   2   24.03    1.28
   5 -13   0   40.12    1.60
   7   9   2    0.55    0.84
   7  13   1   13.61    1.33
   9   9   2    1.22    1.22
  -1  -7  -6   88.56    1.98
  -1  -7  -5  283.23    2.54
  -1  -7  -4  199.73    2.16
  -1   9  -4    2.25    1.78
   0 -10  -7    0.63    0.98
   0   8  -1   28.78    1.19
   1 -13  -5    7.18    0.94
   1  -9  -1  541.53    3.25
   1  11  -1   22.05    1.17
   3 -15  -3   16.57    1.47
   3  -1   2    3.10    1.32
   3   3   2   34.14    1.34
   3  17  -3    1.25    1.24
   4 -16  -3   14.45    1.60
   4  14   0    2.93    1.07
   4  18  -3    5.01    1.37
   5 -17  -3    3.83    1.44
   8 -14   0   -0.53    1.23
  -1  -5  -7    2.37    1.47
  -1   5  -8   33.27    2.47
   0 -10  -6   46.01    1.34
   0 -10  -5    3.33    1.21
   0  -8  -8   11.57    1.49
   0  12  -7   12.24    3.63
   1  13  -2   99.92    1.82
   1  15  -6    5.96    2.26
   1  15  -5    1.40    1.66
   2 -14  -6   -0.20    1.38
   2 -14  -4    2.26    0.96
   2  16  -3   11.58    1.23
   3  13   0   27.16    1.24
   3  15  -1   20.52    1.29
   4  16  -1    7.33    1.01
   5  15   0    7.07    0.98
   5  17  -1    6.27    1.43
   6  16   0   13.12    1.79
   7   1   3    3.39    1.52
   8   0   3    0.93    1.87
   8   2   3   17.64    1.61
  -1  -3  -2  414.05    3.16
  -1  -1  -8   10.72    2.22
   0  12  -3  104.68    2.43
   1   9   0    7.00    1.05
   1  15  -4   18.47    1.76
   2 -14  -5   70.82    1.55
   2 -12  -2   56.70    1.77
   3 -15  -4    8.85    1.41
   4   8   2  138.88    1.82
   4  12   1   47.87    1.22
   5 -17  -4   -0.49    1.44
   5  13   1   -0.46    0.79
   6 -16  -2   16.86    1.89
   6  14   1   61.74    1.78
   7 -11   1    6.90    1.65
   7  -1   3    5.67    1.63
   7   3   3   43.32    1.91
   7  11   2   57.54    1.67
   8   4   3   47.20    1.95
   9   1   3    9.21    1.83
   9   3   3    7.82    1.63
  -1  -5  -6  168.88    2.46
  -1   1  -8   15.62    2.17
  -1   3  -8   29.53    2.57
   0  -8  -7   -0.82    1.34
   0   4   0   80.62    1.59
   1 -11  -7    3.26    1.30
   1   1   1    5.90    1.16
   1   3   1  370.82    2.87
   2  12   0   77.59    1.43
   2  14  -1  144.30    2.09
   3 -15  -6   -0.12    1.22
   3 -13  -2   15.90    1.53
   3  11   1  149.95    1.82
   3  17  -2   10.76    1.47
   4  18  -2   30.63    1.40
   6   0   3    0.33    1.48
   6   4   3   83.71    2.26
   7 -15  -1    5.00    1.47
   7   5   3    2.16    1.28
   8  -2   3   17.98    1.94
   8   6   3   12.20    1.32
   8  12   2   26.96    1.44
   9  -1   3   10.37    1.90
   9   5   3   -0.90    1.48
  -1  -5  -5    5.22    1.38
  -1  -5  -4  430.64    3.14
  -1  -3  -7   65.46    2.11
   0  -6  -8    5.28    1.62
   0  -4  -9   14.57    1.74
   1 -11  -6   51.18    1.73
   1 -11  -4  123.78    2.13
   2 -10  -1    1.28    1.17
   2  -8   0   78.12    1.74
   2  16  -2   88.37    1.94
   3  -7   1  333.80    3.94
   5 -15  -2    5.92    1.37
   5  11   2  146.56    2.02
   7 -13   0   18.58    1.81
   9 -11   1    2.74    1.82
  -1   7  -7   68.26    4.29
   0  -8  -6   32.83    1.57
   1 -11  -5   10.93    0.99
   1  -9  -8   -1.11    1.28
   1  -9  -2    9.83    1.25
   1   5   1    4.90    0.88
   2 -12  -7   19.18    1.74
   2 -12  -3   84.84    1.94
   3   7   2  156.07    1.73
   4  10   2   49.98    1.43
   5   1   3  143.47    3.04
   5   3   3   72.72    1.87
   5  17   0    3.61    1.35
   6 -14  -1   50.01    2.27
   6   6   3   29.07    1.24
   7   7   3   93.10    1.75
   7  13   2   22.16    1.48
   8   8   3    0.95    1.27
   9   7   3   31.58    1.92
  -1  -3  -6  147.04    2.51
  -1  -1  -7   11.29    1.74
  -1   7  -2  426.42    4.81
  -1   9  -3  330.70    4.35
   0  -8  -5   -1.10    0.98
   0  10  -1    1.58    1.02
   1  -5   0 1104.26    5.63
   1  13  -1   31.82    1.48
   2  10   1    0.62    0.62
   2  18  -4   44.47    2.44
   3 -11  -1  239.71    2.66
   3  15   0   13.74    1.18
   4  14   1  183.63    2.26
   4  18  -1    7.70    1.48
   5   5   3    2.70    1.34
   5  15   1    2.61    0.94
   6 -16  -3   -0.46    1.48
   6  -2   3  155.56    3.45
   6  16   1    5.39    1.42
   7  -3   3   54.71    2.74
   9  -3   3    5.60    1.74
   0  -6  -7   26.36    1.57
   0  -4  -8    1.00    1.53
   0  -4  -1 1104.72    5.07
   0   6   0    2.02    0.75
   0  12  -2  116.97    2.16
   1  -9  -7  115.51    2.23
   1  -7  -1  859.26    4.01
   1   7   1  734.66    3.09
   1  11   0  216.67    2.34
   1  15  -2   19.34    1.43
   2 -12  -6    3.09    1.10
   2 -12  -5   49.43    1.76
   2 -12  -4   22.80    1.24
   3 -13  -7    2.11    1.38
   3 -13  -3   -1.61    1.08
   3   9   2  119.90    1.73
   3  13   1    0.01    1.06
   3  17  -1    1.22    0.92
   4 -14  -3  174.94    2.71
   4 -12  -1  111.13    2.04
   5 -15  -3   -0.29    1.53
   5 -13  -1    2.94    1.34
   5   7   3  165.65    2.21
   6 -10   1    0.82    1.35
   6   8   3    2.04    1.02
   7   9   3   49.59    1.54
  -1  -3  -5  221.10    2.62
  -1   1  -7    9.86    1.92
   0   0  -9    0.97    1.86
   0  14  -5   54.81    2.60
   0  14  -4   -0.40    1.75
   2   4   2    8.73    1.12
   2  14   0    7.73    1.20
   2  16  -1   26.76    1.41
   2  18  -3    3.38    1.34
   3 -13  -6    8.56    1.58
   3 -13  -4   19.95    1.58
   3  -9   0  155.68    2.24
   4  -8   1   36.38    1.75
   4  12   2    1.49    1.02
   5  -1   3  168.82    3.19
   5  13   2   43.40    1.53
   6 -16  -4   34.94    1.62
   6 -12   0   43.22    1.73
   6  14   2    0.27    1.38
   8  10   3    0.00    1.06
  -1   5  -7    3.27    1.80
   0  -6  -6   16.16    1.41
   0   2  -9    6.13    2.27
   1  -9  -6    2.94    1.21
   1  -7  -8   20.50    1.48
   1  -5  -9    0.66    1.37
   2 -10  -2  143.53    2.09
   2   6   2  156.03    1.80
   3 -13  -5   -0.21    1.07
   3  19  -2    3.09    1.46
   4 -14  -6    1.47    1.54
   4 -14  -5   89.49    2.47
   4 -14  -4    6.17    1.15
   4 -10   0   62.97    1.84
   4   2   3  413.15    3.91
   4   4   3  535.18    3.75
   5 -15  -5    2.34    1.50
   5  -9   1  323.47    3.89
   5   9   3  222.01    2.50
   6  10   3   -1.20    1.29
   7  11   3    6.25    1.39
   8 -14  -1   11.24    1.78
   0  -2  -8   68.15    2.20
   0   4  -9    7.12    1.99
   0   8   0  113.79    1.82
   0  14  -3  106.50    2.43
   1  -9  -5  219.14    2.25
   1   9   1  490.21    2.50
   1  17  -5    6.62    1.77
   1  17  -4    7.29    1.66
   2 -10  -7    2.50    1.38
   2  18  -2   45.47    1.64
   3  -3   2   30.49    2.60
   3  11   2  272.43    2.23
   4   6   3   45.87    1.38
   4  18   0   78.34    1.99
   5  17   1    4.85    1.39
   6 -14  -2    2.80    1.33
   8  -4   3   46.33    2.55
   0  -6  -4   18.26    1.22
   0  -4  -7  107.26    2.07
   0  10  -8    4.12    3.33
   0  12  -1  117.90    1.88
   0  14  -6   -0.01    2.08
   1  13   0  124.57    1.86
   1  15  -1   12.60    1.17
   1  17  -3   13.10    1.66
   2   8   2   56.81    1.27
   3 -11  -2  470.44    3.51
   3  15   1   15.13    1.13
   3  17   0   12.05    0.94
   4   8   3   20.16    1.29
   5  15   2    3.87    1.28
   6  12   3   26.05    1.44
   6  16   2   42.87    1.54
  -1   1  -6   63.94    2.33
   1  -7  -7   55.85    1.46
   1  -3  -9    2.81    1.62
   2 -10  -6   23.00    1.20
   2 -10  -3    5.72    0.96
   2  -8  -8   22.68    1.66
   2  16   0  127.61    1.84
   3 -11  -7   38.62    1.72
   3  19  -1   19.09    1.47
   4 -12  -2    9.95    1.44
   4   0   3   -0.20    1.52
   4  14   2   -0.20    0.80
   5 -13  -2   64.33    1.88
   5  11   3   39.65    1.22
   7 -15  -3    1.73    1.26
   7  13   3    3.09    1.11
   8 -12   0   31.07    2.10
  -1  11  -4   93.35    2.82
   0   0  -8  205.90    3.62
   0  10   0  337.58    2.56
   1  -7  -2  437.98    2.71
   1  11   1   32.69    1.24
   1  17  -2    7.71    1.26
   2 -10  -5    3.45    0.94
   2  -8  -1   52.68    1.48
   2  -6  -9   -0.79    1.10
   2  -4   1  508.76    6.67
   2   0   2 1578.58    6.99
   2  10   2   92.38    1.38
   2  14   1  129.29    1.65
   2  18  -1   21.56    1.31
   3  13   2   31.71    1.20
   4 -12  -7    2.06    1.56
   4  10   3   32.39    1.38
   6 -14  -3   76.23    2.16
   7 -15  -4   11.62    1.70
   7 -13  -1   13.60    1.46
   7   5   4   50.67    1.91
   8   4   4    1.78    1.65
   8   6   4    1.56    1.59
  -1   1  -2  256.46    3.98
  -1  11  -3   24.00    1.87
   0  -4  -6    5.63    0.97
   0  -4  -2   50.67    1.39
   0  -2  -7   51.72    1.73
   1  -7  -6   75.28    1.54
   1  -1   1    5.47    1.69
   3 -11  -6   73.18    1.81
   3 -11  -5   82.77    2.35
   3 -11  -3  162.50    2.00
   3  -9  -8    4.13    1.61
   3   5   3    5.95    0.85
   3   7   3  239.67    2.26
   4  18   1    6.84    1.33
   5 -13  -3    4.40    1.40
   5  13   3   -0.62    1.20
   7   3   4   54.52    2.07
   8 -14  -2   -0.99    1.40
   8 -10   1    2.15    1.56
   8   2   4   39.83    2.04
   9   3   4   10.98    1.98
  -1   3  -6  129.74    2.87
  -1   5  -1    5.70    1.51
   0   2  -8   71.56    2.63
   1  -1  -9    7.77    1.49
   1  15   0   40.46    1.41
   2  -8  -7    3.51    1.01
   3 -11  -4  235.00    2.39
   3   3   3  231.05    2.48
   3   9   3  316.95    2.33
   3  19   0    2.23    1.23
   4 -12  -6    2.49    1.12
   4 -12  -5   50.73    1.92
   4  12   3   67.16    1.52
   4  16   2   79.62    1.69
   5 -13  -6   25.58    1.68
   5  17   2    3.21    0.94
   6 -14  -5   34.51    1.74
   6 -14  -4    0.39    0.97
   6 -12  -1   53.67    1.79
   6   4   4    1.41    1.35
   6   6   4   17.46    1.58
   6   8   4   16.52    1.33
   7   9   4    1.45    1.37
  -1   1  -5   21.06    1.47
  -1   5  -6  144.53    3.48
  -1   7  -6   87.55    3.73
  -1   7  -1  518.75    4.08
  -1  11  -5   14.18    2.98
   0  -4  -5  245.02    2.26
   0  14  -1  157.34    2.20
   0  16  -3    3.76    1.67
   1  -5  -7    1.58    1.21
   1  -3  -8   38.06    1.70
   1  17  -1   14.88    1.40
   2  -6   0  186.35    2.44
   2  -4  -9   25.37    1.98
   2  12   2   48.72    0.99
   3  -9  -1  440.29    3.12
   3  15   2   10.01    1.09
   5 -13  -5    1.63    1.18
   6   2   4   87.66    2.52
   7   1   4   17.15    1.62
   9   1   4    1.13    1.47
   0  -4  -4   13.20    0.93
   0   4  -8    0.84    1.89
   0  12   0   90.32    1.46
   1   1  -9    7.75    1.68
   1   5   2  692.35    3.28
   1   7   2  328.85    2.20
   1  19  -3   31.40    2.11
   2  -8  -6   60.43    1.60
   2  -8  -2  136.03    1.86
   2  16   1   27.99    1.27
   2  18   0   53.01    1.43
   3  -9  -7   76.65    1.92
   3  11   3  107.20    1.63
   5 -11  -1   52.93    1.68
   5  -3   3   68.65    2.38
   5   5   4  160.80    2.38
   5   7   4   58.68    1.69
   5  15   3    4.84    1.25
   6  -4   3  120.07    3.37
   7 -13  -2   32.66    1.65
   7 -11   0   76.60    2.22
   8   0   4  143.84    3.33
  -1   1  -4  136.38    2.27
  -1   9  -1  461.33    3.60
   0  -2  -6  217.31    2.51
   0   8   1   38.60    1.23
   0  16  -5    2.45    1.90
   0  16  -2  131.76    2.05
   1  -5  -1    0.83    0.89
   1   9   2    3.82    0.76
   2  14   2    6.63    0.86
   2  20  -1   24.82    1.46
   3   1   3  351.08    3.26
   4 -10  -7    1.01    1.39
   4  14   3   99.47    1.41
   5   3   4   36.11    1.59
   5   9   4   17.17    1.05
   6  12   4   18.94    1.44
  -1   1  -3   12.42    1.37
   0   4   1 1347.73    5.32
   1  -5  -6  258.98    2.38
   1   3   2  500.82    3.20
   1  17   0    8.81    1.04
   1  19  -2    2.99    1.28
   2   6   3  102.43    1.57
   2   8   3   21.34    1.03
   3  -9  -6   60.67    1.59
   3  -7  -8   29.18    1.66
   3  13   3   -0.54    0.91
   3  19   1   20.50    1.44
   4  18   2   46.95    1.31
   6 -12  -2   59.02    1.74
   9  -5   3   -0.13    2.52
  -1   3  -5  200.09    3.11
  -1  13  -3   23.15    1.79
   0  10   1    2.01    0.73
   0  14   0    1.27    1.11
   1  -3  -7   29.42    1.44
   1  -1  -8    1.45    1.40
   1   3  -9    2.72    1.85
   1  11   2   94.41    1.16
   1  15   1    7.35    0.86
   2  -6  -7   14.68    1.02
   2  10   3   -0.60    0.80
   3  -9  -2  188.75    2.14
   3  17   2    2.46    0.83
   4 -10  -6   18.23    1.52
   4   8   4   64.02    1.39
   4  16   3    1.59    1.09
   6   0   4  236.09    3.11
   7 -13  -3   12.95    1.25
   8 -12  -1   22.09    1.62
   9 -11   0   23.02    2.05
   9  -1   4    0.40    1.44
  -1  11  -1   25.41    1.33
  -1  13  -4   41.52    2.22
   0  -2  -5  109.89    1.76
   0  16  -1    2.05    0.88
   1  -5  -5   -0.14    1.11
   1   5  -9   -1.03    1.93
   1  19  -1   54.11    1.74
   2  -4  -8    0.49    0.93
   2   4   3  455.14    2.91
   2  16   2   97.04    1.39
   2  18   1   17.28    0.98
   2  20   0    1.65    1.24
   3  -9  -5  156.52    1.89
   3  -9  -3  434.13    2.81
   3  -7   0  358.31    3.19
   4 -10  -2   50.68    1.59
   4  -8  -8   11.16    1.14
   4  -2   3  387.01    3.83
   4   4   4   -0.08    1.22
   4  10   4   24.26    0.99
   5 -11  -6   56.14    1.82
   5 -11  -2  145.24    1.89
   5   1   4    1.56    1.41
   5  13   4   17.71    1.08
   6 -12  -6   14.37    1.34
   6 -12  -3   58.35    1.67
   7 -13  -4   20.25    1.25
   7  -9   1   97.98    2.41
   7  -1   4   15.43    1.54
   0   2  -7   46.72    1.76
   1  -5  -2 1236.44    4.65
   1  13   2   63.84    1.19
   2  12   3   47.53    1.17
   3  15   3    5.31    0.77
   4 -10  -5    9.65    1.31
   4  12   4    2.24    1.15
   5 -11  -5   33.05    1.74
   5 -11  -3   50.63    1.63
   5  -9  -8    1.36    1.09
   6 -12  -5   26.97    1.42
   6 -12  -4   32.51    1.50
   0  18  -4   28.53    2.12
   0  18  -2   43.67    1.71
   1  -5  -3   -0.19    1.05
   1  -3   0  426.47    4.56
   2  -6  -6   21.39    1.13
   2   0  -9    0.06    1.40
   3   7   4   95.15    1.81
   3   9   4   43.65    1.40
   4 -10  -4   33.09    1.26
   4  -8   0  147.45    2.23
   5 -11  -4   98.41    1.60
   7  -7   2  107.39    3.45
   7   7   5   47.41    2.02
  -1   5  -5    5.24    1.99
  -1   7   0  423.80    3.32
  -1   9   0    5.64    1.08
  -1  13  -1   31.65    1.40
   0  -2  -4  417.36    2.68
   0  -2  -2  972.52    4.81
   0  14   1  168.89    2.02
   0  16   0   88.79    1.47
   1  -3  -6  132.21    1.81
   1  15   2   42.42    1.23
   1  19   0    1.15    0.99
   2  -6  -1  137.82    2.06
   2   2   3  622.23    3.56
   2  14   3   80.68    1.36
   3  -3  -9   10.48    1.15
   3   5   4  270.02    2.79
   3  11   4  131.26    1.83
   3  17   3    4.63    0.98
   4  -8  -7   13.44    1.29
   4   2   4   57.69    1.57
   4  14   4   -0.19    0.86
   6   8   5    1.04    1.52
   6  10   5    0.51    1.23
   7 -11  -1   14.04    1.28
   7   5   5    2.30    1.45
   8 -12  -2   47.34    1.80
   8  -2   4   30.74    2.03
   8   4   5   28.38    2.02
  -1   3  -4  269.66    3.47
  -1  11   0  207.68    2.31
   0   4  -7  111.06    2.47
   0  18  -1   14.41    1.35
   1  -1  -7   40.04    1.41
   1   9   3  225.22    1.83
   2  -4  -7  136.62    1.86
   2  -2  -8   36.05    1.62
   2  18   2   32.05    1.08
   3  -7  -6  133.19    1.91
   5  -9  -7   60.25    1.70
   6 -10  -7   -0.89    1.06
   9  -9   1   66.52    2.23
  -1  15  -3   14.14    1.50
  -1  15  -2   38.90    1.61
   0   2   1   37.23    1.56
   0   8   2   48.86    0.93
   0  10   2  208.02    1.99
   1   1   2  200.48    2.37
   1   7   3  350.09    2.22
   1  11   3   19.83    0.88
   2  16   3   14.87    1.02
   3  13   4   20.80    0.94
   4  -6  -8    9.60    1.12
   4  -4  -9   31.96    1.66
   4  16   4   38.70    1.46
   5   7   5   65.97    1.91
   5   9   5   74.69    1.88
   5  11   5   29.04    1.44
   6 -10  -1    0.33    1.21
   6  -8   1    3.47    1.42
   6   4   5   61.94    1.77
   7 -11  -6   29.82    1.51
   7   3   5   25.51    1.54
   8 -12  -5    7.50    1.26
   8 -12  -4   43.75    1.68
   8 -12  -3   16.49    1.15
   8 -10   0   45.66    1.73
   9 -11  -1   11.05    1.65
  -1   3  -1  371.30    7.35
  -1   5   0 1163.47    5.98
  -1  13   0  113.04    1.94
   0   6   2    4.53    0.71
   0  12   2  120.66    1.68
   0  16   1    4.42    1.13
   0  18   0   74.95    1.75
   1   3  -8   35.14    1.79
   1   5   3    9.37    1.01
   1  13   3   17.91    0.88
   1  17   2    7.16    1.21
   1  19   1   28.46    1.07
   2  -6  -2  166.29    1.96
   3  -7  -1  513.54    3.24
   3  -1   3  307.71    3.09
   3   3   4   44.77    1.42
   3  15   4    6.78    1.12
   4  -8  -6   29.25    1.11
   5  -9  -6   13.44    1.40
   5  -7  -8   16.06    1.37
   5   5   5    2.70    1.25
   5  13   5    0.17    1.13
   6 -10  -6   35.06    1.58
   7 -11  -5    2.37    1.55
   7 -11  -2   80.23    1.83
   8   2   5    7.29    1.50
  -1  15  -4   27.50    2.02
   0   2  -6  198.97    2.40
   0   6  -7   18.70    1.98
   0  12  -7    7.82    3.04
   1  -3  -5   69.82    1.27
   2  -4  -6    1.30    1.08
   2   8   4   31.07    1.05
   2  10   4   42.16    1.07
   2  12   4   44.82    1.23
   3  -5  -7    8.69    0.90
   3  -5   1   19.37    1.76
   3  -3  -8    9.47    1.25
   4   8   5   11.35    1.38
   4  10   5   12.59    1.34
   7 -11  -4   61.25    1.72
   7 -11  -3   12.93    1.35
  -1   7  -5  289.37    5.24
  -1   9   1  473.81    2.96
  -1  11   1   23.88    1.24
  -1  13  -5    9.08    3.22
   0  14   2    0.57    0.77
   1  15   3   12.27    0.91
   2   0  -8  142.08    2.36
   2   4  -9   24.07    2.33
   2  18   3    5.26    1.05
   4  -8  -5   31.78    1.10
   4  12   5   31.60    1.16
   5  -9  -5  278.02    2.61
   5  -1   4    1.35    1.07
   6 -10  -5   -0.42    1.05
   6 -10  -2   98.91    1.79
   9  -7   2   20.76    2.48
  -1   3  -3  315.18    4.14
  -1   7   1  773.49    3.85
  -1  15   0   22.10    0.97
  -1  17  -2    9.11    1.40
   0   4   2   49.25    1.28
   0   8  -7    0.36    1.78
   0  18   1   13.66    1.33
   1  -1  -6    3.73    1.18
   1   5  -8   83.15    2.35
   1  19   2   -0.26    1.15
   2  14   4    5.07    0.72
   4  -8  -4   66.52    1.72
   4   0   4  287.70    3.02
   4  14   5   64.46    1.68
   5  -9  -4   23.72    1.63
   5  -7  -7   94.59    1.85
   5  -7   1  231.18    3.08
   5   3   5   34.92    1.50
   6 -10  -3   -0.19    1.16
   6  -8  -7    0.72    1.29
   6  -2   4   77.07    2.21
   6   2   5   57.87    1.81
   7  -9  -7   46.59    1.41
   9 -11  -2   44.36    1.71
  -1  17  -3    7.09    1.49
  -1  17  -1    9.42    1.14
   0  10  -7    0.56    2.01
   0  16   2  115.73    1.69
   0  20   0    4.40    1.43
   1  -3  -4  232.74    1.92
   1   3   3  332.77    2.42
   1  17   3    5.36    0.83
   2   4   4    6.30    1.11
   2  16   4   57.84    1.32
   3  -5  -6  187.79    1.95
   3   1  -9   23.37    1.72
   3   9   5  137.36    2.08
   3  11   5   39.49    1.54
   4  -8  -3   68.24    1.58
   4  -8  -2  128.93    1.84
   4  -6   1   74.81    2.20
   4  -4  -8    0.28    0.93
   4   4   5  244.68    2.60
   5  -9  -3  446.60    2.73
   7  -9   0    2.01    1.22
   7   1   5    4.16    1.23
   8 -10  -1    4.26    1.33
   9 -11  -4   30.45    1.65
   9 -11  -3    9.16    1.35
  -1  15   1   10.89    1.13
  -1  17   0    7.46    1.23
   0   8   3    7.38    0.91
   0  10   3    0.95    0.55
   0  12   3   68.76    1.17
   1   9   4    4.52    0.99
   1  11   4   83.78    1.47
   2  -4  -5  424.47    2.56
   2   6  -9    1.82    1.69
   3   7   5  124.25    2.16
   3  13   5   -0.41    0.86
   5  -5  -8   43.31    1.58
   5  -3  -9   11.42    1.27
   6  -6  -8    1.03    1.37
   7  -9  -6   -0.80    1.31
  10 -10  -1    7.24    1.58
   0   4  -6    4.21    1.29
   0  14   3  112.28    1.77
   0  18   2   50.78    1.36
   1  -3  -3  173.17    1.94
   1  -3  -1  260.40    2.89
   1   7  -8   15.41    2.01
   1   7   4  282.91    2.34
   1  13   4   39.00    1.04
   2  -2   2  510.61    6.20
   2   0   3   -0.22    1.07
   2   2  -8   41.31    1.46
   3  -3  -7   81.74    1.59
   3  -1  -8    1.44    1.20
   3   1   4    1.22    0.96
   3  15   5    2.31    1.23
   4  -6  -6   37.94    1.32
   6  -8  -6   27.21    1.47
   8 -10  -5    1.38    1.11
   9  -3   4   10.65    2.31
  10  -8   1    1.90    1.74
  -1   5   1    1.79    1.13
  -1   9   2    9.52    1.11
  -1  11   2  118.30    1.70
  -1  13   2  121.48    1.63
  -1  17  -4    6.07    1.97
   0   2  -5  104.71    1.77
   0   6   3   50.97    1.17
   1  -3  -2  544.61    3.38
   1   3  -7   30.34    1.53
   1  15   4   24.88    1.01
   1  19   3   19.76    1.48
   2  10   5    1.44    1.15
   2  12   5   27.08    1.20
   3   5   5    2.65    1.14
   4   0  -9   -0.93    1.29
   7  -9  -5   82.11    2.06
   8 -10  -4   41.04    1.56
   8 -10  -3    2.43    1.29
   8 -10  -2   51.09    1.53
   8  -8   1    1.03    1.28
   8   0   5    0.51    1.42
   9  -9   0    3.22    1.40
  -1   9  -5  147.60    4.96
  -1  17   1   15.78    1.32
  -1  19  -2    0.30    1.48
  -1  19  -1   55.24    1.82
   0  16   3    1.05    0.83
   1  -1  -5   66.42    1.39
   1   9  -8    0.07    1.65
   2  -2  -6  103.42    1.39
   2   0  -7   -0.32    1.08
   2   8   5   10.90    1.31
   2  14   5   49.52    1.37
   3   3  -9    0.44    1.34
   4  -4  -7  154.81    1.94
   4  -2  -8   44.20    1.41
   4  10   6   13.40    1.37
   4  12   6   -0.21    1.20
   5   1   5   64.11    1.81
   5   7   6   33.01    1.62
   6  -8   0   64.11    1.80
   6  -6   2   37.98    2.23
   7  -9  -1  162.83    2.19
   7  -3   4   50.24    2.41
  10 -10  -2    6.93    1.41
  -2  10  -1   -0.01    1.22
  -2  12  -2   59.59    2.13
  -1   7   2  447.70    2.75
  -1  15   2   25.39    1.31
  -1  19  -3   38.38    2.21
  -1  19   0    2.19    1.37
   1   5   4  391.56    2.54
   1  17   4    3.48    0.69
   2  -4   0    9.89    1.26
   2   2   4  268.06    2.35
   4   2   5  187.53    2.19
   4   8   6   46.75    1.91
   5  -7  -5  234.79    2.17
   5  -5  -7    1.95    1.19
   6  -8  -5   -0.91    0.95
   6  -6  -7   15.77    1.36
   6   0   5   -0.75    1.17
   7  -9  -4    0.92    1.30
   7  -7  -7   51.43    1.47
   9  -5   3   -0.13    2.48
  -2  10  -2   99.13    2.64
  -2  10   0  108.11    1.85
  -2  14  -1  141.15    2.27
  -1   3  -2  381.14    6.74
   0  10   4  128.58    1.50
   0  12   4   49.28    1.16
   0  18   3    5.36    1.30
   2   4  -8    0.27    1.25
   2   6   5   65.01    1.54
   5   5   6   51.97    1.82
   6   4   6   -0.16    1.22
   7  -9  -3  160.99    2.00
   7  -9  -2    2.90    1.10
   7  -5  -8   45.23    1.81
   8  -8  -6    4.40    1.34
   9  -9  -5   51.40    1.86
  -2  14  -2    5.79    1.26
  -2  14   0    8.31    1.19
  -1  11   3   18.32    1.14
  -1  13   3   17.16    1.19
  -1  17   2    6.24    0.90
  -1  19   1   36.99    1.29
   0   6  -6   14.99    1.73
   0  14   4    0.18    0.80
   1  11   5   12.77    1.09
   1  13   5    6.88    1.00
   2  -4  -3  666.35    3.26
   3   1  -8    0.04    0.94
   3   3   5   79.93    1.60
   3   5  -9    2.31    1.37
   3   9   6   16.28    1.55
   3  11   6   44.66    1.34
   4   2  -9   51.93    1.85
   4   6   6    8.75    1.36
   5  -7   0  149.90    2.27
   6  -8  -4   44.48    1.22
   7   3   6   20.11    1.43
  -2   8  -1   40.67    1.67
  -2  12   1   65.99    1.64
  -2  16  -1   27.15    1.49
  -1   3   0  514.26    4.84
  -1   9   3  567.96    3.10
  -1  15   3    7.84    1.10
   0   2   2  739.71    4.02
   0   4   3  549.69    2.76
   0   8   4   54.60    1.09
   0  16   4   62.02    1.17
   1   5  -7    0.17    1.26
   1   9   5  171.82    2.06
   1  15   5    8.70    0.98
   4  -4  -6    1.73    1.17
   5  -7  -4  100.14    1.47
   6  -8  -3   -0.04    1.16
   6  -8  -1    0.70    1.03
   7  -7  -6   71.82    1.39
   9  -9  -4    7.03    1.20
   9  -9  -2    4.38    1.23
  -2  10   1    1.07    1.21
  -2  14   1  163.34    2.15
  -2  16   0  127.70    2.09
  -1   5   2 1128.63    4.24
  -1  19   2    2.07    1.23
   1  -1  -4   16.11    1.06
   1   1   3   10.79    1.11
   2  -4  -2    8.99    0.94
   2  -4  -1  815.31    4.48
   2   2  -7  146.78    1.94
   2   4   5  224.43    2.19
   3  -5   0  372.08    3.44
   3   7   6   40.19    1.52
   4  -6   0   53.27    1.62
   4   0  -8   84.83    1.74
   5  -7  -3  353.33    2.61
   5  -5  -6  166.49    1.83
   5   1  -9   10.00    1.37
   6  -8  -2   46.50    1.16
   6  -6  -6    5.06    0.93
   7  -1   5    3.40    1.24
   8  -8  -5    0.28    0.91
   8  -6  -7    6.31    1.42
   9  -9  -3   70.65    1.41
  -2  12  -3   56.12    2.69
  -2  16   1   24.56    1.48
  -1  17   3   12.08    1.26
   0   6   4   18.88    1.06
   0  18   4   30.21    1.12
   1   3   4  257.65    2.14
   1   7   5  226.77    1.94
   2   0  -6  444.31    2.68
   2   6  -8    7.47    1.36
   2  10   6   37.33    1.53
   2  14   6    2.78    0.96
   4  -2  -7  163.91    1.62
   4   4   6    0.53    0.92
   5  -7  -1  313.60    2.45
   5   3   6   12.03    1.26
   7  -5  -7   -0.79    1.23
   9  -7  -6   28.36    1.71
  -2   8  -2   65.63    2.49
  -2   8   1   55.23    1.50
  -2  12   2   55.24    1.50
  -2  14  -3   94.82    2.88
  -1   7   3  407.20    2.36
  -1  11  -5   14.78    3.29
   0   2  -4  355.92    2.99
   0   4  -5  293.93    2.87
   0  12   5   37.31    1.11
   1   3  -6  118.11    1.82
   2   8   6   25.44    1.37
   3  -5  -2  422.89    2.85
   3  -5  -1   51.54    1.58
   3   3  -8   10.33    1.26
   4   4  -9   29.19    1.54
   5  -3  -7   46.15    1.14
   5  -1  -8    2.20    1.11
   6  -4  -7  113.02    1.71
   6  -2  -8   43.39    1.56
   6   2   6   35.67    1.67
   7  -7  -5  127.53    1.51
   8  -8  -4   14.27    1.03
  10  -6   2    3.18    1.74
  -2  10   2  135.68    1.95
  -2  16   2  119.94    1.81
  -2  18   1   25.62    1.50
  -1  11   4   99.34    1.53
  -1  13   4   41.09    1.15
  -1  15   4   19.31    1.26
  -1  19   3   27.81    1.08
   0  10   5    3.63    1.07
   0  14   5   30.43    0.85
   0  16   5    0.81    0.89
   1   7  -7   93.18    2.38
   3   5   6   99.96    1.86
   4  -6  -1   70.91    1.32
   6  -6  -5   36.39    1.39
   8  -8  -3    2.41    1.17
   8  -8  -1    1.50    1.13
  10  -8  -4   22.52    1.23
  10  -8  -1    1.03    1.47
  -1   3   1  271.87    2.84
  -1   9   4    5.30    0.92
  -1  17   4    6.43    1.23
   0   8  -6   31.74    1.86
   1   5   5    5.72    1.11
   1  11   6   59.95    1.67
   1  13   6   17.01    1.00
   2   8  -8   26.35    1.71
   3  -1  -6    4.90    1.12
   3  -1   4    0.34    1.20
   3   1  -7  100.41    1.62
   4   0   5   -0.03    1.23
   4   8   7    3.56    1.52
   5   3  -9   15.30    1.49
   7  -7  -4  161.81    1.81
   8  -8  -2   17.49    1.10
   8  -6  -6   14.54    1.04
   9  -7  -5   65.12    1.71
  10  -8  -3    0.13    1.17
  10  -8  -2   30.27    1.51
  -2   8   2  126.48    1.74
  -2  12   3   82.65    1.61
  -2  14   3  115.83    1.84
  -2  16  -3   19.94    1.91
  -2  18   2   60.17    1.80
  -2  20   0   -0.16    1.45
   0   8   5    1.45    0.73
   1   9   6   -1.20    1.16
   3   1   5  155.02    2.00
   3   9   7   70.93    1.82
   4  -2   4   62.45    1.96
   4   2  -8   33.78    1.38
   7  -5  -6  133.26    1.84
   7   1   6    4.89    1.44
   8  -6   2   11.21    1.58
  -2   6   0  183.80    2.39
  -2  10  -3    1.33    2.45
  -2  10   3    6.86    1.21
  -2  16   3   10.67    1.31
  -1   5   3    0.74    0.90
   0   4   4   13.68    1.07
   2   0   4  864.90    4.50
   2   2   5  206.13    2.21
   4  -2  -6   94.07    1.55
   4   0  -7    0.68    1.12
   5  -5   2  301.95    4.67
   5  -1   5   63.83    2.01
   6  -6  -4   19.73    1.25
   7  -7  -3  268.94    2.41
   7  -7   0  210.05    2.35
   8  -4  -7   30.10    1.29
   9  -7  -4   59.02    1.71
  -2   6   1  137.58    1.93
  -2  18   3   17.05    1.34
  -1   7   4  170.32    1.65
  -1  13   5    6.25    0.92
  -1  15   5    4.12    0.91
   0   2   3  115.13    1.78
   0  14   6    1.00    0.96
   1   9  -7  108.10    2.64
   2  10  -8   12.45    1.72
   2  10   7    0.47    1.25
   4   2   6   25.13    1.36
   5  -1  -7   51.86    1.38
   5   1  -8    1.26    0.82
   5   5   7    3.46    1.26
   6  -2  -7   41.00    1.38
   6   0  -8  219.51    2.45
   7  -7  -2  237.28    2.10
   7  -3  -7   27.38    1.38
   7  -1  -8    6.91    1.40
   8  -6  -5   13.24    1.00
  -2  14   4    0.63    1.10
  -2  18  -3   11.84    1.89
  -1  11   5    6.70    0.77
  -1  17   5    7.01    1.34
   0   6   5   34.19    0.98
   0  10   6   73.84    1.55
   0  12   6   30.95    1.07
   1  -1   2  184.62    3.17
   2   0  -5   -0.21    0.77
   2   2  -6  105.77    1.60
   3   7   7   48.21    1.32
   5   1   6   -0.45    1.30
   6  -6   1   56.06    1.90
   7  -7  -1  221.26    2.07
   9  -7  -3   93.27    1.69
   9  -5  -6   56.79    1.43
  10  -6  -5    3.54    1.42
  -3  13   0   27.58    1.48
  -3  13   1   -0.97    1.19
  -3  15   1   19.93    1.34
  -2   6  -1  127.17    2.71
  -2  12   4   25.10    1.04
  -2  16   4   55.00    1.31
  -1   3   2  470.41    3.09
  -1   7  -4  248.51    4.35
  -1   9   5  273.58    2.15
  -1  13  -5    9.52    3.71
   0  10  -6   61.60    2.42
   1   5  -6  211.98    2.38
   2   4   6    3.18    1.01
   2   8   7    3.30    1.34
   3   3  -7   85.48    1.54
   4   4  -8    0.56    1.21
   7  -5  -5    0.31    1.12
   9  -7  -2   66.23    1.50
   9  -3  -7   23.04    1.63
  -3  11   1  257.14    2.66
  -3  13   2   24.69    1.44
  -3  15   2   13.13    1.32
  -3  17   0   17.26    1.49
  -2   6   2  153.56    1.84
  -2  10   4   81.76    1.58
  -2  18   4   43.62    1.56
   0   8   6   33.73    1.29
   1  11  -7    8.78    1.88
   2   6  -7   19.18    1.36
   3  -1  -5  230.68    1.99
   3   7  -8   33.30    1.64
   5  -3   4   33.90    2.46
   6  -4  -5  309.10    2.19
   8  -6  -4   29.83    1.00
   8  -4  -6   -0.63    1.01
  10  -6  -4    3.59    1.38
  -3  11   2  470.84    3.37
  -3  13  -1    0.42    1.37
  -3  15  -1   15.05    1.45
  -3  17   2   17.14    1.51
  -1   5   4  634.57    2.97
  -1  13   6   37.89    1.22
  -1  15   6    7.11    0.96
   0   6  -5   35.95    1.61
   1  -1  -2   29.32    1.35
   1   5   6  153.92    1.93
   3  -3  -3  565.66    3.04
   3   1  -6    4.82    1.11
   4   4   7   80.93    1.95
   5  -5  -3    0.75    0.87
   5   3  -8   21.60    1.36
   6  -6  -2   31.22    1.31
   7  -3  -6   88.54    1.66
   8  -2  -7   46.95    1.66
   8  -2   5    6.80    2.41
   9  -5  -5    2.42    1.26
  -3  13   3    0.73    1.26
  -3  15   3   15.61    1.30
  -3  17  -1    4.94    1.44
  -3  17   3    3.07    1.19
  -3  19   0    1.85    1.50
  -3  19   2    2.62    1.37
  -2   8   4  104.23    1.50
  -2  12   5   60.32    1.55
  -2  14   5   68.55    1.61
  -2  16   5    3.37    1.28
  -1   5  -3    8.72    1.84
  -1   7   5  209.76    1.76
  -1  11   6   60.09    1.47
   0   4   5  319.69    2.35
   1  13  -7    1.99    2.03
   2   6   7   28.18    1.50
   4   2  -7  170.74    1.81
   5   3   7   12.92    1.36
   6  -6   0   38.54    1.29
   6  -2   5   58.45    2.34
   6   0   6   83.37    2.32
   6   2  -8   31.86    1.14
   7  -5  -4  228.44    1.95
   7  -1  -7    5.45    1.30
   7   1  -8    4.27    1.04
   8  -6  -3   27.67    1.39
  10  -6  -3   10.14    1.14
  -3   9   1  453.42    3.08
  -2   6   3   92.89    1.47
  -1   3   3  171.46    1.86
   0   2   4  498.38    2.93
   3   9  -8   20.50    1.64
   4   0  -6  179.06    1.57
   4   6  -8   18.11    1.33
   5  -5  -2  517.24    2.95
   5  -1  -6    2.26    1.14
   5   1  -7   41.75    1.28
   6  -2  -6   86.63    1.27
   6   0  -7    0.13    1.20
   9  -3  -6   16.56    1.57
  10  -6  -2    4.02    1.01
  10  -6   0    4.99    1.46
  -3   9   0  206.66    2.52
  -3   9   2  194.08    2.12
  -3  15   4    7.81    1.36
  -3  19  -1   19.60    1.75
  -2  10   5    5.63    0.77
   0   4  -4   10.74    1.21
   0   6   6   12.75    0.90
   0  10   7    4.32    1.29
   1   7   7  103.89    1.83
   6  -4  -4   15.31    1.20
   8  -6  -2   35.65    1.19
   8  -4  -5   68.27    1.33
   9  -5  -4  133.74    2.06
   9  -1  -7   12.88    1.58
  -3  13   4   13.28    1.11
  -3  17   4    7.65    1.03
   0  14  -6    1.09    2.45
   1   7  -6   85.91    1.98
   2  -2  -2  631.74    3.69
   2   0  -4  738.29    3.30
   2   2   6  127.95    1.84
   2   8  -7    3.81    1.40
   3   1   6    0.02    1.10
   3   5  -7    5.12    0.85
   4  -4  -2    3.18    1.14
   5  -5   1    0.91    1.28
   5   5  -8   50.53    1.69
   7  -5  -3    2.88    1.08
   8  -6   0   28.53    1.38
  11  -5  -3    1.23    1.12
  -3   9   3  293.18    2.21
  -3  11   4  229.17    2.15
  -3  15  -2    9.08    1.71
  -2   6   4   82.21    1.37
  -2  12   6    6.20    1.14
  -2  14   6    0.17    0.75
  -1   5   5   -0.88    1.03
  -1  13   7    2.96    1.27
   0   8   7    0.81    1.17
   1   3   6  134.96    1.83
   2   0   5    0.45    1.25
   2   2  -5  378.92    2.52
   2   4   7   74.32    1.72
   3  -3  -2   14.24    1.31
   3   3   7   19.75    1.29
   5  -5  -1    1.25    1.05
   6   4  -8    2.37    1.18
   7  -3  -5   91.88    1.48
   7   3  -8   29.08    1.40
   8  -2  -6   99.70    1.57
   8   0  -7   -0.57    1.41
  10  -2  -6    7.44    1.71
  -3  13  -2   39.77    2.11
  -3  13   5   -1.78    1.14
  -3  15   5    6.35    1.40
  -3  17  -2    9.01    1.59
  -2   4   1  835.68    4.33
  -1   7   6   86.32    1.33
  -1  11   7    9.50    1.32
   1   1   5   19.79    1.17
   1   9   8   -1.34    1.24
   3  -1   5  184.04    2.60
   3   3  -6   22.35    1.19
   4   0   6  140.05    2.22
   4   2   7   64.70    1.82
   4   4  -7  149.99    1.90
   5  -5   0  444.75    3.11
   7   1  -7    3.79    1.35
   8  -4  -4    2.32    1.24
   9  -3  -5   39.15    1.68
  10  -4  -4   -0.14    1.44
  11  -5  -2   33.48    1.30
  11  -5  -1    1.53    1.40
  11  -5   0   40.19    2.03
  -4  16   2   77.54    1.93
  -3   9   4  129.95    1.72
  -2  10   6   27.17    1.01
  -1   3   4  255.41    2.04
   0   4   6    6.05    1.18
   1   5   7    2.23    0.94
   3   1  -5  230.91    2.04
   5   3  -7   47.55    1.43
   6  -4  -3  377.28    2.27
   6   2  -7   34.40    1.45
   7  -5  -2  298.54    2.34
   7  -1  -6   19.77    1.01
  -4  14   3  176.29    2.39
  -4  16   3    7.36    1.46
  -4  18   2   71.18    1.96
  -4  18   3    7.30    1.36
  -3   7   1  496.57    3.11
  -3  11   5  104.90    1.54
  -1   9   7  110.67    1.81
   0   2   5  113.14    1.69
   0   6   7   18.56    1.26
   0  10   8    7.72    1.46
   2   6   8    5.51    1.38
   2  10  -7    2.92    1.39
   3  -3   3  190.78    4.86
   3   5   8   10.10    1.59
   4  -4  -1 1072.89    4.67
   4  -4   2    2.68    1.75
   4   2  -6   94.58    1.51
   5   7  -8   21.22    1.37
   9  -5  -2  119.82    1.56
   9  -3   4   16.55    3.00
   9  -1  -6    0.62    1.50
   9   1  -7   10.33    1.60
  -4  12   1  124.60    2.08
  -4  12   2    9.92    1.41
  -4  16   0   69.38    2.04
  -4  16   4   47.68    1.69
  -3   7   3  305.97    2.11
  -3  15   6    3.21    1.39
  -2   6   5   51.97    1.31
  -2   8   6   70.16    1.45
  -2  12   7   24.09    1.41
   0   8  -5    1.18    1.18
   1   5  -5   -0.11    0.94
   1   7   8   41.83    1.66
   4  10  -8    6.42    1.31
   5   1   7   26.92    1.77
   6   6  -8   -0.04    0.99
   7  -5  -1    4.56    1.03
   7  -1   6    5.29    2.07
   7   5  -8   37.73    1.38
   8  -2  -5  119.27    1.81
   9  -5   1    0.47    1.39
  10  -2  -5   77.62    1.91
  11  -3  -4   -0.64    1.18
  -4  14   0    4.19    1.42
  -4  14   4    4.41    1.05
  -3   9   5  185.63    1.94
  -3  13   6    8.95    1.10
  -2   4   0    9.47    1.16
  -1   5   6  292.03    2.33
   0   0   3    0.63    1.19
   1   9  -6    2.30    1.23
   2   6  -6   21.83    1.17
   3  -3  -1  880.88    4.65
   4  -2   5  168.84    3.15
   5  -1   6    1.25    1.25
   7  -5   1    4.69    1.45
   8  -4  -3  107.94    1.67
   8   0  -6  300.71    2.59
   8   2  -7   51.55    1.58
  -4  12   4   10.68    1.10
  -4  16   5    6.67    1.47
  -3   7   0  375.86    3.18
  -3   7   4  224.26    1.86
  -3  11   6  111.01    1.94
  -2   4   4    2.99    1.04
  -2  10   7    4.62    1.19
  -1   3   5   91.56    1.64
  -1   7   7   77.47    1.45
   0   8   8   10.78    1.04
   2  -2  -1 1609.96    6.85
   2  12  -7   25.08    1.77
   4  -4   0    2.64    1.18
   4   6  -7   27.94    1.30
   5   9  -8    3.88    1.39
   6  -4  -2   18.78    1.12
   7  -5   0  196.26    1.99
   7   3  -7   31.87    1.54
  10  -4  -2   -0.01    1.03
  10  -4   2   -0.65    1.87
  11  -3  -3   19.49    1.42
  -4  10   1   51.48    1.45
  -4  10   3   26.07    1.06
  -4  14   5   89.54    1.77
  -3  11  -2  295.65    4.24
   1   3   7   70.11    1.63
   2   0  -3    0.10    1.12
   2   2   7   76.86    1.61
   3   9  -7   88.55    1.93
   4  -4   1  877.75    5.63
   5   5  -7    0.91    1.03
   6   4  -7  115.42    1.73
   7  -1  -5    7.93    0.93
   7   1  -6   19.60    1.35
   8  -4   3   80.27    2.84
  -4  10   4   29.58    1.21
  -4  12   5   38.70    1.27
  -3   7   5  210.50    1.87
  -3   9   6   56.72    1.39
  -3  13   7    2.52    1.17
  -2   6   6   30.92    1.35
  -2   8   7    4.16    1.10
  -1   1   2   31.27    1.43
  -1   9   8    1.23    0.95
   0   4   7  123.67    1.88
   1  -1   4  130.06    2.34
   1   1   6   59.22    1.50
   1   5   8   45.69    1.60
   2   4   8    0.63    1.13
   3   1   7   53.81    1.97
   3   5  -6  124.59    1.71
   8  -4  -2    1.72    1.21
   9  -1  -5   25.13    1.15
   9   1  -6    0.88    1.40
   9   3  -7   17.38    1.25
  10  -4  -1  126.10    1.70
  10  -2  -4   21.75    1.64
  -4  16  -1    6.10    1.54
  -4  18  -1    5.45    1.93
  -3  11   7   54.54    1.41
  -2   4   5  456.44    2.67
  -1   1   3   62.64    1.63
   0   0   4 2971.85    7.71
   0   2   6  237.21    2.24
   0   6   8    6.40    1.40
   2   0   6  382.34    3.04
   2   2  -4  301.00    2.35
   3   3   8   10.23    1.35
   4   4  -6    0.30    1.09
   5   3  -6   54.29    1.42
   6  -4   3  133.45    3.50
   6   2  -6   84.90    1.32
   7  -3  -3  123.01    1.40
   8  -2  -4  165.96    1.70
   8   4  -7   41.28    1.66
   9  -3  -3   48.80    1.29
  10  -4   0    0.72    1.34
  11  -3  -2    3.23    0.98
  -5  15   2    8.66    1.46
  -5  17   2    4.85    1.55
  -5  17   3    6.27    1.57
  -4   8   2  141.00    1.79
  -4   8   3   64.25    1.48
  -4  10   5    7.91    0.89
  -4  12   6    3.96    1.33
  -3   5   2  323.10    2.29
  -3   5   3   32.52    0.99
  -2  10   8   13.06    1.43
  -1   1   1   26.71    1.57
  -1   5   7   -0.26    0.88
  -1   9  -4    6.14    1.73
   1  11  -6   54.77    1.88
   2  -2   4  288.55    3.50
   2   8  -6   65.38    1.76
   3  -3   0   19.96    1.54
   3   1  -4   16.19    1.17
   3   3  -5  235.70    2.06
   4   8  -7   16.41    1.32
   5   1  -5  129.12    1.67
   6  -4  -1  368.55    2.63
   7   5  -7   -0.04    1.35
   8  -4  -1  109.19    1.41
  10   0  -5    0.08    1.38
  10   2  -6   11.48    1.64
  11  -3  -1   19.75    1.38
  -5  13   3    1.68    1.44
  -5  15   4    6.62    1.13
  -4   8   4   85.37    1.53
  -3   5   4  315.59    2.25
  -3   7   6  134.68    1.81
  -1   3   6  115.33    1.54
  -1   7   8   28.01    1.15
   0   2  -2  791.16    5.79
   0   6  -4   17.91    1.27
   3  -1   6    0.60    1.27
   3  11  -7   55.12    1.83
   5   7  -7   90.51    1.85
   8   0  -5   -0.29    0.98
   8   2  -6   99.88    1.55
  11  -3   0    2.39    1.60
  -5  13   4   42.74    1.51
  -5  15   1    3.25    1.43
  -5  15   5    1.03    1.51
  -5  17   1    6.87    1.58
  -4  10   6   18.19    1.26
  -3   5   1   48.77    1.43
  -3   9   7   64.42    1.35
  -2   6   7   22.49    1.32
  -1   1   4   16.23    0.96
   0  10  -5    3.47    1.33
   1   7  -5  251.80    2.61
   4   0   7    0.17    1.22
   6  -2  -3  163.07    1.82
   7  -1  -4   47.02    1.48
   8  -4   0    1.83    0.97
   8  -4   2    2.63    1.62
   9  -3  -2   46.45    1.42
  -5  11   3   56.23    1.76
  -5  13   5    0.72    1.53
  -4   8   5   31.54    1.02
  -4  12   7   17.79    1.43
  -3   5   5   17.10    1.11
  -2   2   3  998.60    4.16
  -2   4   6   -0.42    1.11
  -2   8   8   24.51    1.22
   1  13  -6   46.43    2.25
   3   7  -6  125.97    1.69
   3  13  -7   -0.28    1.53
   4  -2  -2  172.05    1.94
   6  -4   0   11.17    1.06
   7  -3  -2  149.72    1.81
   7   1  -5    7.04    1.29
   7   3  -6   67.71    1.32
   8  -4   1  125.00    2.08
   8  -2  -3  139.84    1.90
   8   6  -7    7.97    1.49
   9   3  -6   16.03    1.43
  -5  11   4  122.23    1.74
  -2   2   2  633.55    3.65
   0   0   5   -0.45    1.20
   0   2   7   41.58    1.49
   0   4  -3  674.34    4.71
   0   4   8   -0.64    1.31
   1  -1   5   20.25    1.36
   1   3   8   36.53    1.55
   2   2   8   33.01    1.68
   6   4  -6   11.68    1.30
  10  -2  -2   21.06    1.44
  -5  11   5   28.82    1.26
  -5  13   6   24.66    1.31
  -4   8   6   36.16    1.24
  -4  10   7    2.08    1.21
  -3   7   7   73.28    1.41
  -3   9   8   16.72    1.44
  -3  17  -3    2.43    2.74
  -2   2   4  274.16    2.13
  -1   1   5   74.47    1.65
  -1   5   8   79.63    1.70
   1   1   7   10.96    1.27
   2  -2   0  779.44    6.07
   4   6  -6   32.68    1.02
   5  -3  -1  110.22    1.57
   5   5  -6  139.42    1.60
   5   9  -7   88.47    1.53
   6  -4   1  203.25    2.21
   6  -4   2    2.30    1.39
   6   2  -5  100.65    1.67
   6   8  -7    0.09    1.19
   9  -3  -1   24.75    0.85
   9  -3   3   12.38    2.03
  10   2  -5   75.00    2.00
  11   1  -4   -1.38    1.60
  -5   9   4   27.15    1.36
  -5  11   6   52.17    1.64
  -5  17   0    4.05    1.54
  -4   6   4   57.90    1.18
  -3   5   6  158.06    1.68
  -2   6   8    5.66    1.25
   2   0   7    0.21    1.45
   3  -1  -2   32.30    1.09
   8   0  -4  447.35    2.55
   8   2  -5  118.54    1.92
  11  -1  -2   -1.72    1.16
  -6  16   3    0.89    1.64
  -6  16   4   52.47    2.03
  -5   9   3  378.44    2.49
  -5   9   5  296.75    2.45
  -5  11   1   67.64    1.72
  -4   6   2   62.84    1.21
  -4   6   5   71.16    1.41
  -2   2   5  435.57    2.78
  -2   4   7  167.89    1.93
   1   5  -4  616.27    3.69
   2  -2   5  269.70    3.19
   2   0  -2 1811.16    6.27
   3  -3   1  486.66    5.36
   3   1   8    0.14    1.24
   5   3  -5   89.51    1.55
   5  11  -7   14.13    1.57
   6  -2  -2  258.98    2.16
   7  -3  -1  167.69    1.96
   7  -1  -3    9.31    1.25
   7   5  -6  132.64    2.05
   7   9  -7   55.05    1.86
   8  -2  -2  256.91    2.31
   8  -2   5    7.81    2.96
   9  -3   0   37.51    1.16
   9   5  -6   65.52    1.89
  10  -2  -1   73.00    1.38
  -6  14   4   -0.81    1.51
  -6  14   5   51.53    1.78
  -5   9   2   46.56    1.50
  -4   8   7   16.62    1.02
  -4  10   8    7.76    1.34
  -3   3   3  527.39    2.92
  -3   3   4   31.74    1.32
  -3   7   8   44.21    1.61
  -3  15  -3   10.46    4.24
  -1   1   6    4.76    1.26
   0   0   6 1069.20    4.41
   3  -3   4   41.86    2.37
   4  -2   6   31.79    2.03
   4   4  -5  349.95    2.38
   6  10  -7   -1.43    1.25
   9  -3   1   24.99    1.54
   9   1  -4    2.24    1.44
   9   3  -5   42.79    1.63
  10   0  -3   -0.14    1.41
  11  -1  -1   31.22    1.49
  -6  12   4   38.62    1.63
  -6  16   2   -3.85    1.63
  -5   9   6   11.02    1.25
  -5  11   7   12.79    1.06
  -4   6   6   38.78    1.30
  -4  18  -2   41.54    2.89
  -3   3   5  273.45    2.17
  -3   5   0  379.33    3.30
  -2   2   1 1338.52    5.90
   1   9  -5  302.26    3.16
   2  12  -6   10.19    1.48
   4   2  -4  172.84    1.88
   4   8  -6   39.05    1.42
   5  -1   7   23.39    2.23
   5   7  -6   42.03    1.66
   6   6  -6    4.97    0.93
   7   3  -5   93.27    1.66
   8   6  -6   13.06    1.55
  10  -2   0   24.86    1.40
  11   1  -3   36.83    1.61
  -6  14   2    1.41    1.47
  -5   7   4  123.13    1.67
  -4   6   1   90.82    1.55
  -4  10  -1   60.41    2.04
  -4  16  -2   79.29    3.26
  -3   3   2   10.66    0.89
  -2   2   6  122.68    1.59
  -1   5   9   -0.38    1.40
   0   2   8   79.33    1.75
   0   4   9   20.45    1.22
   2   4  -4    2.95    0.91
   3   3  -4   31.71    1.24
   4  -2  -1 1005.28    4.31
   5  -3   0   88.28    1.74
   7  -3   0  133.44    1.60
   7  -3   4   64.09    3.09
   9  -1  -2   -1.15    1.39
  10   4  -5   89.47    1.77
  11  -1   0    0.44    1.36
  11   3  -4    1.16    1.59
  -6  12   6   21.27    1.67
  -5   7   3  319.39    2.42
  -5   7   5  209.43    2.07
  -5   9   7   97.54    1.83
  -4   6   7   37.45    1.53
  -4   8   8   10.20    1.08
  -3   3   6   27.85    1.23
  -2   4   8    0.85    1.26
   1   1   8   23.00    1.44
   3  -1   7   57.61    1.73
   6   4  -5  294.31    2.43
   7   7  -6   84.53    1.96
   8  -2  -1  132.29    1.80
   8   0  -3   -0.09    0.98
   8   4  -5   81.22    1.81
   9   7  -6   44.88    1.48
  -6  10   4   83.63    1.75
  -6  10   5   -1.42    1.35
  -6  16   1    4.17    1.81
  -5   7   6   70.40    1.49
  -4   4   3  839.20    3.42
  -4   4   4    3.27    0.77
  -4   4   5  455.13    2.57
  -3   5   8   46.82    1.75
  -3   9  -2  109.66    3.55
  -1   1   7   53.19    1.46
   2  14  -6    0.04    1.48
   3  11  -6  132.46    2.13
  -6  10   3    0.51    1.30
  -6  10   6   43.55    1.69
  -5   7   2  149.13    1.82
  -5  17  -1    4.20    2.01
  -4  14  -2    2.83    2.18
  -2   2   7  178.11    2.20
   0   0   7    0.00    1.30
   0   8  -4   72.73    2.01
   0  14  -5   57.94    2.54
   2   8  -5   12.70    1.14
   4  10  -6   20.47    1.45
   5   5  -5    2.25    1.11
   5   9  -6   12.49    1.34
   6  -2  -1  207.71    2.15
   6   8  -6   23.97    1.06
   7  -3   1  109.98    1.56
   7  -1  -2   52.39    1.27
   9   1  -3   37.46    1.42
   9   5  -5    0.80    1.05
  10   6  -5    4.51    1.51
  -5   7   7   97.99    1.71
  -5   9   8    0.88    1.05
  -4   4   6    2.05    0.87
  -4   6   8   10.80    1.52
  -3   3   7  104.40    1.77
   2  -2   6  116.91    2.13
   3   7  -5  206.05    2.16
   4   6  -5   68.69    1.55
   7   5  -5    0.30    1.32
   9  -1  -1   32.52    1.23
   9   3  -4   30.82    1.25
  10   2  -3   85.33    1.99
  10   4  -4    0.20    1.47
  11   3  -3   13.43    1.45
  -7  13   4   35.97    1.67
  -7  13   5    7.40    1.68
  -7  15   3    7.46    1.84
  -6   8   5    0.94    1.20
  -6  10   2  119.87    1.92
  -6  10   7    0.01    0.94
  -5  15  -1    3.01    1.95
  -4   4   2    0.82    1.05
  -3   3   1  865.89    4.32
  -2   4   9   68.15    1.92
  -1  -1   4   17.85    1.25
  -1   3   9    4.56    1.47
  -1   7  -3  501.65    5.24
   1  -1   7   11.39    1.25
   1  11  -5   14.06    1.52
   3  13  -6    8.24    1.53
   5  -3   1  103.86    2.01
   7  -3   2  110.22    2.00
   7  -3   3   83.76    2.42
   7   9  -6   -0.81    0.94
   8  -2   0  137.14    1.56
  10   0  -1   -0.49    1.12
  -6   8   6   28.18    1.40
  -5   5   4  307.01    2.08
  -5   5   5    1.13    0.82
  -4   4   7  171.32    2.14
  -3   5   9    1.17    1.45
  -2   0   4  946.26    3.98
  -2   4  -1  557.10    6.71
  -1  -1   3   66.79    1.76
  -1  -1   5   50.88    1.68
   0   2   9    9.13    1.39
   0  16  -5    1.35    1.91
   3  -3   5   73.78    2.65
   3  -1  -1  467.73    3.43
   4  12  -6    5.37    1.29
   6   6  -5   22.03    1.54
   6  10  -6   34.66    1.69
   7   3  -4  107.31    1.51
   8   0  -2  541.37    2.80
   8   6  -5   16.50    1.34
   8  10  -6   18.50    1.34
  -7  11   4   64.03    1.82
  -7  11   6   34.91    1.61
  -7  13   3   18.92    1.76
  -6   8   3    0.23    1.15
  -6   8   7   -0.39    1.18
  -5   5   3    2.70    1.17
  -5   5   6  148.86    1.62
  -5   7   8   19.69    1.21
  -3   1   4   18.52    1.26
  -3   1   5  261.02    2.28
  -3   3   8   13.62    1.45
  -2   0   3    1.74    1.30
  -2   2   8   39.77    1.43
  -1   1   8    3.29    1.33
   0  -2   4  456.63    3.36
   1   1   9    3.27    1.49
   3  15  -6    5.40    1.72
   4   0  -2  689.35    3.44
   4   4  -4    3.43    1.20
   5  11  -6   57.85    1.44
   7  11  -6   32.54    1.70
   8   4  -4    0.82    1.24
   9  -1   0    2.42    0.98
   9   1  -2   -0.50    1.29
   9   7  -5   58.21    1.46
  -7  15   2   28.26    1.96
  -6  16   0   70.17    2.54
  -5   5   7   -2.17    1.21
  -5   7   1  344.64    2.59
  -5  13  -1    1.91    1.57
  -2   0   6  533.57    3.12
   0  -2   3  125.54    2.32
   0  -2   5  107.08    1.82
   0   0   8  285.36    2.81
   1   7  -4  197.87    2.27
   2  10  -5    5.61    1.41
   3  -3   2   28.56    2.57
   5   7  -5  189.76    2.22
   6  -2   0  289.10    2.58
   6   0  -2 1312.52    4.40
   6  12  -6   16.96    1.60
   7  -1  -1    7.18    1.36
   7   7  -5  172.58    2.18
   8  -2   1   55.48    1.30
   8  -2   4   57.23    2.89
   8   2  -3  126.14    1.61
   9   5  -4  128.16    2.07
  10   0   0  104.44    1.87
  10   2  -2   19.88    1.33
  10   6  -4    2.68    1.40
  11   1   0    1.44    1.23
  11   3  -2    3.00    1.10
  -7  11   3   14.05    1.50
  -6   6   5   41.32    1.38
  -4   2   4  180.09    1.87
  -4   2   5  529.81    2.80
  -4   4   8    0.45    1.04
  -4   6   0   55.53    1.53
  -3   1   3  368.29    2.49
  -3   1   6    5.97    0.93
  -1  -1   6    4.20    0.96
   3  -1   8   -0.19    1.52
   3   5  -4  253.83    2.05
   4  -2   0  120.79    1.93
   4   8  -5   37.35    1.47
   8   8  -5    1.06    1.34
   9   3  -3   46.11    1.24
  11   5  -3   -1.34    1.08
  -7   9   4    1.51    1.17
  -7   9   5  101.14    1.70
  -7   9   6    0.11    1.38
  -6   6   4   17.17    1.29
  -6   6   6    6.09    0.94
  -6  10   1    1.30    1.19
  -6  14   0    1.00    1.54
  -5   5   2  529.73    2.86
  -5   5   8   52.23    1.73
  -4   2   6  112.03    1.78
   2  -2   7   82.28    2.20
   3   9  -5  141.42    1.66
   4  -2   7   69.15    2.89
   5  -3   2   44.82    1.48
   5  -1  -1  217.96    2.03
   8  -2   2  100.49    1.87
   8   0  -1    1.01    1.25
   9  -1   1   23.22    1.18
   9  -1   4    1.11    2.14
   9   9  -5   47.91    1.53
  10   0   1    0.71    1.38
  -7   9   7   37.51    1.51
  -6   6   7   15.34    1.33
  -4   2   3  917.15    3.64
  -4   4   1 1099.17    4.47
  -3   1   7   99.63    1.58
  -3   3   9   11.73    1.70
  -2   0   7   -1.93    0.94
  -2   2   9   31.39    1.82
  -2  10  -3    0.99    2.09
  -1   1   9   14.94    1.38
   0  -2   6  218.84    2.38
   1  -1   8   18.02    1.50
   3   1  -2   41.25    1.44
   6   8  -5   -0.70    0.89
   7   5  -4  237.04    2.29
   9  -1   2    0.29    1.60
  10   0   2   90.83    2.85
  11   3  -1   19.43    1.42
  -7   9   3  189.95    2.20
  -7  15   1   11.64    2.12
  -6   6   3   53.97    1.41
  -5   3   4   97.23    1.56
  -5   3   5   82.64    1.23
  -5   3   6   55.31    1.56
  -4   2   7  198.79    1.91
  -4   4   9   29.91    1.54
  -4  12  -2    1.14    2.07
  -1  -1   2   28.09    1.22
  -1  -1   7   41.90    1.53
   1  15  -5    4.62    1.86
   2   0  -1   -0.26    1.16
   5   5  -4  320.27    2.22
   5   9  -5  240.27    2.72
   8   6  -4   37.30    1.48
   8  10  -5    0.66    1.46
   9   1  -1   32.87    1.03
   9   7  -4   63.23    1.72
  10   0   3    0.74    1.80
  10   2  -1   68.97    1.51
  10   8  -4   18.43    1.45
  -8  12   4   55.88    2.04
  -8  14   3   24.64    1.79
  -7   7   5  186.48    2.04
  -7   7   6   90.62    1.78
  -6   6   8    2.92    1.09
  -5   3   7   63.27    1.67
  -3   1   2   42.79    1.44
  -3   1   8    3.26    1.34
   0   0   9    0.15    1.20
   0   6  -3   46.91    1.70
   0  10  -4  141.27    2.50
   1  -3   4  212.55    2.75
   1  17  -5    7.67    1.94
   2   4  -3  780.75    3.83
   2  12  -5   52.93    1.57
   3  -3   6   31.78    2.20
   4  10  -5    7.83    1.22
   5   1  -2    4.43    1.21
   7  -1   0   69.73    1.51
   8   2  -2  224.50    2.25
  10   4  -2    0.93    1.26
  10   6  -3    9.13    1.42
  11   5  -2   27.46    1.17
  -8  10   6   22.63    1.71
  -7   7   4  193.67    2.02
  -7   7   7   48.59    1.78
  -6   4   5  290.55    2.18
  -6   4   6   12.22    1.24
  -4   2   8   31.90    1.73
  -2   0   8  160.29    2.50
  -2   2   0  806.92    5.76
   0  -2   7   54.02    1.67
   4   6  -4   71.58    1.61
   6  -2   1  177.67    1.93
   9   3  -2   42.72    1.21
   9   5  -3    1.21    0.97
  11   3   0    3.24    1.49
  -6   4   4   16.10    1.15
  -6   4   7  140.18    1.98
  -6   8   1    0.85    1.10
  -5   3   3  105.93    1.34
  -5   3   8   23.47    1.68
  -1  -1   8    1.84    1.31
   2   2  -2  674.89    4.02
   5  -3   3   64.68    2.07
   6   0  -1    1.08    0.91
   8   0   0  533.69    2.81
   8  12  -5   13.00    1.21
   9   9  -4    5.89    1.36
  10   2   0   24.57    1.42
  -8  10   4   39.93    1.38
  -7   9   2    2.77    1.27
  -6   6   2   23.46    0.97
  -4   2   2  145.56    1.64
   0  -2   2  902.69    6.07
   1  -3   6  119.05    2.12
   1   9  -4    6.61    1.07
   2  -2   1  983.25    9.02
   3   7  -4  248.79    2.25
   4  12  -5   34.67    1.80
   5  11  -5   29.09    1.10
   7   7  -4  135.54    1.67
   8   8  -4   16.57    1.30
   9   1   0    0.06    0.82
  11   5  -1   -0.13    1.30
  -8   8   5    1.06    1.34
  -8   8   6    8.74    1.47
  -8  14   2   -0.13    1.69
  -7   5   6  137.22    1.91
  -7   7   3  184.54    1.87
  -6   4   8    3.21    1.07
  -5   3   9   14.12    1.57
  -5   5   1    0.56    1.03
  -5   7   0  157.43    2.19
  -4   0   5   -0.34    1.27
  -4   0   6  307.44    2.33
  -4   2   9   44.54    1.61
  -3  -1   5  253.91    2.37
  -3  -1   6    5.78    1.25
  -3   1   9   31.86    1.43
  -2   0   9   -0.84    1.28
  -1  15  -4   31.55    2.29
   1  -3   3  349.53    4.40
   2  -2   8   30.73    2.06
   2  16  -5    7.22    1.73
   4   0  -1    0.93    0.88
   5  -3   4   36.74    2.64
   5  -1   0    6.03    1.20
   5   7  -4  120.36    1.86
   6  12  -5   29.42    1.21
   7  13  -5   12.08    1.22
  10   4  -1  135.38    1.88
  10   8  -3    2.21    0.97
  -8  10   3    3.09    1.46
  -7   5   5   -1.32    0.86
  -7   5   7    1.30    0.95
  -6   4   3  398.72    2.40
  -5   1   5  147.36    1.72
  -5   1   6   -0.11    1.36
  -4   0   7    0.03    1.34
  -3  -1   7  123.48    1.83
  -3   3   0   15.69    1.16
  -2  -2   5  406.29    2.75
  -2  -2   6  140.93    1.91
   0  -2   8   83.81    2.14
   4  14  -5   75.27    2.26
   5  13  -5    1.77    1.36
   6  14  -5   43.24    1.93
   7  -1   1    4.77    0.87
   8   2  -1  131.37    1.75
   8   6  -3   27.11    1.33
   9   3  -1   38.80    1.32
   9   7  -3   77.00    1.53
   9  11  -4   41.90    1.64
  10   2   1   44.08    1.71
  10   6  -2    4.01    1.20
  -8   8   4   10.41    1.37
  -7   5   4  233.41    2.10
  -7   5   8   36.90    1.44
  -5   1   7   55.75    1.60
  -5   3   2  104.52    1.60
  -2  -2   4  362.21    2.81
  -1  -1   9   11.74    1.43
  -1  17  -4    3.60    1.82
   0  12  -4   94.54    2.42
   3  -1   0   38.97    1.51
   4  -2   1  674.60    4.79
   4   2  -2  159.30    1.83
   5  15  -5    0.24    1.63
   6  -2   2  140.51    1.82
   6   8  -4   48.32    1.23
   7   3  -2  142.45    1.65
   7   9  -4    0.70    1.33
   8   0   1    0.13    0.97
   8   4  -2    3.93    1.31
   8  10  -4   43.49    1.36
   9   1   1   23.69    1.34
   9   5  -2  121.85    1.91
  11   5   0   28.43    1.66
  -8   6   6   14.88    1.44
  -8   6   7    7.42    1.27
  -6   2   5   99.37    1.61
  -6   2   6   83.66    1.37
  -6   2   7   41.96    1.56
  -6  16  -1    5.46    2.23
  -5   1   4    0.22    1.11
  -5   1   8    2.69    1.32
  -4   0   8  115.02    2.08
  -3   5  -1   25.09    1.84
  -2  -2   7  153.67    2.08
   1  -3   7   69.29    1.91
   4   8  -4   60.73    1.29
   4  16  -5   10.47    1.32
  -7   7   2  242.91    2.23
  -7  15   0   26.91    2.21
  -6   2   8   34.98    1.61
  -3  -1   8    1.73    1.04
  -1  -3   5   68.56    1.51
  -1  -3   6  119.47    1.79
   3  -3   7   27.51    2.35
   3   5  -3   37.60    1.29
   3   9  -4  128.41    1.99
   7  -1   6    7.59    2.82
   8  12  -4   47.23    1.64
   9   1   2   -0.43    1.47
   9   9  -3   68.86    1.68
  10   4   0    0.57    1.29
  10   8  -2   22.17    1.41
  -9   9   5   42.50    1.51
  -8   8   3    1.29    0.88
  -7   3   6   76.81    1.65
  -7   3   7   34.71    1.57
  -7   5   3    3.13    1.16
  -6   2   4  183.19    1.82
  -6   6   1   64.33    1.45
  -4   0   3    0.55    1.08
  -3  -1   3  348.05    2.46
  -3   1   1  527.94    3.51
  -3  17  -3    1.63    2.78
  -2  -2   8   47.04    1.62
   1  11  -4  130.11    2.18
   5   1  -1  303.90    2.47
   6   0   0  883.43    3.80
   6  10  -4   84.21    1.77
   7  -1   2   42.61    1.31
   7   7  -3  259.96    2.31
   7  11  -4   63.03    1.50
   8   0   2  416.10    3.24
   8   8  -3    1.99    1.15
  10   6  -1   10.47    1.21
  -8   6   4   34.08    1.41
  -7   3   5   76.08    1.21
  -7   3   8   26.68    1.65
  -6   4   2   15.70    0.89
  -6  14  -1   64.08    2.88
  -5   1   9   10.56    1.30
  -4   0   9   -0.27    1.17
  -4   4   0    2.47    1.10
  -3  -1   9   39.54    1.70
  -2  -2   3  975.45    4.32
  -2   0   1    0.37    0.79
  -1  -3   7   27.65    1.48
   0  -2   9   14.06    1.59
   0  14  -4    1.49    1.55
   6  -2   3  146.73    2.37
   7   1   0   74.70    1.48
   8   2   0  178.67    1.86
   9   7  -2   53.69    1.51
   9  11  -3   11.89    1.34
  -9   7   6   31.54    1.41
  -9   9   4    6.64    1.06
  -9  11   3   17.49    1.70
  -8   4   7   30.54    1.60
  -5   9  -1  389.28    4.17
  -4   2   1 1069.36    4.41
  -1   9  -3  351.63    3.98
   1  -3   8   48.80    2.13
   2   6  -3   83.84    1.58
   3   3  -2   16.91    1.34
   4  10  -4   36.50    1.12
   6  12  -4   27.32    1.72
   7  13  -4   28.01    1.30
   8   6  -2   32.21    1.40
   9   1   4    1.25    1.72
   9   5  -1    0.63    0.77
  10  10  -2    8.73    1.10
  -9   7   5   59.80    1.82
  -8   4   5   60.17    1.48
  -7   3   4  112.05    1.42
  -6   2   3  177.11    1.82
  -6   8   0   51.81    1.56
  -5  -1   6    2.56    1.31
  -2  -2   9   38.71    1.61
  -1  -3   8   45.98    1.88
   0  18  -4   31.29    2.50
   4   6  -3   77.69    1.35
   5  11  -4  101.94    1.63
   6  -2   5   97.13    3.64
   7  -1   3    7.40    1.22
   7   3  -1  183.08    2.02
   8   0   3   -0.30    1.45
   8   0   5   -0.02    2.02
   8   4  -1  101.34    1.46
   8  10  -3    6.22    1.13
  10   8  -1    3.21    1.33
  -8   6   3   26.83    1.32
  -8   8   2   14.85    1.37
  -6   0   6  687.88    3.38
  -6   0   7   -1.87    1.41
  -5  -1   5  157.13    1.89
  -5  -1   7   45.94    1.20
  -4  -2   6   85.63    1.33
  -4  -2   7  222.56    2.28
   0  -4   6    4.66    1.33
   0   8  -3   11.77    1.42
   1   7  -3  476.66    3.40
   2  -4   5  214.04    3.47
   4  12  -4   10.91    1.39
   5  -1   1  243.81    2.54
   5   7  -3  341.25    2.63
   6  -2   4  109.22    2.68
   6  14  -4    1.21    1.27
   7  -1   5    4.80    2.19
   7   9  -3  147.90    2.04
   9   3   1   26.71    1.46
   9   9  -2    5.67    1.16
  10   4   2    0.91    1.49
  10   6   0    1.52    0.93
  -9   5   6   51.69    1.76
  -9   7   4   65.06    1.70
  -7   1   6   15.96    1.38
  -7   1   7    4.34    1.40
  -7   5   2  261.48    2.21
  -6   0   5    1.36    1.19
  -6   0   8  167.67    2.88
  -5  -1   8    2.97    1.00
  -5   3   1  121.70    1.67
  -4  -2   8   51.41    1.78
  -3  -3   6   20.37    1.23
  -3  -3   7   89.31    1.61
  -1  -1   1   27.64    1.54
   0  -4   5  260.21    2.49
   1  15  -4   16.67    2.07
   2  -4   6    1.35    1.70
   5  13  -4   50.85    1.28
   6   8  -3    0.79    0.85
   6  16  -4   43.57    1.61
   7  -1   4   23.39    1.65
   8  12  -3   19.70    1.31
  -8   4   4    0.54    0.86
  -7   1   5    6.46    1.14
  -7   1   8    1.36    1.18
  -7   3   3  151.61    1.70
  -7   7   1  259.08    2.35
  -6  12  -1   44.34    2.31
  -5   5   0  473.04    3.22
  -4   0   2  772.30    3.54
  -3  -3   5  240.09    2.24
  -3  -1   2   44.13    1.41
  -2  12  -3   62.50    2.66
  -1  -3   3  133.40    1.89
   0  -4   7  102.38    2.12
   1  17  -4    4.06    1.76
   2  14  -4    2.55    1.30
   3   7  -3  403.96    2.83
   3  13  -4   15.73    1.43
   4   0   0 1020.80    4.79
   4   4  -2    2.11    1.12
   4  14  -4    6.78    1.54
   5  15  -4    9.16    1.48
   5  17  -4    0.24    1.78
   6   0   1    0.03    0.98
   8   2   1   60.65    1.30
   8   8  -2   14.20    1.13
   9   5   0   99.43    1.69
   9   7  -1   66.71    1.42
   9  11  -2   42.55    1.35
  10  10  -1    8.80    1.31
  -9   5   5    1.26    1.02
  -9  11   2   52.83    2.00
  -8   2   6  114.74    1.80
  -8   2   7   41.24    1.32
  -8  10   1    4.37    1.35
  -6   0   4 1191.60    3.83
  -5  -1   4    1.40    0.86
  -5   1   2    2.15    1.07
  -4  -2   9   63.36    1.93
  -3  -3   8   11.43    1.39
  -1  -3   9    5.30    1.53
   2  16  -4   65.66    2.30
   7   1   1    4.56    0.72
   7   7  -2  201.37    2.18
   7  11  -3    6.08    0.98
   9   3   2   28.88    1.61
  10   8   0   21.29    1.48
  -9   7   3   79.95    1.80
  -8   2   5   86.54    1.62
  -6   4   1  401.68    2.59
  -3  -3   4   30.31    1.29
  -2  -4   6    1.01    0.96
  -2  -4   7  172.50    2.19
   0  -4   4   13.47    1.19
   2   4  -2   11.42    1.23
   3  -3   8   10.56    2.36
   3  17  -4    7.38    1.28
   4  -2   2   86.99    2.13
   4   2  -1 1102.51    4.52
   4   8  -3   58.36    1.51
   5   9  -3  444.82    2.99
   6  10  -3    1.57    0.92
   8   4   0    0.51    1.02
   8   6  -1   18.93    0.96
 -10   8   4   22.64    1.51
  -9   3   6   16.85    1.32
  -9   3   7   14.97    1.15
  -9   5   4  120.42    1.89
  -8   4   3  113.82    1.71
  -7   1   4   40.88    1.33
  -6   2   2  187.28    1.69
  -3  -3   9   21.36    1.43
  -2  -4   5  427.69    3.08
  -2  -2   2  659.70    3.85
   0  -4   8    0.75    1.65
   2  -4   7  100.16    2.99
   2   8  -3   36.94    1.21
   5   1   0    3.57    1.18
   7   3   0  146.52    1.71
   7   5  -1    5.28    1.10
   7  15  -3    5.86    1.52
   8   2   2  106.75    1.99
   8  10  -2   30.52    1.08
   9   9  -1   69.17    1.22
  10   6   2    1.09    1.66
 -10   6   5    3.81    1.36
  -7   9   0    1.51    1.38
   2  -4   4    4.14    1.27
   5   3  -1  109.50    1.49
   6   2   0  258.17    2.22
   6  12  -3   48.29    1.52
   8  12  -2   29.63    1.47
   9   3   4   10.53    2.00
   9   5   1    1.14    0.96
   9   7   0   42.13    1.40
  10   8   1    4.56    1.43
  -9   3   5   38.68    1.49
  -8   2   4  176.99    1.92
  -7  -1   6   16.30    1.41
  -7  -1   7    3.35    1.09
  -7  -1   8    2.73    1.57
  -7   3   2  174.32    1.85
  -6  -2   6  110.66    1.91
  -6  -2   8   40.62    1.64
  -6   0   3    0.61    1.13
  -5  -3   6   62.79    1.67
  -5  -3   7   56.32    1.55
  -5  -1   3  175.98    1.64
  -4  -2   3  922.00    3.68
   1   9  -3  553.21    3.97
   3   9  -3  376.67    2.90
   5  11  -3   44.35    1.62
   6  14  -3   74.92    1.99
   7   1   2   51.50    1.37
   7   9  -2    1.66    0.78
   8   8  -1    1.70    1.00
   9  11  -1    8.92    0.97
  -8   0   6  269.85    2.38
  -8   0   7    0.51    1.04
  -8  14   0    0.24    1.72
  -7   5   1    4.87    1.06
  -6  -2   5  105.81    1.67
  -5  -3   8   20.15    1.16
  -2  -4   4    3.30    0.95
  -2  14  -3   96.33    3.03
  -2  18  -3    5.98    2.33
  -1  11  -3   24.82    1.53
   2   0   0 2124.10    9.35
   2   2  -1 1911.68    7.22
   4  10  -3   23.87    1.05
   5  -1   2    0.69    1.09
   6  16  -3    2.52    1.08
   8   2   3   31.23    1.69
   8   4   1  120.44    1.76
   8  14  -2    1.50    0.88
 -10   6   4   -0.32    0.98
 -10   8   3    1.14    1.45
  -9   1   7    9.25    1.46
  -9   5   3    1.22    0.82
  -7  -1   5    4.72    1.24
  -7   1   3    6.70    0.86
  -6  10  -1    0.45    1.41
  -5  -3   5   93.50    1.64
  -4  -4   8    0.60    1.23
  -3  -3   3  553.64    2.97
  -2  16  -3    8.46    2.10
  -1  -5   6  267.06    2.67
   0  -4   9    9.85    1.97
   0  10  -3    3.06    1.13
   5  13  -3    2.33    1.20
   6   0   2  416.40    2.67
   7  11  -2   56.24    1.49
   8   6   0   19.33    0.92
   9   5   2   51.45    1.73
 -10   4   5   85.96    1.98
  -9   1   6    4.34    1.30
  -9   3   4   25.37    1.09
  -9   7   2   69.69    1.78
  -9  11   1    8.82    1.64
  -8   0   5    1.11    1.13
  -8   4   2    3.47    1.01
  -8  12   0   51.46    2.56
  -5   7  -1  253.67    3.18
  -4  -4   5  445.76    2.79
  -1  -5   7    0.89    1.19
   2  -4   8    0.54    2.02
   2  10  -3    7.56    1.06
   3  -3   3  161.33    4.08
   4  12  -3   73.84    1.88
   5  15  -3    1.77    1.01
   5  17  -3    7.35    1.28
   7  13  -2   36.42    1.33
   8   2   4   58.64    2.24
   8   2   5    7.16    2.01
   8  10  -1    3.28    0.89
   9   7   1   45.76    1.32
  -8   2   3  129.19    1.69
  -6  -2   4  202.32    1.86
  -3  -5   7    6.44    1.04
  -1  -5   5    0.32    0.84
  -1  -5   8  105.35    2.47
  -1  19  -3   30.51    2.43
   3  -1   1  443.65    4.09
   3  11  -3  164.56    1.89
   4  14  -3  174.85    2.38
   4  18  -3    8.85    1.94
   6  10  -2   84.94    1.69
   7   1   3    8.48    1.34
   7   5   0  200.16    1.86
   7  15  -2   25.86    1.37
   8  12  -1   13.22    1.09
   9   5   3    1.11    1.34
   9  11   0   39.08    1.48
 -10   2   6   11.65    1.47
 -10  10   2    5.70    1.64
  -9   1   5   19.47    1.06
  -8   6   1   18.18    1.19
  -7   7   0  206.42    2.70
  -5  -3   4   72.29    1.23
  -5   1   1  204.18    1.81
  -4   0   1    0.42    0.77
  -3  -5   6  139.84    1.89
  -3  -5   8   53.68    1.63
  -1  13  -3   24.41    1.76
   0  -4   3  820.63    5.58
   1  -5   6  138.79    2.74
   1  11  -3   18.89    1.27
   4  16  -3   10.94    1.23
   8   4   2    3.71    1.28
   8  14  -1   13.04    1.18
   9   9   1   49.27    1.92
 -10   4   4    0.13    0.90
  -9   3   3   36.56    1.25
  -9   9   1   78.27    2.07
  -7  15  -1    1.76    2.34
  -6   0   2 1382.26    4.16
  -6   2   1  197.71    1.91
  -5  -1   2    3.04    1.04
  -4  -4   4    3.08    1.07
  -4   2   0  119.91    1.84
  -3  -5   5   16.04    1.25
  -1  -3   2  501.66    3.80
  -1  15  -3    7.41    1.87
  -1  17  -3    5.47    2.04
   0  12  -3   97.52    2.19
   1  -5   7    2.57    1.60
   1  19  -3   23.50    2.14
   2  12  -3   82.90    1.68
   3   3  -1  648.66    3.56
   3  13  -3   -0.31    0.87
   3  17  -3    0.53    1.62
   4   4  -1 1287.78    4.49
   6   2   1  132.14    1.70
   6   4   0   12.82    1.13
   6  12  -2   46.25    1.39
   7   9  -1   88.80    1.32
   8   6   1   15.94    1.29
   9   7   2   19.78    1.33
 -10   2   5   63.61    1.69
  -9  -1   7   12.88    1.56
  -8  -2   6  107.92    1.93
  -8  10   0   42.85    1.99
  -7  -3   6   77.82    1.85
  -6  -4   6   12.86    1.41
  -6  -4   7  100.09    1.53
  -6  -4   8    1.12    1.35
  -5   3   0   78.26    1.51
  -4  -2   2  200.01    1.97
  -3  -5   9    1.56    1.28
  -3  -1   1  505.39    3.30
  -3   1   0   39.19    1.42
  -2  -4   3  726.95    3.62
   1  -5   5    4.44    1.13
   1  13  -3   25.89    1.66
   2  16  -3   13.63    1.51
   4   0   1    0.66    1.00
   4   8  -2  133.36    1.80
   5   1   1  219.76    1.99
   6   0   3   -0.01    1.10
   7   1   4   22.47    1.71
   7   1   6    6.81    2.24
   8  10   0   35.95    1.65
  -9  -1   6   -1.10    1.25
  -9   1   4    2.31    0.87
  -7   3   1  181.82    1.85
  -7  13  -1   10.30    2.32
  -5  -5   7    0.00    1.11
  -5  -5   8   51.92    1.57
  -1  -5   4  633.29    3.90
  -1  -5   9    0.87    1.54
   0  14  -3  105.18    2.26
   0  16  -3    4.39    1.67
   1  15  -3    4.25    1.39
   1  17  -3   14.34    1.83
   3   7  -2  320.17    2.32
   5   3   0   73.81    1.46
   5  11  -2  167.88    2.14
   7   1   5    5.87    1.69
   7   3   2  112.09    1.78
   7   7   0  177.12    1.78
   7  11  -1    8.43    0.77
   8   4   3   66.43    1.85
   9   7   3   40.42    1.77
   9   9   2   -1.39    1.41
  -8  -2   5   99.00    1.71
  -8   2   2  217.98    1.86
  -7  -3   5   73.78    1.27
  -7  -1   3    6.31    1.10
  -6  -4   5  294.00    2.37
  -6   4   0   12.32    1.01
  -5  -5   6  157.80    2.17
  -5  -3   3  143.40    1.65
  -2  -6   7   18.05    1.20
   0   6  -2    4.84    1.13
   1  -5   8   44.86    2.38
   1  -3   2  474.83    7.24
   4   2   0  104.12    1.52
   7   5   1    5.46    1.07
   7  13  -1   13.69    0.78
   7  15  -1    7.23    1.15
   8   8   1   -0.09    1.11
   8  12   0   32.41    1.06
 -10   0   6   57.41    1.43
 -10   2   4   18.21    1.37
 -10   4   3   97.29    1.70
  -9  -1   5   23.52    1.33
  -9   7   1   70.47    1.77
  -8   0   3    1.42    1.14
  -6   8  -1    2.96    1.37
  -3  -5   4  289.95    2.29
  -3  -3   2   15.97    1.18
  -2  -6   6   20.24    1.08
  -2  -6   8    6.83    1.24
   4  10  -2   53.49    1.41
   5  15  -2    8.12    1.23
   5  17  -2    4.64    1.14
   8   4   4    1.66    1.53
   8   6   2    8.71    0.98
   8  14   0    0.01    0.72
 -10   6   2    3.67    1.21
  -8   8   0   15.04    1.42
  -5  -5   5    0.73    0.72
  -4  -6   6   43.55    1.31
  -4  -6   7   26.87    1.35
  -4  -6   8   17.31    1.32
   6   0   4  223.63    3.08
   6   6   0   39.43    1.11
   6  10  -1    0.78    0.60
   7   9   0    1.13    0.81
   8   4   5   31.58    1.82
   8  10   1    2.86    1.24
 -10   0   5    1.31    0.95
 -10  10   1    6.59    1.76
  -9  -3   7   19.06    1.48
  -9   1   3   24.88    0.99
  -9   3   2   44.37    1.35
  -8  -4   7   38.96    1.73
  -8  -2   4  171.92    1.86
  -7  -5   8   44.15    1.54
  -7  -3   4   97.87    1.34
  -4  -4   3  586.69    2.77
  -2  -6   5   37.42    1.17
   0  -6   6   13.67    1.42
   0  -6   7   23.40    1.83
   4  12  -2    9.71    1.19
   4  18  -2   56.14    1.61
   6   2   2  123.13    1.89
   6  12  -1   41.77    1.23
   7   3   3   80.75    1.88
   8   6   3    8.93    1.53
 -11   3   4    2.75    1.00
 -11   5   3    0.19    1.39
  -9  -1   4    2.85    1.16
  -8  -4   6    0.10    1.32
  -7  -5   7   -0.82    0.95
  -2  -2   1 1742.07    6.60
  -2   0   0 2160.18    8.66
   2   8  -2  102.98    1.67
   3  19  -2    4.70    1.58
   4  14  -2    2.94    0.92
   4  16  -2   75.82    1.55
   6   0   5    0.01    1.38
   6   4   1  177.67    1.67
   6  14  -1   48.94    1.11
   6  16  -1    4.37    0.98
   7  11   0   45.92    0.94
   8   8   2   16.64    1.04
 -10  -2   6    8.80    1.26
 -10   2   3   82.37    1.63
  -9  -3   6   14.50    1.06
  -9  11   0   28.07    2.14
  -7  -5   6   99.10    1.63
  -6  -6   7   17.47    1.29
  -6  -6   8    3.84    1.32
  -5  -5   4  322.87    2.32
  -4   4  -1 1043.97    5.80
  -4  18  -2   34.40    2.65
  -1   7  -2  478.23    4.69
   0  -6   8    7.32    1.83
   3  11  -2  422.91    3.17
   5   5   0  494.00    2.52
   7   5   2  126.50    1.74
   7  13   0   13.92    0.76
   7  15   0   15.18    0.88
   8   6   4    2.97    1.58
 -10   0   4   93.32    1.69
 -10   4   2    1.91    1.20
 -10   8   1    0.96    1.22
  -9   5   1    1.28    1.01
  -8  -4   5   68.39    1.58
  -7  -1   2   50.04    1.00
  -7   1   1    6.92    1.09
  -6  -6   6    5.62    1.32
  -6  -2   2  185.02    1.59
  -6   0   1    0.79    0.74
  -5  -1   1  304.10    2.19
  -3  -7   7   63.15    1.50
  -3  -7   8   29.69    1.51
   0  -6   5   28.61    1.18
   0  -2   1   32.01    1.87
   2   4  -1  900.84    4.38
   3   5  -1   34.08    0.99
   3  13  -2   20.89    1.31
   3  15  -2    9.16    1.47
   3  17  -2   12.17    1.30
   5  -1   4    1.47    1.20
   5   1   2    0.76    0.86
   6   8   0   29.64    0.82
   7   3   4   65.03    1.81
   8   8   3    1.73    1.44
   8  10   2   29.34    1.20
  -9  -3   5   28.13    1.10
  -8   0   2  412.84    2.27
  -8   6   0   17.84    1.31
  -7  -5   5    0.92    0.89
  -7  -3   3  149.43    1.65
  -5  -7   7   69.99    1.61
  -5  -7   8   20.06    1.32
  -5  -3   2  105.70    1.52
  -3  -5   3   35.97    1.23
  -2  -6   4   86.47    1.73
  -1  -5   3    2.33    1.16
   2  10  -2  127.31    1.96
   2  18  -2   48.33    1.89
   5   3   1  104.57    1.49
   5  11  -1   36.09    0.96
   5  13  -1   -0.63    1.07
   5  15  -1    2.39    1.26
   5  17  -1    5.78    1.12
   7   3   5    6.45    1.88
   7   3   6    7.97    2.02
   8  12   2   19.74    1.23
 -10  -2   5   46.55    1.33
  -8  10  -3    0.25    2.34
  -7   7  -2  108.32    2.91
  -4   0  -6  140.86    2.61
  -2  -2  -7   54.82    1.84
  -2  10   3    4.72    1.49
   0  -2  -9    5.92    2.44
   0   8   3   11.26    1.47
   2   8   3   28.07    1.64
   4  -4  -8    0.33    1.74
   4  10   3   16.35    1.33
   7  -1  -2   51.05    2.76
   7   5   1    3.30    1.58
   8   0  -2  505.25    5.22
  11   5  -2   27.65    2.90
  -6   4  -6    1.33    1.36
  -4   0  -5   -0.72    1.45
  -4   0  -4  245.76    2.60
   1  17   4    1.21    2.10
   2  -4  -4   -0.01    1.59
   3  -3  -9   -0.65    2.43
   4  -4  -4    1.57    1.70
   4   0   0  711.30    5.09
   4   2   1  591.96    3.79
   5  -3  -9   10.86    2.74
   5  11   3   24.35    1.45
   7   9   2    0.20    1.38
   9   9   1   15.70    2.53
  11   3  -3    3.00    2.58
  -7   7  -5   45.39    2.64
  -6   4  -5   39.49    2.07
  -6   4  -4   -0.39    1.86
  -6   4  -3   70.09    1.87
  -6   6  -1   49.40    2.45
  -4  16   3    9.67    2.15
  -4  18   3    3.53    2.00
  -3  11   3  156.09    3.81
   0  18   4   22.53    2.62
   1   7   3  676.24    3.94
   2  -4  -6   -0.42    1.63
   2  14   4    4.28    2.09
   4  -4  -7  190.31    2.60
   6  12   3   21.16    2.14
   8   6   1   19.33    1.82
   9   1  -2    1.41    1.86
   9   5   0   87.23    2.51
  -5  11   2   98.17    5.06
  -4  14   3  110.37    4.36
  -3   1  -8   -2.03    1.51
  -2   0  -8  147.23    3.36
  -2   0  -1    1.37    1.16
  -1  17   4    3.22    2.24
   0  -2  -8   92.08    2.47
   0  14   4    1.30    1.46
   1  13   4   34.95    2.36
   2  -4  -5  391.11    3.34
   3  15   4    2.96    1.93
   4  -4  -6    0.65    1.74
   4   8   3   11.49    1.11
   5   9   3  181.23    2.67
   6   6   2   37.79    1.66
   7  -3  -7   33.73    2.47
   8  10   2   30.50    2.22
  10   0  -4  116.43    5.72
  10   4  -1   95.64    3.04
  -6   8   0   27.32    2.70
  -1  -1  -8    9.42    1.69
   0  12   4   92.28    2.65
   1  -3  -7   30.75    1.87
   1  -3  -3  228.11    3.10
   2  -2  -9   34.97    2.29
   2  12   4   34.33    2.16
   3  13   4   18.18    1.69
   4   4   2    1.24    0.96
   4  14   4    0.52    2.19
   4  16   4   20.26    2.22
   6  10   3    0.99    1.66
   7  -3  -5  106.55    4.14
   7   7   2  111.60    2.34
   7  13   3    5.83    2.28
   9   7   1   50.83    2.37
  10   2  -2   20.53    2.74
  10   6   0    3.91    1.86
  -5   3  -5   36.86    1.91
  -5   3  -3   99.96    2.39
  -1  13   4   35.12    2.09
   1  -1  -9   20.19    2.37
   1  11   4   95.82    2.70
   2   6   3  134.47    2.04
   5  -3  -3  124.61    4.89
   5  15   4    6.57    2.24
  -7   9  -5    1.68    2.30
  -7   9  -2   -1.41    1.99
  -5   3  -4   22.80    1.50
  -4   2  -6   21.71    1.55
  -4   2  -2  126.54    2.43
  -2   0  -7   -0.05    1.92
  -2   8   3   32.32    1.84
  -1  -1  -7   10.81    2.02
  -1   1  -9    3.52    2.01
  -1   7   3  467.36    4.09
   0   0  -9    1.50    2.17
   1  -3  -6  114.28    2.16
   3   1   1  296.49    3.08
   3  11   4   77.25    1.89
   4  -2  -9   55.77    2.67
   4  12   4    1.05    1.35
   5  13   4   12.29    1.95
   6  -2  -2  189.53    5.14
   7  11   3    2.07    1.48
   8   8   2   11.98    1.39
  -7   9  -3   60.94    2.57
  -7  13   0    8.72    3.38
  -6   6  -5    6.56    1.65
  -6   6  -2   25.11    1.85
  -4   4   0    1.31    2.21
  -3   1  -6   -0.53    1.74
  -3   3  -8   12.60    2.15
  -1  11   4  124.47    3.09
   0   6   3   56.94    1.71
   1  -3  -5   86.64    2.16
   1  -3  -4  294.41    3.01
   1   3   2  274.77    2.69
   4   6   3   58.53    1.67
   6   8   3    4.37    1.61
   7   1   0   71.11    1.93
   7   3   1  115.16    2.25
   8   2   0  163.56    2.67
  10   8   1    1.72    2.26
  -7  11  -1    6.19    2.49
  -6   6  -4   12.32    1.82
  -6   8  -6    2.19    2.29
  -5   5  -6   58.44    2.54
  -4   4  -7  114.86    2.94
  -3  17   4    2.76    2.27
  -2   0  -6  540.25    3.67
   0  -2  -6  162.07    2.25
   1   9   4    1.60    1.54
   3   9   4   53.66    1.93
   4  10   4   16.67    1.75
   5  -3  -7   60.30    1.98
   5  11   4   61.42    2.27
   6   2   1  102.63    1.77
   7   9   3   61.34    2.33
   8  -2  -7   27.25    2.65
   8   4   1   58.63    1.63
   9   3   0   40.14    1.94
   9   9   2    1.75    1.53
  11   1  -4    1.02    3.45
  11   3  -2    2.86    2.41
  -6  16   2   18.91    4.02
  -5   5  -1   -0.20    1.85
  -3  15   4    7.06    2.32
  -2   2  -8   19.54    1.72
   0  -2  -3  149.75    2.63
   1  -1  -8    2.16    1.47
   3  -3  -3  639.72    5.94
   3  -1  -9   23.30    2.03
   3   5   3    6.41    1.30
   6   0   0 1079.87    5.82
   6   4   2    0.73    1.08
   6  12   4   16.08    2.03
   7   5   2   82.73    1.72
   9   5   1    0.44    1.87
  -5   5  -5    2.69    1.80
  -5  17   3    1.80    2.23
  -3   3  -7   26.57    2.05
   0  -2  -4  550.87    3.77
   0  16   5    2.01    2.27
   1  15   5    6.73    2.36
   2  -2  -7  199.07    2.65
   2   0  -9   -0.52    2.12
   2   8   4   49.65    1.75
   2  14   5   38.90    2.32
   2  16   5    3.99    1.91
   3  15   5    2.70    2.48
   5  -3  -6   61.03    2.11
   5  -1  -9   11.03    2.40
   5   1   1  166.03    2.34
   8   0  -1    0.88    2.13
   8   6   2    6.07    1.32
   8  10   3   -0.92    1.52
   9   1  -1   40.57    2.53
  10   4   0    0.00    2.08
  -7  11  -3    6.27    2.26
  -7  11  -2   43.94    2.79
  -6   8  -5    0.58    1.60
  -4   4  -6    2.16    1.88
  -3  13   4    7.28    2.37
  -1  -1  -3   14.30    1.62
   0   2  -9   14.32    2.35
   0  14   5   34.56    2.56
   1   1  -9   18.38    2.35
   1  13   5    7.10    1.84
   3  13   5    1.84    1.83
   4   8   4   84.20    2.06
   5   9   4   11.07    1.30
   6   6   3   34.36    1.74
   6  10   4   18.76    2.04
   7   7   3  114.45    2.61
   8  -2  -6  101.02    3.22
   9  -1  -7    3.71    2.33
   9   7   2   19.00    2.13
  10   6   1    5.28    2.24
  -6   8  -1    1.97    1.72
  -5   5  -4  140.91    2.62
  -5   7  -6   27.60    2.28
  -5  15   3    1.19    2.16
  -2   0  -3    1.10    1.13
  -2   2  -7   54.70    2.06
  -1   9   4    4.79    1.08
  -1  15   5    1.67    2.08
   0   8   4   50.92    1.66
   1  -1  -7   58.96    2.19
   2   2   2  519.14    3.61
   2  12   5   36.73    2.24
   3   7   4  125.01    2.06
   4   2   2  109.39    1.93
   4  14   5   32.82    2.11
   5  -3  -5  100.76    2.43
   5   5   3    1.92    1.03
   8   8   3    1.75    1.69
   9  -1  -3   33.31    3.81
  10   0  -3    0.68    3.09
  10   2  -1   45.88    2.69
  -7  15   0    2.51    3.72
  -5   5  -3    1.84    1.70
  -3   3  -6   37.06    1.95
  -2   4  -8    0.06    1.85
  -2  10   4   63.76    2.40
   0   0  -7    0.42    1.40
   1   7   4  302.57    2.97
   2  -2  -6  159.15    2.39
   3  -1  -8    1.72    1.51
   4   0  -9   -1.47    2.38
   4   4   3  677.39    3.66
   4  12   5   32.96    2.26
   5  -3  -4   91.68    2.74
   5  13   5   -0.26    1.85
   6  -2  -7   45.48    2.43
   7  -1  -8    5.52    2.93
   7  -1  -1    6.95    2.25
   8  -2  -5  103.80    4.14
  -6   8  -2   23.13    2.06
  -6  10  -5    0.12    2.19
  -4  16   4   34.44    3.05
  -1  13   5    8.22    2.10
   0  12   5   21.98    1.83
   1  11   5   11.74    1.39
   3  11   5   21.77    1.63
   5  -1  -8    3.64    2.04
   5   7   4   72.85    1.99
   6   8   4   21.79    1.80
  11   1  -3   30.37    3.42
  11   3  -1   16.19    2.66
  -7  13  -2   15.25    2.58
  -5   7  -5   71.50    2.15
  -4  10   3   15.47    2.43
  -3   5  -7   -1.42    1.89
  -2   2  -6  141.98    2.33
  -2  16   5    4.69    2.37
  -1   5   3    0.14    1.32
   1   1  -8    0.53    1.97
   2  10   5    1.82    1.15
   3   1  -9   41.15    2.70
   4   0   1   -0.50    1.39
   4  10   5   10.66    1.62
   5  -1   0    2.24    1.54
   5  11   5   24.34    1.92
   7   3   2   97.46    2.14
   7   9   4    2.25    1.38
   8   2   1   65.64    2.05
   8   4   2    0.99    1.67
   9   3   1   22.53    1.93
  -6  10   0   63.59    3.47
  -4   4  -4    0.12    1.20
  -4   4  -1  737.55    5.53
  -4   6  -6    5.59    1.75
  -4   8  -7    5.68    2.12
  -3   3  -5  100.93    2.16
  -2   6   3  100.28    2.52
  -2  14   5   54.34    3.04
   0   0  -6 1264.80    5.21
   0   4  -9   21.74    2.14
   1   3  -9    7.10    2.15
   2   2  -9   41.35    2.53
   3   9   5  150.90    2.66
   7   5   3    1.98    1.57
   8   6   3   12.55    1.79
   9  -1  -6    3.55    2.23
   9   5   2   55.20    2.01
  10   4   1   82.01    2.71
  -7  15  -1    3.86    3.13
  -6  10  -4   16.24    1.61
  -5  13   3    0.54    2.22
  -4   4  -3  598.75    4.08
  -4  14   4    2.91    1.84
  -1  11   5   11.45    1.73
   0   4   3  523.31    3.56
   0  10   5    1.38    1.24
   1   9   5  171.92    2.87
   2   0   1   -0.31    1.59
   3  -1  -7   96.66    1.89
   5   1  -9   11.91    2.68
   6  -2  -6  120.17    2.70
   9   1   0    1.79    2.14
   9   7   3   31.05    2.08
  10   6   2    2.52    2.20
  -6  10  -3    1.31    1.71
  -3  17   5    0.67    2.02
  -2   6  -8    2.57    1.47
  -1   7   4  247.08    3.08
   1  -1  -5   93.54    2.29
   2   8   5    9.93    1.54
   3   1   2    1.29    1.37
   3   5   4  163.17    1.98
   4   0  -8  105.04    2.80
   5   3   3   81.13    1.79
   5   9   5   50.82    2.15
   6   6   4   12.25    1.69
   6  10   5    1.31    1.85
   7  -1  -7    1.63    2.87
   7   7   4   52.26    2.31
  10   0  -2  117.92    4.65
  10   2   0   13.12    2.23
  -6  12   1   23.72    4.27
  -5   7  -3  179.20    2.75
  -4   6  -5   22.35    1.92
  -3   3  -4   25.65    1.42
  -3   5  -6   75.61    1.85
  -3   7  -7   48.48    2.44
  -2   8   4   90.03    2.53
  -1   5  -8   42.71    2.28
   0   2   2 1019.35    6.14
   1   1  -7   63.72    2.15
   1   3   3  350.55    2.96
   1   5   4  466.31    3.23
   1  13   6   19.81    2.04
   2  -2  -3  941.54    5.93
   2   0  -7    0.16    1.29
   3  13   6    7.05    1.71
   4   8   5    5.21    1.21
   5   1   2    1.13    1.43
   5   5   4  200.99    2.44
   6   0   1    0.77    1.47
   8   8   4    6.04    2.04
  11   1  -2   -0.77    2.82
  11   3   0    0.53    2.08
  -6  10  -2   43.07    2.32
  -6  10  -1    0.69    1.73
  -4   8  -6   24.98    2.09
  -3  15   5    4.50    2.25
   0  14   6   -1.21    2.15
   2  12   6    9.87    2.08
   3   1  -8    0.83    1.81
   3   7   5  123.79    2.29
   4   2  -9   47.68    2.37
   4  12   6   -2.09    1.96
   9  -1  -2    1.97    2.91
  10   0  -6   32.91    3.19
  -5   7  -2   79.21    2.18
  -3   3  -3  113.95    1.98
  -2   4  -6    0.27    1.65
  -2   8  -8    7.20    2.15
  -1   9   5  208.56    3.74
  -1  15   6    6.87    2.41
   0   4  -8   -1.64    1.35
   0   8   5   -0.17    1.46
   1   3  -8   41.00    2.27
   1   5  -9   -1.01    1.87
   2   2  -8   40.73    2.08
   2   4  -9   51.85    2.65
   3  -1  -6    4.14    1.63
   3   3  -9   19.80    2.08
   3  11   6   17.68    2.34
   4  -2  -5  527.81    4.17
   4   2   3  403.96    2.93
   4   4   4    2.28    1.28
   6  -2  -1  181.98    4.05
   6   8   5    3.16    1.72
   7   9   5    3.53    2.13
   8   4   3   78.49    2.19
   9   3   2   22.50    1.85
  -5  11  -5   25.11    2.62
  -4   6  -4   16.77    1.73
  -3   3  -2   34.24    1.90
  -3   5  -5    3.37    1.69
  -3  13   5    0.83    1.90
  -2   2   0  663.25    8.90
  -2   6  -7   15.99    1.79
   0  12   6   20.26    2.43
   1   7   5  179.29    2.45
   1  11   6   24.67    1.79
   2   2   3  668.73    3.75
   2   4   4    3.94    0.94
   7  -1   0   50.01    2.13
   7   3   3   62.56    2.02
   8   2   2   84.16    2.15
   9  -1  -5   16.85    2.64
   9   5   3   -0.25    1.40
  10   4   2   -0.40    2.13
  -4   6   1   59.84    4.35
  -4  10  -6    8.38    2.11
  -3   7  -6   58.51    2.18
  -3   9  -7   13.32    2.01
  -1   7  -8   41.79    2.19
  -1  13   6   33.03    2.42
   1   1   2  137.81    2.27
   2   0  -6  570.41    3.83
   2   6   5   75.83    1.85
   4   0  -7    0.89    1.78
   4   6   5   26.72    1.52
   4  10   6    1.79    1.43
   5   1  -8    3.12    2.07
   6   2   3  184.19    2.30
   6   4   4   -0.52    1.53
   7   1  -8    3.51    2.42
   7   1   2   50.92    1.81
   7   5   4   43.76    1.63
   8   0  -7    1.77    2.71
   8   6   4    0.97    1.38
  10   2   1   49.71    2.99
  -6  12  -2   27.40    3.02
  -4   8  -5    3.72    1.37
  -1   5  -7    0.91    1.54
   0   2  -6  174.00    2.11
   1   1  -6    6.78    1.62
   4   0   2  705.39    4.08
   5  -1  -6    2.33    1.68
   5  -1   1  225.48    2.85
   7  -1  -6   24.84    2.56
   9   1   1   25.17    2.00
  10   0  -1   -0.36    2.63
  11   1  -1   23.02    3.56
  -6  14  -3   32.98    2.93
  -5   9  -3  163.04    2.71
  -5  13  -5    1.19    2.48
  -4   6  -3   43.30    1.91
  -4  16   5    3.83    2.26
  -2  14   6   -0.77    1.96
  -1   1  -3   13.53    1.75
   0   6  -8    6.96    1.69
   0  10   6   67.59    2.20
   1   9   6   -0.49    1.52
   3  -1  -5  253.40    2.79
   3   3   4   25.62    1.12
   3   5   5    2.54    1.38
   4  -2  -4  175.31    3.16
   4   2  -8   59.32    2.56
   5   3   4   44.92    1.67
   5   9   6    3.89    1.37
   6   0  -7   -0.32    1.93
   6   6   5   14.01    1.75
   8   0   1    0.61    1.75
  -6  12  -1   21.00    2.48
  -6  12   0   36.98    2.98
  -5  11  -4   25.37    2.69
  -4  12  -6    0.09    1.97
  -3   5  -4  222.78    2.64
  -2   6  -6   31.86    1.83
  -2   8  -7    0.89    1.34
  -1   5   4  732.75    4.64
   0   0  -3    0.06    1.29
   1   3  -7   31.03    1.98
   1   5  -8   85.60    2.57
   2   2  -7  191.04    2.68
   2   6  -9    1.98    1.60
   3  -1   1  297.42    3.49
   3   1   3  379.40    2.90
   3   5  -9    2.70    1.48
   4   8   6   17.35    1.42
   5   1   3  168.98    2.26
   5   5   5   -0.16    1.44
   6   0   2  491.63    3.51
  -5  15   4    1.85    2.21
  -4   8  -4  112.70    2.33
  -3   9  -6   15.22    2.08
  -1   7   5  270.82    3.30
  -1   9  -8   -0.34    1.45
   0   6   5   33.46    1.44
   2   0   2 1581.90    6.66
   2   4  -8    2.23    1.35
   3   7   6   33.90    1.70
   6   2  -8   51.29    2.73
   6   8   6    4.42    1.67
   9   1  -7    3.47    2.89
   9   3   3    6.45    2.09
  -6  14  -2    0.65    2.18
  -5   9  -2   31.69    1.89
  -4  14   5   46.44    2.74
  -3   7  -5   68.21    1.74
  -2   6   4   86.10    2.33
  -1   1  -2  239.52    3.29
  -1   7  -7  142.36    2.52
   2   0  -5    0.03    1.58
   4   0  -6  332.72    3.15
   4   2   4   77.48    1.73
   4   4   5  310.74    2.71
   5   7   6   26.76    1.83
   7  -1   1    7.13    1.62
   7   3   4   65.14    1.96
   8  -2  -2  146.24    4.65
   8   2   3   18.44    1.44
  11   1   0   -0.70    2.61
  -4   8   3   36.97    2.67
  -4  10   4   19.94    2.02
  -3  15   6    1.54    2.21
  -2   8   5   11.26    1.68
  -2  10  -7    0.81    1.79
  -1   3   3  208.94    3.03
   0   0  -2 7365.92   17.55
   0   2   3  149.38    2.59
   0   8  -8    6.85    1.34
   0   8   6   23.38    2.00
   1   1  -5   61.76    1.66
   1  11   7    1.92    1.81
   2  10   7    0.67    1.66
   4   6   6    1.75    1.41
   5   1  -7   44.28    2.28
   6   2   4   69.56    2.14
   7   1   3    5.10    1.58
   7   5   5    0.75    1.35
   9   1   2    0.75    1.73
  10   0  -5    0.90    2.66
  10   0   0  116.96    3.27
  10   2   2    9.64    2.17
  -6  14  -1   49.11    3.32
  -6  16  -2   15.68    3.19
  -5   9  -1  347.64    4.14
  -5   9   1  309.26    6.91
  -4   6  -1   51.58    2.02
  -3  11  -6   35.97    2.65
  -1   9   6    2.95    1.24
   1   7  -8   26.91    2.19
   2   2   4  274.11    2.47
   2   6   6   31.79    1.68
   3   9   7   43.44    2.10
   5  -1  -5  116.01    2.31
   5   3  -8   22.08    2.17
   6   4   5   36.45    1.55
   7   1  -7    3.60    2.11
   8   0  -6  321.68    4.86
   8   0   2  465.95    3.80
   9  -1   0    1.80    2.32
  -6  14   1   34.37    4.96
  -4   6   0   33.16    2.08
  -3  13   6    5.61    1.98
  -2   4   3  793.39    5.81
  -2   6  -5   71.89    1.96
  -2   8  -6   15.51    1.33
  -1   1  -1    2.99    1.22
  -1  13   7    0.00    1.54
   1   1   3   12.02    1.58
   2   6  -8    7.71    1.84
   3  -1  -4   13.40    1.57
   3   1  -6    4.82    1.28
   3   3   5  103.15    1.80
   4   0   3   -0.20    1.44
   4   4  -8   -0.08    1.83
   5  -1   2   -0.96    1.47
   5   3   5   52.59    1.72
   6   0  -6  662.38    4.84
   6   6   6    7.17    1.81
   7  -1  -5    8.74    2.40
   7   3  -8   23.34    2.75
   8  -2  -1   98.71    3.27
  -6  14   0   -1.33    2.24
  -5   9   0   33.19    2.40
  -4  10  -4   13.59    1.79
  -4  12   5   18.55    2.13
  -4  14  -5   59.04    3.12
  -3   7  -4  113.18    2.18
  -3   9  -5  135.92    2.51
  -3  13  -6    3.56    2.48
  -1   9  -7   34.38    1.78
   0  10  -8    0.81    1.61
   0  10   7    2.14    1.75
   1   5  -7    1.86    1.16
   1   9   7   54.82    2.20
   2   2  -6  107.91    1.83
   3   3  -7  106.10    2.36
   3   5  -8   51.91    1.84
   3   5   6   70.22    2.09
   5   1   4    1.10    1.39
   6   0   3   -0.50    1.09
  -6  16  -1    0.66    2.58
  -5  11  -2  119.76    2.98
  -1  11   7    3.90    1.97
   2   8   7    1.46    1.28
   3  -1   2    2.25    1.06
   3   1   4    0.85    0.96
   6  -2   1  243.42    3.12
   7  -1   2   49.42    1.86
   8   2   4   31.12    2.19
   8   4   5   11.18    2.08
   9  -1  -4    1.05    2.59
   9   3   4   10.86    1.52
  10   0   1    1.94    2.12
  11   1   1   13.74    2.78
  -6  16   2   24.63    5.68
  -2   4  -3  388.58    3.11
  -2  10  -6   39.98    2.13
  -1   5   5    1.11    1.51
  -1   7  -6   72.17    1.62
  -1   7   6   83.87    2.29
   0   4   5  258.23    2.51
   0   6   6   16.80    1.71
   0   8  -7   -0.76    1.58
   1   1  -4   21.02    1.63
   1   3   5  211.92    2.33
   1   5   6  172.22    2.48
   1   9  -8    1.01    1.41
   2   0  -4  837.43    4.70
   2   0   3    0.07    1.46
   3   7   7   26.31    1.52
   4  -2   1  597.21    4.59
   4   2   5  214.10    2.34
   4   4   6    0.01    1.37
   6   2  -7   41.43    2.34
   6   4  -8    1.07    2.23
   7   1   4   29.76    1.63
   7   3   5   17.22    1.41
   8  -2   0  183.01    3.47
   8   2  -7   50.37    3.27
   9   1   3   12.89    2.03
  -6  16   0   39.62    3.62
  -4  12  -4    1.77    2.01
  -3  11  -5   55.83    2.25
  -3  11   6   63.86    2.96
  -1  11  -7    4.12    1.46
   2   4   6    2.50    1.30
   4   0  -5   -0.47    1.57
   6   2   5   87.94    2.06
   8   0   3    1.68    1.83
   9   1  -6    3.50    2.63
  -6  16   1    3.32    3.23
  -4  10  -3   43.82    1.94
  -2   6  -4   88.87    2.01
  -2   6   5   46.40    1.98
  -2   8  -5   11.27    1.62
  -2   8   6   45.69    2.16
   0   2   4  585.44    3.93
   0   6  -6   15.87    1.47
   0   8   7    0.44    1.54
   1   7  -7  110.71    2.34
   1   7   7   62.90    1.94
   2   2   5  265.06    2.40
   3   7  -8   42.02    2.24
   4   0   4  483.35    3.04
   4   6  -8   18.58    1.93
   4   6   7    6.59    1.25
   5  -1   3  150.83    2.24
   5   1  -6    2.05    1.66
   5   5  -8   50.85    2.05
  -5  11  -1   49.24    2.40
  -5  13  -2   40.16    2.28
  -4  14   6    2.26    1.83
  -3   5   3   44.55    2.53
  -3   7  -3  231.85    2.75
  -3   9  -4   53.46    1.93
  -2  12  -6   13.19    1.61
  -1   3   4  257.10    2.77
  -1   9  -6    0.35    1.64
   0  10  -7    4.88    1.76
   1   1   4  140.34    2.23
   2   6   7   18.11    1.33
   3   1  -5  267.96    2.93
   3   3   6   32.60    1.51
   5   3  -7   50.01    1.90
  10   0   2   86.36    2.84
  -5  15   5    0.49    2.35
  -4  16  -4   15.92    3.12
  -3  13  -5    1.91    1.42
  -2  14  -6    0.52    2.17
   1   5  -6  220.90    2.24
   1   9   8   -0.77    1.59
   2   2  -5  476.43    3.44
   2  10  -8    7.87    2.02
   3  -1  -3  380.63    4.08
   3   1   5  190.88    2.12
   3   5  -7    5.44    1.67
   3   5   7   -2.23    1.54
   4  -2   2   99.36    2.07
   4   2  -6  117.94    2.35
   4   4  -7  168.17    2.60
   5  -1  -4    0.17    1.80
   5   1   5   48.75    1.41
   5   5   7   -0.47    1.68
   6  -2   2  158.22    2.43
   7  -1   3    2.43    1.14
   7   1  -6   20.86    2.21
   7   5  -8   36.97    2.52
   9  -1   2    1.49    1.90
   9   3  -7   10.91    2.77
  -5  15  -2    5.31    2.43
  -4   8   4   53.55    2.70
  -3  13   7    1.84    1.92
  -3  15  -5    4.46    2.33
  -2   4   4    2.00    1.56
  -2  10   7    2.35    1.26
  -1   7  -5  368.36    3.02
   0  10   8    8.43    2.04
   2   0   4  950.62    4.33
   2   4  -6    1.00    1.06
   3   3  -6   23.10    1.64
   3   9  -8    7.21    2.09
   6   0  -5    1.26    2.14
   6   6  -8   -0.12    2.07
   7   1   5    3.17    1.48
   7   3  -7   33.14    2.49
   7   3   6   12.30    1.93
   9   1   4   -0.13    1.62
  10   2  -6    7.99    2.99
  -4   8  -1   29.60    1.69
  -4  12  -3   58.35    2.34
  -4  12   6    2.45    1.96
  -2  10  -5    2.58    1.17
  -1   5   6  313.92    3.33
   0   2  -3  129.74    2.27
   0   4   6    6.06    1.50
   0   6   7   21.95    1.70
   0  12  -7   10.56    1.55
   1  -1   1    6.15    1.67
   1   3   6  149.43    2.20
   1   5   7    1.43    1.58
   1   9  -7   73.19    1.91
   4   2   6   18.50    1.14
   4   8  -8   10.49    1.93
   5  -1   4   -0.86    1.34
   5   7  -8   26.00    2.16
   6   2   6   40.25    2.09
   8   0  -5   -0.10    1.86
   8   0   4  113.40    3.45
  11  -1  -1   30.67    3.00
  -5  11   0  149.01    3.50
  -3  11  -4   82.06    1.95
  -1   7   7   82.29    2.32
   0   0   2 9999.00   19.23
   2   0  -3   -0.34    1.58
   2   2   6  141.35    2.00
   2   4   7  104.53    2.06
   4   0   5   -1.75    1.43
   6  -2   3  168.24    2.37
   6   4  -7  128.65    2.99
   7  -1  -4   42.53    2.74
   8  -2   2  104.65    2.35
  11  -1   0    0.24    2.99
  -5  13  -1    0.15    1.90
  -4  14  -3  145.12    3.32
  -3  11   7   29.07    2.37
  -2   6  -3  126.67    2.12
  -2   6   6   27.31    1.88
  -2   8  -4   25.59    1.31
  -2  12  -5   44.68    2.22
  -1   3   5  102.30    2.23
  -1  13  -6   23.83    2.44
   0   8   8    8.31    1.88
   1  -1   2  242.45    3.12
   1   1   5   22.54    1.64
   1   7   8   19.52    2.03
   1  11  -7    6.15    1.77
   2   6   8    5.22    1.61
   2   8  -7    1.62    1.17
   3  -1   4    1.80    1.50
   4  -2   3  413.53    3.20
   5  -3   0   62.19    2.33
   5   3   7    7.41    1.70
   6   2  -6  117.75    2.66
   7  -3   0   77.97    2.26
   7  -1   4   28.03    1.73
   9  -1   3   15.58    2.10
  11  -1  -2    0.11    2.83
  -5  13   5    0.37    2.16
  -3   5   4  235.28    3.33
  -3   7  -2  174.94    2.49
  -2   8   7    2.78    1.79
  -1   9   8    1.19    1.86
   1   7  -6   70.24    1.49
   3   1   6   -0.50    1.36
   3   5   8   20.35    1.79
   3   7  -7   70.20    1.84
   4   0  -4  640.43    4.68
   4   6  -7   35.65    1.94
   4  10  -8    3.53    2.08
   5  -3   1   72.23    1.98
   5   1   6   -0.60    1.20
   7  -3   1  117.03    2.42
   8   2  -6  108.17    3.43
   8   4  -7   25.61    2.40
  10  -2  -1   62.11    3.10
  10  -2   0   20.67    2.78
  11  -1   1   15.64    2.83
  -5  15  -1    3.53    2.27
  -4  16  -3    3.40    2.14
  -2   4   5  454.14    3.80
  -2  14  -5   48.75    2.43
  -1   9  -5  119.06    1.91
  -1  15  -6    8.59    1.84
   0   0   3    0.55    1.66
   0  10  -6   47.24    1.59
   1  13  -7    2.72    2.11
   2   0   5    1.40    1.33
   5  -3   2   53.86    1.75
   5   1  -5  136.62    2.45
   5   3  -6   57.99    1.97
   5   9  -8    3.76    1.46
   7   1   6    3.02    1.77
   8   0   5    0.20    1.81
  10  -2   1   40.38    3.37
  -5  17  -1    3.62    2.47
  -3  15  -4    2.02    1.74
  -3  17  -4    1.95    2.44
  -2  10   8    5.11    1.97
  -2  16  -5    3.17    2.48
  -1   1   3   65.32    2.12
  -1   3  -2  385.00    3.57
   0   4   7  120.13    2.30
   1  -1   3   12.38    1.60
   1   3  -4  271.85    2.66
   1   3   7   74.01    1.90
   2  -2   2  608.65    4.27
   2  10  -7    2.94    1.30
   3   5  -6  180.71    2.40
   4   2   7   40.12    1.49
   4   4  -6    1.74    1.56
   5  -1   5   53.98    1.46
   7  -3   2  108.16    2.34
   7   5  -7   -0.65    1.83
  10   0  -4  109.19    5.21
  -5  11   1   42.94    2.76
  -4   8   5   20.64    1.99
  -2  10  -4   36.08    1.53
  -1   5   7   -0.41    1.57
   0   6   8    3.54    1.65
   1   5   8   28.55    1.63
   1   9  -6    4.58    1.51
   2   2  -4  310.55    2.92
   2   2   7   74.06    1.88
   2   4  -5  428.36    3.20
   2   4   8    1.26    1.43
   3   1  -4   13.04    1.47
   3   9  -7   87.41    2.39
   4  -2   4   34.35    1.34
   4   2  -5  501.92    3.66
   6   0   6   81.59    2.45
   7  -1   5    4.09    1.68
   9  -1   4    0.63    1.48
   9   1  -5   20.57    2.55
  10  -2   2   11.89    2.85
  -5  13   0   53.19    2.42
  -4   8   0   91.12    2.46
  -4  10  -1   59.86    2.22
  -4  12   7    2.26    1.97
  -3  11  -3   55.63    1.73
  -1   7   8   18.77    1.65
  -1  11  -5   12.70    1.35
   0   0   4 3205.15    8.46
   0   2   6  184.95    2.16
   0  14  -6    1.24    2.07
   1   1   6   65.62    1.83
   2  -2   3  682.30    4.04
   2  12  -7   13.83    1.54
   3   3  -5  205.46    2.23
   4   8  -7   18.42    1.90
   5  -3   3   84.03    2.04
   6   6  -7   17.36    2.06
   7  -3   3   81.53    2.03
   7   1  -5    8.71    2.35
   7   3  -6   75.93    2.40
   8  -2   4   54.69    2.24
   9  -3   0   31.26    2.08
   9  -3   1   27.99    2.34
  -3   5   5   18.17    1.60
  -2   6   7   11.39    1.41
  -2   8  -3   30.59    1.77
  -2   8   8   16.45    1.81
  -1   1   4   19.04    1.64
   1  -1   4  131.35    2.23
   2   0   6  423.63    2.92
   5   7  -7   48.49    1.85
  -5  15   0    7.40    2.60
  -3   9  -2  109.53    2.28
  -3  13  -3    1.34    1.87
  -2   2   2  655.89    6.52
  -2   2   3 1002.21    6.11
  -2   4   6    1.72    1.58
  -2  12  -4   30.07    1.58
  -1  13  -5    9.81    1.53
   0   2  -2  951.73    5.56
   1  11  -6   60.24    2.12
   2   8  -6   44.55    1.43
   3  -3   2   32.69    1.64
   3  11  -7   36.66    1.75
   4  -2   5  228.27    2.45
   5  -1   6    2.31    1.16
   6  -2   5   46.64    1.46
  -5  17   0    1.33    2.38
  -2   6  -2  127.79    2.21
  -2  14  -4    6.01    1.94
  -1   9  -4    6.01    1.46
  -1  15  -5    7.17    2.03
   0   4   8    3.02    1.71
   0  10  -5    3.93    1.59
   1   3   8   46.22    2.03
   2  -2   0  680.96    8.31
   3  -3   1  437.40    4.21
   3  -3   3  235.22    2.57
   3  -1   6    0.09    1.33
   3   7  -6  132.25    2.28
   3  13  -7    0.37    1.99
   4   0   7   -2.60    1.45
   4  10  -7    0.21    1.81
   5  -3   4   19.29    1.21
   6   4  -6    9.59    1.70
   7  -1   6    8.60    1.81
   7   7  -7   57.51    2.43
  10   2  -5   33.57    3.52
  -4  10   7    2.64    1.70
  -3   9   8    4.08    1.73
  -3  15  -3    7.06    1.63
  -3  17  -3    2.83    2.21
  -2   2   4  322.31    3.23
  -2  16  -4   50.75    2.62
  -1   1   5   83.87    2.10
  -1   5   8  105.09    2.40
   0   0   5    0.46    1.10
   0   2   7   59.21    2.01
   0   4  -3  717.80    4.02
   1  -1   5   22.22    1.60
   1   1   7   13.40    1.62
   1  13  -6   23.54    1.70
   4   6  -6   41.48    1.80
   5  -1  -3  196.83    3.61
   5   5  -6  156.95    2.57
   5   9  -7   73.74    2.30
   6  -4   1  144.23    2.26
   6  -4   2    2.89    1.28
   6   0  -4 1057.69    6.45
   6   8  -7    1.42    1.78
   8  -2   5    8.24    1.97
  11   1  -4   -0.08    2.78
  -4   6   3   68.79    3.06
  -4   6   4   48.81    2.35
  -3   5   6  152.15    2.71
  -1   3   7   27.83    1.46
   1  15  -6    6.28    1.70
   2  -2   5  297.22    2.67
   2   0   7   -0.72    1.49
   2  10  -6   23.99    1.33
   3  -3   4   55.20    1.79
   3   1   8    0.81    1.37
   4  -2   6   32.48    1.58
   4  12  -7    9.15    2.16
   5  -3   5   49.00    1.75
   8   0  -4  427.64    5.80
   8   4  -6    1.60    1.74
   9  -3  -1   20.38    2.30
  -5  13   1    1.88    2.16
  -2   2   5  484.32    3.64
  -2   4   7  200.17    2.83
  -2  10  -3    1.23    1.48
   0  12  -5   36.40    1.57
   1   1  -2   30.44    1.76
   3  -1  -2   30.20    2.03
   5  -1   7   22.65    1.40
   5  11  -7   13.22    2.03
   7  -3   5   40.81    2.04
   8  -4   1   71.95    1.90
   8  -4   2    1.18    1.65
   8   2  -5   84.15    3.19
  -5  11   2  109.35    4.38
  -4  14  -1  164.83    3.57
  -3  11  -2  122.06    2.24
  -1   1   6    6.43    1.65
  -1   7  -3  517.06    3.46
  -1  11  -4   91.11    1.80
   0   0   6  761.37    3.91
   0  14  -5   63.39    2.55
   1  -1   6   66.53    1.88
   1   9  -5  169.47    2.25
   2  12  -6    2.81    1.31
   3   5  -5   15.89    1.15
   3   9  -6   38.17    1.51
   4  -4   2    2.78    1.32
   4  -4   3  612.22    3.63
   4   4  -5  408.83    3.26
   5   3  -5   81.19    1.97
   6  -4   4    2.85    1.61
   6  10  -7    0.27    1.65
   7   5  -6   88.45    2.65
   7   9  -7   34.49    2.18
   8  -4   3   89.40    2.36
  -5  15   1    1.36    2.39
  -4  10   0   54.95    2.39
  -4  16  -1    2.40    1.99
  -4  18  -1    5.74    2.19
   0   2   8   90.25    2.26
   0   4   9   12.43    2.00
   0  16  -5    2.12    1.62
   1   1   8   18.79    1.70
   1   3  -3  121.32    1.85
   2   4  -4    2.05    1.30
   2  14  -6    0.10    1.76
   4  -4   4    1.17    1.46
   4   8  -6   38.44    1.72
   5   1  -4    1.90    1.44
   6   6  -6    6.67    1.65
   8  -4   0    0.95    1.47
  -5  17   1    3.29    2.08
  -4  10   8    0.81    1.90
  -3   5   7    4.81    1.62
  -3  13  -2   37.39    1.89
  -2   2   6  146.92    2.35
  -2  12  -3   40.06    1.53
  -1  15  -4   34.69    2.27
  -1  17  -4    1.76    2.04
   1  11  -5   16.07    1.62
   2   0   8  148.27    2.51
   3  11  -6  121.92    2.54
   4  -4   1  827.72    5.59
   4  -2   7   81.02    1.97
   4   0  -3    1.17    1.77
   5  -3   6   11.03    1.30
   5   7  -6   39.36    1.54
   7  -3   6   25.87    2.12
   8  -4   4    1.99    1.89
  -4   8   1   42.97    2.39
  -3   3   3  502.15    4.92
  -3   3   5  234.61    2.81
  -3  17  -2    6.79    1.96
  -2   4   8    0.75    1.78
  -2   6   9    3.75    1.73
  -2   8  -2   57.57    1.86
  -2  14  -3  116.51    2.69
  -2  16  -3    4.92    2.20
  -2  18  -3    8.51    2.23
   1  -1   7    8.40    1.63
   3  -3   0   12.04    1.86
   3  -3   6   36.35    1.70
   3  13  -6    7.31    2.01
   4  -4   5  381.11    3.03
   9  -1  -3   26.20    3.22
  -4   6   6   32.68    1.97
  -1   1   7   33.93    1.44
   0  10  -4  171.53    2.38
   2  -2   7   87.16    1.92
   3  -1   8    1.45    1.10
   3   1  -3  388.72    3.54
   3  15  -6    4.36    2.07
   4  10  -6   14.86    1.37
   5  -5   3    0.73    1.32
   7  -5   2  103.03    1.99
   7   3  -5   56.60    2.27
   9   3  -5   26.54    2.47
  10  -4   2    1.18    2.04
  11  -3   0    0.73    2.02
  -3   3   6   22.30    1.61
  -2   2   7  173.08    2.61
  -1   9  -3  194.28    2.32
   0  -2   3  133.17    2.35
   0  -2   4  336.95    2.76
   0   2   9   10.04    1.94
   1  -3   4  270.18    2.57
   1   1   9   -0.73    1.63
   1  15  -5    4.18    1.45
   1  17  -5    7.46    1.63
   2  10  -5    6.23    1.49
   3   7  -5  133.82    1.85
   5  -5   2  278.54    2.79
   5  -5   4  208.22    2.51
   5  -3   7   10.84    1.33
   5   9  -6   10.83    1.60
   6  -4   6    1.52    1.57
   6   8  -6   17.93    1.64
   7  -1  -3    8.26    2.37
   9   7  -6   19.07    2.24
  10  -4   1   50.60    2.20
  -4  12   0    4.53    1.70
  -3   5   8   55.72    2.12
  -1  -1   4   18.14    1.54
  -1  -1   5   82.53    2.01
  -1   3   9    6.80    1.83
   0   0   8  211.00    3.12
   0  12  -4  109.13    2.36
   1  -3   5  210.31    2.34
   2  -4   3  499.27    3.40
   2  -4   4    5.32    1.35
   3  -3   7   31.74    1.76
   4  -4   6    0.60    1.18
   4   6  -5   62.18    1.76
   4  12  -6    3.80    1.34
   4  14  -6    1.78    2.01
   5   5  -5    1.33    1.43
   7  -5   1    1.47    1.36
   7   1  -4   41.53    2.14
   9   1  -4    1.48    2.14
  10   4  -5   72.35    3.13
  -5  13   2   67.58    3.72
  -4   6   7   23.13    1.81
  -4  18   0   54.43    2.76
  -2   4   9   42.82    2.17
  -2  10  -2  125.42    2.28
  -1  -1   3   66.56    2.05
  -1   1   8    2.61    1.73
  -1  11  -3   32.92    1.77
   0  14  -4    1.94    1.75
   0  16  -4   63.78    2.64
   0  18  -4   19.49    2.07
   1  -1   8   15.27    1.32
   2  12  -5   55.03    2.05
   5  -5   5    1.92    1.16
   5  11  -6   61.23    2.28
   7  -5   5    4.06    1.88
   8   8  -6    7.08    1.88
   9  -5   2   61.62    2.09
   9  -5   3    1.90    1.97
  -5  17   2    2.90    2.58
  -4  14   0    1.75    1.91
  -4  16   0   74.87    2.64
  -3   3   7   84.12    1.95
  -2   2   8   33.14    1.85
  -1  -1   6    3.85    1.62
  -1  19  -3   29.45    2.21
   1  -3   2  253.58    2.95
   2  -2   8   24.84    1.40
   2  14  -5   88.39    2.49
   2  16  -5    4.25    2.08
   3  -5   4  297.95    2.69
   3   9  -5  175.90    2.40
   5  -5   1    0.39    1.54
   5  13  -6   23.83    2.26
   6  10  -6   30.88    1.87
   7   9  -6   -1.72    1.75
   8   4  -5   44.80    2.27
  -5   9   7   56.97    3.40
  -5  15   2    3.58    2.22
  -2   0   4 1017.35    4.97
  -2   0   5    0.53    1.10
  -1  13  -3   25.26    1.90
  -1  17  -3    4.66    1.85
   0   4  -2   50.65    1.61
   1   5  -3    1.21    1.16
   2  -4   2    8.32    1.60
   2  -4   6    1.43    1.14
   3  -5   3    4.34    1.10
   3  -5   5    4.07    1.54
   3  -3   8    8.87    1.76
   5  -5   6   40.23    1.57
   6  -6   3   28.99    1.42
   6  -6   4   24.96    1.64
   6  12  -6   19.94    2.12
   9  -5   1   -1.01    1.43
  10  -4   0    0.36    1.80
  -4   6   8    9.70    1.83
  -3   5   9   -0.57    1.76
  -2   0   6  388.44    2.90
  -2  12  -2   46.12    1.66
  -2  16  -2   62.13    2.73
  -2  18  -2   21.08    1.70
  -1  -1   7   59.85    2.01
  -1   1   9   11.17    1.73
  -1   7  -2  501.27    3.51
   0  -2   7   46.26    1.52
   0   0   9    2.28    1.84
   3   5  -4  258.09    2.33
   3  11  -5  105.92    2.32
   4   8  -5   25.58    1.29
   6   2  -4  153.57    2.48
   7   5  -5   -0.07    1.51
   7  11  -6   23.73    2.00
   8  -6   3   12.20    1.48
   8  10  -6   15.38    1.67
  -3   3   8   11.54    1.82
  -2   0   7   -0.94    1.53
   1  17  -4    4.58    1.90
   2  -4   7  123.70    2.24
   3  -5   2  348.97    3.11
   3  -5   6   68.88    1.64
   3  13  -5   -0.91    1.57
   3  15  -5    9.69    2.03
   3  17  -5    0.86    1.74
   4  -6   4   18.48    1.49
   4  -4   0    1.22    1.83
   4   4  -4    2.25    1.32
   5  -5   7    2.61    1.81
   5   3  -4   73.00    1.94
   5   7  -5  141.42    2.35
   6  -6   2   33.58    1.60
   6  -6   5   11.79    1.39
   6   6  -5   31.10    1.69
   8  -6   4    4.16    1.86
   9   5  -5    0.69    1.60
  -5   7   6   40.64    2.49
  -5   9   8    1.98    2.25
  -2   0   3    0.73    1.34
  -1  -1   8    1.33    1.65
   0  -2   8  107.44    2.39
   1  -3   8   41.36    1.98
   4  -6   3   66.82    1.90
   4  -6   5   17.26    1.24
   4  10  -5    9.97    1.64
   6  -6   6    6.58    1.96
   8  -6   2    8.30    1.31
  10   0  -3   -0.38    2.51
  10   6  -5    0.75    2.03
  11   3  -4   -0.20    2.06
  -5   7   5  151.85    3.81
  -4  10   1   29.07    2.08
  -3   1   6    6.32    1.60
  -1  -1   2   29.75    1.81
   0  10  -3    3.54    1.50
   0  18  -3    4.18    1.83
   2  -4   8   -1.54    1.53
   2   4  -3  672.36    3.84
   3  -5   7   -1.15    1.23
   4  12  -5   48.07    2.07
   6   0  -3    0.47    1.68
   7  -5   0  133.26    3.19
  -5   7   7   55.72    2.67
  -4  18   1    5.88    1.92
  -3   1   4   15.20    1.42
  -3   1   7  126.46    2.13
  -3   3   9   12.78    1.93
  -2   0   8  116.97    2.15
  -1   9  -2    5.89    1.46
   0  12  -3  133.75    2.41
   4  14  -5   35.22    1.76
   4  16  -5    7.43    1.54
   6  -2  -2  225.71    5.22
   6   8  -5    0.61    1.52
   7  -7   4   50.03    1.87
  -3   9   0  109.06    2.50
  -3  19   0    3.01    1.93
  -1  -3   5  101.54    1.96
  -1  -1   9   15.00    2.06
  -1  19  -2    1.89    1.29
   0  -4   6    6.10    1.50
   0  -2   9   14.56    2.14
   0  16  -3    5.36    1.29
   1  -5   5    3.68    0.98
   1  -5   6  198.43    2.34
   1   3  -2  481.63    3.67
   2  16  -4   74.68    2.36
   3  -5   8   16.08    2.14
   4  -6   2   27.08    1.38
   4  -6   7   10.92    1.41
   5  -7   4   79.40    1.76
   5  -7   5   87.67    1.90
   5  11  -5   29.85    1.96
   6  -6   1   47.73    2.06
   7  -7   3   76.75    1.73
   8  -6   1   17.97    2.13
  -5   7   8   17.03    2.11
  -5  17   3    1.91    2.31
  -4  12   1   64.29    2.55
  -3   1   8    4.01    1.57
  -3   3   2   10.86    2.23
  -2  18  -1   11.91    1.92
  -1  -3   7   30.40    1.73
  -1  17  -2    7.44    1.73
   2  -6   4   89.95    1.91
   2  -4   1  480.44    4.24
   2  14  -4    1.33    1.32
   4   6  -4   65.58    1.79
   5  -7   3  165.80    2.36
   5   1  -3  206.53    2.93
   5  13  -5    2.66    1.78
   5  15  -5    2.27    1.63
   6  10  -5   -1.36    1.60
   8   8  -5    2.98    1.71
   9  -5   0  102.87    3.72
   9   3  -4   22.87    2.11
  10  -6   2    2.00    1.69
  -5  11   3   39.90    3.76
  -4  14   1  123.96    2.74
  -3  17   0    5.57    1.84
  -2  -2   5  468.18    3.17
  -2  -2   6  153.28    2.24
  -2  10  -1    2.73    1.32
  -1   5  -1    7.26    1.23
  -1  11  -2  110.86    2.11
  -1  13  -2   68.60    2.15
  -1  15  -2   38.53    1.89
   0   6  -2    5.40    1.32
   1  19  -3   16.62    1.82
   2  -6   7   25.05    1.76
   4   2  -3  772.96    4.47
   5   5  -4  308.89    3.13
   6   4  -4   14.74    1.49
   6  12  -5   31.36    2.30
   7   9  -5   75.86    2.29
   8   0  -3    0.33    1.87
  11  -1  -2    0.55    2.97
  -5  15   3    0.94    2.38
  -4   2   6  102.65    2.01
  -4   2   7  144.65    2.75
  -3   1   9   40.49    1.97
  -3  11   0  295.37    3.65
  -2  -2   7  178.64    2.45
  -2  16  -1   26.40    1.97
  -1  -3   8   35.31    2.07
   0  -4   3  812.60    4.35
   0  -4   8    3.16    1.74
   1  -5   3   11.68    1.50
   1  -5   8   31.56    2.07
   1  17  -3   14.88    1.85
   3  -7   4  142.66    2.20
   3  -7   5   62.49    1.57
   3  -7   6   53.85    1.84
   3  17  -4    4.55    1.37
   7  11  -5    2.15    1.85
   7  13  -5    8.91    2.19
   8  10  -5    1.21    1.98
  10   4  -4   -1.10    1.75
  -5   5   6  135.23    2.88
  -5   5   7   -0.76    1.69
  -5   7   4   84.05    4.09
  -5  13   3    1.22    2.50
  -4   2   8   31.09    1.73
  -3  13   0   17.42    1.77
  -3  15   0   15.29    1.66
  -2  12  -1   77.74    2.24
  -2  14  -1  133.36    2.41
   1  15  -3    9.22    1.68
   2  -6   8    6.76    1.88
   2   6  -3   89.63    1.75
   3  11  -4  193.07    2.36
   3  13  -4    4.69    1.54
   3  15  -4    7.78    1.35
   4   8  -4   81.34    1.93
   5  -7   2   73.81    1.76
   6  -8   4   19.19    1.53
   6  -8   5    1.17    1.65
   8  12  -5   10.58    2.01
  -3  -1   6    5.40    1.47
  -3  -1   7  125.96    2.25
   0  18  -2   63.40    2.03
   3  -7   3  218.24    2.46
   4  -8   6   35.77    1.76
   6  -8   6    3.05    1.38
   8  -8   4    6.88    1.74
   8   4  -4    0.91    1.43
  -4  18   2   57.56    2.52
  -3  -1   5  249.20    2.52
  -3  -1   8   -0.31    1.48
  -3   1   3  402.20    3.74
  -2  -2   9   47.01    2.14
  -2  20   0    0.67    1.59
  -1  -3   3  116.06    1.84
  -1  19  -1   58.88    2.17
   0  -2   1   40.70    1.93
   2  18  -3   15.68    1.80
   4  -8   4  126.21    2.26
   4  -8   7    2.04    1.63
   4  10  -4   39.46    1.93
   4  16  -4   57.15    1.83
   5   7  -4   94.26    2.10
   6  -8   3    5.46    1.48
   8  -8   3    0.46    1.41
   8  -2  -2  144.28    4.75
  10  -6   1    6.01    2.44
  -6  10   7    0.53    2.55
  -5   5   5    0.73    1.49
  -3  19   1   15.62    2.00
  -2   0   2 1783.12    8.26
   0  16  -2  139.37    2.39
   3   5  -3   39.56    1.54
   4  -6   1   58.88    1.95
   4  12  -4    7.34    1.31
   4  14  -4    4.69    1.37
   7   1  -3    7.39    1.87
   9   1  -3   30.69    2.40
   9   5  -4   68.16    2.26
  10   6  -4    2.15    1.88
  -3  -1   9   45.74    2.11
  -1  -5   6  210.53    2.32
  -1  -5   7   -0.46    1.58
   0  -6   7   15.86    1.33
   0  10  -2  317.81    3.16
   0  14  -2    1.12    1.54
   1  -7   6   77.89    1.59
   1  -7   7  147.66    2.34
   1   5  -2 1249.49    5.27
   1  19  -2    0.66    1.64
   2  16  -3   12.97    1.33
   4  -8   3   14.08    1.50
   5  -9   5   65.79    1.99
   5  -9   6    7.78    1.56
   5   9  -4   27.24    1.80
  -5   3   7   45.19    2.00
  -5   3   8   22.56    2.19
  -5  17   4    1.96    2.32
  -4   0   6  222.82    2.53
  -4   0   7    0.63    1.39
  -4   0   8   80.64    2.18
  -4   2   4  164.98    2.65
  -2  -4   6    0.71    1.44
  -2  18   0   53.60    1.93
  -1  -5   5    1.01    1.02
  -1  17  -1    8.11    1.23
   0  -6   8    6.43    1.32
   0  12  -2   41.00    1.54
   2  -8   6   14.49    1.26
   2  -8   7    3.52    1.61
   2  14  -3  116.52    1.96
   3   1  -2   37.21    1.64
   5  -9   4   20.33    1.67
   5  -1  -2    3.16    1.65
   5  11  -4  107.15    2.39
   5  13  -4   51.78    2.21
   6   8  -4   47.79    1.97
   6  16  -4   50.21    2.21
   7  -9   4    0.75    1.23
   7  -7   1  115.91    2.67
   7   7  -4  138.34    2.51
   8   6  -4   21.28    1.68
  -6   8   7    1.03    2.15
  -6  10   6   27.68    3.64
  -3  -1   4   14.43    1.37
  -3  17   1    3.75    1.63
  -2  -4   8   -0.29    1.30
  -2  -2   3  999.18    4.79
  -1  -5   9   -1.74    1.80
   0  -4   2   52.63    1.66
   0  20  -1   30.71    1.91
   3  -9   6   13.29    1.56
   3  -7   2  182.15    2.41
   3  17  -3    2.56    1.44
   4   0  -2  809.90    5.87
   4   4  -3  572.96    3.55
   6   2  -3  142.84    2.42
   6  10  -4   72.12    2.29
   6  14  -4    1.71    2.04
   8  -8   2   14.39    1.97
  10   8  -4   21.72    1.91
  -5   3   9   13.66    1.95
  -4   0   9    1.18    1.71
  -3  -3   7  101.62    2.06
  -2  16   0  142.67    2.51
   3  -9   7   28.60    2.34
   3   7  -3  330.62    2.81
   3  15  -3   17.40    1.73
   4  18  -3    7.25    1.70
   5   3  -3   99.41    2.01
   6  12  -4   30.26    1.72
   7  -9   3   46.68    2.07
   7  13  -4   37.26    2.63
   8   8  -4   14.75    1.94
   9   9  -4    7.86    1.98
  -4   0   5    0.23    1.29
  -4  14   2    4.14    1.83
  -3  -3   6   26.13    1.52
  -3  -3   8    7.04    1.27
  -1  11  -1   16.35    1.66
  -1  13  -1   28.39    1.64
   1   7  -2  514.27    3.55
   5  -9   3  208.27    2.55
   6 -10   5    0.05    1.50
   8  -6   0   24.64    3.10
   8   2  -3  102.74    2.98
   8  10  -4   40.62    2.07
   8  12  -4   50.73    2.32
   9  -7   1   37.82    3.03
   9  11  -4   35.21    2.19
  -6   6   8    1.63    2.21
  -4  18   3    6.90    2.23
  -3  -3   9    6.21    1.91
  -3   7   1  425.16    5.41
  -1  19   0    1.68    1.63
   0   4  -1 1237.37    6.19
   0  18  -1    9.43    1.22
   1  15  -2   26.16    1.27
   2  18  -2   54.70    1.97
   3  13  -3   -0.20    1.09
   4 -10   5    9.46    1.53
   4 -10   6    8.32    1.60
   4  -8   2  100.00    2.21
   4  16  -3   13.12    1.56
  -6   6   7   15.10    2.55
  -6   8   6   19.63    2.80
  -5   3   5  106.40    2.66
  -4  -2   8   39.38    1.87
  -4  12   2    8.15    1.83
  -3  -3   5  265.72    2.60
  -3  19   2    3.54    1.86
  -2  -4   4    1.72    1.27
   0  -8   7    1.53    1.46
   1  -7   3  656.55    3.79
   1  13  -2  119.45    2.07
   2   4  -2   10.90    1.43
   4   6  -3   70.99    1.58
   5  17  -3    8.99    1.49
   6  -6   0   27.07    2.28
  11   5  -3   -0.67    2.07
  -5  15   4    6.03    2.12
  -4  -2   7  183.30    2.16
  -4  -2   9   58.33    2.16
  -3  13   1   -1.27    1.50
  -2  -6   8    8.19    1.80
  -1  -7   6   65.10    1.68
  -1  -7   8   31.17    1.64
  -1  -3   2  517.51    3.75
   0  -6   3   26.12    1.19
   1  -9   6    1.41    1.14
   1  -9   7   36.92    1.50
   1  -9   8    1.77    1.74
   1  19  -1   52.53    1.89
   2  16  -2  133.46    2.47
   3  19  -2    0.38    1.22
   4   8  -3   60.77    1.93
   4  14  -3  143.26    2.08
   5   5  -3    1.24    1.40
   7   3  -3  111.36    2.48
   9  -1  -2    0.21    2.28
  10   4  -3  106.39    2.93
  -5   5   4  297.73    5.55
  -4  -2   6  110.33    1.99
  -3   9   1  324.40    4.40
  -3  11   1  199.61    3.10
  -2   2   1 1283.51   23.13
  -1  17   0   12.31    1.70
   0  -8   5    1.69    1.49
   0  20   0    0.33    1.65
   2 -10   6   51.59    1.91
   2 -10   7   -0.24    1.20
   3  -9   3  326.62    3.05
   4  10  -3   18.57    1.66
   4  12  -3   65.34    1.68
   5  15  -3    3.41    1.44
   6 -10   3   -0.95    1.79
   6   4  -3  305.77    3.53
   7  -9   2    1.50    1.72
  -6   4   8    2.60    1.83
  -1  -7   5  191.57    2.10
  -1  -5   3    1.00    1.23
   0  14  -1  200.88    2.56
   2 -10   5    1.05    1.49
   3  17  -2   16.23    1.54
   5  -9   2   28.90    1.76
   5  13  -3    2.70    1.65
  -6   4   7   93.60    2.96
  -6   6   6    4.87    2.18
  -4   0   4  610.78    4.15
  -4  16   3   12.23    2.22
  -3  -5   6  192.50    2.22
  -3  -5   9    1.41    1.29
  -3  17   2   15.76    1.69
  -1  -1   1   26.44    1.75
   1  17  -1   14.20    1.56
   2   6  -2  164.09    2.30
   3 -11   6   21.04    1.60
   4  18  -2   63.59    1.91
   5   9  -3  320.08    3.37
   5  11  -3   51.40    2.26
   6  -8   1    3.25    1.63
   6  14  -3   79.29    2.04
   7 -11   4   16.57    1.97
   7  -1  -2   51.50    2.51
   7  15  -3    8.59    1.40
   8 -10   3    0.13    1.92
   8  -8   1   -0.02    1.84
   9   5  -3    0.39    1.52
  10   0  -2  121.50    3.94
  10   6  -3   10.34    1.90
  11   1  -2   -0.81    1.97
  -5  -1   7   49.48    1.84
  -5  -1   8    1.54    1.18
  -5  -1   9   12.71    1.82
  -4  -4   8   -1.32    1.41
  -4  -2   5  506.76    3.36
  -3  -3   4   30.29    1.47
   0  12  -1  143.01    2.32
   3   3  -2   11.44    1.08
   4 -10   3   45.12    1.67
   5 -11   4   27.86    1.59
   6  12  -3   55.73    2.12
   7   5  -3    2.34    1.40
   7  13  -3   18.28    1.99
   8  14  -3   27.27    1.52
   9  -9   2    0.10    2.29
  10   8  -3    0.54    1.95
  -6   2   8   24.48    1.90
  -4  -4   7  171.43    2.43
  -4  -4   9   19.74    2.29
  -1  -9   7  143.56    2.54
  -1  -9   8    0.35    1.74
  -1  19   1   53.91    2.08
   0 -10   7    0.66    1.78
   0  10  -1    4.30    1.43
   0  18   0   70.97    1.87
   2 -10   4   29.50    1.40
   2  -6   1  135.78    2.28
   2  18  -1   25.49    1.67
   4 -12   6    0.76    1.62
   6  10  -3    0.91    1.79
   7   7  -3  208.42    3.05
   7  11  -3   14.06    1.97
   8   6  -3   16.76    1.74
   9   7  -3   69.76    2.44
   9   9  -3   53.76    2.78
   9  11  -3   17.26    2.38
  -5  13   4   45.54    2.90
  -2  -8   8   17.32    1.58
  -2  -4   3  759.09    4.00
  -1  -9   6    3.54    1.42
   1 -11   7    7.70    1.75
   1  -7   2  586.70    3.64
   1  -5   1    6.56    1.25
   2  -8   2   76.01    1.90
   2   0  -1    0.28    1.56
   3 -11   4  115.63    2.26
   3  -7   1  376.64    3.55
   3  13  -2   24.94    1.62
   4 -12   5   20.94    1.92
   4  16  -2   90.36    1.62
   5  17  -2    5.60    1.35
   8   8  -3    2.97    1.88
   8  10  -3    5.32    1.86
  -6   2   7   32.37    2.20
  -6   4   6   10.56    1.73
  -5  -1   6    1.13    1.35
  -4  -4   6    2.48    1.40
  -4   2   3  826.62    6.33
  -3  15   2   14.26    1.92
  -2  -8   6   86.73    1.91
  -1  13   0  142.36    2.30
   1 -11   6   30.30    1.71
   1  19   0   -1.21    1.53
   4   2  -2  189.37    2.68
   5 -11   3   32.69    1.77
   6 -10   2   40.89    2.10
   6   0  -2 1228.43    7.81
   7 -11   3    8.98    1.97
  -2  -2   2  639.25    4.32
   0  -6   2    6.13    1.30
   2  16  -1   29.34    1.57
   2  20   0   -0.28    1.58
   3  -5   0  403.41    4.50
   3   5  -2  352.85    2.93
   4  -8   1   28.96    1.65
   4  14  -2    4.46    1.24
   5   1  -2    3.63    1.30
   5  15  -2    7.77    1.53
   8   0  -2  457.87    5.74
  -6   0   8  234.27    3.55
  -5  -3   7   57.33    1.99
  -5   3   4   82.80    2.82
  -4  -6   8   17.25    1.69
  -4  14   3  145.03    2.88
  -3  -7   6  147.50    2.20
  -1  -9   5  138.81    2.22
  -1  17   1   18.23    1.63
   0  -8   3   13.92    1.34
   1 -11   5   12.89    1.28
   1  -9   3  147.97    2.20
   1   3  -1  185.04    2.66
   2 -10   3    0.23    1.50
   3   7  -2  322.24    3.20
   3  17  -1    3.57    1.48
   4 -12   4    1.48    1.57
  -3   1   2   50.90    2.34
   3 -13   6    4.97    2.09
   4 -10   2   47.04    1.90
   4  -6   0   55.24    2.31
   4  12  -2    9.84    1.37
   4  18  -1    6.29    1.18
   7  -9   1  111.81    3.32
   7  15  -2   33.07    1.68
   9   1  -2    0.94    1.73
  10   2  -2   18.69    2.07
  -6   0   7    1.39    1.56
  -6   2   6   99.88    2.61
  -6  12   6   12.90    4.35
  -5  -1   5  113.09    2.10
  -5  15   5    2.18    2.17
  -4  -4   5  351.83    2.79
  -3  17   3    1.23    1.69
  -1   9   0    8.03    1.43
   0  -4   1 1344.05    6.26
   1  11  -1   18.91    1.13
   1  17   0   12.47    1.10
   3 -11   3  137.35    2.34
   4   4  -2    2.83    1.45
   5  13  -2   59.70    1.44
   6  14  -2    2.65    1.07
   8  14  -2   -0.26    1.49
  -5  -5   8   45.38    2.00
  -5  -3   6   55.42    1.79
  -4  -6   6   44.79    1.66
  -3  -9   8   23.96    2.08
  -3  -3   3  618.90    3.88
  -3  13   2   23.72    1.65
  -1  19   2    3.08    1.54
   0  14   0    2.99    1.28
   1   5  -1    2.23    1.45
   3 -13   5   -0.80    1.07
   3  15  -1   17.27    1.50
   3  19   0    3.86    1.59
   5 -13   4   15.30    1.78
   5  -9   1  259.81    3.68
   7  13  -2   39.52    1.84
  10  -8   1   -0.18    3.06
  10  10  -2    8.84    2.38
  -7   5   8   28.17    2.64
  -5  11   4  101.89    3.80
  -4  16   4   67.04    2.56
  -3  -9   7  120.93    2.47
  -3  -7   5  155.15    2.00
  -1  -9   4    3.06    1.00
  -1  15   1   11.60    1.46
   0 -12   6   17.75    1.61
   1   7  -1  572.89    4.28
   1  19   1   48.23    2.08
   4 -12   3   62.57    2.15
   5   3  -2  105.58    2.38
   5  11  -2  136.00    2.00
   5  17  -1    6.50    1.13
   6  12  -2   51.59    1.53
   9  11  -2   49.87    2.31
  10   8  -2   24.97    2.48
  -7   3   8   25.93    2.83
  -6   6   5   15.02    2.79
  -5  -5   7   -0.31    1.42
  -4  12   3   72.31    2.55
  -2 -10   6   26.52    1.37
   1  15   0   48.11    1.74
   5 -11   2  154.04    2.88
   5  -7   0  155.90    3.46
   5   9  -2   41.04    1.96
   6   2  -2  220.05    3.43
   7  11  -2   85.06    2.26
   8   2  -2  165.50    3.47
   9   3  -2   34.53    2.14
  -6  -2   7   35.64    1.91
  -6   0   6  730.48    5.30
  -4  -8   7   18.76    1.62
  -4   0   3    1.17    1.44
  -2  10   1    2.78    1.34
  -2  18   3   17.12    1.99
   0  12   0  146.65    2.28
   2 -14   6    2.59    1.23
   3  13  -1   -0.15    1.30
   5   5  -2  461.60    4.37
   6  10  -2   73.69    1.81
   6  16  -1    2.82    1.32
   8  10  -2   47.58    1.62
   9   5  -2  109.37    2.67
   9   7  -2   56.57    2.62
  10  -2  -1   61.15    3.64
  -4  -6   5   79.41    1.88
  -2 -10   5    5.84    1.38
   0  16   1    3.16    1.46
   1 -13   5    5.55    1.34
   1  -9   2    5.00    1.38
   2 -10   2  109.99    2.20
   2  16   0  136.16    1.97
   3  17   0   19.30    1.61
   4  18   0   77.73    1.90
   5  15  -1    1.87    1.04
   6   4  -2   18.50    1.81
   7   3  -2  130.60    2.91
   7   9  -2    3.47    1.37
   8   4  -2    3.56    1.74
   8   6  -2   24.04    2.08
   8   8  -2   17.89    2.17
   9  -9   1   38.70    4.43
   9  -3  -1   29.17    3.03
  -7   1   8    7.57    2.15
  -7   5   7    0.07    2.17
  -7   7   7   46.79    3.94
  -6  -4   8    1.40    1.81
  -5  -3   5  103.77    2.18
  -4  -4   4    2.90    1.44
  -2 -12   7   26.72    1.88
  -1 -13   7    5.73    2.02
   0  -8   2  132.73    2.04
   1 -11   3   35.41    1.65
   2 -14   5   60.39    2.00
   4 -14   4   -0.67    1.78
   5 -13   3    0.35    1.65
   6 -10   1    0.56    1.94
   7 -13   3    2.54    2.14
   7   7  -2  190.09    3.27
   7  15  -1    9.26    1.19
  -7   3   7   26.27    2.94
  -4  -8   6   46.22    1.77
  -3 -11   7   52.67    2.16
  -3  -7   4  199.97    2.22
  -2  -4   2   10.52    1.06
  -1  13   1   31.15    1.71
  -1  19   3   36.97    2.07
   2  18   1   15.41    1.77
   3 -11   2  309.76    3.20
   3  -9   1  289.26    3.58
   3  -1  -1  615.63    7.61
   3  19   1   21.46    1.81
   6  14  -1   82.61    2.04
  11   1  -1   22.27    2.63
  -6  -4   7  130.37    2.81
  -6  -2   6  105.74    2.51
  -5  -7   7   69.85    1.86
  -4 -10   8    6.33    2.03
  -3  -9   5  157.46    2.11
  -2   8   1   35.08    1.79
  -1 -13   6   11.96    1.67
  -1  -9   3  288.71    2.74
   0 -14   6    0.99    1.91
   0 -12   4  120.76    2.32
   0  18   2   51.28    1.93
   1  -7   1  762.28    4.47
   1  -3   0  463.84    5.39
   1  19   2    0.42    1.74
   3 -15   5    4.76    1.64
   3 -13   3   -0.05    1.67
   5  13  -1    3.52    1.28
   5  17   0    2.11    1.35
  -7  -1   8    1.63    2.14
  -7   1   7    3.54    2.17
  -5  -1   4    0.10    1.49
  -4 -10   7    2.95    1.74
  -4  14   4    6.04    1.75
  -3  -1   2   55.33    1.96
  -1  -7   2  512.92    3.47
   1 -15   6    9.17    2.06
   2   4  -1  767.04    5.45
   2   6  -1  131.67    2.43
   2  14   0    6.32    1.08
   4 -12   2    0.64    1.64
   4 -10   1   73.40    2.26
   7  13  -1   16.11    1.24
   8 -10   1    2.81    2.22
   8  12  -1   21.79    1.76
  10  10  -1    9.63    1.85
  11   3  -1   14.61    2.21
  11   5  -1    2.02    2.16
  -6  -6   8    0.46    1.42
  -5  -9   8    2.62    1.80
  -5  -7   6   61.32    1.94
  -5  -5   5    0.11    1.37
  -5  13   5    1.94    1.94
  -4  10   3   20.98    2.12
  -4  16   5    7.75    2.05
  -3 -11   6   59.76    2.00
  -2  -8   3   36.11    1.51
   0  14   1  178.50    2.30
   6 -14   3   32.55    2.52
   6  12  -1   52.51    1.85
   6  16   0   64.92    2.00
   8 -12   2   16.04    3.02
   9  11  -1   11.07    1.38
  -7  -3   8   25.17    2.09
  -6  -4   6   11.88    1.58
  -6   0   5    0.32    1.85
  -4  -8   5   25.08    1.33
  -2  18   4   39.05    2.33
  -1 -13   5    8.84    1.30
  -1  15   2   34.87    1.71
   0 -14   5   40.46    1.75
   0  -6   1   61.43    1.80
   1  11   0  231.58    2.60
   4  18   1    5.11    1.34
   5  11  -1   53.10    1.78
   6  -8   0   39.35    2.70
   7  11  -1   11.61    1.66
  10   0  -1    0.40    1.81
  10   8  -1    1.38    1.91
  -7  -1   7    4.63    2.01
  -5  -9   7  113.39    2.52
  -4 -10   6   23.74    1.82
  -3  -9   4  150.50    2.22
   1  15   1   12.37    1.19
   2  16   1   29.89    1.70
   3  17   1    3.65    1.21
   7  15   0   29.41    1.68
   9   9  -1   85.49    2.63
  10   6  -1    8.82    2.34
  -6  -8   8   -0.63    1.72
  -5  -3   4  104.76    2.38
  -5   9   4   20.94    2.57
  -3 -13   7    0.42    1.41
  -3  13   3   -1.35    1.54
  -1  17   3   11.61    1.61
   0 -12   3  145.27    2.36
   0  16   2  131.26    2.26
   1 -13   3   29.15    1.80
   2  18   2    8.51    2.02
   4  14   0    2.32    1.25
   5 -11   1   43.06    2.42
   6  10  -1    2.66    1.61
   8  14   0    2.21    1.57
  10   2  -1   49.36    2.82
  10   4  -1   86.39    3.29
  -7  -3   7   25.49    2.13
  -6  -2   5  103.71    2.57
  -2 -14   6   -1.21    1.81
   0 -14   4    1.68    1.51
   0 -10   2  324.79    3.03
   0   6   0    2.09    1.16
   5 -15   3    1.82    1.84
   5   9  -1  403.39    3.49
   6  14   0    0.92    1.48
   7 -11   1    7.92    2.45
   7   9  -1  132.70    2.84
   8   8  -1    0.26    1.73
   9   7  -1   51.49    2.67
  -7  -5   8   25.15    2.05
  -7   1   6   16.43    2.57
  -6  -6   6    7.18    1.77
  -5  -9   6   13.89    1.78
  -5  -7   5  212.41    2.88
  -3  -3   2   17.94    1.65
  -1 -13   4   47.08    1.62
   0  12   1  121.24    2.15
   3 -13   2   39.83    1.88
   3   1  -1  652.29    6.38
   3   5  -1   39.56    1.63
   7  -3  -1  182.76    5.32
   9   5  -1   -1.00    2.03
  11  -3   0   -0.49    2.37
  -7   5   6   79.95    4.37
  -6  -8   7   -0.27    1.31
  -5 -11   7   15.59    1.85
  -4 -10   5    7.68    1.25
  -2 -10   3    4.47    1.33
  -1 -15   5    7.07    1.73
  -1  -9   2    9.22    1.40
   2 -10   1    1.39    1.36
   2  -6   0  178.97    3.00
   3   3  -1 1055.60    7.00
   3  15   1   11.22    1.72
   4  -8   0  100.30    2.61
   5  13   0   58.14    1.45
   6   8  -1    1.51    1.16
   7  13   0   27.18    1.44
   8  -2  -1  104.70    3.81
   8  12   0   44.90    2.23
   9   1  -1   26.86    2.34
   9   3  -1   30.14    2.46
   9  11   0   32.84    2.11
  -7  -5   7    1.90    1.87
  -7  -1   6   22.54    2.35
  -6  -4   5  268.58    3.64
  -4  12   4   13.01    2.08
  -2   0   1   -0.09    1.85
  -1  -5   1    0.71    0.94
  -1  13   2  107.64    2.15
   0 -16   5    1.29    1.50
   0   4   0   79.87    2.22
   1  -9   1  493.82    3.63
   1  13   1   26.51    1.21
   2  14   1  145.78    2.32
   3 -11   1  185.08    2.77
   4   6  -1   66.05    1.73
   6 -14   2    2.95    2.45
   8  -8   0   12.10    4.26
   8   6  -1   18.38    1.50
  -4  14   5   66.16    3.50
  -3 -13   5   -1.64    1.66
  -3   7   2  277.96    4.62
  -2  16   4   68.32    2.38
   3  17   2    6.79    1.44
   4 -14   2    1.54    1.84
   5  15   1    0.77    1.59
   6   6  -1   70.27    2.29
   7  15   1    4.87    1.43
   8   4  -1   99.77    3.42
  10   8   0   20.17    2.37
  -6 -10   7   -0.22    1.71
  -6  -8   6   32.34    1.93
  -5 -11   6   71.20    2.46
  -5  -9   5  267.99    3.30
  -4   8   3   38.14    2.64
  -3  -9   3  400.26    3.41
  -1  15   3    8.14    1.69
  -1  17   4    7.30    2.09
   0  -8   1   40.00    1.63
   0  14   2    2.05    1.44
   0  18   4   35.82    2.56
   1   7   0  653.60    4.34
   1  15   2   36.85    1.88
   2  16   2   93.71    1.93
   2  18   3    9.93    1.54
   4 -16   3    2.16    2.19
   4 -12   1   66.65    2.52
   4   4  -1 1188.35    7.04
   5  -9   0   38.54    2.52
   5   5  -1    2.57    1.74
   5  17   2    2.55    1.49
   7   5  -1    3.71    1.86
   7  11   0   81.16    2.25
   8   0  -1    1.28    1.86
   8   2  -1   82.18    3.24
   9   9   0    1.87    1.94
  11  -1   0    0.70    2.29
  11   3   0    1.80    2.59
  -7  -7   7   62.19    2.44
  -6  -6   5   32.60    1.80
  -4 -12   5   50.32    2.04
  -4  -6   3   76.73    1.90
  -3 -15   6    0.37    1.93
  -3  -5   2  493.10    3.86
  -3  11   3  157.73    3.01
  -2  10   2   83.40    2.11
  -1 -15   4   17.00    1.83
  -1 -13   3   26.57    1.78
   0 -16   4   63.99    2.51
   0  10   1    3.13    1.43
   0  16   3    3.65    1.66
   1 -15   3   17.75    1.82
   1 -13   2   84.90    2.23
   1  -5   0 1018.36    6.88
   1  17   3    5.19    1.38
   4  14   1  154.83    2.35
   5  11   0  128.82    1.95
   6  14   1   51.16    2.13
   8  10   0   46.94    1.67
  11   1   0    1.08    1.98
  -7  -5   6   67.97    2.74
  -5  -7   4  108.47    2.42
  -4 -14   6    3.80    1.83
  -4 -10   4   21.54    1.34
  -2 -14   4    2.60    1.49
   0 -12   2   38.95    1.53
   2 -16   3   19.88    2.21
   3  13   1   -1.12    1.39
   4   0  -1    0.17    1.86
   4   2  -1 1123.90    8.71
   4  16   2   63.97    2.18
   5 -15   2    5.59    1.97
   6  16   2   34.66    1.94
   7  -9   0    1.38    2.76
   7  -1  -1    5.47    2.30
  10   6   0    2.93    1.83
  -8   0   7    0.04    2.44
  -6  10   6   25.32    3.64
  -3  15   5    9.54    2.09
  -2 -16   5    3.20    1.91
  -2  -2   1 1331.94    8.18
  -1 -17   5    5.66    2.19
   1  11   1   20.93    1.53
   2   8   0   56.49    1.39
   2  12   1   77.52    1.91
   5   3  -1   85.95    2.36
   6  -2  -1  170.81    4.61
   6  10   0   66.22    1.64
   7   1  -1    5.20    1.87
   7  13   1   11.90    1.40
   8  12   1   15.14    2.08
   9   7   0   27.29    2.23
   9  11   1    3.07    1.99
  10  -4   0    0.68    2.59
  -8  -2   7   40.85    3.08
  -7  -9   7   28.66    2.31
  -6  -2   4  160.89    3.31
  -5 -13   6   19.78    1.91
  -5 -11   5   27.20    1.93
  -5  -1   3  177.94    3.75
  -3 -15   5   10.25    1.78
  -3 -13   4    7.03    1.10
  -3  13   4   15.88    1.88
   3 -17   3    4.03    2.17
   3 -15   2   10.82    2.03
   3  17   3    1.59    1.52
   5  -1  -1  275.46    6.07
   5   1  -1  281.22    4.96
   5  13   1    1.73    1.12
   6   0  -1    0.93    2.38
   7   9   0    3.73    1.46
   8 -12   1    7.48    3.24
   8   8   0   12.69    1.75
   9 -11   1    1.39    3.66
  10   4   0    0.64    2.11
  -6  -8   5   -0.77    1.27
  -6   2   4  192.87    4.71
  -4  -8   3   32.30    1.48
  -3 -11   3  158.00    2.60
  -2  16   5    7.45    1.94
  -1  11   2  118.50    2.28
  -1  17   5    7.26    2.30
   2  14   2    5.34    1.72
   2  16   3    0.73    2.05
   3  -9   0   68.40    2.61
   5   9   0   32.79    1.78
   5  15   2    4.62    1.32
  -7  -1   5    4.04    2.06
  -7   1   5    6.79    2.16
  -5  -9   4   18.99    1.41
  -5  -3   3  138.48    3.18
  -4 -12   4   14.51    1.67
  -2  12   3   52.49    1.94
  -2  14   4    4.59    1.61
   0 -16   3    5.55    1.71
   0 -10   1    3.34    1.41
   0  12   2  102.60    2.25
   1  13   2   76.63    2.05
   2  -8   0   67.10    2.15
   3 -13   1   -1.02    1.63
   4 -16   2   35.93    2.61
   4  12   1   63.87    1.83
   6  12   1   31.00    1.49
   7 -13   1   10.90    2.61
   9   5   0   95.53    3.22
  10  -2   0    8.77    2.72
  10   2   0   -0.35    2.52
  10   8   1    2.66    2.17
  -8   4   7   13.03    3.03
  -6 -12   6   20.71    2.07
  -4  14   6    1.92    2.27
  -2 -16   4   80.58    2.42
  -1 -15   3    4.01    1.23
  -1  13   3   19.87    1.67
  -1  15   4   14.99    2.04
   0 -18   4   36.00    2.32
   0 -14   2    2.81    1.41
   0  14   3  115.52    2.47
   0  16   4   65.22    2.20
   1  15   3   10.89    1.33
   4 -10   0   33.45    2.02
   4  14   2    1.37    1.63
   4  16   3    4.99    1.90
   6 -16   2   23.72    2.95
   6 -10   0   69.18    3.22
   6   8   0   33.10    1.42
   6  14   2   -0.98    1.38
   8   6   0   15.14    1.97
   8  10   1    4.55    1.88
   9   9   1   68.14    2.60
  10   0   0   78.94    3.65
  -7  -9   6   -1.36    1.93
  -7  -5   5   -0.31    1.73
  -6  -6   4   14.90    1.95
  -5 -13   5    0.87    1.74
  -5  -5   3    0.56    1.74
  -4  -2   2  192.32    3.51
  -3 -15   4    9.78    1.69
   0   8   1   31.93    1.65
   1  -7   0  569.73    4.68
   2 -18   3    8.02    2.07
   4 -14   1  123.45    3.50
   7  13   2   18.84    1.99
  -5   3   3  111.18    4.38
  -4  10   4   27.14    2.17
  -3 -13   3   -1.16    1.31
  -3  -9   2  192.13    2.61
  -3  15   6    4.36    2.35
  -1  -9   1  383.56    3.17
   1   9   1  514.19    3.65
   3  13   2   20.38    1.81
   3  15   3    7.16    1.99
   5   7   0  145.65    2.53
   5  11   1   35.74    1.36
   5  15   3    1.43    1.98
   6 -14   1   33.07    2.65
   8  12   2   18.77    1.78
   9   3   0   28.88    2.28
  10   6   1    5.82    2.09
  -8  -4   6    0.13    1.97
  -7  -7   5  143.06    3.27
  -5  -7   3  367.78    3.91
  -4 -16   5    9.62    1.85
  -4 -14   4    6.27    1.60
  -4  -4   2    0.32    1.25
  -4  12   5   25.13    2.14
  -2 -12   2   68.82    1.89
   2  16   4   58.28    2.40
   3 -17   2    2.64    1.74
   5 -17   2    4.51    2.28
   5  13   2   31.33    1.35
   6  10   1    0.57    1.59
  -7 -11   6   24.05    2.18
  -6 -12   5   27.95    2.06
  -6  -8   4   45.79    2.17
   0 -12   1  140.79    2.48
   0  16   5    3.03    2.18
   2 -14   1  154.54    2.68
   4  16   4   32.70    2.31
   5 -11   0   97.34    2.81
   6   6   0   29.04    1.88
   6  14   3   24.53    2.27
   7   5   0  230.87    3.40
   7   9   1  106.92    2.40
   8   8   1    0.94    1.56
   9   1   0    0.71    2.03
   9   7   1   39.36    2.01
  -5 -15   5    2.21    1.74
  -4 -12   3   67.07    2.13
  -4  -6   2   64.41    1.77
  -3  13   5   -0.89    1.96
  -2 -18   4   38.35    2.29
  -2 -16   3   10.42    1.72
  -1  15   5    5.09    1.90
   0 -18   3    8.42    1.78
   1  15   4   26.78    1.95
   2 -10   0  117.87    2.34
   2  14   3   64.66    1.64
   3 -15   1    6.44    1.65
   3 -11   0  284.31    4.25
   4   6   0   33.14    1.29
   4  14   3   63.01    2.72
   5 -15   1    3.30    1.95
   6  12   2   27.09    1.41
   7  13   3    1.72    2.15
   9  -5   0   77.38    4.42
   9   9   2    0.07    2.00
  10   4   1   58.23    2.74
  -8  -8   6    3.15    1.86
  -6 -10   4   82.87    2.19
  -5 -13   4   42.53    1.96
  -5  -9   3  375.52    3.55
  -3 -17   4    2.76    1.73
  -3  11   4  215.15    3.62
  -2  -8   1   28.36    1.26
  -1 -15   2   29.21    1.75
  -1 -11   1   25.00    1.48
   0 -16   2  107.03    2.28
   0  -6   0    2.88    1.57
   0  10   2  264.04    2.91
   1 -19   3   10.82    2.23
   1 -17   2    9.15    1.76
   1  -9   0    8.74    1.38
   1  11   2  122.61    2.21
   1  13   3   21.44    1.72
   4 -18   2   35.21    2.34
   4  12   2   -0.65    1.06
   5  15   4    7.16    2.32
   7  11   2   37.74    1.70
   8  10   2   28.47    2.00
   9  -1   0    1.18    2.04
  -9  -3   7   11.63    2.57
  -4 -16   4   51.65    2.21
  -4  -8   2  137.34    2.35
  -2 -14   2    3.14    1.42
   0  14   4    0.89    1.50
   2   4   0   12.17    1.36
   2  16   5    3.66    2.03
   3  15   4    3.20    1.89
   5   9   1  213.51    2.34
   8   2   0  120.69    3.37
   9  -3   0   21.04    2.35
   9   5   1    1.42    1.79
  -9  -1   7    7.05    2.46
  -7 -11   5    3.19    1.66
  -2  10   3    2.91    1.28
  -2  12   4   23.32    1.63
  -1  11   3   17.80    1.55
  -1  13   4   53.82    1.91
   0  12   3   59.70    1.89
   2 -18   2   17.44    1.60
   3  13   3   -1.05    1.63
   4 -16   1    3.17    1.79
   4 -12   0    4.37    1.47
   5  11   2  108.42    2.28
   5  13   3   -1.34    1.28
   6   8   1    2.78    1.48
  10   2   1   30.17    2.45
  10   6   2    0.91    2.04
  -6 -12   4   37.94    2.09
  -5 -15   4    4.55    1.56
  -2 -10   1    0.75    0.92
  -1  15   6    3.69    2.25
   0 -14   1  146.99    2.39
   1 -15   1   14.19    1.50
   1  15   5    9.42    2.03
   6  12   3   18.15    2.01
   7 -15   1    4.93    2.34
   7   7   1  120.36    2.48
   8   6   1   13.04    1.33
  -8  -6   5   11.77    1.92
  -7  -7   4  177.31    3.03
  -6  -6   3   56.51    2.21
  -6  -2   3  156.84    3.13
  -6  10   7   -1.17    2.46
  -4  12   6    4.99    2.21
  -3  -5   1   39.27    1.89
  -3  -3   1 1062.84    6.07
  -2 -18   3    9.21    1.72
  -1 -19   3   12.94    1.44
  -1 -13   1   31.30    1.58
   2 -16   1   21.99    1.81
   2 -12   0   74.18    2.15
   2  14   4    3.21    1.32
   3  15   5    4.70    2.31
   4   4   0    3.24    1.31
   4  14   4    0.18    1.44
   6 -16   1    4.81    2.19
   6 -12   0   38.10    2.67
   6  10   2   33.67    1.51
   7 -11   0   51.83    3.75
   7   9   2    1.05    1.68
   7  11   3    9.88    2.13
   8   0   0  524.54    6.44
   9   7   2   14.50    1.53
  -8  -2   5   76.50    2.91
  -7 -13   5    8.35    1.77
  -6  -8   3    1.95    1.54
  -3 -17   3    0.61    1.10
  -3  -7   1  497.96    3.78
  -3  13   6    5.23    1.99
  -1 -17   2    5.32    1.55
   2  10   2   90.83    1.96
   2  12   3   56.57    1.91
   3 -13   0   14.65    1.67
   4  12   3   62.16    1.97
   5 -13   0   54.34    2.42
   9   3   1   12.40    1.77
  10   0   1    0.25    1.56
  10   4   2    1.35    1.76
  -9   1   7    7.49    2.46
  -8  -8   5    3.09    1.42
  -7  -9   4    0.55    1.20
  -6 -14   4    0.91    1.55
  -5 -13   3    1.18    1.07
  -5  -5   2  445.94    4.11
  -4 -16   3    7.07    1.36
  -4 -12   2   10.22    1.42
  -2 -16   2   51.81    1.60
   0 -10   0  370.67    3.21
   0  14   5   32.29    1.71
   1 -19   2   -0.13    1.23
   1  13   4   40.34    1.97
   1  15   6    6.48    2.32
   3 -17   1    0.74    1.66
   5 -17   1    2.98    2.21
   5   7   1  266.37    2.80
   5  13   4   16.48    1.62
  -9  -7   6   22.88    2.31
  -8 -10   5    2.83    1.92
  -6 -10   3   -0.06    1.56
  -5  -7   2  152.57    2.71
  -3 -15   2   12.77    1.44
  -1  13   5    6.34    1.89
   0 -16   1    2.34    1.31
   1   9   2    5.96    1.34
   3  13   4   22.17    2.02
   4  14   5   38.01    2.50
   5   3   0   63.50    1.70
   6   2   0  346.87    3.33
   6  12   4   16.16    2.16
   8  -2   0  145.35    4.13
   8   4   1   71.79    2.19
  10  -8   1    0.11    2.05
  10  -2   1   25.12    2.50
  -8   0   5   -0.15    1.88
  -5  -9   2   46.47    1.84
  -4  10   5    6.26    1.86
  -3  -1   1  586.02    4.92
  -1  -7   0  263.88    2.95
   0  12   4   83.59    2.13
   1 -17   1    6.35    1.56
   1  11   3   12.59    1.44
   3   3   0   10.77    1.09
   4 -14   0    2.53    1.53
   5   9   2   24.14    1.53
   7   5   1    2.99    1.06
   7  11   4   16.49    1.96
   9   5   2   43.74    2.30
   9   7   3   13.16    2.26
  -6 -12   3   50.24    1.88
  -5 -15   3    3.24    1.05
  -5  11   7    5.85    2.14
  -3 -11   1  169.25    2.42
  -3  11   5   75.87    2.38
  -3  13   7   -1.19    2.17
  -2 -14   1  160.19    2.53
  -1  -9   0    6.71    1.40
  -1  -3   0  515.55    4.71
   0   8   2   96.29    1.84
   0  14   6    0.09    2.09
   2 -18   1   15.58    1.72
   2 -14   0    5.92    1.32
   3  11   3   61.59    1.88
   5  13   5   -0.40    1.71
   6  10   3    1.61    1.16
   7   9   3   34.99    2.47
   8  -4   0    2.31    2.28
   8   6   2   10.95    1.59
   9   1   1   16.90    1.70
  10   2   2    8.14    1.76
  -9  -1   6    1.09    2.16
  -7 -13   4   14.69    1.90
  -7   1   4   45.08    2.37
  -5 -11   2  156.50    2.61
  -4 -18   3    5.27    1.57
  -4   8   4   37.39    2.23
  -4  12   7   10.47    2.00
  -1  11   4  112.12    2.28
   2   6   1  147.04    2.03
   2  14   6   -0.28    2.20
   3 -15   0    8.08    1.74
   4  12   4    0.12    1.32
  -5  -1   2    4.14    1.32
  -1 -11   0  239.14    2.95
  -1  13   6   15.39    2.35
   2   2   0  626.82    4.66
   3 -19   1   12.70    1.67
   4   6   1   30.17    1.11
   7  -1   0   91.99    2.39
   8  -6   0   11.96    2.91
   8   2   1   59.18    2.12
  -7  -7   3  133.18    2.76
  -7  -5   3    2.01    1.32
  -5 -17   3    2.28    1.44
  -5 -13   2   57.97    1.96
  -4 -16   2   70.12    2.04
  -4  -8   1   51.33    1.83
  -4  -6   1   44.05    1.54
  -3 -13   1    0.59    0.86
  -1   9   3  230.16    2.42
   4  10   3   12.34    1.14
   5  11   4   37.76    1.62
   6 -14   0    1.82    1.76
   9  -1   1   14.13    1.87
   9   3   2   14.41    1.78
  10   0   2   28.74    2.04
  -9  -9   5   30.57    2.59
  -9  -5   5    1.82    1.57
  -4 -10   1   42.76    1.65
  -4  -4   1 1276.90    5.71
  -2 -16   1    6.70    1.06
   0 -14   0    1.53    1.26
   0  12   5   21.81    2.13
   1 -19   1   17.97    1.35
   1 -15   0   10.84    1.06
   2 -16   0   64.97    2.20
   2  10   3   -0.27    1.01
   4 -16   0   63.88    2.62
   4  12   5   18.28    2.15
   5   1   0    6.29    1.28
   5   5   1    0.12    0.99
   6   0   0 1379.36    6.40
   6   4   1  311.43    3.04
   6  10   4   15.91    1.67
   7   3   1   99.85    2.36
   8   8   4    8.56    1.68
   9   5   3    0.58    1.36
  -7  -3   3   91.86    2.47
  -6  -8   2   45.34    1.98
  -6  -6   2   28.99    1.78
  -3 -19   2    2.18    1.50
  -3 -15   1   16.42    1.40
  -1 -13   0   95.96    1.95
  -1  13   7    0.48    2.28
   1  13   6   14.01    1.66
   2  12   5   26.57    2.25
   3  11   4   72.27    1.82
   8   4   2    3.02    1.47
  -8  -2   4  157.08    3.24
  -7 -13   3   10.72    1.63
  -4 -18   2   23.05    1.67
  -4 -12   1   34.72    1.43
  -3  11   6   67.95    2.58
   3 -17   0    4.83    1.45
   3   5   1   23.68    1.32
   4  12   6    1.17    2.55
   6   6   2   31.02    1.65
   6  10   5   -1.12    2.35
   7 -13   0   12.42    2.56
   7   5   2   77.29    2.22
   7   7   3   60.45    1.94
  -6 -12   2   42.12    1.93
  -6  -4   2   20.59    1.54
  -2 -18   1    9.82    1.54
  -2 -12   0   88.64    1.94
  -2  -4   0   11.15    1.29
  -1 -19   1   13.10    1.21
  -1  11   5    5.58    1.65
   0 -20   1   29.14    1.81
   0 -16   0   86.52    2.21
   1 -17   0    4.38    1.37
   1   9   3  260.27    2.79
   3  -9  -1  266.61    3.95
   4  10   4   20.34    1.82
   7  -3   0   97.01    3.66
   8   0   1    1.38    1.44
   9  -3   1   11.12    1.84
   9   1   2    2.07    1.38
  10  -2   2    6.08    1.51
  -9   1   6    1.57    1.95
  -8   2   5   69.20    3.61
  -7 -15   3    2.58    1.48
  -5 -17   2    3.97    1.23
  -3 -17   1    1.48    1.36
  -1 -15   0    9.90    1.17
   0  10   4  109.77    2.17
   0  12   6   20.16    2.05
   2 -10  -1    0.54    1.37
   2  -8  -1   20.38    1.79
   2  12   6   11.19    2.42
   3  11   5   43.39    2.37
   4  -8  -1   44.79    2.58
   8   6   4    4.71    1.94
   9   3   3    5.63    1.73
  -6 -14   2    0.99    1.42
  -5 -11   1   30.33    1.84
  -5  -7   1  313.05    3.20
  -2 -14   0    3.69    1.44
   2 -18   0   25.86    1.72
   2  -6  -1  146.15    3.30
   2  10   4   39.08    1.97
   3 -11  -1  159.64    2.74
   3   1   0   40.11    1.52
   4 -10  -1   32.53    2.34
   5 -17   0    1.52    1.63
   5   9   4   12.59    1.44
   6 -16   0   17.38    2.37
   6   8   4    9.41    2.14
   7   7   4   56.12    2.65
  -8 -10   3    3.83    1.73
  -8  -8   3    1.10    1.65
  -7  -1   3    8.52    1.70
  -4 -16   1    6.56    1.36
  -3  -9   0   30.44    1.29
  -3  -7   0  295.59    3.00
   0  12   7   11.75    2.54
   1  -7  -1  733.54    5.60
   2 -12  -1   69.17    2.04
   4 -18   0   32.60    2.13
   4  10   5   10.43    2.11
   8   2   2   55.43    2.03
   9  -5   1    0.29    1.59
  10  -4   2   -0.29    1.45
  -9  -1   5   16.28    2.20
  -8 -12   3   15.56    1.78
  -8  -6   3   15.49    1.68
  -7  -9   2    1.61    1.47
  -6 -16   2   15.32    1.86
  -6  -2   2  279.54    2.90
  -5 -13   1    0.99    0.96
  -5  -5   1    1.15    1.29
  -3 -19   1    9.31    1.59
  -3 -13   0   12.34    1.44
  -2 -20   1    9.80    1.16
  -1   9   4    2.23    1.44
  -1  11   6   36.20    2.39
   1 -19   0   -0.87    1.33
   3 -19   0    1.80    1.63
   3 -13  -1    0.30    1.34
   3  11   6   28.21    2.09
   4 -12  -1   67.71    2.76
   5   3   1   62.93    1.60
   5   7   3  114.58    2.34
   6  -2   0  363.67    3.69
   6   2   1  140.99    2.19
   7   5   3    1.69    1.65
   9  -1   2   -0.23    1.44
 -10  -2   6    5.30    2.36
  -9  -5   4   79.60    2.59
  -8 -14   3   14.71    1.84
  -7  -7   2  159.95    2.99
  -6   2   3  157.81    3.89
  -6   8   7    0.33    2.07
  -5 -15   1    1.36    1.23
  -4  10   7    1.48    2.02
  -3  -5   0  436.59    3.32
   0 -10  -1    1.28    1.50
   1  11   6   29.52    2.39
   4  10   6    4.72    2.68
   5   5   2  264.43    2.76
   6   4   2    2.62    1.48
   7   3   2   50.72    1.57
   7   7   5   30.09    2.00
   8  -2   1   80.28    2.12
  10  -6   2    1.38    1.67
  -8   0   4  443.77    4.75
  -4 -18   1    2.48    1.09
  -3 -15   0   10.02    1.38
  -1  11   7    3.31    2.45
   0 -12  -1  109.16    2.19
   0  10   5    3.25    1.77
   1   9   4    1.28    1.55
   2 -20   0    0.88    1.61
   2   6   2  130.02    1.90
   2  10   5    0.89    1.37
   4  -6  -1  101.20    5.04
   4   0   0  679.43    4.59
   5  -1   0    4.56    1.29
   5   9   6    6.06    2.50
   6   8   6    4.04    2.41
   7  -5   0  140.49    4.80
   8   4   4    2.96    1.73
  -7 -15   2   12.77    1.76
  -7  -5   2  221.40    2.93
  -6 -10   1    0.68    1.62
  -4 -10   0   25.95    1.68
  -4  10   8    2.05    2.37
  -2 -18   0   27.38    1.72
  -2  -2   0 1033.89    5.64
  -1 -19   0    0.09    1.35
   0 -20   0    0.11    1.52
   1  11   7    2.16    1.82
   3  -5  -1   47.22    2.95
   4 -14  -1  112.75    3.35
   4   8   4   51.49    2.16
   5  -9  -1  326.87    8.65
   7 -15   0    4.86    2.33
  -6 -12   1   21.74    1.47
  -6  -8   1    1.41    1.02
  -5  -3   1  109.09    1.94
  -3 -17   0    6.96    1.34
  -1 -11  -1   17.33    1.57
  -1  -9  -1  451.76    3.77
   0  -6  -1   44.38    1.77
   1  -5  -1    0.94    1.20
   2 -16  -1   11.95    1.59
   2  10   6   21.08    2.60
   3   9   5  162.18    3.18
   5   7   4   54.69    2.30
   6   6   4   26.23    2.18
   8   0   2  375.95    3.60
   8   2   3   21.01    1.91
   9 -11   1    0.67    2.01
   9  -9   1    9.29    2.73
   9  -3   2   13.69    1.79
  -9 -11   3    1.22    1.96
  -9  -9   3   36.96    2.28
  -6 -14   1   24.70    1.52
  -6  -6   1   68.03    1.80
  -4 -14   0    2.54    0.92
  -4  -6   0   73.25    1.66
  -3   1   1  581.92    6.53
   0  10   6   45.88    2.38
   2  10   7    0.34    2.79
   5 -13  -1    0.22    1.64
   7  -1   1    6.24    1.27
   8   4   5   12.82    1.65
   9   1   4   -1.03    1.46
  -8 -12   2   32.49    2.15
  -8 -10   2   28.48    1.85
  -6 -16   1    1.36    1.49
  -4 -16   0   53.09    1.99
  -3   9   6   36.63    2.26
  -2 -20   0    0.75    1.45
  -2  10   7    0.44    1.86
  -1 -15  -1    6.73    1.56
  -1   9   5  150.85    2.88
   0 -16  -1    0.84    1.02
   1   7   3  267.97    2.70
   1   9   5  189.73    3.14
   2   8   4   40.13    1.88
   3 -17  -1    0.81    1.36
   3   9   6   14.79    2.63
   4   8   5    4.19    1.96
   7   3   3   46.85    1.98
   7   5   5    1.86    1.88
   8  -4   1  129.19    2.47
   9  -1   3    8.45    1.48
  -8 -14   2   -0.44    1.76
  -8  -8   2   10.65    1.66
  -8  -2   3  107.03    2.95
  -7  -3   2  157.65    2.32
  -5 -11   0  104.71    2.59
  -3 -19   0    0.91    1.45
  -3  -3   0    7.52    0.90
  -2 -10  -1    0.79    1.07
   0   8   4   41.44    1.83
   0  10   7    1.60    2.14
   0  10   8    7.46    2.96
   2 -18  -1    8.62    1.48
   3   9   7   56.65    3.45
   5   5   3    4.29    1.54
   6   0   1   -0.08    1.30
   6   4   3   85.88    1.93
   6   6   5    8.74    1.70
  -4 -18   0   33.36    1.84
  -2  -8  -1   37.97    1.59
  -1 -17  -1    7.66    1.33
   0 -18  -1    6.62    1.66
   1   3   1  363.81    3.30
   1   5   2  772.41    4.12
   4   4   2    1.10    1.32
   4   8   6   19.09    1.97
   4   8   7    6.21    2.71
   5 -15  -1    1.62    1.66
   5   1   1  289.16    2.67
   6   6   6    4.91    2.21
  -9  -5   3    2.46    1.39
  -6  -4   1  344.90    3.12
  -5 -15   0    5.36    1.09
  -4   0   1    0.22    1.19
  -1   9   6    2.91    1.93
   1 -19  -1   15.24    1.88
   1   9   6    1.12    2.00
   6  -4   0   10.11    1.81
   8  -2   2   29.38    2.24
   8   0   3   -1.26    1.62
   9  -1   4   -0.11    1.62
 -10  -2   5   36.30    2.75
 -10   0   6   41.23    3.73
  -7  -7   1  265.07    2.86
  -5 -17   0    0.44    1.46
  -4  -4   0    1.17    0.81
  -3 -13  -1   -0.27    1.11
  -1 -19  -1    5.86    1.66
  -1  -5  -1    5.27    1.20
   1   9   7   30.12    3.03
   1   9   8   -1.13    3.09
   2  -4  -1  730.81    7.39
   3 -19  -1    4.35    1.85
   6   4   4   -2.35    1.91
   7  -7   0  199.09    4.70
   9  -3   3    9.14    1.72
  -9  -1   4    2.03    1.71
  -5   7   6   50.62    2.76
  -3 -15  -1    5.38    1.10
  -2  -6  -1  111.71    1.94
  -1   9   8    3.79    2.57
   0 -20  -1   16.94    1.92
   0  -4  -1 1298.72    6.48
   0   8   5    1.17    1.81
   2 -20  -1    6.99    1.83
   2   8   6   30.02    2.66
   7   3   5   20.00    2.31
 -10  -4   4   -0.46    1.65
  -9   1   5   17.95    3.02
  -7   1   3    6.49    1.75
  -6 -14   0   -0.55    1.17
  -6 -10   0   56.50    2.07
  -6   4   4   13.10    3.55
  -5  -1   1  345.13    3.27
  -3 -17  -1   -0.56    1.48
  -1   7   4  180.86    2.71
   0   6   3   22.00    1.47
   2   8   7    2.00    2.84
   2   8   8    8.08    3.59
   3   7   5   39.93    1.95
   7   1   3    5.22    1.17
   7   3   6    6.21    2.36
   8   0   4   36.62    3.41
  -8 -14   1    9.73    2.10
  -8 -10   1    3.75    1.42
  -8  -4   2    1.34    1.32
  -7   5   6   62.57    3.84
  -6 -16   0   21.76    1.46
  -6  -8   0   59.90    1.77
  -6   6   6    3.59    2.12
  -5  -5   0  428.53    3.17
  -4 -14  -1   96.72    2.45
  -4 -10  -1   46.84    1.77
   3   7   6   32.59    2.74
   5   5   5    1.85    1.97
   6   4   6    2.92    2.28
   7  -1   2   44.41    1.66
  -9  -7   2   37.02    2.11
  -9  -3   3   43.22    2.05
  -7  -5   1    3.17    1.02
  -4 -16  -1    2.37    1.13
  -3 -19  -1    5.22    1.27
   0 -14  -2    0.80    1.46
   0 -12  -2   35.35    2.68
   4   6   6    8.48    2.12
   4   6   7    7.30    2.64
   5  -3   0  113.12    2.65
   5   5   6   56.11    2.72
   5   5   7    1.69    2.58
   8  -2   3    8.91    1.78
   8   0   5    0.31    1.70
   9  -5   3   -1.35    1.56
  -8  -8   1    0.30    1.46
  -7 -13   0    4.63    1.77
  -5   7   7   40.51    3.06
  -4 -18  -1    3.65    1.68
  -4  -8  -1   34.94    1.61
  -2   8   7    0.96    2.45
   0   8   7   -0.02    2.27
   0   8   8    6.81    2.78
   1   7   5  301.49    3.63
   2 -14  -2    1.70    1.56
   2   2   1 1166.48    5.74
   6 -14  -1   15.17    3.30
   6  -2   1  111.89    3.49
   7   1   4   15.97    1.69
   8  -4   2    2.48    1.39
  -7 -15   0    6.03    1.53
  -7 -11   0   29.99    2.13
  -6  -2   1  172.95    2.30
  -5 -15  -1    0.86    1.55
  -5 -13  -1    1.19    1.05
  -5 -11  -1   44.02    2.09
   0 -10  -2  147.88    2.49
   2 -16  -2   46.04    2.22
   2 -10  -2  116.53    2.75
   3  -1   0   36.21    1.83
   9  -9   2    1.38    1.95
  -7  -9   0    2.46    1.48
  -5 -17  -1    6.53    1.67
  -3  -5  -1   25.97    1.35
   1   7   6   79.77    3.04
   1   7   8   28.20    3.94
   3 -15  -2    7.07    1.78
   3 -11  -2  469.12    5.88
   4  -2   0  119.79    2.62
   4   2   2  135.95    2.26
   5   1   2    0.36    1.61
   6 -16  -1    0.94    2.12
   7   1   6    8.34    1.91
   8  -8   1   -1.02    1.52
   8  -2   4   43.53    2.13
  -8   0   3    0.39    1.82
  -4  -2   0  125.64    2.01
  -3   7   6  112.14    3.11
  -1 -19  -2   -1.79    1.51
  -1  -9  -2    2.90    1.43
   0   6   4   17.23    1.88
   1 -19  -2    1.01    1.68
   3   1   1  645.88    4.38
   5  -1   1  292.28    2.99
   5   3   4   18.45    1.56
   6   2   5   90.55    2.63
   7  -1   3    8.14    1.41
   9  -7   3   17.11    2.25
 -10  -2   4   15.02    2.08
  -8 -14   0    1.51    1.79
  -8  -2   2  265.35    3.20
  -7  -3   1  193.98    2.41
  -7   5   7    1.91    2.72
  -6 -16  -1    0.83    1.65
  -6 -12  -1   31.87    2.07
  -6   6   8    3.14    2.22
  -5  -3   0   98.52    1.76
  -4   6   5   74.51    2.68
  -3 -15  -2    7.75    1.92
  -3 -13  -2   21.65    2.01
  -2 -18  -2   14.07    1.41
  -1   7   6   76.96    2.92
  -1   7   8   35.34    3.72
   0  -8  -2   61.21    1.56
   2   6   6   26.46    2.79
   2   6   7   36.65    3.30
   2   6   8    3.07    2.08
   4   0   1   -0.21    1.41
   7  -9   0    1.09    2.26
   7  -5   1    4.69    1.47
   7  -3   2   41.97    2.51
   8  -4   3   86.36    2.14
 -10  -4   3   93.19    3.13
  -8   4   7   21.08    3.50
  -6 -10  -1    2.10    1.39
  -5  -7  -1  312.85    2.78
  -3 -17  -2    2.32    1.37
  -3 -11  -2  161.35    2.52
  -1  -3  -1  348.72    3.33
  -1   7   7   41.41    2.68
   1  -3  -1  222.49    3.77
   2  -8  -2  140.85    2.82
   3 -19  -2    2.16    2.03
   3   5   7   -1.97    2.59
   4 -14  -2    2.31    2.04
   4   4   6    0.54    2.28
   4   4   7  104.34    3.31
   5   3   6   12.19    2.12
   5   3   7    4.48    1.81
   6   0   3    0.75    1.75
   7  -1   4   24.13    1.79
   8  -6   2   11.81    1.73
  -6  -4   0   15.52    1.38
  -4 -16  -2   34.19    2.44
  -4 -14  -2    1.43    1.72
  -2  -8  -2   76.40    1.79
   7  -1   5    0.71    1.91
 -10   0   5    0.10    2.61
  -7 -15  -1    2.31    1.86
  -4 -12  -2   -0.62    1.11
  -4   4   3  654.22    7.58
  -3  -9  -2   61.75    1.59
  -1  -7  -2  320.93    2.70
   1   5   4  442.92    3.95
   4 -18  -2   21.59    2.63
   5   1   3  174.16    2.71
   6  -6   0   35.03    2.26
   8 -10   1    1.17    1.77
   8  -4   4    2.69    1.56
   8  -4   5   10.66    2.39
  -9  -1   3   29.30    2.38
  -8  -8   0   14.55    1.66
  -7 -11  -1    4.91    1.64
  -6  -8  -1    0.52    0.96
  -4   6   6   37.14    2.66
   0   6   7   15.77    2.82
   1   3   2  563.85    4.26
   6   0   4  216.73    2.82
 -10 -10   1    6.80    2.02
  -9  -3   2   26.45    1.95
  -7  -5   0  118.94    2.03
  -5 -17  -2    2.20    1.97
  -4   6   7   28.05    2.49
  -2   6   8    7.43    3.24
   1   5   8   19.87    2.63
   6   0   5   -0.08    1.81
   6   0   6   88.65    2.57
   7  -3   3   49.48    1.65
 -11  -5   3    0.28    2.20
 -11  -3   4   -1.16    2.23
  -7  -9  -1  106.98    2.39
  -5 -11  -2   62.36    2.34
  -5  -5  -1   -0.82    1.37
  -5   5   5   -0.55    2.39
  -2   0   0 2150.87   10.83
  -2   6   7    8.58    2.85
  -1   5   9   -1.26    1.89
   0 -16  -3    2.02    1.95
   1   5   7    1.16    3.11
   2   4   8    1.83    2.45
   3   3   8    8.18    2.57
   5   1   4    0.99    1.35
   5   1   7   24.92    2.28
   6  -4   1  231.57    2.94
   8  -8   2   16.14    1.86
 -10  -8   1    1.63    1.80
  -9  -5   1   -0.60    1.51
  -6 -14  -2    3.08    1.85
  -2 -16  -3    1.15    2.11
  -2 -14  -3   81.15    3.13
  -2  -6  -2  111.97    1.72
   0 -18  -3    5.78    1.91
   0 -12  -3  118.79    2.83
   1 -13  -3   21.58    2.17
   2   4   7   90.57    3.16
   4 -10  -2   46.73    2.82
   4   2   7   44.49    2.60
   5  -1   2    0.51    1.70
   5   1   5   46.49    1.86
   5   1   6    1.90    1.76
   7  -7   1  132.60    3.92
   7  -3   5   41.80    2.42
   7  -3   6   24.27    2.10
   8 -12   1    7.17    2.83
   8  -6   4    2.81    1.91
  -9  -9   0    1.39    1.26
  -8 -12  -1   11.72    1.54
  -5  -9  -2   26.98    1.71
  -3 -17  -3    0.64    1.91
  -3   5   9    0.29    2.94
  -2 -12  -3   61.13    2.43
  -1 -19  -3   12.54    1.61
  -1 -11  -3   32.21    1.94
  -1   5   8  116.86    4.86
   0   4   9    4.18    2.31
   2 -14  -3  123.76    3.69
   2   2   2  521.20    4.28
   2   4   6    2.59    1.88
   3   3   6   28.46    2.43
   4   2   6   17.82    1.88
 -10  -4   2    0.44    1.73
 -10  -2   3   76.15    2.88
  -8 -10  -1    1.05    1.65
  -3 -13  -3    0.23    1.78
  -1   5   5    1.66    2.31
   1 -11  -3   22.67    1.92
   2 -18  -3    3.62    2.10
   4   0   2  705.29    4.66
   8  -8   3    0.26    2.12
  -6 -10  -2   30.11    1.59
  -6  -2   0  303.01    2.86
  -5   5   7   -0.11    2.41
  -4 -16  -3    0.81    2.09
  -4 -14  -3   75.53    3.06
  -3 -11  -3  119.78    2.73
  -2 -10  -3    0.90    1.51
  -2  -2  -1 1560.99    6.60
  -2   4   3  632.54    5.45
  -1   5   6  317.50    4.69
   0 -10  -3    2.81    1.11
   0   4   8   -1.10    2.26
   2 -12  -3   72.94    2.82
   6  -2   4   99.43    2.59
   6  -2   6   31.04    2.22
   7  -5   3    0.35    1.71
   4   0   8   -2.36    1.76
   0   0   0    0.00    0.00
_computing_structure_solution     'SHELXT 2014/5 (Sheldrick, 2014)'
_computing_structure_solution     'SHELXT 2018/2 (Sheldrick, 2018)'
;
_shelx_hkl_checksum              92851
_shelx_res_file
;
TITL 9_a.res in C2/c
    9.res
    created by SHELXL-2018/3 at 23:43:12 on 17-Dec-2019
REM Old TITL tiopyra3_a.res in C2/c
REM SHELXT solution in C2/c: R1 0.115, Rweak 0.002, Alpha 0.021
REM <I/s> 0.472 for 34 systematic absences, Orientation as input
REM Formula found by SHELXT: C6 Br N2 S
CELL 0.71073 8.4675 14.9142 6.8814 90 101.575 90
ZERR 4 0.0011 0.0019 0.0009 0 0.01 0
LATT 7
SYMM -X,+Y,0.5-Z
SFAC C H Br N S
UNIT 24 36 4 8 4
L.S. 20 0 0
PLAN  2
SIZE 0.04 0.14 0.21
TEMP -153.15
HTAB N2 Br1
BOND $h
list 4
fmap 2 53
acta
OMIT -2 54
REM <olex2.extras>
REM <HklSrc "%.\\9.hkl">
REM </olex2.extras>
WGHT    0.139300
FVAR       0.27512
BR1   3    0.000000    0.192942    0.250000    10.50000    0.02976    0.04285 =
         0.02651    0.00000    0.00955    0.00000
S1    5    0.500000    0.128304    0.250000    10.50000    0.03628    0.03586 =
         0.04194    0.00000    0.01680    0.00000
N2    4    0.364513    0.288933    0.252818    11.00000    0.02742    0.03905 =
         0.02918    0.00002    0.01174    0.00010
AFIX  43
H2    2    0.273349    0.259950    0.248504    11.00000   -1.20000
AFIX   0
C1    1    0.500000    0.239960    0.250000    10.50000    0.02626    0.03322 =
         0.03172    0.00000    0.01146    0.00000
C3    1    0.362180    0.379484    0.261860    11.00000    0.02622    0.04142 =
         0.02552   -0.00098    0.00806    0.00370
C4    1    0.500000    0.426356    0.250000    10.50000    0.03460    0.03936 =
         0.02487    0.00000    0.00774    0.00000
AFIX  43
H4    2    0.500001    0.490054    0.249997    10.50000   -1.20000
AFIX   0
C7    1    0.209131    0.422263    0.283537    11.00000    0.03129    0.04560 =
         0.03923   -0.00093    0.01145    0.00459
AFIX 137
H7A   2    0.126072    0.410019    0.165295    11.00000   -1.50000
H7B   2    0.224963    0.487166    0.298873    11.00000   -1.50000
H7C   2    0.174921    0.397957    0.400812    11.00000   -1.50000
AFIX   0
HKLF 4
REM  9_a.res in C2/c
REM wR2 = 0.1681, GooF = S = 1.052, Restrained GooF = 1.052 for all data
REM R1 = 0.0644 for 871 Fo > 4sig(Fo) and 0.0663 for all 933 data
REM 49 parameters refined using 0 restraints
END
WGHT      0.1393      0.0000
REM Highest difference peak  2.213,  deepest hole -1.618,  1-sigma level  0.241
Q1    1   0.0000  0.1391  0.2500  10.50000  0.05    2.21
Q2    1   0.0000  0.2504  0.2500  10.50000  0.05    1.85
;
_shelx_res_checksum              11918
loop_
_space_group_symop_operation_xyz
'x, y, z'
'-x, y, -z+1/2'
'x+1/2, y+1/2, z'
'-x+1/2, y+1/2, -z+1/2'
'-x, -y, -z'
'x, -y, z-1/2'
'-x+1/2, -y+1/2, -z'
'x+1/2, -y+1/2, z-1/2'
loop_
_atom_site_type_symbol
_atom_site_label
_atom_site_fract_x
_atom_site_fract_y
_atom_site_fract_z
_atom_site_U_iso_or_equiv
_atom_site_adp_type
_atom_site_calc_flag
_atom_site_occupancy
_atom_site_disorder_assembly
_atom_site_disorder_group
Br Br1 0.000000 0.19294(3) 0.250000 0.0325(3) Uani d 1 . .
S S1 0.500000 0.12830(11) 0.250000 0.0368(5) Uani d 1 . .
N N2 0.3645(5) 0.2889(2) 0.2528(6) 0.0310(8) Uani d 1 . .
H H2 0.273349 0.259950 0.248504 0.037 Uiso calc 1 . .
C C1 0.500000 0.2400(4) 0.250000 0.0296(12) Uani d 1 . .
C C3 0.3622(5) 0.3795(3) 0.2619(5) 0.0307(8) Uani d 1 . .
C C4 0.500000 0.4264(4) 0.250000 0.0327(12) Uani d 1 . .
H H4 0.500001 0.490054 0.249997 0.039 Uiso calc 1 . .
C C7 0.2091(6) 0.4223(3) 0.2835(7) 0.0381(9) Uani d 1 . .
H H7A 0.126072 0.410019 0.165295 0.057 Uiso calc 1 . .
H H7B 0.224963 0.487166 0.298873 0.057 Uiso calc 1 . .
H H7C 0.174921 0.397957 0.400812 0.057 Uiso calc 1 . .
loop_
_atom_site_aniso_label
_atom_site_aniso_U_11
_atom_site_aniso_U_22
_atom_site_aniso_U_33
_atom_site_aniso_U_12
_atom_site_aniso_U_13
_atom_site_aniso_U_23
Br1 0.0298(5) 0.0429(5) 0.0265(5) 0.000 0.0095(3) 0.000
S1 0.0363(8) 0.0359(9) 0.0419(9) 0.000 0.0168(7) 0.000
N2 0.0274(17) 0.0390(16) 0.0292(19) 0.0001(15) 0.0117(15) 0.0000(14)
C1 0.026(2) 0.033(3) 0.032(3) 0.000 0.011(2) 0.000
C3 0.0262(17) 0.041(2) 0.0255(18) 0.0037(16) 0.0081(14) -0.0010(15)
C4 0.035(3) 0.039(3) 0.025(3) 0.000 0.008(2) 0.000
C7 0.031(2) 0.046(2) 0.039(2) 0.0046(17) 0.0114(19) -0.0009(17)
loop_
_atom_type_symbol
_atom_type_description
_atom_type_scat_dispersion_real
_atom_type_scat_dispersion_imag
_atom_type_scat_source
C C 0.0033 0.0016 'International Tables Vol C Tables 4.2.6.8 and 6.1.1.4'
H H 0.0000 0.0000 'International Tables Vol C Tables 4.2.6.8 and 6.1.1.4'
Br Br -0.2901 2.4595 'International Tables Vol C Tables 4.2.6.8 and 6.1.1.4'
N N 0.0061 0.0033 'International Tables Vol C Tables 4.2.6.8 and 6.1.1.4'
S S 0.1246 0.1234 'International Tables Vol C Tables 4.2.6.8 and 6.1.1.4'
loop_
_geom_angle_atom_site_label_1
_geom_angle_atom_site_label_2
_geom_angle_atom_site_label_3
_geom_angle_site_symmetry_1
_geom_angle_site_symmetry_3
_geom_angle
_geom_angle_publ_flag
C1 N2 H2 . . 118.1 ?
C3 N2 H2 . . 118.1 ?
C3 N2 C1 . . 123.8(4) ?
N2 C1 S1 . . 122.4(3) ?
N2 C1 S1 2_655 . 122.4(3) ?
N2 C1 N2 . 2_655 115.2(5) ?
N2 C3 C4 . . 118.9(4) ?
N2 C3 C7 . . 117.2(4) ?
C4 C3 C7 . . 123.9(4) ?
C3 C4 C3 2_655 . 119.0(6) ?
C3 C4 H4 . . 120.5 ?
C3 C4 H4 2_655 . 120.5 ?
C3 C7 H7A . . 109.5 ?
C3 C7 H7B . . 109.5 ?
C3 C7 H7C . . 109.5 ?
H7A C7 H7B . . 109.5 ?
H7A C7 H7C . . 109.5 ?
H7B C7 H7C . . 109.5 ?
loop_
_geom_bond_atom_site_label_1
_geom_bond_atom_site_label_2
_geom_bond_site_symmetry_2
_geom_bond_distance
_geom_bond_publ_flag
S1 C1 . 1.665(6) ?
N2 H2 . 0.8800 ?
N2 C1 . 1.363(5) ?
N2 C3 . 1.352(5) ?
C3 C4 . 1.377(5) ?
C3 C7 . 1.479(6) ?
C4 H4 . 0.9500 ?
C7 H7A . 0.9800 ?
C7 H7B . 0.9800 ?
C7 H7C . 0.9800 ?
loop_
_geom_hbond_atom_site_label_D
_geom_hbond_atom_site_label_H
_geom_hbond_atom_site_label_A
_geom_hbond_site_symmetry_A
_geom_hbond_distance_DH
_geom_hbond_distance_HA
_geom_hbond_distance_DA
_geom_hbond_angle_DHA
_geom_hbond_publ_flag
N2 H2 Br1 . 0.88 2.52 3.399(4) 173.5 yes

_cod_database_fobs_code 2022138
