#------------------------------------------------------------------------------
#$Date: 2022-11-08 21:40:22 +0200 (Tue, 08 Nov 2022) $
#$Revision: 279112 $
#$URL: file:///home/coder/svn-repositories/cod/cif/2/02/26/2022677.cif $
#------------------------------------------------------------------------------
#
# This file is available in the Crystallography Open Database (COD),
# http://www.crystallography.net/. The original data for this entry
# were provided by IUCr Journals, http://journals.iucr.org/.
#
# The file may be used within the scientific community so long as
# proper attribution is given to the journal article from which the
# data were obtained.
#
data_2022677
loop_
_publ_author_name
'Bosch, Eric'
'Bowling, Nathan P.'
'Speetzen, Erin D.'
_publ_section_title
;
 A structural and computational comparison of close contacts and related
 intermolecular energies of interaction in the structures of
 1,3-diiodo-5-nitrobenzene, 1,3-dibromo-5-nitrobenzene, and
 1,3-dichloro-5-nitrobenzene
;
_journal_coeditor_code           DV3019
_journal_issue                   10
_journal_name_full               'Acta Crystallographica Section C'
_journal_page_first              552
_journal_page_last               558
_journal_paper_doi               10.1107/S2053229622009275
_journal_volume                  78
_journal_year                    2022
_chemical_formula_iupac          'C6 H3 Cl2 N O2'
_chemical_formula_sum            'C6 H3 Cl2 N O2'
_chemical_formula_weight         191.99
_chemical_name_systematic
;
1,3-Dichloro-5-nitrobenzene
;
_space_group_crystal_system      monoclinic
_space_group_IT_number           11
_space_group_name_Hall           '-P 2yb'
_space_group_name_H-M_alt        'P 1 21/m 1'
_atom_sites_solution_hydrogens   geom
_atom_sites_solution_primary     dual
_audit_creation_method           SHELXL-2018/3
_cell_angle_alpha                90
_cell_angle_beta                 94.6320(10)
_cell_angle_gamma                90
_cell_formula_units_Z            2
_cell_length_a                   3.8115(3)
_cell_length_b                   13.6452(11)
_cell_length_c                   6.8976(5)
_cell_measurement_reflns_used    2128
_cell_measurement_temperature    100(2)
_cell_measurement_theta_max      26.90
_cell_measurement_theta_min      2.96
_cell_volume                     357.56(5)
_computing_cell_refinement
;
SMART (Bruker, 2014)
;
_computing_data_collection
;
SMART (Bruker, 2014)
;
_computing_data_reduction
;
SAINT (Bruker, 2014)
;
_computing_molecular_graphics
;
X-SEED (Barbour, 2020)
;
_computing_publication_material
;
X-SEED (Barbour, 2020)
;
_computing_structure_refinement
;
SHELXL2018 (Sheldrick, 2015b)
;
_computing_structure_solution
;
SHELXT2018 (Sheldrick, 2015a)
;
_diffrn_ambient_temperature      100(2)
_diffrn_detector_area_resol_mean 8.3660
_diffrn_measured_fraction_theta_full 1.000
_diffrn_measured_fraction_theta_max 1.000
_diffrn_measurement_device_type  'Bruker APEX-I CCD'
_diffrn_measurement_method       'phi and omega scans'
_diffrn_radiation_monochromator  graphite
_diffrn_radiation_source         'fine-focus sealed tube'
_diffrn_radiation_type           MoK\a
_diffrn_radiation_wavelength     0.71073
_diffrn_reflns_av_R_equivalents  0.0214
_diffrn_reflns_av_unetI/netI     0.0145
_diffrn_reflns_limit_h_max       4
_diffrn_reflns_limit_h_min       -4
_diffrn_reflns_limit_k_max       17
_diffrn_reflns_limit_k_min       -17
_diffrn_reflns_limit_l_max       8
_diffrn_reflns_limit_l_min       -8
_diffrn_reflns_number            4560
_diffrn_reflns_theta_full        25.242
_diffrn_reflns_theta_max         27.061
_diffrn_reflns_theta_min         2.963
_exptl_absorpt_coefficient_mu    0.845
_exptl_absorpt_correction_T_max  0.7455
_exptl_absorpt_correction_T_min  0.7019
_exptl_absorpt_correction_type   multi-scan
_exptl_absorpt_process_details
;
(SADABS; Bruker, 2014)
;
_exptl_crystal_colour            colourless
_exptl_crystal_density_diffrn    1.783
_exptl_crystal_description       'cut rod'
_exptl_crystal_F_000             192
_exptl_crystal_size_max          0.367
_exptl_crystal_size_mid          0.128
_exptl_crystal_size_min          0.033
_refine_diff_density_max         0.372
_refine_diff_density_min         -0.215
_refine_ls_extinction_method     none
_refine_ls_goodness_of_fit_ref   1.117
_refine_ls_hydrogen_treatment    constr
_refine_ls_matrix_type           full
_refine_ls_number_parameters     55
_refine_ls_number_reflns         813
_refine_ls_number_restraints     0
_refine_ls_restrained_S_all      1.117
_refine_ls_R_factor_all          0.0303
_refine_ls_R_factor_gt           0.0275
_refine_ls_shift/su_max          0.000
_refine_ls_shift/su_mean         0.000
_refine_ls_structure_factor_coef Fsqd
_refine_ls_weighting_details
'w=1/[\s^2^(Fo^2^)+(0.0398P)^2^+0.1267P] where P=(Fo^2^+2Fc^2^)/3'
_refine_ls_weighting_scheme      calc
_refine_ls_wR_factor_gt          0.0691
_refine_ls_wR_factor_ref         0.0705
_reflns_number_gt                747
_reflns_number_total             813
_reflns_threshold_expression     'I > 2\s(I)'
_cod_data_source_file            dv3019sup1.cif
_cod_data_source_block           3
_cod_depositor_comments
'Adding full bibliography for 2022675--2022677.cif.'
_cod_original_sg_symbol_H-M      'P 21/m'
_cod_database_code               2022677
_cod_database_fobs_code          2022677
_shelx_space_group_comment
;
The symmetry employed for this shelxl refinement is uniquely defined
by the following loop, which should always be used as a source of
symmetry information in preference to the above space-group names.
They are only intended as comments.
;
_shelx_hkl_file
;
   1   0   0    3.60    1.20
   1   0   0    3.30    1.00
  -1   0   0    4.40    1.00
   2   0   0  422.46   10.30
   2   0   0  432.96    9.60
  -2   0   0  443.56    9.20
   3   0   0  270.17    8.90
   3   0   0  275.37    9.80
  -3   0   0  278.17    8.60
   4   0   0  550.34   16.80
   4   0   0  554.44   15.60
  -4   0   0  545.05   14.70
   0  -1   0   -0.80    0.20
   0   1   0   -0.40    0.20
   0   1   0   -0.70    0.10
   1  -1   0  868.81   12.90
   1  -1   0  861.81   12.70
   1   1   0  847.32   11.00
  -1   1   0  869.71   12.10
   1   1   0  848.82   12.80
   1   1   0  836.92   12.00
   1   1   0  872.01   12.10
  -2  -1   0  677.03   12.20
   2  -1   0  667.53   13.40
   2  -1   0  665.53   12.90
   2   1   0  671.43   12.40
  -2   1   0  657.03   12.10
   2   1   0  682.83   13.50
  -3  -1   0   11.70    2.50
   3  -1   0   11.60    2.80
   3  -1   0   12.70    3.10
   3   1   0    9.20    2.50
  -3   1   0   10.30    2.40
   3   1   0   10.30    2.70
   4  -1   0   95.49    8.90
   4  -1   0   94.39    6.90
  -4  -1   0   79.99    6.80
   4   1   0   81.69    8.10
  -4   1   0   81.49    6.90
   4   1   0   86.29    6.40
   0  -2   0  539.75    7.40
   0  -2   0  522.75    7.10
   0   2   0  538.05    7.40
   0   2   0  526.75    6.90
   1  -2   0 2847.71   34.60
   1  -2   0 2816.02   34.40
   1   2   0 2824.22   33.30
   1   2   0 2758.42   33.00
  -1   2   0 2837.12   33.70
   1   2   0 2773.82   34.40
   1   2   0 2850.41   33.80
   2  -2   0    0.00    1.10
  -2  -2   0    0.70    1.00
   2  -2   0   -0.50    1.30
   2   2   0   -0.10    1.10
  -2   2   0    0.90    1.10
   2   2   0   -0.20    1.20
   3  -2   0  381.16   11.20
   3  -2   0  397.96   12.00
  -3  -2   0  379.16   10.30
   3   2   0  374.06   10.40
   3   2   0  374.86   11.70
  -3   2   0  378.86   10.20
  -4  -2   0   68.89    6.50
   4  -2   0   68.59    7.10
   4  -2   0   73.69    8.20
  -4   2   0   71.39    6.70
   4   2   0   60.59    6.20
   4   2   0   65.99    7.20
   0  -3   0   -0.40    0.70
   0  -3   0    0.20    0.70
   0   3   0   -1.10    0.60
   0   3   0   -0.30    0.70
   1  -3   0 1380.16   19.40
   1   3   0 1368.76   18.60
   1   3   0 1353.36   17.70
   1   3   0 1376.96   18.30
   1   3   0 1405.36   18.90
  -1   3   0 1382.46   18.50
   2  -3   0  391.16    9.80
   2  -3   0  399.96   10.00
  -2   3   0  397.46    8.90
   2   3   0  398.86    8.70
   2   3   0  399.96    9.90
   2   3   0  395.26    9.00
  -3  -3   0  108.89    5.60
   3  -3   0  124.19    6.60
  -3  -3   0  111.89    4.40
   3  -3   0  105.49    6.40
   3   3   0   97.79    6.20
   3   3   0  110.39    5.60
  -3   3   0  100.69    5.60
  -4  -3   0    2.80    2.40
   4  -3   0    0.30    3.10
   4  -3   0    6.60    3.30
   4   3   0    4.00    2.80
   4   3   0    4.30    2.80
  -4   3   0    3.40    2.80
   0  -4   0   85.79    2.80
   0  -4   0   83.99    3.10
   0   4   0   89.39    2.60
   0   4   0   87.29    3.10
   1  -4   0  117.69    3.20
   1  -4   0  115.49    4.30
  -1   4   0  108.79    3.70
  -1   4   0  115.19    3.90
   1   4   0  115.99    3.80
   1   4   0  117.19    3.40
   2  -4   0   92.09    4.70
  -2  -4   0   98.79    4.00
   2  -4   0  108.29    5.20
   2   4   0   98.99    4.50
   2   4   0   99.39    4.10
  -2   4   0  101.99    4.50
   2   4   0   98.49    4.80
   3  -4   0  167.28    7.70
   3  -4   0  176.58    8.20
  -3  -4   0  174.08    7.10
  -3  -4   0  171.28    5.80
  -3   4   0  175.68    7.10
   3   4   0  166.38    7.80
   3   4   0  173.38    6.90
  -4  -4   0   34.10    4.70
   4  -4   0   42.80    6.20
  -4   4   0   34.60    5.00
  -4   4   0   43.40    6.00
   4   4   0   27.20    5.30
   4   4   0   40.00    5.20
   0  -5   0   -5.00    0.90
   0  -5   0   -3.60    1.00
   0   5   0   -5.20    0.70
   0   5   0   -4.90    0.90
   1  -5   0  975.10   16.00
  -1  -5   0 1000.80   14.30
   1  -5   0  993.50   14.20
  -1  -5   0 1001.00   15.60
  -1   5   0 1033.20   15.50
   1   5   0  988.70   15.60
  -1   5   0  986.70   14.90
   1   5   0  980.10   15.10
   2  -5   0 1574.14   25.00
  -2  -5   0 1521.45   22.50
  -2   5   0 1497.95   23.90
   2   5   0 1513.45   24.00
   2   5   0 1542.75   23.50
  -2   5   0 1572.04   23.20
   2   5   0 1526.95   22.00
   3  -5   0  193.18    8.60
  -3  -5   0  197.18    6.70
  -3  -5   0  201.38    8.00
   3   5   0  201.78    8.70
  -3   5   0  189.18    8.30
  -3   5   0  205.58    7.80
   3   5   0  201.08    7.20
   4  -5   0   16.00    4.20
  -4  -5   0   12.20    3.30
   4   5   0   14.20    4.10
  -4   5   0   15.10    4.20
   4   5   0   14.60    3.40
  -4   5   0   15.30    3.80
   0  -6   0   19.30    2.30
   0  -6   0   23.10    2.30
   0   6   0   24.70    2.50
   0   6   0   22.80    1.90
   1  -6   0  357.56    8.70
  -1  -6   0  346.57    8.20
  -1  -6   0  357.86    7.10
   1  -6   0  354.26    7.40
   1   6   0  349.87    8.20
  -1   6   0  356.46    8.10
  -1   6   0  350.86    7.50
   1   6   0  345.47    7.60
  -2  -6   0  262.37    7.60
   2  -6   0  261.77    8.60
  -2   6   0  248.18    7.70
   2   6   0  269.07    8.10
   2   6   0  261.87    6.90
  -2   6   0  271.97    8.10
   2   6   0  278.27    8.10
  -3  -6   0  384.36   10.10
   3  -6   0  386.16   12.30
   3   6   0  385.66   11.30
  -3   6   0  371.36   11.90
   3   6   0  390.66   10.30
   3   6   0  398.46   12.30
  -3   6   0  369.16   10.70
   4  -6   0   57.69    7.40
  -4  -6   0   62.39    6.60
  -4   6   0   59.99    6.20
  -4   6   0   47.60    6.50
   4   6   0   64.49    7.40
   0  -7   0   -0.20    1.10
   0  -7   0    1.10    1.10
   0   7   0    0.50    1.10
   0   7   0   -1.10    0.80
   1  -7   0  386.26    9.40
  -1  -7   0  381.66    7.70
  -1  -7   0  382.36    9.20
   1  -7   0  374.46    8.20
   1   7   0  381.96    9.10
  -1   7   0  366.66    7.90
   1   7   0  377.56    8.10
  -1   7   0  380.76    9.00
   2  -7   0  453.45   12.00
  -2  -7   0  455.05   10.80
  -2  -7   0  438.86    9.60
   2   7   0  439.46   10.80
  -2   7   0  446.96   10.90
  -2   7   0  441.66   10.90
   2   7   0  447.46   11.10
  -3  -7   0   40.60    4.30
   3  -7   0   34.10    5.30
  -3   7   0   32.40    4.50
   3   7   0   35.00    3.90
   3   7   0   38.80    5.00
   3   7   0   45.80    5.20
  -3   7   0   41.00    5.10
   4  -7   0   29.80    5.90
  -4  -7   0   43.40    5.60
   4   7   0   37.70    5.90
  -4   7   0   29.60    4.80
  -4   7   0   45.10    6.40
   0  -8   0 1132.09   18.70
   0  -8   0 1143.59   17.70
   0   8   0 1138.29   16.30
   0   8   0 1157.38   18.80
   1  -8   0  454.15   10.80
  -1  -8   0  458.55    9.00
   1  -8   0  463.45    9.80
  -1  -8   0  444.96   10.70
  -1   8   0  452.75   10.40
   1   8   0  450.55   10.60
  -1   8   0  441.76    9.30
   1   8   0  451.25    9.30
  -2  -8   0  161.18    6.60
   2  -8   0  148.89    7.20
   2  -8   0  150.58    4.90
  -2  -8   0  164.48    5.70
  -2   8   0  162.88    6.40
  -2   8   0  162.28    6.60
   2   8   0  155.58    6.30
   2   8   0  151.18    6.60
   3  -8   0   93.09    6.90
  -3  -8   0   86.09    5.70
   3   8   0   84.29    5.90
  -3   8   0   84.99    6.10
   3   8   0   90.09    6.20
  -3   8   0   98.69    6.30
  -4  -8   0  110.59    7.80
   4  -8   0  103.59    9.80
   4   8   0  105.29    8.20
  -4   8   0   98.59    8.00
  -4   8   0   92.49    7.90
   0  -9   0    1.90    1.40
   0  -9   0    2.00    1.40
   0   9   0    0.70    0.90
   0   9   0    1.20    1.30
  -1  -9   0  153.68    5.10
   1  -9   0  151.78    5.70
  -1  -9   0  166.18    6.60
   1  -9   0  152.58    6.40
  -1   9   0  156.78    6.30
   1   9   0  144.89    6.10
   1   9   0  156.78    5.20
  -1   9   0  155.78    5.30
   2  -9   0   36.60    4.90
   2  -9   0   30.40    3.10
  -2  -9   0   37.90    4.60
  -2  -9   0   31.50    3.40
  -2   9   0   37.30    4.40
  -2   9   0   29.20    3.60
   2   9   0   31.30    3.90
   2   9   0   26.90    3.50
   3  -9   0    0.40    2.80
  -3  -9   0    2.00    2.30
   3   9   0   -1.80    1.80
  -3   9   0    1.10    2.10
  -3   9   0    1.10    2.30
   3   9   0   -0.60    2.30
  -4  -9   0   11.60    3.80
   4  -9   0   17.20    5.10
  -4   9   0   12.90    4.30
  -4   9   0    9.30    3.50
   4   9   0    8.70    4.00
   0 -10   0 3602.44   48.10
   0 -10   0 3617.94   46.40
   0  10   0 3619.94   44.10
   0  10   0 3621.44   48.30
   1 -10   0   86.19    4.90
   1 -10   0   96.09    5.50
  -1 -10   0   92.09    4.40
  -1 -10   0  113.19    6.00
  -1  10   0  100.89    4.60
   1  10   0  101.99    5.50
   1  10   0  106.99    4.50
  -1  10   0   96.49    5.40
   2 -10   0   49.90    4.10
  -2 -10   0   41.40    5.00
   2 -10   0   39.80    5.20
   2  10   0   50.19    4.00
  -2  10   0   44.10    4.70
   2  10   0   53.29    5.30
  -2  10   0   48.90    4.70
   3 -10   0  280.77   11.90
  -3 -10   0  268.67   10.10
   3  10   0  269.77   10.50
  -3  10   0  265.27   10.20
  -3  10   0  255.27   10.10
   3  10   0  263.57   10.60
   0 -11   0    2.80    1.90
   0 -11   0    5.30    2.10
   0  11   0    2.20    1.80
   0  11   0    1.80    1.20
  -1 -11   0  307.17   10.20
   1 -11   0  303.17    9.90
  -1 -11   0  306.17    8.20
   1 -11   0  310.27    9.30
  -1  11   0  305.97    8.40
   1  11   0  319.77   10.10
   1  11   0  305.97    8.00
  -1  11   0  307.77    9.90
   2 -11   0  206.98    9.40
   2 -11   0  211.68    7.20
  -2 -11   0  229.98    9.30
  -2  11   0  213.28    7.90
   2  11   0  231.28    8.10
  -2  11   0  188.78    8.40
   2  11   0  219.98    8.90
   3 -11   0   21.20    4.90
  -3 -11   0   12.10    3.70
  -3  11   0   13.00    3.50
   3  11   0   11.00    3.20
   3  11   0   22.00    4.50
  -3  11   0   10.50    3.50
   0 -12   0  109.09    5.70
   0 -12   0  107.29    6.10
   0  12   0   96.89    6.00
   1 -12   0  486.05   13.00
   1 -12   0  464.45   12.10
  -1 -12   0  482.75   13.40
   1  12   0  443.76   12.80
  -1  12   0  464.75   13.00
   2 -12   0    7.10    2.50
  -2 -12   0    2.30    2.70
   2 -12   0    8.00    3.50
   2  12   0    6.10    2.90
  -2  12   0    6.10    2.80
   3 -12   0  170.08   10.30
  -3 -12   0  158.58    8.90
   3  12   0  159.98    9.10
  -3  12   0  147.79    8.70
   0 -13   0    0.20    2.10
   0 -13   0    1.40    1.90
   0  13   0   -3.20    1.50
  -1 -13   0  226.08    9.60
   1 -13   0  219.98    8.60
   1 -13   0  238.48    9.30
  -1  13   0  225.98    9.60
   1  13   0  229.08    9.50
   2 -13   0  163.68    9.10
  -2 -13   0  162.68    8.80
   2  13   0  166.68    8.50
  -2  13   0  148.79    8.10
   3 -13   0   91.09    9.70
  -3 -13   0   70.89    7.70
  -3  13   0   72.19    7.60
   3  13   0   68.09    7.50
   0 -14   0  233.18    9.80
   0  14   0  231.68    9.90
  -1 -14   0   14.90    3.70
   1 -14   0   20.30    3.80
   1 -14   0    9.80    3.40
   1  14   0   10.10    3.20
  -1  14   0    9.90    3.50
  -2 -14   0    1.40    3.30
   2 -14   0    6.00    3.70
  -2  14   0    2.10    2.90
   2  14   0    3.00    2.80
   0 -15   0    0.80    2.60
   0  15   0   -3.60    2.10
  -1 -15   0  115.39    7.80
   1 -15   0  116.59    7.70
   1 -15   0  116.59    7.40
  -1  15   0  106.69    7.60
   1  15   0  105.59    7.60
  -2 -15   0  542.15   16.90
   2 -15   0  561.84   17.20
   2  15   0  512.65   16.10
  -2  15   0  513.95   16.20
   0 -16   0   84.79    8.60
   0  16   0   64.39    7.20
   1 -16   0   41.20    6.80
   1 -16   0   44.50    6.10
  -1 -16   0   67.49    7.70
  -1  16   0   69.79    7.50
   1  16   0   49.20    6.60
   0 -17   0    8.10    3.90
   0  17   0    1.60    3.40
   1 -17   0  167.88    9.50
  -1  17   0  141.09    9.40
   1  17   0  138.69    9.40
  -4   0   1   46.30    5.20
   4   0  -1   32.70    5.30
   4   0  -1   41.50    5.60
   3   0  -1   65.59    4.80
  -3   0   1   60.19    4.00
   3   0  -1   67.49    6.30
   2   0  -1 1471.65   22.40
   2   0  -1 1444.36   22.90
  -2   0   1 1445.26   20.30
   2   0  -1 1485.15   19.10
  -1   0   1 5941.01   67.59
  -1   0   1 5838.72   65.29
   1   0  -1 5884.81   67.49
   1   0  -1 5846.11   67.59
   0   0   1  222.48    4.00
   0   0  -1  221.68    3.40
   0   0   1  218.58    4.20
   1   0   1 9999.00  114.29
   1   0   1 9848.62  110.09
  -1   0  -1 9885.31  110.89
  -2   0  -1  994.90   16.70
   2   0   1  994.70   16.30
   2   0   1  994.60   17.70
   3   0   1   91.49    5.30
   3   0   1   90.89    6.00
  -3   0  -1   91.69    5.50
   4   0   1   67.79    6.60
  -4   0  -1   63.99    6.50
   4   0   1   65.19    7.60
   4  -1  -1    0.70    2.40
  -4  -1   1    1.60    2.20
  -4   1   1    2.10    3.00
   4   1  -1    3.20    2.60
   4   1  -1    1.70    2.60
  -4   1   1    3.00    2.40
   3  -1  -1  554.44   13.90
   3  -1  -1  531.45   14.20
  -3  -1   1  567.64   12.20
  -3   1   1  565.54   12.00
   3   1  -1  560.74   14.40
   3   1  -1  555.84   13.50
   2  -1  -1  132.59    5.60
   2  -1  -1  147.79    5.60
  -2  -1   1  146.39    4.50
  -2   1   1  145.89    4.50
   2   1  -1  144.39    5.40
   2   1  -1  142.89    4.10
   2   1  -1  141.99    5.60
   1  -1  -1   62.69    2.90
   1  -1  -1   60.69    2.30
  -1   1   1   60.09    2.90
   1   1  -1   58.69    2.70
  -1   1   1   62.79    2.00
   1   1  -1   63.09    2.80
   1   1  -1   62.89    2.10
   1   1  -1   61.59    2.40
   0  -1   1   36.70    1.50
   0  -1   1   33.70    1.70
   0  -1  -1   35.60    1.20
   0  -1  -1   35.80    1.60
   0   1  -1   35.50    1.40
   0   1   1   31.60    1.90
   0   1  -1   34.20    1.60
   0   1   1   34.70    1.20
   1  -1   1 6848.71   78.69
  -1  -1  -1 6818.62   78.29
  -1  -1  -1 6870.41   76.49
   1  -1   1 6832.02   78.29
  -1   1  -1 6924.31   78.49
   1   1   1 7015.40   79.19
   1   1   1 6912.31   76.99
  -2  -1  -1 1159.78   18.60
   2  -1   1 1165.38   19.60
   2  -1   1 1149.58   18.60
  -2   1  -1 1157.08   18.70
   2   1   1 1142.49   19.50
   2   1   1 1123.89   17.60
   3  -1   1  180.28    7.30
  -3  -1  -1  185.58    7.40
   3  -1   1  183.48    8.30
  -3   1  -1  179.78    7.40
   3   1   1  164.48    7.90
   3   1   1  175.28    6.90
   4  -1   1    7.40    3.00
  -4  -1  -1    3.00    2.70
   4  -1   1    0.80    3.00
  -4   1  -1    7.70    3.10
   4   1   1    3.30    3.00
   4   1   1    7.20    2.90
   4  -2  -1   10.80    3.80
  -4  -2   1    4.30    2.40
  -4   2   1    4.00    2.60
   4   2  -1    7.20    3.20
   4   2  -1   11.40    3.80
  -4   2   1   14.60    3.90
  -3  -2   1  225.28    7.40
   3  -2  -1  233.08    8.80
  -3   2   1  235.58    7.50
  -3   2   1  229.88    9.00
   3   2  -1  243.78    9.20
   3   2  -1  240.68    8.50
   3   2  -1  246.08    6.40
   2  -2  -1  945.61   16.70
  -2  -2   1  918.61   14.70
   2   2  -1  916.51   14.20
  -2   2   1  927.71   16.80
   2   2  -1  940.21   16.70
   2   2  -1  924.31   16.00
  -2   2   1  958.30   14.60
   1  -2  -1   57.59    2.90
   1  -2  -1   65.49    2.40
   1   2  -1   61.79    2.70
  -1   2   1   63.69    2.20
  -1   2   1   60.79    2.90
   1   2  -1   65.29    2.70
   1   2  -1   63.99    2.80
   1   2  -1   62.59    2.30
   0  -2  -1  144.89    3.50
   0  -2  -1  137.39    2.50
   0  -2   1  142.69    2.30
   0  -2   1  139.09    3.60
   0   2   1  140.49    3.00
   0   2  -1  143.69    3.40
   0   2  -1  137.39    3.20
   0   2   1  136.69    3.90
   1  -2   1   23.70    2.00
   1  -2   1   26.30    2.40
  -1  -2  -1   24.00    1.70
   1   2   1   24.80    2.30
  -1   2  -1   23.60    2.20
   1   2   1   24.20    2.10
   1   2   1   23.30    1.40
  -2  -2  -1  982.80   16.80
   2  -2   1  996.60   17.60
   2  -2   1  967.70   17.00
  -2  -2  -1 1003.50   14.10
  -2   2  -1  980.80   16.80
   2   2   1  996.80   17.90
   2   2   1  995.80   15.50
  -3  -2  -1   21.60    3.40
   3  -2   1   19.70    3.60
   3  -2   1   25.30    4.30
   3   2   1   17.80    3.40
   3   2   1   25.60    3.40
  -3   2  -1   22.20    3.40
   4  -2   1   17.30    4.40
   4  -2   1   22.40    4.70
  -4  -2  -1   18.00    3.90
  -4   2  -1   16.40    4.00
   4   2   1   19.40    3.90
   4   2   1   13.40    4.20
   4  -3  -1  275.17   11.60
  -4  -3   1  276.77   10.10
   4   3  -1  263.97   10.50
  -4   3   1  284.97    9.90
   4   3  -1  264.57   11.70
  -4   3   1  294.77   12.20
  -3  -3   1  121.49    5.50
   3  -3  -1  116.49    6.50
  -3   3   1  114.59    6.50
  -3   3   1  104.49    5.20
   3   3  -1  121.89    4.80
   3   3  -1  114.49    6.40
   3   3  -1  122.29    6.20
   2  -3  -1    2.60    1.60
   2   3  -1    0.60    1.10
   2   3  -1    0.80    1.20
  -2   3   1   -1.50    0.90
   2   3  -1    0.00    1.10
   2   3  -1    1.30    1.20
  -2   3   1    0.40    1.50
   1  -3  -1  308.77    5.90
   1  -3  -1  319.07    7.00
   1   3  -1  303.07    6.50
  -1   3   1  303.47    6.90
   1   3  -1  303.17    6.70
   1   3  -1  314.37    6.30
   1   3  -1  303.47    6.00
  -1   3   1  320.17    5.80
   0  -3  -1 3667.13   41.50
   0  -3  -1 3788.62   43.40
   0  -3   1 3686.73   43.70
   0   3  -1 3656.13   43.10
   0   3   1 3737.33   42.80
   0   3  -1 3770.32   43.10
   0   3   1 3651.03   43.90
  -1  -3  -1   22.50    2.00
   1  -3   1   23.90    2.50
   1  -3   1   28.40    2.40
   1   3   1   20.10    2.20
   1   3   1   24.20    1.20
  -1   3  -1   22.20    2.20
   1   3   1   21.60    2.30
  -2  -3  -1    2.30    1.40
  -2  -3  -1    1.70    1.10
   2  -3   1    3.00    1.60
   2  -3   1    0.50    1.30
   2   3   1   -0.40    1.20
  -2   3  -1    0.00    1.30
   2   3   1    2.00    1.10
  -3  -3  -1  306.57    9.80
   3  -3   1  305.27   10.70
   3  -3   1  297.37   10.10
   3   3   1  306.37    8.80
  -3   3  -1  303.27    9.90
   3   3   1  314.77   10.90
   4  -3   1  103.49    7.60
   4  -3   1  101.89    8.20
  -4  -3  -1   78.09    7.10
  -4   3  -1   83.79    7.50
   4   3   1  107.09    8.10
   4   3   1  111.79    6.70
   4  -4  -1    3.90    3.00
  -4  -4   1    4.30    2.50
   4   4  -1    1.40    2.80
   4   4  -1   -0.70    2.30
  -4   4   1    0.90    2.80
  -4   4   1    1.00    2.40
   3  -4  -1   45.80    5.30
  -3  -4   1   50.49    4.60
   3   4  -1   53.79    5.20
   3   4  -1   49.40    3.60
   3   4  -1   48.10    5.30
  -3   4   1   56.39    4.70
  -3   4   1   52.49    5.60
   2  -4  -1  219.08    7.40
   2   4  -1  217.48    6.30
  -2   4   1  216.78    7.30
  -2   4   1  225.58    6.10
   2   4  -1  212.38    6.60
   2   4  -1  212.18    6.90
   2   4  -1  223.08    6.30
   1  -4  -1   43.30    2.40
   1  -4  -1   49.10    2.90
  -1   4   1   50.39    2.40
   1   4  -1   48.20    2.80
  -1   4   1   42.80    2.70
   1   4  -1   48.40    2.60
   1   4  -1   48.70    2.40
   1   4  -1   50.39    2.80
   0  -4  -1   90.49    2.50
   0  -4   1   87.59    3.40
   0  -4  -1   83.29    3.30
   0   4   1   85.49    3.40
   0   4   1   85.79    3.10
   0   4  -1   87.49    3.20
   0   4  -1   81.19    3.10
  -1  -4  -1   65.89    3.20
   1  -4   1   63.49    2.80
   1  -4   1   63.79    3.50
   1   4   1   68.49    3.40
   1   4   1   64.49    1.90
   1   4   1   62.59    3.20
  -1   4  -1   61.69    2.40
  -1   4  -1   67.29    3.30
   2  -4   1   45.00    3.60
   2  -4   1   38.30    4.00
  -2  -4  -1   39.70    2.80
   2   4   1   41.00    3.70
   2   4   1   45.10    2.60
   2   4   1   46.60    4.50
  -2   4  -1   43.80    3.90
   3  -4   1   95.49    6.30
   3  -4   1   99.09    6.20
  -3  -4  -1   91.69    5.60
  -3  -4  -1   90.59    5.40
  -3   4  -1   75.59    5.50
   3   4   1   96.19    6.30
   3   4   1   92.99    4.80
  -4  -4  -1   19.90    4.10
   4  -4   1   22.20    5.10
   4  -4   1   29.30    5.20
   4   4   1   23.40    4.80
  -4   4  -1   18.20    4.30
   4  -5  -1  372.66   13.70
  -4  -5   1  340.97   11.60
   4   5  -1  355.26   13.40
  -4   5   1  362.36   11.50
   4   5  -1  376.46   12.50
  -4   5   1  372.06   14.00
  -3  -5   1  356.16   10.10
   3  -5  -1  357.86   11.70
   3   5  -1  354.66   11.30
   3   5  -1  354.46   10.40
   3   5  -1  349.57    9.30
  -3   5   1  337.67    9.40
  -3   5   1  352.76   11.60
   2  -5  -1  185.68    7.10
  -2   5   1  190.28    5.80
   2   5  -1  182.98    6.00
   2   5  -1  187.18    6.10
   2   5  -1  172.38    6.10
   2   5  -1  189.38    6.50
  -2   5   1  180.68    6.80
  -1  -5   1 3955.20   48.20
   1  -5  -1 3974.00   48.50
   1  -5  -1 3918.01   46.90
   1   5  -1 3918.41   46.30
  -1   5   1 3964.40   47.20
  -1   5   1 3962.80   48.40
   1   5  -1 3956.80   48.30
   1   5  -1 3879.81   47.50
   0  -5   1 2582.64   33.10
   0  -5  -1 2643.14   30.80
   0  -5  -1 2579.94   33.00
   0   5   1 2634.34   32.60
   0   5  -1 2606.94   32.70
   0   5   1 2566.14   33.00
   0   5  -1 2610.24   32.70
   1  -5   1   81.59    3.20
   1  -5   1   86.39    4.20
  -1  -5  -1   77.69    3.70
   1   5   1   77.59    3.70
   1   5   1   73.99    3.70
  -1   5  -1   76.19    3.70
  -1   5  -1   79.09    3.00
   2  -5   1    2.80    1.70
   2  -5   1    2.20    1.60
  -2  -5  -1    0.70    1.30
  -2   5  -1    3.60    1.70
   2   5   1    1.80    1.40
   2   5   1    1.20    1.50
   2   5   1    3.10    1.10
  -3  -5  -1  260.97    7.60
  -3  -5  -1  250.77    9.20
   3  -5   1  249.97    9.80
   3  -5   1  265.17   10.10
   3   5   1  276.47   10.30
  -3   5  -1  254.27    9.30
   3   5   1  272.17    7.90
   4  -5   1  497.65   15.90
   4  -5   1  490.35   16.20
  -4  -5  -1  501.55   15.10
   4   5   1  477.25   16.30
  -4   5  -1  473.95   14.90
  -4  -6   1    2.10    2.60
   4  -6  -1    2.40    3.30
  -4   6   1   -3.60    2.30
   4   6  -1    0.30    2.50
   4   6  -1   -1.10    2.60
  -4   6   1   -1.10    2.40
   3  -6  -1  172.08    8.40
   3   6  -1  181.68    7.40
  -3   6   1  165.78    7.00
   3   6  -1  175.78    8.00
  -3   6   1  178.88    8.30
   3   6  -1  179.48    7.50
   2  -6  -1  507.35    9.40
   2  -6  -1  513.15   12.60
  -2   6   1  510.65   10.90
  -2   6   1  511.05   12.20
   2   6  -1  488.05   11.20
   2   6  -1  538.85   11.50
   2   6  -1  520.85   11.30
   2   6  -1  519.15   11.50
  -1  -6   1   20.10    2.50
   1  -6  -1   22.90    2.70
   1  -6  -1   18.40    2.20
  -1   6   1   22.70    2.50
   1   6  -1   19.60    2.60
   1   6  -1   17.90    1.90
  -1   6   1   18.20    2.40
   1   6  -1   19.40    2.40
   0  -6   1   27.00    2.80
   0  -6  -1   37.20    3.30
   0  -6  -1   28.60    2.00
   0   6   1   36.70    3.10
   0   6   1   31.30    2.80
   0   6  -1   30.50    2.90
   0   6  -1   33.60    2.90
   1  -6   1   24.60    3.00
  -1  -6  -1   20.50    1.40
  -1  -6  -1   20.50    2.50
   1   6   1   21.80    2.60
  -1   6  -1   21.80    2.70
  -1   6  -1   25.40    1.90
   1   6   1   22.80    2.70
   2  -6   1  184.48    6.60
   2  -6   1  174.18    7.20
  -2  -6  -1  179.58    6.30
   2   6   1  189.98    7.10
   2   6   1  183.68    4.90
  -2   6  -1  162.68    6.60
   2   6   1  185.38    6.80
   3  -6   1  160.38    7.90
  -3  -6  -1  131.29    5.80
   3  -6   1  131.89    7.50
  -3  -6  -1  130.79    6.90
   3   6   1  150.58    7.70
  -3   6  -1  149.29    7.40
  -4  -6  -1   25.40    4.60
   4  -6   1   33.40    5.80
  -4   6  -1   38.00    5.80
   4   6   1   31.30    5.80
  -4   6  -1   33.50    5.30
  -4  -7   1  120.89    7.60
   4  -7  -1  115.49    8.70
  -4   7   1  126.59    7.50
   4   7  -1  130.79    8.70
  -4   7   1  139.39    9.20
   3  -7  -1  202.98    9.30
   3   7  -1  218.98    8.50
   3   7  -1  212.48    8.30
   3   7  -1  202.18    8.60
  -3   7   1  207.08    7.90
  -3   7   1  199.98    9.00
   2  -7  -1   60.29    3.30
  -2  -7   1   58.59    4.00
   2  -7  -1   56.79    4.40
   2   7  -1   63.59    4.00
  -2   7   1   51.19    4.00
   2   7  -1   58.59    4.00
  -2   7   1   56.59    3.80
   2   7  -1   54.09    3.90
  -1  -7   1    1.50    1.30
   1  -7  -1    1.40    1.40
   1  -7  -1    0.10    1.10
   1   7  -1    0.40    0.80
   1   7  -1    1.10    1.30
  -1   7   1   -1.10    1.00
   1   7  -1    0.50    1.20
  -1   7   1    1.20    1.20
   0  -7  -1  881.71   15.40
   0  -7  -1  901.61   13.50
   0  -7   1  909.81   15.30
   0   7   1  911.51   15.20
   0   7  -1  916.41   15.30
   0   7   1  869.01   14.80
   0   7  -1  893.01   15.20
   1  -7   1  635.84   13.30
  -1  -7  -1  646.54    9.30
   1  -7   1  675.03   11.60
  -1  -7  -1  654.03   12.90
  -1   7  -1  644.94   12.90
   1   7   1  641.14   12.80
   1   7   1  635.14   12.50
  -1   7  -1  638.34   10.60
   2  -7   1   68.79    5.10
  -2  -7  -1   75.59    4.50
  -2  -7  -1   79.59    3.70
   2   7   1   69.49    4.70
  -2   7  -1   78.19    4.90
  -2   7  -1   75.49    4.30
   2   7   1   79.89    4.90
  -3  -7  -1  414.06   10.90
   3  -7   1  378.66   12.90
   3   7   1  415.26   13.00
   3   7   1  392.16   12.20
  -3   7  -1  432.06   12.60
  -3   7  -1  412.96   12.50
  -4  -7  -1    9.30    3.60
   4  -7   1   11.40    4.20
  -4   7  -1   14.80    4.20
   4   7   1    8.20    3.80
  -4   7  -1   14.90    4.20
  -4  -8   1    1.70    2.70
   4  -8  -1    5.40    4.00
  -4   8   1    4.80    3.40
   4   8  -1    4.20    3.20
  -4   8   1   -0.30    2.60
  -3  -8   1   54.39    5.40
   3  -8  -1   63.79    7.00
  -3   8   1   56.49    6.10
   3   8  -1   55.89    5.60
   3   8  -1   60.89    6.10
  -3   8   1   48.80    5.00
   3   8  -1   59.89    5.60
   2  -8  -1  421.56   11.90
  -2  -8   1  454.25   11.00
   2  -8  -1  439.96    9.50
   2   8  -1  445.76   11.50
   2   8  -1  449.86   10.60
  -2   8   1  441.26   11.50
  -2   8   1  431.76   10.70
   2   8  -1  450.25   11.20
  -1  -8   1  789.42   14.40
   1  -8  -1  782.72   14.80
   1  -8  -1  778.72   14.20
   1   8  -1  791.52   15.30
  -1   8   1  809.12   14.60
   1   8  -1  797.52   14.90
   1   8  -1  773.42   12.20
  -1   8   1  783.62   14.50
   0  -8  -1   76.09    3.50
   0  -8  -1   83.89    4.40
   0  -8   1   77.39    4.30
   0   8  -1   88.39    4.40
   0   8   1   82.69    4.20
   0   8   1   75.89    3.90
   0   8  -1   81.99    4.30
  -1  -8  -1  536.45   12.00
  -1  -8  -1  521.55    8.30
   1  -8   1  507.25   10.50
   1  -8   1  525.25   12.30
   1   8   1  541.95   11.40
   1   8   1  560.94   12.20
  -1   8  -1  525.65   11.90
  -1   8  -1  517.35    9.30
   2  -8   1  399.06    8.10
  -2  -8  -1  385.06   10.60
   2  -8   1  387.26   11.60
  -2   8  -1  402.66   10.00
  -2   8  -1  409.96   11.20
   2   8   1  397.26   11.10
   2   8   1  385.16   10.80
   3  -8   1   17.30    3.90
  -3  -8  -1   19.20    3.50
   3   8   1   18.30    3.90
  -3   8  -1   19.90    3.70
  -3   8  -1   19.60    3.90
   3   8   1   15.30    3.70
   4  -8   1    4.00    3.70
  -4  -8  -1    9.70    3.80
  -4   8  -1   12.60    4.20
  -4   8  -1   15.60    4.10
   4   8   1    6.00    4.10
  -4  -9   1    3.00    3.10
   4  -9  -1    5.30    4.10
   4   9  -1    4.30    3.30
  -4   9   1    6.10    3.60
  -4   9   1    4.80    4.00
  -3  -9   1   82.79    7.00
   3  -9  -1   83.89    8.20
  -3   9   1   93.99    6.60
   3   9  -1   76.69    5.70
   3   9  -1   81.19    6.00
  -3   9   1   84.49    5.70
   2  -9  -1   14.00    2.40
   2  -9  -1   16.30    3.40
  -2  -9   1    9.20    2.60
   2   9  -1   12.20    2.50
   2   9  -1   14.20    2.90
  -2   9   1   13.10    2.80
  -2   9   1   13.50    2.70
   1  -9  -1   70.09    4.50
   1  -9  -1   72.29    4.20
  -1  -9   1   69.49    4.20
   1   9  -1   69.39    4.50
   1   9  -1   64.89    4.30
   1   9  -1   71.49    3.00
  -1   9   1   77.39    4.50
  -1   9   1   69.89    4.20
   0  -9  -1   38.60    4.00
   0  -9   1   35.10    3.80
   0  -9  -1   40.30    2.80
   0   9  -1   31.70    3.60
   0   9   1   33.50    3.60
   0   9   1   37.20    3.50
   1  -9   1  183.58    6.20
   1  -9   1  179.38    7.30
  -1  -9  -1  179.18    4.60
  -1  -9  -1  178.08    7.10
  -1   9  -1  191.28    5.10
  -1   9  -1  192.48    7.20
   1   9   1  187.28    7.10
   1   9   1  179.28    6.40
   2  -9   1  118.69    7.00
  -2  -9  -1  108.89    6.10
   2  -9   1  117.29    4.60
  -2   9  -1  120.09    5.40
   2   9   1  107.79    6.20
   2   9   1  137.49    6.50
  -2   9  -1  119.29    6.40
  -3  -9  -1    8.30    3.00
   3  -9   1    3.00    2.90
   3   9   1    6.50    2.80
  -3   9  -1    3.90    3.00
   3   9   1    5.70    2.60
  -3   9  -1    2.10    2.30
   4  -9   1   15.10    4.70
  -4  -9  -1   13.60    4.30
  -4   9  -1   11.30    4.20
   4   9   1   11.90    4.20
  -4   9  -1    6.30    3.70
   3 -10  -1  105.09    7.90
  -3 -10   1  117.99    7.40
   3  10  -1  119.79    7.30
  -3  10   1  115.09    7.30
   3  10  -1  121.19    7.00
  -3  10   1  109.39    6.70
   2 -10  -1  594.94   12.80
  -2 -10   1  612.94   15.20
  -2 -10   1  622.54   13.70
   2 -10  -1  607.24   15.50
  -2  10   1  621.94   14.20
   2  10  -1  619.94   13.10
   2  10  -1  613.24   14.60
  -2  10   1  624.84   14.60
  -1 -10   1  742.73   14.70
   1 -10  -1  742.43   15.30
   1 -10  -1  707.83   14.80
   1  10  -1  759.12   13.20
  -1  10   1  761.02   15.50
  -1  10   1  767.42   15.20
   0 -10   1   15.50    2.70
   0 -10  -1   19.50    3.10
   0 -10  -1   23.90    2.80
   0 -10   1   17.70    3.00
   0  10   1   18.50    3.10
   0  10   1   20.00    2.70
   0  10  -1   20.90    3.30
   1 -10   1 1449.95   25.40
   1 -10   1 1442.46   23.30
  -1 -10  -1 1511.55   25.50
  -1  10  -1 1484.45   25.80
   1  10   1 1513.35   23.80
   1  10   1 1492.25   25.00
  -1  10  -1 1483.35   24.90
   2 -10   1  669.83   16.70
   2 -10   1  653.03   13.90
  -2 -10  -1  654.73   15.70
   2  10   1  649.24   15.70
  -2  10  -1  646.54   13.60
  -2  10  -1  676.73   15.90
   2  10   1  652.03   15.10
   3 -10   1   41.10    6.10
  -3 -10  -1   31.50    4.70
  -3  10  -1   34.00    5.00
   3  10   1   34.50    5.10
  -3  10  -1   29.10    4.40
   3  10   1   35.80    5.20
  -3 -11   1  252.07   10.70
   3 -11  -1  262.97   11.90
  -3  11   1  267.27   10.30
   3  11  -1  256.07   10.70
  -3  11   1  280.37   11.00
   2 -11  -1   16.60    3.10
  -2 -11   1   10.90    3.30
  -2 -11   1   19.90    3.80
   2 -11  -1   12.30    3.60
  -2  11   1   14.70    3.20
  -2  11   1   20.20    3.60
   2  11  -1   12.40    3.20
  -1 -11   1   56.59    4.30
  -1 -11   1   54.79    5.40
   1 -11  -1   49.30    4.80
   1 -11  -1   48.90    4.90
  -1  11   1   54.39    5.30
  -1  11   1   62.99    4.80
   1  11  -1   56.69    5.30
   0 -11   1  107.89    6.00
   0 -11  -1  114.89    5.00
   0 -11   1  124.59    6.20
   0 -11  -1  124.59    6.30
   0  11   1  124.89    5.30
   0  11  -1  111.69    6.10
   0  11   1  119.19    6.30
  -1 -11  -1  948.31   19.60
   1 -11   1  942.11   19.40
   1 -11   1  944.31   17.90
  -1  11  -1  952.90   19.20
   1  11   1  976.30   17.90
   1  11   1  959.60   19.30
  -2 -11  -1  336.37   11.50
   2 -11   1  359.66   12.40
  -2  11  -1  337.67   11.40
   2  11   1  337.87   11.40
   2  11   1  326.57   10.50
   3 -11   1  106.79    8.30
  -3 -11  -1  113.79    7.60
  -3  11  -1   90.79    7.90
   3  11   1  112.49    7.40
   3  11   1  104.59    7.40
  -3 -12   1   99.09    7.60
   3 -12  -1  104.19    9.60
   3  12  -1  105.49    7.60
  -3  12   1   90.39    7.10
  -3  12   1   96.49    7.00
  -2 -12   1  255.27   10.40
   2 -12  -1  259.37   10.60
   2 -12  -1  266.27    9.00
  -2  12   1  272.37    9.80
  -2  12   1  259.87    9.70
   2  12  -1  255.57    9.90
  -1 -12   1    6.00    2.50
   1 -12  -1    7.20    2.70
   1 -12  -1   11.30    3.00
  -1 -12   1    5.80    2.50
  -1  12   1   10.30    3.00
  -1  12   1    3.10    2.40
   1  12  -1    8.90    2.70
   0 -12  -1   41.90    4.00
   0 -12   1   40.10    4.50
   0 -12  -1   40.50    4.80
   0 -12   1   44.10    4.90
   0  12   1   46.70    3.70
   0  12   1   45.70    5.20
   0  12  -1   30.70    4.10
  -1 -12  -1   -1.50    2.10
   1 -12   1    0.70    2.00
   1 -12   1   -2.50    2.10
  -1  12  -1    2.80    2.40
   1  12   1    1.30    2.20
   1  12   1   -0.10    1.50
   2 -12   1  184.08    9.60
  -2 -12  -1  205.58    9.40
  -2  12  -1  211.68    9.40
   2  12   1  188.88    8.20
   2  12   1  195.78    9.00
   3 -12   1   17.80    4.60
  -3 -12  -1   24.90    5.20
  -3  12  -1   16.80    4.30
   3  12   1   22.50    4.60
   3  12   1   22.50    4.60
   3 -13  -1   20.70    5.40
  -3 -13   1   13.10    4.40
  -3  13   1   16.10    4.10
   3  13  -1   14.00    4.20
   2 -13  -1   15.60    4.00
   2 -13  -1   14.90    3.40
  -2 -13   1   17.70    4.20
   2  13  -1   12.20    3.30
  -2  13   1   15.50    3.90
   1 -13  -1  260.97    9.50
  -1 -13   1  265.67    9.30
   1 -13  -1  294.17   10.10
  -1 -13   1  258.47   10.30
  -1  13   1  245.18    9.70
   1  13  -1  268.37   10.10
   0 -13  -1  798.72   18.30
   0 -13   1  800.22   18.10
   0 -13   1  801.22   17.60
   0  13   1  791.92   18.10
   0  13  -1  779.22   18.10
   1 -13   1   26.10    3.90
  -1 -13  -1   31.50    4.90
   1 -13   1   19.10    4.10
  -1  13  -1   26.20    4.40
   1  13   1   31.50    4.90
   2 -13   1   21.40    4.90
  -2 -13  -1   29.80    5.30
  -2  13  -1   19.40    4.20
   2  13   1   20.50    4.10
  -3 -13  -1   87.59    8.80
   3 -13   1   96.09    9.60
   3  13   1   77.49    8.10
  -3  13  -1   93.19    8.80
   2 -14  -1    9.40    4.00
   2 -14  -1    9.70    3.80
  -2 -14   1    8.90    3.90
  -2  14   1    7.20    3.30
   2  14  -1    7.60    3.40
   1 -14  -1   71.49    6.70
  -1 -14   1   79.49    7.60
   1 -14  -1   68.39    6.30
   1  14  -1   70.99    7.00
  -1  14   1   68.89    6.60
   0 -14   1    9.50    3.20
   0 -14  -1    2.60    2.80
   0 -14   1    3.50    2.80
   0  14   1    4.90    2.80
   0  14  -1    3.10    2.60
   1 -14   1   54.09    6.20
  -1 -14  -1   56.19    6.50
   1 -14   1   48.30    5.30
  -1  14  -1   50.19    6.10
   1  14   1   47.80    5.80
  -2 -14  -1   -1.50    3.10
   2 -14   1    3.00    3.80
  -2  14  -1    2.20    3.10
   2  14   1    2.60    2.90
   2 -15  -1    2.40    3.70
  -2 -15   1    4.30    4.00
   2  15  -1    5.40    3.40
  -2  15   1   -0.90    2.80
  -1 -15   1  374.66   13.60
   1 -15  -1  379.46   12.80
  -1  15   1  407.66   13.50
   1  15  -1  383.96   13.30
   0 -15  -1  259.57   10.90
   0 -15   1  271.97   10.70
   0 -15   1  280.77   11.00
   0  15  -1  258.67   11.10
   0  15   1  278.77   11.20
   1 -15   1  209.38    9.40
  -1 -15  -1  201.78   10.30
   1 -15   1  198.88   10.10
  -1  15  -1  221.08   10.50
   1  15   1  190.08    9.80
  -2 -15  -1   19.50    5.10
   2 -15   1   27.20    5.70
   2  15   1   25.20    5.10
  -2  15  -1   25.20    5.20
   1 -16  -1   41.40    6.10
  -1  16   1   57.49    7.00
   1  16  -1   47.90    6.40
   0 -16  -1   44.10    6.20
   0 -16   1   41.60    5.90
   0  16  -1   26.30    5.10
   0  16   1   37.60    5.70
   1 -16   1   38.80    6.20
  -1 -16  -1   50.79    6.90
   1 -16   1   44.50    5.80
   1  16   1   50.29    6.90
  -1  16  -1   39.90    5.90
  -1 -17   1    1.00    3.20
   1 -17  -1   -2.00    3.30
   1  17  -1   -3.60    2.70
  -1  17   1    1.70    3.10
   0 -17  -1  178.98   10.20
   0 -17   1  184.58   10.10
   0  17  -1  165.08   10.10
   0  17   1  181.48   10.10
  -4   0   2  170.48    9.70
   4   0  -2  163.38    8.90
  -3   0   2  179.78    5.90
   3   0  -2  184.98    5.60
   3   0  -2  175.38    7.80
  -3   0   2  185.08    8.20
   2   0  -2  999.70   17.80
   2   0  -2  994.20   15.30
  -2   0   2  986.70   14.10
  -2   0   2 1003.80   17.90
  -1   0   2 4984.80   59.09
   1   0  -2 4974.50   59.19
   1   0  -2 5005.20   58.19
   0   0   2 4283.77   50.39
   0   0  -2 4285.57   48.30
   0   0   2 4332.07   49.80
   0   0  -2 4228.08   49.80
   1   0   2  342.17    7.80
  -1   0  -2  334.47    6.30
   1   0   2  323.87    6.70
  -1   0  -2  334.87    7.30
   2   0   2   24.10    3.20
  -2   0  -2   29.70    3.40
   2   0   2   31.50    3.20
   3   0   2 1819.62   31.40
   3   0   2 1769.82   28.30
  -3   0  -2 1788.22   29.70
   4   0   2  155.18    8.20
  -4   0  -2  148.59    8.70
   4   0   2  141.89    9.40
  -4  -1   2    0.00    2.70
   4  -1  -2   -0.20    2.20
  -4   1   2   -0.70    2.60
   4   1  -2   -0.10    2.50
  -3  -1   2    4.40    2.30
   3  -1  -2    2.20    2.10
  -3  -1   2    4.30    1.50
   3  -1  -2    1.30    1.40
  -3   1   2    4.60    2.30
  -3   1   2    4.80    1.60
   3   1  -2    1.60    1.90
   3   1  -2    5.30    1.70
   2  -1  -2  245.88    6.00
  -2  -1   2  228.88    5.30
   2  -1  -2  230.58    7.50
  -2  -1   2  226.88    7.30
  -2   1   2  231.98    5.20
  -2   1   2  235.28    7.60
   2   1  -2  228.98    7.40
   2   1  -2  246.88    6.30
  -1  -1   2    5.30    1.40
   1  -1  -2    4.20    1.30
   1  -1  -2    5.30    1.40
   1   1  -2    4.60    0.70
  -1   1   2    3.00    1.30
   1   1  -2    4.40    1.30
   1   1  -2    3.60    1.20
   0  -1   2  608.54    9.80
   0  -1  -2  621.34    8.70
   0  -1  -2  620.74   10.00
   0  -1   2  605.74   10.20
   0   1  -2  620.44    8.90
   0   1   2  618.04    9.30
   0   1  -2  630.84   10.00
   0   1   2  616.84   10.70
   1  -1   2  121.59    4.30
  -1  -1  -2  119.89    3.70
   1  -1   2  123.49    4.20
  -1  -1  -2  126.69    4.20
  -1   1  -2  128.49    3.50
   1   1   2  117.19    3.40
   1   1   2  123.59    4.70
  -1   1  -2  115.49    4.20
  -2  -1  -2 2274.87   31.80
   2  -1   2 2204.88   30.90
   2  -1   2 2192.38   32.30
   2   1   2 2194.68   32.70
   2   1   2 2241.18   29.80
  -2   1  -2 2212.18   31.80
   3  -1   2  100.09    5.70
   3  -1   2   91.09    6.30
  -3  -1  -2   86.49    5.70
  -3   1  -2   93.29    5.90
   3   1   2   95.09    5.20
   3   1   2   90.19    6.30
   4  -1   2   22.50    5.20
  -4  -1  -2   23.50    4.70
   4  -1   2   29.70    4.90
  -4   1  -2   32.30    5.10
   4   1   2   26.00    4.40
   4   1   2   22.00    5.00
   4  -2  -2  172.68    9.30
  -4  -2   2  182.78    9.80
  -4   2   2  162.88    9.70
   4   2  -2  176.88    9.10
  -3  -2   2  390.56   11.80
  -3  -2   2  385.06    9.30
   3  -2  -2  391.56   11.90
  -3   2   2  397.66    9.10
   3   2  -2  384.16    9.20
   3   2  -2  397.76   11.60
  -3   2   2  387.36   12.20
  -2  -2   2  365.66    9.30
  -2  -2   2  365.06    7.30
   2  -2  -2  366.06    9.70
   2  -2  -2  357.76    7.60
   2   2  -2  351.76    8.10
  -2   2   2  370.26    6.90
   2   2  -2  356.56    9.40
  -2   2   2  363.86    9.80
   1  -2  -2  252.47    6.30
   1  -2  -2  241.88    5.90
  -1  -2   2  248.48    5.80
   1   2  -2  249.38    4.60
   1   2  -2  232.68    5.90
  -1   2   2  237.78    3.90
   1   2  -2  237.98    6.40
  -1   2   2  227.18    6.40
   0  -2  -2  930.71   12.30
   0  -2   2  901.11   14.10
   0  -2   2  936.51   12.80
   0  -2  -2  922.21   13.70
   0   2   2  919.21   14.70
   0   2   2  893.71   12.20
   0   2  -2  925.31   13.50
   0   2  -2  923.41   12.70
   1  -2   2  585.54   10.90
  -1  -2  -2  589.74   10.70
   1  -2   2  598.34   10.70
  -1  -2  -2  585.04   10.00
   1   2   2  596.94   11.60
   1   2   2  585.44    8.70
  -1   2  -2  601.84   10.90
  -1   2  -2  603.44    9.10
  -2  -2  -2  430.96   10.30
  -2  -2  -2  419.86    8.10
   2  -2   2  422.46   10.10
   2  -2   2  422.06   10.50
   2   2   2  429.56    8.70
   2   2   2  433.36   11.10
  -2   2  -2  396.76   10.20
  -3  -2  -2   25.90    3.90
   3  -2   2   24.90    4.30
   3  -2   2   24.40    3.80
  -3   2  -2   28.90    4.10
   3   2   2   21.40    3.80
   3   2   2   26.10    3.40
   4  -2   2  104.59    8.40
   4  -2   2  108.49    7.50
  -4  -2  -2   92.09    8.00
   4   2   2   89.09    9.00
  -4   2  -2   98.19    8.40
   4  -3  -2   -2.00    2.20
  -4  -3   2    2.70    3.10
   4   3  -2    2.50    2.60
  -4   3   2    1.30    2.50
  -3  -3   2  196.48    6.60
   3  -3  -2  198.98    8.50
  -3   3   2  190.78    8.60
   3   3  -2  203.08    8.40
   3   3  -2  192.18    8.00
   3   3  -2  202.68    6.70
  -3   3   2  206.48    6.40
   2  -3  -2  589.44   10.60
  -2  -3   2  570.54   12.10
   2  -3  -2  561.94   12.80
   2   3  -2  596.04   12.70
   2   3  -2  590.04   11.50
   2   3  -2  590.14   10.40
  -2   3   2  591.04    9.80
  -2   3   2  575.04   13.10
  -1  -3   2  504.35    8.90
   1  -3  -2  508.05    9.80
   1  -3  -2  490.75    9.30
   1   3  -2  508.05    8.20
   1   3  -2  486.95    9.60
  -1   3   2  510.65   10.40
  -1   3   2  493.25    7.50
   1   3  -2  511.35   10.30
   0  -3  -2   82.19    2.40
   0  -3   2   84.19    3.70
   0  -3   2   84.29    2.50
   0  -3  -2   82.49    3.40
   0   3   2   83.89    3.90
   0   3   2   83.39    2.80
   0   3  -2   81.39    3.30
   0   3  -2   82.09    3.10
   1  -3   2  935.61   14.50
   1  -3   2  916.81   15.60
  -1  -3  -2  942.21   14.70
   1   3   2  979.90   16.30
  -1   3  -2  959.70   13.30
   1   3   2  954.80   15.20
  -1   3  -2  942.11   15.30
  -2  -3  -2  208.18    7.00
  -2  -3  -2  189.88    5.50
   2  -3   2  190.58    6.90
   2  -3   2  191.58    6.90
  -2   3  -2  188.38    6.90
   2   3   2  199.38    7.50
   2   3   2  200.48    5.30
  -3  -3  -2  103.39    6.10
   3  -3   2   98.89    6.60
   3  -3   2   98.29    6.20
   3   3   2  104.29    5.10
   3   3   2  100.99    6.50
  -3   3  -2  104.39    6.40
  -4  -3  -2   77.29    7.50
   4  -3   2   63.29    7.70
   4  -3   2   90.49    8.40
   4   3   2   68.39    8.00
  -4   3  -2   63.19    7.10
  -4  -4   2  310.37   12.40
   4  -4  -2  253.97   11.70
   4   4  -2  291.77   11.60
  -4   4   2  299.57   12.70
   3  -4  -2   13.60    3.40
  -3  -4   2    7.80    2.00
   3   4  -2   10.90    2.80
   3   4  -2    6.60    2.60
   3   4  -2   14.40    2.60
  -3   4   2   10.40    2.10
  -3   4   2   10.10    3.00
   2  -4  -2    5.80    2.10
   2  -4  -2    8.70    1.70
   2   4  -2    8.00    2.00
   2   4  -2    7.70    1.80
   2   4  -2    9.60    2.00
   2   4  -2   11.20    1.90
  -2   4   2    8.10    1.50
  -2   4   2    8.00    2.10
  -1  -4   2   20.70    2.60
  -1  -4   2   22.10    2.10
   1  -4  -2   22.30    2.60
   1  -4  -2   21.20    2.50
   1   4  -2   19.90    2.00
   1   4  -2   21.80    2.60
  -1   4   2   21.10    2.70
  -1   4   2   21.10    1.80
   0  -4   2 1015.90   16.30
   0  -4  -2 1034.60   13.10
   0  -4  -2 1012.70   15.70
   0   4  -2 1030.60   15.40
   0   4   2 1003.90   14.50
   0   4  -2  987.80   14.80
   0   4   2  985.00   16.50
   1  -4   2   24.60    3.00
  -1  -4  -2   21.00    2.50
   1  -4   2   19.60    2.10
   1   4   2   20.50    2.50
  -1   4  -2   19.50    1.90
  -1   4  -2   26.30    2.80
   1   4   2   18.90    2.70
  -2  -4  -2   12.20    2.10
   2  -4   2   11.60    2.50
  -2  -4  -2    4.80    1.80
   2  -4   2    8.90    2.20
   2   4   2   12.20    1.60
  -2   4  -2    7.20    2.10
   2   4   2    7.10    2.20
  -3  -4  -2   16.70    3.40
   3  -4   2   18.40    3.70
   3  -4   2   12.50    3.50
  -3   4  -2   12.10    3.30
   3   4   2   14.60    2.60
   3   4   2   13.40    3.50
   4  -4   2   23.00    5.10
  -4  -4  -2   22.70    4.50
   4  -4   2   31.60    5.60
   4   4   2   24.70    5.20
  -4   4  -2   24.50    5.00
   4  -5  -2   38.10    5.80
   4   5  -2   32.30    5.00
  -4   5   2   38.30    6.00
   3  -5  -2  355.26   11.90
  -3   5   2  350.16   12.00
   3   5  -2  364.36   11.30
   3   5  -2  380.56   11.40
   3   5  -2  355.66    9.90
  -3   5   2  367.26    9.30
   2  -5  -2 1736.13   24.40
   2  -5  -2 1787.42   27.70
   2   5  -2 1808.52   25.10
  -2   5   2 1721.63   27.80
   2   5  -2 1759.32   26.30
   2   5  -2 1704.63   27.00
   2   5  -2 1755.42   26.00
  -2   5   2 1749.82   23.90
   1  -5  -2 1440.66   20.90
   1  -5  -2 1419.06   21.00
  -1  -5   2 1410.06   22.10
  -1  -5   2 1453.45   19.00
  -1   5   2 1420.36   22.20
  -1   5   2 1455.15   19.50
   1   5  -2 1433.26   21.60
   1   5  -2 1451.75   20.30
   0  -5   2 1424.36   21.60
   0  -5  -2 1434.26   17.90
   0  -5  -2 1440.36   21.10
   0   5  -2 1462.35   20.50
   0   5  -2 1429.76   20.60
   0   5   2 1410.46   21.80
   0   5   2 1431.36   19.90
  -1  -5  -2 1238.48   19.30
   1  -5   2 1247.98   20.50
   1  -5   2 1232.48   17.50
  -1   5  -2 1287.07   17.80
  -1   5  -2 1271.97   19.90
   1   5   2 1242.28   20.50
   1   5   2 1282.67   19.60
   2  -5   2  365.06   10.50
  -2  -5  -2  372.36    9.00
   2  -5   2  364.86    9.70
  -2   5  -2  361.96   10.10
   2   5   2  363.26   10.80
   2   5   2  369.76   10.10
   3  -5   2   70.89    6.60
   3  -5   2   84.99    6.10
  -3  -5  -2   78.79    6.70
  -3   5  -2   67.89    6.40
   3   5   2   72.79    5.90
   4  -5   2    7.80    3.80
  -4  -5  -2    9.40    3.70
   4  -5   2    5.40    3.70
  -4   5  -2    6.50    3.80
   4   5   2    5.50    3.60
   4  -6  -2  588.84   18.40
  -4  -6   2  585.14   20.60
   4   6  -2  590.34   16.80
  -4   6   2  586.44   18.40
   4   6  -2  604.04   17.50
   3  -6  -2   25.00    4.40
  -3   6   2   22.40    4.20
   3   6  -2   25.10    3.60
   3   6  -2   22.80    3.70
   3   6  -2   30.50    4.30
   3   6  -2   20.70    3.70
  -3   6   2   26.50    3.20
   2  -6  -2  131.19    5.00
   2  -6  -2  129.49    6.20
   2   6  -2  122.59    5.10
   2   6  -2  129.19    6.00
   2   6  -2  130.09    5.30
   2   6  -2  136.79    5.90
  -2   6   2  122.39    4.70
  -2   6   2  132.39    6.30
  -1  -6   2   23.00    3.00
   1  -6  -2   22.20    2.70
   1  -6  -2   21.10    2.70
  -1  -6   2   22.80    1.70
  -1   6   2   19.80    2.20
  -1   6   2   25.10    3.30
   1   6  -2   23.00    3.00
   1   6  -2   17.10    2.30
   0  -6  -2 1083.09   17.40
   0  -6   2 1065.79   17.90
   0  -6  -2 1055.89   14.10
   0   6   2 1036.80   16.30
   0   6   2 1015.20   17.60
   0   6  -2 1048.60   16.90
   0   6  -2 1031.30   16.60
   1  -6   2    0.50    1.00
   1  -6   2   -0.30    1.50
  -1  -6  -2    1.80    1.50
   1   6   2    1.10    1.30
   1   6   2    0.30    1.20
  -1   6  -2    1.70    1.40
  -1   6  -2    1.50    1.10
  -2  -6  -2   73.79    4.40
   2  -6   2   69.69    5.10
   2  -6   2   77.69    4.60
   2   6   2   74.89    5.00
   2   6   2   78.89    4.90
  -2   6  -2   78.89    5.00
  -3  -6  -2   10.90    3.00
   3  -6   2   14.70    3.50
  -3  -6  -2   13.50    2.80
   3  -6   2   13.60    3.60
   3   6   2    8.70    3.20
  -3   6  -2   14.20    3.60
   4  -6   2   46.50    6.70
   4  -6   2   33.60    6.00
  -4  -6  -2   35.80    5.60
  -4   6  -2   41.50    6.10
   4   6   2   40.30    6.40
  -4  -7   2   -0.40    2.50
   4  -7  -2   -0.70    3.30
   4   7  -2   -0.50    2.90
  -4   7   2   -3.70    2.70
   4   7  -2   -4.10    2.70
   3  -7  -2  101.19    7.10
  -3   7   2  120.99    5.60
   3   7  -2  116.09    6.50
   3   7  -2  114.69    6.10
   3   7  -2  104.59    6.30
   3   7  -2  107.89    6.60
  -3   7   2  115.99    7.30
   2  -7  -2  151.88    6.90
   2  -7  -2  157.68    5.70
  -2  -7   2  160.38    6.90
   2   7  -2  164.18    6.70
  -2   7   2  154.48    5.60
   2   7  -2  170.48    6.30
  -2   7   2  164.68    7.20
   2   7  -2  163.58    5.90
   1  -7  -2   46.90    3.40
   1  -7  -2   45.00    4.00
  -1  -7   2   43.60    2.20
  -1  -7   2   38.60    4.00
   1   7  -2   43.60    4.30
   1   7  -2   43.30    3.60
  -1   7   2   46.70    3.80
  -1   7   2   40.90    3.30
   0  -7  -2  336.37    8.70
   0  -7   2  329.27    9.10
   0  -7  -2  322.37    6.30
   0   7   2  326.77    8.90
   0   7  -2  328.87    8.40
   0   7   2  354.16    8.20
   0   7  -2  333.77    8.40
   1  -7   2  628.54   14.00
  -1  -7  -2  634.24   13.20
   1   7   2  658.83   13.20
  -1   7  -2  608.64   10.00
  -1   7  -2  626.94   13.30
   1   7   2  652.13   13.70
  -1   7  -2  631.34   11.70
   2  -7   2  542.95   12.00
  -2  -7  -2  553.74   12.60
   2  -7   2  519.95   13.90
   2   7   2  527.95   13.60
   2   7   2  518.35   13.00
  -2   7  -2  535.15   13.40
  -3  -7  -2    7.50    2.50
   3  -7   2    9.40    3.20
  -3  -7  -2    2.20    2.40
   3  -7   2    7.20    3.00
   3   7   2    5.50    3.00
  -3   7  -2    5.30    2.90
   4  -7   2  102.59    9.60
  -4  -7  -2   90.29    8.50
   4   7   2   86.49    9.30
  -4   7  -2  100.19    9.00
   4  -8  -2   20.40    5.50
  -4  -8   2   15.40    4.00
   4   8  -2   17.80    4.50
   4   8  -2   26.60    5.20
  -4   8   2   14.70    4.60
   3  -8  -2  253.37   10.80
  -3   8   2  256.77   10.60
   3   8  -2  266.97    9.40
  -3   8   2  244.38    8.30
   3   8  -2  261.97    9.60
   3   8  -2  272.37    9.70
   2  -8  -2    1.00    1.80
  -2  -8   2    1.30    2.00
   2  -8  -2    0.30    1.40
   2   8  -2    0.90    1.60
   2   8  -2    0.30    1.20
  -2   8   2   -0.60    1.30
  -2   8   2    1.70    1.80
   2   8  -2   -2.70    1.30
  -1  -8   2  785.42   15.70
   1  -8  -2  781.82   14.60
   1  -8  -2  786.02   15.10
   1   8  -2  776.12   14.90
   1   8  -2  790.42   15.80
  -1   8   2  791.32   15.80
  -1   8   2  785.32   14.20
   0  -8  -2  464.75   11.10
   0  -8  -2  473.15    8.40
   0  -8   2  487.55   11.80
   0   8   2  449.36   11.10
   0   8   2  487.25   10.60
   0   8  -2  476.85   10.90
   0   8  -2  477.55   11.00
  -1  -8  -2  141.19    6.20
   1  -8   2  140.59    6.50
   1   8   2  144.99    6.10
  -1   8  -2  142.79    6.20
  -1   8  -2  145.19    3.90
  -1   8  -2  151.58    5.50
   1   8   2  145.19    6.20
  -2  -8  -2   53.39    5.00
   2  -8   2   54.29    5.80
  -2   8  -2   62.09    3.80
   2   8   2   49.50    5.10
   2   8   2   47.50    5.10
  -2   8  -2   60.29    5.80
  -3  -8  -2  156.88    7.40
   3  -8   2  149.09    8.60
  -3   8  -2  152.48    8.60
   3   8   2  164.48    8.90
  -4  -8  -2  122.29    8.80
   4   8   2   93.59    9.30
  -4   8  -2  111.59    8.20
  -4   8  -2  118.59    9.90
   4  -9  -2    1.40    3.80
  -4  -9   2    2.10    3.10
   4   9  -2    4.50    3.40
  -4   9   2    5.00    3.80
   3  -9  -2   10.50    3.90
  -3  -9   2   11.10    3.50
   3   9  -2    9.10    3.10
   3   9  -2   12.90    3.10
  -3   9   2   10.30    3.40
   3   9  -2    7.10    2.60
  -3   9   2    6.00    2.50
   2  -9  -2  129.29    5.70
   2  -9  -2  110.09    6.40
  -2  -9   2  122.59    6.60
   2   9  -2  128.09    6.20
  -2   9   2  129.89    7.00
   2   9  -2  117.19    5.10
  -2   9   2  124.69    5.60
   2   9  -2  120.59    6.60
  -1  -9   2   31.40    4.00
   1  -9  -2   30.80    3.60
   1  -9  -2   34.20    4.00
  -1   9   2   32.30    4.20
  -1   9   2   35.30    3.60
   1   9  -2   34.30    3.90
   1   9  -2   31.80    4.00
   0  -9  -2    8.80    1.70
   0  -9   2    4.40    2.10
   0  -9  -2    9.50    2.50
   0   9   2   10.90    2.20
   0   9  -2   12.40    2.50
   0   9  -2    9.40    2.30
   0   9   2   13.30    2.60
   1  -9   2    3.30    2.10
  -1  -9  -2    0.80    1.80
  -1   9  -2    2.10    1.80
  -1   9  -2    1.80    1.60
   1   9   2    4.40    1.80
   1   9   2    0.70    1.50
   2  -9   2  199.08    9.10
  -2  -9  -2  186.98    7.80
  -2   9  -2  176.88    8.30
  -2   9  -2  186.88    6.50
   2   9   2  175.58    8.00
   2   9   2  177.08    8.00
  -3  -9  -2    6.70    3.00
   3  -9   2    9.00    4.00
   3   9   2   10.50    3.40
   3   9   2    8.60    3.40
  -3   9  -2   11.30    3.80
  -3   9  -2    5.10    2.60
   3 -10  -2  110.79    8.10
  -3 -10   2  121.49    7.60
  -3  10   2  123.59    6.60
  -3  10   2  116.19    7.80
   3  10  -2  129.29    7.60
   3  10  -2  114.59    7.10
   2 -10  -2   61.29    4.60
   2 -10  -2   56.29    5.70
  -2 -10   2   60.19    5.70
   2  10  -2   59.49    6.00
  -2  10   2   67.39    5.50
  -2  10   2   69.29    6.40
   2  10  -2   66.59    5.90
   1 -10  -2  697.33   15.00
   1 -10  -2  686.53   14.30
  -1 -10   2  704.23   15.50
  -1  10   2  707.63   16.00
   1  10  -2  698.13   15.90
  -1  10   2  704.73   14.60
   1  10  -2  703.43   15.20
   0 -10  -2 1097.09   20.40
   0 -10  -2 1094.59   16.80
   0 -10   2 1103.79   20.90
   0  10   2 1106.79   20.40
   0  10  -2 1105.59   20.30
   0  10  -2 1105.99   20.10
   0  10   2 1073.39   19.60
  -1 -10  -2  216.08    8.50
   1 -10   2  220.48    9.00
   1  10   2  225.68    8.20
  -1  10  -2  221.48    8.50
   1  10   2  231.78    8.40
  -2 -10  -2    7.20    2.90
   2 -10   2    9.10    3.40
  -2  10  -2    7.90    3.00
   2  10   2   10.30    3.10
   2  10   2    5.80    2.40
   3 -10   2  847.62   22.00
  -3 -10  -2  848.22   19.10
   3  10   2  869.01   21.50
   3  10   2  821.62   20.40
  -3  10  -2  854.21   20.90
   3 -11  -2    8.60    4.00
  -3  11   2    4.20    3.10
  -3  11   2    7.10    2.90
   3  11  -2    3.70    2.60
   2 -11  -2  210.68    7.90
   2 -11  -2  208.48    9.00
  -2 -11   2  187.58    8.40
  -2  11   2  194.88    7.90
   2  11  -2  190.08    8.90
   2  11  -2  190.38    8.40
  -2  11   2  190.08    8.80
  -1 -11   2   13.50    3.20
   1 -11  -2   12.10    2.80
   1 -11  -2   14.60    3.20
   1  11  -2   14.00    3.40
   1  11  -2   12.80    2.80
  -1  11   2   13.90    3.60
  -1  11   2   14.20    3.00
   0 -11  -2   26.60    3.80
   0 -11   2   26.40    4.30
   0  11   2   35.20    4.40
   0  11   2   31.70    4.10
   0  11  -2   28.20    4.00
   0  11  -2   25.10    3.90
   1 -11   2   84.49    5.00
   1 -11   2   78.59    7.10
  -1 -11  -2   77.89    5.80
   1  11   2   71.39    5.10
  -1  11  -2   78.29    5.60
   1  11   2   76.79    6.60
   2 -11   2  822.72   20.20
  -2 -11  -2  807.62   18.50
  -2  11  -2  793.82   18.90
   2  11   2  803.22   18.90
   2  11   2  836.12   19.00
   3 -11   2   17.80    5.00
  -3 -11  -2   21.60    4.70
   3  11   2   27.10    5.10
   3  11   2   16.00    4.20
  -3  11  -2   22.10    4.80
  -3 -12   2  157.58    9.40
   3 -12  -2  156.28   10.00
   3  12  -2  159.08    8.90
  -3  12   2  166.38    9.70
   2 -12  -2  144.09    7.20
  -2 -12   2  136.99    7.60
   2 -12  -2  134.29    7.70
  -2  12   2  142.59    8.00
  -2  12   2  138.39    7.30
   2  12  -2  133.29    7.40
   1 -12  -2   43.10    4.70
  -1 -12   2   37.20    4.90
   1 -12  -2   42.60    5.20
   1  12  -2   29.90    4.70
  -1  12   2   32.60    4.30
  -1  12   2   29.80    4.60
   1  12  -2   43.30    5.10
   0 -12  -2  231.68    9.10
   0 -12   2  220.18    9.30
   0  12  -2  210.48    8.80
   0  12   2  218.98    8.30
   0  12   2  214.38    8.50
   1 -12   2   60.19    6.40
   1 -12   2   59.39    5.40
  -1 -12  -2   62.59    6.60
  -1  12  -2   57.79    5.80
   1  12   2   59.29    6.20
   1  12   2   63.99    5.00
  -2 -12  -2  155.28    8.40
   2 -12   2  144.69    9.10
   2  12   2  134.59    8.20
   2  12   2  149.79    8.00
  -2  12  -2  147.69    8.60
   3 -12   2    3.30    4.10
  -3 -12  -2   -0.40    3.10
  -3  12  -2    2.90    3.60
   3  12   2    4.30    3.30
   3  12   2    2.40    2.90
   3 -13  -2  137.39    9.80
  -3 -13   2  115.59    8.70
  -3  13   2  109.49    8.70
   3  13  -2  109.49    9.20
   2 -13  -2  345.17   12.20
   2 -13  -2  342.97   11.30
  -2 -13   2  336.57   12.90
   2  13  -2  342.87   12.10
  -2  13   2  345.67   11.60
  -2  13   2  345.97   12.60
  -1 -13   2  179.58    8.90
   1 -13  -2  194.38    8.60
  -1 -13   2  191.58    8.90
   1  13  -2  190.38    8.80
  -1  13   2  189.48    8.40
  -1  13   2  196.68    9.00
   0 -13  -2  147.09    7.80
   0 -13   2  150.88    8.30
   0 -13   2  158.08    8.00
   0  13   2  158.88    7.30
   0  13   2  167.88    7.90
   0  13  -2  140.89    7.80
   1 -13   2  304.97   10.30
  -1 -13  -2  325.87   11.80
   1 -13   2  310.27   12.10
   1  13   2  320.47   11.40
  -1  13  -2  316.77   11.60
   1  13   2  327.67   10.70
   2 -13   2    5.00    3.70
  -2 -13  -2    8.70    3.80
  -2  13  -2   11.40    3.80
   2  13   2    8.40    3.40
   2  13   2   12.90    3.50
  -2 -14   2   47.30    6.60
   2 -14  -2   64.59    6.40
   2 -14  -2   66.29    7.10
   2  14  -2   50.59    6.20
  -2  14   2   59.89    6.20
   1 -14  -2   33.70    5.10
  -1 -14   2   25.30    4.60
  -1 -14   2   32.30    5.20
   1  14  -2   32.20    5.00
  -1  14   2   22.40    4.20
   0 -14   2   41.30    5.70
   0 -14  -2   50.39    5.90
   0 -14   2   52.69    6.20
   0  14   2   37.70    5.20
   0  14  -2   57.29    6.40
  -1 -14  -2   10.70    3.90
   1 -14   2   15.80    4.30
   1 -14   2    8.40    3.00
  -1  14  -2   12.20    3.90
   1  14   2   10.70    3.50
  -2 -14  -2   17.30    4.80
   2 -14   2   17.50    5.10
   2  14   2    6.40    3.70
  -2  14  -2   11.70    4.30
   2 -15  -2  310.57   11.90
  -2 -15   2  342.37   13.90
  -2  15   2  314.67   12.10
   2  15  -2  295.67   12.30
   1 -15  -2  201.38    9.70
  -1 -15   2  199.08   10.10
   1  15  -2  183.68    9.60
  -1  15   2  188.98    9.30
   0 -15   2   18.60    4.50
   0 -15   2   24.40    4.80
   0 -15  -2   20.10    4.70
   0  15   2   15.20    4.00
   0  15  -2   21.90    4.60
   1 -15   2  340.37   13.20
  -1 -15  -2  313.87   12.80
   1 -15   2  306.67   11.40
   1  15   2  342.17   12.80
  -1  15  -2  328.37   13.00
   2 -15   2  294.87   13.60
  -2 -15  -2  265.07   12.30
  -2  15  -2  287.97   12.60
   2  15   2  296.37   12.80
  -1 -16   2  106.29    9.50
   1 -16  -2  103.89    7.90
  -1  16   2   82.99    7.90
   1  16  -2   88.29    8.30
   0 -16  -2  278.57   12.00
   0 -16   2  266.27   11.80
   0 -16   2  257.97   11.60
   0  16   2  277.37   11.80
   0  16  -2  246.58   11.50
   1 -16   2    5.30    4.30
   1 -16   2   -0.40    2.70
  -1 -16  -2   -0.70    3.40
  -1  16  -2    4.50    3.70
   1  16   2   11.30    4.10
   0 -17  -2   18.30    5.30
   0 -17   2   23.80    5.10
   0  17   2   20.50    4.90
   0  17  -2   21.40    5.00
  -4   0   3   14.20    4.40
   4   0  -3   20.50    4.70
   3   0  -3  173.78    8.20
   3   0  -3  167.68    6.20
  -3   0   3  178.28    8.30
   2   0  -3  910.41   15.70
   2   0  -3  907.11   17.60
  -2   0   3  909.81   17.50
   1   0  -3 2101.79   28.40
   1   0  -3 2036.70   28.60
  -1   0   3 2060.89   28.70
   0   0  -3 1226.98   18.10
   0   0   3 1187.28   18.40
   0   0   3 1185.78   17.70
   0   0  -3 1171.38   15.80
   1   0   3  476.85    9.30
  -1   0  -3  469.15    9.10
   1   0   3  469.15   10.50
  -1   0  -3  472.75    9.80
   2   0   3  769.22   14.20
   2   0   3  786.42   16.60
  -2   0  -3  781.22   12.40
  -2   0  -3  799.72   15.90
   3   0   3  601.54   14.00
  -3   0  -3  601.54   15.50
   3   0   3  606.84   16.30
   4   0   3  588.84   18.80
   4   0   3  592.94   16.50
  -4   0  -3  598.64   17.60
  -4  -1   3   60.19    7.40
   4  -1  -3   57.39    7.00
   4   1  -3   49.40    6.50
  -4   1   3   59.49    7.30
  -3  -1   3    0.80    2.10
   3  -1  -3   -0.70    1.40
   3  -1  -3    0.60    1.90
   3   1  -3    1.40    2.20
   3   1  -3   -0.90    1.40
  -3   1   3   -1.10    1.90
  -2  -1   3   17.40    1.50
   2  -1  -3   19.00    2.70
   2  -1  -3   13.40    2.70
  -2  -1   3   19.10    2.90
   2   1  -3   17.20    2.80
   2   1  -3   13.10    2.30
  -2   1   3   17.90    2.90
   1  -1  -3  252.77    7.00
  -1  -1   3  258.47    6.90
   1  -1  -3  249.38    6.90
   1   1  -3  256.77    7.30
  -1   1   3  262.27    7.50
   1   1  -3  257.87    7.00
   0  -1   3 1382.16   20.30
   0  -1  -3 1379.86   20.30
   0  -1   3 1349.47   19.90
   0  -1  -3 1374.76   17.90
   0   1  -3 1395.26   18.20
   0   1   3 1367.36   19.30
   0   1  -3 1387.26   20.10
   0   1   3 1400.86   21.10
   1  -1   3  231.08    6.90
   1  -1   3  225.58    6.40
  -1  -1  -3  233.08    6.40
  -1  -1  -3  231.08    6.10
  -1   1  -3  234.38    6.00
   1   1   3  231.18    5.70
   1   1   3  233.08    7.30
  -1   1  -3  234.38    6.50
   2  -1   3   56.29    3.90
  -2  -1  -3   61.09    4.20
  -2  -1  -3   57.39    3.20
   2  -1   3   53.59    4.30
   2   1   3   60.29    3.50
  -2   1  -3   62.69    4.30
   2   1   3   55.59    5.40
   3  -1   3  106.89    7.10
  -3  -1  -3  108.29    6.60
   3  -1   3  101.69    6.10
   3   1   3  116.19    7.30
  -3   1  -3  102.49    6.60
   3   1   3  109.89    5.70
   4  -1   3   87.69    9.10
   4  -1   3   97.49    7.10
  -4  -1  -3   83.49    8.20
   4   1   3   96.19    9.50
  -4   1  -3  102.29    9.00
  -4  -2   3    4.30    3.30
   4  -2  -3   -0.40    2.70
   4   2  -3    0.00    2.50
  -4   2   3   -0.40    3.00
  -3  -2   3  237.68    9.40
   3  -2  -3  255.87    7.50
   3  -2  -3  235.78    9.70
   3   2  -3  269.17    9.90
   3   2  -3  245.18    7.80
  -3   2   3  237.38    9.90
  -2  -2   3  768.62   15.20
   2  -2  -3  745.63   14.00
   2  -2  -3  761.02   15.70
  -2  -2   3  758.12   11.30
   2   2  -3  764.12   14.40
   2   2  -3  765.62   15.80
  -2   2   3  780.42   16.20
  -1  -2   3    9.90    1.90
   1  -2  -3    7.30    1.80
   1  -2  -3    8.50    1.80
  -1   2   3    8.80    2.20
   1   2  -3   10.50    2.00
   1   2  -3    6.00    1.80
   1   2  -3   11.80    1.20
   0  -2  -3    1.20    0.80
   0  -2   3    0.90    1.30
   0  -2   3    1.60    1.40
   0  -2  -3   -0.40    1.10
   0   2   3    1.30    1.60
   0   2  -3    0.30    1.10
   0   2   3    1.30    1.00
   0   2  -3    1.00    0.90
   1  -2   3 1060.19   17.30
   1  -2   3 1062.69   17.10
  -1  -2  -3 1045.30   16.50
  -1  -2  -3 1036.60   16.70
  -1   2  -3 1017.70   15.60
  -1   2  -3 1027.10   17.00
   1   2   3 1047.20   18.40
   1   2   3 1068.79   14.80
  -2  -2  -3  356.26    9.80
  -2  -2  -3  347.57    8.10
   2  -2   3  352.16   10.20
   2  -2   3  369.56    9.80
   2   2   3  345.27    7.90
  -2   2  -3  357.26   10.00
   2   2   3  359.06   10.80
   3  -2   3   86.39    5.90
   3  -2   3   81.19    7.60
  -3  -2  -3   81.09    5.90
   3   2   3   95.49    5.10
   3   2   3   86.79    6.70
  -3   2  -3   81.19    6.00
   4  -2   3   14.00    3.90
  -4  -2  -3    7.20    3.50
   4  -2   3   17.10    5.00
  -4   2  -3    8.50    4.20
   4   2   3    7.80    4.10
  -4  -3   3  283.37   12.30
   4  -3  -3  283.37   12.30
  -4   3   3  306.77   13.30
   4   3  -3  283.17   12.10
   3  -3  -3   19.90    2.80
  -3  -3   3   18.90    3.80
   3  -3  -3   21.10    4.00
  -3   3   3   15.00    3.60
   3   3  -3   14.30    3.30
   3   3  -3   15.40    2.90
  -2  -3   3    0.10    1.30
   2  -3  -3    0.60    1.20
   2  -3  -3    0.30    1.50
  -2   3   3    1.20    0.80
   2   3  -3    0.30    0.90
   2   3  -3   -0.90    1.20
   2   3  -3    0.50    1.40
  -2   3   3    1.40    1.70
   1  -3  -3 1056.19   17.10
  -1  -3   3 1026.50   18.00
   1  -3  -3 1045.30   17.10
  -1  -3   3 1025.70   16.00
   1   3  -3 1037.70   17.30
  -1   3   3 1028.10   18.10
   1   3  -3 1062.29   14.30
   0  -3   3  802.02   14.80
   0  -3  -3  837.32   12.50
   0  -3   3  829.62   12.90
   0  -3  -3  850.71   14.50
   0   3   3  844.12   15.60
   0   3  -3  837.02   13.00
   0   3   3  812.52   12.40
   0   3  -3  831.52   14.10
  -1  -3  -3   13.80    2.30
   1  -3   3   14.40    2.40
   1  -3   3   13.60    2.20
  -1  -3  -3   13.70    2.20
  -1   3  -3   12.20    1.90
   1   3   3   11.60    1.30
  -1   3  -3   15.30    2.30
   1   3   3   11.60    2.50
  -2  -3  -3   13.90    2.70
   2  -3   3   17.50    2.90
  -2  -3  -3   18.70    2.70
   2  -3   3   14.50    2.80
  -2   3  -3   12.90    2.60
   2   3   3   16.70    2.00
   2   3   3   14.00    2.90
   3  -3   3  259.87    9.80
  -3  -3  -3  250.57    9.80
   3  -3   3  263.07   10.50
   3   3   3  243.78   10.70
  -3   3  -3  262.47   10.30
   4  -3   3   38.90    6.60
   4  -3   3   69.69    7.60
  -4  -3  -3   51.49    6.60
   4   3   3   50.89    7.50
  -4   3  -3   57.79    7.40
   4  -4  -3   88.89    8.80
  -4  -4   3   67.49    7.60
   4   4  -3   77.79    7.80
  -4   4   3   86.29    8.90
   3  -4  -3  120.79    5.40
   3  -4  -3  123.39    7.50
  -3  -4   3  125.59    6.90
  -3   4   3  132.39    7.60
   3   4  -3  131.39    7.20
   3   4  -3  139.69    6.40
  -2  -4   3   72.49    4.30
   2  -4  -3   71.29    4.80
   2  -4  -3   69.89    4.00
  -2   4   3   72.39    5.00
   2   4  -3   66.59    3.30
   2   4  -3   71.19    4.80
   2   4  -3   71.79    4.40
  -2   4   3   69.69    2.70
  -1  -4   3   96.69    3.80
  -1  -4   3  104.19    5.20
   1  -4  -3  102.39    4.50
   1  -4  -3  104.79    4.60
   1   4  -3  102.69    4.70
  -1   4   3  108.19    5.30
  -1   4   3   98.79    2.90
   1   4  -3  100.89    3.50
   0  -4  -3    0.50    0.80
   0  -4  -3    1.90    1.40
   0  -4   3    1.00    1.00
   0  -4   3    0.00    1.40
   0   4  -3    1.30    1.30
   0   4   3    2.10    1.10
   0   4  -3    1.20    1.10
   0   4   3   -0.40    1.40
   1  -4   3  551.54   10.60
   1  -4   3  584.34   12.60
  -1  -4  -3  562.34   11.50
   1   4   3  575.64   11.60
  -1   4  -3  570.24   10.50
  -1   4  -3  564.34   11.80
   1   4   3  574.24   13.10
  -2  -4  -3    1.60    1.60
   2  -4   3    3.90    2.00
   2  -4   3    2.50    1.80
  -2  -4  -3    4.20    1.80
  -2   4  -3    1.70    1.70
   2   4   3    4.50    1.20
   2   4   3    2.90    2.00
   3  -4   3   -1.30    2.20
   3  -4   3    1.90    2.80
  -3  -4  -3    3.90    2.50
   3   4   3   -0.70    2.40
  -3   4  -3   -0.40    2.50
   4  -4   3    6.90    3.60
  -4  -4  -3    7.00    3.60
   4  -4   3    3.70    3.90
   4   4   3    1.40    3.10
  -4   4  -3    8.90    4.20
  -4  -5   3  128.49    8.90
   4  -5  -3  123.79    9.20
   4   5  -3  140.59    9.10
  -4   5   3  151.08    9.70
   3  -5  -3 1436.46   24.10
   3  -5  -3 1492.55   28.00
  -3  -5   3 1481.15   26.40
   3   5  -3 1458.05   25.00
   3   5  -3 1486.55   27.40
  -3   5   3 1487.05   28.40
  -2  -5   3  117.99    5.30
   2  -5  -3  121.59    5.30
   2  -5  -3  120.19    6.10
   2   5  -3  128.39    6.40
  -2   5   3  131.19    4.00
  -2   5   3  127.79    6.50
   2   5  -3  134.19    5.90
   2   5  -3  132.29    4.80
   1  -5  -3 2276.87   30.90
  -1  -5   3 2268.27   28.80
   1  -5  -3 2270.27   31.60
  -1  -5   3 2270.37   33.10
  -1   5   3 2236.38   28.20
  -1   5   3 2267.17   33.30
   1   5  -3 2239.08   32.00
   1   5  -3 2289.07   29.40
   0  -5   3 1089.19   14.20
   0  -5   3 1059.49   18.70
   0  -5  -3 1046.30   17.90
   0  -5  -3 1049.09   14.50
   0   5  -3 1065.89   17.50
   0   5   3 1072.49   19.10
   0   5  -3 1055.39   16.70
   0   5   3 1066.29   16.20
   1  -5   3  202.58    7.30
   1  -5   3  190.38    5.50
  -1  -5  -3  176.58    6.40
  -1   5  -3  187.28    6.50
  -1   5  -3  194.98    5.80
   1   5   3  196.68    6.50
   1   5   3  203.18    7.60
  -2  -5  -3  365.86    9.60
   2  -5   3  379.86   10.20
   2  -5   3  366.16   10.90
  -2  -5  -3  361.06   10.50
  -2   5  -3  355.96   10.60
   2   5   3  359.76   11.30
   3  -5   3  285.07   10.90
  -3  -5  -3  258.77   10.20
   3  -5   3  268.27   10.70
  -3   5  -3  279.47   10.90
   3   5   3  282.57   11.60
  -4  -5  -3   74.29    8.10
   4  -5   3   71.09    7.90
   4  -5   3   70.59    8.40
  -4   5  -3   82.99    8.50
   4   5   3   66.79    8.10
  -4  -6   3  103.99    8.20
   4  -6  -3  106.39    9.80
  -4   6   3  100.59    9.90
   4   6  -3   85.79    8.30
  -3  -6   3  382.66   11.70
   3  -6  -3  385.36   12.90
   3   6  -3  351.66   12.20
   3   6  -3  361.56   11.10
  -3   6   3  350.16   12.70
   3   6  -3  367.06   10.00
   2  -6  -3   86.29    5.40
   2  -6  -3   87.49    4.80
  -2  -6   3  101.09    4.80
  -2  -6   3   91.79    5.90
   2   6  -3   98.69    5.40
  -2   6   3   92.29    5.90
   2   6  -3   90.69    4.30
  -2   6   3   85.99    3.70
  -1  -6   3   86.69    5.20
   1  -6  -3   79.19    4.10
   1  -6  -3   86.79    4.60
  -1  -6   3   78.09    3.20
   1   6  -3   85.79    4.00
  -1   6   3   83.09    3.50
   1   6  -3   85.09    4.70
  -1   6   3   85.09    5.10
   0  -6  -3   11.10    1.40
   0  -6  -3    9.30    2.30
   0  -6   3   10.40    2.50
   0   6  -3    8.10    2.10
   0   6   3    9.50    1.80
   0   6   3    7.60    2.30
   0   6  -3    6.60    1.70
   1  -6   3 1253.57   18.10
   1  -6   3 1236.18   22.30
  -1  -6  -3 1286.37   21.50
  -1   6  -3 1245.08   21.10
  -1   6  -3 1273.37   19.50
   1   6   3 1292.77   22.80
   1   6   3 1314.47   21.00
  -2  -6  -3   10.40    2.60
   2  -6   3    6.80    2.20
   2  -6   3    6.80    2.60
   2   6   3    7.50    2.80
  -2   6  -3    6.10    2.40
   2   6   3    6.40    2.40
  -3  -6  -3    6.60    3.10
   3  -6   3   15.90    4.00
   3  -6   3   11.50    3.50
   3   6   3   11.90    3.50
  -3   6  -3   10.80    3.60
   4  -6   3    5.10    3.80
  -4  -6  -3    1.50    3.30
   4  -6   3    1.00    3.50
   4   6   3    6.00    3.90
  -4   6  -3    5.80    4.00
  -4  -7   3  262.97   12.00
   4  -7  -3  310.07   13.80
  -4   7   3  283.77   13.40
   4   7  -3  273.07   12.40
   3  -7  -3   59.09    6.60
  -3  -7   3   46.20    5.30
   3   7  -3   42.70    5.30
   3   7  -3   58.49    5.10
   3   7  -3   38.90    4.90
  -3   7   3   45.00    6.00
   2  -7  -3    7.80    2.50
  -2  -7   3   10.00    2.30
   2  -7  -3   13.20    2.50
  -2  -7   3   10.90    3.10
  -2   7   3   10.20    2.90
  -2   7   3   11.20    2.00
   2   7  -3   12.80    2.40
   2   7  -3    5.30    2.30
  -1  -7   3   49.20    4.90
  -1  -7   3   38.40    2.30
   1  -7  -3   40.60    3.80
   1  -7  -3   43.60    4.20
   1   7  -3   42.60    4.50
  -1   7   3   41.00    2.90
  -1   7   3   44.00    4.80
   1   7  -3   44.70    3.30
   0  -7   3  771.62   16.10
   0  -7  -3  801.52   15.70
   0  -7  -3  766.62   11.40
   0   7  -3  755.02   14.80
   0   7   3  776.62   14.00
   0   7  -3  776.42   14.60
   0   7   3  756.12   16.20
   1  -7   3   75.99    5.40
   1  -7   3   72.99    3.20
  -1  -7  -3   72.39    4.80
  -1   7  -3   69.99    4.00
   1   7   3   82.49    5.30
   1   7   3   68.39    4.40
  -1   7  -3   72.49    4.70
   2  -7   3   25.70    3.40
  -2  -7  -3   36.70    4.50
   2  -7   3   24.70    4.10
   2   7   3   19.90    3.60
   2   7   3   18.80    3.80
  -2   7  -3   23.50    3.80
  -3  -7  -3  188.48    9.30
   3  -7   3  183.78    9.50
   3  -7   3  174.58    8.60
  -3   7  -3  186.98    9.40
   3   7   3  197.98   10.00
  -4  -7  -3   72.69    8.30
   4  -7   3   58.69    7.60
   4  -7   3   45.30    6.90
   4   7   3   50.79    7.20
  -4   7  -3   58.19    7.70
   4  -8  -3   14.70    5.10
   4   8  -3   23.20    5.20
  -4   8   3   15.70    5.10
   4   8  -3   20.40    5.30
   3  -8  -3   56.29    6.70
  -3  -8   3   57.19    6.70
  -3  -8   3   56.19    6.80
  -3   8   3   58.79    6.80
   3   8  -3   50.19    5.60
   3   8  -3   64.69    5.60
  -2  -8   3  787.22   17.90
   2  -8  -3  795.62   17.30
   2  -8  -3  764.82   15.70
   2   8  -3  784.42   15.50
  -2   8   3  762.02   14.20
  -2   8   3  770.72   18.10
   2   8  -3  773.42   17.20
   1  -8  -3   38.40    4.30
   1  -8  -3   42.30    3.90
  -1  -8   3   37.80    4.70
  -1   8   3   34.80    4.70
   1   8  -3   40.50    3.80
   1   8  -3   34.70    4.10
  -1   8   3   46.10    3.80
   0  -8  -3  150.98    4.10
   0  -8  -3  149.39    6.60
   0  -8   3  162.08    7.30
   0   8   3  169.08    7.20
   0   8   3  147.99    5.80
   0   8  -3  158.08    6.40
   0   8  -3  154.28    6.20
   1  -8   3  117.09    6.90
  -1  -8  -3  120.89    6.20
  -1   8  -3  118.39    5.30
   1   8   3  122.39    6.00
  -1   8  -3  128.79    6.20
   1   8   3  126.59    6.60
   2  -8   3  432.86   13.30
  -2  -8  -3  429.86   12.00
   2   8   3  418.36   12.40
   2   8   3  443.86   13.30
  -2   8  -3  422.86   12.70
   3  -8   3    3.20    3.30
  -3  -8  -3    3.90    2.80
  -3  -8  -3    3.90    3.00
  -3   8  -3   -2.10    2.80
   3   8   3    3.00    2.70
  -3  -9   3   73.29    7.70
   3  -9  -3   77.39    7.70
   3   9  -3   67.39    6.00
  -3   9   3   76.19    7.70
   3   9  -3   65.89    6.80
   2  -9  -3   -1.20    1.70
   2  -9  -3   -1.80    1.90
  -2  -9   3   -1.30    2.30
  -2   9   3    1.20    1.50
  -2   9   3   -0.30    2.30
   2   9  -3    2.00    2.10
   2   9  -3    2.10    2.20
   1  -9  -3   19.70    3.10
  -1  -9   3   17.40    3.50
   1  -9  -3   18.70    3.60
  -1   9   3   20.40    2.90
   1   9  -3   18.80    3.60
  -1   9   3   14.00    3.40
   1   9  -3   18.30    3.00
   0  -9   3   37.40    4.60
   0  -9  -3   38.80    4.70
   0   9  -3   38.50    4.30
   0   9   3   40.60    4.20
   0   9   3   45.70    5.20
   0   9  -3   43.10    4.40
  -1  -9  -3   24.00    4.00
   1  -9   3   20.60    4.20
  -1   9  -3   15.30    3.10
   1   9   3   13.30    3.10
   1   9   3   13.60    3.00
  -1   9  -3   16.00    2.90
  -2  -9  -3    1.10    2.30
   2  -9   3    1.10    2.40
  -2   9  -3    3.30    2.50
   2   9   3    1.10    2.10
   2   9   3   -0.20    2.10
   3  -9   3   26.20    5.30
  -3  -9  -3   28.30    5.10
  -3  -9  -3   24.80    4.50
  -3   9  -3   31.00    5.50
   3   9   3   27.10    5.30
   3 -10  -3  166.18    9.70
  -3 -10   3  158.78    9.40
   3  10  -3  190.18    8.50
  -3  10   3  174.88   10.10
   3  10  -3  175.58    9.30
   2 -10  -3  343.17   11.20
   2 -10  -3  318.87   10.20
  -2 -10   3  341.07   11.70
  -2  10   3  346.77   12.30
  -2  10   3  339.47    9.50
   2  10  -3  320.97   11.40
   2  10  -3  342.87   10.50
  -1 -10   3  567.64   14.80
   1 -10  -3  549.95   12.30
   1 -10  -3  550.04   13.90
  -1  10   3  538.85   15.10
   1  10  -3  553.54   14.30
   1  10  -3  556.64   13.30
  -1  10   3  556.04   12.60
   0 -10  -3  155.68    7.40
   0 -10   3  163.18    8.10
   0  10   3  138.09    7.30
   0  10  -3  149.19    6.90
   0  10   3  156.08    6.70
   0  10  -3  147.19    6.80
   1 -10   3  489.75   14.40
  -1 -10  -3  473.55   13.30
  -1  10  -3  476.65   13.20
   1  10   3  482.65   13.60
  -1  10  -3  489.05   12.10
   1  10   3  475.55   12.90
   2 -10   3  369.86   13.20
  -2 -10  -3  360.86   11.80
  -2  10  -3  371.86   12.50
   2  10   3  372.46   12.30
   2  10   3  355.76   12.40
   3 -10   3  183.18   10.60
  -3 -10  -3  167.98    8.90
  -3  10  -3  173.68   10.30
   3  10   3  187.58   10.40
  -3 -11   3   -5.50    2.90
   3 -11  -3    1.70    3.40
   3  11  -3    2.70    2.70
   3  11  -3    6.00    3.40
  -3  11   3   -1.70    3.00
  -2 -11   3    9.90    3.70
   2 -11  -3   13.30    3.40
   2 -11  -3    8.00    3.00
  -2  11   3   12.10    2.90
  -2  11   3   13.00    4.00
   2  11  -3   12.00    2.90
   2  11  -3    4.20    2.70
   1 -11  -3    0.00    2.30
   1 -11  -3    6.10    2.30
  -1 -11   3    0.20    2.40
   1  11  -3   -0.90    2.00
   1  11  -3    6.20    2.50
  -1  11   3    2.60    3.10
  -1  11   3    4.80    2.10
   0 -11  -3  306.37   10.70
   0 -11   3  316.27   11.30
   0  11   3  316.97   10.90
   0  11  -3  310.17   10.40
   0  11   3  322.27   10.10
   0  11  -3  314.27   10.50
  -1 -11  -3   55.49    6.10
   1 -11   3   78.49    7.70
  -1  11  -3   51.39    5.50
   1  11   3   62.49    6.30
   1  11   3   53.19    5.70
  -1  11  -3   64.19    5.80
  -2 -11  -3    9.90    3.60
   2 -11   3   16.30    4.60
  -2  11  -3    8.60    3.50
   2  11   3   10.40    3.30
   2  11   3   13.40    3.90
   3 -11   3  132.69    9.70
  -3 -11  -3  119.19    8.20
  -3  11  -3  128.79    9.20
   3  11   3  121.19    8.70
   3  11   3   98.69    9.30
   3 -12  -3  117.49   10.40
   3  12  -3  119.99    8.50
  -3  12   3  109.89    9.00
   3  12  -3  106.29    7.50
   2 -12  -3  261.17   10.00
   2 -12  -3  265.57   10.50
  -2 -12   3  269.67   11.20
   2  12  -3  288.17   11.40
  -2  12   3  268.17   11.70
  -2  12   3  270.97    9.60
   2  12  -3  288.27   10.60
   1 -12  -3    2.40    2.60
  -1 -12   3   10.50    3.50
  -1  12   3    1.40    2.00
   1  12  -3    4.10    3.00
  -1  12   3    6.40    3.30
   1  12  -3    1.60    2.30
   0 -12  -3    0.10    2.20
   0 -12   3   -0.30    2.60
   0  12   3    1.80    2.10
   0  12   3   -1.60    2.00
   0  12  -3    0.20    2.10
   0  12  -3    0.60    2.20
  -1 -12  -3  357.06   12.30
   1 -12   3  365.06   13.30
  -1  12  -3  347.67   12.00
   1  12   3  345.37   11.60
   1  12   3  362.36   12.10
   2 -12   3   67.49    7.90
  -2 -12  -3   70.59    7.20
  -2  12  -3   84.89    8.10
   2  12   3   95.29    7.20
   2  12   3   80.79    7.90
   2 -13  -3    3.90    3.10
   2 -13  -3    2.40    3.00
  -2 -13   3    4.40    3.50
  -2  13   3   -2.50    3.50
  -2  13   3    4.60    2.80
   2  13  -3    5.80    3.30
   2  13  -3    1.30    2.80
   1 -13  -3  744.23   18.40
  -1 -13   3  758.52   19.00
   1  13  -3  735.83   18.00
  -1  13   3  755.72   17.20
  -1  13   3  740.63   19.00
   1  13  -3  765.32   19.10
   0 -13   3  155.58    8.90
   0 -13  -3  150.08    8.30
   0  13   3  134.49    7.80
   0  13   3  138.39    7.50
   0  13  -3  151.58    8.10
   0  13  -3  137.59    7.80
   1 -13   3    2.30    2.40
  -1 -13  -3    3.30    3.10
   1 -13   3    0.10    3.10
  -1  13  -3    4.30    2.90
   1  13   3    3.60    2.50
   1  13   3    7.60    3.10
   2 -13   3   13.40    4.80
  -2 -13  -3   26.10    5.40
   2  13   3   22.20    5.00
  -2  13  -3   27.00    5.30
   2  13   3   20.70    4.60
  -2 -14   3   16.70    4.70
   2 -14  -3   22.90    5.00
   2  14  -3   19.20    4.40
  -2  14   3   20.00    5.40
   1 -14  -3   28.60    5.20
  -1 -14   3   17.50    4.50
   1  14  -3   22.50    4.90
  -1  14   3   26.60    5.00
   1  14  -3   22.50    4.40
  -1  14   3   17.50    3.70
   0 -14   3    4.40    3.70
   0 -14  -3   10.00    3.80
   0  14  -3   10.00    3.50
   0  14   3    6.40    3.10
   0  14   3    7.90    3.10
  -1 -14  -3    1.00    3.40
   1 -14   3    0.20    3.30
   1 -14   3   -1.30    2.30
   1  14   3    0.70    2.70
  -1  14  -3    3.50    2.90
   1  14   3   -1.10    2.10
   2 -14   3   -3.20    3.60
  -2 -14  -3    1.20    3.30
   2  14   3    1.90    2.80
   2  14   3    0.40    3.10
  -2  14  -3    5.10    3.60
   2 -15  -3   37.60    5.80
  -2 -15   3   28.30    6.20
   2  15  -3   36.50    5.70
   1 -15  -3  188.48   10.00
  -1 -15   3  205.08   10.50
   1  15  -3  191.58   10.00
  -1  15   3  199.58    9.50
   0 -15   3  459.95   15.00
   0 -15   3  485.45   16.20
   0 -15  -3  463.65   15.40
   0  15  -3  446.96   15.10
   0  15   3  462.85   14.70
  -1 -15  -3  100.79    9.60
   1 -15   3  100.59    7.40
   1 -15   3   88.69    8.90
  -1  15  -3   95.49    8.80
   1  15   3   91.59    8.60
  -1 -16   3   12.30    4.60
  -1 -16   3    9.80    4.60
   1 -16  -3   21.00    5.30
  -1  16   3   12.40    3.90
   1  16  -3   15.70    4.50
   0 -16   3   17.30    5.40
   0 -16   3   22.20    5.30
   0 -16  -3   12.60    4.50
   0  16  -3   16.70    4.80
   0  16   3   15.50    4.20
   4   0  -4  541.75   17.20
  -4   0   4  498.85   17.00
   3   0  -4  192.68    7.50
   3   0  -4  178.18    8.80
  -3   0   4  200.58    9.30
   2   0  -4  132.19    5.90
  -2   0   4  125.19    6.40
   2   0  -4  130.09    6.50
   1   0  -4 1045.00   18.30
   1   0  -4 1038.00   18.40
  -1   0   4 1019.40   18.30
   0   0   4  440.66   10.00
   0   0  -4  465.95   10.50
   0   0  -4  439.76    8.10
   0   0   4  422.96   10.50
   1   0   4  399.96   10.60
  -1   0  -4  410.56    9.60
  -1   0  -4  400.16    9.40
   1   0   4  391.26    9.20
   2   0   4   63.99    6.00
  -2   0  -4   66.09    3.90
   2   0   4   63.99    4.10
  -2   0  -4   64.49    5.60
   3   0   4  438.96   14.60
  -3   0  -4  435.96   13.50
   3   0   4  437.26   11.90
   4   0   4  298.77   14.10
  -4   0  -4  332.47   13.70
  -4  -1   4   13.60    4.20
   4  -1  -4   15.70    4.40
  -4   1   4   15.30    4.80
   4   1  -4   18.00    4.50
  -3  -1   4  111.09    7.10
   3  -1  -4  106.49    7.10
   3  -1  -4  108.89    5.70
   3   1  -4  114.29    6.00
  -3   1   4  117.09    7.50
   3   1  -4   99.79    6.70
   2  -1  -4    1.50    1.60
   2  -1  -4    0.80    1.40
  -2  -1   4    0.50    1.80
   2   1  -4    0.30    1.50
   2   1  -4    2.20    1.60
  -2   1   4   -2.50    1.40
   1  -1  -4   25.00    3.10
  -1  -1   4   23.10    3.20
   1  -1  -4   26.00    3.40
   1   1  -4   25.80    3.40
  -1   1   4   25.10    3.50
   1   1  -4   16.90    2.80
   0  -1   4  311.17    8.40
   0  -1  -4  311.27    8.40
   0  -1   4  312.57    8.40
   0  -1  -4  316.17    6.50
   0   1   4  314.17    7.90
   0   1  -4  307.27    8.40
   0   1  -4  310.27    6.60
   0   1   4  317.17    9.10
   1  -1   4  804.42   14.90
  -1  -1  -4  815.32   14.90
  -1  -1  -4  792.42   14.60
   1  -1   4  808.82   15.90
   1   1   4  806.32   16.60
  -1   1  -4  825.72   14.60
   1   1   4  811.52   13.90
  -1   1  -4  823.32   14.90
  -2  -1  -4   12.40    2.70
   2  -1   4   23.60    3.40
  -2  -1  -4   16.60    2.60
   2  -1   4   21.80    3.90
  -2   1  -4   17.60    3.20
   2   1   4   20.60    2.90
   2   1   4   15.60    3.60
  -2   1  -4   19.50    2.60
   3  -1   4    7.00    3.30
  -3  -1  -4    1.30    2.70
   3  -1   4    3.70    2.60
  -3   1  -4    4.80    2.80
   3   1   4    5.10    3.20
  -4  -1  -4    9.30    4.30
   4  -1   4    7.20    4.40
   4   1   4   11.30    4.90
  -4   1  -4    4.00    4.10
   4  -2  -4  104.29    8.40
  -4  -2   4  101.89    9.80
   4   2  -4  112.19    8.50
  -4   2   4   88.39    9.10
   3  -2  -4  112.89    7.30
   3  -2  -4  100.69    5.60
  -3  -2   4  104.49    7.00
   3   2  -4  111.29    6.10
  -3   2   4  111.99    7.40
   3   2  -4  109.89    7.00
   2  -2  -4   45.70    4.90
   2  -2  -4   48.80    4.60
  -2  -2   4   40.30    4.30
  -2   2   4   47.10    5.10
   2   2  -4   40.80    4.30
   2   2  -4   35.10    4.40
   1  -2  -4  424.36   10.50
  -1  -2   4  430.86   10.20
   1  -2  -4  426.76   10.20
  -1  -2   4  443.46   11.20
  -1   2   4  437.66   11.20
   1   2  -4  435.96   10.60
   1   2  -4  443.06    6.90
   0  -2   4 1012.10   16.80
   0  -2   4  989.70   17.70
   0  -2  -4  991.60   14.60
   0  -2  -4  999.40   17.50
   0   2   4  984.30   15.90
   0   2  -4  969.90   15.00
   0   2  -4 1023.30   17.40
   0   2   4 1016.50   18.60
  -1  -2  -4   -0.90    1.40
   1  -2   4    3.00    1.80
  -1  -2  -4    2.00    1.30
   1  -2   4    0.90    1.60
  -1   2  -4    0.80    1.40
   1   2   4    1.80    1.90
  -1   2  -4    0.10    1.40
   1   2   4    1.80    1.20
   2  -2   4  192.88    7.50
   2  -2   4  189.88    8.00
  -2  -2  -4  175.68    7.40
  -2  -2  -4  186.38    6.50
  -2   2  -4  188.58    7.80
  -2   2  -4  190.98    5.80
   2   2   4  185.28    5.90
   2   2   4  190.18    8.60
   3  -2   4  108.19    6.70
  -3  -2  -4  112.09    7.20
   3  -2   4  105.19    7.50
   3   2   4   98.19    7.70
  -3   2  -4   94.09    8.00
   4  -2   4    1.00    3.40
   4  -2   4    2.90    4.20
  -4  -2  -4    9.30    4.10
  -4   2  -4   12.20    5.00
   4   2   4    6.00    4.20
   4  -3  -4    0.70    3.30
  -4  -3   4    3.10    3.90
  -4   3   4    1.10    3.50
   4   3  -4    6.60    3.40
   3  -3  -4  370.66   13.00
   3  -3  -4  390.76   10.60
  -3  -3   4  406.56   12.60
  -3   3   4  390.46   13.40
   3   3  -4  363.76   11.00
   3   3  -4  389.16   12.90
  -2  -3   4  206.48    7.60
   2  -3  -4  194.08    7.90
   2  -3  -4  212.88    7.50
   2   3  -4  193.18    7.40
   2   3  -4  207.88    8.50
  -2   3   4  207.18    8.70
   1  -3  -4  207.98    6.90
   1  -3  -4  217.58    7.40
  -1  -3   4  213.98    7.80
  -1  -3   4  215.08    6.80
  -1   3   4  217.18    8.10
   1   3  -4  232.18    7.50
   1   3  -4  212.68    4.80
   0  -3   4  319.77    8.00
   0  -3  -4  333.57    9.00
   0  -3   4  342.87    9.50
   0  -3  -4  325.87    7.00
   0   3   4  358.86   10.20
   0   3  -4  341.67    7.60
   0   3   4  343.67    7.70
   0   3  -4  343.17    9.00
  -1  -3  -4  354.96    8.80
   1  -3   4  346.77    9.80
   1  -3   4  344.77    9.10
  -1  -3  -4  335.87    9.10
  -1   3  -4  348.77    9.10
  -1   3  -4  348.07    8.60
   1   3   4  327.87   10.40
   1   3   4  344.67    7.00
  -2  -3  -4  133.19    5.80
   2  -3   4  132.99    6.80
   2  -3   4  119.39    6.40
  -2  -3  -4  151.78    6.80
  -2   3  -4  131.69    6.80
   2   3   4  139.29    7.50
   3  -3   4   24.80    4.80
  -3  -3  -4   21.90    4.20
   3  -3   4   22.00    4.10
  -3   3  -4   23.90    4.60
   3   3   4   20.40    4.60
   4  -3   4   87.99    9.40
  -4  -3  -4   84.89    9.10
   4  -3   4   87.29    8.60
   4   3   4   79.59    9.40
  -4   3  -4   77.59    8.50
  -4  -4   4   28.40    5.70
   4  -4  -4   30.80    6.00
  -4   4   4   25.60    5.90
   4   4  -4   17.50    4.80
   3  -4  -4   26.20    3.50
   3  -4  -4   23.20    4.60
  -3  -4   4   25.20    4.20
   3   4  -4   22.90    4.30
  -3   4   4   22.00    4.70
   3   4  -4   18.50    3.40
   2  -4  -4  111.29    6.30
   2  -4  -4  109.39    5.70
  -2  -4   4  113.79    5.70
  -2   4   4  111.89    6.80
   2   4  -4  120.19    6.70
   2   4  -4  121.69    6.10
   2   4  -4  115.49    4.10
   1  -4  -4  288.37    8.70
  -1  -4   4  289.27    7.60
   1  -4  -4  281.47    8.00
  -1  -4   4  291.17    9.40
  -1   4   4  292.27    9.80
   1   4  -4  291.07    8.80
   1   4  -4  301.87    6.50
   0  -4  -4  245.98    7.80
   0  -4   4  224.18    8.00
   0  -4   4  219.58    6.20
   0   4   4  224.28    5.80
   0   4   4  234.08    6.10
   0   4  -4  230.38    7.40
   0   4  -4  226.48    6.40
   0   4   4  237.78    8.50
   1  -4   4   -0.50    1.40
  -1  -4  -4   -0.60    1.10
  -1  -4  -4   -0.80    1.50
   1  -4   4    1.30    1.80
  -1   4  -4   -0.40    1.20
  -1   4  -4   -0.90    1.20
   1   4   4    0.50    1.80
   1   4   4   -0.70    0.80
   2  -4   4   31.40    4.30
  -2  -4  -4   31.00    4.00
   2  -4   4   32.40    4.30
  -2  -4  -4   31.20    3.80
   2   4   4   17.30    3.60
  -2   4  -4   37.70    4.50
   3  -4   4   40.60    5.60
   3  -4   4   62.99    6.90
  -3  -4  -4   47.00    5.80
   3   4   4   44.60    6.50
  -3   4  -4   52.89    6.20
   4  -4   4    2.20    4.30
  -4  -4  -4    1.70    3.70
   4  -4   4   -0.10    3.60
   4   4   4    1.50    3.60
  -4   4  -4    2.50    3.90
  -4  -5   4   11.40    4.50
   4  -5  -4   13.00    4.60
  -4   5   4   14.30    4.90
   4   5  -4   14.00    4.40
  -3  -5   4   53.29    5.90
   3  -5  -4   46.30    4.80
   3  -5  -4   43.80    5.80
   3   5  -4   47.80    5.30
   3   5  -4   43.50    5.70
  -3   5   4   40.40    5.60
  -2  -5   4 2980.80   40.50
   2  -5  -4 2853.01   40.80
   2  -5  -4 3075.19   42.90
  -2  -5   4 2950.60   44.00
   2   5  -4 2917.11   37.10
   2   5  -4 2889.61   42.00
  -2   5   4 2938.41   44.40
  -1  -5   4   26.40    2.90
   1  -5  -4   28.80    3.60
   1  -5  -4   26.90    3.20
  -1  -5   4   27.00    3.90
   1   5  -4   25.10    2.50
  -1   5   4   24.60    4.00
   1   5  -4   23.30    3.30
  -1   5   4   24.00    2.10
   0  -5   4  301.77    6.90
   0  -5   4  284.57    9.30
   0  -5  -4  307.37    9.10
   0   5   4  311.97   10.10
   0   5  -4  305.27    7.90
   0   5   4  307.47    7.40
   0   5  -4  296.67    8.60
   1  -5   4  595.44   11.80
   1  -5   4  584.74   14.20
  -1  -5  -4  582.14   12.60
  -1  -5  -4  605.44   13.50
  -1   5  -4  613.84   13.30
   1   5   4  586.94   15.00
  -1   5  -4  582.94   12.10
  -2  -5  -4  885.21   17.40
  -2  -5  -4  880.11   18.50
   2  -5   4  884.41   17.60
   2  -5   4  909.61   19.60
   2   5   4  879.01   20.30
  -2   5  -4  886.41   18.80
   3  -5   4   37.80    5.80
  -3  -5  -4   33.90    5.20
   3  -5   4   37.00    5.60
   3   5   4   31.30    5.40
  -3   5  -4   29.40    5.00
   4  -6  -4   52.39    7.40
  -4  -6   4   45.60    6.60
   4   6  -4   39.20    6.30
  -4   6   4   50.49    7.60
   4   6  -4   36.70    6.20
   3  -6  -4   14.70    3.90
  -3  -6   4   17.80    3.80
   3  -6  -4   17.30    3.40
   3   6  -4   20.50    3.90
   3   6  -4   15.90    4.10
  -3   6   4   15.70    4.10
   2  -6  -4  112.29    6.40
  -2  -6   4  114.19    5.50
  -2  -6   4  110.49    7.10
   2  -6  -4  115.29    6.10
   2   6  -4  113.49    4.80
   2   6  -4  113.79    6.30
  -2   6   4  113.29    7.20
   1  -6  -4  469.75   10.80
  -1  -6   4  459.75    9.30
  -1  -6   4  445.26   12.70
   1  -6  -4  454.15   11.70
  -1   6   4  472.25   13.40
  -1   6   4  454.25    8.70
   1   6  -4  466.75   12.00
   1   6  -4  468.85    9.90
   0  -6   4  525.25    9.10
   0  -6   4  543.45   13.70
   0  -6  -4  530.65    9.50
   0  -6  -4  554.94   13.00
   0   6  -4  529.65   11.50
   0   6   4  549.35   14.10
   0   6   4  552.64   11.10
   0   6  -4  546.15   12.50
  -1  -6  -4    3.80    2.20
   1  -6   4    3.50    2.40
   1  -6   4    4.00    1.70
  -1   6  -4    1.10    1.70
  -1   6  -4    0.90    1.60
   1   6   4    2.80    2.10
   1   6   4    0.40    1.50
   2  -6   4  118.19    7.20
   2  -6   4  130.09    6.40
  -2  -6  -4  129.09    6.70
  -2  -6  -4  130.49    6.70
   2   6   4  131.89    7.70
  -2   6  -4  126.69    7.00
   3  -6   4   64.89    7.10
   3  -6   4   59.39    6.80
  -3  -6  -4   74.69    7.40
   3   6   4   64.29    7.60
  -3   6  -4   72.79    7.60
   4  -7  -4   25.80    5.60
   4   7  -4   17.50    5.00
  -4   7   4   20.90    5.40
   4   7  -4   21.80    4.70
   3  -7  -4  387.46   11.80
  -3  -7   4  391.56   14.10
   3  -7  -4  402.56   13.80
   3   7  -4  420.56   12.90
  -3   7   4  419.36   14.80
   2  -7  -4   12.60    3.00
  -2  -7   4   17.20    4.00
   2  -7  -4    7.80    2.80
   2   7  -4   11.70    3.00
  -2   7   4   15.40    4.00
   2   7  -4   15.40    2.50
   1  -7  -4  376.86   10.90
  -1  -7   4  372.26   11.70
   1  -7  -4  384.76    9.80
  -1   7   4  394.76   12.60
  -1   7   4  381.76    8.50
   1   7  -4  376.16   11.00
   1   7  -4  375.26    9.30
   0  -7   4   28.70    4.20
   0  -7  -4   37.70    4.60
   0   7  -4   39.30    4.50
   0   7   4   39.60    3.70
   0   7  -4   46.30    4.20
   0   7   4   53.59    5.90
   1  -7   4  468.75   13.50
  -1  -7  -4  485.15   12.70
   1   7   4  473.25   11.90
  -1   7  -4  461.95   12.40
  -1   7  -4  472.15   11.10
   1   7   4  463.45   13.70
  -2  -7  -4    9.70    3.00
   2  -7   4    8.70    3.40
  -2  -7  -4   22.70    4.00
  -2   7  -4   12.10    3.20
   2   7   4   15.80    3.90
   3  -7   4   40.60    6.00
  -3  -7  -4   47.40    6.30
  -3   7  -4   46.80    6.30
   3   7   4   43.50    6.60
  -3  -8   4  133.09    8.90
   3  -8  -4  142.59    8.80
   3   8  -4  140.49    8.10
  -3   8   4  135.49    9.10
  -2  -8   4  203.58    9.60
   2  -8  -4  193.78    8.40
   2  -8  -4  213.58    8.40
  -2   8   4  205.78    9.80
   2   8  -4  209.28    8.90
   2   8  -4  202.48    7.20
   1  -8  -4  322.67    9.00
  -1  -8   4  348.57   11.70
   1  -8  -4  348.07   10.70
  -1   8   4  359.36   12.40
  -1   8   4  332.97    8.30
   1   8  -4  343.67    9.40
   1   8  -4  334.77   10.70
   0  -8   4  166.88    8.10
   0  -8  -4  168.28    7.70
   0   8   4  185.18    8.40
   0   8  -4  184.68    7.00
   0   8  -4  180.68    7.40
   0   8   4  166.38    6.40
  -1  -8  -4   37.00    5.00
   1  -8   4   49.60    5.90
  -1   8  -4   38.20    4.20
  -1   8  -4   37.10    4.50
   1   8   4   34.50    4.90
   1   8   4   41.10    4.70
  -2  -8  -4   37.40    5.10
   2  -8   4   41.00    5.70
   2   8   4   43.10    5.40
   2   8   4   42.00    5.70
  -2   8  -4   39.50    5.20
  -3  -8  -4  160.18    9.50
   3  -8   4  151.78    9.50
  -3   8  -4  164.68    9.80
   3   8   4  166.98   10.10
   3  -9  -4    7.80    3.90
  -3  -9   4   -0.30    3.30
  -3   9   4    4.00    3.70
   3   9  -4    4.70    3.10
   2  -9  -4   82.99    6.00
   2  -9  -4   80.49    5.80
  -2  -9   4   89.59    8.50
  -2   9   4   91.89    7.20
   2   9  -4   83.59    7.60
   2   9  -4   81.69    5.30
  -1  -9   4    4.00    2.90
   1  -9  -4    7.60    2.90
   1  -9  -4    3.90    1.80
   1   9  -4    4.20    2.00
  -1   9   4    0.70    2.90
  -1   9   4    1.90    1.60
   1   9  -4    5.70    2.60
   0  -9   4   28.30    4.80
   0  -9  -4   20.40    3.60
   0   9  -4   26.20    3.80
   0   9  -4   24.90    4.00
   0   9   4   27.90    3.70
   0   9   4   16.10    3.70
  -1  -9  -4   27.20    4.30
   1  -9   4   37.60    5.70
  -1   9  -4   37.40    4.50
   1   9   4   50.99    6.40
  -1   9  -4   40.90    5.10
   1   9   4   34.10    4.30
  -2  -9  -4   42.20    5.60
   2  -9   4   40.60    5.90
   2   9   4   30.50    4.90
   2   9   4   36.20    5.90
  -2   9  -4   25.20    4.60
  -3  -9  -4    4.20    3.50
   3  -9   4    1.40    3.40
  -3   9  -4   -1.70    3.00
   3   9   4    1.60    3.10
   3 -10  -4   51.59    6.90
  -3 -10   4   50.79    7.10
   3  10  -4   62.89    7.50
  -3  10   4   70.39    8.30
  -2 -10   4   22.40    4.80
   2 -10  -4   35.70    4.80
   2 -10  -4   23.20    4.20
   2  10  -4   20.50    4.10
  -2  10   4   22.00    5.10
   2  10  -4   24.40    3.80
  -1 -10   4  418.06   13.60
   1 -10  -4  407.06   12.50
   1  10  -4  406.86   11.40
  -1  10   4  395.76   10.30
  -1  10   4  434.16   14.50
   1  10  -4  409.56   12.80
   0 -10   4  520.55   15.50
   0 -10  -4  534.95   14.70
   0  10  -4  539.95   14.20
   0  10  -4  526.75   13.60
   0  10   4  558.04   15.70
   0  10   4  544.15   13.00
   1 -10   4   80.69    8.00
  -1 -10  -4   76.69    7.20
  -1  10  -4   74.79    5.40
   1  10   4   84.79    6.60
  -1  10  -4   85.69    6.20
   1  10   4   65.89    6.20
  -2 -10  -4   73.99    7.30
   2 -10   4   78.09    8.10
  -2  10  -4   79.29    7.70
   2  10   4   89.19    7.30
   2  10   4   74.59    7.30
  -3 -10  -4  202.58   10.90
   3 -10   4  192.78   11.30
  -3 -10  -4  188.48   16.60
   3  10   4  172.48   10.70
  -3  10  -4  160.78   10.40
   3 -11  -4  155.08    9.80
  -3 -11   4  133.69    9.70
  -3  11   4  148.89   10.50
   3  11  -4  145.99    9.30
   2 -11  -4   14.70    3.60
   2 -11  -4   11.60    3.40
  -2 -11   4    7.50    3.90
   2  11  -4    8.50    3.50
  -2  11   4    5.70    4.10
   2  11  -4   14.50    3.20
   1 -11  -4    4.00    3.00
  -1 -11   4   -0.40    3.00
  -1  11   4    5.20    2.30
  -1  11   4    5.40    3.60
   1  11  -4    3.80    2.50
   1  11  -4    5.40    3.10
   0 -11  -4   25.90    4.70
   0 -11   4   22.30    4.70
   0  11  -4   23.20    4.30
   0  11   4   19.90    3.60
   0  11  -4   18.60    3.70
   0  11   4   29.30    5.20
  -1 -11  -4  308.97   11.80
   1 -11   4  308.97   12.70
   1  11   4  296.27   10.80
  -1  11  -4  285.17   11.00
  -1  11  -4  321.27   10.60
   1  11   4  310.67   12.00
   2 -11   4   41.10    6.60
  -2 -11  -4   29.40    5.40
   2  11   4   29.30    5.20
  -2  11  -4   26.00    4.90
   2  11   4   42.80    6.20
   2 -12  -4   -3.80    2.40
  -2 -12   4   -0.30    3.50
  -2  12   4   -2.10    3.50
   2  12  -4   -0.70    2.30
   2  12  -4    1.20    2.80
   1 -12  -4  177.48    9.10
  -1 -12   4  162.28    9.30
  -1  12   4  167.48    9.80
  -1  12   4  181.58    7.70
   1  12  -4  163.38    8.10
   1  12  -4  186.68    9.50
   0 -12  -4  359.26   12.70
   0 -12   4  372.86   13.60
   0  12   4  336.77   10.90
   0  12  -4  335.57   11.80
   0  12  -4  339.37   12.00
   0  12   4  321.27   12.40
  -1 -12  -4    2.80    3.30
   1 -12   4   -0.70    3.30
   1  12   4    0.80    2.50
  -1  12  -4    1.30    2.50
  -1  12  -4    5.40    3.10
   1  12   4    0.80    2.50
   2 -12   4   57.59    7.90
  -2 -12  -4   75.39    8.30
  -2  12  -4   65.59    7.40
   2  12   4   73.39    7.70
   2  12   4   75.29    8.20
   2 -13  -4  355.16   12.80
  -2 -13   4  353.96   14.00
   2  13  -4  351.86   12.40
  -2  13   4  378.26   15.40
   1 -13  -4   56.79    7.00
  -1 -13   4   45.40    7.10
  -1  13   4   52.39    7.20
   1  13  -4   32.90    5.50
  -1  13   4   43.50    5.20
   1  13  -4   42.50    5.50
   0 -13  -4  259.67   11.30
   0 -13   4  238.58   11.60
   0  13   4  247.38   11.10
   0  13  -4  240.18   10.60
   0  13  -4  237.48   10.60
   0  13   4  242.58    9.70
   1 -13   4   84.79    9.10
  -1 -13  -4   94.89    8.90
  -1  13  -4   89.29    8.20
   1  13   4   90.39    7.40
  -1  13  -4   90.89    7.90
   1  13   4   90.59    8.20
   2 -13   4  132.99   10.10
  -2 -13  -4  143.39    9.40
   2  13   4  133.59    9.20
   2  13   4  134.69    8.90
  -2  13  -4  131.49    9.20
   2 -14  -4    8.50    3.80
  -2 -14   4   13.30    5.00
   2  14  -4    7.60    3.50
  -2  14   4   11.80    5.60
   2  14  -4   12.30    4.20
   1 -14  -4   34.00    6.10
  -1 -14   4   31.80    6.10
   1  14  -4   39.30    5.70
  -1  14   4   30.50    5.50
  -1  14   4   38.70    6.40
   1  14  -4   29.00    5.50
   0 -14   4    6.20    4.20
   0 -14  -4    0.90    3.10
   0  14   4    5.30    3.40
   0  14  -4    3.20    3.40
   0  14   4    1.40    2.40
   0  14  -4    1.20    3.10
   1 -14   4   16.90    5.20
  -1 -14  -4   13.70    4.70
   1  14   4   19.40    4.60
  -1  14  -4   16.50    4.60
   1  14   4   19.20    4.60
   1 -15  -4   74.39    8.40
  -1 -15   4   66.59    8.60
   1  15  -4   56.79    7.80
  -1  15   4   66.39    8.10
   1  15  -4   74.79    7.90
   0 -15   4   28.40    6.30
   0 -15  -4   41.50    6.70
   0  15   4   45.40    6.60
   0  15  -4   37.70    5.80
   0  15   4   35.50    5.30
   0  15  -4   34.00    5.80
   4   0  -5   -1.40    3.40
  -4   0   5    0.60    3.50
   3   0  -5  705.23   19.10
  -3   0   5  792.92   19.40
   3   0  -5  729.73   17.00
   2   0  -5  882.01   19.30
   2   0  -5  834.82   17.80
  -2   0   5  857.71   19.00
  -1   0   5    7.70    2.90
   1   0  -5   12.10    2.60
   0   0   5  107.09    5.90
   0   0  -5  102.39    5.50
   0   0   5  108.09    5.40
   0   0  -5  110.59    4.10
  -1   0  -5   94.79    4.80
  -1   0  -5   99.79    5.30
   1   0   5   94.89    6.00
   1   0   5  104.69    5.20
   2   0   5  966.30   21.40
  -2   0  -5  961.40   17.50
   2   0   5  977.70   18.40
  -2   0  -5  980.20   19.90
  -3   0  -5    0.10    2.60
   3   0   5    1.40    3.10
   4  -1  -5   47.00    7.20
  -4  -1   5   54.99    7.60
  -4   1   5   52.79    7.80
   4   1  -5   51.49    7.10
   3  -1  -5   14.00    3.20
  -3  -1   5   13.20    3.70
   3  -1  -5   14.60    3.80
   3   1  -5   14.90    4.00
   3   1  -5   17.50    3.60
  -3   1   5   16.10    4.30
   2  -1  -5   16.20    3.20
  -2  -1   5   14.60    3.70
   2  -1  -5   16.90    3.40
  -2   1   5   12.50    3.40
   2   1  -5   13.30    3.30
   2   1  -5   12.90    3.20
  -1  -1   5   52.59    5.10
   1  -1  -5   51.29    5.30
   1  -1  -5   45.20    4.70
  -1  -1   5   59.69    5.70
   1   1  -5   41.60    4.50
  -1   1   5   64.19    6.30
   0  -1   5   76.59    5.10
   0  -1   5   77.99    4.90
   0  -1  -5   83.99    5.10
   0  -1  -5   81.79    3.40
   0   1   5   85.59    4.60
   0   1   5   68.29    5.10
   0   1  -5   80.89    3.60
   0   1  -5   80.19    4.90
  -1  -1  -5   14.30    2.60
   1  -1   5   10.80    2.80
   1  -1   5   13.10    2.70
  -1  -1  -5    7.10    2.30
   1   1   5    7.80    2.80
  -1   1  -5   12.30    2.80
   1   1   5   13.00    2.50
  -1   1  -5    9.90    2.30
   2  -1   5   11.20    3.40
  -2  -1  -5   19.50    3.20
   2  -1   5   18.40    3.40
  -2  -1  -5   16.70    3.40
   2   1   5   16.60    2.80
  -2   1  -5   11.30    3.10
   2   1   5   10.90    3.70
  -2   1  -5   12.70    2.80
   3  -1   5   12.90    4.70
  -3  -1  -5   18.80    4.20
   3  -1   5    9.20    3.30
   3   1   5   15.00    4.60
  -3   1  -5   15.30    4.00
   4  -2  -5   13.30    4.70
  -4  -2   5   30.80    6.00
   4   2  -5   21.50    5.20
  -4   2   5   26.80    6.00
  -3  -2   5   86.29    6.70
   3  -2  -5   85.69    5.90
   3  -2  -5   72.89    7.50
   3   2  -5   76.29    7.50
  -3   2   5   86.79    8.50
   3   2  -5   81.99    6.10
  -2  -2   5  343.37   11.00
   2  -2  -5  336.67   10.50
   2  -2  -5  342.77   11.40
  -2   2   5  352.86   11.90
   2   2  -5  316.57   10.40
   2   2  -5  329.87   11.60
   1  -2  -5   84.59    5.30
   1  -2  -5   80.89    5.10
  -1  -2   5   80.99    5.40
  -1  -2   5   75.09    5.40
   1   2  -5   81.59    5.20
  -1   2   5   81.49    6.20
   0  -2  -5   91.29    5.30
   0  -2   5   97.39    5.30
   0  -2   5  106.79    5.70
   0  -2  -5   85.59    3.60
   0   2   5   89.19    4.70
   0   2  -5   91.09    5.30
   0   2   5   90.39    5.90
   0   2  -5   94.29    4.00
   1  -2   5  808.22   16.90
  -1  -2  -5  863.21   16.00
   1  -2   5  836.22   17.20
  -1  -2  -5  835.22   16.80
  -1   2  -5  843.82   16.40
   1   2   5  864.91   18.90
  -1   2  -5  862.01   16.30
   1   2   5  830.02   14.70
   2  -2   5   10.10    3.30
   2  -2   5   11.90    2.90
  -2  -2  -5   10.50    2.80
  -2  -2  -5    9.90    2.60
   2   2   5    8.80    3.40
  -2   2  -5    5.30    2.60
   3  -2   5    1.00    2.70
   3  -2   5    5.20    3.60
  -3  -2  -5    3.90    3.10
  -3   2  -5    1.50    2.90
   3   2   5   -4.20    3.00
   4  -3  -5  126.79    9.80
  -4  -3   5  122.59    9.30
  -4   3   5  120.19   11.30
   3  -3  -5   26.90    4.40
   3  -3  -5   27.20    4.90
  -3  -3   5   30.70    5.10
   3   3  -5   29.10    4.40
  -3   3   5   33.30    5.80
   3   3  -5   23.10    4.80
   2  -3  -5   97.29    5.90
   2  -3  -5   83.19    5.90
  -2  -3   5   71.99    5.60
   2   3  -5   74.69    5.50
   2   3  -5   83.59    6.40
  -2   3   5   53.79    6.00
   1  -3  -5  562.24   13.40
   1  -3  -5  525.95   12.50
  -1  -3   5  516.45   13.70
  -1  -3   5  514.65   12.50
   1   3  -5  533.95    9.50
   1   3  -5  522.15   13.30
  -1   3   5  514.85   14.40
   0  -3  -5  215.98    8.10
   0  -3   5  211.88    8.20
   0  -3   5  220.58    7.40
   0  -3  -5  210.18    5.80
   0   3  -5  214.18    7.90
   0   3   5  219.38    8.80
   0   3  -5  226.28    6.40
   0   3   5  211.18    6.70
   1  -3   5    4.30    2.20
  -1  -3  -5    3.80    1.80
   1  -3   5    1.30    2.10
  -1  -3  -5    6.60    2.60
   1   3   5    4.20    1.70
   1   3   5    5.00    2.80
  -1   3  -5    1.30    1.80
  -1   3  -5    3.80    2.10
  -2  -3  -5   75.19    5.30
   2  -3   5   83.39    6.20
  -2  -3  -5   69.99    6.30
   2  -3   5   89.89    6.20
   2   3   5   74.29    7.60
  -2   3  -5   74.69    6.60
   3  -3   5  105.39    8.10
  -3  -3  -5   99.39    8.80
   3  -3   5   95.29    7.10
   3   3   5   96.09    9.50
  -3   3  -5  110.29    8.00
   4  -4  -5   -2.30    3.70
  -4  -4   5   -1.30    3.40
   4   4  -5    2.00    3.70
  -4   4   5    0.10    3.90
  -3  -4   5    4.70    3.00
   3  -4  -5    4.30    3.30
   3  -4  -5    4.30    2.60
   3   4  -5    3.00    3.00
   3   4  -5    2.30    2.50
  -3   4   5    1.80    3.30
  -2  -4   5    0.90    2.70
  -2  -4   5    5.40    2.70
   2  -4  -5    1.40    2.20
   2  -4  -5    1.90    2.00
  -2   4   5    2.50    2.90
   2   4  -5    4.30    2.40
  -1  -4   5  631.94   13.70
   1  -4  -5  658.13   14.20
   1  -4  -5  629.64   14.90
  -1  -4   5  666.23   16.20
   1   4  -5  638.64   11.00
   1   4  -5  676.43   15.40
  -1   4   5  653.13   16.70
   0  -4  -5  230.28    6.30
   0  -4  -5  243.18    8.80
   0  -4   5  243.98    9.10
   0  -4   5  232.78    7.40
   0   4   5  240.58    7.00
   0   4  -5  237.18    7.00
   0   4  -5  241.68    8.50
   0   4   5  263.57    9.80
   1  -4   5   63.99    5.90
  -1  -4  -5   67.09    4.30
  -1  -4  -5   60.59    5.60
   1  -4   5   57.69    4.40
   1   4   5   78.99    7.70
  -1   4  -5   54.79    4.90
  -1   4  -5   60.89    5.40
  -2  -4  -5   18.00    3.50
  -2  -4  -5   14.10    3.10
   2  -4   5   13.30    3.60
   2  -4   5   15.30    3.50
  -2   4  -5   14.70    3.60
   2   4   5   11.80    3.70
   3  -4   5    2.20    3.00
   3  -4   5    7.20    3.90
  -3  -4  -5    9.90    3.60
   3   4   5   10.60    4.20
  -3   4  -5    5.80    3.80
   3  -5  -5  233.28    9.20
  -3  -5   5  220.88    9.80
   3  -5  -5  222.98   10.70
   3   5  -5  227.68    9.80
  -3   5   5  203.48   11.00
   3   5  -5  219.18   11.00
  -2  -5   5   20.30    3.60
   2  -5  -5   21.30    3.80
   2  -5  -5   21.20    3.90
  -2  -5   5   19.70    4.30
   2   5  -5   16.20    3.50
  -2   5   5   17.40    4.20
   1  -5  -5  747.63   16.70
  -1  -5   5  750.72   14.80
  -1  -5   5  774.92   18.00
   1  -5  -5  742.23   15.20
   1   5  -5  754.22   16.70
  -1   5   5  740.43   18.50
   1   5  -5  754.32   13.00
   0  -5   5  954.50   19.90
   0  -5   5  951.80   16.40
   0  -5  -5  968.90   19.10
   0  -5  -5  949.90   15.80
   0   5   5  940.51   15.50
   0   5   5  949.40   20.50
   0   5  -5  920.61   16.50
   0   5  -5  938.41   18.60
  -1  -5  -5   34.20    4.00
   1  -5   5   31.90    4.60
  -1  -5  -5   36.90    4.70
   1  -5   5   33.60    3.70
  -1   5  -5   31.40    4.00
   1   5   5   36.10    5.50
  -1   5  -5   35.70    4.30
   2  -5   5  236.68   10.10
  -2  -5  -5  249.58    9.30
   2  -5   5  245.08    9.30
  -2  -5  -5  243.58    9.40
   2   5   5  235.58   11.10
  -2   5  -5  231.58    9.60
  -3  -5  -5  381.96   13.80
   3  -5   5  405.36   14.20
   3  -5   5  374.56   13.70
  -3   5  -5  367.86   13.90
   3   5   5  383.16   15.40
   3  -6  -5    1.90    3.00
   3  -6  -5    5.20    2.70
  -3  -6   5    0.30    3.40
  -3   6   5   -1.30    3.20
   3   6  -5    2.70    2.80
   2  -6  -5    4.70    2.70
   2  -6  -5    2.90    2.40
  -2  -6   5    5.80    3.40
   2   6  -5    2.30    2.30
  -2   6   5    5.10    3.30
  -1  -6   5 1087.69   22.50
   1  -6  -5 1113.99   21.60
   1  -6  -5 1090.29   19.70
  -1   6   5 1115.09   24.00
   1   6  -5 1107.79   17.90
   1   6  -5 1113.19   21.70
   0  -6  -5  529.65   13.90
   0  -6   5  522.65   14.50
   0   6  -5  529.75   13.40
   0   6   5  536.35   15.00
   0   6   5  543.95   11.40
   0   6  -5  568.24   12.30
   1  -6   5  217.58    9.50
  -1  -6  -5  214.88    7.80
  -1  -6  -5  202.58    8.70
  -1   6  -5  216.48    7.90
  -1   6  -5  223.78    8.40
   1   6   5  214.48    9.90
  -2  -6  -5    5.80    3.20
   2  -6   5    1.70    2.70
  -2  -6  -5    6.70    2.80
  -2   6  -5    7.30    3.00
   2   6   5    0.40    2.50
   3  -6   5   15.20    4.30
  -3  -6  -5    6.40    3.80
  -3   6  -5    7.60    3.90
   3   6   5   13.80    4.70
  -3  -7   5    2.90    3.90
   3  -7  -5    7.20    3.70
   3  -7  -5    2.10    2.50
  -3   7   5    8.50    4.20
   3   7  -5    6.60    3.10
  -2  -7   5   33.20    5.60
   2  -7  -5   29.20    4.50
   2  -7  -5   33.30    4.80
  -2   7   5   31.20    5.70
   2   7  -5   24.10    4.10
  -1  -7   5  226.68   10.00
   1  -7  -5  244.38    9.40
   1  -7  -5  249.97    8.20
   1   7  -5  260.67    7.70
   1   7  -5  248.48    9.60
  -1   7   5  250.07   11.20
   0  -7  -5  148.39    7.70
   0  -7   5  145.59    8.00
   0   7   5  143.39    5.90
   0   7  -5  155.68    7.40
   0   7   5  168.78    8.60
   0   7  -5  138.29    6.30
  -1  -7  -5    0.90    2.50
  -1  -7  -5   -1.40    1.50
   1  -7   5   -0.30    2.40
  -1   7  -5    1.00    2.10
  -1   7  -5    2.00    2.10
   1   7   5    0.00    2.20
  -2  -7  -5   41.20    5.50
   2  -7   5   29.80    5.30
  -2  -7  -5   47.40    5.80
   2   7   5   30.80    5.50
  -2   7  -5   29.30    4.90
   3  -7   5   23.50    5.20
  -3  -7  -5   22.80    5.10
  -3   7  -5   29.50    5.70
   3   7   5   21.20    5.30
   3  -8  -5  241.58   11.40
  -3  -8   5  246.08   12.50
   3  -8  -5  251.97   10.10
   3   8  -5  252.97   11.10
  -3   8   5  262.67   13.00
   2  -8  -5  426.06   12.90
  -2  -8   5  424.96   14.70
   2  -8  -5  429.96   13.10
   2   8  -5  434.26   13.70
  -2   8   5  409.76   15.00
   1  -8  -5   86.29    6.40
  -1  -8   5   95.69    7.20
  -1   8   5   95.59    7.80
   1   8  -5   86.49    6.30
   1   8  -5   91.39    5.20
   0  -8   5    6.30    3.10
   0  -8  -5    3.60    2.70
   0   8  -5    4.00    2.30
   0   8  -5    1.00    2.30
   0   8   5   -0.20    2.30
   0   8   5    3.50    1.90
   1  -8   5  296.27   11.80
  -1  -8  -5  315.07   11.40
   1   8   5  308.97   10.30
   1   8   5  315.47   12.40
  -1   8  -5  311.97   10.80
  -1   8  -5  317.57   10.10
   2  -8   5  117.49    8.30
  -2  -8  -5  124.09    7.50
  -2  -8  -5  103.29    7.40
  -2   8  -5  112.39    7.70
   2   8   5  111.59    8.30
   3  -8   5    8.70    4.20
  -3  -8  -5   -3.00    2.80
  -3   8  -5    4.40    3.80
   3   8   5    6.40    3.90
   3  -9  -5   45.70    6.40
  -3  -9   5   53.19    8.10
  -3   9   5   51.39    7.50
   3   9  -5   51.89    6.90
   2  -9  -5   16.20    4.10
  -2  -9   5   16.30    4.60
   2  -9  -5   13.10    3.50
   2   9  -5   13.40    3.60
  -2   9   5   13.80    5.00
  -1  -9   5    5.40    3.50
   1  -9  -5    6.00    3.10
   1   9  -5    3.50    2.30
   1   9  -5    4.00    2.80
  -1   9   5    5.40    3.60
   0  -9  -5    8.40    3.40
   0  -9   5    6.70    3.40
   0   9   5    7.10    2.40
   0   9  -5    8.80    3.00
   0   9  -5    9.30    2.80
   0   9   5    9.40    3.40
   1  -9   5   28.60    5.30
  -1  -9  -5   45.80    6.00
   1   9   5   35.20    5.80
  -1   9  -5   32.10    4.80
  -1   9  -5   36.00    4.70
   1   9   5   43.40    5.40
  -2  -9  -5    6.20    3.70
  -2  -9  -5    6.40    3.50
   2  -9   5    6.10    3.80
   2   9   5    6.40    3.50
  -2   9  -5    2.80    3.30
   3 -10  -5  309.97   13.20
  -3 -10   5  313.27   14.20
  -3  10   5  307.07   14.90
   3  10  -5  352.06   13.70
   2 -10  -5  400.56   13.20
   2 -10  -5  401.56   14.20
  -2 -10   5  407.16   14.90
   2  10  -5  402.86   13.90
  -2  10   5  396.26   15.70
  -1 -10   5   27.20    5.40
   1 -10  -5   38.00    5.60
  -1  10   5   27.90    5.60
   1  10  -5   30.90    5.40
   1  10  -5   26.90    3.90
   0 -10   5  117.39    8.50
   0 -10  -5  115.19    7.80
   0  10   5  139.79    8.60
   0  10  -5  104.59    7.10
   0  10  -5  132.39    7.00
   0  10   5  122.29    6.50
  -1 -10  -5  163.48    9.20
   1 -10   5  169.48    9.90
  -1  10  -5  176.48    8.20
  -1  10  -5  185.58    9.00
   1  10   5  167.98    9.70
   1  10   5  181.48    8.50
   2 -10   5  372.56   14.90
  -2 -10  -5  343.07   13.10
  -2 -10  -5  385.66   13.40
   2  10   5  340.47   14.40
  -2  10  -5  329.67   13.10
  -2 -11   5   83.09    9.20
   2 -11  -5   82.59    7.80
   2  11  -5   87.59    8.80
  -2  11   5  100.99   10.50
  -1 -11   5   59.29    7.60
   1 -11  -5   70.19    7.50
   1  11  -5   59.79    6.90
   1  11  -5   63.59    6.10
  -1  11   5   60.49    7.60
   0 -11  -5   31.30    5.40
   0 -11   5   25.90    5.60
   0  11   5   29.80    4.40
   0  11  -5   35.80    5.00
   0  11  -5   29.40    5.00
   0  11   5   30.50    5.50
  -1 -11  -5   23.40    5.40
   1 -11   5   11.80    4.60
  -1  11  -5   11.70    3.60
   1  11   5   22.10    5.00
  -1  11  -5   13.50    3.70
   1  11   5   14.00    3.80
   2 -11   5   17.30    5.40
  -2 -11  -5   18.60    5.00
   2  11   5   10.90    3.80
  -2  11  -5   17.60    4.90
   2  11   5   24.40    5.70
  -2 -12   5   87.69    9.40
   2 -12  -5  102.09    8.90
   2  12  -5   90.49    9.00
  -2  12   5   83.79    9.80
  -1 -12   5  147.49    9.70
   1 -12  -5  155.58    9.30
  -1  12   5  138.39    9.50
   1  12  -5  142.09    9.00
   1  12  -5  145.99    8.00
   0 -12   5   56.79    7.50
   0 -12  -5   60.19    7.10
   0  12  -5   51.19    6.00
   0  12   5   55.89    6.00
   0  12  -5   54.39    6.70
   0  12   5   74.19    8.50
  -1 -12  -5  366.76   14.10
   1 -12   5  409.76   15.90
   1  12   5  347.67   12.60
   1  12   5  374.76   14.60
  -1  12  -5  386.16   13.70
  -1  12  -5  368.26   12.60
  -1 -13   5  254.17   12.60
   1 -13  -5  252.87   11.90
   1  13  -5  261.27   10.80
   1  13  -5  249.97   11.80
  -1  13   5  249.97   12.50
   0 -13   5  141.09   10.10
   0 -13  -5  136.99    9.20
   0  13  -5  113.39    8.10
   0  13   5  153.78    8.50
   0  13  -5  136.89    8.90
   0  13   5  150.08    9.60
   1 -13   5    0.30    3.80
  -1 -13  -5    2.10    3.80
  -1  13  -5    3.80    3.60
  -1  13  -5    5.70    3.70
   1  13   5    8.30    4.00
   1  13   5    7.70    3.50
   1 -14  -5   21.30    5.60
  -1 -14   5   22.40    6.00
  -1  14   5   24.50    5.80
   1  14  -5   17.50    4.90
   1  14  -5   19.60    4.70
   0 -14   5    2.20    4.40
   0  14  -5    5.50    3.60
   0  14  -5    2.90    3.70
   0  14   5    2.90    3.30
   0  14   5    1.10    3.40
   3   0  -6  110.79    8.60
  -3   0   6  116.39    8.60
   3   0  -6  113.09    7.60
  -2   0   6  287.47   11.40
   2   0  -6  258.97   10.90
   2   0  -6  268.47   10.30
   1   0  -6  701.43   16.50
  -1   0   6  695.33   17.60
  -1   0   6  685.33   16.60
   0   0  -6  163.68    5.40
   0   0   6  174.38    7.50
   0   0   6  174.78    8.20
   0   0  -6  160.58    7.70
  -1   0  -6   15.40    3.50
   1   0   6   12.70    3.00
  -1   0  -6    6.30    2.30
   1   0   6    8.80    3.20
   2   0   6   32.00    5.50
  -2   0  -6   27.60    4.40
  -3   0  -6  314.57   12.80
   3   0   6  278.37   13.30
  -3  -1   6   10.20    4.30
   3  -1  -6   11.60    4.40
   3  -1  -6   11.70    3.60
   3   1  -6   10.50    3.50
   3   1  -6   13.40    4.30
  -3   1   6   10.00    4.50
  -2  -1   6  191.48    9.50
   2  -1  -6  196.48    8.90
   2  -1  -6  209.68    9.80
   2   1  -6  197.48    9.80
   2   1  -6  192.18    9.00
  -2   1   6  213.68   10.10
   1  -1  -6    3.20    2.20
  -1  -1   6    7.70    3.00
  -1  -1   6    3.80    3.30
   1   1  -6    4.10    2.50
  -1   1   6    4.10    2.50
  -1   1   6    4.20    3.30
   0  -1  -6  106.29    6.50
   0  -1  -6  124.09    4.90
   0  -1   6  120.99    6.60
   0  -1   6  116.39    6.70
   0   1  -6  118.19    6.60
   0   1   6  129.99    6.40
   0   1   6  128.39    7.50
   0   1  -6  119.69    4.80
   1  -1   6   25.20    4.00
  -1  -1  -6   22.90    4.00
  -1  -1  -6   13.20    2.70
   1  -1   6   24.70    4.40
   1   1   6   20.00    4.20
  -1   1  -6   18.50    3.20
  -1   1  -6   20.40    3.70
   1   1   6   17.30    3.10
  -2  -1  -6    1.30    2.50
   2  -1   6    2.70    2.70
   2  -1   6    0.30    2.20
  -2  -1  -6    1.70    2.40
  -2   1  -6   -0.10    2.50
   2   1   6   -0.40    3.00
   3  -1   6   48.20    7.60
  -3  -1  -6   41.80    6.30
  -3   1  -6   33.80    6.00
   3   1   6   43.80    6.70
  -3  -2   6   13.30    4.50
   3  -2  -6   15.20    3.70
   3  -2  -6    8.70    3.80
  -3   2   6   12.40    4.60
   3   2  -6   10.90    4.20
   3   2  -6   13.20    3.80
   2  -2  -6   22.20    4.00
  -2  -2   6   22.30    4.70
   2  -2  -6   19.00    4.00
  -2  -2   6   23.70    4.80
   2   2  -6   21.20    4.10
  -2   2   6   23.00    4.90
  -1  -2   6  342.17   11.40
   1  -2  -6  301.07   10.60
  -1  -2   6  311.07   11.20
  -1   2   6  327.17   10.60
  -1   2   6  329.37   12.50
   1   2  -6  312.67   10.90
   0  -2  -6  238.58    9.30
   0  -2  -6  264.97   10.10
   0  -2   6  259.47    9.20
   0  -2   6  253.97    9.60
   0   2   6  245.78   10.30
   0   2   6  260.37    8.50
   0   2  -6  248.18    7.10
   0   2  -6  250.67    9.40
  -1  -2  -6   -0.50    1.50
   1  -2   6    3.30    2.50
  -1  -2  -6   -1.70    2.10
   1  -2   6    0.50    2.40
   1   2   6   -2.00    2.70
  -1   2  -6    1.80    2.00
   1   2   6   -0.40    2.30
  -1   2  -6    0.80    2.10
  -2  -2  -6  165.08    8.30
   2  -2   6  153.68    8.90
   2  -2   6  171.28    8.30
  -2  -2  -6  175.78    7.90
  -2   2  -6  168.68    8.50
   2   2   6  172.58    9.80
   3  -2   6   39.90    6.90
  -3  -2  -6   42.60    6.30
   3   2   6   42.10    7.30
  -3   2  -6   43.60    6.90
   3  -3  -6  154.08    9.70
   3  -3  -6  156.58    8.50
  -3  -3   6  159.48    9.40
  -3   3   6  149.99   10.00
   3   3  -6  153.98   10.20
   3   3  -6  162.38    8.80
   2  -3  -6  179.08    8.80
   2  -3  -6  181.58    8.70
  -2  -3   6  170.48    8.70
  -2  -3   6  183.58    9.40
   2   3  -6  170.78    8.60
  -2   3   6  164.08    9.70
  -1  -3   6   13.80    3.60
   1  -3  -6   21.60    3.70
  -1  -3   6   31.80    4.70
   1  -3  -6   28.20    4.50
  -1   3   6   22.20    5.00
   1   3  -6   23.80    4.10
   0  -3   6  361.36   11.60
   0  -3   6  357.46   10.60
   0  -3  -6  353.86   11.30
   0   3  -6  345.87    8.80
   0   3   6  354.56    9.70
   0   3   6  337.17   12.20
   0   3  -6  345.97   11.30
   1  -3   6   76.69    6.20
   1  -3   6   69.09    5.60
  -1  -3  -6   86.69    6.10
  -1  -3  -6   77.19    4.90
  -1   3  -6   75.39    5.10
   1   3   6   91.09    8.50
  -1   3  -6   65.39    5.90
  -2  -3  -6  131.89    7.10
  -2  -3  -6  129.79    7.40
   2  -3   6  121.39    7.60
   2  -3   6  120.69    7.90
  -2   3  -6  119.49    7.50
   2   3   6  111.29    8.50
  -3  -3  -6    2.60    3.50
   3  -3   6   16.30    4.20
   3  -3   6    6.90    4.10
   3   3   6   14.70    5.10
  -3   3  -6    6.00    4.00
  -3  -4   6   15.90    4.60
   3  -4  -6   24.20    4.70
   3  -4  -6   16.10    4.40
   3   4  -6   21.90    5.00
  -3   4   6   16.20    5.20
   3   4  -6   15.10    4.00
   2  -4  -6   10.90    3.30
   2  -4  -6    9.80    3.20
  -2  -4   6    7.60    3.60
  -2  -4   6    4.00    3.10
  -2   4   6   11.60    4.30
   2   4  -6   14.10    3.80
   1  -4  -6   19.00    3.40
  -1  -4   6   14.20    4.00
   1  -4  -6   11.40    3.10
  -1  -4   6   14.00    3.40
  -1   4   6   20.10    5.10
   1   4  -6   18.10    3.80
   0  -4  -6  220.88    9.30
   0  -4   6  218.78    8.10
   0  -4   6  233.58    9.70
   0   4   6  232.88    7.50
   0   4  -6  245.68    9.40
   0   4  -6  219.78    7.20
   0   4   6  215.98   10.10
  -1  -4  -6   -2.40    2.10
   1  -4   6    0.60    2.20
  -1  -4  -6    0.70    1.90
   1  -4   6    2.30    2.80
  -1   4  -6   -0.60    1.90
   1   4   6    0.20    2.70
  -1   4  -6    2.60    2.30
   2  -4   6   20.60    4.10
  -2  -4  -6   15.90    3.70
  -2  -4  -6   23.90    4.50
   2  -4   6   18.80    4.20
  -2   4  -6   14.20    3.80
   2   4   6   21.00    5.40
   3  -4   6   24.10    5.60
  -3  -4  -6   21.50    4.80
   3  -4   6   27.50    5.10
   3   4   6   20.60    5.80
  -3   4  -6   26.90    5.60
   3  -5  -6  513.15   16.50
  -3  -5   6  449.66   16.80
   3  -5  -6  489.65   14.70
   3   5  -6  485.65   15.40
  -3   5   6  475.35   17.30
   2  -5  -6  274.27   10.80
   2  -5  -6  331.57   11.70
  -2  -5   6  285.37   12.30
  -2   5   6  297.17   13.00
   2   5  -6  296.57   11.40
  -1  -5   6   12.70    3.50
   1  -5  -6   18.40    3.80
   1  -5  -6   17.10    3.40
  -1   5   6   14.40    4.40
   1   5  -6    8.30    3.20
   0  -5   6   21.30    4.40
   0  -5  -6   26.40    4.70
   0   5   6   17.00    4.50
   0   5  -6   24.80    3.30
   0   5  -6   18.40    3.80
  -1  -5  -6 1511.65   25.50
   1  -5   6 1497.05   28.80
  -1  -5  -6 1541.75   27.90
   1   5   6 1478.65   30.20
  -1   5  -6 1540.25   26.60
  -1   5  -6 1563.54   26.70
   2  -5   6  152.88    9.00
  -2  -5  -6  136.29    7.90
  -2  -5  -6  152.58    8.00
   2   5   6  142.59    9.70
  -2   5  -6  141.09    8.30
   3  -5   6   16.20    5.10
  -3  -5  -6   13.20    4.30
   3   5   6    3.50    4.10
  -3   5  -6   10.90    4.40
  -3  -6   6   11.80    5.10
   3  -6  -6   10.70    3.90
   3  -6  -6    9.10    3.60
   3   6  -6   10.80    3.80
  -3   6   6   15.20    5.40
   2  -6  -6   12.50    3.50
   2  -6  -6   11.70    3.50
  -2  -6   6   13.60    4.40
  -2   6   6    6.60    4.20
   2   6  -6   13.40    3.80
  -1  -6   6   66.59    7.30
   1  -6  -6   60.69    6.40
   1  -6  -6   60.49    5.60
  -1   6   6   69.39    8.40
   1   6  -6   63.89    7.10
   0  -6  -6  424.06   13.30
   0  -6   6  439.76   14.00
   0   6  -6  421.26   12.80
   0   6  -6  443.36   11.20
   0   6   6  396.76   14.20
   1  -6   6   10.10    3.70
  -1  -6  -6    9.10    2.60
  -1  -6  -6    5.60    3.00
   1   6   6    4.90    3.30
  -1   6  -6    4.40    2.90
  -1   6  -6    8.60    2.90
  -2  -6  -6   54.59    6.30
  -2  -6  -6   49.20    5.70
   2  -6   6   43.60    6.40
  -2   6  -6   47.10    6.00
   2   6   6   51.89    7.40
   3  -7  -6   27.30    4.90
  -3  -7   6   25.00    6.20
   3  -7  -6   24.70    5.20
  -3   7   6   30.90    6.80
   3   7  -6   26.50    5.30
   2  -7  -6  205.98    9.50
  -2  -7   6  208.18   11.10
   2  -7  -6  221.28    9.80
   2   7  -6  198.28    9.80
  -2   7   6  195.28   11.50
  -1  -7   6   34.20    5.60
   1  -7  -6   39.80    5.70
   1   7  -6   42.70    5.80
  -1   7   6   49.30    7.30
   0  -7  -6  610.74   16.50
   0  -7   6  631.84   17.50
   0   7   6  620.44   18.10
   0   7  -6  611.64   16.10
   0   7  -6  627.54   14.30
   1  -7   6    1.80    2.90
  -1  -7  -6   -0.90    2.80
  -1  -7  -6    1.40    1.80
  -1   7  -6    3.20    2.90
   1   7   6    2.40    3.00
  -1   7  -6    3.00    2.70
   2  -7   6   43.10    6.40
  -2  -7  -6   52.09    6.60
  -2  -7  -6   52.49    6.00
   2   7   6   38.30    6.50
  -2   7  -6   43.30    6.20
   3  -8  -6   11.30    3.90
   3  -8  -6    8.70    4.10
  -3  -8   6    4.80    4.70
  -3   8   6   10.30    4.90
   3   8  -6   10.10    4.20
   2  -8  -6  164.08    8.60
  -2  -8   6  169.38   10.20
   2  -8  -6  175.68    9.10
   2   8  -6  169.08    9.30
  -2   8   6  159.38   10.90
  -1  -8   6  210.78   10.70
   1  -8  -6  227.78   10.30
  -1   8   6  219.48   11.40
   1   8  -6  208.98    9.90
   0  -8  -6   53.89    6.50
   0  -8   6   39.10    5.70
   0   8  -6   54.99    5.30
   0   8  -6   54.59    6.20
   0   8   6   49.30    6.70
  -1  -8  -6    6.50    3.80
  -1  -8  -6   15.40    3.30
   1  -8   6   13.80    4.10
   1   8   6   14.40    4.40
  -1   8  -6    8.20    3.20
  -1   8  -6    9.40    3.10
   2  -8   6  121.99    9.10
  -2  -8  -6  117.89    7.80
  -2  -8  -6  108.59    8.30
   2   8   6  101.59   10.50
  -2   8  -6  115.09    8.20
  -2  -9   6   53.69    8.00
   2  -9  -6   45.30    6.20
   2   9  -6   44.60    6.50
  -2   9   6   25.90    6.50
   1  -9  -6    4.80    3.20
  -1  -9   6    2.10    3.40
  -1   9   6    3.20    3.60
   1   9  -6    1.70    2.90
   0  -9  -6    6.10    3.50
   0  -9   6   12.00    4.00
   0   9   6   15.30    4.50
   0   9  -6   10.40    3.40
   0   9  -6   11.90    3.20
  -1  -9  -6   40.60    5.00
   1  -9   6   43.30    6.60
  -1  -9  -6   41.40    6.50
   1   9   6   36.40    6.00
  -1   9  -6   37.80    5.40
  -1   9  -6   40.70    5.20
  -2  -9  -6    1.30    2.80
  -2  -9  -6    5.10    3.90
   2  -9   6    1.40    3.50
   2   9   6    5.40    4.10
  -2   9  -6    2.70    3.50
  -2 -10   6   51.29    7.90
   2 -10  -6   64.49    7.50
   2  10  -6   67.69    8.30
  -2  10   6   58.69    8.90
   1 -10  -6  536.45   16.40
  -1 -10   6  534.15   17.50
  -1  10   6  549.15   18.40
   1  10  -6  545.45   16.70
   0 -10  -6  140.19    9.30
   0 -10   6  134.89    9.80
   0  10   6  147.99    9.70
   0  10  -6  139.99    7.50
   0  10  -6  138.79    8.50
   1 -10   6    2.70    4.00
  -1 -10  -6    2.90    2.50
  -1 -10  -6    2.60    3.70
  -1  10  -6   -0.40    2.70
  -1  10  -6   -0.80    2.60
   1  10   6    4.80    3.60
  -2 -11   6  159.08   10.80
   2 -11  -6  147.69    9.50
  -2  11   6  149.29   12.20
   1 -11  -6   -0.80    3.20
  -1 -11   6    3.60    3.90
  -1  11   6   -3.30    3.10
   1  11  -6    5.30    3.80
   0 -11   6   95.89    9.90
   0 -11  -6  100.29    9.60
   0  11  -6   89.79    7.60
   0  11  -6   91.69    8.50
   0  11   6   84.99    8.90
  -1 -11  -6   11.60    4.90
   1 -11   6   20.70    5.70
   1  11   6   22.00    5.20
  -1  11  -6   17.20    4.40
  -1  11  -6   25.60    5.10
   1  11   6   14.30    4.00
  -1 -12   6   56.69    8.10
   1 -12  -6   62.09    7.90
  -1  12   6   66.09    8.90
   1  12  -6   55.69    7.60
   0 -12   6  180.58   11.60
   0 -12  -6  192.08   11.00
   0  12  -6  176.08    9.40
   0  12   6  177.18   11.00
   0  12  -6  174.98   10.10
   3   0  -7  439.56   16.90
   3   0  -7  447.86   15.10
  -3   0   7  411.56   16.20
  -2   0   7  234.18   11.40
   2   0  -7  217.68   10.20
  -2   0   7  206.18   11.30
  -1   0   7   43.20    5.80
   1   0  -7   32.10    5.00
  -1   0   7   42.50    6.20
   0   0   7  274.57   10.30
   0   0  -7  277.57   10.80
   0   0   7  265.07   10.90
  -1   0  -7  371.76   11.10
   1   0   7  380.16   13.50
  -1   0  -7  358.56   12.10
   1   0   7  401.16   12.10
   2   0   7   31.40    6.00
  -2   0  -7   35.00    5.20
   3  -1  -7   11.30    4.10
  -3  -1   7   17.60    5.70
   3  -1  -7   18.70    5.20
  -3   1   7   25.90    6.40
   3   1  -7   12.40    5.20
   3   1  -7   21.40    5.10
  -2  -1   7    0.10    4.20
  -2  -1   7    5.80    3.50
   2  -1  -7    0.10    3.20
   2  -1  -7   -1.00    2.30
   2   1  -7    1.40    2.70
  -2   1   7    1.60    4.00
  -1  -1   7  226.38   10.20
   1  -1  -7  210.48    9.80
  -1  -1   7  233.78   10.60
   1   1  -7  220.28   10.10
  -1   1   7  230.18    9.90
  -1   1   7  222.28   10.80
   0  -1  -7   26.00    4.90
   0  -1   7   19.80    4.40
   0  -1   7   17.10    3.90
   0   1   7   22.50    3.90
   0   1   7   15.40    4.20
   0   1  -7   15.10    4.00
   1  -1   7   28.00    5.10
  -1  -1  -7   21.50    3.70
   1  -1   7   35.40    4.90
  -1  -1  -7   25.80    4.60
   1   1   7   27.90    5.30
  -1   1  -7   30.00    5.20
  -1   1  -7   22.00    3.80
  -2  -1  -7    2.90    2.70
   2  -1   7    1.60    3.70
   2   1   7   -1.90    3.50
  -2   1  -7    2.30    2.80
  -3  -2   7  108.59   10.30
   3  -2  -7  138.59    9.90
   3  -2  -7  126.09    8.60
   3   2  -7  130.49   10.30
   3   2  -7  127.69    9.00
  -3   2   7  126.09   10.10
  -2  -2   7  127.59    9.10
   2  -2  -7  150.28    8.60
  -2  -2   7  154.98    9.50
   2  -2  -7  132.29    8.80
   2   2  -7  134.39    8.40
  -2   2   7  139.69   10.20
  -1  -2   7    0.10    3.00
  -1  -2   7    2.10    3.00
   1  -2  -7   -0.90    2.30
   1   2  -7    0.30    2.50
  -1   2   7    3.50    3.70
  -1   2   7    3.50    2.80
   0  -2  -7   58.29    7.00
   0  -2   7   71.09    7.00
   0  -2   7   61.19    6.30
   0   2  -7   65.99    6.80
   0   2   7   72.89    5.60
   0   2   7   76.19    8.00
   1  -2   7  181.38    9.20
  -1  -2  -7  180.18    8.90
  -1  -2  -7  181.58    7.60
   1  -2   7  176.18    8.80
   1   2   7  164.68    9.60
  -1   2  -7  168.08    8.50
  -1   2  -7  190.48    8.00
   2  -2   7   16.00    7.50
   2  -2   7   25.50    5.20
  -2  -2  -7   21.10    4.20
   2   2   7   17.50    5.10
  -2   2  -7   23.30    4.60
  -3  -3   7   -3.40    4.00
   3  -3  -7    0.30    3.00
   3  -3  -7    0.10    3.60
  -3  -3   7    0.50    3.80
  -3   3   7   -1.00    4.00
   3   3  -7    1.50    3.10
  -2  -3   7   82.39    8.50
   2  -3  -7   72.69    7.70
   2  -3  -7   74.99    7.80
  -2  -3   7  102.29    9.80
   2   3  -7   82.39    8.10
  -2   3   7   75.59    9.00
  -1  -3   7  252.37   10.20
   1  -3  -7  237.58   10.40
  -1  -3   7  245.18   10.80
  -1   3   7  248.98   11.90
   1   3  -7  222.68   10.40
  -1   3   7  222.18    9.70
   0  -3   7  134.49    8.00
   0  -3  -7  125.89    7.90
   0  -3   7  121.89    7.40
   0   3   7  102.59    7.90
   0   3  -7  120.99    7.70
  -1  -3  -7   27.40    4.90
  -1  -3  -7   28.60    4.00
   1  -3   7   39.40    5.50
   1  -3   7   28.70    4.80
  -1   3  -7   28.70    4.70
  -1   3  -7   30.50    4.40
   1   3   7   29.00    5.60
   2  -3   7   27.50    5.20
   2  -3   7   26.60    5.80
  -2  -3  -7   26.30    5.30
  -2  -3  -7   30.90    5.20
  -2   3  -7   26.30    4.80
   2   3   7   27.20    6.10
   3  -4  -7   15.10    5.10
  -3  -4   7   15.00    5.00
   3  -4  -7   16.00    4.40
   3   4  -7   18.20    4.90
  -3   4   7   20.40    6.50
   2  -4  -7  114.79    8.40
   2  -4  -7  108.19    7.70
  -2  -4   7  125.79    9.10
  -2   4   7  122.79   11.70
   2   4  -7  105.49    9.80
  -1  -4   7    5.80    3.50
   1  -4  -7   10.00    3.40
  -1   4   7    9.40    4.40
   1   4  -7    7.30    3.50
  -1   4   7   12.70    3.40
   0  -4   7    6.80    3.50
   0  -4  -7   11.60    3.90
   0   4  -7   11.50    3.70
   0   4   7   12.10    4.40
  -1  -4  -7    1.30    2.40
  -1  -4  -7    1.30    2.90
   1  -4   7    2.00    3.20
  -1   4  -7    1.20    2.60
   1   4   7    3.10    3.40
  -1   4  -7   -2.10    2.20
  -2  -4  -7  157.18    8.70
  -2  -4  -7  153.88    8.60
   2  -4   7  155.28    9.40
  -2   4  -7  142.29    8.70
   2   4   7  122.09    9.70
   2  -5  -7  121.29    8.30
   2  -5  -7  109.59    7.90
  -2  -5   7  113.89    9.00
  -2   5   7  113.49   11.40
   2   5  -7  110.99    8.20
  -1  -5   7  173.88    9.80
   1  -5  -7  171.08    9.10
  -1   5   7  169.68   10.50
   1   5  -7  157.98    9.20
   0  -5  -7  233.48   10.50
   0  -5   7  232.68   10.70
   0   5  -7  232.28   10.40
   0   5   7  223.08   11.30
   1  -5   7  175.18    9.70
  -1  -5  -7  176.98    9.60
  -1   5  -7  178.18    8.20
   1   5   7  160.98   10.10
  -1   5  -7  172.18    8.80
  -2  -5  -7  373.66   13.30
   2  -5   7  379.16   14.30
  -2  -5  -7  381.86   13.20
   2   5   7  368.86   15.90
  -2   5  -7  368.06   13.30
   2  -6  -7  183.78    9.90
  -2  -6   7  209.78   11.60
   2  -6  -7  211.18   10.40
   2   6  -7  210.68   10.90
  -2   6   7  206.88   12.80
  -1  -6   7    0.40    3.20
   1  -6  -7    2.80    2.80
  -1   6   7    3.00    4.00
   1   6  -7    3.50    3.10
   0  -6  -7   33.20    6.00
   0  -6   7   35.40    5.80
   0   6  -7   31.60    5.40
   0   6   7   39.20    6.60
  -1  -6  -7   -2.60    3.00
   1  -6   7    4.70    3.70
  -1   6  -7    5.60    3.10
  -1   6  -7    0.20    2.50
   1   6   7    8.80    4.10
  -2  -6  -7  238.98   11.40
  -2  -6  -7  232.18   10.60
   2  -6   7  221.98   11.80
  -2   6  -7  222.88   11.00
   2   6   7  212.28   12.50
  -2  -7   7   20.80    5.50
   2  -7  -7   22.30    4.90
  -2   7   7   11.10    5.70
   1  -7  -7  371.06   13.60
  -1  -7   7  363.16   14.30
  -1   7   7  361.86   15.20
   1   7  -7  350.66   13.50
   0  -7  -7   50.49    7.10
   0  -7   7   73.49    8.20
   0   7  -7   47.40    6.10
   0   7   7   69.79    8.70
  -1  -7  -7  131.29    9.00
   1  -7   7  120.29    9.00
  -1   7  -7  135.89    8.00
  -1   7  -7  141.39    8.20
   1   7   7  116.99    9.20
  -2  -8   7   23.50    6.20
   2  -8  -7   30.70    5.50
  -2   8   7   23.50    7.00
   2   8  -7   20.60    4.80
   1  -8  -7    0.90    3.10
  -1  -8   7   -2.10    3.20
   1   8  -7   -1.30    3.00
  -1   8   7    0.50    3.90
   0  -8  -7   50.99    7.20
   0  -8   7   44.50    7.10
   0   8   7   50.89    7.90
   0   8  -7   51.19    6.80
   1  -8   7  288.87   13.40
  -1  -8  -7  280.17   12.60
   1   8   7  228.68   12.60
  -1   8  -7  298.57   11.50
  -1   8  -7  277.57   11.30
   1  -9  -7    6.10    3.90
  -1  -9   7    8.90    4.40
  -1   9   7    3.40    3.80
   1   9  -7    7.60    3.90
   0  -9   7   19.80    5.60
   0  -9  -7   22.70    5.50
   0   9  -7   26.40    5.20
   0   9   7   38.70    6.90
  -1  -9  -7    5.90    4.30
   1  -9   7    4.10    4.10
   1   9   7   13.00    4.60
  -1   9  -7    6.20    3.80
  -1   9  -7   11.70    3.80
  -1 -10   7   32.50    6.70
   1 -10  -7   39.00    6.60
  -1  10   7   23.30    6.10
   1  10  -7   30.90    5.80
   0 -10   7  251.97   13.00
   0 -10  -7  223.48   12.00
   0  10  -7  251.57   11.80
   0  10   7  261.07   13.30
  -2   0   8   96.79   10.50
  -2   0   8  115.29   11.00
   2   0  -8  122.59    8.90
  -1   0   8  255.07   12.20
  -1   0   8  267.27   11.90
   1   0  -8  270.17   12.10
   0   0  -8  367.96   13.70
   0   0   8  378.46   14.10
   0   0   8  377.16   12.90
   1   0   8   25.80    5.60
  -1   0  -8   23.60    4.90
  -2  -1   8   75.09    9.10
  -2  -1   8   73.39    9.40
   2  -1  -8   72.99    7.90
   2   1  -8   63.69    7.60
  -2   1   8   80.19    9.90
  -2   1   8   77.19    8.80
   1  -1  -8    0.80    3.60
  -1  -1   8    1.30    3.60
  -1  -1   8   -1.60    3.10
  -1   1   8    0.80    3.30
  -1   1   8    0.50    3.90
   1   1  -8   -0.50    3.00
   0  -1   8   16.50    4.40
   0  -1   8   20.10    4.80
   0  -1  -8   23.50    5.00
   0   1   8   18.20    5.00
   0   1  -8   16.90    4.50
   1  -1   8   50.69    7.10
  -1  -1  -8   51.99    6.80
  -1   1  -8   55.49    6.60
   1   1   8   44.90    6.80
   2  -2  -8   89.39    8.60
  -2  -2   8   70.49    9.00
  -2  -2   8   83.69    9.80
  -2   2   8   92.99    9.50
   2   2  -8   68.09    8.10
  -2   2   8   78.99   10.00
  -1  -2   8  143.29    9.00
  -1  -2   8  152.18    9.40
   1  -2  -8  155.78    9.50
   1   2  -8  159.58    9.80
  -1   2   8  161.28    9.20
  -1   2   8  152.08   10.20
   0  -2   8   11.80    4.20
   0  -2  -8    9.70    4.10
   0  -2   8   20.10    4.90
   0   2   8   10.20    4.30
   0   2  -8   10.90    4.00
  -1  -2  -8   -5.60    2.50
   1  -2   8    5.80    4.00
   1  -2   8    2.40    3.40
   1   2   8    2.30    3.50
  -1   2  -8    1.30    3.10
   2  -3  -8  149.39    9.40
  -2  -3   8  126.79   10.10
  -2   3   8  114.79   12.20
   2   3  -8  138.09    9.50
  -2   3   8  149.79   10.00
  -1  -3   8   18.00    5.20
   1  -3  -8   10.60    4.30
   1   3  -8    8.40    4.00
  -1   3   8   17.90    4.70
  -1   3   8   15.90    5.20
   0  -3  -8  107.29   10.00
   0  -3   8  124.09    8.50
   0   3   8  107.09    8.60
   0   3  -8  116.19    8.40
   1  -3   8   88.49    8.50
  -1  -3  -8   87.99    8.80
  -1   3  -8   77.79    7.80
   1   3   8   78.59    9.00
  -2  -4   8   11.10    5.00
   2  -4  -8   15.10    5.00
  -2   4   8   19.10    5.30
   2   4  -8    9.50    4.10
  -2   4   8   14.50    6.10
   1  -4  -8   54.69    7.30
  -1  -4   8   55.19    7.20
  -1   4   8   60.69    8.30
   1   4  -8   60.69    7.60
   0  -4  -8    4.70    4.00
   0  -4   8    8.60    4.10
   0   4   8    3.40    3.90
   0   4  -8    2.80    3.50
  -1  -4  -8    0.20    3.20
   1  -4   8   -2.90    2.90
  -1   4  -8   -0.30    3.30
   1   4   8    0.40    3.50
  -1  -5   8   64.69    7.90
   1  -5  -8   56.69    7.50
   1   5  -8   61.49    7.80
  -1   5   8   52.89    8.00
   0  -5  -8   78.69    8.30
   0  -5   8   99.39    9.60
   0   5  -8   76.49    8.40
   0   5   8   96.49   10.40
  -1  -5  -8  188.88   10.60
   1  -5   8  228.88   11.60
   1   5   8  191.78   11.60
  -1   5  -8  210.08   10.40
   1  -6  -8  138.59    9.40
  -1  -6   8  123.09    9.70
   1   6  -8  160.48   10.20
  -1   6   8  130.49   10.50
   0  -6  -8    2.80    3.60
   0  -6   8   -0.40    3.60
   0   6   8    0.10    3.60
   0   6  -8   -0.80    3.20
  -1  -7   8   33.00    6.50
   1  -7  -8   26.80    5.70
   1   7  -8   48.50    7.70
  -1   7   8   46.50    8.10
   0  -7  -8   95.19    9.30
   0  -7   8   96.49   10.00
   0   7  -8   65.59    7.60
   0   7   8   73.89    9.40
   0   0   0    0.00    0.00
_computing_structure_solution     'SHELXT 2018/2 (Sheldrick, 2018)'
;
_shelx_hkl_checksum              19387
_shelx_res_file
;
TITL eb831_a.res in P2(1)/m
    E:\SOLVED~1\EB801-~1\EB831_~1\eb831_a.res
    created by SHELXL-2018/3 at 12:44:31 on 15-Jul-2022
CELL 0.71073 3.8115 13.6452 6.8976 90.000 94.632 90.000
ZERR 2.0000 0.0003 0.0011 0.0005 0.000 0.001 0.000
LATT 1
SYMM -X, 0.5+Y, -Z
SFAC C H N O CL
UNIT 12 6 2 4 4
BOND
BOND $H
EQIV $1 1-X, 1-Y, 1-Z
EQIV $2 1+X, Y, Z-1
RTAB CLODST Cl1 O1_$1
RTAB CLOANG C3 Cl1 O1_$1
RTAB CHODST H4 O1_$2
RTAB CHOANG C4 H4 O1_$2
ACTA
FMAP 2 1 53
PLAN 20 0 0
HTAB 2.0
LIST 4 1
TEMP -173
L.S. 16
WGHT    0.039800    0.126700
FVAR       1.09922
CL1   5    0.861151    0.447397    0.233133    11.00000    0.02635    0.01503 =
         0.02403    0.00304    0.00686   -0.00205
O1    4    0.334610    0.329128    0.868163    11.00000    0.04416    0.02146 =
         0.02300   -0.00115    0.01238    0.00699
N1    3    0.399425    0.250000    0.795394    10.50000    0.01671    0.02157 =
         0.01541    0.00000    0.00097    0.00000
C4    1    0.844605    0.250000    0.253963    10.50000    0.01430    0.02129 =
         0.01653    0.00000    0.00140    0.00000
AFIX  43
H4    2    0.942848    0.250000    0.131693    10.50000   -1.20000
AFIX   0
C1    1    0.560276    0.250000    0.607556    10.50000    0.01276    0.02005 =
         0.01310    0.00000    0.00096    0.00000
C3    1    0.771631    0.337637    0.344784    11.00000    0.01410    0.01504 =
         0.01944    0.00204   -0.00004   -0.00188
C2    1    0.626930    0.339735    0.523683    11.00000    0.01441    0.01613 =
         0.01776   -0.00175   -0.00007   -0.00001
AFIX  43
H2    2    0.576278    0.399770    0.585345    11.00000   -1.20000
AFIX   0
HKLF 4
REM  eb831_a.res in P2(1)/m
REM wR2 = 0.0705, GooF = S = 1.117, Restrained GooF = 1.117 for all data
REM R1 = 0.0275 for 747 Fo > 4sig(Fo) and 0.0303 for all 813 data
REM 55 parameters refined using 0 restraints
END
WGHT      0.0398      0.1268
REM No hydrogen bonds found for HTAB generation
REM Highest difference peak  0.372,  deepest hole -0.215,  1-sigma level  0.066
Q1    1   0.4967  0.2500  0.6592  10.50000  0.05    0.35
Q2    1   0.1596  0.3510  0.7736  11.00000  0.05    0.35
Q3    1   0.6961  0.3375  0.4189  11.00000  0.05    0.31
Q4    1   0.5632  0.2936  0.5542  11.00000  0.05    0.31
Q5    1   0.7658  0.3619  0.3225  11.00000  0.05    0.26
Q6    1   0.7764  0.2914  0.2978  11.00000  0.05    0.26
Q7    1   0.4158  0.3130  0.5863  11.00000  0.05    0.20
Q8    1   0.6955  0.4529  0.1404  11.00000  0.05    0.20
Q9    1   1.0714  0.4455  0.1797  11.00000  0.05    0.20
Q10   1   1.0568  0.4550  0.3520  11.00000  0.05    0.19
Q11   1   0.4003  0.4488  0.2988  11.00000  0.05    0.18
Q12   1   0.5052  0.3355  0.8386  11.00000  0.05    0.17
Q13   1   0.3606  0.4742  0.5020  11.00000  0.05    0.15
Q14   1   0.1132  0.3454  0.9419  11.00000  0.05    0.14
Q15   1   0.7852  0.5028  0.3199  11.00000  0.05    0.13
Q16   1   0.1432  0.2500  0.8982  10.50000  0.05    0.12
Q17   1   0.9411  0.3267  0.6642  11.00000  0.05    0.11
Q18   1   0.9972  0.3805  0.2678  11.00000  0.05    0.11
Q19   1   0.4143  0.4400  0.7826  11.00000  0.05    0.11
Q20   1   0.8486  0.2500  0.7027  10.50000  0.05    0.11
;
_shelx_res_checksum              56955
loop_
_space_group_symop_operation_xyz
'x, y, z'
'-x, y+1/2, -z'
'-x, -y, -z'
'x, -y-1/2, z'
loop_
_atom_site_type_symbol
_atom_site_label
_atom_site_fract_x
_atom_site_fract_y
_atom_site_fract_z
_atom_site_U_iso_or_equiv
_atom_site_adp_type
_atom_site_calc_flag
_atom_site_occupancy
_atom_site_disorder_assembly
_atom_site_disorder_group
Cl Cl1 0.86115(10) 0.44740(3) 0.23313(5) 0.02154(16) Uani d 1 . .
O O1 0.3346(3) 0.32913(8) 0.86816(17) 0.0290(3) Uani d 1 . .
N N1 0.3994(5) 0.250000 0.7954(3) 0.0179(4) Uani d 1 . .
C C4 0.8446(5) 0.250000 0.2540(3) 0.0174(4) Uani d 1 . .
H H4 0.942848 0.250000 0.131693 0.021 Uiso calc 1 . .
C C1 0.5603(5) 0.250000 0.6076(3) 0.0153(4) Uani d 1 . .
C C3 0.7716(4) 0.33764(10) 0.3448(2) 0.0163(3) Uani d 1 . .
C C2 0.6269(4) 0.33974(11) 0.5237(2) 0.0162(3) Uani d 1 . .
H H2 0.576278 0.399770 0.585345 0.019 Uiso calc 1 . .
loop_
_atom_site_aniso_label
_atom_site_aniso_U_11
_atom_site_aniso_U_22
_atom_site_aniso_U_33
_atom_site_aniso_U_12
_atom_site_aniso_U_13
_atom_site_aniso_U_23
Cl1 0.0264(2) 0.0150(2) 0.0240(2) -0.00205(13) 0.00686(15) 0.00304(13)
O1 0.0442(8) 0.0215(6) 0.0230(6) 0.0070(5) 0.0124(5) -0.0011(5)
N1 0.0167(9) 0.0216(9) 0.0154(9) 0.000 0.0010(6) 0.000
C4 0.0143(10) 0.0213(11) 0.0165(10) 0.000 0.0014(8) 0.000
C1 0.0128(9) 0.0200(10) 0.0131(9) 0.000 0.0010(7) 0.000
C3 0.0141(7) 0.0150(7) 0.0194(7) -0.0019(5) 0.0000(5) 0.0020(6)
C2 0.0144(7) 0.0161(7) 0.0178(7) 0.0000(5) -0.0001(5) -0.0017(6)
loop_
_atom_type_symbol
_atom_type_description
_atom_type_scat_dispersion_real
_atom_type_scat_dispersion_imag
_atom_type_scat_source
C C 0.0033 0.0016 'International Tables Vol C Tables 4.2.6.8 and 6.1.1.4'
H H 0.0000 0.0000 'International Tables Vol C Tables 4.2.6.8 and 6.1.1.4'
N N 0.0061 0.0033 'International Tables Vol C Tables 4.2.6.8 and 6.1.1.4'
O O 0.0106 0.0060 'International Tables Vol C Tables 4.2.6.8 and 6.1.1.4'
Cl Cl 0.1484 0.1585 'International Tables Vol C Tables 4.2.6.8 and 6.1.1.4'
loop_
_geom_angle_atom_site_label_1
_geom_angle_atom_site_label_2
_geom_angle_atom_site_label_3
_geom_angle_site_symmetry_1
_geom_angle_site_symmetry_3
_geom_angle
_geom_angle_publ_flag
O1 N1 O1 . 4_565 123.75(18) ?
O1 N1 C1 . . 118.12(9) ?
O1 N1 C1 4_565 . 118.12(9) ?
C3 C4 C3 4_565 . 118.91(19) ?
C3 C4 H4 4_565 . 120.5 ?
C3 C4 H4 . . 120.5 ?
C2 C1 C2 4_565 . 124.05(19) ?
C2 C1 N1 4_565 . 117.96(10) ?
C2 C1 N1 . . 117.96(10) ?
C4 C3 C2 . . 121.72(14) ?
C4 C3 Cl1 . . 119.39(12) ?
C2 C3 Cl1 . . 118.89(11) ?
C1 C2 C3 . . 116.80(14) ?
C1 C2 H2 . . 121.6 ?
C3 C2 H2 . . 121.6 ?
loop_
_geom_bond_atom_site_label_1
_geom_bond_atom_site_label_2
_geom_bond_site_symmetry_2
_geom_bond_distance
_geom_bond_publ_flag
Cl1 C3 . 1.7306(15) ?
O1 N1 . 1.2242(14) ?
N1 C1 . 1.477(3) ?
C4 C3 4_565 1.3885(18) ?
C4 C3 . 1.3885(18) ?
C4 H4 . 0.9500 ?
C1 C2 4_565 1.3864(17) ?
C1 C2 . 1.3865(17) ?
C3 C2 . 1.392(2) ?
C2 H2 . 0.9500 ?
