#------------------------------------------------------------------------------
#$Date: 2021-06-06 19:15:24 +0300 (Sun, 06 Jun 2021) $
#$Revision: 266204 $
#$URL: file:///home/coder/svn-repositories/cod/cif/2/02/23/2022368.cif $
#------------------------------------------------------------------------------
#
# This file is available in the Crystallography Open Database (COD),
# http://www.crystallography.net/. The original data for this entry
# were provided by IUCr Journals, http://journals.iucr.org/.
#
# The file may be used within the scientific community so long as
# proper attribution is given to the journal article from which the
# data were obtained.
#
data_2022368
loop_
_publ_author_name
'Slyvka, Yurii'
'Kinzhybalo, Vasyl'
'Shyyka, Olga'
'Mys'kiv, Marian'
_publ_section_title
;
 Synthesis, structure and computational study of
 5-[(prop-2-en-1-yl)sulfanyl]-1,3,4-thiadiazol-2-amine (<i>Pesta</i>) and
 its heterometallic \p,\s-complex [Cu~2~FeCl~2~(<i>Pesta</i>)~4~][FeCl~4~]
;
_journal_coeditor_code           VP3015
_journal_issue                   5
_journal_name_full               'Acta Crystallographica Section C'
_journal_page_first              249
_journal_page_last               256
_journal_paper_doi               10.1107/S2053229621004198
_journal_volume                  77
_journal_year                    2021
_chemical_formula_iupac          'C5 H7 N3 S2'
_chemical_formula_moiety         'C5 H7 N3 S2'
_chemical_formula_sum            'C5 H7 N3 S2'
_chemical_formula_weight         173.26
_chemical_name_systematic
;
5-[(Prop-2-en-1-yl)sulfanyl]-1,3,4-thiadiazol-2-amine
;
_space_group_crystal_system      triclinic
_space_group_IT_number           2
_space_group_name_Hall           '-P 1'
_space_group_name_H-M_alt        'P -1'
_atom_sites_solution_hydrogens   mixed
_audit_creation_method
;
Olex2 1.2
(compiled 2018.05.29 svn.r3508 for OlexSys, GUI svn.r5506)
;
_cell_angle_alpha                79.80(3)
_cell_angle_beta                 72.96(3)
_cell_angle_gamma                80.62(3)
_cell_formula_units_Z            2
_cell_length_a                   6.088(3)
_cell_length_b                   7.826(3)
_cell_length_c                   8.623(3)
_cell_measurement_reflns_used    2650
_cell_measurement_temperature    160.15
_cell_measurement_theta_max      29.6830
_cell_measurement_theta_min      3.3590
_cell_volume                     383.9(3)
_computing_cell_refinement
;
CrysAlis PRO (Rigaku OD, 2015)
;
_computing_data_collection
;
CrysAlis PRO (Rigaku OD, 2015)
;
_computing_data_reduction
;
CrysAlis PRO (Rigaku OD, 2015)
;
_computing_molecular_graphics
;
OLEX2 (Dolomanov <i>et al.</i>,  2009)
;
_computing_publication_material
;
OLEX2 (Dolomanov <i>et al.</i>,  2009)
;
_computing_structure_refinement
;
SHELXL2018 (Sheldrick, 2015b)
;
_computing_structure_solution
;
SHELXT (Sheldrick, 2015a)
;
_diffrn_ambient_temperature      160.15
_diffrn_measured_fraction_theta_full 0.996
_diffrn_measured_fraction_theta_max 0.889
_diffrn_measurement_device_type  'Kuma KM-4-CCD'
_diffrn_measurement_method       '\w scans'
_diffrn_radiation_type           MoK\a
_diffrn_radiation_wavelength     0.71073
_diffrn_reflns_av_R_equivalents  0.0370
_diffrn_reflns_av_unetI/netI     0.0296
_diffrn_reflns_limit_h_max       8
_diffrn_reflns_limit_h_min       -6
_diffrn_reflns_limit_k_max       10
_diffrn_reflns_limit_k_min       -9
_diffrn_reflns_limit_l_max       11
_diffrn_reflns_limit_l_min       -11
_diffrn_reflns_number            5125
_diffrn_reflns_theta_full        25.242
_diffrn_reflns_theta_max         29.564
_diffrn_reflns_theta_min         3.391
_exptl_absorpt_coefficient_mu    0.617
_exptl_absorpt_correction_T_max  0.582
_exptl_absorpt_correction_T_min  0.218
_exptl_absorpt_correction_type   analytical
_exptl_absorpt_process_details
;
[CrysAlis PRO (Rigaku OD, 2015), based on expressions derived by
Clark & Reid (1995)]
;
_exptl_crystal_colour            'clear colourless'
_exptl_crystal_density_diffrn    1.499
_exptl_crystal_description       block
_exptl_crystal_F_000             180
_exptl_crystal_size_max          0.9
_exptl_crystal_size_mid          0.48
_exptl_crystal_size_min          0.257
_refine_diff_density_max         0.399
_refine_diff_density_min         -0.296
_refine_ls_extinction_method     none
_refine_ls_goodness_of_fit_ref   1.055
_refine_ls_hydrogen_treatment    mixed
_refine_ls_matrix_type           full
_refine_ls_number_parameters     127
_refine_ls_number_reflns         1923
_refine_ls_number_restraints     0
_refine_ls_restrained_S_all      1.055
_refine_ls_R_factor_all          0.0462
_refine_ls_R_factor_gt           0.0406
_refine_ls_shift/su_max          0.001
_refine_ls_shift/su_mean         0.000
_refine_ls_structure_factor_coef Fsqd
_refine_ls_weighting_details
'w=1/[\s^2^(Fo^2^)+(0.0684P)^2^+0.0481P] where P=(Fo^2^+2Fc^2^)/3'
_refine_ls_weighting_scheme      calc
_refine_ls_wR_factor_gt          0.1072
_refine_ls_wR_factor_ref         0.1128
_reflns_number_gt                1648
_reflns_number_total             1923
_reflns_threshold_expression     'I > 2\s(I)'
_cod_data_source_file            vp3015sup1.cif
_cod_data_source_block           Pesta
_cod_depositor_comments
'Adding full bibliography for 2022368--2022369.cif.'
_cod_database_code               2022368
_cod_database_fobs_code          2022368
_shelx_space_group_comment
;
The symmetry employed for this shelxl refinement is uniquely defined
by the following loop, which should always be used as a source of
symmetry information in preference to the above space-group names.
They are only intended as comments.
;
_shelx_estimated_absorpt_t_min   0.607
_shelx_estimated_absorpt_t_max   0.857
_shelx_hkl_file
;
   0   0   2  235.01    2.80
   0   0  -2  229.24    2.87
   0   0  -3 1363.68    9.94
   0   0  -3 1379.41   11.43
   0   0  -4   44.30    1.51
   0   0  -4   46.14    1.24
   0   0   5  351.85    6.16
   0   0  -5  515.33    5.52
   0   0   5  502.91    4.38
   0   0  -5  378.69    4.79
   0   0  -5  354.73    5.05
   0   0  -6   61.54    1.91
   0   0   6   60.27    2.69
   0   0  -6   97.98    2.52
   0   0  -6  110.58    1.91
   0   0  -6   75.54    1.91
   0   0  -7  363.79    3.85
   0   0  -7  323.28    5.00
   0   0  -7  214.08    4.21
   0   0  -7  224.88    4.24
   0   0   7  196.20    5.44
   0   0  -8   85.88    2.55
   0   0  -8   94.85    2.86
   0   0  -9    1.02    0.42
   0   0   9    1.26    0.46
   0   0  -9    0.44    0.28
   0   0 -10   10.15    1.26
   0   0  10    4.68    1.23
   0  -1   9    2.53    0.67
   0   1  -9    2.85    0.64
   0   1  -8   25.49    1.73
   0  -1   8   26.28    1.82
   0   1  -8   24.66    1.58
   0   1  -7  173.03    4.24
   0  -1   7  175.88    4.40
   0   1  -7  165.45    3.89
   0   1  -7  167.97    3.91
   0   1  -6  377.99    5.70
   0  -1   6  396.71    6.33
   0   1  -6  390.48    6.19
   0   1  -6  376.69    5.72
   0   1  -5  268.89    4.45
   0  -1   5  312.24    5.06
   0   1  -5  307.00    4.99
   0   1  -5  286.51    4.54
   0   1  -5  281.70    4.45
   0   1  -4  116.91    2.45
   0   1  -4  125.03    2.71
   0  -1   4  121.84    2.72
   0   1  -4  118.11    2.47
   0   1  -3    7.11    0.55
   0   1  -3    6.99    0.51
   0  -1   3    7.05    0.55
   0   1  -3    7.02    0.52
   0   1  -3    7.70    0.56
   0  -1   2    5.48    0.42
   0   1  -2    5.26    0.44
   0   1  -2    4.90    0.38
   0   1  -2    5.08    0.39
   0   1  -1   94.67    1.48
   0  -1   1   96.05    1.43
   0   1  -1   90.76    1.36
   0  -1  -1   23.14    0.66
   0  -1  -1   24.07    0.66
   0   1   1   24.17    0.67
   0  -1  -2   16.83    0.74
   0   1   2   15.09    0.69
   0  -1  -2   17.84    0.69
   0  -1  -3  112.99    2.33
   0  -1  -3  113.90    2.15
   0  -1  -3  117.69    2.17
   0   1   3  109.77    2.32
   0  -1  -4   11.43    0.83
   0  -1  -4   10.05    0.70
   0   1   4   13.09    0.99
   0  -1  -4   10.73    0.73
   0  -1  -5  236.29    4.06
   0   1   5  245.32    4.64
   0  -1  -5  238.56    4.52
   0  -1  -5  231.14    4.47
   0   1   6  281.93    5.55
   0  -1  -6  250.40    4.92
   0   1   6  237.87    3.94
   0  -1  -6  243.81    4.35
   0  -1  -6  228.19    4.25
   0  -1  -6  259.77    5.10
   0   1   6  259.02    5.07
   0  -1  -7  256.08    5.33
   0  -1  -7  231.28    4.55
   0  -1  -7  227.34    4.31
   0   1   7  261.90    5.50
   0  -1  -8  114.65    3.65
   0  -1  -8  102.84    3.01
   0   1   9   19.12    1.71
   0  -1  -9   19.27    1.68
   0  -1  -9   17.11    1.30
   0   1  10    1.53    0.55
   0  -1 -10    1.42    0.48
   0   2  -8    1.05    0.40
   0   2  -8    0.18    0.39
   0  -2   8    0.69    0.36
   0   2  -8    0.90    0.42
   0   2  -7  158.47    3.91
   0  -2   7  163.65    4.20
   0   2  -7  158.84    4.05
   0   2  -7  159.81    3.92
   0   2  -6  346.32    5.66
   0   2  -6  328.84    5.43
   0   2  -6  328.44    5.60
   0  -2   6  336.82    5.77
   0   2  -5  171.88    3.54
   0  -2   5  170.78    3.61
   0   2  -5  163.18    3.45
   0   2  -5  163.98    3.39
   0   2  -4  680.95    7.45
   0   2  -4  685.26    7.49
   0  -2   4  701.61    7.72
   0   2  -4  698.01    7.61
   0   2  -3    6.81    0.56
   0  -2   3    8.03    0.62
   0   2  -3    7.33    0.56
   0   2  -3    7.87    0.63
   0   2  -3    6.92    0.55
   0   2  -2 1023.07    9.31
   0   2  -2 1041.16    9.51
   0   2  -2 1039.81    9.04
   0   2  -1  189.39    2.75
   0   2  -1  191.29    2.62
   0   2  -1  194.68    2.62
   0  -2   1  192.81    2.64
   0  -2   0 1547.75   12.05
   0   2   0 1544.08   12.01
   0  -2  -1 9999.00   66.80
   0  -2  -2  509.76    5.33
   0   2   2  498.61    5.39
   0   2   3    3.06    0.41
   0  -2  -3    3.24    0.42
   0  -2  -3    3.26    0.39
   0  -2  -4  233.28    4.05
   0  -2  -4  231.66    3.82
   0  -2  -5   28.88    1.36
   0  -2  -5   29.16    1.53
   0   2   5   30.80    1.65
   0  -2  -5   26.64    1.31
   0  -2  -6   56.09    2.09
   0  -2  -6   57.63    2.14
   0  -2  -6   58.12    2.41
   0  -2  -7   17.18    1.43
   0  -2  -7   14.78    1.34
   0  -2  -7   14.79    1.14
   0   2   7   17.40    1.60
   0   2   7   17.17    1.43
   0   2   7   15.08    1.08
   0  -2  -7   14.52    1.16
   0  -2  -8   78.83    3.21
   0   2   8   79.44    3.24
   0  -2  -8   86.66    3.57
   0   2   8   83.08    3.52
   0  -2  -8   73.23    2.72
   0  -2  -9   11.01    1.28
   0   2   9   11.31    1.32
   0  -2  -9    9.19    1.02
   0   2  10    1.03    0.53
   0  -2 -10    0.05    0.38
   0   3  -9    6.38    0.96
   0   3  -8    0.98    0.37
   0   3  -8    1.73    0.49
   0   3  -7   12.34    1.07
   0   3  -7   12.61    1.14
   0   3  -7   11.78    1.08
   0  -3   7   12.55    1.20
   0   3  -7   10.99    1.08
   0   3  -6  101.25    3.21
   0   3  -6  107.35    3.07
   0   3  -6  104.11    2.97
   0   3  -6  107.99    3.20
   0   3  -5  263.58    5.10
   0  -3   5  284.17    5.00
   0   3  -5  272.67    4.74
   0   3  -5  269.87    4.73
   0   3  -5  273.04    4.93
   0  -3   4  156.69    3.34
   0   3  -4  148.49    3.31
   0   3  -4  131.73    2.84
   0   3  -4  146.08    3.44
   0   3  -4  141.57    3.06
   0   3  -3   30.89    1.28
   0   3  -3   29.96    1.25
   0  -3   3   32.47    1.35
   0   3  -3   33.19    1.47
   0   3  -2    4.05    0.44
   0  -3   2    4.28    0.47
   0   3  -2    4.05    0.43
   0   3  -2    4.40    0.51
   0  -3   1    1.14    0.25
   0   3  -1    1.26    0.24
   0   3  -1    1.22    0.28
   0   3  -1    1.01    0.21
   0   3   0  295.61    3.57
   0   3   0  290.90    3.79
   0  -3   0  297.60    3.90
   0   3   0  303.39    3.92
   0  -3  -1  584.02    6.39
   0   3   1  594.72    5.80
   0   3   1  577.86    6.15
   0   3   2   44.16    1.47
   0  -3  -2   39.75    1.41
   0  -3  -2   41.96    1.45
   0   3   2   44.87    1.24
   0   3   3    1.66    0.26
   0  -3  -3    1.53    0.32
   0   3   3    1.54    0.33
   0  -3  -3    1.53    0.31
   0  -3  -4  154.64    3.50
   0   3   4  155.32    3.45
   0   3   5    9.16    0.86
   0  -3  -5   12.06    0.95
   0  -3  -5   11.49    0.93
   0  -3  -5   11.05    0.97
   0  -3  -6  146.03    3.62
   0   3   6  154.06    4.10
   0  -3  -6  151.90    4.04
   0  -3  -6  159.62    3.77
   0   3   6  138.38    3.47
   0  -3  -7  105.37    3.23
   0   3   7  113.22    4.10
   0  -3  -7  105.32    3.62
   0  -3  -7  101.44    3.25
   0  -3  -8   92.13    3.31
   0  -3  -8   94.12    3.72
   0  -3  -8   96.44    3.76
   0   3   8   98.52    3.87
   0  -3  -9   47.12    2.76
   0  -3  -9   46.40    2.71
   0   3   9   45.77    2.75
   0  -3  -9   48.08    2.44
   0   3   9   49.37    2.98
   0  -3 -10    5.42    0.84
   0   4  -9    0.75    0.51
   0   4  -8    7.48    1.05
   0   4  -7    7.26    0.98
   0   4  -7    7.94    0.93
   0   4  -6  187.43    4.34
   0   4  -6  180.51    4.62
   0   4  -6  184.49    4.31
   0  -4   5  266.61    5.05
   0   4  -5  248.78    5.25
   0   4  -5  254.62    4.84
   0   4  -5  253.25    4.80
   0   4  -4  186.10    4.15
   0   4  -4  181.22    3.76
   0  -4   3  461.51    6.14
   0   4  -3  446.83    6.46
   0   4  -3  444.11    5.91
   0   4  -2    3.34    0.46
   0   4  -2    3.75    0.52
   0  -4   2    3.38    0.45
   0   4  -2    3.70    0.46
   0   4  -1  161.50    2.94
   0  -4   1  182.28    3.26
   0   4  -1  173.96    3.23
   0   4  -1  172.43    3.32
   0   4  -1  162.67    2.47
   0   4   0   -0.01    0.16
   0   4   0    0.33    0.16
   0   4   0   -0.04    0.17
   0  -4   0    0.12    0.14
   0  -4  -1  561.76    6.95
   0   4   1  577.79    6.76
   0  -4  -1  565.25    6.68
   0   4   1  553.05    6.23
   0   4   1  551.07    6.46
   0  -4  -2 1545.25   14.03
   0  -4  -2 1552.46   13.95
   0   4   2 1560.07   13.07
   0   4   2 1540.01   13.90
   0   4   3  131.52    3.16
   0  -4  -3  128.68    3.14
   0  -4  -3  140.94    3.27
   0   4   3  135.37    2.60
   0   4   3  121.80    3.05
   0  -4  -4   18.83    1.23
   0   4   4   16.12    1.12
   0   4   4   18.84    0.95
   0  -4  -4   17.32    1.23
   0   4   4   15.37    1.09
   0   4   5   17.65    1.25
   0  -4  -5   20.43    1.41
   0  -4  -5   21.89    1.41
   0   4   5   21.09    1.41
   0  -4  -6    5.95    0.81
   0  -4  -6    6.11    0.77
   0   4   6    5.92    0.83
   0   4   6    5.22    0.75
   0  -4  -6    6.22    0.80
   0  -4  -7    0.99    0.43
   0   4   7    0.82    0.46
   0   4   7    1.09    0.42
   0  -4  -7    0.93    0.40
   0  -4  -7    0.33    0.26
   0   4   8    2.44    0.76
   0  -4  -8    2.55    0.68
   0  -4  -8    2.43    0.61
   0   4   8    2.07    0.53
   0  -4  -9   12.44    1.55
   0  -4  -9   12.39    1.49
   0   4   9   15.62    1.95
   0  -4  -9   12.04    1.37
   0   4   9   13.92    1.68
   0  -4 -10    0.29    0.42
   0   5  -9   19.44    1.77
   0   5  -8    3.79    0.77
   0   5  -7    0.54    0.40
   0   5  -7    1.33    0.48
   0   5  -6    2.04    0.57
   0   5  -6    1.76    0.45
   0   5  -5   29.09    1.66
   0   5  -5   30.17    1.87
   0   5  -4   75.64    2.79
   0   5  -4   73.66    2.48
   0   5  -4   73.88    2.54
   0  -5   4   76.37    2.52
   0  -5   3   28.26    1.46
   0   5  -3   29.12    1.63
   0   5  -3   27.17    1.41
   0   5  -3   26.60    1.43
   0   5  -2   14.45    1.07
   0  -5   2   15.01    1.03
   0   5  -2   14.59    0.99
   0   5  -2   14.97    1.04
   0   5  -1    0.08    0.12
   0   5  -1   -0.17    0.29
   0  -5   1    0.23    0.18
   0   5  -1    0.19    0.25
   0  -5   0    3.45    0.49
   0   5   0    4.28    0.47
   0   5   0    4.08    0.53
   0   5   0    4.06    0.52
   0  -5  -1  196.77    4.13
   0   5   1  185.43    3.61
   0  -5  -1  197.34    3.92
   0   5   1  199.78    3.94
   0   5   1  188.59    3.58
   0  -5  -2  225.24    4.47
   0  -5  -2  233.03    4.42
   0   5   2  223.18    4.29
   0   5   2  233.55    4.44
   0  -5  -3    3.90    0.61
   0   5   3    3.91    0.58
   0   5   3    4.17    0.51
   0   5   3    3.44    0.62
   0  -5  -3    3.22    0.55
   0  -5  -4    8.20    0.91
   0  -5  -4    8.97    0.95
   0   5   4    7.21    0.88
   0   5   4    7.78    0.88
   0  -5  -5   68.66    2.81
   0   5   5   63.27    2.64
   0  -5  -5   67.58    2.67
   0   5   6    5.10    0.82
   0  -5  -6    5.72    0.89
   0  -5  -6    7.03    0.94
   0   5   6    5.85    0.86
   0   5   7   47.25    2.56
   0  -5  -7   50.76    2.69
   0  -5  -7   53.37    2.59
   0   5   7   43.38    2.26
   0  -5  -7   49.89    2.49
   0   5   8   24.09    2.13
   0  -5  -8   23.40    1.99
   0   5   8   20.13    1.59
   0  -5  -8   22.41    1.77
   0   5   9   27.20    2.57
   0  -5  -9   22.91    1.91
   0   5   9   19.23    1.65
   0  -5  -9   23.59    2.17
   0  -5 -10    7.94    1.24
   0   6  -8    0.13    0.34
   0   6  -7    1.39    0.52
   0   6  -6   11.23    1.16
   0   6  -6   11.71    1.31
   0   6  -5  113.58    3.87
   0   6  -5  109.25    3.47
   0   6  -4  115.79    3.76
   0   6  -4  115.05    3.45
   0  -6   3   87.88    2.79
   0   6  -3   90.99    2.92
   0   6  -3   85.40    2.70
   0   6  -3   89.98    3.11
   0  -6   2  127.93    3.38
   0   6  -2  123.91    3.48
   0   6  -2  127.25    3.30
   0   6  -1    2.73    0.54
   0  -6   1    3.54    0.57
   0   6  -1    3.86    0.59
   0   6   0   17.75    1.22
   0   6   0   19.10    1.24
   0   6   0   15.80    0.97
   0  -6   0   18.37    1.24
   0   6   1    6.46    0.71
   0  -6  -1    6.75    0.84
   0   6   1    5.75    0.65
   0  -6  -1    6.53    0.77
   0   6   1    6.84    0.77
   0   6   2  110.91    3.19
   0   6   2  115.51    3.27
   0   6   2  120.07    3.09
   0  -6  -2  119.44    3.48
   0  -6  -2  115.47    3.32
   0   6   3  182.79    4.49
   0  -6  -3  177.10    4.42
   0   6   3  172.11    4.26
   0   6   4   25.31    1.72
   0  -6  -4   26.29    1.72
   0  -6  -4   28.80    1.85
   0   6   4   24.93    1.71
   0   6   5    5.25    0.83
   0  -6  -5    6.45    0.97
   0  -6  -5    5.59    0.89
   0   6   5    6.20    0.88
   0   6   6    0.72    0.38
   0  -6  -6    0.40    0.31
   0   6   6    0.25    0.25
   0  -6  -6   -0.27    0.38
   0  -6  -7    0.08    0.31
   0  -6  -7   -0.17    0.32
   0   6   7    0.31    0.41
   0  -6  -7    0.28    0.37
   0   6   7    0.30    0.27
   0  -6  -8    0.51    0.38
   0   6   8   -0.04    0.32
   0  -6  -8    0.98    0.57
   0   6   8    0.23    0.27
   0   6   9    0.86    0.47
   0  -6  -9    0.00    0.32
   0  -6 -10    0.38    0.33
   0   7  -7    0.79    0.34
   0   7  -6    0.12    0.34
   0   7  -6   -0.09    0.30
   0   7  -5   -0.22    0.29
   0   7  -5   -0.09    0.29
   0   7  -4    2.56    0.58
   0   7  -4    3.30    0.71
   0   7  -3    2.99    0.60
   0   7  -2    1.40    0.43
   0  -7   1    5.75    0.80
   0   7  -1    6.23    0.77
   0   7  -1    6.70    0.87
   0   7   0    0.76    0.35
   0  -7   0    0.45    0.27
   0  -7   0    1.20    0.45
   0   7   0    0.39    0.24
   0   7   1    0.65    0.30
   0   7   1    0.54    0.25
   0  -7  -1    0.65    0.31
   0   7   1    0.40    0.33
   0  -7  -1    0.65    0.34
   0   7   2   69.44    2.65
   0   7   2   74.35    2.84
   0  -7  -2   74.51    3.03
   0   7   2   78.30    2.73
   0  -7  -2   75.75    2.91
   0  -7  -3   59.66    2.69
   0  -7  -3   63.92    2.89
   0   7   3   59.84    2.75
   0   7   4    0.43    0.36
   0   7   4    0.63    0.40
   0  -7  -4    0.94    0.52
   0  -7  -4    0.43    0.32
   0   7   5    3.19    0.75
   0  -7  -5    3.59    0.78
   0   7   5    3.53    0.74
   0  -7  -5    5.13    0.92
   0  -7  -6   13.61    1.46
   0   7   6   10.52    1.29
   0   7   6   12.38    1.46
   0  -7  -6   12.74    1.48
   0  -7  -7    2.19    0.71
   0  -7  -7    2.04    0.74
   0   7   7    1.89    0.60
   0   7   7    1.77    0.65
   0   7   8    4.54    0.93
   0  -7  -8    6.33    1.11
   0   7   9    1.77    0.59
   0  -7  -9    3.39    0.92
   0   8  -5    3.80    0.89
   0   8  -4   37.01    2.31
   0   8  -3   39.44    2.28
   0   8  -2   26.28    1.82
   0  -8   1   25.29    1.97
   0   8  -1   24.78    1.70
   0  -8   0    2.00    0.53
   0  -8   0    3.15    0.64
   0   8   0    2.04    0.53
   0   8   0    1.78    0.48
   0  -8  -1    1.69    0.37
   0   8   1    1.12    0.38
   0  -8  -1    1.04    0.40
   0   8   1    1.48    0.43
   0   8   2    2.56    0.58
   0   8   2    2.72    0.56
   0  -8  -2    2.84    0.60
   0  -8  -2    3.06    0.72
   0   8   3   15.89    1.32
   0  -8  -3   15.03    1.48
   0   8   3   16.96    1.49
   0  -8  -3   19.68    1.73
   0  -8  -4   15.52    1.55
   0   8   4   17.39    1.46
   0   8   4   16.56    1.54
   0  -8  -4   17.91    1.76
   0  -8  -5    2.11    0.71
   0   8   5    2.94    0.63
   0  -8  -5    4.12    0.88
   0   8   5    2.52    0.73
   0  -8  -6    0.17    0.52
   0  -8  -6    0.25    0.42
   0   8   6    1.05    0.44
   0   8   7    0.11    0.31
   0   8   8    0.41    0.26
   0  -8  -8    0.86    0.63
   0   9  -4    0.46    0.46
   0   9  -3    0.99    0.56
   0   9  -2    0.47    0.36
   0   9  -1   -0.19    0.32
   0  -9   1    0.32    0.40
   0  -9   0    2.58    0.75
   0   9   0    1.18    0.48
   0  -9  -1    0.00    0.29
   0  -9  -2   -0.50    0.51
   0  -9  -2    0.60    0.45
   0   9   2    0.16    0.32
   0  -9  -3   15.82    1.80
   0  -9  -3   14.64    1.62
   0   9   3   13.47    1.36
   0   9   3   14.26    1.55
   0   9   4    9.30    1.32
   0  -9  -4    9.01    1.46
   0   9   4    6.45    1.05
   0  -9  -4    7.06    1.19
   0  -9  -5   -0.12    0.41
   0   9   5    0.12    0.32
   0   9   6    0.01    0.44
   0  10  -2    5.55    1.05
   0  10  -1    3.08    0.76
   0  10   4    1.21    0.52
  -1   9   5   -0.25    0.26
  -1   9   4   -0.12    0.26
  -1   9   3    0.04    0.24
   1  -9  -3    0.97    0.56
  -1   9   3   -0.79    0.67
   1  -9  -3   -0.08    0.36
   1  -9  -2    0.56    0.61
  -1   9   2   -0.36    0.37
   1  -9  -2    0.48    0.40
   1  -9  -1    0.53    0.42
   1  -9  -1   -0.02    0.36
  -1   9   1    0.24    0.32
   1  -9   0    1.94    0.70
   1  -9   0    1.35    0.47
  -1   9   0    2.14    0.67
  -1   9  -1   -0.21    0.35
  -1   9  -2    0.34    0.30
  -1   9  -3    2.49    0.74
  -1   9  -4    1.31    0.57
   1  -8  -7    4.74    1.02
  -1   8   7    3.62    0.80
  -1   8   6    1.75    0.59
  -1   8   5    2.66    0.64
  -1   8   5    3.83    0.87
   1  -8  -5    1.16    0.60
  -1   8   4    2.29    0.76
   1  -8  -4    2.78    0.80
  -1   8   4    2.34    0.61
   1  -8  -4    1.55    0.71
   1  -8  -3   10.66    1.37
   1  -8  -3   11.64    1.36
  -1   8   3   13.04    1.24
  -1   8   3   13.08    1.46
   1  -8  -2   29.62    2.15
  -1   8   2   33.67    1.91
   1  -8  -2   34.89    2.26
  -1   8   2   31.15    2.03
   1  -8  -1    6.81    1.00
   1  -8  -1    6.94    1.03
  -1   8   1    6.54    0.95
  -1   8   0    7.79    1.04
   1  -8   0    7.26    1.00
   1  -8   0    8.99    1.16
   1  -8   1   20.94    1.64
  -1   8  -1   21.44    1.55
  -1   8  -1   20.68    1.57
  -1   8  -2    3.08    0.63
  -1   8  -2    3.28    0.68
   1  -8   2    4.03    0.73
  -1   8  -3    0.19    0.40
  -1   8  -4    6.02    0.94
  -1   8  -5    6.97    1.07
   1  -7  -8    2.11    0.81
  -1   7   8    1.48    0.64
  -1   7   7    2.66    0.78
   1  -7  -7    2.24    0.77
  -1   7   6    0.90    0.49
   1  -7  -6    0.84    0.62
  -1   7   6    0.97    0.52
   1  -7  -5    1.06    0.50
  -1   7   5    0.66    0.42
  -1   7   5    1.44    0.59
   1  -7  -5    0.73    0.41
   1  -7  -4    1.79    0.56
   1  -7  -4    2.03    0.65
  -1   7   4    1.43    0.53
  -1   7   4    1.26    0.51
  -1   7   3    1.60    0.59
   1  -7  -3    1.58    0.45
   1  -7  -3    1.65    0.57
  -1   7   3    1.38    0.47
   1  -7  -2    0.12    0.24
   1  -7  -2   -0.28    0.30
  -1   7   2   -0.41    0.29
  -1   7   2    0.46    0.29
   1  -7  -1    0.02    0.24
  -1   7   1    0.45    0.25
  -1   7   1    0.59    0.42
   1  -7  -1   -0.13    0.32
  -1   7   0   20.14    1.39
   1  -7   0   22.17    1.62
  -1   7   0   21.79    1.62
  -1   7  -1   27.54    1.67
  -1   7  -1   27.83    1.80
   1  -7   1   28.08    1.82
  -1   7  -2    1.43    0.42
   1  -7   2    1.19    0.40
  -1   7  -2    1.27    0.46
  -1   7  -3    1.60    0.48
   1  -7   3    2.44    0.58
  -1   7  -3    1.13    0.40
  -1   7  -4    8.84    1.10
   1  -7   4    8.11    1.00
  -1   7  -4    8.29    1.01
  -1   7  -5   16.90    1.59
  -1   7  -6   16.06    1.65
  -1   7  -7   24.78    2.10
   1  -6  -9    0.47    0.53
  -1   6   9    0.68    0.45
  -1   6   8    0.99    0.54
   1  -6  -8    0.76    0.49
  -1   6   7   23.57    2.06
  -1   6   7   20.56    1.67
   1  -6  -7   26.03    2.22
   1  -6  -7   27.34    2.06
  -1   6   6   34.57    2.39
   1  -6  -6   36.96    2.51
   1  -6  -6   37.90    2.28
   1  -6  -5    8.76    1.08
   1  -6  -5    6.49    1.00
  -1   6   5    8.17    1.10
   1  -6  -4   11.91    1.28
   1  -6  -4   11.93    1.23
  -1   6   4   12.06    1.27
  -1   6   3    5.57    0.87
   1  -6  -3    5.37    0.82
   1  -6  -3    5.41    0.76
   1  -6  -2   54.52    2.34
   1  -6  -2   54.51    2.41
  -1   6   2   51.49    2.22
   1  -6  -1  155.22    4.11
  -1   6   1  157.03    4.15
  -1   6   1  152.69    3.45
   1  -6  -1  167.56    4.31
  -1   6   0   30.97    1.72
   1  -6   0   32.41    1.81
  -1   6   0   32.31    1.58
  -1   6  -1   31.69    1.75
  -1   6  -1   29.59    1.58
   1  -6   1   30.41    1.74
  -1   6  -2   70.62    2.59
  -1   6  -2   72.42    2.63
   1  -6   2   75.92    2.77
  -1   6  -3    7.11    0.89
   1  -6   3    6.98    0.86
  -1   6  -3    6.33    0.81
  -1   6  -4    1.61    0.50
  -1   6  -4    1.37    0.46
   1  -6   4    1.42    0.43
   1  -6   5    3.36    0.66
  -1   6  -5    4.48    0.82
  -1   6  -5    3.91    0.66
  -1   6  -5    3.54    0.64
  -1   6  -6    9.25    1.17
  -1   6  -7    2.86    0.71
  -1   6  -8    5.27    0.98
   1  -5 -10    0.85    0.45
  -1   5   9    0.54    0.52
   1  -5  -9    0.04    0.33
  -1   5   8    1.80    0.59
   1  -5  -8    2.26    0.75
   1  -5  -8    2.44    0.69
  -1   5   8    2.25    0.78
   1  -5  -7    6.45    1.05
  -1   5   7    6.72    1.03
   1  -5  -7    8.31    1.08
   1  -5  -6    2.08    0.55
  -1   5   6    1.90    0.53
   1  -5  -6    2.06    0.58
   1  -5  -5    0.52    0.36
  -1   5   5    0.52    0.30
   1  -5  -5    0.84    0.41
  -1   5   4   -0.23    0.32
   1  -5  -4   -0.15    0.24
   1  -5  -4    0.21    0.25
   1  -5  -3    1.36    0.45
   1  -5  -3    1.36    0.41
  -1   5   3    1.76    0.46
   1  -5  -2   32.06    1.69
   1  -5  -2   32.06    1.59
  -1   5   2   29.79    1.56
  -1   5   1    5.06    0.69
   1  -5  -1    5.74    0.75
  -1   5   1    5.02    0.55
   1  -5  -1    4.67    0.67
  -1   5   0    2.32    0.37
   1  -5   0    2.70    0.50
  -1   5   0    2.58    0.48
  -1   5  -1  198.22    3.89
  -1   5  -1  206.99    4.25
   1  -5   1  212.02    4.37
   1  -5   2  184.51    4.02
  -1   5  -2  180.29    3.91
  -1   5  -2  181.42    3.91
  -1   5  -3    9.92    0.96
  -1   5  -3    8.54    0.86
   1  -5   3    9.05    0.89
  -1   5  -4    5.24    0.77
  -1   5  -4    4.58    0.65
  -1   5  -4    5.18    0.64
   1  -5   4    4.36    0.63
  -1   5  -5   32.11    1.79
   1  -5   5   30.72    1.78
  -1   5  -5   33.12    1.94
  -1   5  -5   31.92    1.64
   1  -5   6   53.79    2.55
  -1   5  -6   51.21    2.36
  -1   5  -6   53.39    2.62
   1  -5   7   35.99    2.23
  -1   5  -7   29.10    1.80
  -1   5  -7   34.61    2.19
  -1   5  -8   66.58    3.18
  -1   5  -9   47.00    2.77
   1  -4 -10   -0.19    0.41
   1  -4  -9    4.17    0.91
   1  -4  -9    3.44    0.75
  -1   4   9    5.91    1.32
   1  -4  -8    0.81    0.39
  -1   4   8    0.90    0.43
  -1   4   8    1.41    0.45
   1  -4  -8    1.33    0.52
   1  -4  -7   15.75    1.41
  -1   4   7   15.54    1.48
   1  -4  -7   16.34    1.52
   1  -4  -6  136.28    4.20
  -1   4   6  126.56    3.98
   1  -4  -6  139.56    3.94
   1  -4  -5  195.83    4.80
   1  -4  -5  185.42    4.34
   1  -4  -5  197.82    4.27
  -1   4   4   98.76    3.14
   1  -4  -4  103.14    3.20
   1  -4  -3   39.82    1.85
   1  -4  -3   42.24    1.77
  -1   4   3   38.74    1.84
  -1   4   2    2.16    0.29
   1  -4  -2    2.53    0.47
  -1   4   2    2.30    0.43
   1  -4  -2    2.26    0.39
   1  -4  -1  191.03    3.82
  -1   4   1  184.86    2.99
  -1   4   1  190.25    3.79
   1  -4   0  493.34    5.28
  -1   4   0  486.19    5.78
   1  -4   0  514.35    6.66
  -1   4   0  509.94    6.63
  -1   4  -1   61.10    1.86
   1  -4   1   62.50    2.06
  -1   4  -1   55.06    1.80
  -1   4  -2   65.12    2.09
   1  -4   2   68.25    2.22
  -1   4  -2   65.99    2.13
  -1   4  -3  163.59    3.65
  -1   4  -3  165.13    3.56
   1  -4   3  166.91    3.62
  -1   4  -3  161.41    3.17
   1  -4   4    4.17    0.61
  -1   4  -4    3.86    0.51
  -1   4  -4    2.70    0.46
  -1   4  -4    3.75    0.55
   1  -4   5    1.48    0.42
  -1   4  -5    1.54    0.45
  -1   4  -5    1.46    0.36
  -1   4  -5    0.95    0.32
  -1   4  -5    1.31    0.35
   1  -4   6    0.34    0.27
  -1   4  -6   -0.06    0.23
  -1   4  -6   -0.58    0.46
  -1   4  -6    0.09    0.22
  -1   4  -7    0.93    0.41
  -1   4  -7    0.09    0.39
   1  -4   7    1.07    0.41
  -1   4  -8   16.63    1.49
   1  -4   8   18.60    1.65
  -1   4  -8   17.17    1.50
  -1   4  -8   17.54    1.57
  -1   4  -9   13.26    1.41
  -1   4 -10    0.85    0.44
   1  -3 -10    9.24    1.26
   1  -3  -9    6.47    1.10
  -1   3   9    7.11    1.29
   1  -3  -9    5.83    1.08
  -1   3   9    5.32    0.99
   1  -3  -9    5.17    0.86
   1  -3  -8    0.90    0.50
  -1   3   8    0.08    0.58
   1  -3  -8   -0.21    0.26
   1  -3  -7    8.45    1.09
   1  -3  -7    7.58    0.93
  -1   3   7    8.63    1.16
   1  -3  -6    0.88    0.42
  -1   3   6    0.56    0.31
   1  -3  -6    0.85    0.32
   1  -3  -5    0.11    0.21
   1  -3  -5   -0.18    0.23
   1  -3  -5    0.02    0.18
  -1   3   5   -0.07    0.25
   1  -3  -5    0.33    0.28
   1  -3  -4    0.76    0.32
   1  -3  -4    0.04    0.18
   1  -3  -4    0.22    0.21
  -1   3   4    0.19    0.17
   1  -3  -4    0.25    0.21
   1  -3  -3   28.03    1.24
   1  -3  -3   25.82    1.36
  -1   3   3   24.82    1.34
   1  -3  -3   29.52    1.12
   1  -3  -2    0.05    0.12
   1  -3  -2    0.04    0.20
  -1   3   2    0.29    0.18
   1  -3  -1  310.46    4.56
  -1   3   1  311.38    4.57
  -1   3   0   45.81    1.28
   1  -3   0   47.16    1.58
  -1   3   0   47.97    1.59
  -1   3  -1   24.73    1.05
   1  -3   1   26.23    1.19
  -1   3  -1   25.57    1.15
  -1   3  -2  936.15    9.24
   1  -3   2  926.84    9.32
  -1   3  -3  654.33    7.63
  -1   3  -3  630.41    6.54
  -1   3  -3  540.43    6.68
  -1   3  -3  531.81    6.44
  -1   3  -4   30.49    1.27
  -1   3  -4   33.18    1.53
  -1   3  -4   28.86    1.42
  -1   3  -4   34.02    1.61
   1  -3   4   32.87    1.55
  -1   3  -5    9.72    0.88
  -1   3  -5   10.14    0.78
  -1   3  -5    9.29    0.89
   1  -3   5   11.75    1.03
  -1   3  -5   10.32    0.95
  -1   3  -6   73.07    2.56
   1  -3   6   78.89    2.81
  -1   3  -6   76.58    2.36
  -1   3  -6   78.72    2.78
  -1   3  -7   81.93    2.97
  -1   3  -7   83.78    3.06
   1  -3   7   86.61    3.19
   1  -3   8   35.84    2.19
  -1   3  -8   29.00    1.78
  -1   3  -8   35.16    2.08
  -1   3  -8   33.92    2.03
  -1   3  -9   92.36    3.60
  -1   3  -9   91.17    3.61
   1  -3   9   94.31    3.80
  -1   3  -9   80.90    3.27
  -1   3 -10   54.09    2.81
   1  -2 -10   23.78    1.72
   1  -2  -9    1.79    0.57
  -1   2   9    1.98    0.67
   1  -2  -9    1.13    0.57
   1  -2  -9    0.82    0.41
  -1   2   9    2.00    0.67
  -1   2   8    3.31    0.82
   1  -2  -8    3.26    0.72
   1  -2  -8    2.46    0.54
   1  -2  -8    3.85    0.80
  -1   2   8    3.27    0.70
   1  -2  -7    9.87    1.08
   1  -2  -7    9.15    1.09
  -1   2   7   12.22    1.45
  -1   2   6  125.25    3.84
   1  -2  -6  117.26    3.58
   1  -2  -6  120.79    3.42
   1  -2  -5  320.82    5.46
   1  -2  -5  308.40    5.01
   1  -2  -5  315.54    5.49
   1  -2  -4  572.55    7.23
   1  -2  -4  594.43    7.57
  -1   2   4  562.69    7.36
   1  -2  -4  604.03    6.99
   1  -2  -4  618.18    6.66
  -1   2   3  635.98    7.42
   1  -2  -3  672.12    7.62
   1  -2  -3  683.09    6.98
   1  -2  -3  688.35    6.75
   1  -2  -3  653.16    7.37
  -1   2   2   45.51    1.48
   1  -2  -2   49.53    1.54
   1  -2  -2   53.07    1.33
   1  -2  -2   50.14    1.33
  -1   2   1    4.44    0.44
   1  -2  -1    4.62    0.44
  -1   2   0  439.03    5.02
   1  -2   0  461.43    5.16
  -1   2  -1 1110.27    9.55
  -1   2  -1 1137.83    9.98
   1  -2   1 1137.92   10.02
  -1   2  -2   35.02    1.19
  -1   2  -2   37.81    1.25
  -1   2  -2   39.19    1.36
  -1   2  -2   39.49    1.06
   1  -2   2   41.96    1.44
  -1   2  -3   94.89    1.87
  -1   2  -3   98.19    2.37
  -1   2  -3   94.21    2.22
  -1   2  -3   85.97    2.13
   1  -2   3  105.52    2.51
   1  -2   4  224.08    3.99
  -1   2  -4  209.28    3.21
  -1   2  -4  185.70    3.55
  -1   2  -4  224.10    3.99
  -1   2  -4  198.45    3.58
  -1   2  -5    0.49    0.20
  -1   2  -5    0.29    0.23
  -1   2  -5    0.58    0.32
   1  -2   5    0.50    0.27
  -1   2  -5    1.17    0.39
  -1   2  -6    2.63    0.54
  -1   2  -6    2.21    0.48
  -1   2  -6    1.94    0.34
   1  -2   6    1.94    0.45
  -1   2  -6    1.99    0.41
   1  -2   7    9.04    1.01
  -1   2  -7    7.42    0.92
  -1   2  -7    8.46    0.95
  -1   2  -7    6.88    0.80
  -1   2  -8    4.19    0.72
  -1   2  -8    4.40    0.77
  -1   2  -8    3.93    0.64
   1  -2   8    4.34    0.76
  -1   2  -9   36.76    2.05
   1  -2   9   48.02    2.69
  -1   2  -9   44.68    2.43
  -1   2  -9   39.07    2.18
   1  -2  10   21.49    1.94
  -1   2 -10   19.51    1.69
  -1   2 -10   17.88    1.49
   1  -1 -10   12.56    1.35
   1  -1  -9   23.51    1.83
   1  -1  -9   21.70    1.58
  -1   1   9   27.50    2.08
   1  -1  -8   14.20    1.20
  -1   1   8   16.61    1.49
   1  -1  -8   17.02    1.49
   1  -1  -7    3.95    0.70
  -1   1   7    3.36    0.71
  -1   1   7    3.44    0.64
   1  -1  -7    3.85    0.62
   1  -1  -7    4.04    0.71
   1  -1  -6    6.21    0.76
  -1   1   6    7.16    0.88
   1  -1  -6    5.59    0.77
   1  -1  -6    5.83    0.69
   1  -1  -5   48.26    1.58
   1  -1  -5   48.01    1.96
   1  -1  -5   45.64    1.85
   1  -1  -4   12.22    0.89
   1  -1  -4   13.23    0.89
  -1   1   4   10.91    0.81
   1  -1  -4   12.90    0.89
   1  -1  -4   12.43    0.71
   1  -1  -3    2.53    0.36
  -1   1   3    2.02    0.32
   1  -1  -3    2.42    0.37
   1  -1  -3    1.90    0.33
   1  -1  -3    2.22    0.28
   1  -1  -2  443.45    5.01
   1  -1  -2  453.61    4.24
   1  -1  -2  460.47    5.07
   1  -1  -2  460.87    4.87
  -1   1   1    2.34    0.26
   1  -1  -1    2.40    0.27
   1  -1  -1    2.69    0.22
  -1   1   0 1740.37   13.58
   1  -1   0 1879.34   13.82
   1  -1   1  238.17    2.99
  -1   1  -1  215.15    2.73
  -1   1  -2  112.01    2.03
   1  -1   2  119.97    2.17
  -1   1  -2  114.20    2.13
  -1   1  -3 1775.25   14.89
  -1   1  -3 1824.78   14.98
   1  -1   4 1040.98   10.18
  -1   1  -4 1012.38   10.00
  -1   1  -4 1014.25    8.89
  -1   1  -5   63.11    2.04
  -1   1  -5   68.43    1.83
   1  -1   5   72.21    2.35
  -1   1  -5   68.22    2.22
   1  -1   6    9.10    0.95
  -1   1  -6    7.84    0.69
  -1   1  -6    7.54    0.80
  -1   1  -6    7.41    0.76
  -1   1  -7   99.29    3.20
  -1   1  -7   94.17    2.92
  -1   1  -8   66.96    2.81
  -1   1  -8   63.52    2.60
   1  -1   8   68.74    2.94
  -1   1  -9   16.98    1.41
  -1   1  -9   20.35    1.58
   1  -1   9   19.40    1.64
  -1   1  -9   20.53    1.65
   1  -1  10   70.89    3.35
  -1   1 -10   66.88    3.22
   1   0 -10   72.81    2.84
   1   0  -9  109.36    3.55
  -1   0   8    5.65    1.09
   1   0  -8    7.93    0.91
   1   0  -7    0.01    0.18
   1   0  -7   -0.44    0.26
   1   0  -6   48.93    1.85
  -1   0   6   49.35    2.38
   1   0  -5  327.82    4.20
   1   0  -5  309.97    4.72
  -1   0   5  268.83    5.61
   1   0  -5  455.20    5.50
   1   0  -5  455.11    5.64
   1   0  -4  410.13    4.85
   1   0  -4  379.88    5.55
  -1   0   4  387.56    5.71
   1   0  -4  345.69    4.17
   1   0  -4  433.30    5.43
   1   0  -3 1443.20   11.14
   1   0  -3 1518.02   10.50
  -1   0   3 1256.78   12.23
   1   0  -3 1271.74    9.55
  -1   0   2 1802.93   12.73
   1   0  -2 1738.61   13.66
   1   0  -1    2.36    0.25
  -1   0   1    1.67    0.25
  -1   0  -1  675.76    4.38
  -1   0  -1  687.61    4.45
  -1   0  -2 1388.70    9.59
  -1   0  -2 1331.79    9.63
  -1   0  -3   26.19    0.82
  -1   0  -3   26.73    0.92
   1   0   4   19.01    1.42
  -1   0  -4   25.11    0.82
  -1   0  -4   39.50    1.14
  -1   0  -4   45.97    1.31
  -1   0  -5  183.42    3.08
   1   0   5  132.29    3.75
  -1   0  -5  165.71    3.47
  -1   0  -5  177.16    2.42
   1   0   5  139.62    2.64
  -1   0  -6    5.09    0.50
  -1   0  -6    6.85    0.67
  -1   0  -6    6.20    0.58
  -1   0  -7    0.25    0.22
   1   0   7    0.80    0.44
  -1   0  -8   16.23    1.05
   1   0   8   11.49    1.35
   1   0   9   13.57    1.58
  -1   0  -9   15.26    1.25
   1   0  10   46.47    3.42
  -1   0 -10   61.31    3.03
   1   1 -10    7.39    1.04
   1   1  -9   12.09    1.27
   1   1  -8   49.13    2.40
   1   1  -7   19.54    1.39
  -1  -1   7   20.24    1.45
   1   1  -7   19.18    1.39
   1   1  -6   29.16    1.61
  -1  -1   6   30.89    1.67
   1   1  -6   27.56    1.50
   1   1  -5    1.86    0.34
   1   1  -5    2.38    0.43
   1   1  -5    1.25    0.24
  -1  -1   5    1.93    0.37
   1   1  -5    2.11    0.42
   1   1  -4  338.10    4.72
  -1  -1   4  355.19    5.00
   1   1  -4  340.43    4.32
   1   1  -4  343.69    4.80
   1   1  -3   31.27    1.11
   1   1  -3   32.20    1.35
  -1  -1   3   33.35    1.20
   1   1  -3   31.32    1.25
   1   1  -3   34.47    1.18
   1   1  -3   33.54    1.03
   1   1  -2   54.77    1.20
   1   1  -2   55.66    1.32
  -1  -1   2   59.28    1.33
   1   1  -2   52.25    1.44
   1   1  -2   54.24    1.11
  -1  -1  -1 1730.19   14.13
   1   1   1 2094.86   14.07
  -1  -1  -2  300.40    3.73
  -1  -1  -2  309.66    3.69
  -1  -1  -2  304.23    3.69
   1   1   2  314.84    3.70
  -1  -1  -3  483.97    5.57
   1   1   3  497.79    5.68
   1   1   3  480.44    5.07
  -1  -1  -3  487.20    5.65
  -1  -1  -4 1452.64   13.18
   1   1   4 1480.53   13.33
  -1  -1  -4 1437.97   11.98
  -1  -1  -4 1428.25   13.21
   1   1   4 1443.51   12.29
  -1  -1  -5  529.45    7.08
   1   1   5  545.32    7.29
   1   1   5  578.11    6.53
  -1  -1  -5  536.89    6.21
  -1  -1  -5  565.95    7.15
  -1  -1  -6   61.21    2.21
   1   1   6   61.31    1.86
  -1  -1  -6   52.44    1.69
  -1  -1  -6   56.64    2.15
   1   1   6   65.28    2.49
  -1  -1  -7    3.52    0.49
   1   1   7    4.66    0.71
  -1  -1  -7    4.03    0.60
  -1  -1  -7    4.02    0.64
  -1  -1  -8   55.18    2.55
   1   1   8   60.49    2.80
  -1  -1  -8   52.36    2.23
   1   1   9   24.97    1.93
  -1  -1  -9   20.11    1.45
  -1  -1  -9   22.20    1.73
   1   1  10    7.46    1.15
  -1  -1 -10    7.19    1.08
   1   2 -10   14.62    1.60
   1   2  -9  116.74    4.08
   1   2  -8  129.91    4.12
   1   2  -7   22.75    1.57
   1   2  -6    3.12    0.61
   1   2  -6    3.31    0.56
   1   2  -6    2.95    0.53
  -1  -2   6    3.77    0.61
   1   2  -5  129.92    3.22
   1   2  -5  128.03    3.30
   1   2  -5  126.71    3.00
   1   2  -5  128.30    2.90
  -1  -2   5  137.56    3.34
   1   2  -4  394.28    5.13
   1   2  -4  398.35    5.64
   1   2  -4  381.22    5.69
   1   2  -4  390.86    5.20
   1   2  -3  211.49    3.64
   1   2  -3  207.83    3.11
  -1  -2   3  211.11    3.21
   1   2  -3  217.46    3.62
   1   2  -2 1376.24   11.80
  -1  -2   2 1367.02   10.99
   1   2  -2 1324.50   10.72
   1   2  -2 1343.84   11.88
   1   2  -1 1375.73   11.35
   1   2  -1 1390.05   11.43
   1   2  -1 1352.04   10.22
  -1  -2   0    6.40    0.43
   1   2   0    7.43    0.47
   1   2   0    6.70    0.45
  -1  -2  -1    0.16    0.11
   1   2   1   -0.01    0.11
  -1  -2  -1    0.14    0.14
   1   2   1    0.41    0.15
   1   2   2  435.42    4.79
  -1  -2  -2  432.99    4.69
   1   2   2  427.88    4.62
   1   2   2  448.23    4.76
  -1  -2  -2  424.21    4.94
  -1  -2  -3  329.42    4.54
   1   2   3  320.84    4.35
  -1  -2  -3  318.18    4.41
   1   2   4  176.83    3.41
  -1  -2  -4  169.55    3.35
  -1  -2  -5    0.53    0.23
   1   2   5    0.80    0.35
   1   2   5    0.97    0.37
  -1  -2  -5    0.69    0.28
   1   2   5    0.47    0.19
  -1  -2  -5    0.10    0.19
  -1  -2  -5    0.48    0.18
  -1  -2  -6   38.11    1.91
  -1  -2  -6   38.85    1.92
   1   2   6   36.95    1.87
   1   2   6   39.11    1.70
   1   2   6   41.11    2.08
  -1  -2  -6   35.52    1.53
  -1  -2  -6   36.88    1.76
  -1  -2  -7    6.37    0.83
   1   2   7    4.83    0.60
  -1  -2  -7    5.66    0.70
  -1  -2  -7    5.22    0.76
   1   2   7    5.96    0.83
  -1  -2  -8    0.74    0.37
   1   2   8    0.09    0.27
  -1  -2  -8    0.05    0.22
  -1  -2  -9    5.78    0.91
   1   2   9    6.21    1.03
  -1  -2  -9    4.97    0.72
   1   2  10   12.88    1.50
  -1  -2 -10   11.61    1.35
   1   3  -9    0.78    0.45
   1   3  -8    3.23    0.63
   1   3  -7   47.96    2.28
   1   3  -7   51.13    2.43
   1   3  -6    5.21    0.75
   1   3  -6    5.47    0.76
   1   3  -5   45.47    2.02
   1   3  -5   45.35    1.99
   1   3  -4   38.00    1.71
   1   3  -4   35.87    1.61
  -1  -3   4   35.81    1.46
   1   3  -4   33.88    1.32
   1   3  -3  433.63    6.00
   1   3  -3  435.16    5.15
   1   3  -2   96.02    2.38
   1   3  -2   95.30    2.31
   1   3  -2   88.14    1.75
  -1  -3   1  228.67    2.98
   1   3  -1  232.80    2.93
   1   3  -1  227.76    3.58
   1   3  -1  227.61    3.59
   1   3   0  366.97    4.62
  -1  -3   0  366.39    4.69
   1   3   0  376.72    4.59
   1   3   0  378.45    4.22
  -1  -3   0  360.79    3.87
   1   3   0  360.08    3.83
   1   3   1   10.01    0.65
  -1  -3  -1    9.82    0.54
   1   3   1   10.98    0.65
   1   3   1   10.39    0.55
  -1  -3  -1    9.91    0.66
  -1  -3  -2  232.40    3.43
   1   3   2  228.21    3.55
   1   3   2  231.96    3.32
   1   3   2  232.06    3.49
  -1  -3  -2  225.84    3.71
   1   3   3  146.31    2.88
  -1  -3  -3  153.29    3.09
  -1  -3  -3  148.09    2.93
   1   3   3  147.13    2.75
   1   3   3  144.26    3.05
   1   3   4  365.35    5.72
  -1  -3  -4  341.56    5.24
   1   3   4  337.43    5.15
  -1  -3  -4  366.21    5.49
   1   3   5  505.37    7.40
   1   3   5  502.24    7.37
  -1  -3  -6  153.01    4.01
  -1  -3  -6  150.52    3.42
  -1  -3  -6  158.85    3.85
   1   3   7   23.72    1.49
  -1  -3  -7   25.17    1.61
  -1  -3  -7   22.80    1.38
  -1  -3  -7   23.12    1.64
  -1  -3  -7   24.46    1.72
   1   3   7   25.86    1.79
  -1  -3  -8    2.59    0.58
   1   3   8    2.83    0.70
   1   3   8    2.20    0.56
  -1  -3  -8    2.70    0.61
  -1  -3  -8    2.55    0.53
  -1  -3  -8    2.68    0.65
   1   3   9   15.94    1.59
  -1  -3  -9   16.44    1.47
  -1  -3  -9   16.77    1.59
   1   3  10    2.73    0.76
  -1  -3 -10    3.33    0.74
   1   4  -9   23.67    1.92
   1   4  -8  129.00    4.29
   1   4  -7  101.88    3.64
   1   4  -7  109.46    3.75
   1   4  -6   22.03    1.55
   1   4  -6   21.36    1.57
   1   4  -5    2.05    0.48
   1   4  -5    2.77    0.61
   1   4  -4   85.22    2.80
   1   4  -4   82.56    2.65
   1   4  -3  163.79    3.74
   1   4  -3  164.74    3.61
  -1  -4   3  167.58    3.26
   1   4  -2  159.38    3.35
   1   4  -2  163.45    3.47
   1   4  -2  168.13    2.87
  -1  -4   2  165.26    2.89
   1   4  -1  398.93    5.60
   1   4  -1  395.00    5.44
   1   4  -1  391.88    4.66
  -1  -4   1  405.49    4.81
  -1  -4   0  105.18    2.74
  -1  -4   0  107.77    2.16
   1   4   0  109.89    2.59
   1   4   0  110.51    2.15
   1   4   0  115.43    2.31
   1   4   0  115.09    2.59
  -1  -4  -1    4.89    0.47
  -1  -4  -1    4.50    0.52
   1   4   1    5.37    0.50
   1   4   1    4.63    0.43
   1   4   1    4.94    0.52
  -1  -4  -2    6.16    0.65
   1   4   2    6.49    0.61
   1   4   2    6.06    0.59
   1   4   2    6.61    0.58
  -1  -4  -2    6.28    0.58
  -1  -4  -3  136.00    3.21
   1   4   3  132.30    3.13
   1   4   3  138.15    2.90
  -1  -4  -3  129.77    2.98
   1   4   3  129.22    2.87
   1   4   4   18.45    1.16
   1   4   4   19.22    1.09
  -1  -4  -4   19.03    1.20
   1   4   4   20.09    1.31
  -1  -4  -4   19.15    1.23
   1   4   5   89.59    2.78
  -1  -4  -5   91.71    2.88
   1   4   5  103.10    3.29
  -1  -4  -5  107.46    3.15
   1   4   6    4.40    0.69
   1   4   6    5.28    0.76
  -1  -4  -6    4.95    0.73
  -1  -4  -6    4.37    0.69
   1   4   7    1.58    0.56
  -1  -4  -7    1.98    0.60
  -1  -4  -7    2.46    0.56
   1   4   7    0.66    0.31
  -1  -4  -7    1.48    0.43
  -1  -4  -8    1.74    0.58
   1   4   8    1.30    0.38
  -1  -4  -8    1.89    0.48
  -1  -4  -8    1.52    0.46
   1   4   8    2.23    0.75
  -1  -4  -8    1.04    0.56
   1   4   8    1.41    0.72
  -1  -4  -9    0.26    0.24
  -1  -4  -9   -0.44    0.44
   1   4   9    0.03    0.50
  -1  -4  -9    0.84    0.49
   1   4   9   -0.07    0.27
   1   5  -8    0.97    0.38
   1   5  -8    1.19    0.47
   1   5  -7   -0.19    0.40
   1   5  -7    0.21    0.27
   1   5  -6   23.68    1.71
   1   5  -6   24.53    1.80
   1   5  -5    0.08    0.23
   1   5  -5    0.44    0.31
   1   5  -4   20.12    1.45
   1   5  -4   19.61    1.38
   1   5  -3   37.77    1.88
   1   5  -3   36.58    1.78
   1   5  -2  188.52    4.12
   1   5  -2  182.62    3.91
   1   5  -1  136.84    2.77
   1   5  -1  130.96    3.25
  -1  -5   1  131.66    2.75
   1   5  -1  125.34    3.11
   1   5   0  166.61    3.13
   1   5   0  160.16    3.06
  -1  -5   0  157.57    3.06
  -1  -5   0  165.95    3.77
   1   5   0  157.95    3.50
   1   5   1   53.75    1.92
  -1  -5  -1   48.41    1.65
   1   5   1   46.82    1.57
  -1  -5  -1   48.17    1.90
   1   5   1   48.32    1.69
  -1  -5  -2    3.08    0.45
  -1  -5  -2    2.65    0.51
   1   5   2    3.04    0.46
   1   5   2    2.44    0.40
   1   5   2    3.16    0.49
  -1  -5  -3   25.24    1.37
   1   5   3   25.27    1.32
   1   5   3   23.21    1.36
   1   5   3   26.24    1.39
  -1  -5  -3   28.16    1.61
   1   5   4   52.44    1.95
   1   5   4   49.53    2.06
   1   5   4   50.80    2.24
  -1  -5  -4   53.37    2.18
  -1  -5  -4   53.96    2.29
   1   5   5  105.02    2.85
  -1  -5  -5  102.43    3.23
   1   5   5  101.42    3.15
  -1  -5  -5  110.68    3.40
  -1  -5  -6   76.59    2.96
   1   5   6   77.70    2.96
   1   5   6   74.59    3.02
  -1  -5  -6   86.02    3.20
   1   5   7   25.01    1.78
   1   5   7   29.49    2.01
  -1  -5  -7   27.40    1.88
  -1  -5  -7   28.63    1.78
  -1  -5  -7   29.64    1.98
  -1  -5  -8    2.86    0.67
  -1  -5  -8    3.24    0.66
   1   5   8    4.31    0.99
   1   5   8    2.17    0.52
  -1  -5  -8    3.39    0.78
   1   5   9    1.40    0.55
   1   5   9    1.68    0.52
   1   5   9    1.82    0.68
  -1  -5  -9    1.21    0.50
  -1  -5  -9    1.56    0.59
  -1  -5  -9    2.46    0.71
   1   6  -8   18.41    1.77
   1   6  -8   17.94    1.75
   1   6  -7   74.47    3.42
   1   6  -7   74.55    3.46
   1   6  -6   53.35    2.81
   1   6  -6   52.70    2.66
   1   6  -5    5.28    0.87
   1   6  -5    4.83    0.75
   1   6  -4    0.06    0.26
   1   6  -4   -0.16    0.40
   1   6  -3   10.70    1.08
   1   6  -3   10.19    1.00
   1   6  -2   36.70    1.94
   1   6  -2   35.32    1.82
   1   6  -1   84.77    2.78
   1   6  -1   88.47    2.90
  -1  -6   0   46.62    2.18
   1   6   0   48.20    2.06
   1   6   0   47.92    1.75
  -1  -6   0   45.85    1.80
   1   6   0   47.91    1.84
   1   6   1    0.15    0.20
  -1  -6  -1    0.16    0.18
  -1  -6  -1    0.29    0.18
   1   6   1    0.46    0.23
   1   6   1    0.27    0.20
  -1  -6  -2    5.05    0.74
  -1  -6  -2    4.92    0.63
   1   6   2    5.23    0.65
   1   6   2    4.56    0.63
   1   6   2    4.36    0.57
  -1  -6  -3    1.68    0.43
   1   6   3    1.65    0.43
  -1  -6  -3    1.90    0.52
   1   6   3    1.67    0.45
   1   6   3    1.19    0.34
  -1  -6  -4   31.11    1.93
   1   6   4   30.58    1.63
   1   6   4   28.98    1.67
  -1  -6  -4   29.86    1.76
   1   6   4   28.99    1.76
  -1  -6  -5    0.38    0.23
  -1  -6  -5    0.30    0.36
   1   6   5   -0.01    0.28
   1   6   5    0.52    0.35
  -1  -6  -6   29.66    1.92
   1   6   6   28.95    2.01
   1   6   6   28.49    1.86
  -1  -6  -6   33.38    2.13
  -1  -6  -7    2.01    0.53
   1   6   7    2.04    0.59
   1   6   7    1.58    0.44
  -1  -6  -7    1.98    0.60
   1   6   8    0.01    0.25
  -1  -6  -8    0.11    0.31
   1   6   8    0.18    0.38
  -1  -6  -8    0.28    0.30
  -1  -6  -8   -0.04    0.34
   1   6   9    0.00    0.29
  -1  -6  -9    0.61    0.40
  -1  -6  -9    0.07    0.28
   1   6  10   -0.50    0.49
   1   7  -7    3.76    0.84
   1   7  -6    1.41    0.44
   1   7  -6    0.87    0.33
   1   7  -5    3.58    0.74
   1   7  -5    3.13    0.64
   1   7  -4   -0.15    0.37
   1   7  -4   -0.77    0.38
   1   7  -3    1.85    0.51
   1   7  -3    2.02    0.55
   1   7  -2   12.29    1.23
   1   7  -2   12.30    1.19
  -1  -7   1   46.61    2.54
   1   7  -1   49.88    2.38
   1   7   0   62.47    2.56
  -1  -7   0   62.46    2.77
   1   7   1   46.27    2.18
   1   7   1   44.42    1.94
  -1  -7  -1   41.61    2.22
   1   7   2    2.95    0.50
  -1  -7  -2    3.90    0.62
   1   7   2    4.07    0.65
  -1  -7  -2    3.17    0.67
   1   7   2    3.87    0.65
   1   7   3    0.07    0.26
  -1  -7  -3    0.36    0.29
   1   7   3    0.11    0.25
  -1  -7  -3   -0.01    0.31
   1   7   3    0.53    0.34
   1   7   4    1.89    0.51
  -1  -7  -4    1.93    0.56
   1   7   4    2.33    0.54
   1   7   4    2.00    0.49
  -1  -7  -4    1.67    0.48
  -1  -7  -5   13.82    1.46
   1   7   5   10.00    1.23
   1   7   5   12.62    1.30
  -1  -7  -5   12.59    1.36
  -1  -7  -6   14.29    1.43
   1   7   6   13.52    1.39
   1   7   6   11.96    1.40
  -1  -7  -6   15.45    1.56
  -1  -7  -7    8.42    1.29
   1   7   7    6.63    1.08
   1   7   7    7.09    1.08
  -1  -7  -7    6.57    1.01
  -1  -7  -8    2.84    0.78
  -1  -7  -8    4.08    0.89
   1   7   8    3.22    0.97
  -1  -7  -8    3.50    0.89
   1   7   8    2.32    0.68
  -1  -7  -9   -0.33    0.45
   1   7   9   -0.81    0.55
   1   7  10    0.02    0.43
   1   8  -5   19.74    1.77
   1   8  -5   16.99    1.58
   1   8  -4    0.08    0.42
   1   8  -4    0.71    0.42
   1   8  -3    0.60    0.40
   1   8  -2   -0.11    0.37
  -1  -8   2    2.21    0.66
   1   8  -1    5.42    0.85
  -1  -8   1    4.57    0.81
   1   8   0   25.87    1.73
  -1  -8   0   25.93    1.86
  -1  -8  -1    0.90    0.36
   1   8   1    1.43    0.43
  -1  -8  -2    1.88    0.59
   1   8   2    3.40    0.62
   1   8   2    2.16    0.51
   1   8   3    2.17    0.56
  -1  -8  -3    1.47    0.56
  -1  -8  -3    2.26    0.66
   1   8   3    0.93    0.38
  -1  -8  -4    0.27    0.35
  -1  -8  -4   -0.04    0.34
   1   8   4    0.97    0.48
   1   8   4    0.01    0.25
   1   8   5    4.11    0.77
  -1  -8  -5    5.16    0.93
   1   8   5    4.65    0.82
  -1  -8  -5    5.24    1.00
   1   8   6    1.29    0.55
   1   8   6    1.23    0.55
  -1  -8  -6    0.84    0.45
  -1  -8  -6    1.43    0.55
   1   8   7    3.14    0.78
  -1  -8  -7    3.62    0.91
   1   8   7    3.38    0.74
  -1  -8  -7    2.77    0.75
   1   8   8   -0.45    0.53
  -1  -8  -9    0.53    0.58
   1   9  -3    1.22    0.61
  -1  -9   2   -0.29    0.31
   1   9  -2    0.51    0.37
   1   9  -1    2.70    0.73
  -1  -9   1    2.06    0.68
   1   9   0    9.14    1.18
  -1  -9   0    7.36    1.14
  -1  -9  -1   11.18    1.45
   1   9   1   11.54    1.34
   1   9   2    5.58    0.99
  -1  -9  -2    7.23    1.13
  -1  -9  -3   -0.51    0.54
   1   9   3   -0.15    0.27
   1   9   4   -0.53    0.48
  -1  -9  -4    0.12    0.32
  -1  -9  -5    1.01    0.63
   1   9   5    0.45    0.39
  -1  -9  -5    1.03    0.58
   1   9   5    0.05    0.43
  -1  -9  -6    0.92    0.44
   1   9   6    0.36    0.42
   1   9   7   -0.06    0.54
   1  10  -1   -0.06    0.42
   1  10   0    1.79    0.59
   1  10   1    3.31    0.81
   1  10   4    0.87    0.47
   1  10   5    0.03    0.31
  -2   9   4    0.94    0.55
  -2   9   3    1.03    0.49
  -2   9  -4   -0.26    0.45
  -2   8   6    1.34    0.51
   2  -8  -6    4.60    0.95
  -2   8   5    2.67    0.62
   2  -8  -3    2.32    0.46
  -2   8   3    1.25    0.55
   2  -8  -2    0.17    0.31
   2  -8  -2    0.21    0.35
  -2   8   2    0.69    0.43
   2  -8  -1   -0.44    0.32
   2  -8  -1   -0.18    0.27
   2  -8   0    0.38    0.37
   2  -8   0    0.80    0.43
  -2   8   0    0.83    0.43
   2  -8   1    0.65    0.38
  -2   8  -1    0.17    0.29
   2  -8   2    0.65    0.45
  -2   8  -2    0.35    0.26
  -2   8  -3    0.56    0.44
   2  -8   3    0.19    0.30
  -2   8  -4    3.65    0.76
  -2   8  -4    5.73    0.88
   2  -8   4    4.85    0.90
  -2   8  -5    9.15    1.24
  -2   7   7    0.88    0.60
   2  -7  -7    0.35    0.46
   2  -7  -6    0.72    0.40
  -2   7   5    0.57    0.59
   2  -7  -5    0.03    0.39
   2  -7  -4    3.33    0.83
  -2   7   4    2.46    0.70
   2  -7  -3   15.43    1.53
  -2   7   3   17.19    1.66
   2  -7  -3   16.34    1.64
   2  -7  -2   12.88    1.28
   2  -7  -2   13.14    1.39
  -2   7   2   12.56    1.32
   2  -7  -1    8.56    1.11
   2  -7  -1    8.35    1.12
  -2   7   1    8.18    1.14
  -2   7   0    0.22    0.31
   2  -7   0   -0.30    0.32
  -2   7  -1    7.62    1.01
   2  -7   1    8.38    1.08
  -2   7  -2    9.16    1.01
   2  -7   2    8.71    1.11
  -2   7  -2    9.14    1.12
  -2   7  -3   20.53    1.59
  -2   7  -3   20.12    1.63
   2  -7   3   20.68    1.70
  -2   7  -4   18.98    1.50
  -2   7  -4   22.09    1.73
   2  -7   4   20.93    1.68
   2  -7   5    1.80    0.58
  -2   7  -5    2.32    0.63
  -2   7  -5    1.29    0.46
   2  -7   6    0.50    0.33
  -2   7  -6    0.49    0.49
   2  -6  -8    3.20    0.80
   2  -6  -7    0.71    0.41
   2  -6  -6    1.93    0.60
   2  -6  -6    2.03    0.66
  -2   6   6    1.94    0.66
   2  -6  -5    5.24    0.98
  -2   6   5    5.70    1.07
   2  -6  -5    4.90    0.90
  -2   6   4    7.09    1.07
   2  -6  -4    7.88    1.13
   2  -6  -3   12.58    1.34
  -2   6   3   10.93    1.23
   2  -6  -3   12.78    1.21
   2  -6  -2    0.36    0.27
   2  -6  -2    0.41    0.29
  -2   6   2    0.06    0.24
   2  -6  -1    4.43    0.76
   2  -6  -1    3.75    0.72
  -2   6   1    2.92    0.62
   2  -6   0   -0.11    0.24
  -2   6   0   -0.45    0.27
  -2   6  -1    1.14    0.33
   2  -6   1    1.27    0.48
  -2   6  -1    1.07    0.44
  -2   6  -2    1.02    0.37
  -2   6  -2    1.17    0.38
   2  -6   2    0.97    0.39
  -2   6  -3   11.54    1.11
   2  -6   3   10.96    1.12
  -2   6  -3   10.35    1.07
  -2   6  -4    8.07    1.03
  -2   6  -4    5.47    0.82
   2  -6   4    7.28    0.94
  -2   6  -5   26.81    1.90
  -2   6  -5   26.44    1.81
   2  -6   5   28.56    1.94
   2  -6   6   29.29    2.01
  -2   6  -6   33.75    2.21
  -2   6  -6   30.82    2.04
   2  -6   7    0.18    0.30
  -2   6  -7    0.46    0.42
  -2   6  -8    8.42    1.23
   2  -5  -9    3.83    0.94
   2  -5  -8    6.43    1.09
   2  -5  -7   16.31    1.74
  -2   5   7   13.69    1.57
   2  -5  -7   15.80    1.57
   2  -5  -6    3.57    0.86
   2  -5  -6    3.26    0.71
  -2   5   6    4.14    0.87
   2  -5  -5    6.60    1.02
  -2   5   5    5.81    0.96
   2  -5  -5    5.31    0.84
  -2   5   4    1.44    0.49
   2  -5  -4    1.34    0.52
   2  -5  -3   43.68    2.02
  -2   5   3   39.91    2.19
   2  -5  -3   42.11    2.22
   2  -5  -2   78.06    2.89
   2  -5  -2   80.52    2.63
   2  -5  -1  101.87    3.27
  -2   5   1  100.74    3.26
  -2   5   0   59.91    1.90
  -2   5   0   63.01    2.50
   2  -5   0   63.72    2.51
  -2   5  -1    2.42    0.43
   2  -5   1    2.74    0.52
  -2   5  -1    2.35    0.53
   2  -5   2   46.95    2.12
   2  -5   2   48.38    1.86
  -2   5  -2   45.97    1.91
  -2   5  -3   33.85    1.75
  -2   5  -3   35.23    1.85
   2  -5   3   35.08    1.89
   2  -5   4   64.59    2.62
  -2   5  -4   63.47    2.58
  -2   5  -4   65.62    2.61
  -2   5  -5   44.14    2.26
  -2   5  -5   44.21    2.21
   2  -5   5   41.71    2.16
  -2   5  -6    1.85    0.48
  -2   5  -6    3.30    0.65
   2  -5   6    2.97    0.63
  -2   5  -7    4.54    0.76
  -2   5  -7    6.41    0.94
   2  -5   7    7.12    1.04
   2  -5   8    5.14    0.92
  -2   5  -8    3.70    0.73
  -2   5  -8    4.35    0.86
  -2   5  -9    1.27    0.56
   2  -4  -9    7.60    1.22
   2  -4  -8    4.42    0.91
  -2   4   8    2.17    0.73
   2  -4  -8    2.63    0.75
   2  -4  -7   15.13    1.52
   2  -4  -7   15.51    1.49
  -2   4   7   12.49    1.35
   2  -4  -6   10.12    1.21
  -2   4   6    9.20    1.14
   2  -4  -6    8.88    1.06
   2  -4  -5   15.51    1.46
  -2   4   5   13.53    1.32
   2  -4  -5   14.86    1.29
   2  -4  -4   24.95    1.71
   2  -4  -4   23.50    1.54
  -2   4   4   23.15    1.63
   2  -4  -3    8.57    0.79
   2  -4  -3    8.70    0.94
  -2   4   3    8.18    0.94
   2  -4  -2   18.58    1.12
   2  -4  -2   18.13    1.27
  -2   4   2   16.83    1.19
  -2   4   1   17.39    1.22
   2  -4  -1   18.05    1.26
   2  -4  -1   18.71    1.00
   2  -4   0   23.98    1.11
  -2   4   0   24.39    1.06
   2  -4   0   24.89    1.43
  -2   4   0   24.68    1.41
  -2   4  -1    0.05    0.15
   2  -4   1    0.14    0.15
  -2   4  -1    0.17    0.18
   2  -4   1    0.23    0.24
   2  -4   2    4.58    0.55
  -2   4  -2    3.95    0.50
   2  -4   2    4.62    0.62
  -2   4  -2    3.81    0.57
  -2   4  -3   18.37    1.14
   2  -4   3   19.79    1.29
  -2   4  -3   21.12    1.33
  -2   4  -4   83.60    2.72
   2  -4   4   86.84    2.81
   2  -4   5   52.66    2.38
  -2   4  -5   46.40    2.09
  -2   4  -5   52.00    2.37
  -2   4  -5   47.86    2.13
  -2   4  -6   72.23    2.66
  -2   4  -6   71.17    2.52
  -2   4  -6   92.05    3.33
   2  -4   6   99.25    3.58
  -2   4  -7   68.62    3.06
  -2   4  -7   67.51    2.86
   2  -4   7   70.86    3.07
  -2   4  -8    3.14    0.75
  -2   4  -8    2.22    0.53
   2  -4   8    3.81    0.79
  -2   4  -8    3.44    0.72
  -2   4  -9   11.34    1.29
  -2   3   9   -0.02    0.35
   2  -3  -9    0.01    0.30
  -2   3   9   -0.29    0.53
   2  -3  -9   -0.52    0.53
   2  -3  -8    0.68    0.42
  -2   3   8    0.35    0.33
   2  -3  -8    0.07    0.29
  -2   3   7   57.25    2.89
   2  -3  -7   64.05    3.03
   2  -3  -7   65.42    2.97
   2  -3  -6   59.99    2.69
   2  -3  -6   57.72    2.61
  -2   3   6   52.39    2.52
   2  -3  -5   10.10    0.93
   2  -3  -5   10.17    1.09
   2  -3  -5    9.36    0.98
  -2   3   5    9.15    1.05
  -2   3   4   17.81    1.32
   2  -3  -4   18.49    1.34
   2  -3  -4   17.88    1.26
   2  -3  -4   20.41    1.23
   2  -3  -3   52.25    2.11
   2  -3  -3   51.13    2.00
   2  -3  -3   55.56    1.87
  -2   3   3   53.66    2.14
   2  -3  -2  241.08    3.68
   2  -3  -2  237.09    4.35
   2  -3  -2  252.58    4.01
   2  -3  -1  237.02    4.28
  -2   3   1  225.11    4.19
   2  -3  -1  239.72    3.74
   2  -3   0  384.68    4.83
  -2   3   0  364.46    4.31
  -2   3   0  369.66    5.50
   2  -3   0  387.46    5.61
  -2   3  -1  209.48    3.26
   2  -3   1  240.52    4.14
  -2   3  -1  220.47    3.91
   2  -3   1  233.84    3.66
   2  -3   2   19.29    1.06
  -2   3  -2   18.46    1.02
   2  -3   2   18.38    1.12
  -2   3  -2   18.08    1.10
  -2   3  -3  129.83    3.02
  -2   3  -3  133.60    3.21
  -2   3  -3  133.22    3.13
   2  -3   3  136.57    3.25
  -2   3  -4   53.73    2.02
  -2   3  -4   58.65    2.21
  -2   3  -5   91.67    2.87
  -2   3  -5   88.23    2.80
  -2   3  -5   98.01    3.06
   2  -3   5   97.09    3.06
  -2   3  -6   27.09    1.65
  -2   3  -6   28.41    1.70
  -2   3  -6   29.68    1.76
   2  -3   6   30.28    1.80
  -2   3  -7    2.31    0.55
  -2   3  -7    3.25    0.68
   2  -3   7    2.93    0.67
  -2   3  -7    2.05    0.54
   2  -3   8   21.91    1.82
  -2   3  -8   17.97    1.52
  -2   3  -8   18.85    1.55
  -2   3  -8   19.61    1.61
   2  -3   9    5.38    1.00
  -2   3  -9    4.45    0.78
  -2   3  -9    3.64    0.69
  -2   3  -9    4.69    0.83
  -2   3 -10    0.68    0.43
   2  -2 -10    1.98    0.64
   2  -2  -9   25.21    1.85
  -2   2   8   36.35    2.42
   2  -2  -8   31.34    2.02
   2  -2  -8   31.18    2.19
   2  -2  -8   30.93    2.17
   2  -2  -7    1.68    0.48
   2  -2  -7    1.72    0.56
  -2   2   7    2.40    0.67
   2  -2  -6   48.88    2.34
   2  -2  -6   51.57    2.41
  -2   2   6   46.14    2.26
   2  -2  -6   48.69    2.18
  -2   2   5   49.81    2.21
   2  -2  -5   58.14    2.26
   2  -2  -5   53.29    2.26
   2  -2  -5   54.79    2.30
   2  -2  -4   92.00    2.82
   2  -2  -4   89.16    2.74
   2  -2  -4   90.80    2.63
   2  -2  -3   63.26    2.10
  -2   2   3   58.33    2.07
   2  -2  -3   65.82    2.17
   2  -2  -3   64.86    2.01
   2  -2  -2    0.65    0.27
   2  -2  -2    0.31    0.18
   2  -2  -2    0.34    0.13
  -2   2   2    0.30    0.16
   2  -2  -2    0.30    0.21
   2  -2  -1    2.09    0.32
   2  -2  -1    1.85    0.33
  -2   2   1    1.72    0.32
   2  -2   0  315.17    4.21
   2  -2   0  320.56    4.54
   2  -2   1   65.10    1.71
  -2   2  -1   62.87    1.83
   2  -2   1   68.71    1.94
  -2   2  -1   61.57    1.70
   2  -2   2    0.06    0.13
   2  -2   2    0.13    0.15
  -2   2  -2    0.10    0.13
  -2   2  -2    0.14    0.16
  -2   2  -3   20.58    1.11
  -2   2  -3   22.37    1.19
   2  -2   3   23.20    1.22
   2  -2   4   89.90    2.63
  -2   2  -4   84.73    1.71
  -2   2  -4   87.07    2.47
  -2   2  -4   87.11    2.55
   2  -2   5  288.90    5.19
  -2   2  -5  283.76    5.14
   2  -2   6  155.83    3.98
  -2   2  -6  128.70    3.38
  -2   2  -6  138.60    3.53
  -2   2  -6  153.55    3.91
  -2   2  -7  121.49    3.46
  -2   2  -7  130.73    3.68
   2  -2   7  151.07    4.25
  -2   2  -7  143.82    4.00
  -2   2  -8   90.07    3.36
  -2   2  -8   85.38    3.18
   2  -2   9    6.85    1.04
  -2   2  -9    6.99    1.00
  -2   2  -9    7.08    1.01
  -2   2  -9    7.05    1.04
  -2   2 -10   15.68    1.51
  -2   2 -10   17.23    1.66
  -2   2 -11   22.89    1.82
   2  -1 -10    0.21    0.33
   2  -1  -9   10.78    1.24
   2  -1  -8    0.99    0.41
  -2   1   7   16.43    1.57
   2  -1  -7   14.05    1.31
  -2   1   7   14.17    1.32
   2  -1  -7   10.51    1.04
   2  -1  -7   15.14    1.35
   2  -1  -6  199.15    4.56
   2  -1  -6  204.69    4.73
   2  -1  -5  114.75    3.18
  -2   1   5  110.21    3.13
   2  -1  -5  115.74    3.24
   2  -1  -4   13.80    0.98
   2  -1  -4   13.43    1.03
  -2   1   4   12.51    0.95
   2  -1  -4   15.42    1.09
   2  -1  -3   37.39    1.52
  -2   1   3   32.14    1.34
   2  -1  -3   37.17    1.52
   2  -1  -3   36.42    1.55
   2  -1  -2  265.43    3.93
   2  -1  -2  271.92    4.19
   2  -1  -2  283.58    4.25
   2  -1  -2  274.73    2.77
   2  -1  -1  863.95    8.15
   2  -1  -1  887.55    8.45
   2  -1  -1  878.90    8.20
   2  -1   0  351.79    3.93
   2  -1   0  348.80    4.27
   2  -1   0  336.22    4.28
   2  -1   1  920.14    8.32
   2  -1   1  882.48    8.04
  -2   1  -1  811.93    7.98
   2  -1   1  869.20    8.11
  -2   1  -1  814.79    7.64
   2  -1   2  739.11    7.36
   2  -1   2  695.97    6.56
  -2   1  -2  654.42    6.93
  -2   1  -2  631.74    6.84
   2  -1   2  711.87    7.26
   2  -1   3   65.72    1.90
   2  -1   3   64.20    1.47
  -2   1  -3   59.36    1.76
   2  -1   4  175.40    2.55
  -2   1  -4  167.51    3.32
  -2   1  -4  168.41    3.33
  -2   1  -5   48.89    1.87
  -2   1  -5   44.07    1.70
  -2   1  -6   57.11    2.23
  -2   1  -6   52.97    2.11
   2  -1   6   59.97    2.37
   2  -1   7    1.80    0.44
  -2   1  -7    1.73    0.42
  -2   1  -7    1.34    0.44
  -2   1  -8    0.08    0.25
  -2   1  -8    0.36    0.38
   2  -1   8    0.19    0.22
   2  -1   9   17.75    1.60
  -2   1  -9   17.90    1.56
  -2   1  -9   15.80    1.39
  -2   1  -9   16.06    1.46
  -2   1 -10    6.11    1.01
  -2   1 -10    4.35    0.83
   2  -1  10    4.29    0.85
  -2   1 -10    4.75    0.82
  -2   1 -11    0.27    0.34
   2   0 -10    0.31    0.36
   2   0  -9    2.21    0.63
   2   0  -8  106.33    3.68
   2   0  -7   58.86    2.45
  -2   0   6    9.07    0.87
   2   0  -6    8.31    0.89
   2   0  -6    7.13    0.73
   2   0  -5  122.41    2.81
   2   0  -5  110.66    3.28
   2   0  -4  149.91    2.88
  -2   0   4  154.04    3.33
   2   0  -3  275.17    4.39
  -2   0   3  282.70    3.80
   2   0  -3  287.80    4.06
   2   0  -2   35.61    2.09
   2   0  -2   88.89    1.74
   2   0  -2   43.58    1.77
  -2   0   2  109.43    1.52
   2   0  -1   10.80    1.30
   2   0  -1   30.36    1.25
   2   0  -1   18.80    0.96
   2   0  -1   37.52    1.08
  -2   0   1   27.38    0.87
   2   0   0   58.48    2.37
  -2   0   0  118.49    1.78
   2   0   0  127.83    2.21
  -2   0  -1 1377.63    9.17
   2   0   1 1179.19   10.07
   2   0   2  125.74    1.81
  -2   0  -2  124.91    1.69
  -2   0  -3    1.08    0.20
  -2   0  -3    0.85    0.19
   2   0   3    0.25    0.13
   2   0   3    0.47    0.18
   2   0   4   27.00    1.49
   2   0   4   29.30    1.13
   2   0   5   89.10    3.22
  -2   0  -5  145.90    2.71
  -2   0  -5  153.48    2.81
   2   0   5  105.59    2.27
  -2   0  -6  457.38    5.95
   2   0   6  341.12    7.45
  -2   0  -7  224.85    4.05
   2   0   7  171.58    5.37
  -2   0  -8  172.54    3.69
  -2   0  -8  207.99    4.18
  -2   0  -9   70.91    2.80
  -2   0  -9   77.34    3.20
  -2   0 -10    3.30    0.68
   2   0  10    2.89    0.89
  -2   0 -10    3.93    0.80
   2   1  -9    0.86    0.45
   2   1  -8   22.63    1.77
   2   1  -7   18.26    1.48
   2   1  -6   92.36    3.13
   2   1  -5  378.32    6.27
   2   1  -5  368.89    6.38
   2   1  -4  170.98    3.28
  -2  -1   4  173.90    3.27
   2   1  -4  171.23    3.92
   2   1  -3   16.48    0.86
   2   1  -3   16.15    0.80
   2   1  -3   16.10    0.82
   2   1  -3   14.65    0.95
  -2  -1   3   16.00    0.92
  -2  -1   3   15.48    0.82
   2   1  -3   16.03    1.05
   2   1  -2   57.67    1.34
   2   1  -2   55.64    1.36
   2   1  -2   59.44    1.67
   2   1  -2   54.51    1.68
  -2  -1   2   62.81    1.52
   2   1  -2   57.35    1.82
   2   1  -1  515.60    5.13
   2   1  -1  529.54    4.51
   2   1  -1  545.53    5.85
   2   1  -1  519.99    5.70
   2   1  -1  557.22    6.15
   2   1   0 1190.02    9.78
   2   1   0 1174.17   10.28
   2   1   0 1196.67    9.77
   2   1   0 1196.26   10.27
  -2  -1   0 1183.85    9.13
   2   1   1  270.90    2.80
   2   1   1  270.01    3.40
   2   1   1  263.97    3.51
   2   1   1  278.69    3.47
  -2  -1  -1  267.52    3.20
   2   1   2  745.45    6.91
  -2  -1  -2  724.94    7.12
   2   1   2  736.52    7.09
   2   1   3  380.07    4.74
  -2  -1  -3  377.51    5.03
   2   1   3  373.72    4.62
   2   1   4   38.45    1.54
  -2  -1  -4   34.60    1.39
   2   1   4   34.95    1.29
  -2  -1  -4   35.43    1.52
   2   1   5   66.92    2.33
  -2  -1  -5   61.24    2.12
   2   1   5   63.41    1.88
  -2  -1  -5   65.43    2.24
   2   1   6   14.57    1.18
   2   1   6   14.55    0.95
  -2  -1  -6   12.44    1.03
  -2  -1  -6   14.68    1.13
   2   1   7   12.50    1.19
  -2  -1  -7   10.22    0.93
  -2  -1  -7   11.31    1.10
  -2  -1  -8    2.22    0.52
   2   1   8    2.81    0.66
  -2  -1  -8    3.19    0.68
  -2  -1  -9    4.28    0.69
   2   1   9    6.19    0.94
  -2  -1  -9    7.10    1.06
  -2  -1 -10    3.77    0.73
   2   1  10    4.28    0.86
  -2  -1 -10    4.63    0.87
   2   2  -9    0.80    0.46
   2   2  -8    0.43    0.39
   2   2  -7  194.87    5.10
   2   2  -6   37.16    2.03
   2   2  -5   62.41    2.46
   2   2  -4  149.51    3.63
   2   2  -4  144.11    3.61
   2   2  -3  114.15    2.58
   2   2  -3  106.95    2.26
   2   2  -3  108.37    2.79
   2   2  -3  111.39    2.95
   2   2  -2  383.98    4.90
   2   2  -2  369.19    3.77
  -2  -2   2  402.47    4.01
   2   2  -2  399.29    4.88
   2   2  -2  377.98    5.29
   2   2  -2  408.22    5.54
  -2  -2   1    5.65    0.38
   2   2  -1    6.52    0.51
   2   2  -1    7.17    0.54
   2   2  -1    6.82    0.57
   2   2  -1    7.02    0.58
  -2  -2   0   74.61    1.56
   2   2   0   80.79    1.82
   2   2   0   80.57    1.85
   2   2   0   78.37    1.77
   2   2   0   83.19    1.84
   2   2   1  259.05    3.62
   2   2   1  262.22    2.64
   2   2   1  266.83    3.26
   2   2   1  265.99    3.70
   2   2   1  266.14    3.36
  -2  -2  -1  252.53    3.39
   2   2   2 1593.64   12.57
   2   2   2 1572.42   13.35
  -2  -2  -2 1487.82   12.40
   2   2   2 1558.92   13.32
   2   2   2 1650.98   12.67
  -2  -2  -2 1559.89   13.38
   2   2   3  135.76    2.37
   2   2   3  122.72    2.58
   2   2   3  134.00    2.62
  -2  -2  -3  124.90    2.73
  -2  -2  -3  127.84    2.57
   2   2   4   17.46    1.00
  -2  -2  -4   18.06    1.04
   2   2   4   19.06    1.09
  -2  -2  -4   17.16    1.06
   2   2   5   12.19    0.98
   2   2   5   11.57    0.87
  -2  -2  -5   10.01    0.63
  -2  -2  -5   10.59    0.92
  -2  -2  -5   10.04    0.86
   2   2   6   72.75    2.70
   2   2   6   73.94    2.41
  -2  -2  -6   70.04    2.53
   2   2   7  249.43    4.83
  -2  -2  -7  236.54    5.20
   2   2   7  250.46    5.53
  -2  -2  -7  233.76    5.20
  -2  -2  -8  109.63    3.71
   2   2   8  121.37    4.07
  -2  -2  -8  112.56    3.65
  -2  -2  -9   75.80    3.25
   2   2   9   83.45    3.57
   2   2  10   36.18    2.49
  -2  -2 -10   35.21    2.42
  -2  -2 -10   31.26    2.04
   2   3  -9    1.72    0.59
   2   3  -8    1.88    0.62
   2   3  -7   32.51    2.09
   2   3  -6   50.31    2.46
   2   3  -5  164.13    4.00
   2   3  -5  154.55    4.11
   2   3  -4  460.42    6.74
   2   3  -4  431.48    6.82
   2   3  -3  152.83    3.40
   2   3  -3  147.17    3.47
   2   3  -3  145.36    3.43
   2   3  -2   30.06    1.36
   2   3  -2   30.78    1.17
   2   3  -2   28.80    1.35
   2   3  -2   32.47    1.45
  -2  -3   1   32.36    1.20
   2   3  -1   35.07    1.38
   2   3  -1   36.64    1.27
   2   3  -1   36.12    1.41
   2   3  -1   39.35    1.43
   2   3   0  171.67    3.14
   2   3   0  176.37    3.11
   2   3   0  179.41    3.06
   2   3   0  181.50    2.87
  -2  -3  -1  480.94    5.80
   2   3   1  488.56    5.95
  -2  -3  -1  497.24    4.68
   2   3   1  483.74    5.58
   2   3   1  491.22    5.84
   2   3   1  487.78    5.09
  -2  -3  -2  187.15    3.44
   2   3   2  188.85    3.43
   2   3   2  191.10    3.40
   2   3   3  185.80    3.50
  -2  -3  -3  196.95    3.49
   2   3   3  180.67    3.53
  -2  -3  -3  192.00    3.71
  -2  -3  -4   47.92    1.82
   2   3   4   44.77    1.79
   2   3   4   43.85    1.32
  -2  -3  -4   44.76    1.82
  -2  -3  -5   14.82    1.12
   2   3   5   17.45    1.31
   2   3   5   14.88    1.13
   2   3   5   14.52    1.12
  -2  -3  -5   13.92    1.11
  -2  -3  -5   13.58    1.07
  -2  -3  -6    5.78    0.76
   2   3   6    6.40    0.82
   2   3   6    7.18    0.90
   2   3   6    6.98    0.84
  -2  -3  -6    6.19    0.63
  -2  -3  -6    5.65    0.76
  -2  -3  -6    5.72    0.75
  -2  -3  -7    0.35    0.29
   2   3   7    0.68    0.33
   2   3   7    0.63    0.31
  -2  -3  -7    0.82    0.39
  -2  -3  -8   -0.10    0.25
   2   3   8    0.02    0.32
  -2  -3  -8    0.02    0.22
   2   3   8   -0.05    0.19
  -2  -3  -9    5.79    0.92
   2   3   9    6.19    1.04
  -2  -3  -9    5.64    0.90
  -2  -3 -10   11.37    1.40
  -2  -3 -10    9.74    1.19
   2   3  10   11.89    1.46
   2   4  -8    3.99    0.86
   2   4  -7    1.44    0.54
   2   4  -6  155.08    4.38
   2   4  -6  149.80    4.41
   2   4  -5    2.35    0.51
   2   4  -5    2.74    0.58
   2   4  -4   90.10    3.00
   2   4  -4   84.40    2.90
   2   4  -3   58.31    2.27
   2   4  -3   53.07    2.12
   2   4  -2   13.62    1.03
   2   4  -2   12.63    0.99
   2   4  -2   13.41    0.99
  -2  -4   1  104.45    2.61
   2   4  -1  108.66    2.82
   2   4  -1  111.53    2.80
   2   4  -1  115.43    2.50
   2   4  -1  120.74    2.74
  -2  -4   0    8.36    0.69
   2   4   0    9.68    0.79
   2   4   0    9.72    0.78
   2   4   0   10.59    0.76
   2   4   0   11.57    0.72
  -2  -4  -1   36.73    1.52
   2   4   1   37.08    1.54
  -2  -4  -1   39.11    1.15
   2   4   1   40.89    1.15
   2   4   1   38.54    1.51
   2   4   1   39.69    1.51
   2   4   1   39.86    1.15
  -2  -4  -2  157.13    3.44
   2   4   2  156.81    3.37
  -2  -4  -2  164.63    2.92
   2   4   2  161.04    3.32
  -2  -4  -3  652.24    8.24
   2   4   3  648.02    7.94
  -2  -4  -3  670.71    7.54
   2   4   3  671.02    8.15
   2   4   3  673.41    7.40
   2   4   4   69.73    2.25
  -2  -4  -4   74.40    2.35
   2   4   4   76.55    2.44
   2   4   4   73.88    2.53
  -2  -4  -4   69.09    2.48
  -2  -4  -5    1.64    0.44
  -2  -4  -5    1.63    0.35
   2   4   5    1.73    0.44
   2   4   5    1.72    0.46
  -2  -4  -6    1.11    0.38
   2   4   6    1.41    0.56
  -2  -4  -6    0.59    0.32
   2   4   6    1.18    0.47
  -2  -4  -7   23.68    1.69
  -2  -4  -7   25.51    1.74
   2   4   7   30.80    2.11
   2   4   7   26.26    1.83
  -2  -4  -7   25.70    1.81
   2   4   7   29.57    1.99
  -2  -4  -8   63.18    2.96
   2   4   8   66.50    3.06
   2   4   8   70.91    3.26
  -2  -4  -8   61.06    2.90
  -2  -4  -8   66.32    2.99
   2   4   8   70.63    3.11
  -2  -4  -9   30.77    2.16
   2   4   9   31.08    2.26
  -2  -4  -9   29.73    2.15
   2   4  10   24.00    2.17
  -2  -4 -10   19.39    1.78
  -2  -4 -10   20.13    1.86
   2   5  -8    1.62    0.64
   2   5  -7    1.86    0.62
   2   5  -6   29.73    2.02
   2   5  -6   30.56    2.10
   2   5  -5   34.46    2.09
   2   5  -5   34.66    2.06
   2   5  -4  104.81    3.48
   2   5  -4   97.70    3.30
   2   5  -3  324.51    6.08
   2   5  -3  310.00    5.84
   2   5  -2   65.71    2.48
   2   5  -2   61.59    2.33
  -2  -5   1   39.93    1.82
   2   5  -1   42.23    1.88
   2   5  -1   40.60    1.83
  -2  -5   0    9.06    0.82
   2   5   0    9.76    0.88
   2   5   0   10.08    0.89
   2   5   0   11.17    0.84
  -2  -5  -1   16.75    1.15
   2   5   1   17.02    1.15
   2   5   1   17.01    1.06
  -2  -5  -2   88.18    2.83
   2   5   2   88.88    2.71
  -2  -5  -2   93.55    2.36
   2   5   2   87.02    2.56
   2   5   2   92.06    2.23
  -2  -5  -3   40.03    1.93
   2   5   3   39.39    1.81
  -2  -5  -3   39.03    1.63
   2   5   3   40.12    1.85
   2   5   3   41.51    1.68
   2   5   4   27.60    1.51
  -2  -5  -4   25.92    1.41
   2   5   4   26.17    1.38
   2   5   4   28.09    1.70
  -2  -5  -4   25.23    1.60
  -2  -5  -5    2.67    0.54
   2   5   5    2.69    0.52
   2   5   5    3.39    0.59
  -2  -5  -5    3.21    0.59
   2   5   5    3.14    0.67
  -2  -5  -6    6.06    0.83
   2   5   6    7.20    1.07
   2   5   6    6.86    0.94
  -2  -5  -6    6.05    0.88
  -2  -5  -7   -0.05    0.31
   2   5   7    0.52    0.58
  -2  -5  -7    0.42    0.32
   2   5   7   -0.21    0.28
  -2  -5  -8    5.68    0.92
   2   5   8    6.05    0.99
   2   5   8    8.30    1.28
   2   5   8    7.61    1.12
  -2  -5  -8    5.34    0.93
  -2  -5  -8    5.71    0.96
  -2  -5  -9    1.67    0.62
   2   5   9    0.90    0.48
   2   5   9    0.99    0.35
  -2  -5  -9    0.47    0.40
  -2  -5  -9    0.81    0.50
   2   5   9    0.76    0.33
  -2  -5 -10    2.58    0.73
   2   6  -7    3.56    0.89
   2   6  -7    2.45    0.72
   2   6  -6    0.97    0.62
   2   6  -6    0.48    0.46
   2   6  -5   45.84    2.56
   2   6  -5   44.45    2.49
   2   6  -4    2.65    0.66
   2   6  -4    2.11    0.52
   2   6  -3   41.86    2.24
   2   6  -3   40.50    2.16
  -2  -6   2    2.07    0.58
   2   6  -2    2.08    0.55
   2   6  -2    1.73    0.50
  -2  -6   1    1.33    0.42
   2   6  -1    1.29    0.39
   2   6  -1    1.03    0.29
  -2  -6   0    9.26    0.95
   2   6   0   11.35    1.04
   2   6   0   11.54    1.06
   2   6   0   12.30    0.95
  -2  -6  -1    9.28    0.97
   2   6   1   10.29    0.99
   2   6   1   10.83    0.94
  -2  -6  -2   14.71    1.28
   2   6   2   17.48    1.30
   2   6   2   14.55    1.13
  -2  -6  -3   79.64    3.03
   2   6   3   81.38    2.84
   2   6   3   80.42    2.54
  -2  -6  -3   84.16    2.65
   2   6   3   75.91    2.76
   2   6   4  166.16    4.18
  -2  -6  -4  158.29    3.97
   2   6   4  163.86    3.93
   2   6   4  169.11    4.43
  -2  -6  -4  163.91    4.56
   2   6   5   17.37    1.36
  -2  -6  -5   17.63    1.35
   2   6   5   17.13    1.29
   2   6   5   18.91    1.62
  -2  -6  -5   17.36    1.49
  -2  -6  -6   -0.14    0.32
   2   6   6    0.26    0.41
   2   6   6    0.19    0.24
  -2  -6  -6    0.45    0.37
  -2  -6  -7    0.03    0.32
   2   6   7    0.26    0.38
  -2  -6  -7    0.17    0.25
   2   6   7    0.14    0.45
  -2  -6  -8    3.68    0.76
   2   6   8    3.95    0.85
   2   6   8    5.95    1.23
  -2  -6  -8    4.69    0.92
  -2  -6  -9    8.26    1.26
   2   6   9   10.18    1.53
   2   6   9    7.81    1.26
  -2  -6  -9    8.75    1.32
  -2  -6  -9    8.27    1.27
   2   6   9    7.61    1.17
   2   6  10    1.61    0.56
   2   7  -6    1.56    0.60
   2   7  -6    2.26    0.63
   2   7  -5   20.54    1.84
   2   7  -5   19.58    1.75
   2   7  -4    6.01    0.99
   2   7  -4    5.87    0.92
   2   7  -3   27.96    1.99
   2   7  -3   27.56    1.88
  -2  -7   2  123.28    4.04
   2   7  -2  128.65    3.96
  -2  -7   1   12.75    1.28
   2   7  -1   13.78    1.29
   2   7  -1   13.97    1.27
  -2  -7   0   21.26    1.59
   2   7   0   24.95    1.71
  -2  -7  -1    0.33    0.23
   2   7   1    0.78    0.32
   2   7   1    0.98    0.34
  -2  -7  -2   -0.40    0.38
   2   7   2   -0.19    0.27
   2   7   2    0.04    0.22
  -2  -7  -3   10.38    1.23
   2   7   3   10.18    1.10
   2   7   3    9.99    1.06
   2   7   4    1.92    0.50
  -2  -7  -4    2.15    0.66
   2   7   4    2.58    0.57
  -2  -7  -5    1.75    0.56
   2   7   5    0.68    0.31
   2   7   5    0.83    0.41
  -2  -7  -5    1.34    0.51
   2   7   5    1.03    0.52
  -2  -7  -6   -0.26    0.52
   2   7   6   -0.35    0.30
   2   7   6    0.20    0.28
  -2  -7  -6    0.19    0.31
  -2  -7  -7    3.04    0.81
   2   7   7    2.22    0.67
   2   7   7    2.18    0.70
  -2  -7  -7    1.44    0.56
  -2  -7  -8    0.89    0.61
   2   7   8    0.30    0.44
  -2  -7  -8   -0.07    0.34
   2   7   8   -0.13    0.53
   2   7   9    2.10    0.64
   2   7  10   -0.10    0.47
   2   8  -5    1.23    0.61
   2   8  -5   -0.35    0.48
   2   8  -4    3.77    0.74
   2   8  -4    5.57    0.94
   2   8  -3    5.04    0.89
   2   8  -3    4.39    0.85
  -2  -8   2    9.85    1.19
   2   8  -2   12.43    1.31
   2   8  -2   12.01    1.30
  -2  -8   1    1.75    0.54
   2   8  -1    1.14    0.44
  -2  -8   0    3.28    0.71
   2   8   0    4.54    0.80
  -2  -8  -1   -0.12    0.25
   2   8   1    0.25    0.31
   2   8   2    1.91    0.53
  -2  -8  -2    2.31    0.64
   2   8   2    2.10    0.50
   2   8   3    3.89    0.70
  -2  -8  -3    4.60    0.88
   2   8   3    3.80    0.70
   2   8   4   24.02    1.75
  -2  -8  -4   21.12    1.94
   2   8   4   22.45    1.71
  -2  -8  -5   25.85    2.14
   2   8   5   24.77    1.78
   2   8   5   26.34    1.95
  -2  -8  -6    2.53    0.83
   2   8   6    2.53    0.72
  -2  -8  -7    0.65    0.73
  -2  -8  -7    0.63    0.63
   2   8   7   -0.08    0.29
   2   8   8   -0.19    0.52
   2   8   9   -0.11    0.57
   2   9  -3    0.37    0.31
  -2  -9   2    2.97    0.82
   2   9  -2    3.02    0.80
  -2  -9   1   23.82    2.06
   2   9  -1   27.65    2.19
  -2  -9   0    0.98    0.61
   2   9   0    0.94    0.29
  -2  -9  -1    5.17    1.00
   2   9   1    6.33    1.02
  -2  -9  -2   -0.29    0.49
   2   9   2    0.29    0.34
  -2  -9  -3    0.77    0.62
   2   9   3    0.32    0.28
   2   9   3    0.70    0.38
  -2  -9  -4   -0.52    0.44
   2   9   4   -0.11    0.27
   2   9   4   -0.36    0.46
  -2  -9  -5   -0.08    0.44
   2   9   5   -0.05    0.35
   2   9   6   -0.25    0.51
   2   9   7   -0.12    0.48
   2  10  -1    2.40    0.74
   2  10   0    0.18    0.38
   2  10   1    1.60    0.70
   2  10   2    0.40    0.38
   2  10   3   -0.33    0.40
   2  10   4    0.54    0.40
   2  10   5    2.33    0.72
   3  -8   0    5.08    0.92
  -3   8  -5    5.21    0.92
   3  -7  -6    3.90    1.01
   3  -7  -5    2.67    0.77
   3  -7  -4    4.46    1.06
   3  -7  -4    4.27    0.84
  -3   7   4    3.13    0.84
   3  -7  -3    1.38    0.69
  -3   7   3    0.98    0.59
   3  -7  -2    0.52    0.35
  -3   7   2    1.56    0.53
  -3   7   1    8.64    1.23
   3  -7  -1    8.19    1.23
   3  -7   0   10.96    1.34
  -3   7   0   10.51    1.32
   3  -7   1    0.15    0.26
  -3   7  -1   -0.16    0.34
   3  -7   2    0.33    0.27
  -3   7  -2    0.90    0.44
   3  -7   3    5.98    0.99
  -3   7  -3    6.88    1.11
  -3   7  -4    1.21    0.48
   3  -7   4    1.14    0.55
  -3   7  -4    1.00    0.44
  -3   7  -5    0.34    0.35
  -3   7  -6    6.71    1.11
   3  -6  -7    1.14    0.65
   3  -6  -6   -0.02    0.39
   3  -6  -5    0.37    0.45
   3  -6  -5    0.78    0.49
  -3   6   5    0.43    0.47
  -3   6   4   13.89    1.57
   3  -6  -4   15.58    1.66
   3  -6  -4   15.41    1.49
   3  -6  -3    1.69    0.68
  -3   6   3    1.58    0.55
   3  -6  -2    2.57    0.69
  -3   6   2    1.50    0.51
   3  -6  -1   24.77    1.74
   3  -6  -1   25.34    1.92
  -3   6   1   22.85    1.80
   3  -6   0   76.31    3.21
  -3   6   0   70.55    3.06
   3  -6   1   19.43    1.59
  -3   6  -1   19.40    1.60
   3  -6   2   30.30    1.99
  -3   6  -2   29.93    1.98
  -3   6  -3   94.01    3.21
   3  -6   3   98.95    3.63
  -3   6  -3   87.57    3.23
  -3   6  -4    0.45    0.41
  -3   6  -4    0.72    0.40
   3  -6   4   -0.09    0.21
  -3   6  -5   36.94    2.24
  -3   6  -5   35.64    2.21
   3  -6   5   34.93    2.27
   3  -6   6   10.40    1.44
  -3   6  -6    8.33    1.15
  -3   6  -6    8.44    1.12
   3  -6   6    8.89    1.17
   3  -6   7   39.67    3.22
  -3   6  -7   31.10    2.27
   3  -5  -7    8.24    1.29
   3  -5  -6   24.04    2.16
   3  -5  -6   23.55    1.85
  -3   5   6   19.68    1.92
   3  -5  -5   16.92    1.69
  -3   5   5   13.98    1.54
   3  -5  -5   14.28    1.43
   3  -5  -4   17.30    1.65
  -3   5   4   15.21    1.56
   3  -5  -4   14.91    1.41
   3  -5  -3   24.71    1.85
  -3   5   3   21.24    1.71
   3  -5  -3   21.67    1.60
   3  -5  -2    3.70    0.73
  -3   5   2    2.88    0.63
   3  -5  -1    6.29    0.91
  -3   5   1    5.15    0.82
   3  -5   0   30.04    1.88
  -3   5   0   28.98    1.81
   3  -5   1   28.23    1.78
  -3   5  -1   28.29    1.78
   3  -5   2   -0.25    0.20
  -3   5  -2   -0.68    0.38
  -3   5  -2    0.09    0.23
   3  -5   2    0.04    0.24
   3  -5   3    0.66    0.30
   3  -5   3    0.79    0.33
  -3   5  -3    0.37    0.31
  -3   5  -3    0.53    0.25
   3  -5   4   20.67    1.47
  -3   5  -4   17.20    1.33
   3  -5   4   18.29    1.48
  -3   5  -4   18.72    1.48
   3  -5   5   16.23    1.44
  -3   5  -5   12.98    1.22
  -3   5  -5   11.85    1.19
   3  -5   5   11.99    1.23
   3  -5   6    0.73    0.35
  -3   5  -6    1.15    0.46
  -3   5  -6    1.76    0.53
  -3   5  -7   24.35    1.85
   3  -5   7   25.14    1.93
  -3   5  -7   25.05    1.89
  -3   5  -8   28.80    2.11
   3  -4  -8    2.61    0.79
   3  -4  -7    3.02    0.79
  -3   4   7    2.24    0.69
   3  -4  -7    3.42    0.84
   3  -4  -6   10.58    1.30
   3  -4  -6   10.11    1.25
  -3   4   6    9.18    1.25
   3  -4  -5   -0.24    0.40
  -3   4   5   -0.36    0.35
   3  -4  -5   -0.01    0.27
   3  -4  -4   22.42    1.58
   3  -4  -4   23.07    1.74
  -3   4   4   22.26    1.72
   3  -4  -3   80.77    3.08
  -3   4   3   73.52    2.94
   3  -4  -3   75.50    2.76
   3  -4  -2    1.09    0.44
  -3   4   2    0.50    0.27
   3  -4  -2    0.19    0.30
   3  -4  -1    8.63    0.95
  -3   4   1    9.06    0.99
   3  -4  -1    8.65    0.81
   3  -4   0  145.69    3.85
  -3   4   0  138.67    3.74
   3  -4   0  136.87    3.21
   3  -4   1  391.40    5.97
   3  -4   1  392.97    6.62
   3  -4   2   71.03    2.30
  -3   4  -2   63.91    2.04
  -3   4  -2   65.41    2.42
   3  -4   2   72.08    2.59
   3  -4   3  147.25    3.65
  -3   4  -3  138.00    3.71
   3  -4   3  148.04    3.89
  -3   4  -4  264.12    5.24
  -3   4  -4  263.22    5.42
   3  -4   4  263.91    5.46
  -3   4  -4  266.86    5.55
   3  -4   5    2.59    0.54
   3  -4   5    3.98    0.81
  -3   4  -5    2.92    0.57
  -3   4  -5    4.28    0.77
  -3   4  -5    2.73    0.53
  -3   4  -6   57.42    2.62
  -3   4  -6   53.59    2.48
   3  -4   6   58.57    2.74
  -3   4  -6   54.17    2.66
  -3   4  -7   13.96    1.32
  -3   4  -7   10.94    1.15
  -3   4  -7   13.86    1.45
   3  -4   7   15.15    1.48
  -3   4  -8   76.52    3.22
  -3   4  -8   67.44    2.85
  -3   4  -8   90.09    3.79
   3  -4   8  102.58    4.20
  -3   4  -9   33.91    2.16
   3  -3  -8    1.71    0.56
   3  -3  -7    2.00    0.64
   3  -3  -7    1.55    0.59
   3  -3  -6   45.77    2.51
   3  -3  -6   46.98    2.54
  -3   3   6   42.16    2.37
   3  -3  -5  116.87    3.93
   3  -3  -5  111.32    3.72
  -3   3   5  106.63    3.66
   3  -3  -4   48.76    2.35
   3  -3  -4   46.97    2.24
  -3   3   4   46.45    2.29
   3  -3  -4   51.53    2.21
   3  -3  -3   31.67    1.78
   3  -3  -3   29.55    1.64
  -3   3   3   30.62    1.79
   3  -3  -3   35.05    1.74
   3  -3  -2   89.22    2.81
   3  -3  -2   87.60    2.68
  -3   3   2   75.17    2.49
   3  -3  -2  101.74    2.92
   3  -3  -1   13.13    1.05
   3  -3  -1   11.71    0.90
  -3   3   1   12.65    1.04
   3  -3  -1   13.15    0.98
   3  -3   0    7.67    0.80
  -3   3   0    7.63    0.80
   3  -3   0    7.25    0.71
   3  -3   1   42.16    1.73
   3  -3   1   42.77    1.86
   3  -3   2   45.87    1.78
  -3   3  -2   42.26    1.54
  -3   3  -2   44.37    1.89
   3  -3   2   48.26    2.00
   3  -3   3   20.08    1.27
  -3   3  -3   18.83    1.25
  -3   3  -3   18.45    1.11
   3  -3   3   18.01    1.22
  -3   3  -3   18.16    1.21
  -3   3  -4   32.83    1.59
  -3   3  -4   30.61    1.62
   3  -3   4   34.07    1.75
  -3   3  -4   33.59    1.76
  -3   3  -5   47.90    2.07
  -3   3  -5   47.36    2.02
   3  -3   5   54.59    2.40
  -3   3  -5   52.46    2.30
  -3   3  -6   56.49    2.54
  -3   3  -6   51.83    2.25
  -3   3  -6   56.31    2.45
   3  -3   6   59.33    2.61
  -3   3  -7    3.15    0.65
  -3   3  -7    2.62    0.62
  -3   3  -7    2.64    0.60
   3  -3   7    2.94    0.65
  -3   3  -8   59.06    2.75
   3  -3   8   67.69    3.16
  -3   3  -8   64.52    3.03
  -3   3  -8   64.01    3.01
  -3   3  -9   93.92    3.87
  -3   3  -9   93.62    3.88
  -3   3  -9   92.29    3.75
   3  -3   9   99.79    4.14
  -3   3 -10   12.33    1.42
   3  -2  -9    1.47    0.55
   3  -2  -8   -0.39    0.41
   3  -2  -7    3.98    0.80
   3  -2  -7    3.41    0.69
   3  -2  -6   18.95    1.51
   3  -2  -6   22.20    1.65
   3  -2  -5   44.81    2.21
   3  -2  -5   43.07    2.20
  -3   2   5   42.10    2.12
   3  -2  -5   46.21    2.26
   3  -2  -4   11.60    1.08
   3  -2  -4   12.03    1.12
  -3   2   4    9.90    0.95
   3  -2  -4   13.13    1.14
   3  -2  -3  207.37    4.33
   3  -2  -3  193.23    4.23
  -3   2   3  192.70    4.20
   3  -2  -3  211.55    4.42
   3  -2  -2  287.41    4.91
   3  -2  -2  292.96    4.90
   3  -2  -1    1.46    0.33
  -3   2   1    1.54    0.36
   3  -2  -1    1.98    0.40
   3  -2  -1    2.12    0.39
   3  -2   0   32.74    1.47
   3  -2   0   33.91    1.31
  -3   2   0   30.85    1.42
   3  -2   0   33.53    1.49
   3  -2   1  468.92    6.07
   3  -2   1  470.67    6.15
  -3   2  -2  979.26   10.30
   3  -2   2 1011.86   10.46
  -3   2  -2  974.31   10.01
   3  -2   2 1000.98   10.27
  -3   2  -3  150.58    3.33
   3  -2   3  158.54    3.51
  -3   2  -3  149.16    3.35
   3  -2   4  399.88    6.20
   3  -2   4  405.58    6.28
  -3   2  -5  399.68    6.53
   3  -2   5  413.55    6.64
   3  -2   6   13.43    1.19
  -3   2  -6   13.01    1.16
  -3   2  -6   12.43    1.09
   3  -2   7   39.48    2.19
  -3   2  -7   33.70    1.84
  -3   2  -7   37.78    2.11
  -3   2  -8   13.83    1.30
   3  -2   8   13.75    1.38
  -3   2  -8   11.30    1.20
  -3   2  -8   14.44    1.38
   3  -2   9  114.11    4.30
  -3   2  -9   99.06    3.56
  -3   2  -9  104.41    3.88
  -3   2  -9  104.65    4.01
  -3   2 -10   25.41    1.94
   3  -1  -9   22.82    1.95
   3  -1  -8   11.31    1.25
   3  -1  -7    0.34    0.21
   3  -1  -7    0.68    0.50
   3  -1  -6    1.71    0.51
   3  -1  -6    1.61    0.46
   3  -1  -5  102.33    3.11
   3  -1  -5  129.67    3.86
   3  -1  -4  318.08    5.73
  -3   1   4  325.83    5.52
   3  -1  -3   74.12    2.30
  -3   1   3   66.71    2.16
   3  -1  -3   73.41    2.52
   3  -1  -3   68.39    2.38
   3  -1  -2   22.53    1.15
   3  -1  -2   22.84    1.25
  -3   1   2   20.85    1.12
   3  -1  -2   23.37    1.32
   3  -1  -1  225.89    4.10
   3  -1  -1  226.40    3.76
   3  -1  -1  231.89    3.90
  -3   1   1  218.39    3.74
   3  -1   0   42.60    1.50
   3  -1   0   44.90    1.44
  -3   1   0   39.00    1.43
   3  -1   0   46.15    1.74
   3  -1   1    0.37    0.16
   3  -1   1    0.63    0.26
   3  -1   1    0.51    0.15
   3  -1   1    0.34    0.17
  -3   1  -1    0.37    0.16
  -3   1  -1    0.33    0.15
   3  -1   2   10.99    0.82
  -3   1  -2    9.96    0.72
   3  -1   2   10.14    0.75
   3  -1   2   10.98    0.77
  -3   1  -2    9.76    0.70
   3  -1   3   36.15    1.54
   3  -1   3   32.73    1.32
  -3   1  -3   31.91    1.37
  -3   1  -3   31.97    1.39
   3  -1   3   36.87    1.54
   3  -1   4  152.07    3.45
   3  -1   4  148.93    3.49
   3  -1   4  142.45    2.79
  -3   1  -4  133.08    3.11
  -3   1  -4  136.07    3.16
  -3   1  -5  136.33    3.43
  -3   1  -5  140.38    3.39
  -3   1  -6   87.01    2.77
  -3   1  -6   89.59    2.93
  -3   1  -7   90.08    3.12
  -3   1  -7   92.25    3.14
   3  -1   8    7.59    1.02
  -3   1  -8    6.82    0.93
  -3   1  -8    7.52    0.95
   3  -1   9  114.83    4.24
  -3   1  -9  104.83    3.87
  -3   1  -9  106.38    3.90
  -3   1 -10   97.62    3.65
  -3   1 -10  114.33    4.30
  -3   1 -11   13.31    1.43
   3   0  -9    0.79    0.46
   3   0  -8   -0.30    0.51
   3   0  -7    0.46    0.29
   3   0  -6   -0.04    0.36
   3   0  -6    0.09    0.22
   3   0  -5   38.99    2.98
   3   0  -5   68.54    2.23
   3   0  -4   50.73    3.53
   3   0  -4  109.13    2.82
  -3   0   3   84.29    2.22
   3   0  -3   92.67    2.34
   3   0  -2  752.88    7.52
   3   0  -2  737.43    7.89
  -3   0   2  764.92    7.37
   3   0  -1  513.49    8.32
   3   0  -1  639.62    6.54
   3   0  -1  772.93    7.32
   3   0  -1  559.91    6.95
  -3   0   1  766.67    5.99
  -3   0   0   18.62    0.55
   3   0   0    7.79    0.98
   3   0   0   16.36    0.72
   3   0   0    9.42    0.76
   3   0   0   21.03    0.98
  -3   0   0   17.59    0.73
  -3   0  -1   35.77    0.96
   3   0   1   17.77    1.27
   3   0   1   22.81    1.48
   3   0   1   34.26    1.43
  -3   0  -2 1075.04    8.55
   3   0   2  745.81    9.95
   3   0   2 1052.68    9.46
  -3   0  -2 1194.92    8.34
  -3   0  -3 1785.13   11.50
   3   0   3 1727.78   12.18
  -3   0  -4  257.85    3.49
  -3   0  -4  263.68    3.38
  -3   0  -5  678.81    6.81
  -3   0  -5  696.54    6.57
  -3   0  -6  480.68    5.81
  -3   0  -6  470.91    6.01
  -3   0  -7   19.36    1.12
  -3   0  -7   23.32    1.30
  -3   0  -8   20.00    1.22
  -3   0  -8   17.02    1.41
  -3   0  -9    3.26    0.57
   3   0   9    2.34    0.65
  -3   0  -9    3.49    0.68
  -3   0 -10   66.01    2.60
  -3   0 -10   65.78    2.76
   3   1  -8   73.79    3.47
   3   1  -7   15.25    1.47
   3   1  -6    0.50    0.42
   3   1  -6    0.32    0.29
   3   1  -5    0.26    0.29
   3   1  -5    0.48    0.36
   3   1  -4  176.61    4.18
   3   1  -4  187.81    4.52
   3   1  -3  483.07    6.91
   3   1  -3  526.31    7.60
   3   1  -2   27.01    1.46
   3   1  -2   26.07    1.29
   3   1  -2   24.64    1.26
   3   1  -1    0.60    0.18
   3   1  -1    0.44    0.22
   3   1  -1    0.45    0.19
  -3  -1   1    0.58    0.15
   3   1  -1    0.87    0.32
   3   1   0  320.91    4.04
   3   1   0  314.54    4.69
   3   1   0  316.65    3.30
   3   1   0  322.87    4.13
  -3  -1   0  305.56    3.29
   3   1   0  313.69    4.71
   3   1   1   60.42    1.65
   3   1   1   57.17    1.80
   3   1   1   62.98    1.41
  -3  -1  -1   53.67    1.26
   3   1   1   58.94    1.33
  -3  -1  -1   59.04    1.51
   3   1   1   63.40    1.92
   3   1   2   25.38    1.16
   3   1   2   28.18    1.05
   3   1   2   24.15    1.13
  -3  -1  -2   23.42    0.89
  -3  -1  -2   26.95    1.13
   3   1   3    7.79    0.66
   3   1   3    8.61    0.65
   3   1   3    7.68    0.65
  -3  -1  -3    6.53    0.50
  -3  -1  -3    8.16    0.68
   3   1   4    3.60    0.46
   3   1   4    3.43    0.46
   3   1   4    3.52    0.48
  -3  -1  -4    2.98    0.42
  -3  -1  -4    3.38    0.50
   3   1   5  333.17    5.43
   3   1   5  310.53    5.24
   3   1   5  306.43    4.75
  -3  -1  -5  285.34    4.87
  -3  -1  -5  281.50    5.11
   3   1   6  185.17    3.69
  -3  -1  -6  173.37    4.04
  -3  -1  -7   65.34    2.66
  -3  -1  -7   62.44    2.45
  -3  -1  -8   62.34    2.77
  -3  -1  -8   58.40    2.54
   3   1   9   15.62    1.58
  -3  -1  -9   14.21    1.40
  -3  -1  -9   12.58    1.22
  -3  -1 -10   94.73    4.03
   3   1  10  101.80    4.27
   3   2  -8    8.60    1.20
   3   2  -7    4.58    0.83
   3   2  -6    0.01    0.28
   3   2  -5    2.02    0.54
   3   2  -5    2.09    0.49
   3   2  -4  129.28    3.66
   3   2  -4  132.55    3.82
   3   2  -3  197.19    3.78
   3   2  -3  193.55    4.20
   3   2  -3  201.33    4.47
   3   2  -2  218.21    3.65
   3   2  -2  230.26    4.09
   3   2  -2  214.19    4.15
   3   2  -2  217.91    4.32
   3   2  -1 1095.51   10.42
   3   2  -1 1109.64   10.96
   3   2  -1 1099.21   10.88
   3   2   0  621.96    6.89
   3   2   0  601.49    7.17
   3   2   0  633.17    6.87
   3   2   0  653.67    7.44
  -3  -2   0  625.62    6.13
   3   2   1   11.26    0.77
   3   2   1   10.16    0.75
   3   2   1   11.24    0.66
  -3  -2  -1    8.45    0.36
   3   2   1   10.89    0.45
   3   2   1   11.56    0.78
  -3  -2  -1   10.47    0.65
   3   2   2   77.76    2.12
   3   2   2   73.96    1.57
   3   2   2   72.62    2.11
  -3  -2  -2   77.11    2.03
   3   2   2   76.69    1.98
   3   2   3  752.49    7.92
   3   2   3  734.64    7.43
   3   2   3  670.84    7.82
  -3  -2  -3  628.02    6.83
  -3  -2  -3  673.14    7.83
   3   2   4  680.11    7.52
   3   2   4  682.43    7.79
   3   2   4  670.75    8.00
  -3  -2  -4  664.29    7.66
  -3  -2  -4  678.55    8.29
   3   2   5  118.25    2.89
   3   2   5  118.98    3.13
   3   2   5  111.94    2.96
  -3  -2  -5  108.54    2.94
  -3  -2  -5  111.00    3.15
   3   2   6  379.71    6.59
   3   2   6  369.57    6.00
  -3  -2  -6  353.30    6.23
  -3  -2  -6  355.09    6.42
   3   2   7  220.71    5.23
   3   2   7  222.20    4.68
  -3  -2  -7  203.82    4.94
  -3  -2  -7  211.77    5.00
   3   2   8    8.51    1.07
  -3  -2  -8    9.00    1.10
  -3  -2  -8    8.35    1.03
  -3  -2  -9    4.02    0.72
   3   2   9    6.67    1.03
  -3  -2  -9    6.70    1.05
  -3  -2 -10    0.63    0.43
   3   2  10   -0.13    0.29
  -3  -2 -10    0.36    0.33
   3   3  -8   67.39    3.46
   3   3  -7  104.91    4.03
   3   3  -6   12.80    1.32
   3   3  -5   -0.12    0.30
   3   3  -5    0.13    0.37
   3   3  -4    0.43    0.22
   3   3  -4    0.60    0.42
   3   3  -3  134.62    3.29
   3   3  -3  128.68    3.51
   3   3  -3  134.94    3.68
   3   3  -2  276.11    4.66
   3   3  -2  287.61    4.69
   3   3  -2  268.11    4.93
   3   3  -2  291.49    5.26
   3   3  -1    0.42    0.22
   3   3  -1    0.59    0.21
   3   3  -1    0.79    0.27
   3   3  -1    0.46    0.27
  -3  -3   0    0.17    0.16
   3   3   0    0.11    0.20
   3   3   0    0.05    0.16
   3   3   0    0.03    0.16
   3   3   0    0.27    0.20
   3   3   1   87.48    2.39
   3   3   1   91.48    2.20
   3   3   1   84.62    2.36
  -3  -3  -1   85.24    2.13
   3   3   2   25.25    1.27
   3   3   2   23.66    0.86
   3   3   2   25.13    1.08
   3   3   2   24.72    1.27
  -3  -3  -2   22.31    0.80
   3   3   2   25.27    1.11
  -3  -3  -2   25.01    1.24
   3   3   3   97.46    2.21
   3   3   3  101.28    2.70
   3   3   3   94.55    2.67
  -3  -3  -3   96.62    2.20
  -3  -3  -3   98.88    2.71
   3   3   4   36.43    1.43
   3   3   4   38.71    1.63
   3   3   4   35.00    1.65
  -3  -3  -4   31.84    1.41
  -3  -3  -4   33.45    1.65
   3   3   5   18.44    1.04
   3   3   5   22.49    1.40
   3   3   5   18.72    1.28
  -3  -3  -5   18.99    1.22
  -3  -3  -5   18.58    1.30
   3   3   6  232.17    4.31
   3   3   6  252.32    5.31
   3   3   6  245.93    5.14
  -3  -3  -6  230.10    4.96
  -3  -3  -6  222.19    5.04
   3   3   7   87.57    3.32
  -3  -3  -7   80.24    3.04
  -3  -3  -7   81.14    3.14
   3   3   8   22.04    1.75
   3   3   8   22.70    1.69
  -3  -3  -8   20.34    1.61
  -3  -3  -8   20.76    1.68
   3   3   9   20.72    1.81
  -3  -3  -9   17.21    1.57
  -3  -3  -9   17.08    1.60
   3   3  10   15.99    1.71
  -3  -3 -10   14.52    1.60
  -3  -3 -10   14.21    1.48
   3   4  -7   21.43    1.87
   3   4  -6   13.91    1.44
   3   4  -5    1.43    0.51
   3   4  -4    4.97    0.78
   3   4  -4    3.77    0.66
   3   4  -4    3.55    0.66
   3   4  -3  160.13    4.10
   3   4  -3  156.95    4.06
   3   4  -2  195.26    4.25
   3   4  -2  188.91    4.25
   3   4  -2  202.58    4.34
   3   4  -1  166.39    3.74
   3   4  -1  167.23    3.45
   3   4  -1  166.63    3.74
  -3  -4   0  661.97    7.79
   3   4   0  651.37    8.18
   3   4   0  665.71    7.93
   3   4   0  664.44    8.07
   3   4   0  675.64    7.67
  -3  -4  -1  385.07    5.68
   3   4   1  396.86    5.99
   3   4   1  389.18    5.54
   3   4   1  383.10    5.78
  -3  -4  -2    0.76    0.25
   3   4   2    0.64    0.19
   3   4   2    1.19    0.34
   3   4   2    0.91    0.30
   3   4   2    0.75    0.22
  -3  -4  -3   57.71    1.83
   3   4   3   47.47    1.94
   3   4   3   52.12    2.06
  -3  -4  -3   53.72    1.79
  -3  -4  -3   51.78    2.06
  -3  -4  -4  300.39    5.07
   3   4   4  272.87    5.12
   3   4   4  272.50    5.25
   3   4   4  309.11    5.16
  -3  -4  -4  294.66    4.99
  -3  -4  -4  283.47    5.41
  -3  -4  -5  215.21    4.72
   3   4   5  221.41    4.78
   3   4   5  190.66    4.56
   3   4   5  199.79    4.42
  -3  -4  -5  185.35    4.47
  -3  -4  -5  188.04    4.26
   3   4   6   21.54    1.62
   3   4   6   20.24    1.46
  -3  -4  -6   19.51    1.46
  -3  -4  -6   19.18    1.49
   3   4   7  131.79    4.13
   3   4   7  136.86    4.42
  -3  -4  -7  115.84    3.75
  -3  -4  -7  122.58    3.98
   3   4   8   84.27    3.54
   3   4   8   84.74    3.55
  -3  -4  -8   74.46    3.28
  -3  -4  -9    2.37    0.68
   3   4   9    2.22    0.73
  -3  -4  -9    2.50    0.68
  -3  -4 -10    1.56    0.57
   3   4  10    0.84    0.50
  -3  -4 -10    1.96    0.67
   3   5  -7   49.93    2.96
   3   5  -6   69.42    3.32
   3   5  -5   10.24    1.24
   3   5  -5    8.12    1.10
   3   5  -4    0.27    0.31
   3   5  -4    0.31    0.35
   3   5  -3    0.34    0.40
   3   5  -3    0.13    0.24
   3   5  -3   -0.18    0.37
   3   5  -2   33.37    1.84
   3   5  -2   32.09    1.82
   3   5  -2   32.16    1.67
   3   5  -1   30.17    1.69
   3   5  -1   27.94    1.60
   3   5  -1   29.06    1.45
   3   5  -1   31.06    1.55
  -3  -5   0    2.88    0.52
   3   5   0    2.72    0.49
   3   5   0    2.84    0.54
   3   5   0    2.74    0.46
  -3  -5  -1    0.43    0.33
   3   5   1    0.09    0.23
   3   5   1    0.02    0.22
   3   5   1   -0.03    0.19
  -3  -5  -2    7.84    0.84
   3   5   2    8.14    0.86
   3   5   2    8.12    0.83
   3   5   3   10.54    0.99
   3   5   3   10.04    0.96
  -3  -5  -3   10.62    1.03
   3   5   4   46.80    2.13
   3   5   4   47.18    2.21
  -3  -5  -4   52.51    2.37
  -3  -5  -5   32.88    1.80
   3   5   5   29.10    1.72
   3   5   5   32.14    1.95
   3   5   5   36.88    2.01
  -3  -5  -5   33.41    1.88
  -3  -5  -5   28.46    1.84
   3   5   6   38.57    2.14
  -3  -5  -6   37.40    2.08
   3   5   6   40.79    2.42
  -3  -5  -6   35.73    2.11
  -3  -5  -6   34.57    2.09
  -3  -5  -7   93.61    3.55
   3   5   7  115.59    4.39
   3   5   7  116.95    4.10
   3   5   7  104.65    3.77
  -3  -5  -7   90.63    3.49
  -3  -5  -7   94.50    3.66
   3   5   8   20.89    1.76
   3   5   8   24.50    2.13
  -3  -5  -8   19.79    1.72
  -3  -5  -8   19.73    1.74
  -3  -5  -9    3.13    0.76
   3   5   9    3.68    0.84
  -3  -5  -9    3.66    0.83
   3   5   9    4.39    1.02
   3   6  -6   22.63    2.00
   3   6  -5    9.58    1.27
   3   6  -5    8.85    1.21
   3   6  -4    6.58    1.01
   3   6  -4    5.81    0.93
   3   6  -3    1.05    0.39
   3   6  -3    0.83    0.35
   3   6  -2  116.23    3.83
   3   6  -2  116.83    3.72
   3   6  -1  103.68    3.48
   3   6  -1  105.70    3.39
  -3  -6   0   59.01    2.50
   3   6   0   64.62    2.65
   3   6   0   63.75    2.53
   3   6   0   66.72    2.39
  -3  -6  -1  205.83    4.89
   3   6   1  220.14    5.01
   3   6   1  209.94    4.67
   3   6   1  215.32    4.57
  -3  -6  -2  114.44    3.58
   3   6   2  117.54    3.58
   3   6   2  114.78    3.39
  -3  -6  -3    1.54    0.48
   3   6   3    1.17    0.38
   3   6   3    1.03    0.37
   3   6   4   11.40    1.11
   3   6   4   12.55    1.22
  -3  -6  -4   10.94    1.16
   3   6   5   66.44    2.79
   3   6   5   72.86    3.20
  -3  -6  -5   63.38    2.96
   3   6   6   22.40    1.64
  -3  -6  -6   21.83    1.64
   3   6   6   25.12    2.06
  -3  -6  -6   21.27    1.77
  -3  -6  -7    1.09    0.50
   3   6   7    0.65    0.43
   3   6   7    1.97    0.70
  -3  -6  -7    0.96    0.46
  -3  -6  -7    0.83    0.41
   3   6   7    0.93    0.49
  -3  -6  -8   22.30    1.90
   3   6   8   24.64    2.11
   3   6   8   27.10    2.45
   3   6   8   22.23    1.91
  -3  -6  -8   19.90    1.78
  -3  -6  -8   24.55    2.05
   3   6   9   18.85    2.08
   3   6   9   15.86    1.70
  -3  -6  -9   14.37    1.64
  -3  -6  -9   15.51    1.72
   3   6  10    0.88    0.62
   3   7  -6   16.62    1.79
   3   7  -5   23.30    2.04
   3   7  -5   20.57    1.88
   3   7  -4    6.13    1.03
   3   7  -4    5.59    0.95
   3   7  -3    0.01    0.29
   3   7  -3    0.57    0.40
   3   7  -2    0.12    0.27
   3   7  -2    0.17    0.30
   3   7  -1    1.87    0.55
   3   7  -1    1.14    0.40
  -3  -7   0    0.51    0.25
   3   7   0    0.36    0.33
   3   7   0    0.65    0.36
  -3  -7  -1    4.53    0.78
   3   7   1    5.29    0.83
   3   7   1    5.74    0.79
  -3  -7  -2    1.02    0.49
   3   7   2    1.44    0.52
   3   7   2    1.15    0.45
  -3  -7  -3    0.35    0.41
   3   7   3    0.22    0.34
   3   7   3    0.00    0.22
  -3  -7  -4    3.88    0.80
   3   7   4    4.57    0.77
   3   7   4    3.96    0.74
   3   7   5   16.59    1.50
   3   7   5   16.20    1.58
  -3  -7  -5   14.08    1.48
   3   7   6    9.80    1.24
   3   7   6   10.24    1.40
  -3  -7  -6    9.72    1.32
   3   7   7   18.29    1.99
  -3  -7  -7   15.88    1.68
  -3  -7  -8   22.18    1.94
   3   7   8   29.30    2.45
   3   7   8   28.64    2.64
   3   7   8   23.90    2.13
  -3  -7  -8   22.29    2.00
  -3  -7  -8   24.49    2.22
  -3  -7  -9    2.96    0.89
   3   7   9    2.71    0.99
   3   7  10    1.22    0.69
   3   8  -4    1.78    0.66
   3   8  -4    3.46    0.75
   3   8  -3    4.42    0.93
   3   8  -3    5.01    0.92
   3   8  -2    0.58    0.35
   3   8  -2   -0.08    0.40
   3   8  -1   46.69    2.61
   3   8  -1   42.21    2.39
  -3  -8   0   27.76    2.00
   3   8   0   30.83    2.05
  -3  -8  -1   14.82    1.55
   3   8   1   17.88    1.58
  -3  -8  -2   41.12    2.57
   3   8   2   47.36    2.55
   3   8   2   45.10    2.25
  -3  -8  -3   21.72    1.86
   3   8   3   24.82    1.84
   3   8   3   22.92    1.65
  -3  -8  -4    0.35    0.36
   3   8   4    1.16    0.50
   3   8   4    0.50    0.35
  -3  -8  -5    2.50    0.73
   3   8   5    1.43    0.43
   3   8   5    2.27    0.64
  -3  -8  -6    9.04    1.34
   3   8   6    9.16    1.16
   3   8   6    9.60    1.31
   3   8   7    1.81    0.64
   3   8   8    0.05    0.43
   3   8   9    4.17    0.98
   3   9  -2    0.07    0.37
   3   9  -2    0.17    0.45
   3   9  -1   -0.22    0.43
  -3  -9   0    0.06    0.32
   3   9   0    0.16    0.36
  -3  -9  -1    2.38    0.71
   3   9   1    2.14    0.62
  -3  -9  -2    3.80    1.01
   3   9   2    3.82    0.88
  -3  -9  -3    1.02    0.51
   3   9   3    0.68    0.34
   3   9   3    0.51    0.39
   3   9   4   -0.26    0.33
   3   9   4   -0.11    0.25
   3   9   5    1.11    0.45
   3   9   5    0.92    0.54
   3   9   6    2.39    0.74
   3   9   6    2.59    0.89
   3   9   7    1.36    0.80
   3  10   1    4.05    0.91
   3  10   2    2.31    0.77
   3  10   3    4.34    1.03
   3  10   4    1.91    0.64
   3  10   4    1.18    0.49
   3  10   5   -0.08    0.30
   3  10   5   -0.15    0.41
   4  -8  -3    6.29    1.05
   4  -7  -4    0.20    0.31
   4  -7  -3    0.85    0.50
  -4   7   0    1.02    0.50
   4  -7   0    1.78    0.67
   4  -7   1   -0.04    0.34
  -4   7  -1   -0.02    0.28
  -4   7  -6    2.00    0.72
   4  -6  -5    2.44    0.71
   4  -6  -4   13.11    1.44
  -4   6   4   10.92    1.51
   4  -6  -3   22.63    1.99
  -4   6   3   20.19    1.89
   4  -6  -3   20.53    1.73
   4  -6  -2   38.34    2.55
  -4   6   2   31.31    2.19
   4  -6  -2   33.56    2.17
   4  -6  -1   14.23    1.55
  -4   6   1   14.57    1.55
   4  -6   0    0.21    0.26
  -4   6   0    0.00    0.26
   4  -6   1   -0.17    0.29
  -4   6  -1    0.50    0.39
   4  -6   2    2.74    0.65
  -4   6  -2    2.86    0.71
   4  -6   3   25.80    1.98
  -4   6  -3   26.19    1.93
   4  -6   4   51.51    2.76
  -4   6  -4   43.97    2.40
  -4   6  -5   15.75    1.49
  -4   6  -6   -1.07    0.59
   4  -6   7    1.85    0.59
  -4   6  -7    0.51    0.41
   4  -5  -6    0.26    0.36
   4  -5  -5    0.80    0.44
   4  -5  -5    0.58    0.40
  -4   5   5    0.37    0.48
   4  -5  -4    0.31    0.41
  -4   5   4    0.14    0.34
   4  -5  -4    0.02    0.29
   4  -5  -3    3.14    0.80
   4  -5  -3    3.03    0.75
  -4   5   3    2.56    0.76
   4  -5  -2    0.31    0.48
   4  -5  -2   -0.25    0.32
  -4   5   2    0.24    0.38
   4  -5  -1    2.91    0.73
   4  -5  -1    2.64    0.57
  -4   5   1    2.35    0.67
   4  -5   0    0.96    0.45
  -4   5   0    0.76    0.42
   4  -5   1    3.04    0.68
  -4   5  -1    2.50    0.63
  -4   5  -2    0.94    0.45
   4  -5   2    1.08    0.44
   4  -5   3   48.33    2.28
   4  -5   3   47.13    2.46
   4  -5   4  108.01    3.46
  -4   5  -4  101.45    3.62
   4  -5   4  105.85    3.74
   4  -5   5   28.85    1.93
  -4   5  -5   21.56    1.51
  -4   5  -5   24.64    1.84
   4  -5   5   25.11    1.87
   4  -5   6    5.32    0.92
   4  -5   6    4.33    0.81
  -4   5  -6    3.87    0.68
  -4   5  -6    4.33    0.74
   4  -5   7    9.43    1.26
  -4   5  -7    6.58    0.93
   4  -5   8    0.23    0.48
  -4   5  -8    0.53    0.34
   4  -4  -7    4.46    0.95
   4  -4  -6    3.60    0.82
   4  -4  -5   -0.13    0.37
   4  -4  -5    0.12    0.30
  -4   4   5    0.10    0.29
   4  -4  -4   20.16    1.74
   4  -4  -4   21.49    1.69
  -4   4   4   19.79    1.73
   4  -4  -3   60.99    2.88
   4  -4  -3   58.51    2.65
  -4   4   3   57.82    2.81
   4  -4  -2  134.04    4.17
   4  -4  -2  124.06    3.66
   4  -4  -1  162.59    4.53
   4  -4  -1  163.42    4.06
  -4   4   1  160.78    4.51
   4  -4  -1  170.55    4.21
   4  -4   0   41.13    2.19
  -4   4   0   36.62    2.03
   4  -4   0   43.97    2.11
   4  -4   1    3.64    0.59
   4  -4   1    4.45    0.78
  -4   4  -1    2.83    0.61
   4  -4   2    1.07    0.38
  -4   4  -2    1.02    0.39
   4  -4   2    0.79    0.32
   4  -4   3   14.75    1.21
  -4   4  -3   15.54    1.17
  -4   4  -3   14.26    1.24
   4  -4   3   13.73    1.26
   4  -4   4   32.41    1.87
  -4   4  -4   33.37    1.82
  -4   4  -4   31.11    1.87
   4  -4   4   33.17    1.97
   4  -4   5  118.28    3.82
  -4   4  -5  106.66    3.48
  -4   4  -5  103.53    3.53
   4  -4   5  106.06    3.62
  -4   4  -5  106.74    3.69
  -4   4  -6   41.73    2.30
  -4   4  -6   45.38    2.41
   4  -4   6   43.77    2.40
  -4   4  -6   47.41    2.59
  -4   4  -7    3.99    0.85
   4  -4   7    5.03    0.98
   4  -4   7    4.13    0.77
  -4   4  -7    4.11    0.84
  -4   4  -7    3.64    0.70
   4  -4   8    2.77    0.79
  -4   4  -8    2.29    0.72
   4  -4   9   37.97    3.22
  -4   4  -9   24.14    2.00
   4  -3  -7    5.08    0.87
   4  -3  -6    3.24    0.70
   4  -3  -5    0.55    0.47
   4  -3  -4    4.03    0.73
   4  -3  -4    4.72    0.79
  -4   3   4    4.12    0.80
   4  -3  -4    3.75    0.69
   4  -3  -3    1.85    0.52
   4  -3  -3    1.77    0.42
  -4   3   3    1.35    0.43
   4  -3  -3    2.10    0.52
   4  -3  -2    0.96    0.35
   4  -3  -2    0.59    0.31
  -4   3   2    0.72    0.37
   4  -3  -2    1.07    0.39
   4  -3  -1   12.11    1.15
   4  -3  -1   11.57    0.99
  -4   3   1   11.29    1.11
   4  -3  -1   12.46    1.10
   4  -3   0   20.30    1.42
  -4   3   0   18.61    1.35
   4  -3   0   22.21    1.47
   4  -3   1    0.03    0.21
   4  -3   1    0.19    0.24
  -4   3  -1    0.23    0.31
   4  -3   2    0.18    0.21
  -4   3  -2    0.36    0.33
   4  -3   2    0.14    0.24
   4  -3   3   19.79    1.34
  -4   3  -3   18.34    1.33
   4  -3   3   19.46    1.40
  -4   3  -3   20.36    1.37
   4  -3   4  239.30    5.05
  -4   3  -4  227.59    4.97
   4  -3   4  238.48    5.10
  -4   3  -4  228.45    5.01
  -4   3  -5  218.91    5.02
   4  -3   5  232.59    5.21
  -4   3  -5  227.48    5.21
  -4   3  -6   61.61    2.58
  -4   3  -6   60.60    2.64
   4  -3   6   67.47    2.98
  -4   3  -6   61.40    2.77
   4  -3   7   49.67    2.85
  -4   3  -7   35.89    2.07
  -4   3  -7   29.11    1.73
  -4   3  -7   37.42    2.28
   4  -3   7   46.34    2.64
  -4   3  -8   19.94    1.60
  -4   3  -8   17.93    1.55
  -4   3  -8   20.88    1.81
   4  -3   8   21.79    1.88
   4  -3   9    2.30    0.84
  -4   3  -9    1.28    0.54
   4  -2  -7   22.51    1.81
   4  -2  -7   25.12    2.00
   4  -2  -6   23.74    1.79
   4  -2  -6   27.98    2.08
   4  -2  -5   21.00    1.58
   4  -2  -5   27.22    1.93
   4  -2  -4   -0.04    0.33
   4  -2  -4    0.10    0.28
   4  -2  -3   90.66    3.05
   4  -2  -3   92.59    3.16
  -4   2   3   86.08    2.95
   4  -2  -3   97.10    3.36
   4  -2  -2  193.95    4.28
   4  -2  -2  197.84    4.38
   4  -2  -2  205.52    4.77
   4  -2  -1  394.59    6.25
   4  -2  -1  403.22    6.17
  -4   2   1  382.27    6.23
   4  -2  -1  392.89    6.51
   4  -2   0  371.16    5.96
   4  -2   0  391.70    5.59
  -4   2   0  357.22    5.86
   4  -2   0  398.39    6.48
   4  -2   1   93.15    2.78
  -4   2  -1   86.56    2.62
   4  -2   1   91.07    2.77
   4  -2   2   20.97    1.31
  -4   2  -2   19.49    1.25
   4  -2   2   22.46    1.35
  -4   2  -2   20.88    1.20
   4  -2   3   12.54    1.04
  -4   2  -3   11.38    0.97
   4  -2   3   11.89    1.00
  -4   2  -3   11.09    0.93
   4  -2   4   16.45    1.23
  -4   2  -4   14.64    1.12
   4  -2   4   16.21    1.22
  -4   2  -4   15.91    1.22
   4  -2   5    6.09    0.82
  -4   2  -5    5.25    0.67
  -4   2  -5    6.18    0.83
   4  -2   5    6.46    0.83
  -4   2  -6  141.74    4.08
   4  -2   6  143.90    4.10
  -4   2  -7   53.31    2.59
  -4   2  -7   53.33    2.64
   4  -2   7   57.73    2.74
  -4   2  -8   19.34    1.64
  -4   2  -8   21.44    1.77
   4  -2   8   23.62    1.88
  -4   2  -9    3.86    0.82
   4  -2   9    4.19    0.85
  -4   2  -9    3.60    0.74
  -4   2 -10   37.94    2.43
   4  -1  -7   13.13    1.33
   4  -1  -7   15.99    1.64
   4  -1  -6   13.54    1.24
   4  -1  -6   19.15    1.73
   4  -1  -5    1.23    0.52
   4  -1  -5    0.60    0.31
   4  -1  -4    0.23    0.32
   4  -1  -4    0.72    0.39
   4  -1  -3   25.51    1.46
   4  -1  -3   29.98    1.84
   4  -1  -2   23.33    1.36
   4  -1  -2   26.01    1.62
   4  -1  -1   11.60    0.88
   4  -1  -1   12.11    0.92
  -4   1   1   11.76    0.88
   4  -1  -1   12.57    1.10
   4  -1   0  113.65    2.81
   4  -1   0  119.61    2.74
  -4   1   0  106.86    2.72
   4  -1   0  112.95    3.18
   4  -1   1   52.97    2.02
   4  -1   1   55.72    1.93
   4  -1   1   57.43    2.16
   4  -1   2    7.17    0.74
   4  -1   2    8.06    0.81
  -4   1  -2    6.73    0.66
   4  -1   2    7.54    0.72
  -4   1  -2    6.74    0.62
   4  -1   3    6.01    0.76
   4  -1   3    6.65    0.69
  -4   1  -3    5.67    0.63
   4  -1   3    5.72    0.65
  -4   1  -3    5.80    0.65
   4  -1   4   90.33    2.80
   4  -1   4   92.94    2.53
  -4   1  -4   88.86    2.69
   4  -1   5  543.65    8.00
  -4   1  -5  467.10    7.24
  -4   1  -5  496.13    7.47
   4  -1   5  517.94    7.61
   4  -1   6  319.69    6.16
   4  -1   6  335.79    6.39
  -4   1  -6  275.27    5.55
  -4   1  -6  282.60    5.75
  -4   1  -7   87.15    3.02
  -4   1  -7   92.15    3.31
  -4   1  -8   67.42    2.90
  -4   1  -8   73.15    3.16
   4  -1   9   25.96    2.03
  -4   1  -9   24.09    1.86
  -4   1  -9   25.94    1.98
   4   0  -7   29.34    2.99
   4   0  -7   55.88    2.91
   4   0  -6   34.18    3.49
   4   0  -6   99.57    3.00
   4   0  -5   48.06    3.66
   4   0  -5   87.71    2.94
   4   0  -4   48.28    3.46
   4   0  -4   85.74    2.54
   4   0  -3    1.51    0.55
   4   0  -3    2.66    0.45
   4   0  -2  114.36    4.81
   4   0  -2  171.74    3.36
   4   0  -1  237.89    6.48
   4   0  -1  148.69    5.96
   4   0   0  652.77    6.26
  -4   0   0  708.00    6.72
   4   0   1  329.98    6.10
   4   0   1  295.41    5.43
  -4   0  -2  156.86    2.34
   4   0   2   96.61    2.77
   4   0   2  108.84    3.19
   4   0   2   86.74    3.10
  -4   0  -2  189.36    2.69
  -4   0  -3   49.93    1.41
   4   0   3   23.57    1.93
   4   0   3   33.62    1.67
   4   0   3   35.76    1.66
  -4   0  -3   51.54    1.34
  -4   0  -4   31.77    1.20
   4   0   4   30.12    1.31
  -4   0  -5    0.64    0.27
   4   0   5    1.33    0.40
   4   0   5    1.53    0.44
   4   0   5    1.73    0.36
  -4   0  -5    2.26    0.33
  -4   0  -6    1.64    0.41
   4   0   6    2.14    0.61
   4   0   6    2.11    0.56
  -4   0  -6    3.37    0.46
  -4   0  -7  123.65    3.01
   4   0   7   54.16    3.70
   4   0   7   75.49    3.47
  -4   0  -7  116.98    2.97
   4   0   8   13.56    1.91
   4   0   8   13.08    1.55
  -4   0  -8   13.77    1.26
  -4   0  -9   26.67    1.90
   4   0   9   26.83    2.25
   4   1  -7   12.33    1.43
   4   1  -7   13.08    1.53
   4   1  -6   14.72    1.46
   4   1  -6   14.38    1.52
   4   1  -5   24.74    1.77
   4   1  -5   27.25    1.98
   4   1  -4    1.54    0.48
   4   1  -4    1.45    0.43
   4   1  -3    4.04    0.67
   4   1  -3    4.15    0.64
   4   1  -2  102.52    3.07
   4   1  -2  100.95    2.95
   4   1  -2  100.83    3.26
   4   1  -1   84.45    2.72
   4   1  -1   81.89    2.42
   4   1  -1   82.99    2.78
   4   1   0   84.66    2.13
   4   1   0   80.78    2.54
   4   1   0   85.87    2.23
   4   1   0   85.40    2.70
   4   1   1  300.90    5.16
   4   1   1  325.54    5.43
   4   1   2   86.87    2.50
  -4  -1  -2   77.50    1.90
   4   1   2   88.47    2.02
  -4  -1  -2   75.77    1.89
   4   1   2   89.95    2.57
   4   1   3   28.28    1.42
   4   1   3   25.74    1.35
  -4  -1  -3   24.45    1.13
  -4  -1  -3   22.77    1.12
   4   1   3   26.56    1.21
   4   1   4   15.83    1.11
   4   1   4   16.06    1.01
   4   1   4   14.72    1.02
  -4  -1  -4   14.75    0.93
  -4  -1  -4   14.43    0.99
   4   1   5  133.26    3.40
   4   1   5  135.77    3.37
   4   1   5  130.31    3.17
  -4  -1  -5  117.93    2.94
  -4  -1  -5  117.12    3.15
   4   1   6  547.30    7.88
   4   1   6  551.65    8.04
   4   1   6  511.46    7.10
  -4  -1  -6  456.85    7.01
  -4  -1  -6  454.94    7.20
   4   1   7  292.50    5.92
   4   1   7  275.85    5.79
  -4  -1  -7  247.82    5.32
  -4  -1  -7  237.74    5.24
   4   1   8   87.24    3.43
  -4  -1  -8   80.11    3.15
   4   1   9   41.52    2.51
  -4  -1  -9   40.29    2.37
  -4  -1  -9   33.68    2.04
  -4  -1 -10   18.33    1.71
  -4  -1 -10   15.18    1.48
   4   2  -7   65.18    3.35
   4   2  -6  100.00    3.95
   4   2  -6   97.86    3.93
   4   2  -5  112.29    3.92
   4   2  -5  114.97    4.14
   4   2  -4  141.71    4.15
   4   2  -4  146.21    4.44
   4   2  -3  117.66    3.51
   4   2  -3  130.78    4.03
   4   2  -2    4.77    0.68
   4   2  -2    4.22    0.63
   4   2  -2    4.99    0.73
   4   2  -1  227.56    3.96
   4   2  -1  221.82    4.48
   4   2  -1  231.55    4.38
   4   2  -1  238.75    4.89
   4   2   0  351.65    5.15
   4   2   0  348.72    5.64
   4   2   1  450.67    6.11
   4   2   1  464.38    5.60
   4   2   1  467.86    6.55
   4   2   2  235.84    4.23
  -4  -2  -2  233.18    3.96
   4   2   3   91.30    2.55
   4   2   3   85.87    2.53
  -4  -2  -3   91.43    2.58
   4   2   4   26.75    1.45
   4   2   4   26.81    1.30
   4   2   4   23.77    1.36
  -4  -2  -4   21.88    1.08
  -4  -2  -4   25.70    1.46
   4   2   5    7.75    0.77
   4   2   5    9.01    0.83
   4   2   5    8.22    0.83
  -4  -2  -5    8.12    0.75
  -4  -2  -5    7.99    0.85
   4   2   6    4.63    0.65
   4   2   6    4.77    0.69
   4   2   6    5.03    0.68
  -4  -2  -6    5.05    0.69
  -4  -2  -6    4.15    0.65
  -4  -2  -7    5.10    0.78
   4   2   7    5.86    0.79
   4   2   7    5.69    0.82
   4   2   7    5.86    0.78
  -4  -2  -7    5.19    0.76
   4   2   8   23.26    1.70
   4   2   8   23.18    1.80
  -4  -2  -8   20.76    1.64
  -4  -2  -9    0.56    0.42
   4   2   9    1.70    0.61
   4   2   9    0.97    0.53
  -4  -2  -9    0.53    0.34
   4   2  10   13.41    1.86
   4   2  10   13.57    1.54
  -4  -2 -10   12.49    1.41
  -4  -2 -10   11.24    1.33
   4   3  -7    7.29    1.22
   4   3  -6    2.31    0.67
   4   3  -6    3.04    0.76
   4   3  -5    3.08    0.76
   4   3  -5    3.63    0.75
   4   3  -4    9.06    1.08
   4   3  -4    9.76    1.13
   4   3  -3   16.05    1.34
   4   3  -3   14.67    1.32
   4   3  -2    2.43    0.50
   4   3  -2    2.18    0.44
   4   3  -1  128.54    3.19
   4   3  -1  123.84    3.28
   4   3  -1  122.60    3.21
   4   3  -1  124.72    3.42
   4   3   0  104.55    2.83
   4   3   0  100.89    2.90
   4   3   0  105.80    2.77
   4   3   0  104.69    2.99
   4   3   1  177.13    3.76
   4   3   1  182.78    3.50
   4   3   2  340.93    5.54
   4   3   2  347.28    5.35
  -4  -3  -2  357.00    5.38
   4   3   3   88.76    2.72
   4   3   3   83.25    2.67
  -4  -3  -3   82.90    2.57
   4   3   3   86.41    2.48
   4   3   4   21.62    1.19
   4   3   4   21.67    1.38
  -4  -3  -4   22.14    1.39
   4   3   5    9.25    0.94
   4   3   5    7.59    0.80
   4   3   5    6.98    0.85
  -4  -3  -5    6.95    0.71
  -4  -3  -5    6.58    0.82
   4   3   6   60.17    2.17
   4   3   6   67.02    2.70
  -4  -3  -6   64.63    2.51
  -4  -3  -6   62.42    2.69
   4   3   7  257.82    5.16
   4   3   7  281.35    6.09
   4   3   7  277.61    5.89
  -4  -3  -7  255.80    5.70
  -4  -3  -7  246.08    5.88
   4   3   8  167.39    4.94
   4   3   8  170.13    4.75
  -4  -3  -8  153.03    4.63
  -4  -3  -8  149.35    4.72
   4   3   9   37.57    2.43
  -4  -3  -9   33.24    2.26
  -4  -3  -9   30.79    2.15
   4   3  10    8.45    1.30
  -4  -3 -10    6.99    1.11
  -4  -3 -10    6.05    0.96
   4   4  -6   82.55    3.74
   4   4  -5  116.97    4.20
   4   4  -5  105.45    4.03
   4   4  -4  107.67    3.79
   4   4  -4  103.29    3.75
   4   4  -3   99.25    3.42
   4   4  -3  104.31    3.61
   4   4  -2   89.11    2.97
   4   4  -2   86.94    3.01
   4   4  -2   92.80    3.17
   4   4  -1    0.19    0.19
   4   4  -1    0.15    0.23
   4   4  -1   -0.09    0.22
   4   4  -1    0.28    0.29
   4   4   0  142.36    3.64
   4   4   0  146.66    3.56
   4   4   0  150.05    3.62
   4   4   1  196.90    4.29
   4   4   1  207.68    4.10
   4   4   1  198.14    4.00
   4   4   2  128.79    3.44
   4   4   2  136.51    3.12
   4   4   2  127.33    3.42
   4   4   2  137.29    3.20
  -4  -4  -2  134.84    3.41
   4   4   3   60.08    2.34
   4   4   3   56.21    2.31
   4   4   3   60.60    1.99
  -4  -4  -3   60.47    2.33
   4   4   4   23.43    1.50
   4   4   4   22.12    1.48
  -4  -4  -4   23.29    1.51
   4   4   5    4.94    0.75
  -4  -4  -5    4.98    0.76
   4   4   6    0.38    0.27
   4   4   6    0.42    0.30
  -4  -4  -6    0.23    0.21
  -4  -4  -6    0.65    0.34
   4   4   7   14.38    1.40
   4   4   7   15.05    1.46
  -4  -4  -7   12.21    1.20
  -4  -4  -7   11.47    1.27
  -4  -4  -8    0.98    0.43
  -4  -4  -8    1.08    0.35
   4   4   8    2.14    0.65
   4   4   8    1.59    0.56
  -4  -4  -9    0.24    0.39
  -4  -4  -9    0.15    0.30
   4   4  10    7.89    1.21
  -4  -4 -10    8.47    1.32
   4   5  -6    2.72    0.77
   4   5  -5    0.00    0.39
   4   5  -4    0.13    0.33
   4   5  -4    0.16    0.29
   4   5  -3    0.84    0.36
   4   5  -3    0.38    0.30
   4   5  -3    0.82    0.51
   4   5  -2   17.55    1.41
   4   5  -2   15.55    1.35
   4   5  -2   17.41    1.39
   4   5  -1    0.41    0.33
   4   5  -1    0.00    0.22
   4   5  -1    0.01    0.22
   4   5   0   65.44    2.66
   4   5   0   64.62    2.40
   4   5   0   68.07    2.57
   4   5   0   68.45    2.44
   4   5   1   65.05    2.60
   4   5   1   63.76    2.38
   4   5   1   61.67    2.41
   4   5   2  125.37    3.64
   4   5   2  129.44    3.34
   4   5   2  118.59    3.45
  -4  -5  -2  121.41    3.42
   4   5   3  198.92    4.66
   4   5   3  194.08    4.64
  -4  -5  -3  199.76    4.72
   4   5   4   56.08    2.47
   4   5   4   54.43    2.49
  -4  -5  -4   57.88    2.56
   4   5   5    5.49    0.83
   4   5   5    5.29    0.83
  -4  -5  -5    5.68    0.85
  -4  -5  -6    0.58    0.34
   4   5   6    0.65    0.30
   4   5   7   14.42    1.55
  -4  -5  -7   12.04    1.33
   4   5   8   74.83    3.48
   4   5   8   80.46    3.86
  -4  -5  -8   62.70    3.13
  -4  -5  -8   64.29    3.26
   4   5   9   52.77    3.11
  -4  -5  -9   47.01    2.82
  -4  -5  -9   46.86    2.94
   4   6  -5   48.71    2.93
   4   6  -4   76.67    3.52
   4   6  -3   61.26    3.08
   4   6  -3   55.39    2.88
   4   6  -2   33.54    2.17
   4   6  -2   31.99    2.03
   4   6  -1   36.20    2.16
   4   6  -1   33.44    2.01
   4   6   0    1.13    0.42
   4   6   0    1.33    0.46
   4   6   0    1.22    0.40
   4   6   1   43.25    2.28
   4   6   1   41.26    2.10
   4   6   1   40.41    2.05
  -4  -6  -2   51.58    2.45
   4   6   2   53.70    2.52
   4   6   2   49.14    2.31
   4   6   3   20.97    1.60
   4   6   3   18.94    1.48
  -4  -6  -3   18.73    1.51
   4   6   4    7.83    0.99
   4   6   4    6.67    0.98
  -4  -6  -4    6.06    0.94
  -4  -6  -5    1.63    0.52
   4   6   5    1.90    0.53
   4   6   5    2.73    0.65
  -4  -6  -6    0.41    0.44
   4   6   6   -0.03    0.38
  -4  -6  -7    3.55    0.80
   4   6   7    3.87    0.88
   4   6   8    9.53    1.54
  -4  -6  -8    6.37    1.10
   4   6   9   -0.09    0.45
   4   6  10    0.40    0.58
   4   7  -4    0.20    0.32
   4   7  -4    0.64    0.45
   4   7  -3    3.65    0.76
   4   7  -3    4.77    0.92
   4   7  -2    7.66    1.10
   4   7  -2    7.22    1.10
   4   7  -1    9.08    1.20
   4   7  -1    8.58    1.13
   4   7   0    1.18    0.44
   4   7   0    0.77    0.36
   4   7   1   25.98    1.91
   4   7   1   24.19    1.77
   4   7   1   25.02    1.69
  -4  -7  -2   21.03    1.71
   4   7   2   21.01    1.70
   4   7   2   20.13    1.56
   4   7   3   39.23    2.33
   4   7   3   36.82    2.20
  -4  -7  -3   35.35    2.22
   4   7   4   65.49    3.06
   4   7   4   63.02    3.00
  -4  -7  -4   61.08    3.03
   4   7   5   18.00    1.66
   4   7   5   17.58    1.72
  -4  -7  -5   17.69    1.70
  -4  -7  -6    0.27    0.36
   4   7   6    0.32    0.28
   4   7   6    0.56    0.42
  -4  -7  -7    0.26    0.38
   4   7   7    0.20    0.57
   4   7   8    1.27    0.82
   4   7   9   14.88    2.10
   4   7  10    9.63    1.78
   4   8  -3   30.94    2.40
   4   8  -3   29.94    2.22
   4   8  -2   18.34    1.77
   4   8  -2   14.78    1.52
   4   8  -1    6.46    1.05
   4   8  -1    4.20    0.87
   4   8   0    7.92    1.13
   4   8   0    6.19    0.96
   4   8   1    1.34    0.54
  -4  -8  -2    7.33    1.11
   4   8   2    7.00    1.06
   4   8   2    7.21    0.95
  -4  -8  -3    6.46    1.10
   4   8   3    6.18    0.98
   4   8   3    7.02    0.96
  -4  -8  -4    0.26    0.43
   4   8   4    0.85    0.41
  -4  -8  -5    0.29    0.43
   4   8   5    0.84    0.47
   4   8   5    0.39    0.34
   4   8   6    1.91    0.53
   4   8   6    1.68    0.56
   4   8   7    1.86    0.72
   4   8   8    2.60    0.92
   4   9  -1    5.60    1.13
   4   9  -1    5.04    1.00
   4   9   0    3.57    0.89
   4   9   1    1.28    0.63
   4   9   2    6.06    1.09
  -4  -9  -3    3.17    0.80
   4   9   3    3.29    0.88
   4   9   3    3.55    0.74
   4   9   4    5.88    1.12
   4   9   4    5.09    1.00
   4   9   5    9.12    1.36
   4   9   5    8.80    1.37
   4   9   6    2.79    0.84
   4   9   6    4.08    1.03
   4   9   7    1.03    0.46
   4  10   4    0.60    0.50
   4  10   4    1.06    0.61
   5  -6  -4    1.40    0.62
  -5   6   0    7.16    1.17
  -5   6  -1    4.05    0.83
   5  -5  -5    2.18    0.73
   5  -5  -4    0.21    0.35
   5  -5  -3    0.30    0.39
  -5   5   3   -0.24    0.46
   5  -5  -2    2.13    0.63
  -5   5   2    1.90    0.52
   5  -5  -1    6.53    1.05
  -5   5   1    6.09    1.01
   5  -5   0   36.92    2.39
  -5   5   0   34.68    2.31
   5  -5   1   20.81    1.74
  -5   5  -1   18.68    1.64
   5  -5   2   28.04    2.01
  -5   5  -2   25.99    1.94
   5  -5   3   24.27    1.71
   5  -5   3   25.30    1.93
  -5   5  -3   23.96    1.84
   5  -5   4    0.55    0.37
  -5   5  -4    0.48    0.40
   5  -5   4   -0.02    0.27
   5  -5   5    5.94    0.93
   5  -5   6    4.30    0.82
  -5   5  -6    2.68    0.64
   5  -5   7   10.05    1.33
  -5   5  -7    8.34    1.09
   5  -4  -5   14.51    1.58
   5  -4  -4   26.91    2.09
   5  -4  -3    2.15    0.52
   5  -4  -2   19.62    1.70
  -5   4   2   17.16    1.52
   5  -4  -1    0.82    0.44
  -5   4   1    0.45    0.42
   5  -4   0   -0.16    0.26
  -5   4   0    0.25    0.27
   5  -4   0   -0.34    0.36
   5  -4   1   20.01    1.59
  -5   4  -1   17.38    1.50
   5  -4   1   21.69    1.61
   5  -4   2    0.49    0.31
   5  -4   2    0.20    0.25
  -5   4  -2    0.25    0.33
   5  -4   3    0.54    0.30
  -5   4  -3    1.31    0.48
   5  -4   3    1.69    0.49
   5  -4   4    0.29    0.32
   5  -4   4    0.85    0.55
  -5   4  -4    0.18    0.27
   5  -4   5    2.14    0.58
   5  -4   5    2.35    0.58
  -5   4  -5    3.29    0.67
  -5   4  -5    2.47    0.58
   5  -4   6    0.97    0.37
   5  -4   6    1.11    0.44
  -5   4  -6    1.78    0.62
  -5   4  -6    1.08    0.35
   5  -4   7   25.92    2.09
  -5   4  -7   24.69    1.91
   5  -4   8   19.13    1.98
  -5   4  -8   17.70    1.74
   5  -3  -6    1.92    0.58
   5  -3  -5    7.88    1.06
   5  -3  -4   17.57    1.57
   5  -3  -4   20.55    1.78
   5  -3  -3    4.45    0.85
   5  -3  -3    3.00    0.68
   5  -3  -2    2.03    0.68
   5  -3  -1    6.30    0.87
  -5   3   1    6.19    0.84
   5  -3  -1    6.00    0.86
   5  -3   0   30.79    1.87
  -5   3   0   28.71    1.82
   5  -3   0   31.59    1.95
   5  -3   1  176.52    4.53
  -5   3  -1  166.14    4.38
   5  -3   2  102.28    3.39
   5  -3   2   98.02    3.26
   5  -3   3   69.55    2.75
   5  -3   3   65.33    2.66
  -5   3  -3   60.12    2.53
  -5   3  -4   49.94    2.39
   5  -3   4   54.48    2.53
  -5   3  -4   52.25    2.38
  -5   3  -5    0.79    0.42
   5  -3   5    0.29    0.22
   5  -3   5   -0.03    0.28
  -5   3  -5    0.09    0.23
   5  -3   6    9.92    1.17
  -5   3  -6    9.42    1.10
   5  -3   6    9.45    1.11
  -5   3  -6    9.64    1.21
   5  -3   7    7.89    1.12
  -5   3  -7    9.51    1.18
  -5   3  -7    7.72    1.01
   5  -3   7    8.59    1.14
  -5   3  -7    8.32    1.12
   5  -3   8   16.44    1.73
  -5   3  -8   13.41    1.44
   5  -3   9   12.49    1.65
  -5   3  -9    9.72    1.28
   5  -2  -6   10.67    1.25
   5  -2  -6   13.93    1.61
   5  -2  -5   15.90    1.48
   5  -2  -5   21.65    1.95
   5  -2  -4   25.98    1.84
   5  -2  -4   30.72    2.16
   5  -2  -3   77.98    2.95
   5  -2  -3   96.41    3.74
   5  -2  -2    0.93    0.48
   5  -2  -2    0.25    0.27
   5  -2  -1   58.68    2.72
   5  -2   0    5.76    0.76
  -5   2   0    5.48    0.73
   5  -2   0    6.24    0.86
   5  -2   1    0.06    0.24
   5  -2   1    0.25    0.34
  -5   2  -1   -0.01    0.18
   5  -2   2   14.00    1.19
   5  -2   2   13.81    1.14
  -5   2  -2   11.99    1.03
   5  -2   3   28.95    1.70
  -5   2  -3   26.16    1.57
   5  -2   3   30.47    1.71
   5  -2   4    4.73    0.85
   5  -2   4    3.62    0.58
  -5   2  -4    3.54    0.57
  -5   2  -4    3.44    0.58
  -5   2  -5    1.25    0.45
   5  -2   5    1.82    0.46
   5  -2   5    0.92    0.34
  -5   2  -5    0.63    0.25
   5  -2   6   14.18    1.35
  -5   2  -6   12.30    1.20
   5  -2   6   13.18    1.27
  -5   2  -6   12.89    1.31
   5  -2   7    7.90    1.12
  -5   2  -7    5.71    0.80
  -5   2  -7    7.24    1.04
   5  -2   7    7.92    1.09
   5  -2   8   80.11    3.73
  -5   2  -8   69.24    3.31
   5  -2   8   75.12    3.48
   5  -2   9   47.24    3.17
   5  -1  -7    1.77    0.69
   5  -1  -6    0.58    0.36
   5  -1  -6    0.22    0.32
   5  -1  -5   11.88    1.26
   5  -1  -5   17.09    1.73
   5  -1  -4   36.93    1.98
   5  -1  -4   53.73    2.88
   5  -1  -3   75.56    2.76
   5  -1  -3   97.50    3.74
   5  -1  -2   15.08    1.17
   5  -1  -2   17.38    1.49
   5  -1  -1    0.47    0.38
   5  -1   0   23.50    1.61
   5  -1   1   67.42    2.75
   5  -1   2  441.06    6.98
   5  -1   2  435.69    6.39
   5  -1   2  445.24    7.17
   5  -1   3  196.20    4.51
  -5   1  -3  183.77    4.02
   5  -1   3  194.64    4.23
  -5   1  -4   74.54    2.56
   5  -1   4   80.32    2.69
  -5   1  -4   76.96    2.63
   5  -1   5   72.27    2.80
  -5   1  -5   63.22    2.43
   5  -1   5   72.85    2.78
  -5   1  -5   68.04    2.66
  -5   1  -6    2.20    0.59
   5  -1   6    1.14    0.45
   5  -1   6    2.05    0.54
  -5   1  -6    1.83    0.45
   5  -1   7    8.24    1.09
  -5   1  -7    7.26    0.92
  -5   1  -7    7.47    1.07
   5  -1   7    9.07    1.10
   5  -1   8    5.02    0.93
  -5   1  -8    5.40    0.87
  -5   1  -8    6.04    1.05
   5  -1   8    5.91    0.94
   5  -1   9   11.40    1.53
   5  -1  10    5.69    1.21
   5   0  -6    0.20    0.43
   5   0  -6    1.63    0.60
   5   0  -5   27.66    2.79
   5   0  -5   57.69    2.47
   5   0  -4   29.72    2.47
   5   0  -4   43.86    1.96
   5   0  -3   35.79    2.66
   5   0  -3   45.00    2.09
   5   0  -2  101.80    4.34
   5   0  -2  129.26    3.37
   5   0  -1    4.05    0.93
   5   0   0   56.60    2.74
   5   0   0   39.86    2.62
   5   0   1   27.29    2.00
   5   0   1   23.57    1.95
   5   0   2    0.34    0.24
   5   0   2    0.02    0.31
   5   0   3    0.72    0.27
   5   0   3    0.03    0.24
  -5   0  -3    0.02    0.21
   5   0   4  117.77    3.92
   5   0   4  117.84    3.54
   5   0   4  122.03    3.66
  -5   0  -5   11.58    0.83
   5   0   5    8.23    1.03
   5   0   5    9.35    0.98
   5   0   5   10.11    0.94
  -5   0  -5   12.17    0.85
  -5   0  -6   -0.02    0.31
   5   0   6   -0.76    0.19
   5   0   6   -0.13    0.20
  -5   0  -7   22.26    1.42
   5   0   7   13.76    1.62
   5   0   7   18.19    1.65
  -5   0  -7   25.56    1.37
  -5   0  -8   21.20    1.45
   5   0   8   14.51    1.81
   5   0   8   16.93    1.66
  -5   0  -8   20.31    1.32
   5   0   9   74.37    4.18
   5   0   9   77.22    3.68
  -5   0  -9   74.63    3.25
   5   0  10   40.26    3.36
   5   1  -6    5.82    1.14
   5   1  -6    5.19    0.98
   5   1  -5    5.32    1.03
   5   1  -5    4.81    0.85
   5   1  -4   52.04    2.63
   5   1  -4   56.63    3.06
   5   1  -3  134.14    4.03
   5   1  -3  138.54    4.44
   5   1  -2  231.07    5.06
   5   1  -2  239.44    5.74
   5   1  -1   23.45    1.57
   5   1  -1   24.50    1.43
   5   1  -1   26.96    1.79
   5   1   0    0.17    0.26
   5   1   0    0.41    0.27
   5   1   1   45.51    2.06
   5   1   1   50.34    2.27
   5   1   2   87.56    2.89
   5   1   2   94.69    3.16
   5   1   3  549.77    7.85
   5   1   3  535.75    7.82
   5   1   4  168.63    4.01
   5   1   4  167.32    3.99
   5   1   5   59.98    2.36
  -5  -1  -5   53.94    2.08
   5   1   5   59.94    2.27
   5   1   6   55.91    2.37
   5   1   6   53.47    2.35
   5   1   6   51.97    2.20
  -5  -1  -6   46.81    2.05
  -5  -1  -6   45.03    2.08
  -5  -1  -7   -0.03    0.21
   5   1   7   -0.69    0.34
   5   1   7   -0.07    0.23
  -5  -1  -7    0.01    0.20
  -5  -1  -8    1.56    0.51
   5   1   8    1.89    0.57
   5   1   8    1.90    0.51
  -5  -1  -8    2.04    0.53
  -5  -1  -9   -0.40    0.43
   5   1   9    0.36    0.31
   5   1   9   -0.26    0.44
  -5  -1  -9    0.63    0.40
   5   1  10    3.89    0.93
   5   1  11    0.54    0.38
   5   2  -6    0.50    0.49
   5   2  -6   -0.03    0.40
   5   2  -5    1.18    0.47
   5   2  -5    0.90    0.49
   5   2  -4   52.68    2.74
   5   2  -4   55.51    2.98
   5   2  -3   26.01    1.83
   5   2  -3   26.08    1.96
   5   2  -2   36.16    1.98
   5   2  -2   37.33    2.01
   5   2  -2   36.91    2.19
   5   2  -1   85.25    3.04
   5   2  -1   85.86    2.83
   5   2  -1   92.91    3.34
   5   2   0   35.22    1.86
   5   2   0   38.54    2.05
   5   2   1   50.68    1.97
   5   2   1   50.87    2.22
   5   2   1   51.50    2.23
   5   2   2   61.93    2.38
   5   2   2   70.56    2.58
   5   2   3    4.38    0.63
   5   2   3    4.95    0.70
   5   2   4   18.56    1.29
   5   2   4   16.81    1.24
  -5  -2  -4   16.68    1.19
   5   2   5  154.29    3.96
  -5  -2  -5  150.13    3.97
   5   2   6   20.77    1.46
   5   2   6   20.50    1.39
   5   2   6   20.26    1.42
  -5  -2  -6   18.09    1.27
  -5  -2  -6   17.71    1.37
   5   2   7    4.24    0.70
   5   2   7    5.42    0.83
   5   2   7    4.62    0.71
  -5  -2  -7    3.39    0.54
  -5  -2  -7    3.43    0.64
   5   2   8    5.37    0.86
   5   2   8    6.04    0.92
  -5  -2  -8    5.35    0.79
  -5  -2  -8    5.61    0.86
   5   2   9   17.67    1.65
   5   2   9   16.97    1.69
  -5  -2  -9   14.54    1.43
  -5  -2  -9   13.83    1.43
   5   2  10   36.56    2.53
   5   3  -6    1.33    0.60
   5   3  -6    1.73    0.73
   5   3  -5    5.22    0.97
   5   3  -5    6.67    1.12
   5   3  -4   14.31    1.52
   5   3  -4   16.05    1.62
   5   3  -3   74.58    3.18
   5   3  -3   82.43    3.53
   5   3  -2  197.55    4.92
   5   3  -2  187.34    4.77
   5   3  -2  186.96    5.03
   5   3  -1  273.25    5.57
   5   3  -1  287.41    5.57
   5   3  -1  290.59    6.10
   5   3   0   15.12    1.13
   5   3   0   15.60    1.26
   5   3   0   13.81    1.21
   5   3   1    0.71    0.33
   5   3   1    0.53    0.26
   5   3   1    0.91    0.34
   5   3   2   48.22    2.10
   5   3   2   45.62    2.09
   5   3   2   47.79    2.08
   5   3   3   63.89    2.49
   5   3   3   71.34    2.58
   5   3   4  304.55    5.81
   5   3   4  319.72    5.68
   5   3   5   60.00    2.30
   5   3   5   59.91    2.55
  -5  -3  -5   64.21    2.69
   5   3   6   35.20    1.92
   5   3   6   32.89    1.93
  -5  -3  -6   31.10    1.97
   5   3   7   17.44    1.38
   5   3   7   20.35    1.60
  -5  -3  -7   17.83    1.54
  -5  -3  -8    3.61    0.79
   5   3   8    4.49    0.82
   5   3   8    3.82    0.73
  -5  -3  -8    4.09    0.72
  -5  -3  -9    0.07    0.29
   5   3   9    0.89    0.57
  -5  -3  -9    0.00    0.30
   5   4  -5   -0.08    0.31
   5   4  -5    0.33    0.45
   5   4  -4    0.91    0.55
   5   4  -4    0.84    0.41
   5   4  -3   25.38    1.87
   5   4  -3   27.93    2.05
   5   4  -2    4.73    0.75
   5   4  -2    6.29    0.97
   5   4  -1   15.06    1.30
   5   4  -1   14.00    1.24
   5   4  -1   15.75    1.35
   5   4   0   21.41    1.48
   5   4   0   19.32    1.40
   5   4   0   20.85    1.42
   5   4   0   20.75    1.49
   5   4   1   60.76    2.47
   5   4   1   56.83    2.41
   5   4   1   61.91    2.48
   5   4   2   25.99    1.64
   5   4   2   23.85    1.54
   5   4   2   28.40    1.68
   5   4   3   56.64    2.48
   5   4   3   54.71    2.40
   5   4   3   56.32    2.20
   5   4   4   16.30    1.37
  -5  -4  -4   16.43    1.36
   5   4   5   21.99    1.64
  -5  -4  -5   22.29    1.67
   5   4   6   76.23    3.15
  -5  -4  -6   71.23    3.12
   5   4   7   30.85    2.09
  -5  -4  -7   28.62    2.04
   5   4   8    8.40    1.19
  -5  -4  -8    8.18    1.15
  -5  -4  -9    0.18    0.43
   5   5  -5    1.70    0.64
   5   5  -4    2.59    0.71
   5   5  -4    2.36    0.71
   5   5  -3   18.62    1.68
   5   5  -3   19.28    1.71
   5   5  -2   49.59    2.57
   5   5  -2   53.42    2.70
   5   5  -1  132.35    4.14
   5   5  -1  130.11    4.03
   5   5  -1  131.34    4.11
   5   5   0  170.64    4.61
   5   5   0  156.19    4.26
   5   5   0  165.00    4.35
   5   5   0  163.77    4.29
   5   5   1    4.40    0.75
   5   5   1    3.59    0.64
   5   5   2    0.18    0.28
   5   5   2   -0.07    0.27
   5   5   3   19.11    1.51
   5   5   3   17.42    1.43
   5   5   4   33.20    2.04
   5   5   4   32.70    2.04
  -5  -5  -4   34.15    2.04
   5   5   5   80.54    3.32
  -5  -5  -5   74.47    3.12
   5   5   6    8.26    1.13
  -5  -5  -6    6.22    0.95
   5   5   7   11.72    1.41
  -5  -5  -7   11.07    1.37
  -5  -5  -8    1.06    0.50
   5   5   8    1.49    0.59
   5   5   9    4.84    1.05
   5   6  -4   -0.46    0.53
   5   6  -3   -0.09    0.39
   5   6  -2    3.60    0.78
   5   6  -2    3.10    0.75
   5   6  -1    0.49    0.46
   5   6  -1   -0.21    0.39
   5   6   0    2.71    0.64
   5   6   0    2.70    0.62
   5   6   0    2.16    0.50
   5   6   1    1.30    0.51
   5   6   1    0.75    0.28
   5   6   2   44.93    2.46
   5   6   2   42.62    2.26
   5   6   3   15.27    1.45
   5   6   3   14.39    1.36
   5   6   4   25.48    1.88
   5   6   4   23.74    1.84
  -5  -6  -4   24.38    1.82
   5   6   5   17.82    1.62
   5   6   5   19.58    1.74
  -5  -6  -5   19.19    1.69
   5   6   6    7.37    1.10
  -5  -6  -6    6.75    1.07
   5   6   7   17.90    1.84
  -5  -6  -7   13.73    1.55
   5   6   8   17.90    2.02
  -5  -6  -8   16.30    1.77
   5   6   9    3.98    1.00
   5   6  10   -0.33    0.60
   5   7  -3    0.43    0.53
   5   7  -2   11.52    1.49
   5   7  -2   12.18    1.46
   5   7  -1   19.38    1.84
   5   7  -1   15.92    1.55
   5   7   0   47.76    2.80
   5   7   0   42.48    2.45
   5   7   1   42.93    2.44
   5   7   1   38.72    2.20
   5   7   2    0.14    0.24
   5   7   2   -0.02    0.31
   5   7   3    0.44    0.36
   5   7   3    0.20    0.27
  -5  -7  -4    2.84    0.72
   5   7   4    3.82    0.79
   5   7   4    3.17    0.75
   5   7   5   10.12    1.34
   5   7   5    9.24    1.31
  -5  -7  -5    8.03    1.21
   5   7   6    7.23    1.21
  -5  -7  -6    6.96    1.14
  -5  -7  -7    0.29    0.55
   5   7   7    0.09    0.40
   5   7   8    2.13    0.91
   5   7   9    1.18    0.80
   5   8  -2   -0.15    0.47
   5   8  -1    0.61    0.53
   5   8  -1   -0.48    0.57
   5   8   0    0.59    0.47
   5   8   0    1.94    0.59
   5   8   1   -0.18    0.37
   5   8   2   -0.07    0.33
   5   8   2    0.48    0.34
   5   8   3   17.36    1.67
   5   8   3   15.68    1.47
   5   8   4    7.59    1.07
   5   8   4    6.77    1.02
  -5  -8  -5    5.04    1.01
   5   8   5    6.07    1.04
   5   8   5    5.83    1.02
   5   8   6    6.79    1.10
   5   8   6    7.82    1.23
   5   8   7    1.40    0.64
   5   9   1    9.11    1.42
   5   9   2    3.74    0.96
   5   9   3   -0.20    0.35
   5   9   3   -0.13    0.29
   5   9   4   -0.21    0.31
   5   9   4    0.44    0.47
   5   9   5    0.92    0.72
   5   9   5    0.12    0.46
   6  -5   4   -0.28    0.37
   6  -5   5    1.04    0.47
   6  -5   6    0.86    0.71
   6  -4   0    9.22    1.18
   6  -4   1    0.05    0.28
   6  -4   1    0.12    0.23
  -6   4  -1    0.57    0.38
   6  -4   2    3.21    0.69
   6  -4   2    3.35    0.77
  -6   4  -2    2.32    0.64
   6  -4   3    0.36    0.21
   6  -4   3    0.43    0.35
   6  -4   4   40.90    2.40
   6  -4   4   41.71    2.50
  -6   4  -4   35.44    2.17
   6  -4   5   47.22    2.70
   6  -4   6   48.49    2.95
   6  -4   7   21.19    1.93
  -6   4  -7   20.76    1.85
   6  -3  -3   12.02    1.44
   6  -3  -2   24.50    1.98
   6  -3  -1   13.64    1.53
   6  -3   0   42.76    2.48
   6  -3   1   28.25    2.00
   6  -3   2    3.12    0.72
   6  -3   2    4.03    0.72
  -6   3  -2    4.03    0.74
   6  -3   3    2.99    0.64
  -6   3  -3    1.87    0.50
   6  -3   3    2.93    0.65
   6  -3   4    2.07    0.55
  -6   3  -4    1.03    0.37
   6  -3   4    1.88    0.49
   6  -3   5   -0.21    0.28
   6  -3   5    0.07    0.35
  -6   3  -5    0.17    0.36
  -6   3  -6    0.32    0.26
  -6   3  -6    0.22    0.26
   6  -3   7    0.42    0.29
  -6   3  -7    2.01    0.71
  -6   3  -8    4.96    0.97
   6  -2  -5    0.19    0.47
   6  -2  -5    0.69    0.51
   6  -2  -4    1.13    0.55
   6  -2  -3   -0.44    0.54
   6  -2  -2    2.43    0.63
   6  -2  -1   26.86    2.07
   6  -2   0  126.86    4.27
   6  -2   1   49.86    2.60
   6  -2   2    1.76    0.50
   6  -2   3    1.68    0.46
   6  -2   4    2.66    0.55
   6  -2   4    3.28    0.63
  -6   2  -4    2.30    0.51
  -6   2  -5   92.56    3.34
   6  -2   5   96.44    3.45
  -6   2  -6   98.12    3.57
   6  -2   6   97.04    3.58
  -6   2  -6   92.00    3.56
  -6   2  -7   75.37    3.25
   6  -2   7   82.63    3.43
  -6   2  -7   78.92    3.47
   6  -2   8   33.96    2.42
   6  -1  -5    9.44    1.25
   6  -1  -5   11.49    1.57
   6  -1  -4    5.25    1.04
   6  -1  -4    3.49    0.72
   6  -1  -3    2.70    0.69
   6  -1  -2   28.88    2.15
   6  -1  -1   31.44    2.19
   6  -1   0   32.85    2.16
   6  -1   1   86.17    3.39
   6  -1   2   22.56    1.73
   6  -1   3   11.85    1.16
   6  -1   3    9.72    1.09
   6  -1   4   -0.13    0.23
   6  -1   4    0.48    0.34
   6  -1   5   11.84    1.24
  -6   1  -5   10.69    1.08
   6  -1   5   11.48    1.10
  -6   1  -6    3.41    0.74
   6  -1   6    2.85    0.59
  -6   1  -6    2.63    0.57
   6  -1   7   12.80    1.38
  -6   1  -7   10.60    1.16
   6  -1   7   11.55    1.30
  -6   1  -7    9.70    1.17
   6  -1   8    5.13    0.98
  -6   1  -8    2.44    0.55
   6  -1   9    1.32    0.65
   6   0  -5    0.84    0.56
   6   0  -5   -0.34    0.41
   6   0  -4    1.99    0.82
   6   0  -4    1.70    0.57
   6   0  -3    3.07    0.83
   6   0  -2    4.04    0.98
   6   0  -1   14.93    1.73
   6   0   0   58.77    3.18
   6   0   1  229.56    6.70
   6   0   1  221.36    6.31
   6   0   2   84.81    4.06
   6   0   2   92.81    3.89
   6   0   3    4.27    0.86
   6   0   3    4.71    0.82
   6   0   4    1.63    0.55
   6   0   4    2.03    0.55
   6   0   5    4.30    0.82
   6   0   5    4.94    0.77
  -6   0  -6  174.74    3.94
   6   0   6  116.40    4.82
   6   0   7   96.42    4.37
   6   0   7  116.80    4.13
  -6   0  -8  116.12    3.74
   6   0   8   81.59    4.07
   6   0   8   90.60    3.86
  -6   0  -8  117.60    3.53
   6   0   9   23.95    2.37
   6   1  -5   29.17    2.29
   6   1  -5   24.06    2.75
   6   1  -4   23.07    1.94
   6   1  -4   27.48    2.34
   6   1  -3    3.88    0.89
   6   1  -2   11.43    1.34
   6   1  -1   25.56    1.94
   6   1   0   19.04    1.58
   6   1   0   22.56    1.80
   6   1   1   36.33    2.12
   6   1   1   37.61    2.18
   6   1   2   69.57    2.87
   6   1   2   77.92    3.09
   6   1   3    7.43    0.93
   6   1   3    7.54    0.97
   6   1   4   12.53    1.23
   6   1   4   12.22    1.18
   6   1   5    2.73    0.56
   6   1   5    3.25    0.61
   6   1   6   33.13    2.08
   6   1   6   29.39    1.81
   6   1   7   23.16    1.90
  -6  -1  -7   14.80    1.32
   6   1   8   22.17    1.79
   6   1   8   24.61    1.91
  -6  -1  -8   21.15    1.68
  -6  -1  -8   19.06    1.60
   6   1   9    7.21    1.14
  -6  -1  -9    5.88    1.01
   6   1  10    0.07    0.33
   6   2  -5    3.09    0.90
   6   2  -4    6.39    1.18
   6   2  -4    5.26    1.02
   6   2  -3   14.23    1.43
   6   2  -3   13.73    1.59
   6   2  -2    3.68    0.78
   6   2  -1   24.91    1.83
   6   2  -1   27.50    2.08
   6   2   0   40.80    2.28
   6   2   0   42.37    2.42
   6   2   1   96.03    3.42
   6   2   1  112.67    3.90
   6   2   2  414.40    7.50
   6   2   2  426.80    7.60
   6   2   3  105.47    3.52
   6   2   3  118.73    3.79
   6   2   4    3.08    0.62
   6   2   4    2.25    0.52
   6   2   5    4.65    0.75
   6   2   5    4.88    0.78
   6   2   6    6.92    0.89
   6   2   6    7.85    0.96
  -6  -2  -6    8.18    0.97
   6   2   7   88.17    3.34
  -6  -2  -7   75.32    3.14
   6   2   8   64.06    3.01
  -6  -2  -8   47.31    2.52
   6   2   9   63.06    3.11
   6   2  10   16.93    1.75
   6   3  -4   40.00    2.62
   6   3  -4   41.89    2.90
   6   3  -3   30.31    2.12
   6   3  -3   31.66    2.42
   6   3  -2    1.08    0.44
   6   3  -2    1.24    0.54
   6   3  -1   12.11    1.27
   6   3  -1   13.32    1.42
   6   3   0    7.78    0.97
   6   3   0    8.63    1.09
   6   3   1    3.73    0.73
   6   3   1    2.62    0.63
   6   3   2   10.18    1.09
   6   3   2   11.07    1.15
   6   3   3   24.89    1.73
   6   3   3   28.46    1.81
   6   3   4    0.35    0.31
   6   3   4    0.87    0.34
   6   3   5    9.75    1.11
   6   3   5    9.91    1.07
  -6  -3  -6    2.64    0.62
   6   3   6    2.77    0.58
   6   3   6    2.33    0.58
   6   3   7   41.71    2.22
   6   3   7   42.70    2.42
  -6  -3  -7   38.74    2.30
   6   3   8   33.94    2.21
  -6  -3  -8   29.74    2.07
   6   4  -4    7.78    1.26
   6   4  -4    8.03    1.26
   6   4  -3   11.05    1.34
   6   4  -3   10.98    1.47
   6   4  -2   23.92    2.05
   6   4  -1    2.97    0.71
   6   4  -1    2.80    0.64
   6   4   0   27.53    1.91
   6   4   0   29.84    2.03
   6   4   1   34.20    2.07
   6   4   1   37.25    2.17
   6   4   2  111.42    3.68
   6   4   2  103.72    3.63
   6   4   2  115.40    3.76
   6   4   3  256.70    5.87
   6   4   3  268.81    5.66
   6   4   4   44.24    2.35
   6   4   4   48.29    2.30
   6   4   5    0.12    0.24
   6   4   6    7.13    1.02
  -6  -4  -6    6.89    0.98
  -6  -4  -7    5.92    0.96
   6   4   7    7.42    1.10
   6   4   8   26.75    2.13
  -6  -4  -8   24.12    2.04
   6   5  -3   21.03    1.91
   6   5  -3   22.25    2.01
   6   5  -2   15.79    1.56
   6   5  -2   16.86    1.66
   6   5  -1    0.82    0.56
   6   5   0    6.11    0.91
   6   5   0    6.52    0.96
   6   5   1    1.49    0.55
   6   5   1    1.55    0.54
   6   5   2    1.04    0.43
   6   5   2    0.71    0.39
   6   5   3    0.76    0.51
   6   5   3    0.87    0.43
   6   5   4    3.00    0.70
   6   5   5    0.47    0.37
   6   5   6    8.57    1.16
  -6  -5  -6    7.47    1.08
  -6  -5  -7    0.30    0.35
   6   5   7    0.85    0.43
   6   5   8   33.92    2.59
   6   5   9   24.78    2.35
   6   6  -2   10.77    1.41
   6   6   0    0.49    0.32
   6   6   1   10.76    1.28
   6   6   1   10.77    1.24
   6   6   2   21.21    1.81
   6   6   2   18.44    1.57
   6   6   3   68.71    3.26
   6   6   3   57.91    2.88
   6   6   4   88.17    3.75
   6   6   4   85.52    3.58
   6   6   5    9.54    1.26
   6   6   6    3.33    0.86
  -6  -6  -7    3.25    0.80
   6   6   7    4.43    0.97
   6   6   8    1.82    0.70
   6   6   9    2.83    0.89
   6   7   0    0.22    0.26
   6   7   1    0.63    0.44
   6   7   1    0.61    0.31
   6   7   2   -0.13    0.37
   6   7   2    0.54    0.33
   6   7   3    4.19    0.90
   6   7   3    3.28    0.73
   6   7   4    7.91    1.24
   6   7   4    6.78    1.08
   6   7   5   -0.03    0.30
   6   7   5    0.35    0.50
   6   7   6    0.24    0.29
   6   7   7    3.99    0.94
   6   8   1    0.57    0.40
   6   8   2    2.51    0.66
   6   8   2    0.20    0.35
   6   8   3    5.62    1.05
   6   8   3    5.00    0.87
   6   8   4   24.64    2.11
   6   8   4   24.75    1.96
   6   8   5   17.05    1.75
   6   8   5   16.70    1.69
   7  -4   1   22.15    1.99
   7  -4   2   28.01    2.19
   7  -4   3   17.90    1.79
   7  -4   4   12.34    1.41
   7  -3  -2   -0.25    0.58
   7  -3  -1    3.19    0.83
   7  -3   0    0.42    0.29
   7  -3   1    1.04    0.55
   7  -3   2    9.78    1.32
   7  -3   3   10.57    1.36
   7  -3   4    6.22    0.98
   7  -3   5    0.25    0.33
   7  -2  -2   16.37    1.86
   7  -2  -1    4.16    0.96
   7  -2   0    7.26    1.19
   7  -2   1   27.56    2.13
   7  -2   2   51.02    2.88
   7  -2   3   64.31    3.30
   7  -2   4   46.42    2.65
   7  -2   5   29.02    2.12
   7  -2   6    4.62    0.87
   7  -1  -2    1.69    0.68
   7  -1  -1    0.88    0.62
   7  -1   0    4.08    0.88
   7  -1   1    3.30    0.77
   7  -1   2   18.26    1.70
   7  -1   3   45.14    2.71
   7  -1   4   29.45    2.07
   7  -1   4   28.89    2.08
   7  -1   5   23.42    1.86
   7  -1   6    1.63    0.53
   7  -1   7   28.55    2.24
   7   0  -2   42.91    3.33
   7   0  -1   34.67    2.86
   7   0   0    7.47    1.24
   7   0   1   16.69    1.83
   7   0   2   40.88    2.77
   7   0   2   40.10    2.52
   7   0   3   62.75    3.20
   7   0   3   62.12    2.92
   7   0   4   62.03    3.43
   7   0   4   78.76    3.46
   7   0   5   51.96    2.86
   7   0   5   53.15    2.90
   7   0   6   31.02    2.24
   7   0   7    4.36    1.01
   7   0   8    0.42    0.47
   7   1  -2    3.15    0.82
   7   1  -1    0.92    0.50
   7   1   0    0.91    0.66
   7   1   1    3.17    0.75
   7   1   1    3.79    0.82
   7   1   2   10.27    1.27
   7   1   2   10.41    1.24
   7   1   3   52.40    2.74
   7   1   3   59.63    2.97
   7   1   4   90.14    3.50
   7   1   4   97.62    3.90
   7   1   5   50.37    2.62
   7   1   5   50.81    2.66
   7   1   6   33.68    2.22
   7   1   6   34.89    2.08
   7   1   7    2.54    0.65
   7   1   8   23.46    2.03
   7   2  -2  122.74    4.88
   7   2  -1   68.28    3.55
   7   2   0   63.01    3.10
   7   2   0   64.36    3.35
   7   2   1    9.67    1.22
   7   2   1   10.86    1.36
   7   2   2   25.57    1.92
   7   2   2   25.07    1.94
   7   2   3   33.46    2.15
   7   2   3   36.16    2.30
   7   2   4   39.01    2.35
   7   2   4   43.44    2.50
   7   2   5   47.60    2.63
   7   2   5   48.19    2.61
   7   2   6   30.18    2.04
   7   2   6   31.64    2.13
   7   2   7   20.62    1.72
   7   2   7   20.62    1.73
   7   2   8    7.58    1.07
   7   2   9    0.71    0.52
   7   3  -2    9.06    1.37
   7   3  -1   -0.03    0.45
   7   3  -1    1.06    0.54
   7   3   0    0.19    0.42
   7   3   0   -0.07    0.38
   7   3   1    1.50    0.73
   7   3   1    0.66    0.40
   7   3   2    5.21    0.88
   7   3   2    5.66    1.00
   7   3   3   13.56    1.44
   7   3   3   13.76    1.37
   7   3   4   58.09    2.92
   7   3   4   63.11    2.97
   7   3   5  104.38    3.90
   7   3   5  112.52    4.05
   7   3   6   52.16    2.82
   7   3   6   55.64    2.81
   7   3   7   22.29    1.75
   7   3   7   22.22    1.90
   7   3   8    1.67    0.51
   7   4  -2   64.25    3.71
   7   4  -1   99.13    4.22
   7   4  -1  101.24    4.29
   7   4   0   51.46    2.83
   7   4   0   53.86    3.03
   7   4   1   41.88    2.52
   7   4   1   43.71    2.66
   7   4   2    5.56    0.97
   7   4   2    6.65    1.02
   7   4   3    8.72    1.11
   7   4   3   10.87    1.29
   7   4   4    9.94    1.23
   7   4   4   10.26    1.17
   7   4   5   14.36    1.51
   7   4   6   12.79    1.47
   7   4   7    6.67    1.09
   7   4   8    8.40    1.25
   7   5  -1   15.99    1.86
   7   5   0    2.13    0.63
   7   5   0    1.07    0.41
   7   5   1    5.16    0.94
   7   5   2    0.02    0.31
   7   5   3    5.59    0.96
   7   5   4    6.86    1.07
   7   5   5   32.00    2.28
   7   5   6   69.52    3.46
   7   5   7   29.53    2.34
   7   5   8    8.49    1.32
   7   6   1   25.17    2.04
   7   6   2   12.41    1.50
   7   6   2   10.94    1.32
   7   6   3    0.86    0.33
   7   6   3    0.98    0.46
   7   6   4    0.71    0.44
   7   6   5    0.56    0.40
   7   6   6    1.97    0.63
   7   7   2    7.33    1.25
   7   7   2    6.82    1.09
   7   7   3    0.57    0.59
   7   7   3   -0.66    0.52
   7   7   4    3.49    0.83
   8   0   2    0.15    0.46
   8   0   3    2.16    0.67
   8   0   4    9.01    1.36
   8   0   4    9.27    1.29
   8   0   5    2.67    0.75
   8   1   2   31.66    2.31
   8   1   2   33.64    2.57
   8   1   3   14.06    1.56
   8   1   3   11.00    1.46
   8   1   4    2.02    0.58
   8   1   4    2.90    0.80
   8   1   5   35.81    2.47
   8   1   5   36.98    2.58
   8   1   6   36.43    2.55
   8   2   1    6.90    1.27
   8   2   2    2.00    0.72
   8   2   2    2.91    0.82
   8   2   3   -0.09    0.35
   8   2   3   -0.02    0.34
   8   2   4    2.39    0.57
   8   2   4    3.20    0.80
   8   2   5   12.22    1.43
   8   2   5   12.03    1.42
   8   2   6    0.56    0.33
   8   2   6    0.07    0.29
   8   2   7    1.69    0.56
   8   3   2   71.60    3.56
   8   3   2   75.53    3.74
   8   3   3   28.74    2.23
   8   3   3   31.82    2.40
   8   3   4   14.06    1.55
   8   3   4   13.86    1.52
   8   3   5    0.24    0.45
   8   3   5    0.81    0.41
   8   3   6   27.55    2.19
   8   3   6   26.37    2.13
   8   4   2   -0.20    0.45
   8   4   3    0.27    0.34
   8   4   4    1.90    0.54
   0   0   0    0.00    0.00
TITL thiadiazole in P-1
REM P-1 (#2 in standard setting)
CELL 0.71073 6.088 7.826 8.623 79.8 72.96 80.62
ZERR 2 0.003 0.003 0.003 0.03 0.03 0.03
LATT  1
SFAC C H N S
UNIT 12.00 16.00 4.00 4.00
TREF
HKLF 4
END
_computing_structure_solution     'SHELXT 2015 (Sheldrick, 2015)'
;
_shelx_hkl_checksum              78774
_shelx_res_file
;
TITL thiadiazole_a.res in P-1
    slythiadiazole.res
    created by SHELXL-2018/3 at 13:46:16 on 02-Feb-2021
REM Old TITL thiadiazole in P-1 #2
REM SHELXT solution in P-1
REM R1 0.225, Rweak 0.006, Alpha 0.050, Orientation as input
REM Formula found by SHELXT: C5 N3 S2
CELL 0.71073 6.088 7.826 8.623 79.8 72.96 80.62
ZERR 2 0.003 0.003 0.003 0.03 0.03 0.03
LATT 1
SFAC C H N S
UNIT 10 14 6 4
EQIV $1 1-X,-Y,2-Z
EQIV $2 -1+X,+Y,+Z
L.S. 12
PLAN  10
SIZE 0.257 0.48 0.9
TEMP -113
HTAB N2 N4_$1
HTAB N2 N3_$2
HTAB
BOND $H
list 4
CONF
fmap 2
acta
REM <olex2.extras>
REM <HklSrc "%.\\slythiadiazole.hkl">
REM </olex2.extras>
WGHT    0.068400    0.048100
FVAR       0.94119   0.71514
S1    4    0.600036    0.207294    0.551875    11.00000    0.03178    0.07531 =
         0.03348    0.00996   -0.01391   -0.01344
S2    4    1.107478    0.280041    0.401856    11.00000    0.03170    0.07481 =
         0.04206    0.00633   -0.00866   -0.01375
N4    3    0.709174    0.103288    0.820739    11.00000    0.03445    0.06261 =
         0.03299    0.00519   -0.01334   -0.01246
N3    3    0.907148    0.155268    0.706666    11.00000    0.03522    0.06243 =
         0.03745    0.00469   -0.01469   -0.01334
C2    1    0.877918    0.212475    0.563782    11.00000    0.03006    0.04828 =
         0.03694    0.00106   -0.01197   -0.00790
N2    3    0.322007    0.086623    0.843179    11.00000    0.03498    0.09800 =
         0.03914    0.01914   -0.01391   -0.01953
C5    1    0.533859    0.123733    0.758207    11.00000    0.03408    0.05149 =
         0.03196    0.00368   -0.01086   -0.00748
PART 1
C9A   1    0.656518    0.381776    0.149307    21.00000    0.06802    0.07637 =
         0.05181   -0.00227   -0.02282   -0.01831
AFIX  93
H9AA  2    0.555951    0.474766    0.199455    21.00000   -1.20000
H9AB  2    0.605956    0.317994    0.084768    21.00000   -1.20000
AFIX   0
C8A   1    0.862422    0.341982    0.168915    21.00000    0.06021    0.07011 =
         0.03752   -0.00372   -0.01110   -0.01067
AFIX  43
H8A   2    0.956270    0.248015    0.116280    21.00000   -1.20000
AFIX   0
C7A   1    0.966361    0.428525    0.265395    21.00000    0.05160    0.05908 =
         0.04537    0.00911   -0.01544   -0.01863
AFIX  23
H7AA  2    0.843221    0.506879    0.330691    21.00000   -1.20000
H7AB  2    1.080732    0.502135    0.188683    21.00000   -1.20000
AFIX   0
PART 0
PART 2
C7B   1    1.009615    0.300436    0.219350   -21.00000    0.03944    0.05717 =
         0.03046   -0.00054   -0.00752   -0.00748
AFIX  23
H7BA  2    1.144285    0.314457    0.122215   -21.00000   -1.20000
H7BB  2    0.949535    0.190437    0.218771   -21.00000   -1.20000
AFIX   0
C8B   1    0.827474    0.448403    0.203568   -21.00000    0.05660    0.04148 =
         0.03971    0.00528   -0.01042   -0.00709
AFIX  43
H8B   2    0.851636    0.560141    0.219669   -21.00000   -1.20000
AFIX   0
C9B   1    0.638636    0.435667    0.169491   -21.00000    0.04872    0.06003 =
         0.03952   -0.00295   -0.01677    0.00119
AFIX  93
H9BA  2    0.608843    0.325900    0.152624   -21.00000   -1.20000
H9BB  2    0.529345    0.536054    0.161258   -21.00000   -1.20000
AFIX   0
PART 0
H2A   2    0.298959    0.032277    0.936386    11.00000    0.06196
H2B   2    0.211606    0.101292    0.798365    11.00000    0.06325
HKLF 4
REM  thiadiazole_a.res in P-1
REM wR2 = 0.1128, GooF = S = 1.055, Restrained GooF = 1.055 for all data
REM R1 = 0.0406 for 1648 Fo > 4sig(Fo) and 0.0462 for all 1923 data
REM 127 parameters refined using 0 restraints
END
WGHT      0.0684      0.0481
REM Instructions for potential hydrogen bonds
HTAB N2 N4_$1
HTAB N2 N3_$2
REM Highest difference peak  0.399,  deepest hole -0.296,  1-sigma level  0.079
Q1    1   1.0062  0.2269  0.4827  11.00000  0.05    0.40
Q2    1   1.0039  0.0275  0.5046  11.00000  0.05    0.29
Q3    1   1.1910  0.1406  0.4000  11.00000  0.05    0.28
Q4    1   0.4309  0.0976  0.8152  11.00000  0.05    0.27
Q5    1   0.8714  0.2078  0.6136  11.00000  0.05    0.27
Q6    1   0.6139  0.1436  0.7877  11.00000  0.05    0.27
Q7    1   0.6215  0.0672  0.7676  11.00000  0.05    0.27
Q8    1   1.0627  0.4168  0.4287  11.00000  0.05    0.26
Q9    1   0.8789  0.1260  0.5977  11.00000  0.05    0.26
Q10   1   1.0472  0.3012  0.3174  11.00000  0.05    0.24
;
_shelx_res_checksum              67832
loop_
_space_group_symop_operation_xyz
'x, y, z'
'-x, -y, -z'
loop_
_atom_site_type_symbol
_atom_site_label
_atom_site_fract_x
_atom_site_fract_y
_atom_site_fract_z
_atom_site_U_iso_or_equiv
_atom_site_adp_type
_atom_site_calc_flag
_atom_site_occupancy
_atom_site_disorder_assembly
_atom_site_disorder_group
S S1 0.60004(7) 0.20729(6) 0.55188(5) 0.04715(18) Uani d 1 . .
S S2 1.10748(7) 0.28004(7) 0.40186(5) 0.05078(18) Uani d 1 . .
N N4 0.7092(2) 0.10329(19) 0.82074(17) 0.0432(3) Uani d 1 . .
N N3 0.9071(2) 0.1553(2) 0.70667(18) 0.0446(3) Uani d 1 . .
C C2 0.8779(3) 0.2125(2) 0.56378(19) 0.0383(3) Uani d 1 . .
N N2 0.3220(3) 0.0866(3) 0.8432(2) 0.0588(5) Uani d 1 . .
C C5 0.5339(3) 0.1237(2) 0.75821(19) 0.0397(3) Uani d 1 . .
C C9A 0.6565(18) 0.3818(9) 0.1493(11) 0.0637(16) Uani d 0.715(6) A 1
H H9AA 0.555951 0.474766 0.199455 0.076 Uiso calc 0.715(6) A 1
H H9AB 0.605956 0.317994 0.084768 0.076 Uiso calc 0.715(6) A 1
C C8A 0.8624(6) 0.3420(5) 0.1689(3) 0.0565(9) Uani d 0.715(6) A 1
H H8A 0.956270 0.248015 0.116280 0.068 Uiso calc 0.715(6) A 1
C C7A 0.9664(5) 0.4285(4) 0.2654(3) 0.0522(8) Uani d 0.715(6) A 1
H H7AA 0.843221 0.506879 0.330691 0.063 Uiso calc 0.715(6) A 1
H H7AB 1.080732 0.502135 0.188683 0.063 Uiso calc 0.715(6) A 1
C C7B 1.0096(11) 0.3004(8) 0.2193(7) 0.0433(18) Uani d 0.285(6) A 2
H H7BA 1.144285 0.314457 0.122215 0.052 Uiso calc 0.285(6) A 2
H H7BB 0.949535 0.190437 0.218771 0.052 Uiso calc 0.285(6) A 2
C C8B 0.8275(13) 0.4484(10) 0.2036(8) 0.0477(19) Uani d 0.285(6) A 2
H H8B 0.851636 0.560141 0.219669 0.057 Uiso calc 0.285(6) A 2
C C9B 0.639(4) 0.436(2) 0.169(2) 0.050(3) Uani d 0.285(6) A 2
H H9BA 0.608843 0.325900 0.152624 0.060 Uiso calc 0.285(6) A 2
H H9BB 0.529345 0.536054 0.161258 0.060 Uiso calc 0.285(6) A 2
H H2A 0.299(4) 0.032(3) 0.936(3) 0.062(7) Uiso d 1 . .
H H2B 0.212(4) 0.101(3) 0.798(3) 0.063(6) Uiso d 1 . .
loop_
_atom_site_aniso_label
_atom_site_aniso_U_11
_atom_site_aniso_U_22
_atom_site_aniso_U_33
_atom_site_aniso_U_12
_atom_site_aniso_U_13
_atom_site_aniso_U_23
S1 0.0318(2) 0.0753(3) 0.0335(2) -0.0134(2) -0.01391(18) 0.00996(19)
S2 0.0317(3) 0.0748(3) 0.0421(3) -0.0137(2) -0.00866(19) 0.0063(2)
N4 0.0345(7) 0.0626(8) 0.0330(7) -0.0125(6) -0.0133(5) 0.0052(6)
N3 0.0352(7) 0.0624(8) 0.0374(7) -0.0133(6) -0.0147(6) 0.0047(6)
C2 0.0301(7) 0.0483(8) 0.0369(8) -0.0079(6) -0.0120(6) 0.0011(6)
N2 0.0350(8) 0.0980(13) 0.0391(8) -0.0195(8) -0.0139(7) 0.0191(8)
C5 0.0341(8) 0.0515(8) 0.0320(7) -0.0075(6) -0.0109(6) 0.0037(6)
C9A 0.068(4) 0.076(4) 0.052(3) -0.018(3) -0.023(3) -0.002(3)
C8A 0.0602(19) 0.070(2) 0.0375(13) -0.0107(15) -0.0111(12) -0.0037(12)
C7A 0.0516(15) 0.0591(17) 0.0454(14) -0.0186(12) -0.0154(12) 0.0091(11)
C7B 0.039(3) 0.057(4) 0.030(3) -0.007(3) -0.008(2) -0.001(2)
C8B 0.057(4) 0.041(4) 0.040(3) -0.007(3) -0.010(3) 0.005(2)
C9B 0.049(5) 0.060(7) 0.040(5) 0.001(6) -0.017(4) -0.003(5)
loop_
_atom_type_symbol
_atom_type_description
_atom_type_scat_dispersion_real
_atom_type_scat_dispersion_imag
_atom_type_scat_source
C C 0.0033 0.0016 'International Tables Vol C Tables 4.2.6.8 and 6.1.1.4'
H H 0.0000 0.0000 'International Tables Vol C Tables 4.2.6.8 and 6.1.1.4'
N N 0.0061 0.0033 'International Tables Vol C Tables 4.2.6.8 and 6.1.1.4'
S S 0.1246 0.1234 'International Tables Vol C Tables 4.2.6.8 and 6.1.1.4'
loop_
_geom_angle_atom_site_label_1
_geom_angle_atom_site_label_2
_geom_angle_atom_site_label_3
_geom_angle_site_symmetry_1
_geom_angle_site_symmetry_3
_geom_angle
_geom_angle_publ_flag
C2 S1 C5 . . 86.90(8) ?
C2 S2 C7A . . 103.27(11) ?
C2 S2 C7B . . 105.6(2) ?
C5 N4 N3 . . 112.12(13) ?
C2 N3 N4 . . 113.35(14) ?
S1 C2 S2 . . 125.49(10) ?
N3 C2 S1 . . 113.92(13) ?
N3 C2 S2 . . 120.56(13) ?
C5 N2 H2A . . 120.6(17) ?
C5 N2 H2B . . 121.6(16) ?
H2A N2 H2B . . 117(2) ?
N4 C5 S1 . . 113.70(13) ?
N4 C5 N2 . . 124.04(16) ?
N2 C5 S1 . . 122.26(13) ?
H9AA C9A H9AB . . 120.0 ?
C8A C9A H9AA . . 120.0 ?
C8A C9A H9AB . . 120.0 ?
C9A C8A H8A . . 116.8 ?
C9A C8A C7A . . 126.5(4) ?
C7A C8A H8A . . 116.8 ?
S2 C7A H7AA . . 108.6 ?
S2 C7A H7AB . . 108.6 ?
C8A C7A S2 . . 114.5(2) ?
C8A C7A H7AA . . 108.6 ?
C8A C7A H7AB . . 108.6 ?
H7AA C7A H7AB . . 107.6 ?
S2 C7B H7BA . . 108.6 ?
S2 C7B H7BB . . 108.6 ?
H7BA C7B H7BB . . 107.6 ?
C8B C7B S2 . . 114.8(5) ?
C8B C7B H7BA . . 108.6 ?
C8B C7B H7BB . . 108.6 ?
C7B C8B H8B . . 117.8 ?
C9B C8B C7B . . 124.5(9) ?
C9B C8B H8B . . 117.8 ?
C8B C9B H9BA . . 120.0 ?
C8B C9B H9BB . . 120.0 ?
H9BA C9B H9BB . . 120.0 ?
loop_
_geom_bond_atom_site_label_1
_geom_bond_atom_site_label_2
_geom_bond_site_symmetry_2
_geom_bond_distance
_geom_bond_publ_flag
S1 C2 . 1.7320(18) ?
S1 C5 . 1.7347(17) ?
S2 C2 . 1.7373(18) ?
S2 C7A . 1.804(3) ?
S2 C7B . 1.813(6) ?
N4 N3 . 1.382(2) ?
N4 C5 . 1.306(2) ?
N3 C2 . 1.287(2) ?
N2 C5 . 1.333(2) ?
N2 H2A . 0.82(2) ?
N2 H2B . 0.85(3) ?
C9A H9AA . 0.9500 ?
C9A H9AB . 0.9500 ?
C9A C8A . 1.294(10) ?
C8A H8A . 0.9500 ?
C8A C7A . 1.483(5) ?
C7A H7AA . 0.9900 ?
C7A H7AB . 0.9900 ?
C7B H7BA . 0.9900 ?
C7B H7BB . 0.9900 ?
C7B C8B . 1.484(10) ?
C8B H8B . 0.9500 ?
C8B C9B . 1.29(2) ?
C9B H9BA . 0.9500 ?
C9B H9BB . 0.9500 ?
loop_
_geom_hbond_atom_site_label_D
_geom_hbond_atom_site_label_H
_geom_hbond_atom_site_label_A
_geom_hbond_site_symmetry_A
_geom_hbond_distance_DH
_geom_hbond_distance_HA
_geom_hbond_distance_DA
_geom_hbond_angle_DHA
_geom_hbond_publ_flag
N2 H2A N4 2_657 0.82(2) 2.16(2) 2.981(3) 171(2) yes
N2 H2B N3 1_455 0.85(3) 2.17(3) 3.021(3) 173(2) yes
loop_
_geom_torsion_atom_site_label_1
_geom_torsion_atom_site_label_2
_geom_torsion_atom_site_label_3
_geom_torsion_atom_site_label_4
_geom_torsion_site_symmetry_1
_geom_torsion_site_symmetry_2
_geom_torsion_site_symmetry_3
_geom_torsion_site_symmetry_4
_geom_torsion
_geom_torsion_publ_flag
S2 C7B C8B C9B . . . . -131.4(12) ?
N4 N3 C2 S1 . . . . -0.56(19) ?
N4 N3 C2 S2 . . . . -178.65(11) ?
N3 N4 C5 S1 . . . . 0.58(18) ?
N3 N4 C5 N2 . . . . -178.68(18) ?
C2 S1 C5 N4 . . . . -0.73(13) ?
C2 S1 C5 N2 . . . . 178.54(17) ?
C2 S2 C7A C8A . . . . -76.7(2) ?
C2 S2 C7B C8B . . . . 70.0(5) ?
C5 S1 C2 S2 . . . . 178.70(12) ?
C5 S1 C2 N3 . . . . 0.73(14) ?
C5 N4 N3 C2 . . . . 0.0(2) ?
C9A C8A C7A S2 . . . . 132.6(6) ?
C7A S2 C2 S1 . . . . 26.03(15) ?
C7A S2 C2 N3 . . . . -156.12(17) ?
C7B S2 C2 S1 . . . . -10.7(2) ?
C7B S2 C2 N3 . . . . 167.1(2) ?
