#------------------------------------------------------------------------------
#$Date: 2020-04-10 08:15:26 +0300 (Fri, 10 Apr 2020) $
#$Revision: 250614 $
#$URL: file:///home/coder/svn-repositories/cod/cif/2/02/20/2022035.cif $
#------------------------------------------------------------------------------
#
# This file is available in the Crystallography Open Database (COD),
# http://www.crystallography.net/. The original data for this entry
# were provided by IUCr Journals, http://journals.iucr.org/.
#
# The file may be used within the scientific community so long as
# proper attribution is given to the journal article from which the
# data were obtained.
#
data_2022035
loop_
_publ_author_name
'Jha, Kunal Kumar'
'Gruza, Barbara'
'Kumar, Prashant'
'Chodkiewicz, Michal Leszek'
'Dominiak, Paulina Maria'
_publ_section_title
;
 TAAM: a reliable and user friendly tool for hydrogen-atom location using
 routine X-ray diffraction data
;
_journal_issue                   3
_journal_name_full
'Acta Crystallographica Section B Structural Science, Crystal Engineering and Materials'
_journal_paper_doi               10.1107/S2052520620002917
_journal_volume                  76
_journal_year                    2020
_chemical_formula_moiety         'H2 O, C4 H5 N3 O'
_chemical_formula_sum            'C4 H7 N3 O2'
_chemical_formula_weight         129.12
_space_group_crystal_system      monoclinic
_space_group_IT_number           14
_space_group_name_Hall           '-P 2ybc'
_space_group_name_H-M_alt        'P 1 21/c 1'
_symmetry_Int_Tables_number      14
_audit_creation_date             2019-09-27
_audit_creation_method
;
Olex2 1.2
(compiled 2018.05.29 svn.r3508 for OlexSys, GUI svn.r5506)
;
_cell_angle_alpha                90
_cell_angle_beta                 100.523(5)
_cell_angle_gamma                90
_cell_formula_units_Z            4
_cell_length_a                   7.7161(8)
_cell_length_b                   9.8337(10)
_cell_length_c                   7.5131(8)
_cell_measurement_temperature    90.0(2)
_cell_volume                     560.49(10)
_computing_molecular_graphics    'Olex2 (Dolomanov et al., 2009)'
_computing_publication_material  'Olex2 (Dolomanov et al., 2009)'
_computing_structure_refinement  'olex2.refine (Bourhis et al., 2015)'
_diffrn_ambient_temperature      90.0(2)
_diffrn_measured_fraction_theta_full 0.9693
_diffrn_measured_fraction_theta_max 0.9693
_diffrn_measurement_device_type  'Bruker SMART APEX CCD area detector'
_diffrn_radiation_type           MoKa
_diffrn_radiation_wavelength     0.71073
_diffrn_reflns_av_R_equivalents  0.0000
_diffrn_reflns_av_unetI/netI     0.0120
_diffrn_reflns_limit_h_max       16
_diffrn_reflns_limit_h_min       -16
_diffrn_reflns_limit_k_max       21
_diffrn_reflns_limit_k_min       0
_diffrn_reflns_limit_l_max       16
_diffrn_reflns_limit_l_min       0
_diffrn_reflns_number            5754
_diffrn_reflns_theta_full        50.2463
_diffrn_reflns_theta_max         50.25
_diffrn_reflns_theta_min         2.68
_exptl_absorpt_coefficient_mu    0.124
_exptl_crystal_density_diffrn    1.5300
_exptl_crystal_F_000             272.1428
_refine_diff_density_max         0.5359
_refine_diff_density_min         -0.2020
_refine_diff_density_rms         0.0591
_refine_ls_d_res_high            0.4622
_refine_ls_d_res_low             7.5863
_refine_ls_goodness_of_fit_ref   1.2090
_refine_ls_hydrogen_treatment    refall
_refine_ls_matrix_type           full
_refine_ls_number_constraints    0
_refine_ls_number_parameters     110
_refine_ls_number_reflns         5754
_refine_ls_number_restraints     0
_refine_ls_restrained_S_all      1.2090
_refine_ls_R_factor_all          0.0284
_refine_ls_R_factor_gt           0.0227
_refine_ls_shift/su_max          0.0006
_refine_ls_shift/su_mean         0.0002
_refine_ls_structure_factor_coef Fsqd
_refine_ls_weighting_details
'w=1/[\s^2^(Fo^2^)+(0.0330P)^2^] where P=(Fo^2^+2Fc^2^)/3'
_refine_ls_weighting_scheme      calc
_refine_ls_wR_factor_gt          0.0553
_refine_ls_wR_factor_ref         0.0591
_reflns_Friedel_coverage         0.0
_reflns_limit_h_max              16
_reflns_limit_h_min              -16
_reflns_limit_k_max              21
_reflns_limit_k_min              0
_reflns_limit_l_max              16
_reflns_limit_l_min              0
_reflns_number_gt                4976
_reflns_number_total             5754
_reflns_threshold_expression     I>=2u(I)
_iucr_refine_instructions_details
;
TITL cytosine
CELL 0.71073 7.7161 9.8337 7.5131 90 100.523 90
ZERR 4 0.0008 0.001 0.0008 0 0.005 0
LATT 1
SYMM -X,0.5+Y,0.5-Z
SFAC C H N O
UNIT 16 28 12 8

ACTA 
BOND $H
WGHT 0.032951 0
FVAR 1.005509
REM <olex2.extras>
REM <HklSrc "%.\\f774c7990a0ca7b1357cb188757ccc99.hkl">
REM </olex2.extras>

O(1)  4     0.35380  0.20886  0.47461  11.00000  0.01170  0.01415  0.01675 =
 0.00054  0.00543  0.00045 
H(1a  2     0.28658  0.25875  0.38533  11.00000  0.02236 
H(1b  2     0.27915  0.17971  0.54028  11.00000  0.02411 
O(2)  4     0.14817  0.12079  0.71699  11.00000  0.01043  0.00991  0.01751 =
 -0.00024  0.00676 -0.00010 
N(1)  3    -0.08529  0.00426  0.78140  11.00000  0.01026  0.00727  0.01340 =
 -0.00009  0.00409 -0.00039 
N(3)  3    -0.07912  0.24438  0.78911  11.00000  0.00924  0.00683  0.01363 =
 -0.00012  0.00441 -0.00057 
N(4)  3    -0.31104  0.36211  0.86902  11.00000  0.01169  0.00851  0.01812 =
 -0.00047  0.00597  0.00084 
C(2)  1    -0.00203  0.12505  0.76000  11.00000  0.00878  0.00772  0.01140 =
 -0.00001  0.00364 -0.00037 
C(4)  1    -0.23595  0.24326  0.84321  11.00000  0.00922  0.00754  0.01186 =
 -0.00011  0.00356 -0.00012 
C(5)  1    -0.32216  0.11863  0.87389  11.00000  0.01064  0.00850  0.01593 =
 0.00023  0.00596 -0.00074 
C(6)  1    -0.24196  0.00143  0.83954  11.00000  0.01108  0.00772  0.01416 =
 0.00029  0.00469 -0.00107 
H(1)  2    -0.02773 -0.08053  0.75761  11.00000  0.02268 
H(4a  2    -0.25520  0.44574  0.84136  11.00000  0.02261 
H(4b  2    -0.42639  0.36183  0.91110  11.00000  0.02378 
H(5)  2    -0.44159  0.11994  0.92379  11.00000  0.02951 
H(6)  2    -0.29955 -0.09829  0.85641  11.00000  0.02619 
HKLF 4

END
Q1 1 -0.088889 0.240741 0.788889 11 0.05 0.54
Q2 1 0.155556 0.12963 0.711111 11 0.05 0.53
Q3 1 -0.088889 0 0.788889 11 0.05 0.52
Q4 1 -0.311111 0.12963 0.866667 11 0.05 0.41
Q5 1 -0.244444 0 0.844444 11 0.05 0.38
Q6 1 0 0.12963 0.755556 11 0.05 0.38
Q7 1 -0.222222 0.240741 0.844444 11 0.05 0.36
Q8 1 -0.311111 0.37037 0.877778 11 0.05 0.34
Q9 1 0.355556 0.222222 0.477778 11 0.05 0.34
Q10 1 -0.466667 0.12963 0.911111 11 0.05 0.25
Q11 1 0 -0.12963 0.744444 11 0.05 0.24
Q12 1 -0.155556 0.12963 0.811111 11 0.05 0.23
Q13 1 -0.155556 0.37037 0.822222 11 0.05 0.2
Q14 1 0.066667 0 0.722222 11 0.05 0.18
Q15 1 0.222222 0.203704 0.522222 11 0.05 0.18
Q16 1 -0.4 0.240741 0.9 11 0.05 0.16
Q17 1 0.355556 0.037037 0.477778 11 0.05 0.15
Q18 1 0.022222 0.277778 0.988889 11 0.05 0.14
Q19 1 0.222222 0.240741 0.666667 11 0.05 0.14
Q20 1 -0.466667 0.37037 0.922222 11 0.05 0.14

  REM The information below was added by Olex2.
  REM
  REM R1 = 0.0227 for 4976 Fo > 4sig(Fo) and 0.0284 for all 5754 data
  REM 110 parameters refined using 0 restraints
  REM Highest difference peak 0.5359, deepest hole -0.2020
  REM Mean Shift 0.0002, Max Shift 0.0006.

  REM +++ Tabular Listing of Refinement Information +++
  REM R1_all = 0.0284
  REM R1_gt = 0.0227
  REM wR_ref = 0.0591
  REM GOOF = 1.2090
  REM Shift_max = 0.0006
  REM Shift_mean = 0.0002
  REM Reflections_all = 5754
  REM Reflections_gt = 4976
  REM Parameters = 110
  REM Hole = -0.2020
  REM Peak = 0.5359
  REM Flack = n/a

  
;
_cod_data_source_file            47_TAAM_iso_max.cif
_cod_data_source_block           47_TAAM_iso_max
_cod_database_code               2022035
_olex2_refinement_description
;
;
_iucr_refine_fcf_details
;
data_Cytosine
_computing_structure_refinement   'olex2.refine (Bourhis et al., 2015)'
_shelx_refln_list_code            4
loop_
  _space_group_symop_id
  _space_group_symop_operation_xyz
  1  x,y,z
  2  -x,y+1/2,-z+1/2
  3  -x,-y,-z
  4  x,-y-1/2,z-1/2

_space_group_crystal_system       monoclinic
_space_group_IT_number            14
_space_group_name_H-M_alt         'P 1 21/c 1'
_space_group_name_Hall            '-P 2ybc'
_symmetry_space_group_name_H-M    'P 1 21/c 1'
_symmetry_space_group_name_Hall   '-P 2ybc'
_symmetry_Int_Tables_number       14
_cell_length_a                    7.7161(8)
_cell_length_b                    9.8337(10)
_cell_length_c                    7.5131(8)
_cell_angle_alpha                 90
_cell_angle_beta                  100.523(5)
_cell_angle_gamma                 90
_cell_volume                      560.49(10)
loop_
  _refln_index_h
  _refln_index_k
  _refln_index_l
  _refln_F_squared_calc
  _refln_F_squared_meas
  _refln_F_squared_sigma
  _refln_F_squared_weight
  _refln_observed_status
-16 0 2 0.231 0.495 0.317 65.507 o
-16 1 1 1.298 1.256 0.247 104.388 o
-16 1 2 2.494 2.453 0.247 96.865 o
-16 1 3 0.797 0.791 0.208 149.891 o
-16 1 4 26.307 27.773 0.841 4.420 o
-16 1 5 2.864 2.938 0.237 100.441 o
-16 1 6 0.793 0.277 0.277 85.190 o
-16 1 7 7.504 6.290 0.415 28.902 o
-16 2 1 0.752 0.781 0.227 125.416 o
-16 2 2 2.558 2.839 0.257 89.061 o
-16 2 3 6.897 7.220 0.317 42.811 o
-16 2 4 1.319 1.523 0.218 132.884 o
-16 2 5 4.698 4.362 0.267 69.776 o
-16 2 6 0.480 0.682 0.198 166.498 o
-16 3 1 0.281 0.425 0.227 126.656 o
-16 3 2 2.856 3.610 0.208 122.508 o
-16 3 3 10.277 10.820 0.356 26.755 o
-16 3 4 19.752 20.563 0.485 9.803 o
-16 3 5 0.397 -0.089 0.188 185.621 o
-16 3 6 0.383 0.663 0.208 151.411 o
-16 4 1 2.348 2.443 0.247 97.629 o
-16 4 2 3.571 3.956 0.277 71.752 o
-16 4 3 0.289 0.860 0.208 151.399 o
-16 4 4 0.799 1.236 0.218 135.966 o
-16 4 5 6.830 7.191 0.307 44.855 o
-16 5 1 1.393 1.187 0.227 122.438 o
-16 5 2 1.183 1.217 0.237 113.467 o
-16 5 3 7.942 8.516 0.326 36.832 o
-16 5 4 8.483 8.892 0.336 33.906 o
-16 5 5 2.351 2.117 0.227 114.532 o
-16 6 3 0.564 0.791 0.297 74.241 o
-15 0 2 34.483 36.794 1.009 2.775 o
-15 0 4 0.604 0.613 0.307 69.583 o
-15 0 6 15.243 15.301 0.593 10.857 o
-15 0 8 114.110 118.570 2.334 0.329 o
-15 1 1 0.000 0.010 0.237 116.586 o
-15 1 2 0.412 0.277 0.227 126.587 o
-15 1 3 0.049 -0.257 0.208 152.272 o
-15 1 4 3.138 3.353 0.208 120.923 o
-15 1 5 1.213 1.286 0.218 134.039 o
-15 1 6 14.629 13.639 0.564 12.169 o
-15 1 7 0.126 -0.218 0.218 138.725 o
-15 1 8 0.533 0.455 0.237 116.012 o
-15 1 9 6.999 6.508 0.317 43.532 o
-15 2 1 6.745 6.716 0.336 40.465 o
-15 2 2 2.422 2.305 0.257 90.868 o
-15 2 3 0.021 0.069 0.168 232.354 o
-15 2 4 1.080 1.404 0.227 123.293 o
-15 2 5 8.046 8.328 0.336 35.504 o
-15 2 6 9.137 9.762 0.336 31.596 o
-15 2 7 0.190 0.247 0.307 69.844 o
-15 2 8 3.307 3.393 0.267 78.773 o
-15 2 9 0.580 0.307 0.237 116.051 o
-15 3 1 0.612 0.633 0.247 106.720 o
-15 3 2 9.214 9.099 0.287 37.822 o
-15 3 3 3.265 3.729 0.267 78.194 o
-15 3 4 2.322 2.196 0.237 105.973 o
-15 3 5 4.742 5.104 0.277 64.173 o
-15 3 6 9.207 8.684 0.336 32.573 o
-15 3 7 17.724 18.229 0.455 11.845 o
-15 3 8 12.929 12.611 0.564 13.235 o
-15 3 9 18.717 18.466 0.673 7.921 o
-15 4 1 5.153 5.638 0.257 67.865 o
-15 4 2 29.792 29.939 0.623 4.848 o
-15 4 3 0.688 0.475 0.227 125.939 o
-15 4 4 1.699 2.087 0.237 109.531 o
-15 4 5 0.030 -0.099 0.208 152.274 o
-15 4 6 11.965 12.888 0.396 20.525 o
-15 4 7 2.081 2.275 0.237 107.087 o
-15 4 8 31.881 31.848 0.910 3.402 o
-15 5 1 7.496 7.557 0.267 49.524 o
-15 5 2 6.895 6.409 0.317 43.972 o
-15 5 3 2.020 2.117 0.257 92.914 o
-15 5 4 1.280 1.563 0.227 122.105 o
-15 5 5 28.068 29.069 0.860 4.064 o
-15 5 6 3.562 3.452 0.257 82.507 o
-15 5 7 3.248 3.442 0.267 78.931 o
-15 5 8 11.061 10.929 0.366 24.723 o
-15 6 1 31.279 31.631 0.633 4.466 o
-15 6 2 0.193 0.069 0.227 126.883 o
-15 6 3 3.567 3.531 0.277 72.656 o
-15 6 4 0.487 0.396 0.208 151.481 o
-15 6 5 1.002 1.098 0.227 124.160 o
-15 6 6 0.563 0.633 0.208 150.971 o
-15 6 7 0.981 0.959 0.218 135.796 o
-15 6 8 0.446 0.554 0.336 57.962 o
-15 7 1 0.014 -0.168 0.218 138.747 o
-15 7 2 1.928 1.840 0.247 100.981 o
-15 7 3 3.840 3.867 0.277 70.803 o
-15 7 4 3.098 2.760 0.267 81.111 o
-15 7 5 7.365 7.260 0.445 25.618 o
-15 7 6 1.740 1.642 0.227 119.631 o
-15 7 7 7.059 7.151 0.415 28.922 o
-15 8 1 0.600 0.534 0.227 126.061 o
-15 8 2 6.639 6.983 0.317 43.885 o
-15 8 3 7.436 7.191 0.317 41.344 o
-15 8 4 3.130 2.947 0.267 80.563 o
-15 8 5 1.524 1.741 0.227 120.503 o
-15 8 6 33.745 32.837 0.643 4.036 o
-15 9 1 0.631 0.989 0.336 57.779 o
-15 9 2 2.706 2.888 0.247 94.589 o
-15 9 3 0.041 0.346 0.208 152.198 o
-15 9 4 14.667 14.282 0.574 11.761 o
-14 0 2 17.532 18.773 0.682 8.056 o
-14 0 4 57.605 58.998 0.950 1.440 o
-14 0 6 4.808 4.451 0.376 39.782 o
-14 0 8 5.792 5.578 0.435 29.207 o
-14 0 10 71.791 74.932 1.642 0.777 o
-14 1 1 0.004 0.178 0.247 107.439 o
-14 1 2 0.772 0.633 0.247 106.451 o
-14 1 3 0.220 0.386 0.168 231.692 o
-14 1 4 12.490 12.759 0.386 20.490 o
-14 1 5 0.000 -0.069 0.158 262.319 o
-14 1 6 14.129 13.946 0.326 20.438 o
-14 1 7 0.650 0.544 0.227 125.945 o
-14 1 8 1.171 1.503 0.247 104.398 o
-14 1 9 0.008 -0.257 0.237 116.586 o
-14 1 10 6.409 6.676 0.336 41.334 o
-14 1 11 1.734 1.711 0.277 82.187 o
-14 2 1 35.878 36.497 0.712 3.420 o
-14 2 2 4.239 4.500 0.247 80.644 o
-14 2 3 47.158 47.841 0.682 2.262 o
-14 2 4 4.759 4.124 0.267 70.057 o
-14 2 5 1.328 1.385 0.227 122.292 o
-14 2 6 2.614 2.473 0.237 103.453 o
-14 2 7 0.742 0.732 0.227 125.509 o
-14 2 8 3.553 3.333 0.277 73.120 o
-14 2 9 1.601 1.335 0.257 95.746 o
-14 2 10 0.100 -0.069 0.247 107.437 o
-14 2 11 3.633 4.263 0.445 30.679 o
-14 3 1 45.283 46.803 0.673 2.407 o
-14 3 2 47.784 48.069 0.682 2.223 o
-14 3 3 1.915 2.047 0.208 138.863 o
-14 3 4 7.434 6.924 0.445 25.723 o
-14 3 5 1.683 1.770 0.237 110.351 o
-14 3 6 0.362 0.079 0.198 167.552 o
-14 3 7 4.204 4.748 0.277 67.328 o
-14 3 8 0.004 0.514 0.336 58.075 o
-14 3 9 22.606 23.619 0.544 7.573 o
-14 3 10 30.948 32.748 0.663 4.322 o
-14 4 1 1.306 1.256 0.208 146.159 o
-14 4 2 57.804 58.820 0.791 1.529 o
-14 4 3 0.002 0.000 0.237 116.586 o
-14 4 4 69.991 72.608 1.137 0.974 o
-14 4 5 5.467 5.371 0.287 57.453 o
-14 4 6 24.375 24.143 0.534 7.092 o
-14 4 7 4.369 3.798 0.257 77.205 o
-14 4 8 7.212 7.062 0.317 42.148 o
-14 4 9 0.286 0.277 0.356 51.781 o
-14 4 10 6.187 6.073 0.317 46.516 o
-14 5 1 14.685 14.658 0.346 18.574 o
-14 5 2 43.140 44.627 0.801 2.425 o
-14 5 3 31.545 30.988 0.633 4.474 o
-14 5 4 13.636 14.005 0.425 17.000 o
-14 5 5 5.350 5.262 0.415 32.313 o
-14 5 6 0.029 -0.049 0.198 167.883 o
-14 5 7 16.950 16.953 0.455 12.658 o
-14 5 8 0.012 0.158 0.208 152.262 o
-14 5 9 16.103 16.389 0.653 9.239 o
-14 5 10 15.784 15.657 0.633 9.809 o
-14 6 1 25.341 25.597 0.564 6.442 o
-14 6 2 3.732 4.461 0.297 62.448 o
-14 6 3 37.849 36.635 0.712 3.237 o
-14 6 4 0.004 -0.336 0.227 126.945 o
-14 6 5 11.748 11.651 0.376 22.630 o
-14 6 6 1.225 1.197 0.227 123.126 o
-14 6 7 10.983 11.295 0.376 23.912 o
-14 6 8 0.024 0.049 0.208 152.272 o
-14 6 9 6.476 6.607 0.307 46.869 o
-14 7 1 5.526 5.450 0.307 51.784 o
-14 7 2 1.316 1.058 0.247 104.633 o
-14 7 3 1.483 1.375 0.247 103.595 o
-14 7 4 2.663 2.265 0.257 89.890 o
-14 7 5 9.692 10.524 0.514 17.639 o
-14 7 6 0.172 0.148 0.198 167.759 o
-14 7 7 5.466 5.618 0.287 56.969 o
-14 7 8 2.305 2.285 0.237 105.816 o
-14 7 9 0.349 0.257 0.198 167.414 o
-14 8 1 1.245 0.752 0.237 114.021 o
-14 8 2 0.194 0.148 0.218 138.645 o
-14 8 3 0.316 0.208 0.227 126.736 o
-14 8 4 6.257 6.360 0.307 47.956 o
-14 8 5 1.102 0.940 0.208 148.182 o
-14 8 6 16.923 17.032 0.455 12.651 o
-14 8 7 3.303 3.580 0.247 89.183 o
-14 8 8 12.199 12.799 0.396 20.310 o
-14 9 1 0.138 0.227 0.218 138.658 o
-14 9 2 0.037 -0.010 0.208 152.274 o
-14 9 3 0.028 0.049 0.208 152.271 o
-14 9 4 1.062 0.999 0.227 124.121 o
-14 9 5 1.716 1.701 0.227 119.600 o
-14 9 6 1.596 1.207 0.208 144.459 o
-14 9 7 7.361 7.250 0.307 43.147 o
-14 10 1 14.784 14.638 0.415 16.088 o
-14 10 2 0.873 0.851 0.227 124.979 o
-14 10 3 20.566 20.573 0.495 9.333 o
-14 10 4 3.577 3.333 0.257 82.737 o
-14 10 5 1.184 1.414 0.208 146.416 o
-14 10 6 6.437 7.111 0.297 48.224 o
-14 11 1 7.345 7.557 0.455 24.632 o
-14 11 2 18.998 18.456 0.455 11.107 o
-14 11 3 2.515 2.275 0.227 112.901 o
-14 11 4 5.020 5.331 0.277 62.446 o
-14 11 5 0.020 0.267 0.247 107.426 o
-13 0 2 69.825 73.557 1.256 0.930 o
-13 0 4 8.788 9.475 0.267 41.161 o
-13 0 6 13.830 12.255 0.534 13.759 o
-13 0 8 58.893 59.453 1.365 1.162 o
-13 0 10 3.899 3.333 0.425 33.546 o
-13 0 12 16.681 15.281 0.643 9.401 o
-13 1 1 54.806 54.923 0.722 1.735 o
-13 1 2 43.332 43.084 0.495 2.887 o
-13 1 3 7.717 7.735 0.218 58.601 o
-13 1 4 28.356 28.189 0.336 6.685 o
-13 1 5 0.601 0.406 0.129 390.008 o
-13 1 6 33.975 34.519 0.534 4.233 o
-13 1 7 1.507 1.770 0.247 102.804 o
-13 1 8 12.521 11.899 0.386 20.960 o
-13 1 9 0.116 0.040 0.237 116.568 o
-13 1 10 1.175 0.742 0.267 90.652 o
-13 1 11 0.109 0.089 0.267 92.103 o
-13 1 12 2.952 2.829 0.307 63.651 o
-13 2 1 29.132 29.286 0.386 6.119 o
-13 2 2 15.131 15.004 0.277 20.282 o
-13 2 3 24.162 24.064 0.346 8.736 o
-13 2 4 0.128 0.010 0.168 232.296 o
-13 2 5 110.042 107.067 1.315 0.449 o
-13 2 6 0.402 0.574 0.178 205.779 o
-13 2 7 11.768 11.167 0.376 22.926 o
-13 2 8 0.445 0.475 0.237 116.123 o
-13 2 9 0.810 0.841 0.247 106.178 o
-13 2 10 1.193 0.732 0.267 90.628 o
-13 2 11 0.819 0.643 0.277 84.960 o
-13 2 12 2.455 2.443 0.297 69.468 o
-13 3 1 6.777 6.607 0.208 71.267 o
-13 3 2 0.052 -0.059 0.148 298.443 o
-13 3 3 47.151 47.288 0.554 2.410 o
-13 3 4 77.532 76.277 0.900 0.904 o
-13 3 5 1.155 0.940 0.208 147.908 o
-13 3 6 5.315 5.024 0.277 61.824 o
-13 3 7 3.570 3.551 0.208 115.395 o
-13 3 8 1.936 1.840 0.247 100.948 o
-13 3 9 7.046 7.082 0.336 39.297 o
-13 3 10 1.525 1.296 0.267 89.266 o
-13 3 11 8.970 9.376 0.386 27.508 o
-13 3 12 17.072 16.567 0.455 12.701 o
-13 4 1 3.088 2.670 0.208 124.933 o
-13 4 2 0.099 0.049 0.168 232.305 o
-13 4 3 2.280 1.958 0.247 99.133 o
-13 4 4 41.925 42.936 0.771 2.592 o
-13 4 5 6.564 6.538 0.307 46.701 o
-13 4 6 141.449 148.183 2.028 0.248 o
-13 4 7 16.004 15.815 0.425 14.382 o
-13 4 8 52.806 54.152 0.910 1.681 o
-13 4 9 2.664 2.661 0.277 77.840 o
-13 4 10 0.500 0.475 0.257 98.947 o
-13 4 11 0.074 -0.307 0.247 107.441 o
-13 5 1 27.338 28.911 0.485 6.095 o
-13 5 2 0.482 0.722 0.227 126.108 o
-13 5 3 27.653 28.525 0.593 5.474 o
-13 5 4 47.620 50.106 0.860 1.997 o
-13 5 5 20.465 20.879 0.504 9.184 o
-13 5 6 18.465 19.831 0.692 7.568 o
-13 5 7 0.042 0.376 0.208 152.186 o
-13 5 8 0.305 0.376 0.227 126.658 o
-13 5 9 0.076 0.198 0.208 152.224 o
-13 5 10 1.086 0.791 0.257 97.774 o
-13 5 11 33.769 34.934 0.673 3.821 o
-13 6 1 0.143 0.119 0.227 126.896 o
-13 6 2 5.955 5.934 0.297 51.948 o
-13 6 3 69.200 73.330 1.137 0.980 o
-13 6 4 6.324 6.706 0.326 43.299 o
-13 6 5 33.924 34.182 0.673 3.846 o
-13 6 6 0.304 0.455 0.208 151.796 o
-13 6 7 62.040 63.340 1.029 1.240 o
-13 6 8 1.114 0.999 0.227 123.936 o
-13 6 9 4.600 4.708 0.287 62.205 o
-13 6 10 0.159 -0.089 0.326 61.658 o
-13 6 11 2.932 2.245 0.396 39.947 o
-13 7 1 2.691 2.710 0.267 82.931 o
-13 7 2 43.742 43.302 0.781 2.457 o
-13 7 3 5.440 5.084 0.297 55.302 o
-13 7 4 0.182 0.267 0.227 126.827 o
-13 7 5 1.686 1.662 0.257 94.950 o
-13 7 6 1.136 0.860 0.208 148.207 o
-13 7 7 2.127 2.225 0.237 106.971 o
-13 7 8 0.066 -0.030 0.208 152.269 o
-13 7 9 0.885 0.989 0.227 124.731 o
-13 7 10 1.886 1.681 0.218 128.976 o
-13 8 1 14.053 14.806 0.435 15.962 o
-13 8 2 22.676 22.353 0.524 7.936 o
-13 8 3 11.682 12.086 0.396 21.319 o
-13 8 4 0.372 -0.069 0.227 126.781 o
-13 8 5 2.790 2.888 0.267 82.153 o
-13 8 6 8.667 8.526 0.475 21.464 o
-13 8 7 0.008 -0.257 0.188 186.021 o
-13 8 8 20.559 21.463 0.514 8.914 o
-13 8 9 8.967 8.526 0.336 33.255 o
-13 8 10 0.094 -0.109 0.198 167.866 o
-13 9 1 85.332 90.866 1.355 0.651 o
-13 9 2 90.038 93.814 1.385 0.599 o
-13 9 3 13.062 13.580 0.415 18.110 o
-13 9 4 1.426 1.207 0.237 112.613 o
-13 9 5 0.185 0.455 0.227 126.743 o
-13 9 6 0.025 -0.267 0.188 186.020 o
-13 9 7 0.003 0.010 0.188 186.021 o
-13 9 8 0.137 -0.020 0.198 167.845 o
-13 9 9 0.693 0.742 0.208 150.373 o
-13 10 1 31.164 31.640 0.633 4.481 o
-13 10 2 0.020 -0.317 0.198 167.884 o
-13 10 3 10.395 10.316 0.366 26.209 o
-13 10 4 0.206 0.346 0.218 138.544 o
-13 10 5 45.842 44.103 0.791 2.305 o
-13 10 6 1.386 1.543 0.218 132.464 o
-13 10 7 6.049 5.776 0.297 51.897 o
-13 10 8 0.022 0.356 0.267 92.093 o
-13 11 1 7.571 7.527 0.445 25.258 o
-13 11 2 10.936 10.830 0.356 25.681 o
-13 11 3 11.188 11.335 0.376 23.601 o
-13 11 4 5.792 5.272 0.277 59.200 o
-13 11 5 0.640 0.900 0.208 150.278 o
-13 11 6 17.303 16.735 0.435 12.947 o
-13 11 7 3.258 3.600 0.356 47.218 o
-13 12 1 0.004 -0.020 0.267 92.118 o
-13 12 2 3.488 3.452 0.356 46.958 o
-13 12 3 3.260 3.007 0.237 97.617 o
-13 12 4 18.613 18.436 0.455 11.311 o
-13 12 5 0.081 0.415 0.178 207.003 o
-13 12 6 61.846 62.678 1.444 1.047 o
-13 13 1 1.688 2.127 0.307 67.265 o
-13 13 2 7.786 7.596 0.415 27.681 o
-13 13 3 26.760 27.447 0.811 4.535 o
-12 0 2 712.587 750.093 7.972 0.010 o
-12 0 4 93.839 97.809 1.068 0.599 o
-12 0 6 1.380 1.217 0.247 104.195 o
-12 0 8 3.546 3.640 0.396 38.549 o
-12 0 10 91.418 95.089 1.968 0.498 o
-12 0 12 0.093 0.049 0.376 46.503 o
-12 1 1 35.921 35.943 0.415 4.173 o
-12 1 2 77.417 78.888 0.732 0.922 o
-12 1 3 90.090 91.628 0.821 0.685 o
-12 1 4 98.222 99.698 0.771 0.588 o
-12 1 5 53.332 54.587 0.564 1.902 o
-12 1 6 78.233 78.859 0.801 0.897 o
-12 1 7 2.929 2.690 0.208 126.439 o
-12 1 8 4.335 4.401 0.297 60.459 o
-12 1 9 7.229 7.240 0.346 37.191 o
-12 1 10 0.000 0.010 0.267 92.118 o
-12 1 11 0.639 0.435 0.277 85.262 o
-12 1 12 11.130 10.820 0.415 21.568 o
-12 1 13 0.467 0.040 0.267 91.970 o
-12 2 1 27.495 26.131 0.346 7.190 o
-12 2 2 6.498 6.251 0.188 82.108 o
-12 2 3 38.048 39.088 0.445 3.652 o
-12 2 4 0.059 -0.138 0.148 298.438 o
-12 2 5 17.099 17.289 0.277 16.567 o
-12 2 6 9.413 9.218 0.218 46.188 o
-12 2 7 96.513 95.248 0.930 0.603 o
-12 2 8 12.913 12.245 0.396 19.824 o
-12 2 9 46.212 46.358 0.811 2.203 o
-12 2 10 3.331 3.343 0.297 65.614 o
-12 2 11 1.811 1.612 0.297 71.916 o
-12 2 12 3.478 3.511 0.317 57.936 o
-12 2 13 0.410 0.069 0.267 91.995 o
-12 3 1 17.617 16.973 0.277 16.200 o
-12 3 2 1.758 1.751 0.148 259.068 o
-12 3 3 8.268 8.318 0.218 53.904 o
-12 3 4 11.269 11.335 0.287 29.767 o
-12 3 5 13.298 13.560 0.317 22.291 o
-12 3 6 36.620 35.755 0.455 4.005 o
-12 3 7 17.907 17.754 0.297 15.129 o
-12 3 8 14.391 15.350 0.435 15.480 o
-12 3 9 17.290 16.953 0.465 12.245 o
-12 3 10 0.273 0.089 0.257 99.267 o
-12 3 11 2.065 2.216 0.297 70.713 o
-12 3 12 0.490 0.376 0.267 91.832 o
-12 4 1 14.387 14.193 0.267 22.341 o
-12 4 2 4.789 4.846 0.168 123.091 o
-12 4 3 4.722 5.123 0.218 90.051 o
-12 4 4 0.630 0.425 0.168 229.581 o
-12 4 5 1.871 1.830 0.188 168.183 o
-12 4 6 8.685 7.873 0.247 47.599 o
-12 4 7 2.430 2.334 0.208 133.027 o
-12 4 8 173.646 181.851 1.958 0.175 o
-12 4 9 3.009 3.007 0.287 71.332 o
-12 4 10 76.927 78.236 1.197 0.828 o
-12 4 11 1.546 2.047 0.277 82.237 o
-12 4 12 11.167 11.018 0.396 22.597 o
-12 5 1 8.778 7.804 0.208 54.414 o
-12 5 2 0.958 0.841 0.168 225.063 o
-12 5 3 0.718 0.584 0.168 228.391 o
-12 5 4 2.309 2.225 0.188 160.361 o
-12 5 5 59.676 60.076 0.752 1.477 o
-12 5 6 22.375 22.007 0.495 8.399 o
-12 5 7 2.662 2.552 0.237 102.918 o
-12 5 8 22.511 23.461 0.534 7.719 o
-12 5 9 5.060 5.430 0.247 72.741 o
-12 5 10 0.062 0.198 0.247 107.424 o
-12 5 11 8.830 8.447 0.356 31.432 o
-12 5 12 1.583 1.652 0.267 88.636 o
-12 6 1 47.976 47.604 0.633 2.276 o
-12 6 2 0.319 0.277 0.158 261.267 o
-12 6 3 1.208 1.088 0.168 220.795 o
-12 6 4 2.793 2.641 0.198 138.903 o
-12 6 5 46.285 45.230 0.623 2.452 o
-12 6 6 5.707 5.262 0.415 31.872 o
-12 6 7 56.327 56.812 0.940 1.511 o
-12 6 8 0.885 0.762 0.227 125.075 o
-12 6 9 57.322 59.295 0.979 1.425 o
-12 6 10 0.442 1.048 0.356 51.633 o
-12 6 11 4.494 4.302 0.297 60.076 o
-12 6 12 0.433 0.415 0.188 184.985 o
-12 7 1 32.514 30.997 0.485 4.876 o
-12 7 2 16.183 16.023 0.336 16.607 o
-12 7 3 53.626 52.886 0.692 1.839 o
-12 7 4 100.694 91.163 1.335 0.543 o
-12 7 5 0.386 0.247 0.237 116.327 o
-12 7 6 16.900 17.309 0.653 8.862 o
-12 7 7 24.595 25.093 0.554 6.755 o
-12 7 8 0.069 0.208 0.208 152.225 o
-12 7 9 0.138 0.089 0.208 152.219 o
-12 7 10 0.057 0.218 0.198 167.827 o
-12 7 11 8.811 8.377 0.495 20.144 o
-12 8 1 0.531 1.098 0.237 115.434 o
-12 8 2 393.280 420.207 5.222 0.032 o
-12 8 3 34.123 33.312 0.653 3.933 o
-12 8 4 112.144 116.661 1.642 0.393 o
-12 8 5 6.900 6.815 0.317 43.379 o
-12 8 6 3.928 4.579 0.415 34.355 o
-12 8 7 0.129 0.307 0.208 152.140 o
-12 8 8 5.422 5.855 0.297 53.987 o
-12 8 9 1.215 1.434 0.227 122.675 o
-12 8 10 15.649 15.538 0.593 10.650 o
-12 8 11 2.245 2.127 0.317 62.295 o
-12 9 1 11.539 12.215 0.376 22.533 o
-12 9 2 3.959 3.857 0.267 74.614 o
-12 9 3 91.953 95.910 1.404 0.575 o
-12 9 4 150.609 157.648 2.967 0.192 o
-12 9 5 96.937 103.200 1.494 0.510 o
-12 9 6 27.334 26.695 0.821 4.461 o
-12 9 7 0.002 -0.030 0.188 186.021 o
-12 9 8 0.054 -0.089 0.198 167.878 o
-12 9 9 3.163 2.977 0.336 53.180 o
-12 9 10 0.070 -0.267 0.247 107.442 o
-12 10 1 43.238 42.214 0.613 2.767 o
-12 10 2 0.560 0.554 0.218 137.764 o
-12 10 3 47.002 46.981 1.137 1.779 o
-12 10 4 8.820 8.328 0.326 34.965 o
-12 10 5 9.562 9.465 0.346 30.074 o
-12 10 6 7.317 7.369 0.307 43.100 o
-12 10 7 36.676 36.744 0.692 3.383 o
-12 10 8 0.006 0.030 0.267 92.117 o
-12 10 9 20.564 20.256 0.692 7.034 o
-12 10 10 4.100 3.620 0.346 48.060 o
-12 11 1 5.827 5.559 0.277 58.425 o
-12 11 2 37.103 36.101 0.682 3.397 o
-12 11 3 4.137 4.718 0.297 60.598 o
-12 11 4 1.811 2.087 0.227 117.980 o
-12 11 5 8.085 8.269 0.317 38.143 o
-12 11 6 3.500 3.600 0.247 87.945 o
-12 11 7 0.238 0.732 0.297 74.466 o
-12 11 8 7.194 6.884 0.425 27.899 o
-12 11 9 8.371 7.853 0.445 24.235 o
-12 12 1 2.212 2.146 0.237 106.722 o
-12 12 2 2.031 1.820 0.227 117.468 o
-12 12 3 0.893 1.039 0.208 148.953 o
-12 12 4 2.533 2.631 0.227 111.540 o
-12 12 5 2.734 2.641 0.237 102.200 o
-12 12 6 31.616 32.689 0.930 3.327 o
-12 12 7 0.228 0.544 0.287 79.733 o
-12 12 8 38.662 37.694 1.019 2.494 o
-12 13 1 3.467 3.511 0.247 88.415 o
-12 13 2 3.348 3.135 0.247 90.236 o
-12 13 3 0.003 -0.049 0.178 207.265 o
-12 13 4 4.720 4.530 0.366 41.718 o
-12 13 5 10.682 10.702 0.504 17.357 o
-12 13 6 2.469 2.463 0.336 54.885 o
-12 13 7 24.729 24.578 0.771 5.228 o
-12 14 1 0.001 -0.227 0.188 186.021 o
-12 14 2 0.509 0.574 0.188 184.426 o
-12 14 4 3.039 3.353 0.336 53.057 o
-12 14 5 2.342 1.968 0.297 70.348 o
-11 0 2 67.464 66.525 0.762 1.200 o
-11 0 4 995.063 1039.370 8.130 0.006 o
-11 0 6 157.955 167.133 2.354 0.195 o
-11 0 8 5.374 5.272 0.336 45.606 o
-11 0 10 11.837 12.334 0.593 12.917 o
-11 0 12 29.175 29.860 0.613 4.997 o
-11 1 1 15.077 14.500 0.247 21.775 o
-11 1 2 62.276 60.907 0.554 1.474 o
-11 1 3 34.409 34.608 0.336 4.680 o
-11 1 4 11.472 11.315 0.188 37.135 o
-11 1 5 106.781 108.274 0.940 0.491 o
-11 1 6 244.199 253.628 2.127 0.093 o
-11 1 7 109.962 111.548 1.187 0.448 o
-11 1 8 76.660 78.404 0.920 0.897 o
-11 1 9 16.218 16.072 0.376 15.452 o
-11 1 10 15.302 15.766 0.465 13.816 o
-11 1 11 9.826 10.019 0.406 24.272 o
-11 1 12 5.045 5.667 0.267 64.869 o
-11 1 13 4.179 4.164 0.208 105.853 o
-11 2 1 23.224 22.689 0.307 9.795 o
-11 2 2 26.216 25.835 0.326 7.769 o
-11 2 3 40.828 39.751 0.435 3.339 o
-11 2 4 21.317 20.335 0.287 11.718 o
-11 2 5 12.474 12.522 0.218 30.313 o
-11 2 6 2.933 2.512 0.148 215.545 o
-11 2 7 16.556 16.409 0.287 17.373 o
-11 2 8 8.891 8.694 0.277 40.738 o
-11 2 9 33.492 31.532 0.504 4.609 o
-11 2 10 6.692 6.053 0.336 41.404 o
-11 2 11 67.385 71.282 0.900 1.107 o
-11 2 12 0.034 -0.237 0.208 152.274 o
-11 2 13 2.800 3.096 0.198 136.148 o
-11 3 1 9.994 9.792 0.208 43.755 o
-11 3 2 32.766 32.234 0.376 5.075 o
-11 3 3 92.383 92.923 0.821 0.658 o
-11 3 4 18.484 17.734 0.336 13.857 o
-11 3 5 1.754 1.810 0.158 230.869 o
-11 3 6 6.907 6.389 0.188 77.689 o
-11 3 7 2.174 2.423 0.148 238.528 o
-11 3 8 0.065 0.129 0.188 185.979 o
-11 3 9 16.278 15.884 0.435 13.904 o
-11 3 10 26.022 25.231 0.574 6.259 o
-11 3 11 8.044 7.369 0.277 45.917 o
-11 3 12 4.278 4.342 0.247 80.891 o
-11 3 13 2.204 2.087 0.218 125.281 o
-11 4 1 9.312 9.357 0.208 47.743 o
-11 4 2 57.720 57.406 0.574 1.670 o
-11 4 3 0.873 0.732 0.148 288.738 o
-11 4 4 44.713 44.558 0.584 2.621 o
-11 4 5 2.279 2.216 0.178 176.456 o
-11 4 6 0.000 -0.287 0.138 342.621 o
-11 4 7 3.551 3.442 0.158 170.827 o
-11 4 8 0.065 -0.010 0.129 397.311 o
-11 4 9 1.695 1.721 0.267 88.220 o
-11 4 10 99.066 99.085 1.424 0.518 o
-11 4 11 1.070 1.612 0.218 133.944 o
-11 4 12 93.850 95.218 1.137 0.600 o
-11 4 13 7.448 7.992 0.277 46.959 o
-11 5 1 96.133 99.164 0.940 0.590 o
-11 5 2 13.391 12.858 0.277 24.673 o
-11 5 3 3.176 3.027 0.188 143.038 o
-11 5 4 3.198 2.987 0.188 143.005 o
-11 5 5 34.450 33.035 0.495 4.385 o
-11 5 6 3.738 3.313 0.188 133.098 o
-11 5 7 38.188 38.218 0.554 3.474 o
-11 5 8 1.360 1.315 0.148 274.007 o
-11 5 9 3.098 3.036 0.227 105.903 o
-11 5 10 19.907 20.256 0.406 10.953 o
-11 5 11 0.681 0.564 0.208 150.712 o
-11 5 12 0.025 0.148 0.198 167.864 o
-11 5 13 4.709 5.005 0.297 58.065 o
-11 6 1 0.031 0.049 0.138 342.594 o
-11 6 2 0.261 0.336 0.148 297.261 o
-11 6 3 14.932 14.470 0.307 19.839 o
-11 6 4 0.017 0.138 0.148 298.413 o
-11 6 5 2.001 2.107 0.178 181.486 o
-11 6 6 0.165 -0.030 0.138 342.386 o
-11 6 7 0.296 0.267 0.158 261.389 o
-11 6 8 2.371 2.552 0.247 97.238 o
-11 6 9 78.984 81.608 0.999 0.829 o
-11 6 10 0.814 0.860 0.168 226.385 o
-11 6 11 26.150 26.309 0.465 6.832 o
-11 6 12 0.111 0.336 0.237 116.509 o
-11 6 13 21.747 22.402 0.514 8.332 o
-11 7 1 5.821 5.381 0.237 71.949 o
-11 7 2 13.963 13.600 0.297 22.187 o
-11 7 3 6.560 6.498 0.227 66.909 o
-11 7 4 14.976 14.124 0.307 20.005 o
-11 7 5 123.221 127.660 1.355 0.351 o
-11 7 6 119.571 121.547 1.296 0.378 o
-11 7 7 2.893 2.809 0.198 136.739 o
-11 7 8 67.894 68.424 1.078 1.061 o
-11 7 9 25.964 26.468 0.465 6.860 o
-11 7 10 1.114 0.821 0.188 180.293 o
-11 7 11 5.450 6.053 0.317 48.716 o
-11 7 12 0.895 1.048 0.247 105.765 o
-11 8 1 3.827 3.996 0.168 147.142 o
-11 8 2 146.334 149.330 1.533 0.253 o
-11 8 3 2.259 2.423 0.188 159.725 o
-11 8 4 393.366 410.148 3.818 0.035 o
-11 8 5 14.367 13.788 0.326 20.234 o
-11 8 6 216.220 218.872 2.730 0.112 o
-11 8 7 1.626 1.503 0.227 120.590 o
-11 8 8 1.304 1.513 0.237 112.497 o
-11 8 9 12.544 13.718 0.336 22.287 o
-11 8 10 0.125 0.079 0.208 152.230 o
-11 8 11 4.419 4.708 0.287 62.919 o
-11 8 12 10.173 10.939 0.514 17.170 o
-11 9 1 43.978 44.063 0.524 2.763 o
-11 9 2 22.078 21.601 0.386 9.798 o
-11 9 3 10.474 10.316 0.277 33.755 o
-11 9 4 3.536 3.027 0.208 118.485 o
-11 9 5 74.735 76.663 1.167 0.872 o
-11 9 6 115.254 116.839 1.642 0.381 o
-11 9 7 178.436 185.570 2.473 0.158 o
-11 9 8 106.188 109.866 1.573 0.438 o
-11 9 9 10.610 10.672 0.376 24.888 o
-11 9 10 0.257 0.317 0.218 138.504 o
-11 9 11 3.231 3.096 0.267 79.789 o
-11 10 1 18.412 18.298 0.366 13.126 o
-11 10 2 0.115 -0.119 0.148 298.375 o
-11 10 3 56.144 55.200 1.246 1.331 o
-11 10 4 2.868 2.750 0.247 94.082 o
-11 10 5 31.599 31.888 0.633 4.405 o
-11 10 6 17.023 16.646 0.435 13.155 o
-11 10 7 13.215 13.511 0.574 12.596 o
-11 10 8 5.070 5.390 0.317 50.818 o
-11 10 9 10.110 10.158 0.396 24.527 o
-11 10 10 1.033 1.395 0.237 113.671 o
-11 10 11 28.210 29.000 0.603 5.280 o
-11 11 1 4.685 4.708 0.267 68.988 o
-11 11 2 12.476 12.373 0.307 25.066 o
-11 11 3 25.158 25.281 0.544 6.667 o
-11 11 4 24.317 23.955 0.534 7.133 o
-11 11 5 0.046 0.218 0.208 152.235 o
-11 11 6 10.987 11.028 0.524 16.173 o
-11 11 7 4.220 4.144 0.376 40.964 o
-11 11 8 6.788 7.369 0.336 39.573 o
-11 11 9 1.070 1.533 0.247 104.661 o
-11 11 10 0.000 0.435 0.227 126.889 o
-11 12 1 6.693 6.587 0.297 48.243 o
-11 12 2 66.398 67.455 0.860 1.178 o
-11 12 3 0.195 0.336 0.188 185.687 o
-11 12 4 2.279 2.532 0.227 113.628 o
-11 12 5 2.737 2.938 0.336 54.014 o
-11 12 6 17.006 16.973 0.643 9.037 o
-11 12 7 1.242 1.474 0.307 68.502 o
-11 12 8 13.443 13.976 0.435 16.809 o
-11 12 9 1.107 1.424 0.297 73.287 o
-11 13 1 19.920 19.732 0.475 10.052 o
-11 13 2 1.362 1.513 0.208 144.993 o
-11 13 3 11.206 10.791 0.356 25.288 o
-11 13 4 0.002 0.218 0.267 92.110 o
-11 13 5 1.272 1.256 0.297 73.168 o
-11 13 6 0.332 0.336 0.277 85.521 o
-11 13 7 1.526 1.494 0.317 63.987 o
-11 13 8 6.670 6.271 0.415 30.002 o
-11 14 1 0.005 0.336 0.188 185.945 o
-11 14 2 3.367 3.739 0.376 42.522 o
-11 14 3 0.016 0.267 0.277 85.643 o
-11 14 4 6.108 6.439 0.406 31.823 o
-11 14 5 0.395 0.455 0.267 91.877 o
-11 14 6 1.552 1.780 0.317 63.748 o
-11 14 7 1.068 1.444 0.247 104.795 o
-11 15 1 0.106 0.297 0.297 74.589 o
-11 15 2 0.199 0.396 0.297 74.551 o
-11 15 3 27.788 28.099 0.841 4.234 o
-11 15 5 4.668 4.916 0.376 39.630 o
-10 0 2 16.593 14.668 0.277 18.611 o
-10 0 4 1.982 2.334 0.158 220.243 o
-10 0 6 631.519 662.263 8.348 0.013 o
-10 0 8 341.808 350.527 4.579 0.044 o
-10 0 10 0.019 0.435 0.218 138.668 o
-10 0 12 4.901 4.985 0.317 51.909 o
-10 0 14 0.016 0.237 0.247 107.431 o
-10 1 1 2.201 2.037 0.119 344.116 o
-10 1 2 5.562 5.667 0.148 117.260 o
-10 1 3 35.251 33.846 0.346 4.583 o
-10 1 4 9.420 8.813 0.158 56.008 o
-10 1 5 5.364 5.697 0.168 108.019 o
-10 1 6 18.973 17.793 0.267 14.725 o
-10 1 7 100.523 99.441 1.068 0.546 o
-10 1 8 281.825 289.076 2.720 0.069 o
-10 1 9 111.083 114.109 1.226 0.434 o
-10 1 10 92.067 93.339 0.821 0.659 o
-10 1 11 40.377 41.709 0.534 3.136 o
-10 1 12 35.878 36.714 0.495 3.948 o
-10 1 13 8.748 8.763 0.257 43.995 o
-10 1 14 0.607 0.673 0.178 204.496 o
-10 2 1 9.455 8.991 0.188 50.834 o
-10 2 2 4.524 4.184 0.148 152.310 o
-10 2 3 1.469 1.365 0.109 466.862 o
-10 2 4 18.786 18.476 0.247 14.926 o
-10 2 5 51.731 50.917 0.504 2.099 o
-10 2 6 2.710 2.314 0.138 248.922 o
-10 2 7 0.465 0.287 0.129 393.115 o
-10 2 8 1.028 0.860 0.188 180.772 o
-10 2 9 6.259 6.281 0.208 76.585 o
-10 2 10 0.443 0.702 0.158 259.167 o
-10 2 11 5.364 5.371 0.218 83.568 o
-10 2 12 0.025 -0.049 0.168 232.363 o
-10 2 13 36.222 37.585 0.504 3.831 o
-10 2 14 4.874 5.133 0.218 88.695 o
-10 3 1 30.142 29.890 0.376 5.854 o
-10 3 2 122.394 123.209 1.019 0.378 o
-10 3 3 7.886 7.319 0.178 68.415 o
-10 3 4 6.286 6.320 0.188 83.823 o
-10 3 5 87.099 86.751 0.771 0.746 o
-10 3 6 44.568 43.944 0.465 2.792 o
-10 3 7 13.857 13.511 0.247 24.682 o
-10 3 8 1.225 1.157 0.178 197.489 o
-10 3 9 4.062 4.382 0.188 121.245 o
-10 3 10 7.007 6.825 0.227 63.082 o
-10 3 11 2.067 1.741 0.188 166.400 o
-10 3 12 11.718 11.968 0.277 28.824 o
-10 3 13 0.066 0.326 0.168 232.158 o
-10 3 14 1.583 1.543 0.188 172.919 o
-10 4 1 3.064 2.710 0.148 208.977 o
-10 4 2 79.202 77.138 0.692 0.916 o
-10 4 3 0.685 0.653 0.148 291.919 o
-10 4 4 142.678 143.643 1.444 0.270 o
-10 4 5 16.531 15.499 0.297 17.634 o
-10 4 6 86.008 86.455 0.870 0.745 o
-10 4 7 19.397 19.020 0.277 13.688 o
-10 4 8 16.088 15.726 0.267 18.869 o
-10 4 9 9.125 8.961 0.227 46.565 o
-10 4 10 0.331 0.079 0.198 167.600 o
-10 4 11 2.091 1.790 0.218 127.189 o
-10 4 12 21.429 21.898 0.366 10.267 o
-10 4 13 0.815 0.673 0.168 227.223 o
-10 4 14 74.849 77.919 1.177 0.860 o
-10 5 1 3.972 3.838 0.158 157.204 o
-10 5 2 122.323 122.487 1.256 0.368 o
-10 5 3 105.429 107.126 1.118 0.489 o
-10 5 4 13.761 13.896 0.287 22.712 o
-10 5 5 19.366 18.872 0.336 12.796 o
-10 5 6 5.229 5.489 0.218 84.190 o
-10 5 7 21.886 20.553 0.297 11.187 o
-10 5 8 1.386 1.375 0.129 353.048 o
-10 5 9 0.234 0.040 0.148 298.040 o
-10 5 10 0.882 1.098 0.208 148.865 o
-10 5 11 15.969 16.043 0.366 15.958 o
-10 5 12 8.152 8.249 0.247 49.071 o
-10 5 13 1.623 1.840 0.198 155.484 o
-10 6 1 23.269 22.472 0.297 9.915 o
-10 6 2 2.729 2.690 0.168 181.070 o
-10 6 3 5.527 5.044 0.188 98.664 o
-10 6 4 0.318 0.326 0.148 296.953 o
-10 6 5 3.743 3.511 0.188 131.631 o
-10 6 6 0.155 0.168 0.148 298.087 o
-10 6 7 11.795 11.859 0.287 28.089 o
-10 6 8 0.388 0.495 0.129 392.734 o
-10 6 9 13.474 12.452 0.257 25.923 o
-10 6 10 0.046 -0.168 0.158 262.309 o
-10 6 11 35.227 35.102 0.554 3.979 o
-10 6 12 0.195 0.208 0.247 107.370 o
-10 6 13 16.981 17.843 0.465 12.168 o
-10 7 1 55.524 55.289 0.544 1.808 o
-10 7 2 0.119 0.208 0.129 396.785 o
-10 7 3 0.008 0.030 0.129 397.353 o
-10 7 4 31.001 30.335 0.455 5.317 o
-10 7 5 4.865 4.926 0.208 95.132 o
-10 7 6 5.714 5.608 0.227 75.713 o
-10 7 7 71.738 72.202 0.860 1.034 o
-10 7 8 95.668 95.990 0.880 0.612 o
-10 7 9 34.206 35.419 0.554 4.087 o
-10 7 10 102.260 103.813 1.217 0.507 o
-10 7 11 6.319 6.904 0.336 41.275 o
-10 7 12 8.268 8.190 0.356 32.759 o
-10 7 13 20.975 22.007 0.514 8.667 o
-10 8 1 1.080 1.187 0.129 367.337 o
-10 8 2 50.369 51.254 0.722 1.986 o
-10 8 3 50.381 51.254 0.653 2.044 o
-10 8 4 34.106 34.400 0.495 4.337 o
-10 8 5 8.096 7.636 0.247 50.675 o
-10 8 6 334.089 349.400 3.274 0.048 o
-10 8 7 1.056 1.256 0.158 248.721 o
-10 8 8 218.865 226.250 2.394 0.112 o
-10 8 9 12.061 12.146 0.396 20.842 o
-10 8 10 2.491 2.661 0.267 83.833 o
-10 8 11 13.986 14.470 0.346 19.484 o
-10 8 12 9.942 10.286 0.376 26.166 o
-10 8 13 0.435 0.158 0.326 61.592 o
-10 9 1 4.577 4.481 0.168 129.576 o
-10 9 2 2.008 1.948 0.129 315.475 o
-10 9 3 54.084 52.896 0.673 1.834 o
-10 9 4 56.325 55.873 0.702 1.676 o
-10 9 5 0.834 0.920 0.178 202.112 o
-10 9 6 2.117 1.543 0.188 166.988 o
-10 9 7 65.725 65.299 0.771 1.248 o
-10 9 8 59.979 61.491 0.999 1.322 o
-10 9 9 143.578 150.339 2.067 0.240 o
-10 9 10 143.227 147.481 2.028 0.245 o
-10 9 11 52.090 53.459 0.900 1.725 o
-10 9 12 6.259 6.834 0.455 26.050 o
-10 10 1 3.491 3.383 0.148 187.841 o
-10 10 2 7.432 7.547 0.188 68.497 o
-10 10 3 0.010 0.129 0.138 342.574 o
-10 10 4 0.020 -0.030 0.148 298.459 o
-10 10 5 59.503 59.552 0.752 1.489 o
-10 10 6 0.451 0.415 0.208 151.540 o
-10 10 7 14.815 14.361 0.445 15.222 o
-10 10 8 3.386 3.541 0.297 65.126 o
-10 10 9 9.899 9.831 0.376 26.578 o
-10 10 10 0.276 0.653 0.247 107.139 o
-10 10 11 0.845 1.306 0.257 97.740 o
-10 10 12 6.831 7.596 0.336 39.194 o
-10 11 1 0.277 0.178 0.148 297.588 o
-10 11 2 7.565 6.884 0.188 70.048 o
-10 11 3 2.395 2.225 0.148 235.048 o
-10 11 4 37.886 36.517 0.673 3.329 o
-10 11 5 30.759 30.760 0.880 3.645 o
-10 11 6 3.737 3.937 0.307 59.873 o
-10 11 7 6.259 6.172 0.346 40.558 o
-10 11 8 34.294 34.657 0.692 3.721 o
-10 11 9 2.084 2.492 0.277 80.067 o
-10 11 10 2.907 3.274 0.277 75.809 o
-10 11 11 0.562 1.009 0.247 106.490 o
-10 12 1 0.066 0.059 0.198 167.865 o
-10 12 2 1.272 1.197 0.158 245.755 o
-10 12 3 12.810 12.403 0.297 25.029 o
-10 12 4 87.808 89.768 1.899 0.543 o
-10 12 5 1.523 1.484 0.307 68.086 o
-10 12 6 26.890 26.814 0.613 5.665 o
-10 12 7 2.609 2.562 0.287 73.342 o
-10 12 8 13.395 12.551 0.425 17.870 o
-10 12 9 0.176 0.356 0.237 116.461 o
-10 12 10 0.576 0.722 0.237 115.716 o
-10 13 1 44.390 45.517 0.791 2.345 o
-10 13 2 28.814 28.347 0.574 5.381 o
-10 13 3 28.300 27.783 0.584 5.476 o
-10 13 4 24.375 24.242 0.762 5.372 o
-10 13 5 12.351 11.839 0.415 19.689 o
-10 13 6 4.777 5.311 0.336 47.009 o
-10 13 7 4.630 4.520 0.317 53.374 o
-10 13 8 4.000 4.055 0.307 58.894 o
-10 13 9 0.029 0.168 0.237 116.574 o
-10 13 10 5.234 4.421 0.376 39.102 o
-10 14 1 0.907 0.673 0.317 65.095 o
-10 14 2 8.600 9.277 0.495 19.959 o
-10 14 3 5.947 5.766 0.406 32.509 o
-10 14 4 1.894 1.988 0.227 117.782 o
-10 14 5 0.024 0.227 0.247 107.430 o
-10 14 6 2.007 2.750 0.287 74.830 o
-10 14 7 5.335 5.262 0.336 45.712 o
-10 14 8 1.630 1.751 0.267 88.365 o
-10 15 1 1.179 1.296 0.317 64.542 o
-10 15 2 0.021 0.069 0.287 79.848 o
-10 15 3 3.250 2.779 0.366 45.522 o
-10 15 4 7.405 7.042 0.455 24.827 o
-10 15 5 15.581 14.816 0.455 14.218 o
-10 15 6 12.676 12.462 0.425 18.590 o
-10 15 7 12.405 12.690 0.435 18.296 o
-10 16 1 9.620 9.792 0.504 18.447 o
-10 16 2 5.904 5.816 0.435 28.958 o
-10 16 3 15.580 16.438 0.653 9.392 o
-10 16 4 20.808 20.177 0.702 6.888 o
-10 16 5 1.479 1.197 0.544 22.044 o
-9 0 2 33.325 29.069 0.554 4.652 o
-9 0 4 93.200 91.964 1.236 0.604 o
-9 0 6 0.150 0.653 0.178 206.551 o
-9 0 8 165.785 168.301 1.998 0.192 o
-9 0 10 433.568 450.236 4.945 0.028 o
-9 0 12 0.057 0.188 0.257 99.323 o
-9 0 14 4.673 4.639 0.317 53.078 o
-9 1 1 1.277 1.335 0.129 357.870 o
-9 1 2 42.882 42.669 0.495 2.940 o
-9 1 3 7.896 7.646 0.208 60.043 o
-9 1 4 11.329 11.424 0.208 35.844 o
-9 1 5 34.969 34.806 0.376 4.485 o
-9 1 6 2.871 2.819 0.129 258.883 o
-9 1 7 8.911 8.011 0.227 49.667 o
-9 1 8 35.841 34.321 0.396 4.344 o
-9 1 9 57.290 57.168 0.495 1.727 o
-9 1 10 100.560 99.718 0.781 0.570 o
-9 1 11 74.419 72.568 0.653 1.036 o
-9 1 12 133.331 140.715 1.355 0.301 o
-9 1 13 45.096 46.575 0.584 2.529 o
-9 1 14 21.822 22.610 0.386 9.684 o
-9 1 15 8.419 8.951 0.336 33.981 o
-9 2 1 3.538 3.531 0.208 115.833 o
-9 2 2 0.264 0.346 0.119 463.318 o
-9 2 3 4.654 4.530 0.178 119.879 o
-9 2 4 2.390 2.285 0.129 291.281 o
-9 2 5 24.081 23.649 0.287 9.326 o
-9 2 6 1.983 1.919 0.119 359.673 o
-9 2 7 20.940 19.950 0.297 11.961 o
-9 2 8 9.586 9.139 0.208 46.980 o
-9 2 9 0.908 0.900 0.129 377.062 o
-9 2 10 11.691 11.028 0.208 35.319 o
-9 2 11 0.292 0.326 0.158 261.277 o
-9 2 12 5.978 5.895 0.227 72.833 o
-9 2 13 0.577 0.603 0.168 229.343 o
-9 2 14 0.345 0.495 0.178 206.162 o
-9 3 1 0.043 0.198 0.109 554.534 o
-9 3 2 3.203 2.997 0.129 241.524 o
-9 3 3 0.581 0.959 0.109 530.647 o
-9 3 4 159.787 162.584 1.434 0.218 o
-9 3 5 26.303 26.329 0.326 7.654 o
-9 3 6 3.424 3.521 0.138 204.363 o
-9 3 7 20.398 20.375 0.247 12.817 o
-9 3 8 15.924 15.182 0.257 19.729 o
-9 3 9 58.088 57.801 0.534 1.669 o
-9 3 10 3.520 3.353 0.148 187.479 o
-9 3 11 3.731 3.561 0.198 122.133 o
-9 3 12 1.828 1.563 0.178 187.802 o
-9 3 13 0.070 0.049 0.168 232.331 o
-9 3 14 0.271 0.326 0.188 185.543 o
-9 4 1 39.067 38.782 0.406 3.622 o
-9 4 2 72.797 72.054 0.781 1.039 o
-9 4 3 14.941 14.618 0.267 21.176 o
-9 4 4 12.065 11.216 0.247 31.007 o
-9 4 5 4.192 4.124 0.148 160.661 o
-9 4 6 248.526 254.409 2.176 0.090 o
-9 4 7 18.366 18.061 0.237 15.696 o
-9 4 8 90.303 90.678 0.712 0.700 o
-9 4 9 4.444 3.956 0.178 127.318 o
-9 4 10 55.656 54.874 0.495 1.837 o
-9 4 11 0.114 0.010 0.168 232.309 o
-9 4 12 2.634 2.690 0.188 152.928 o
-9 4 13 0.569 0.366 0.188 184.593 o
-9 4 14 0.982 0.811 0.188 181.251 o
-9 5 1 0.013 0.059 0.089 828.968 o
-9 5 2 3.824 3.531 0.168 151.552 o
-9 5 3 22.657 22.274 0.346 9.791 o
-9 5 4 146.968 148.826 1.474 0.254 o
-9 5 5 16.979 17.071 0.307 16.095 o
-9 5 6 19.614 20.029 0.297 12.839 o
-9 5 7 72.141 73.162 0.593 1.085 o
-9 5 8 1.475 1.642 0.129 344.392 o
-9 5 9 1.544 1.503 0.138 302.484 o
-9 5 10 0.579 0.574 0.148 293.631 o
-9 5 11 10.093 10.207 0.257 36.996 o
-9 5 12 0.614 0.692 0.198 165.997 o
-9 5 13 15.816 16.201 0.356 16.309 o
-9 5 14 1.011 0.930 0.188 180.645 o
-9 6 1 31.189 31.898 0.336 5.542 o
-9 6 2 5.529 5.143 0.168 109.605 o
-9 6 3 71.630 69.947 0.781 1.078 o
-9 6 4 2.218 2.225 0.148 240.061 o
-9 6 5 2.471 2.245 0.158 210.057 o
-9 6 6 0.065 0.257 0.129 396.924 o
-9 6 7 8.683 8.575 0.208 52.837 o
-9 6 8 0.156 0.168 0.119 465.427 o
-9 6 9 0.640 0.791 0.129 385.301 o
-9 6 10 1.050 0.959 0.148 283.904 o
-9 6 11 7.322 7.566 0.267 50.215 o
-9 6 12 0.706 0.613 0.198 165.787 o
-9 6 13 0.242 0.089 0.178 207.006 o
-9 6 14 0.037 -0.059 0.168 232.361 o
-9 7 1 2.614 2.581 0.129 274.979 o
-9 7 2 0.025 0.020 0.109 554.961 o
-9 7 3 11.488 10.929 0.247 32.875 o
-9 7 4 3.638 3.739 0.168 153.109 o
-9 7 5 46.654 47.822 0.603 2.374 o
-9 7 6 30.189 30.147 0.376 5.814 o
-9 7 7 11.743 10.850 0.227 33.864 o
-9 7 8 0.558 0.890 0.148 292.024 o
-9 7 9 11.170 10.722 0.227 35.778 o
-9 7 10 56.155 58.484 0.781 1.591 o
-9 7 11 59.818 61.233 0.801 1.432 o
-9 7 12 81.326 82.419 1.009 0.795 o
-9 7 13 2.036 1.869 0.198 151.408 o
-9 8 1 0.378 0.356 0.109 548.070 o
-9 8 2 28.075 27.447 0.336 6.870 o
-9 8 3 9.941 9.446 0.237 41.029 o
-9 8 4 23.739 23.639 0.376 8.742 o
-9 8 5 69.987 70.373 0.673 1.135 o
-9 8 6 3.268 3.511 0.168 162.408 o
-9 8 7 0.258 0.317 0.138 341.136 o
-9 8 8 216.154 226.962 2.265 0.114 o
-9 8 9 1.868 1.840 0.257 94.007 o
-9 8 10 160.506 170.684 1.859 0.201 o
-9 8 11 3.902 3.937 0.208 109.910 o
-9 8 12 12.555 12.858 0.317 23.968 o
-9 8 13 1.602 1.919 0.198 155.315 o
-9 9 1 5.447 5.430 0.168 108.727 o
-9 9 2 5.393 5.104 0.158 118.354 o
-9 9 3 0.031 -0.069 0.109 554.967 o
-9 9 4 18.305 18.268 0.336 13.789 o
-9 9 5 18.037 17.180 0.277 15.685 o
-9 9 6 43.129 43.480 0.524 2.850 o
-9 9 7 43.612 43.193 0.623 2.692 o
-9 9 8 2.289 2.512 0.227 113.625 o
-9 9 9 39.441 40.364 0.752 2.881 o
-9 9 10 34.712 34.548 0.682 3.712 o
-9 9 11 74.658 76.940 1.197 0.863 o
-9 9 12 89.422 92.745 0.959 0.669 o
-9 9 13 67.844 71.391 0.900 1.098 o
-9 10 1 0.287 0.336 0.119 463.065 o
-9 10 2 8.008 7.814 0.178 65.563 o
-9 10 3 0.300 0.445 0.109 548.887 o
-9 10 4 3.540 3.195 0.168 160.189 o
-9 10 5 7.946 7.853 0.227 54.849 o
-9 10 6 7.173 7.092 0.277 49.717 o
-9 10 7 28.752 27.832 0.485 5.900 o
-9 10 8 2.758 1.988 0.277 78.684 o
-9 10 9 13.548 13.649 0.435 16.858 o
-9 10 10 0.302 0.247 0.247 107.293 o
-9 10 11 1.722 1.840 0.277 82.051 o
-9 10 12 3.681 3.798 0.227 98.384 o
-9 11 1 1.354 1.385 0.158 242.727 o
-9 11 2 14.375 13.788 0.247 23.509 o
-9 11 3 0.539 0.623 0.129 389.133 o
-9 11 4 0.099 -0.227 0.168 232.327 o
-9 11 5 1.363 1.325 0.208 145.595 o
-9 11 6 27.178 25.914 0.475 6.552 o
-9 11 7 16.513 16.003 0.465 12.980 o
-9 11 8 1.707 1.800 0.277 82.141 o
-9 11 9 19.716 19.930 0.514 9.526 o
-9 11 10 14.089 13.639 0.425 16.765 o
-9 11 11 0.328 0.485 0.247 107.171 o
-9 11 12 0.653 0.495 0.247 106.763 o
-9 12 1 9.719 9.821 0.267 37.626 o
-9 12 2 16.116 15.964 0.297 17.838 o
-9 12 3 1.397 1.395 0.148 272.279 o
-9 12 4 6.394 5.766 0.208 77.587 o
-9 12 5 12.516 12.759 0.415 19.049 o
-9 12 6 41.527 40.018 0.762 2.729 o
-9 12 7 7.419 7.626 0.356 35.006 o
-9 12 8 85.481 86.099 1.315 0.677 o
-9 12 9 0.765 1.088 0.267 91.061 o
-9 12 10 8.101 7.814 0.356 33.456 o
-9 12 11 0.027 0.129 0.247 107.439 o
-9 13 1 3.310 3.491 0.247 89.409 o
-9 13 2 26.848 26.913 0.811 4.557 o
-9 13 3 22.411 22.669 0.514 8.070 o
-9 13 4 18.550 18.377 0.396 12.446 o
-9 13 5 35.538 36.467 0.712 3.453 o
-9 13 6 37.538 38.366 0.742 3.124 o
-9 13 7 7.055 6.933 0.356 36.455 o
-9 13 8 1.828 2.225 0.277 81.234 o
-9 13 9 5.427 4.995 0.317 50.348 o
-9 13 10 0.090 0.079 0.237 116.569 o
-9 14 1 0.303 0.326 0.277 85.538 o
-9 14 2 4.821 5.292 0.415 32.934 o
-9 14 3 0.038 -0.237 0.237 116.585 o
-9 14 4 1.174 1.335 0.198 161.141 o
-9 14 5 12.445 11.750 0.326 24.467 o
-9 14 6 0.886 0.841 0.257 98.118 o
-9 14 7 1.483 1.563 0.267 89.028 o
-9 14 8 0.783 0.742 0.257 98.384 o
-9 14 9 5.619 4.560 0.317 50.424 o
-9 14 10 9.357 9.129 0.475 20.599 o
-9 15 1 0.260 0.722 0.317 65.458 o
-9 15 2 1.154 1.335 0.317 64.548 o
-9 15 3 4.932 5.756 0.346 44.008 o
-9 15 4 1.286 1.325 0.277 83.657 o
-9 15 5 2.404 2.591 0.227 112.576 o
-9 15 6 11.796 11.602 0.415 20.402 o
-9 15 7 0.737 0.791 0.267 91.325 o
-9 15 8 2.596 2.651 0.297 68.816 o
-9 16 1 18.841 18.585 0.692 7.627 o
-9 16 2 3.911 4.243 0.326 52.940 o
-9 16 3 5.777 5.361 0.356 40.727 o
-9 16 4 2.920 2.710 0.317 60.273 o
-9 16 5 13.364 13.966 0.752 8.589 o
-9 16 6 0.576 0.514 0.267 91.687 o
-9 16 7 9.143 9.159 0.386 27.411 o
-9 17 1 1.815 2.552 0.356 49.998 o
-9 17 2 1.839 1.889 0.297 71.575 o
-9 17 3 1.580 1.602 0.297 72.367 o
-9 17 4 0.205 0.227 0.277 85.600 o
-9 17 5 12.858 13.165 0.455 16.872 o
-8 0 2 37.918 35.053 0.593 3.579 o
-8 0 4 367.195 359.369 3.828 0.041 o
-8 0 6 89.490 86.682 1.088 0.677 o
-8 0 8 1.251 1.296 0.158 245.276 o
-8 0 10 34.042 33.500 0.495 4.410 o
-8 0 12 254.159 267.643 3.393 0.078 o
-8 0 14 11.298 11.127 0.406 21.779 o
-8 1 1 149.129 143.237 1.197 0.263 o
-8 1 2 404.887 410.999 3.056 0.035 o
-8 1 3 2.199 1.948 0.129 307.097 o
-8 1 4 0.973 0.762 0.119 438.804 o
-8 1 5 14.167 13.283 0.257 23.882 o
-8 1 6 5.641 5.054 0.138 127.888 o
-8 1 7 26.246 25.132 0.267 8.230 o
-8 1 8 28.106 27.298 0.287 7.113 o
-8 1 9 35.420 33.797 0.336 4.581 o
-8 1 10 9.400 8.872 0.188 51.446 o
-8 1 11 9.961 9.614 0.198 45.503 o
-8 1 12 5.017 4.935 0.218 88.319 o
-8 1 13 39.587 41.502 0.534 3.217 o
-8 1 14 112.171 120.370 1.197 0.417 o
-8 1 15 26.702 28.169 0.415 6.735 o
-8 2 1 146.134 143.208 1.058 0.274 o
-8 2 2 25.974 24.697 0.336 7.994 o
-8 2 3 13.951 13.254 0.247 24.744 o
-8 2 4 44.367 43.470 0.514 2.768 o
-8 2 5 5.124 4.955 0.198 98.027 o
-8 2 6 20.367 19.119 0.257 13.183 o
-8 2 7 9.181 9.119 0.168 55.029 o
-8 2 8 14.078 13.293 0.198 26.661 o
-8 2 9 0.113 0.148 0.109 554.200 o
-8 2 10 8.070 8.061 0.178 64.182 o
-8 2 11 6.391 6.211 0.178 87.340 o
-8 2 12 3.279 3.036 0.198 130.772 o
-8 2 13 4.685 4.718 0.218 92.147 o
-8 2 14 1.004 1.088 0.188 180.121 o
-8 2 15 0.031 -0.168 0.188 186.019 o
-8 3 1 7.377 6.834 0.188 71.762 o
-8 3 2 27.443 25.251 0.386 7.113 o
-8 3 3 23.580 22.966 0.326 9.387 o
-8 3 4 16.858 15.993 0.317 16.494 o
-8 3 5 14.774 13.204 0.267 22.512 o
-8 3 6 46.306 45.962 0.425 2.630 o
-8 3 7 24.956 24.865 0.257 8.869 o
-8 3 8 26.520 26.487 0.277 7.823 o
-8 3 9 3.356 3.323 0.138 209.728 o
-8 3 10 0.486 0.584 0.129 390.467 o
-8 3 11 41.037 41.145 0.415 3.278 o
-8 3 12 5.991 6.014 0.227 72.334 o
-8 3 13 0.084 -0.168 0.168 232.338 o
-8 3 14 0.162 -0.326 0.178 207.182 o
-8 3 15 0.917 1.118 0.198 163.493 o
-8 4 1 35.260 35.458 0.435 4.254 o
-8 4 2 2.913 3.679 0.198 131.308 o
-8 4 3 17.445 17.151 0.396 13.594 o
-8 4 4 53.103 52.727 0.663 1.884 o
-8 4 5 0.588 0.663 0.099 644.649 o
-8 4 6 16.616 16.320 0.227 18.880 o
-8 4 7 2.828 2.651 0.119 293.117 o
-8 4 8 187.562 190.485 1.177 0.164 o
-8 4 9 0.156 0.267 0.119 465.010 o
-8 4 10 95.492 96.741 0.762 0.622 o
-8 4 11 2.967 3.145 0.148 205.564 o
-8 4 12 54.538 55.240 0.752 1.719 o
-8 4 13 3.755 3.798 0.227 97.793 o
-8 4 14 10.182 10.029 0.297 32.931 o
-8 4 15 2.729 3.036 0.218 117.202 o
-8 5 1 4.077 3.660 0.168 145.642 o
-8 5 2 34.631 32.461 0.475 4.457 o
-8 5 3 60.236 58.326 0.880 1.418 o
-8 5 4 3.497 2.987 0.129 230.089 o
-8 5 5 49.076 48.514 0.485 2.321 o
-8 5 6 80.542 79.027 0.613 0.896 o
-8 5 7 0.061 -0.188 0.099 671.416 o
-8 5 8 38.190 38.801 0.336 3.834 o
-8 5 9 56.671 57.514 0.455 1.762 o
-8 5 10 0.068 0.208 0.129 397.019 o
-8 5 11 1.343 1.315 0.168 217.510 o
-8 5 12 0.105 -0.475 0.188 185.994 o
-8 5 13 4.317 4.243 0.237 86.042 o
-8 5 14 0.008 -0.010 0.188 186.021 o
-8 6 1 9.605 9.070 0.188 49.845 o
-8 6 2 0.004 -0.059 0.099 671.537 o
-8 6 3 50.042 51.372 0.673 2.040 o
-8 6 4 2.132 1.820 0.129 312.862 o
-8 6 5 8.309 7.754 0.188 61.408 o
-8 6 6 2.169 2.037 0.129 306.457 o
-8 6 7 11.429 11.315 0.188 37.285 o
-8 6 8 0.026 -0.079 0.109 554.974 o
-8 6 9 0.329 0.218 0.099 665.241 o
-8 6 10 0.000 0.356 0.129 396.992 o
-8 6 11 7.810 7.339 0.267 48.695 o
-8 6 12 0.779 0.514 0.188 183.334 o
-8 6 13 0.372 -0.030 0.188 185.671 o
-8 6 14 1.609 1.830 0.208 142.147 o
-8 7 1 2.051 2.077 0.109 399.509 o
-8 7 2 104.527 106.226 0.851 0.517 o
-8 7 3 12.456 12.096 0.227 30.276 o
-8 7 4 2.812 2.868 0.138 235.689 o
-8 7 5 3.733 3.580 0.158 165.197 o
-8 7 6 1.998 2.067 0.148 248.419 o
-8 7 7 97.057 95.970 0.920 0.597 o
-8 7 8 12.509 12.314 0.247 28.653 o
-8 7 9 1.532 1.583 0.129 343.267 o
-8 7 10 12.837 13.204 0.227 28.062 o
-8 7 11 1.810 1.701 0.178 187.103 o
-8 7 12 20.988 20.583 0.406 10.320 o
-8 7 13 26.083 26.705 0.475 6.732 o
-8 7 14 42.831 44.844 0.653 2.648 o
-8 8 1 2.363 2.166 0.119 331.498 o
-8 8 2 170.622 174.215 1.375 0.194 o
-8 8 3 1.339 1.236 0.109 480.030 o
-8 8 4 73.843 73.261 0.673 1.036 o
-8 8 5 7.012 6.281 0.188 77.242 o
-8 8 6 0.003 -0.049 0.129 397.359 o
-8 8 7 13.412 13.105 0.317 22.458 o
-8 8 8 27.385 27.565 0.465 6.354 o
-8 8 9 15.506 15.647 0.267 19.671 o
-8 8 10 78.790 81.490 0.900 0.853 o
-8 8 11 7.688 7.705 0.237 54.463 o
-8 8 12 111.723 118.372 1.365 0.412 o
-8 8 13 0.008 0.178 0.178 207.235 o
-8 8 14 13.183 13.570 0.326 21.976 o
-8 9 1 204.964 210.801 1.642 0.134 o
-8 9 2 83.982 83.280 0.732 0.806 o
-8 9 3 4.405 4.095 0.129 179.369 o
-8 9 4 11.344 11.285 0.227 34.395 o
-8 9 5 6.059 6.231 0.188 86.510 o
-8 9 6 6.439 6.221 0.247 62.478 o
-8 9 7 2.128 2.295 0.208 135.963 o
-8 9 8 4.626 4.589 0.247 77.972 o
-8 9 9 71.209 69.650 0.870 1.062 o
-8 9 10 22.537 23.194 0.435 8.740 o
-8 9 11 3.437 3.511 0.198 125.986 o
-8 9 12 17.918 18.387 0.336 14.044 o
-8 9 13 37.339 38.040 0.574 3.528 o
-8 10 1 75.502 76.248 0.692 0.979 o
-8 10 2 1.361 1.315 0.119 409.197 o
-8 10 3 20.375 20.207 0.267 12.644 o
-8 10 4 0.573 0.534 0.109 539.457 o
-8 10 5 0.023 0.010 0.168 232.363 o
-8 10 6 25.767 25.676 0.455 7.093 o
-8 10 7 3.433 3.125 0.227 102.980 o
-8 10 8 7.812 8.150 0.287 43.662 o
-8 10 9 2.785 2.542 0.267 82.889 o
-8 10 10 1.985 1.919 0.208 138.813 o
-8 10 11 17.448 17.012 0.376 14.088 o
-8 10 12 0.081 -0.089 0.158 262.286 o
-8 10 13 0.001 -0.188 0.168 232.366 o
-8 11 1 0.546 0.317 0.148 295.252 o
-8 11 2 43.637 43.341 0.435 2.923 o
-8 11 3 9.043 9.119 0.208 49.606 o
-8 11 4 0.011 -0.168 0.129 397.358 o
-8 11 5 1.846 1.919 0.208 139.958 o
-8 11 6 2.830 2.947 0.227 108.247 o
-8 11 7 0.256 0.208 0.198 167.617 o
-8 11 8 0.972 1.039 0.267 90.751 o
-8 11 9 5.548 5.133 0.317 49.787 o
-8 11 10 5.533 5.529 0.247 69.616 o
-8 11 11 18.595 18.782 0.396 12.291 o
-8 11 12 0.144 -0.049 0.168 232.284 o
-8 12 1 11.810 11.414 0.267 29.943 o
-8 12 2 6.055 5.638 0.247 66.264 o
-8 12 3 6.066 5.628 0.188 89.543 o
-8 12 4 64.959 65.714 0.663 1.299 o
-8 12 5 7.729 7.151 0.227 57.921 o
-8 12 6 4.365 3.996 0.247 81.423 o
-8 12 7 5.405 5.430 0.336 45.336 o
-8 12 8 13.627 12.957 0.435 17.087 o
-8 12 9 10.534 10.277 0.396 23.884 o
-8 12 10 81.388 82.924 1.276 0.737 o
-8 12 11 0.019 -0.030 0.168 232.364 o
-8 12 12 14.897 14.431 0.336 18.821 o
-8 13 1 5.017 4.718 0.307 54.625 o
-8 13 2 16.253 15.904 0.366 15.767 o
-8 13 3 9.993 9.693 0.247 39.240 o
-8 13 4 2.581 2.394 0.168 186.855 o
-8 13 5 3.353 3.383 0.218 110.179 o
-8 13 6 30.706 31.096 0.663 4.464 o
-8 13 7 29.759 30.582 0.653 4.674 o
-8 13 8 16.337 16.369 0.485 12.512 o
-8 13 9 4.553 4.906 0.326 50.449 o
-8 13 10 1.815 1.869 0.277 81.766 o
-8 13 11 2.084 2.146 0.267 86.296 o
-8 14 1 16.216 16.369 0.475 12.813 o
-8 14 2 4.525 4.362 0.307 56.773 o
-8 14 3 5.331 5.351 0.317 50.107 o
-8 14 4 13.773 14.411 0.356 19.370 o
-8 14 5 0.475 0.346 0.188 184.960 o
-8 14 6 0.332 0.099 0.247 107.323 o
-8 14 7 4.253 4.411 0.317 54.607 o
-8 14 8 3.032 2.473 0.297 67.841 o
-8 14 9 6.703 6.815 0.356 37.302 o
-8 14 10 1.820 1.939 0.267 87.512 o
-8 15 1 1.919 2.690 0.297 70.499 o
-8 15 2 10.288 9.851 0.386 25.220 o
-8 15 3 8.698 8.407 0.376 29.648 o
-8 15 4 1.105 0.910 0.277 84.363 o
-8 15 5 7.549 7.853 0.287 45.050 o
-8 15 6 0.000 -0.317 0.198 167.884 o
-8 15 7 1.719 2.216 0.287 76.275 o
-8 15 8 3.856 3.620 0.317 56.795 o
-8 15 9 0.947 0.475 0.267 91.251 o
-8 16 1 9.315 9.861 0.406 25.038 o
-8 16 2 51.153 52.342 0.910 1.769 o
-8 16 3 17.890 18.842 0.524 10.350 o
-8 16 4 12.309 12.106 0.435 18.658 o
-8 16 5 1.105 1.375 0.297 73.325 o
-8 16 6 0.079 0.040 0.208 152.260 o
-8 16 7 15.807 16.626 0.495 12.505 o
-8 16 8 1.700 2.176 0.297 71.567 o
-8 17 1 58.204 64.626 1.503 1.057 o
-8 17 2 20.527 21.898 0.762 6.209 o
-8 17 3 32.137 33.213 0.702 4.006 o
-8 17 4 3.810 3.976 0.336 50.804 o
-8 17 5 6.271 6.370 0.376 35.624 o
-8 17 6 0.084 -0.326 0.277 85.651 o
-8 17 7 10.964 10.385 0.673 11.360 o
-8 18 1 3.667 3.511 0.326 54.416 o
-8 18 2 1.530 1.484 0.287 77.504 o
-8 18 3 23.708 25.053 0.603 6.585 o
-8 18 4 2.217 1.978 0.307 66.376 o
-8 18 5 0.197 0.099 0.554 21.412 o
-7 0 2 60.837 64.507 0.860 1.335 o
-7 0 4 16.457 14.401 0.326 17.443 o
-7 0 6 489.682 479.146 5.272 0.023 o
-7 0 8 2.463 2.206 0.158 210.687 o
-7 0 10 21.599 20.751 0.366 10.473 o
-7 0 12 17.905 17.190 0.356 14.107 o
-7 0 14 77.543 81.490 1.236 0.793 o
-7 1 1 136.036 128.985 0.979 0.323 o
-7 1 2 127.025 119.905 1.009 0.367 o
-7 1 3 234.318 227.437 1.761 0.107 o
-7 1 4 168.501 168.004 1.266 0.203 o
-7 1 5 11.481 10.563 0.198 37.597 o
-7 1 6 142.309 138.975 1.098 0.287 o
-7 1 7 3.051 3.056 0.129 246.507 o
-7 1 8 51.762 49.216 0.415 2.199 o
-7 1 9 18.873 18.436 0.237 15.028 o
-7 1 10 29.491 28.693 0.317 6.393 o
-7 1 11 30.225 29.642 0.336 6.014 o
-7 1 12 3.882 3.600 0.158 161.715 o
-7 1 13 0.581 0.406 0.168 229.954 o
-7 1 14 0.640 0.712 0.178 204.183 o
-7 1 15 15.152 15.944 0.356 17.072 o
-7 2 1 106.610 102.794 0.781 0.519 o
-7 2 2 15.383 15.073 0.247 20.878 o
-7 2 3 134.334 131.438 1.088 0.321 o
-7 2 4 49.148 47.752 0.455 2.363 o
-7 2 5 165.238 163.375 1.256 0.212 o
-7 2 6 24.606 23.846 0.317 8.829 o
-7 2 7 0.668 1.039 0.109 524.808 o
-7 2 8 0.334 0.415 0.099 661.951 o
-7 2 9 0.026 0.119 0.109 554.824 o
-7 2 10 0.386 0.247 0.119 462.227 o
-7 2 11 1.493 1.484 0.129 346.813 o
-7 2 12 0.267 -0.109 0.138 342.006 o
-7 2 13 6.031 5.776 0.227 72.883 o
-7 2 14 0.622 0.376 0.188 184.368 o
-7 2 15 1.701 1.573 0.198 155.983 o
-7 3 1 96.724 96.959 0.841 0.604 o
-7 3 2 76.108 74.576 0.613 0.998 o
-7 3 3 8.962 9.010 0.188 53.479 o
-7 3 4 81.106 81.628 0.771 0.846 o
-7 3 5 24.829 24.331 0.356 8.345 o
-7 3 6 2.412 2.285 0.129 290.304 o
-7 3 7 2.595 2.384 0.109 350.262 o
-7 3 8 0.088 0.317 0.099 669.538 o
-7 3 9 0.982 1.098 0.109 506.604 o
-7 3 10 40.415 39.810 0.386 3.449 o
-7 3 11 6.333 6.142 0.168 92.595 o
-7 3 12 3.492 3.422 0.198 125.861 o
-7 3 13 7.816 7.111 0.267 49.130 o
-7 3 14 0.927 0.673 0.188 182.048 o
-7 3 15 4.513 5.034 0.237 81.913 o
-7 4 1 0.469 0.653 0.119 456.460 o
-7 4 2 4.214 3.897 0.148 162.864 o
-7 4 3 0.034 0.079 0.109 554.867 o
-7 4 4 0.248 0.534 0.119 462.148 o
-7 4 5 9.574 9.099 0.227 44.382 o
-7 4 6 54.406 56.397 0.574 1.814 o
-7 4 7 37.880 36.062 0.297 4.115 o
-7 4 8 50.015 49.088 0.376 2.326 o
-7 4 9 14.294 13.768 0.208 25.307 o
-7 4 10 40.653 39.939 0.396 3.404 o
-7 4 11 1.636 1.484 0.138 299.944 o
-7 4 12 86.946 89.570 1.078 0.689 o
-7 4 13 4.880 4.748 0.237 80.372 o
-7 4 14 28.396 28.011 0.485 5.959 o
-7 4 15 1.679 1.978 0.198 154.333 o
-7 5 1 16.446 15.073 0.267 18.830 o
-7 5 2 122.473 122.289 1.197 0.371 o
-7 5 3 65.018 62.925 0.673 1.329 o
-7 5 4 28.632 27.922 0.435 6.169 o
-7 5 5 51.416 52.015 0.593 2.025 o
-7 5 6 8.760 7.833 0.168 62.080 o
-7 5 7 7.802 7.467 0.129 81.357 o
-7 5 8 18.736 18.140 0.208 15.782 o
-7 5 9 2.926 2.710 0.119 286.473 o
-7 5 10 41.990 41.670 0.475 3.084 o
-7 5 11 6.374 6.221 0.208 75.901 o
-7 5 12 0.066 -0.148 0.188 186.011 o
-7 5 13 8.657 8.981 0.287 39.650 o
-7 5 14 0.163 0.168 0.188 185.867 o
-7 5 15 0.011 0.079 0.168 232.356 o
-7 6 1 100.892 103.447 0.930 0.543 o
-7 6 2 0.425 0.386 0.119 460.317 o
-7 6 3 156.014 157.490 1.464 0.229 o
-7 6 4 0.869 1.048 0.168 224.917 o
-7 6 5 17.913 18.288 0.277 15.278 o
-7 6 6 0.003 0.099 0.109 554.926 o
-7 6 7 33.104 32.689 0.287 5.205 o
-7 6 8 0.800 0.722 0.099 629.685 o
-7 6 9 29.056 28.357 0.317 6.555 o
-7 6 10 0.091 0.079 0.109 554.607 o
-7 6 11 4.513 4.421 0.188 114.987 o
-7 6 12 0.157 -0.030 0.178 207.187 o
-7 6 13 6.675 6.854 0.267 54.491 o
-7 6 14 0.230 0.000 0.178 207.098 o
-7 6 15 0.355 0.534 0.208 151.620 o
-7 7 1 296.091 301.885 2.670 0.063 o
-7 7 2 73.139 74.794 0.752 1.017 o
-7 7 3 3.540 3.323 0.168 158.959 o
-7 7 4 169.172 172.692 1.523 0.194 o
-7 7 5 13.310 12.858 0.218 27.910 o
-7 7 6 7.715 7.586 0.188 66.206 o
-7 7 7 3.038 3.086 0.119 271.332 o
-7 7 8 0.538 0.514 0.109 541.033 o
-7 7 9 31.641 31.403 0.336 5.499 o
-7 7 10 1.760 1.899 0.129 327.239 o
-7 7 11 11.120 10.870 0.267 32.269 o
-7 7 12 16.736 16.191 0.356 15.482 o
-7 7 13 2.784 2.997 0.218 116.895 o
-7 7 14 2.503 2.720 0.208 130.490 o
-7 8 1 2.311 2.364 0.109 370.620 o
-7 8 2 4.509 4.728 0.168 128.637 o
-7 8 3 17.137 17.220 0.257 17.018 o
-7 8 4 171.614 174.917 1.296 0.193 o
-7 8 5 29.271 28.841 0.346 6.310 o
-7 8 6 175.852 177.756 1.780 0.178 o
-7 8 7 0.090 -0.030 0.129 397.266 o
-7 8 8 13.437 12.878 0.208 28.100 o
-7 8 9 1.149 1.286 0.129 363.309 o
-7 8 10 11.616 11.641 0.218 33.850 o
-7 8 11 26.166 27.397 0.406 7.054 o
-7 8 12 9.802 9.960 0.297 33.953 o
-7 8 13 3.455 3.778 0.227 100.247 o
-7 8 14 68.917 72.687 0.920 1.061 o
-7 9 1 36.133 33.846 0.356 4.423 o
-7 9 2 38.776 39.167 0.356 3.711 o
-7 9 3 277.824 286.940 1.899 0.074 o
-7 9 4 181.563 184.581 1.375 0.173 o
-7 9 5 20.270 19.930 0.366 11.424 o
-7 9 6 6.854 6.676 0.257 56.507 o
-7 9 7 2.479 2.117 0.208 133.584 o
-7 9 8 0.018 0.049 0.119 466.317 o
-7 9 9 2.206 2.255 0.148 239.988 o
-7 9 10 1.324 1.296 0.158 244.032 o
-7 9 11 33.093 33.886 0.475 4.582 o
-7 9 12 22.562 22.927 0.376 9.386 o
-7 9 13 6.050 6.380 0.257 61.208 o
-7 9 14 2.574 2.898 0.208 128.930 o
-7 10 1 22.000 21.443 0.247 11.369 o
-7 10 2 54.121 54.280 0.455 1.936 o
-7 10 3 60.351 58.741 0.574 1.559 o
-7 10 4 0.168 0.208 0.119 465.169 o
-7 10 5 97.829 98.274 0.979 0.577 o
-7 10 6 0.895 0.969 0.188 181.306 o
-7 10 7 1.478 1.494 0.208 144.290 o
-7 10 8 11.009 10.860 0.247 34.294 o
-7 10 9 0.141 0.188 0.129 396.722 o
-7 10 10 0.037 -0.396 0.168 232.361 o
-7 10 11 0.052 -0.030 0.158 262.305 o
-7 10 12 0.541 0.435 0.168 230.103 o
-7 10 13 11.794 12.057 0.317 25.919 o
-7 11 1 2.779 2.423 0.148 221.233 o
-7 11 2 4.463 4.095 0.168 134.824 o
-7 11 3 0.322 0.109 0.119 464.087 o
-7 11 4 2.006 2.047 0.148 248.469 o
-7 11 5 14.951 14.302 0.267 21.395 o
-7 11 6 25.073 24.341 0.435 7.650 o
-7 11 7 0.005 0.109 0.188 186.013 o
-7 11 8 10.992 10.623 0.257 33.793 o
-7 11 9 0.241 -0.030 0.168 232.136 o
-7 11 10 2.101 1.919 0.198 150.500 o
-7 11 11 2.248 2.552 0.208 133.703 o
-7 11 12 3.265 3.294 0.218 111.363 o
-7 11 13 8.046 7.903 0.267 46.666 o
-7 12 1 0.026 -0.010 0.178 207.262 o
-7 12 2 32.231 32.214 0.495 4.788 o
-7 12 3 18.428 18.288 0.297 14.441 o
-7 12 4 15.595 14.836 0.267 20.097 o
-7 12 5 0.853 0.623 0.138 331.309 o
-7 12 6 48.971 48.880 0.682 2.142 o
-7 12 7 13.629 13.115 0.346 20.758 o
-7 12 8 4.629 4.619 0.317 53.233 o
-7 12 9 0.378 0.277 0.168 231.314 o
-7 12 10 9.325 9.099 0.297 36.305 o
-7 12 11 7.137 6.647 0.267 52.929 o
-7 12 12 27.988 28.713 0.495 5.919 o
-7 13 1 128.532 134.415 1.424 0.320 o
-7 13 2 52.001 51.897 0.692 1.926 o
-7 13 3 1.263 1.503 0.158 243.284 o
-7 13 4 1.171 1.078 0.138 319.121 o
-7 13 5 11.623 11.552 0.257 30.955 o
-7 13 6 9.132 9.010 0.257 42.145 o
-7 13 7 0.003 0.178 0.257 99.334 o
-7 13 8 37.534 38.030 0.742 3.138 o
-7 13 9 13.916 13.283 0.336 20.722 o
-7 13 10 5.508 5.598 0.247 69.561 o
-7 13 11 4.789 4.965 0.237 80.249 o
-7 14 1 43.472 44.004 0.653 2.633 o
-7 14 2 2.623 2.324 0.227 111.980 o
-7 14 3 13.351 12.799 0.336 21.801 o
-7 14 4 14.479 14.154 0.317 20.250 o
-7 14 5 24.167 24.361 0.455 7.779 o
-7 14 6 3.488 3.600 0.237 94.057 o
-7 14 7 1.268 1.177 0.277 83.837 o
-7 14 8 0.055 0.069 0.257 99.334 o
-7 14 9 0.001 0.168 0.267 92.113 o
-7 14 10 0.014 0.237 0.168 232.296 o
-7 14 11 6.168 5.737 0.237 68.609 o
-7 15 1 10.828 11.265 0.406 22.254 o
-7 15 2 21.353 21.186 0.534 8.447 o
-7 15 3 10.280 10.366 0.396 24.161 o
-7 15 4 35.030 35.231 0.712 3.561 o
-7 15 5 9.577 9.090 0.297 35.649 o
-7 15 6 0.026 -0.287 0.198 167.883 o
-7 15 7 0.702 0.188 0.277 85.315 o
-7 15 8 1.198 0.860 0.277 84.251 o
-7 15 9 4.246 4.461 0.326 51.821 o
-7 15 10 0.233 0.593 0.257 99.137 o
-7 16 1 3.257 2.987 0.297 66.402 o
-7 16 2 0.303 0.227 0.257 99.214 o
-7 16 3 3.180 3.353 0.317 58.889 o
-7 16 4 62.537 64.082 1.068 1.204 o
-7 16 5 2.750 2.868 0.317 60.478 o
-7 16 6 35.818 36.131 0.593 3.747 o
-7 16 7 20.657 21.849 0.445 9.669 o
-7 16 8 3.167 3.116 0.317 59.211 o
-7 16 9 9.649 9.426 0.396 25.656 o
-7 17 1 43.236 44.429 0.821 2.397 o
-7 17 2 13.471 13.362 0.455 16.302 o
-7 17 3 48.930 51.323 1.276 1.523 o
-7 17 4 29.540 29.366 0.663 4.750 o
-7 17 5 53.899 56.278 0.969 1.569 o
-7 17 6 4.366 4.322 0.356 44.586 o
-7 17 7 0.946 0.633 0.237 115.016 o
-7 17 8 0.055 0.297 0.504 25.816 o
-7 18 1 0.785 0.890 0.277 84.847 o
-7 18 2 6.230 6.271 0.366 37.273 o
-7 18 3 16.398 16.092 0.495 12.327 o
-7 18 4 4.914 5.143 0.356 42.707 o
-7 18 5 16.608 16.834 0.504 11.802 o
-7 18 6 0.140 -0.010 0.297 74.607 o
-7 19 1 3.952 3.452 0.317 56.764 o
-7 19 2 0.014 0.198 0.267 92.110 o
-7 19 3 4.122 4.283 0.336 49.760 o
-6 0 2 2.296 1.968 0.168 196.314 o
-6 0 4 3.265 3.729 0.168 160.351 o
-6 0 6 128.591 125.058 1.583 0.326 o
-6 0 8 248.456 241.185 2.166 0.093 o
-6 0 10 138.972 136.630 1.404 0.289 o
-6 0 12 22.160 22.116 0.406 9.426 o
-6 0 14 8.606 9.010 0.356 31.322 o
-6 1 1 1.334 1.662 0.089 644.953 o
-6 1 2 142.034 143.109 1.088 0.283 o
-6 1 3 78.539 70.115 0.574 1.002 o
-6 1 4 170.882 170.694 1.128 0.199 o
-6 1 5 140.334 135.355 0.999 0.300 o
-6 1 6 38.462 35.864 0.386 3.902 o
-6 1 7 32.481 29.019 0.406 5.341 o
-6 1 8 143.553 140.963 0.959 0.285 o
-6 1 9 1.006 1.118 0.109 504.619 o
-6 1 10 21.320 20.009 0.247 12.287 o
-6 1 11 7.645 7.764 0.178 68.559 o
-6 1 12 0.649 0.584 0.129 387.360 o
-6 1 13 13.633 13.343 0.287 23.360 o
-6 1 14 8.234 8.387 0.247 48.422 o
-6 1 15 5.125 5.410 0.237 76.443 o
-6 2 1 79.210 83.161 0.613 0.886 o
-6 2 2 29.720 31.116 0.267 6.194 o
-6 2 3 250.883 248.455 1.711 0.093 o
-6 2 4 1.397 1.058 0.089 676.243 o
-6 2 5 92.641 91.074 0.752 0.672 o
-6 2 6 0.528 0.613 0.109 539.654 o
-6 2 7 243.390 244.162 1.810 0.097 o
-6 2 8 2.106 2.008 0.109 398.019 o
-6 2 9 13.691 12.799 0.188 28.550 o
-6 2 10 13.199 12.531 0.208 29.071 o
-6 2 11 1.114 0.979 0.129 369.614 o
-6 2 12 3.178 3.086 0.148 200.485 o
-6 2 13 0.002 -0.495 0.168 232.366 o
-6 2 14 3.694 3.521 0.218 106.466 o
-6 2 15 1.377 1.315 0.188 176.059 o
-6 3 1 30.622 30.572 0.297 5.945 o
-6 3 2 69.898 72.291 0.534 1.150 o
-6 3 3 100.989 102.705 0.771 0.557 o
-6 3 4 484.118 499.966 3.373 0.024 o
-6 3 5 28.184 27.378 0.326 6.896 o
-6 3 6 29.246 28.891 0.346 6.310 o
-6 3 7 1.549 1.642 0.129 341.391 o
-6 3 8 2.412 2.423 0.109 361.482 o
-6 3 9 11.580 10.741 0.188 37.762 o
-6 3 10 0.320 0.356 0.109 549.440 o
-6 3 11 2.818 3.007 0.148 211.762 o
-6 3 12 15.549 15.518 0.277 19.386 o
-6 3 13 7.668 7.111 0.257 51.760 o
-6 3 14 0.002 -0.198 0.168 232.366 o
-6 3 15 0.891 0.969 0.188 181.332 o
-6 4 1 126.867 127.294 0.979 0.356 o
-6 4 2 2468.210 2506.980 14.431 0.001 o
-6 4 3 31.792 30.285 0.326 5.617 o
-6 4 4 103.167 104.782 0.851 0.530 o
-6 4 5 12.798 12.334 0.218 29.738 o
-6 4 6 18.981 18.426 0.277 14.272 o
-6 4 7 25.792 25.449 0.346 7.861 o
-6 4 8 57.309 58.148 0.425 1.737 o
-6 4 9 23.504 22.472 0.267 10.050 o
-6 4 10 44.385 43.470 0.415 2.878 o
-6 4 11 1.095 1.068 0.138 321.177 o
-6 4 12 0.000 0.030 0.138 342.619 o
-6 4 13 0.104 -0.059 0.168 232.323 o
-6 4 14 45.917 46.664 0.673 2.375 o
-6 4 15 0.150 0.425 0.168 231.845 o
-6 5 1 182.780 181.267 1.296 0.174 o
-6 5 2 184.560 187.043 1.424 0.167 o
-6 5 3 186.637 186.539 1.602 0.163 o
-6 5 4 418.366 435.756 3.294 0.032 o
-6 5 5 50.777 49.721 0.495 2.186 o
-6 5 6 0.384 0.277 0.109 548.885 o
-6 5 7 2.529 2.225 0.109 360.251 o
-6 5 8 9.756 9.396 0.148 53.481 o
-6 5 9 6.551 6.340 0.148 97.166 o
-6 5 10 3.028 2.928 0.158 188.891 o
-6 5 11 18.912 18.525 0.297 13.944 o
-6 5 12 24.073 24.163 0.435 8.010 o
-6 5 13 0.083 0.208 0.188 185.932 o
-6 5 14 0.701 0.702 0.188 183.251 o
-6 5 15 8.044 8.358 0.267 45.809 o
-6 6 1 477.768 491.529 3.244 0.025 o
-6 6 2 2.532 2.473 0.138 252.400 o
-6 6 3 29.895 29.257 0.425 5.775 o
-6 6 4 1.952 1.672 0.129 323.894 o
-6 6 5 290.603 298.423 2.136 0.067 o
-6 6 6 5.196 5.440 0.168 112.279 o
-6 6 7 22.096 22.452 0.247 11.005 o
-6 6 8 1.440 1.484 0.109 464.821 o
-6 6 9 59.991 60.502 0.514 1.566 o
-6 6 10 0.038 0.049 0.109 554.901 o
-6 6 11 2.231 2.028 0.158 218.083 o
-6 6 12 0.064 -0.089 0.178 207.252 o
-6 6 13 0.106 0.227 0.188 185.899 o
-6 6 14 0.377 0.188 0.178 206.567 o
-6 6 15 0.004 0.188 0.168 232.328 o
-6 7 1 17.845 18.268 0.287 15.154 o
-6 7 2 3.362 3.294 0.148 192.547 o
-6 7 3 124.681 123.733 1.197 0.360 o
-6 7 4 10.774 11.177 0.247 34.515 o
-6 7 5 62.919 61.481 0.673 1.402 o
-6 7 6 122.152 128.807 0.979 0.370 o
-6 7 7 1.426 1.414 0.109 468.130 o
-6 7 8 12.317 12.225 0.198 32.357 o
-6 7 9 1.477 1.523 0.119 398.043 o
-6 7 10 1.315 1.226 0.129 358.452 o
-6 7 11 0.088 0.267 0.129 396.792 o
-6 7 12 0.012 -0.376 0.178 207.264 o
-6 7 13 24.553 24.529 0.445 7.708 o
-6 7 14 6.981 7.270 0.267 52.261 o
-6 7 15 1.003 0.791 0.208 149.014 o
-6 8 1 0.005 -0.030 0.109 554.989 o
-6 8 2 0.004 -0.030 0.109 554.989 o
-6 8 3 26.128 25.350 0.415 7.306 o
-6 8 4 0.217 0.336 0.138 341.348 o
-6 8 5 52.298 51.758 0.534 2.031 o
-6 8 6 71.432 72.163 0.673 1.089 o
-6 8 7 27.592 27.744 0.326 7.017 o
-6 8 8 259.854 270.066 1.840 0.084 o
-6 8 9 1.399 1.662 0.129 347.006 o
-6 8 10 33.283 32.293 0.356 5.031 o
-6 8 11 2.156 2.324 0.188 161.691 o
-6 8 12 0.055 -0.069 0.188 186.014 o
-6 8 13 6.126 6.281 0.247 64.041 o
-6 8 14 0.089 -0.069 0.168 232.334 o
-6 9 1 1.197 1.137 0.099 582.061 o
-6 9 2 3.980 4.075 0.168 143.611 o
-6 9 3 20.397 17.971 0.277 13.317 o
-6 9 4 0.023 0.030 0.109 554.958 o
-6 9 5 128.520 129.697 1.078 0.342 o
-6 9 6 157.407 160.734 1.335 0.226 o
-6 9 7 70.000 70.729 0.682 1.128 o
-6 9 8 11.724 11.701 0.237 31.983 o
-6 9 9 1.072 1.157 0.129 368.075 o
-6 9 10 0.002 0.188 0.119 466.200 o
-6 9 11 3.242 3.630 0.198 127.636 o
-6 9 12 1.490 1.078 0.168 217.114 o
-6 9 13 6.769 6.983 0.257 56.182 o
-6 9 14 4.874 4.896 0.227 84.636 o
-6 10 1 5.119 4.896 0.129 148.750 o
-6 10 2 3.028 2.433 0.119 288.350 o
-6 10 3 48.172 48.089 0.495 2.379 o
-6 10 4 8.979 9.030 0.198 51.725 o
-6 10 5 34.353 33.737 0.396 4.618 o
-6 10 6 12.043 11.543 0.267 29.267 o
-6 10 7 136.084 138.292 1.207 0.302 o
-6 10 8 1.973 2.324 0.158 220.548 o
-6 10 9 14.710 13.995 0.267 21.991 o
-6 10 10 0.001 -0.049 0.148 298.461 o
-6 10 11 1.404 1.553 0.178 193.280 o
-6 10 12 4.979 5.351 0.218 86.873 o
-6 10 13 0.061 0.030 0.148 298.423 o
-6 11 1 14.369 14.035 0.267 22.495 o
-6 11 2 123.313 124.643 1.058 0.370 o
-6 11 3 5.244 4.876 0.168 115.752 o
-6 11 4 10.472 9.772 0.208 41.851 o
-6 11 5 3.869 3.689 0.168 149.218 o
-6 11 6 10.067 9.386 0.227 41.874 o
-6 11 7 11.535 11.374 0.247 32.160 o
-6 11 8 24.116 24.044 0.356 8.678 o
-6 11 9 4.647 4.708 0.208 98.350 o
-6 11 10 2.908 2.809 0.227 108.186 o
-6 11 11 0.690 0.811 0.188 183.017 o
-6 11 12 0.034 0.089 0.148 298.421 o
-6 11 13 1.011 0.870 0.168 224.362 o
-6 12 1 73.691 75.140 0.870 0.976 o
-6 12 2 518.506 546.542 5.024 0.020 o
-6 12 3 5.606 5.608 0.188 94.596 o
-6 12 4 51.538 51.788 0.544 2.060 o
-6 12 5 16.369 16.043 0.277 18.059 o
-6 12 6 0.582 0.603 0.148 293.437 o
-6 12 7 0.970 1.157 0.138 323.118 o
-6 12 8 4.383 4.431 0.188 116.629 o
-6 12 9 11.726 11.602 0.317 26.446 o
-6 12 10 35.596 36.309 0.574 3.812 o
-6 12 11 0.704 0.732 0.188 183.156 o
-6 12 12 4.535 4.629 0.247 78.410 o
-6 13 1 24.015 24.855 0.435 7.912 o
-6 13 2 132.944 136.759 1.434 0.304 o
-6 13 3 198.384 203.897 2.028 0.138 o
-6 13 4 61.831 63.093 0.643 1.422 o
-6 13 5 45.253 45.537 0.514 2.631 o
-6 13 6 29.934 29.366 0.396 5.880 o
-6 13 7 4.888 5.183 0.198 99.344 o
-6 13 8 11.784 12.235 0.317 25.781 o
-6 13 9 0.129 -0.089 0.178 207.212 o
-6 13 10 12.479 13.491 0.336 22.541 o
-6 13 11 4.466 4.283 0.227 90.216 o
-6 13 12 7.756 8.021 0.287 44.066 o
-6 14 1 144.007 151.012 1.583 0.255 o
-6 14 2 0.525 0.198 0.188 185.036 o
-6 14 3 96.944 97.562 1.108 0.572 o
-6 14 4 0.441 0.475 0.158 260.015 o
-6 14 5 10.701 10.346 0.247 35.949 o
-6 14 6 4.552 4.945 0.247 77.326 o
-6 14 7 29.298 29.059 0.514 5.514 o
-6 14 8 3.546 3.353 0.227 101.206 o
-6 14 9 5.912 6.063 0.267 59.769 o
-6 14 10 2.484 2.760 0.218 120.428 o
-6 14 11 0.611 0.534 0.178 204.858 o
-6 15 1 1.012 0.732 0.208 149.111 o
-6 15 2 0.096 -0.109 0.188 185.998 o
-6 15 3 12.491 11.958 0.356 22.543 o
-6 15 4 0.796 0.574 0.257 98.497 o
-6 15 5 5.299 5.054 0.257 68.653 o
-6 15 6 36.559 36.962 0.593 3.621 o
-6 15 7 0.882 0.603 0.227 125.307 o
-6 15 8 0.032 -0.277 0.178 207.261 o
-6 15 9 2.909 3.036 0.227 107.326 o
-6 15 10 0.051 0.208 0.188 185.961 o
-6 16 1 28.340 30.948 0.653 4.857 o
-6 16 2 1.952 2.196 0.277 80.920 o
-6 16 3 3.783 3.699 0.317 56.885 o
-6 16 4 0.432 0.208 0.267 91.939 o
-6 16 5 0.320 0.336 0.277 85.527 o
-6 16 6 35.051 34.598 0.574 3.978 o
-6 16 7 0.009 0.059 0.227 126.943 o
-6 16 8 63.620 64.300 1.058 1.185 o
-6 16 9 23.189 23.332 0.564 7.266 o
-6 17 1 4.012 3.937 0.317 55.941 o
-6 17 2 2.185 2.394 0.307 66.004 o
-6 17 3 8.174 8.219 0.386 29.643 o
-6 17 4 4.197 3.937 0.336 49.984 o
-6 17 5 49.358 51.234 0.920 1.846 o
-6 17 6 25.124 25.291 0.613 6.172 o
-6 17 7 31.752 31.987 0.544 4.706 o
-6 17 8 4.967 4.738 0.267 67.528 o
-6 18 1 5.131 5.163 0.336 46.331 o
-6 18 2 0.193 0.732 0.277 85.487 o
-6 18 3 0.939 1.385 0.287 78.623 o
-6 18 4 2.572 2.047 0.317 61.734 o
-6 18 5 23.137 23.441 0.574 7.176 o
-6 18 6 6.196 5.994 0.376 36.087 o
-6 18 7 14.171 13.887 0.455 15.562 o
-6 19 1 7.901 8.476 0.386 29.874 o
-6 19 2 4.299 3.452 0.317 55.818 o
-6 19 3 0.356 0.910 0.267 91.710 o
-6 19 4 3.446 3.709 0.326 54.704 o
-6 19 5 0.193 0.524 0.287 79.753 o
-5 0 2 507.902 500.372 4.302 0.022 o
-5 0 4 66.491 67.949 0.771 1.202 o
-5 0 6 59.350 55.428 0.821 1.517 o
-5 0 8 140.898 138.757 1.780 0.268 o
-5 0 10 126.118 124.158 1.276 0.351 o
-5 0 12 172.352 172.761 1.761 0.186 o
-5 0 14 0.522 0.593 0.218 137.806 o
-5 0 16 0.376 0.386 0.247 107.172 o
-5 1 1 480.298 504.180 3.393 0.024 o
-5 1 2 36.109 31.700 0.287 4.743 o
-5 1 3 168.646 177.667 1.157 0.197 o
-5 1 4 146.550 151.180 1.039 0.264 o
-5 1 5 18.893 16.300 0.218 16.413 o
-5 1 6 4.114 3.313 0.129 201.484 o
-5 1 7 41.334 37.634 0.465 3.348 o
-5 1 8 50.152 47.109 0.554 2.243 o
-5 1 9 31.088 29.138 0.297 6.005 o
-5 1 10 27.434 25.933 0.287 7.551 o
-5 1 11 2.609 2.512 0.138 249.012 o
-5 1 12 0.000 -0.020 0.129 397.359 o
-5 1 13 0.238 0.267 0.158 261.623 o
-5 1 14 9.218 8.951 0.277 39.293 o
-5 1 15 4.522 4.738 0.218 93.496 o
-5 1 16 6.704 6.736 0.396 31.971 o
-5 2 1 354.929 355.463 2.532 0.046 o
-5 2 2 8.208 7.913 0.158 68.114 o
-5 2 3 54.036 59.977 0.495 1.799 o
-5 2 4 50.433 49.345 0.435 2.256 o
-5 2 5 125.658 128.421 0.979 0.358 o
-5 2 6 48.113 47.673 0.465 2.420 o
-5 2 7 85.261 84.348 0.742 0.783 o
-5 2 8 25.143 24.212 0.376 8.102 o
-5 2 9 120.113 117.650 0.851 0.406 o
-5 2 10 6.736 6.360 0.158 90.626 o
-5 2 11 53.671 52.629 0.475 1.983 o
-5 2 12 10.259 10.277 0.227 39.537 o
-5 2 13 0.806 0.959 0.168 225.993 o
-5 2 14 0.729 0.415 0.168 228.934 o
-5 2 15 1.469 1.652 0.188 173.537 o
-5 2 16 0.498 0.950 0.267 91.531 o
-5 3 1 0.131 0.692 0.089 817.713 o
-5 3 2 1.920 2.245 0.099 461.014 o
-5 3 3 242.285 252.124 1.612 0.097 o
-5 3 4 72.713 76.040 0.633 1.040 o
-5 3 5 40.056 40.918 0.415 3.387 o
-5 3 6 491.499 515.208 3.501 0.023 o
-5 3 7 139.861 142.327 1.128 0.289 o
-5 3 8 29.407 28.011 0.267 6.698 o
-5 3 9 1.209 0.900 0.109 498.978 o
-5 3 10 8.393 8.387 0.168 62.727 o
-5 3 11 22.539 21.492 0.317 10.348 o
-5 3 12 1.133 1.414 0.148 277.840 o
-5 3 13 0.217 0.237 0.168 231.920 o
-5 3 14 1.590 1.523 0.188 172.951 o
-5 3 15 1.926 2.067 0.188 166.140 o
-5 4 1 87.175 87.849 0.643 0.754 o
-5 4 2 2163.870 2206.370 13.372 0.001 o
-5 4 3 134.348 136.571 0.920 0.318 o
-5 4 4 2297.950 2384.120 14.787 0.001 o
-5 4 5 1.222 1.296 0.119 416.487 o
-5 4 6 451.167 476.139 3.264 0.027 o
-5 4 7 0.228 0.455 0.129 394.972 o
-5 4 8 33.143 32.600 0.317 5.133 o
-5 4 9 1.168 1.137 0.119 422.655 o
-5 4 10 16.841 16.567 0.267 17.475 o
-5 4 11 0.038 0.049 0.138 342.587 o
-5 4 12 30.373 29.326 0.386 5.826 o
-5 4 13 4.139 3.818 0.218 101.068 o
-5 4 14 5.554 5.311 0.237 73.921 o
-5 4 15 2.139 2.403 0.188 161.404 o
-5 5 1 3.221 3.046 0.119 263.313 o
-5 5 2 44.545 38.257 0.396 3.109 o
-5 5 3 8.326 7.022 0.148 73.292 o
-5 5 4 118.624 122.437 0.860 0.402 o
-5 5 5 540.249 560.270 3.788 0.019 o
-5 5 6 491.303 510.332 3.650 0.023 o
-5 5 7 42.978 41.403 0.465 3.023 o
-5 5 8 46.307 46.041 0.406 2.645 o
-5 5 9 51.367 49.681 0.435 2.196 o
-5 5 10 5.250 4.866 0.168 115.750 o
-5 5 11 4.860 5.024 0.188 106.744 o
-5 5 12 0.768 0.880 0.148 289.208 o
-5 5 13 10.888 11.216 0.307 29.155 o
-5 5 14 8.119 8.734 0.277 43.241 o
-5 5 15 0.281 0.218 0.168 231.765 o
-5 6 1 24.384 19.445 0.247 10.553 o
-5 6 2 1.330 1.009 0.109 488.051 o
-5 6 3 467.886 471.510 3.452 0.026 o
-5 6 4 0.345 0.237 0.089 818.359 o
-5 6 5 54.562 54.419 0.534 1.871 o
-5 6 6 0.746 0.880 0.129 381.692 o
-5 6 7 106.798 106.731 0.801 0.505 o
-5 6 8 7.907 7.220 0.158 73.771 o
-5 6 9 69.011 69.245 0.574 1.192 o
-5 6 10 3.635 3.412 0.148 183.629 o
-5 6 11 19.731 19.287 0.307 12.871 o
-5 6 12 0.208 0.336 0.188 185.662 o
-5 6 13 7.853 8.318 0.277 44.896 o
-5 6 14 0.017 0.030 0.168 232.362 o
-5 6 15 0.997 1.147 0.178 199.765 o
-5 7 1 225.324 225.607 1.780 0.113 o
-5 7 2 64.602 60.996 0.613 1.386 o
-5 7 3 7.321 7.161 0.178 73.774 o
-5 7 4 24.834 23.965 0.297 8.852 o
-5 7 5 0.263 0.445 0.099 663.825 o
-5 7 6 0.280 0.356 0.129 394.936 o
-5 7 7 119.489 121.033 0.880 0.400 o
-5 7 8 35.069 36.091 0.356 4.414 o
-5 7 9 8.528 8.387 0.178 59.834 o
-5 7 10 14.602 14.994 0.227 22.856 o
-5 7 11 1.040 1.217 0.129 368.155 o
-5 7 12 3.374 3.076 0.218 111.362 o
-5 7 13 1.015 1.147 0.188 179.823 o
-5 7 14 0.427 0.475 0.168 230.626 o
-5 7 15 7.771 8.219 0.336 36.255 o
-5 8 1 18.725 17.586 0.277 14.859 o
-5 8 2 24.717 25.132 0.346 8.309 o
-5 8 3 0.379 0.712 0.109 543.043 o
-5 8 4 16.896 16.369 0.297 16.776 o
-5 8 5 23.704 22.719 0.356 9.123 o
-5 8 6 0.575 0.633 0.099 646.216 o
-5 8 7 11.344 11.117 0.188 37.934 o
-5 8 8 12.525 11.997 0.198 32.089 o
-5 8 9 0.206 0.129 0.109 553.343 o
-5 8 10 195.435 200.534 1.434 0.148 o
-5 8 11 13.534 13.234 0.237 26.039 o
-5 8 12 52.531 53.103 0.633 1.922 o
-5 8 13 0.013 0.188 0.178 207.229 o
-5 8 14 1.639 1.701 0.188 171.496 o
-5 9 1 71.837 71.569 0.712 1.078 o
-5 9 2 22.619 22.472 0.346 9.762 o
-5 9 3 53.250 53.608 0.702 1.832 o
-5 9 4 0.357 0.336 0.109 548.813 o
-5 9 5 15.389 14.757 0.237 21.434 o
-5 9 6 0.983 1.078 0.109 507.104 o
-5 9 7 18.863 18.416 0.277 14.376 o
-5 9 8 40.493 40.285 0.396 3.402 o
-5 9 9 76.674 77.642 0.643 0.959 o
-5 9 10 27.815 28.218 0.346 6.786 o
-5 9 11 1.508 1.662 0.178 191.335 o
-5 9 12 1.692 1.810 0.178 187.961 o
-5 9 13 0.084 0.099 0.168 232.295 o
-5 9 14 0.239 -0.129 0.148 298.089 o
-5 10 1 38.111 36.210 0.495 3.712 o
-5 10 2 6.134 5.371 0.158 104.984 o
-5 10 3 1.405 1.375 0.119 405.542 o
-5 10 4 2.610 2.987 0.129 266.409 o
-5 10 5 22.959 22.867 0.267 10.231 o
-5 10 6 6.281 5.885 0.148 104.172 o
-5 10 7 25.951 25.063 0.336 7.937 o
-5 10 8 23.242 23.372 0.336 9.360 o
-5 10 9 74.953 75.872 0.643 1.001 o
-5 10 10 3.170 3.294 0.158 181.268 o
-5 10 11 38.462 38.564 0.504 3.525 o
-5 10 12 0.339 0.317 0.158 261.077 o
-5 10 13 1.178 1.256 0.168 220.106 o
-5 10 14 2.053 2.295 0.188 163.180 o
-5 11 1 5.667 5.222 0.198 90.992 o
-5 11 2 30.040 30.167 0.396 5.767 o
-5 11 3 39.544 38.940 0.425 3.529 o
-5 11 4 117.309 117.442 0.999 0.412 o
-5 11 5 5.894 5.648 0.148 111.939 o
-5 11 6 72.541 71.272 0.593 1.095 o
-5 11 7 12.016 11.730 0.247 30.492 o
-5 11 8 14.296 13.441 0.267 23.094 o
-5 11 9 8.403 8.229 0.227 51.579 o
-5 11 10 0.309 0.237 0.168 231.642 o
-5 11 11 10.684 10.731 0.267 33.582 o
-5 11 12 0.772 0.950 0.168 226.359 o
-5 11 13 0.000 0.089 0.158 262.309 o
-5 12 1 2.389 2.601 0.188 156.844 o
-5 12 2 444.738 463.796 4.283 0.027 o
-5 12 3 60.529 60.937 0.593 1.511 o
-5 12 4 863.634 900.718 6.617 0.007 o
-5 12 5 19.391 19.089 0.257 13.972 o
-5 12 6 56.063 56.901 0.514 1.770 o
-5 12 7 8.014 8.002 0.188 62.578 o
-5 12 8 3.772 3.937 0.188 128.270 o
-5 12 9 5.284 5.707 0.257 66.975 o
-5 12 10 0.923 1.236 0.198 163.105 o
-5 12 11 4.372 4.490 0.247 79.848 o
-5 12 12 27.886 29.099 0.425 6.257 o
-5 12 13 2.327 2.047 0.168 194.998 o
-5 13 1 68.691 69.017 0.821 1.130 o
-5 13 2 79.826 83.082 0.950 0.820 o
-5 13 3 9.194 8.585 0.277 39.942 o
-5 13 4 80.717 79.897 0.752 0.865 o
-5 13 5 187.382 192.394 1.444 0.161 o
-5 13 6 117.224 118.778 0.910 0.414 o
-5 13 7 124.883 127.640 1.098 0.357 o
-5 13 8 35.904 36.269 0.574 3.779 o
-5 13 9 0.441 0.425 0.188 184.943 o
-5 13 10 0.000 0.406 0.188 185.917 o
-5 13 11 0.046 -0.069 0.178 207.258 o
-5 13 12 0.036 0.119 0.178 207.236 o
-5 14 1 101.275 103.813 1.157 0.519 o
-5 14 2 7.478 7.369 0.267 49.979 o
-5 14 3 135.508 137.916 1.454 0.295 o
-5 14 4 4.909 4.797 0.188 107.547 o
-5 14 5 97.806 98.937 0.920 0.581 o
-5 14 6 8.989 8.991 0.208 50.192 o
-5 14 7 16.330 16.290 0.317 16.877 o
-5 14 8 0.290 0.218 0.168 231.737 o
-5 14 9 12.050 11.463 0.326 25.352 o
-5 14 10 11.639 11.592 0.317 26.611 o
-5 14 11 11.747 12.057 0.317 26.002 o
-5 15 1 21.502 21.146 0.415 9.819 o
-5 15 2 44.497 46.081 0.653 2.500 o
-5 15 3 17.657 17.111 0.376 13.894 o
-5 15 4 3.271 2.918 0.227 105.035 o
-5 15 5 11.690 11.394 0.317 26.698 o
-5 15 6 0.334 0.297 0.158 261.149 o
-5 15 7 0.679 0.979 0.168 227.072 o
-5 15 8 8.800 8.832 0.267 42.217 o
-5 15 9 0.198 0.317 0.188 185.699 o
-5 15 10 0.945 0.989 0.198 163.702 o
-5 15 11 5.048 5.430 0.247 72.811 o
-5 16 1 14.285 14.252 0.435 15.998 o
-5 16 2 13.419 14.005 0.435 16.817 o
-5 16 3 25.163 26.557 0.593 6.167 o
-5 16 4 15.472 15.746 0.475 13.451 o
-5 16 5 0.136 -0.069 0.267 92.106 o
-5 16 6 0.316 0.148 0.227 126.764 o
-5 16 7 1.730 1.889 0.198 154.271 o
-5 16 8 10.234 9.515 0.267 36.543 o
-5 16 9 0.300 0.326 0.188 185.478 o
-5 16 10 56.500 56.822 1.355 1.236 o
-5 17 1 28.790 30.305 0.643 4.884 o
-5 17 2 2.436 2.127 0.297 69.922 o
-5 17 3 0.834 1.019 0.277 84.693 o
-5 17 4 0.861 1.009 0.277 84.662 o
-5 17 5 2.901 2.285 0.307 64.469 o
-5 17 6 1.479 0.791 0.297 73.204 o
-5 17 7 34.586 35.201 0.495 4.214 o
-5 17 8 10.899 10.870 0.277 31.976 o
-5 17 9 13.510 13.214 0.396 18.672 o
-5 18 1 5.604 6.192 0.356 40.227 o
-5 18 2 0.082 0.277 0.267 92.087 o
-5 18 3 3.023 2.977 0.307 63.268 o
-5 18 4 1.085 1.395 0.297 73.338 o
-5 18 5 0.636 0.277 0.277 85.334 o
-5 18 6 0.056 -0.148 0.277 85.654 o
-5 18 7 6.459 6.251 0.366 36.854 o
-5 19 1 6.388 6.498 0.356 38.284 o
-5 19 2 1.815 1.810 0.297 71.707 o
-5 19 3 2.002 2.107 0.297 70.984 o
-5 19 4 9.963 10.158 0.415 23.316 o
-5 19 5 2.818 2.700 0.317 60.514 o
-5 19 6 10.484 10.197 0.415 22.674 o
-5 20 1 0.294 0.554 0.257 99.104 o
-5 20 2 105.110 110.420 2.245 0.377 o
-5 20 3 17.763 16.992 0.653 8.657 o
-4 0 2 210.955 210.573 2.492 0.121 o
-4 0 4 1551.450 1592.490 14.915 0.002 o
-4 0 6 1.769 1.523 0.188 171.058 o
-4 0 8 43.087 41.413 0.712 2.659 o
-4 0 10 16.138 15.459 0.297 18.100 o
-4 0 12 88.739 88.275 0.999 0.690 o
-4 0 14 75.122 75.120 1.602 0.756 o
-4 1 1 826.371 882.371 6.854 0.008 o
-4 1 2 1065.670 1156.090 8.931 0.005 o
-4 1 3 532.289 581.574 4.500 0.019 o
-4 1 4 102.219 111.142 0.801 0.519 o
-4 1 5 306.865 316.899 2.087 0.060 o
-4 1 6 0.016 -0.030 0.099 671.529 o
-4 1 7 2.713 2.423 0.148 223.108 o
-4 1 8 51.292 51.471 0.584 2.051 o
-4 1 9 11.210 10.454 0.168 41.408 o
-4 1 10 44.391 43.569 0.396 2.894 o
-4 1 11 11.978 11.345 0.198 34.672 o
-4 1 12 0.878 0.821 0.129 378.990 o
-4 1 13 0.432 0.396 0.148 295.890 o
-4 1 14 1.449 1.464 0.178 193.263 o
-4 1 15 1.247 1.335 0.188 177.145 o
-4 1 16 9.215 9.287 0.435 23.289 o
-4 2 1 29.619 33.836 0.415 5.395 o
-4 2 2 213.180 218.140 1.879 0.122 o
-4 2 3 46.908 44.063 0.445 2.637 o
-4 2 4 101.994 105.336 0.742 0.543 o
-4 2 5 78.059 80.481 0.663 0.913 o
-4 2 6 50.757 49.464 0.485 2.201 o
-4 2 7 8.414 8.180 0.188 59.307 o
-4 2 8 7.742 7.537 0.227 56.788 o
-4 2 9 55.598 55.230 0.445 1.856 o
-4 2 10 7.717 7.596 0.168 71.209 o
-4 2 11 32.432 31.819 0.386 5.146 o
-4 2 12 0.326 0.504 0.138 339.762 o
-4 2 13 47.756 46.348 0.643 2.312 o
-4 2 14 0.273 0.475 0.158 261.012 o
-4 2 15 1.629 1.474 0.168 212.103 o
-4 2 16 0.636 0.613 0.257 98.700 o
-4 3 1 2.589 3.363 0.158 194.108 o
-4 3 2 35.523 35.082 0.356 4.422 o
-4 3 3 80.612 72.687 0.574 0.948 o
-4 3 4 73.533 76.109 0.593 1.033 o
-4 3 5 207.003 215.005 1.543 0.131 o
-4 3 6 145.256 151.397 1.197 0.263 o
-4 3 7 49.217 49.424 0.495 2.279 o
-4 3 8 259.113 263.370 1.919 0.085 o
-4 3 9 104.723 106.108 0.841 0.516 o
-4 3 10 149.477 153.306 1.266 0.250 o
-4 3 11 20.053 19.554 0.297 12.695 o
-4 3 12 3.168 3.501 0.168 164.456 o
-4 3 13 9.575 8.951 0.267 39.435 o
-4 3 14 1.688 2.018 0.188 169.201 o
-4 3 15 3.031 2.631 0.188 147.849 o
-4 4 1 3.818 3.956 0.109 234.194 o
-4 4 2 266.817 277.563 1.879 0.079 o
-4 4 3 12.366 12.502 0.168 33.597 o
-4 4 4 1094.360 1163.060 6.983 0.005 o
-4 4 5 0.579 0.663 0.109 536.869 o
-4 4 6 1533.930 1620.160 10.553 0.002 o
-4 4 7 39.425 39.296 0.425 3.523 o
-4 4 8 484.516 500.500 3.739 0.024 o
-4 4 9 17.212 16.428 0.237 17.836 o
-4 4 10 6.587 6.053 0.188 82.202 o
-4 4 11 1.695 1.800 0.148 260.067 o
-4 4 12 0.559 0.742 0.138 335.325 o
-4 4 13 2.778 2.512 0.198 139.820 o
-4 4 14 16.852 16.349 0.356 15.312 o
-4 4 15 4.043 4.253 0.208 106.801 o
-4 5 1 163.707 157.658 1.197 0.220 o
-4 5 2 40.282 39.573 0.366 3.503 o
-4 5 3 17.324 16.824 0.198 18.311 o
-4 5 4 122.656 122.774 0.851 0.385 o
-4 5 5 11.888 12.502 0.188 33.847 o
-4 5 6 67.121 69.472 0.653 1.209 o
-4 5 7 373.470 386.262 3.076 0.040 o
-4 5 8 334.383 347.837 2.384 0.050 o
-4 5 9 111.981 110.331 0.821 0.464 o
-4 5 10 126.311 126.651 1.019 0.357 o
-4 5 11 39.960 38.524 0.445 3.475 o
-4 5 12 0.121 0.336 0.148 297.915 o
-4 5 13 2.582 2.463 0.198 142.351 o
-4 5 14 0.220 0.208 0.168 231.951 o
-4 5 15 0.959 0.811 0.227 124.779 o
-4 6 1 11.995 9.376 0.168 40.405 o
-4 6 2 11.942 9.357 0.158 41.488 o
-4 6 3 58.591 52.510 0.435 1.793 o
-4 6 4 0.002 0.109 0.089 828.900 o
-4 6 5 83.930 82.469 0.633 0.825 o
-4 6 6 0.214 0.227 0.129 396.119 o
-4 6 7 136.786 139.954 1.286 0.295 o
-4 6 8 0.240 0.208 0.099 667.643 o
-4 6 9 4.883 4.757 0.148 138.426 o
-4 6 10 7.427 7.240 0.168 75.366 o
-4 6 11 69.757 70.432 0.692 1.133 o
-4 6 12 4.264 3.887 0.188 121.856 o
-4 6 13 4.863 4.767 0.227 85.218 o
-4 6 14 0.545 0.742 0.168 229.086 o
-4 6 15 10.363 11.097 0.366 25.651 o
-4 7 1 7.148 7.833 0.188 69.597 o
-4 7 2 146.625 141.586 1.058 0.275 o
-4 7 3 436.236 440.810 3.195 0.030 o
-4 7 4 46.636 44.113 0.435 2.663 o
-4 7 5 19.121 18.446 0.277 14.146 o
-4 7 6 39.151 38.099 0.435 3.602 o
-4 7 7 24.861 25.330 0.287 8.623 o
-4 7 8 3.036 2.779 0.129 252.827 o
-4 7 9 38.074 37.644 0.386 3.840 o
-4 7 10 2.178 2.413 0.138 265.934 o
-4 7 11 0.011 -0.089 0.119 466.344 o
-4 7 12 7.608 8.071 0.267 48.043 o
-4 7 13 1.996 2.206 0.198 150.104 o
-4 7 14 2.645 3.007 0.208 127.697 o
-4 7 15 0.006 -0.069 0.198 167.884 o
-4 8 1 38.691 39.187 0.406 3.642 o
-4 8 2 216.361 226.725 1.622 0.119 o
-4 8 3 12.662 12.759 0.247 27.824 o
-4 8 4 68.853 68.493 0.712 1.165 o
-4 8 5 10.792 10.138 0.208 39.926 o
-4 8 6 49.287 49.097 0.455 2.315 o
-4 8 7 0.018 0.277 0.089 827.820 o
-4 8 8 2.084 1.988 0.129 311.278 o
-4 8 9 2.162 2.275 0.129 301.525 o
-4 8 10 1.951 1.889 0.138 282.932 o
-4 8 11 6.803 6.973 0.188 76.031 o
-4 8 12 70.154 70.758 0.771 1.100 o
-4 8 13 12.853 12.720 0.317 23.605 o
-4 8 14 52.400 55.784 0.930 1.652 o
-4 9 1 342.012 345.137 2.483 0.049 o
-4 9 2 117.029 112.734 1.039 0.421 o
-4 9 3 53.286 51.056 0.574 1.975 o
-4 9 4 4.132 3.719 0.168 144.078 o
-4 9 5 117.463 118.402 0.940 0.412 o
-4 9 6 7.704 7.735 0.168 70.728 o
-4 9 7 0.249 0.336 0.099 665.836 o
-4 9 8 0.694 0.860 0.109 527.775 o
-4 9 9 2.747 2.730 0.138 240.355 o
-4 9 10 0.981 0.781 0.129 376.673 o
-4 9 11 25.676 24.925 0.386 7.722 o
-4 9 12 23.261 23.748 0.376 8.914 o
-4 9 13 0.299 0.317 0.168 231.538 o
-4 9 14 1.347 1.048 0.208 146.539 o
-4 10 1 0.884 1.464 0.158 249.751 o
-4 10 2 25.306 25.449 0.386 7.758 o
-4 10 3 1.094 1.137 0.129 367.699 o
-4 10 4 17.148 15.993 0.227 18.410 o
-4 10 5 3.531 3.788 0.119 232.221 o
-4 10 6 2.772 3.046 0.129 258.278 o
-4 10 7 0.031 0.030 0.099 671.467 o
-4 10 8 10.122 10.197 0.198 43.528 o
-4 10 9 17.690 17.586 0.257 16.237 o
-4 10 10 2.238 2.206 0.148 239.789 o
-4 10 11 21.567 21.384 0.356 10.445 o
-4 10 12 0.005 -0.109 0.148 298.461 o
-4 10 13 34.430 35.171 0.554 4.074 o
-4 10 14 0.417 0.475 0.198 167.004 o
-4 11 1 7.942 7.863 0.208 59.089 o
-4 11 2 0.061 0.208 0.119 465.912 o
-4 11 3 0.118 0.267 0.089 825.871 o
-4 11 4 2.416 2.552 0.109 356.748 o
-4 11 5 40.994 39.266 0.376 3.430 o
-4 11 6 24.193 22.788 0.277 9.551 o
-4 11 7 8.806 8.269 0.188 56.572 o
-4 11 8 168.177 171.288 1.444 0.198 o
-4 11 9 11.326 11.315 0.227 34.404 o
-4 11 10 12.796 12.858 0.287 25.206 o
-4 11 11 9.406 8.991 0.247 42.547 o
-4 11 12 5.709 5.559 0.218 79.997 o
-4 11 13 8.558 8.931 0.336 33.700 o
-4 12 1 49.489 49.770 0.623 2.149 o
-4 12 2 3.819 3.838 0.198 119.409 o
-4 12 3 22.975 22.749 0.287 10.081 o
-4 12 4 130.901 129.895 0.950 0.338 o
-4 12 5 25.427 24.608 0.287 8.540 o
-4 12 6 743.817 775.531 4.995 0.010 o
-4 12 7 27.343 26.903 0.317 7.273 o
-4 12 8 102.142 104.308 0.880 0.536 o
-4 12 9 2.079 2.216 0.208 136.741 o
-4 12 10 1.264 1.207 0.208 146.558 o
-4 12 11 6.787 6.716 0.227 64.778 o
-4 12 12 0.550 0.386 0.158 259.559 o
-4 12 13 0.329 0.435 0.198 167.267 o
-4 13 1 0.048 0.119 0.148 298.386 o
-4 13 2 11.283 10.534 0.277 31.452 o
-4 13 3 77.970 78.156 0.821 0.902 o
-4 13 4 37.822 37.733 0.376 3.882 o
-4 13 5 0.110 -0.218 0.109 554.713 o
-4 13 6 5.128 4.767 0.168 118.359 o
-4 13 7 126.002 128.510 0.979 0.357 o
-4 13 8 164.600 160.734 1.424 0.212 o
-4 13 9 144.416 151.190 1.691 0.251 o
-4 13 10 27.958 28.149 0.495 5.988 o
-4 13 11 13.746 13.995 0.336 20.482 o
-4 13 12 6.338 5.925 0.307 48.393 o
-4 14 1 1.457 1.543 0.178 192.700 o
-4 14 2 3.527 3.640 0.218 107.444 o
-4 14 3 26.733 26.260 0.445 6.808 o
-4 14 4 15.732 15.637 0.247 19.981 o
-4 14 5 118.843 123.100 1.088 0.389 o
-4 14 6 7.128 6.765 0.188 74.124 o
-4 14 7 56.985 55.863 0.633 1.693 o
-4 14 8 4.054 3.788 0.208 109.100 o
-4 14 9 19.111 19.702 0.415 11.379 o
-4 14 10 1.586 1.474 0.208 143.608 o
-4 14 11 2.112 2.047 0.208 137.188 o
-4 14 12 4.577 4.421 0.376 40.182 o
-4 15 1 6.675 6.409 0.247 60.689 o
-4 15 2 23.937 23.797 0.425 8.206 o
-4 15 3 9.824 9.802 0.297 34.095 o
-4 15 4 20.113 19.524 0.336 12.081 o
-4 15 5 47.440 46.526 0.504 2.463 o
-4 15 6 20.657 20.563 0.356 11.159 o
-4 15 7 0.635 0.801 0.168 228.188 o
-4 15 8 0.084 0.129 0.178 207.195 o
-4 15 9 0.628 0.930 0.178 203.564 o
-4 15 10 0.007 0.198 0.188 185.993 o
-4 15 11 0.001 -0.030 0.218 138.747 o
-4 16 1 5.591 5.677 0.257 65.419 o
-4 16 2 22.221 21.156 0.415 9.497 o
-4 16 3 16.344 15.608 0.455 13.451 o
-4 16 4 17.258 16.686 0.366 14.592 o
-4 16 5 0.815 1.078 0.188 181.476 o
-4 16 6 28.993 29.465 0.435 5.908 o
-4 16 7 9.955 10.474 0.277 34.930 o
-4 16 8 1.070 0.752 0.178 200.867 o
-4 16 9 4.242 4.382 0.218 97.593 o
-4 16 10 2.371 2.285 0.247 97.908 o
-4 17 1 62.543 66.258 1.058 1.186 o
-4 17 2 33.710 35.201 0.702 3.725 o
-4 17 3 72.040 73.241 1.157 0.934 o
-4 17 4 3.226 3.096 0.307 62.559 o
-4 17 5 0.768 0.653 0.198 165.443 o
-4 17 6 0.004 -0.198 0.188 186.021 o
-4 17 7 8.542 8.486 0.267 43.738 o
-4 17 8 1.219 0.692 0.188 179.993 o
-4 17 9 6.850 6.696 0.267 54.066 o
-4 18 1 0.038 0.020 0.247 107.444 o
-4 18 2 0.388 0.297 0.267 91.939 o
-4 18 3 3.179 2.710 0.307 63.210 o
-4 18 4 0.010 -0.109 0.267 92.118 o
-4 18 5 2.233 2.245 0.297 70.279 o
-4 18 6 1.627 1.672 0.227 120.149 o
-4 18 7 0.182 -0.415 0.188 185.937 o
-4 18 8 0.913 0.682 0.188 182.110 o
-4 19 1 10.258 10.603 0.406 23.356 o
-4 19 2 0.014 0.168 0.257 99.333 o
-4 19 3 8.770 8.466 0.386 28.514 o
-4 19 4 0.849 0.524 0.277 84.996 o
-4 19 5 0.618 0.633 0.277 85.187 o
-4 19 6 13.511 14.094 0.593 11.813 o
-4 20 1 27.564 26.655 0.851 4.292 o
-4 20 2 0.108 0.010 0.257 99.331 o
-4 20 3 8.812 9.258 0.396 26.956 o
-4 20 4 64.176 65.299 1.068 1.160 o
-3 0 2 21.397 24.628 0.475 8.490 o
-3 0 4 262.854 269.779 2.839 0.078 o
-3 0 6 629.331 632.403 6.745 0.014 o
-3 0 8 109.988 109.619 1.444 0.432 o
-3 0 10 6.556 6.241 0.208 74.372 o
-3 0 12 8.187 8.565 0.257 46.535 o
-3 0 14 46.136 44.597 1.078 1.920 o
-3 1 1 4.571 6.201 0.158 122.920 o
-3 1 2 1732.080 1895.200 14.539 0.002 o
-3 1 3 416.243 449.850 3.857 0.031 o
-3 1 4 154.608 168.973 1.385 0.223 o
-3 1 5 325.743 349.904 2.423 0.052 o
-3 1 6 258.693 263.608 1.988 0.085 o
-3 1 7 165.917 169.438 1.434 0.203 o
-3 1 8 11.232 11.730 0.257 31.706 o
-3 1 9 30.293 28.475 0.287 6.321 o
-3 1 10 40.341 40.384 0.376 3.440 o
-3 1 11 3.047 2.809 0.129 251.728 o
-3 1 12 7.273 7.171 0.188 71.241 o
-3 1 13 2.517 2.156 0.148 232.572 o
-3 1 14 0.920 0.950 0.158 252.837 o
-3 1 15 0.011 -0.366 0.237 116.586 o
-3 2 1 471.125 520.598 4.124 0.024 o
-3 2 2 225.853 233.896 1.919 0.109 o
-3 2 3 13.714 17.220 0.317 19.284 o
-3 2 4 22.936 21.047 0.257 10.833 o
-3 2 5 26.472 25.310 0.277 8.056 o
-3 2 6 3.225 2.789 0.129 244.839 o
-3 2 7 42.936 41.689 0.425 3.064 o
-3 2 8 0.123 0.079 0.138 342.392 o
-3 2 9 0.019 0.000 0.109 554.981 o
-3 2 10 6.801 6.607 0.168 84.724 o
-3 2 11 11.212 11.473 0.227 34.508 o
-3 2 12 0.008 -0.257 0.119 466.344 o
-3 2 13 8.865 8.209 0.257 44.599 o
-3 2 14 7.635 7.794 0.247 52.424 o
-3 2 15 15.422 15.578 0.415 15.187 o
-3 3 1 360.980 363.019 2.918 0.044 o
-3 3 2 0.014 0.188 0.099 671.153 o
-3 3 3 10.653 9.861 0.237 37.854 o
-3 3 4 72.621 73.785 0.574 1.074 o
-3 3 5 42.853 40.384 0.386 3.178 o
-3 3 6 169.634 179.358 1.355 0.192 o
-3 3 7 9.520 9.703 0.198 47.331 o
-3 3 8 57.824 57.623 0.564 1.667 o
-3 3 9 75.377 75.486 0.673 0.991 o
-3 3 10 136.385 138.836 1.157 0.302 o
-3 3 11 34.359 33.994 0.406 4.571 o
-3 3 12 139.271 139.855 1.197 0.291 o
-3 3 13 38.487 37.753 0.554 3.467 o
-3 3 14 1.972 2.057 0.237 108.240 o
-3 3 15 3.698 3.729 0.257 81.044 o
-3 4 1 50.010 50.472 0.554 2.162 o
-3 4 2 9.706 8.961 0.237 42.806 o
-3 4 3 199.647 202.394 1.691 0.141 o
-3 4 4 345.357 360.111 2.443 0.047 o
-3 4 5 10.395 9.861 0.168 46.388 o
-3 4 6 107.286 109.827 0.880 0.488 o
-3 4 7 21.016 21.483 0.297 11.430 o
-3 4 8 869.356 928.076 7.042 0.007 o
-3 4 9 39.094 39.632 0.396 3.587 o
-3 4 10 316.618 327.136 2.522 0.056 o
-3 4 11 5.989 5.974 0.188 88.542 o
-3 4 12 1.810 1.948 0.158 228.222 o
-3 4 13 0.000 0.188 0.168 232.331 o
-3 4 14 11.155 10.366 0.356 25.703 o
-3 4 15 0.389 0.821 0.208 151.195 o
-3 5 1 110.988 104.228 0.841 0.485 o
-3 5 2 40.180 38.287 0.356 3.599 o
-3 5 3 91.348 91.123 0.682 0.691 o
-3 5 4 6.389 6.706 0.129 105.394 o
-3 5 5 13.131 13.451 0.188 29.121 o
-3 5 6 129.037 134.494 1.039 0.334 o
-3 5 7 1.427 1.632 0.158 239.142 o
-3 5 8 10.137 9.545 0.188 46.073 o
-3 5 9 67.355 65.793 0.564 1.271 o
-3 5 10 168.222 171.347 1.315 0.200 o
-3 5 11 167.195 173.404 1.424 0.198 o
-3 5 12 125.131 126.225 1.118 0.358 o
-3 5 13 18.122 16.943 0.356 14.035 o
-3 5 14 3.662 3.412 0.267 77.085 o
-3 5 15 12.137 12.344 0.376 21.679 o
-3 6 1 0.003 -0.237 0.129 397.359 o
-3 6 2 5.898 5.806 0.119 127.640 o
-3 6 3 139.136 147.510 0.989 0.288 o
-3 6 4 0.717 0.435 0.089 787.204 o
-3 6 5 88.138 88.067 0.732 0.733 o
-3 6 6 0.067 0.109 0.109 554.659 o
-3 6 7 1.005 1.494 0.168 220.799 o
-3 6 8 0.278 0.257 0.099 666.097 o
-3 6 9 93.005 94.407 0.732 0.655 o
-3 6 10 0.016 -0.010 0.109 554.984 o
-3 6 11 0.130 0.346 0.148 297.863 o
-3 6 12 4.290 4.461 0.188 117.668 o
-3 6 13 16.110 16.270 0.435 13.887 o
-3 6 14 3.946 3.195 0.267 76.261 o
-3 6 15 4.474 4.807 0.277 66.011 o
-3 7 1 58.242 54.963 0.435 1.759 o
-3 7 2 66.964 69.561 0.584 1.231 o
-3 7 3 14.293 15.311 0.237 22.745 o
-3 7 4 149.740 144.553 1.108 0.263 o
-3 7 5 149.639 148.430 1.147 0.258 o
-3 7 6 19.409 18.258 0.277 13.986 o
-3 7 7 102.223 103.061 0.900 0.538 o
-3 7 8 22.822 22.541 0.277 10.304 o
-3 7 9 8.341 8.279 0.178 61.476 o
-3 7 10 4.549 4.144 0.148 152.188 o
-3 7 11 0.002 0.089 0.119 466.311 o
-3 7 12 0.013 0.148 0.168 232.335 o
-3 7 13 6.158 6.231 0.307 48.477 o
-3 7 14 1.221 1.800 0.237 112.260 o
-3 7 15 4.633 3.996 0.257 75.208 o
-3 8 1 0.319 0.534 0.079 1022.180 o
-3 8 2 31.010 25.152 0.336 6.379 o
-3 8 3 4.996 4.649 0.158 129.050 o
-3 8 4 138.999 143.959 1.276 0.284 o
-3 8 5 102.794 105.119 0.880 0.529 o
-3 8 6 160.313 158.716 1.246 0.224 o
-3 8 7 14.624 14.638 0.188 24.542 o
-3 8 8 46.776 46.595 0.425 2.576 o
-3 8 9 1.593 1.563 0.129 341.227 o
-3 8 10 22.364 22.650 0.287 10.428 o
-3 8 11 3.354 3.531 0.148 189.552 o
-3 8 12 0.085 0.030 0.168 232.327 o
-3 8 13 2.689 3.135 0.267 82.056 o
-3 8 14 13.028 13.095 0.396 19.240 o
-3 8 15 1.768 1.850 0.227 118.902 o
-3 9 1 2.120 2.492 0.129 298.590 o
-3 9 2 89.375 86.316 0.831 0.717 o
-3 9 3 206.497 205.500 1.721 0.134 o
-3 9 4 256.583 256.733 2.107 0.086 o
-3 9 5 88.979 88.611 0.890 0.701 o
-3 9 6 0.227 0.178 0.089 824.060 o
-3 9 7 54.904 55.635 0.415 1.891 o
-3 9 8 10.276 10.257 0.188 43.846 o
-3 9 9 15.177 15.133 0.227 21.798 o
-3 9 10 0.600 0.653 0.129 387.649 o
-3 9 11 2.665 2.186 0.158 206.196 o
-3 9 12 0.010 -0.267 0.178 207.264 o
-3 9 13 2.458 2.374 0.247 97.249 o
-3 9 14 5.428 5.193 0.277 60.959 o
-3 10 1 6.219 6.815 0.198 78.344 o
-3 10 2 42.690 40.433 0.495 3.050 o
-3 10 3 0.701 0.396 0.119 453.799 o
-3 10 4 6.681 6.518 0.208 72.335 o
-3 10 5 14.087 14.025 0.198 25.867 o
-3 10 6 0.021 0.208 0.099 671.018 o
-3 10 7 2.336 2.522 0.129 288.430 o
-3 10 8 2.754 2.769 0.129 264.920 o
-3 10 9 4.681 4.639 0.158 134.909 o
-3 10 10 0.651 0.781 0.129 385.170 o
-3 10 11 2.856 2.858 0.188 148.704 o
-3 10 12 3.716 3.679 0.227 98.572 o
-3 10 13 5.497 5.163 0.356 41.506 o
-3 10 14 0.770 0.959 0.218 136.573 o
-3 11 1 10.641 9.871 0.287 32.952 o
-3 11 2 52.702 50.284 0.524 2.054 o
-3 11 3 15.307 14.569 0.237 21.706 o
-3 11 4 12.358 12.621 0.188 32.282 o
-3 11 5 3.279 3.254 0.129 233.401 o
-3 11 6 1.529 1.484 0.119 396.343 o
-3 11 7 13.081 12.472 0.218 28.886 o
-3 11 8 0.455 0.415 0.129 392.329 o
-3 11 9 12.808 12.067 0.227 29.451 o
-3 11 10 125.455 126.562 1.157 0.355 o
-3 11 11 4.801 5.054 0.247 75.460 o
-3 11 12 24.340 25.053 0.465 7.534 o
-3 11 13 8.679 9.070 0.396 27.284 o
-3 12 1 13.977 12.986 0.237 25.408 o
-3 12 2 18.495 18.773 0.267 14.715 o
-3 12 3 26.050 26.161 0.277 8.054 o
-3 12 4 11.714 11.434 0.188 36.108 o
-3 12 5 39.683 39.721 0.406 3.503 o
-3 12 6 40.325 39.504 0.396 3.461 o
-3 12 7 2.421 2.522 0.148 230.068 o
-3 12 8 314.098 328.115 2.225 0.057 o
-3 12 9 21.832 21.908 0.356 10.177 o
-3 12 10 157.343 166.560 1.583 0.216 o
-3 12 11 0.061 0.030 0.188 186.007 o
-3 12 12 0.019 0.643 0.188 185.727 o
-3 12 13 4.879 5.568 0.267 65.920 o
-3 13 1 1.382 1.474 0.148 271.721 o
-3 13 2 27.431 27.417 0.336 7.065 o
-3 13 3 3.638 3.373 0.148 184.058 o
-3 13 4 19.842 19.109 0.257 13.597 o
-3 13 5 46.446 45.962 0.435 2.612 o
-3 13 6 7.527 7.299 0.178 71.422 o
-3 13 7 16.146 16.300 0.257 18.716 o
-3 13 8 3.910 3.946 0.168 146.074 o
-3 13 9 55.317 56.792 0.673 1.713 o
-3 13 10 101.501 105.940 1.256 0.502 o
-3 13 11 98.412 99.718 1.187 0.547 o
-3 13 12 32.488 33.569 0.653 4.112 o
-3 14 1 0.002 0.168 0.148 298.412 o
-3 14 2 0.670 0.673 0.129 385.941 o
-3 14 3 0.157 0.089 0.129 396.890 o
-3 14 4 4.530 4.204 0.168 132.720 o
-3 14 5 0.159 0.030 0.119 465.866 o
-3 14 6 1.154 1.137 0.129 365.681 o
-3 14 7 67.372 69.067 0.633 1.214 o
-3 14 8 0.069 -0.079 0.178 207.250 o
-3 14 9 31.101 31.205 0.455 5.215 o
-3 14 10 0.381 0.317 0.227 126.601 o
-3 14 11 10.181 9.693 0.376 26.253 o
-3 14 12 4.869 5.806 0.356 42.130 o
-3 15 1 4.257 4.075 0.208 105.515 o
-3 15 2 1.260 1.197 0.138 315.216 o
-3 15 3 0.701 0.495 0.138 335.035 o
-3 15 4 37.457 36.744 0.445 3.859 o
-3 15 5 10.060 9.713 0.208 43.648 o
-3 15 6 3.242 3.313 0.188 140.081 o
-3 15 7 31.006 31.581 0.455 5.198 o
-3 15 8 22.352 22.452 0.386 9.481 o
-3 15 9 6.875 7.200 0.247 57.576 o
-3 15 10 0.326 0.247 0.227 126.705 o
-3 15 11 1.142 2.047 0.237 112.084 o
-3 16 1 25.870 25.647 0.455 7.068 o
-3 16 2 18.050 18.397 0.386 12.955 o
-3 16 3 13.010 12.413 0.257 26.887 o
-3 16 4 11.006 10.563 0.277 32.091 o
-3 16 5 9.403 9.258 0.297 35.886 o
-3 16 6 30.022 29.385 0.435 5.692 o
-3 16 7 5.868 5.559 0.237 71.072 o
-3 16 8 24.223 25.023 0.406 8.054 o
-3 16 9 9.768 9.920 0.307 33.064 o
-3 16 10 9.346 9.762 0.485 19.754 o
-3 17 1 18.706 19.198 0.495 10.408 o
-3 17 2 24.927 24.934 0.574 6.544 o
-3 17 3 54.981 55.695 0.752 1.695 o
-3 17 4 48.622 49.187 0.692 2.143 o
-3 17 5 55.471 56.041 0.771 1.659 o
-3 17 6 4.029 4.075 0.247 83.262 o
-3 17 7 7.826 7.972 0.257 49.225 o
-3 17 8 0.402 -0.030 0.188 185.611 o
-3 17 9 1.719 1.998 0.257 94.258 o
-3 18 1 8.110 9.090 0.376 30.060 o
-3 18 2 3.217 3.818 0.307 61.575 o
-3 18 3 4.510 3.600 0.237 86.939 o
-3 18 4 0.075 0.049 0.198 167.864 o
-3 18 5 0.375 0.297 0.208 151.811 o
-3 18 6 0.027 0.030 0.208 152.273 o
-3 18 7 12.948 12.898 0.346 21.796 o
-3 18 8 1.316 1.236 0.237 112.967 o
-3 19 1 1.063 0.544 0.267 91.020 o
-3 19 2 0.747 0.979 0.257 98.244 o
-3 19 3 8.893 9.535 0.396 26.642 o
-3 19 4 0.303 -0.089 0.208 152.119 o
-3 19 5 0.656 0.287 0.208 151.196 o
-3 19 6 0.032 -0.257 0.208 152.274 o
-3 19 7 2.837 2.938 0.396 39.701 o
-3 20 1 1.553 1.474 0.267 88.960 o
-3 20 2 0.006 -0.109 0.257 99.340 o
-3 20 3 5.499 5.667 0.336 44.813 o
-3 20 4 1.023 0.860 0.287 78.873 o
-3 20 5 29.837 31.482 0.900 3.624 o
-2 0 2 258.090 272.143 3.096 0.078 o
-2 0 4 515.470 569.260 6.360 0.019 o
-2 0 6 235.141 239.217 2.562 0.098 o
-2 0 8 138.525 144.217 1.800 0.267 o
-2 0 10 196.064 199.674 1.929 0.143 o
-2 0 12 3.915 3.937 0.257 79.311 o
-2 1 1 0.571 0.613 0.099 646.933 o
-2 1 2 2065.350 2168.340 18.051 0.001 o
-2 1 3 0.310 0.435 0.109 548.765 o
-2 1 4 669.265 716.810 5.628 0.012 o
-2 1 5 22.116 21.928 0.247 11.149 o
-2 1 6 84.844 91.865 0.732 0.747 o
-2 1 7 136.912 142.753 1.226 0.293 o
-2 1 8 77.320 77.316 0.771 0.927 o
-2 1 9 61.993 63.301 0.692 1.394 o
-2 1 10 0.018 -0.109 0.109 554.982 o
-2 1 11 33.465 33.678 0.386 4.795 o
-2 1 12 1.207 1.335 0.129 360.394 o
-2 1 13 0.077 0.059 0.188 185.993 o
-2 2 1 347.955 350.606 2.769 0.047 o
-2 2 2 0.077 -1.048 0.109 554.857 o
-2 2 3 383.281 400.841 3.462 0.037 o
-2 2 4 17.151 18.426 0.336 14.647 o
-2 2 5 9.700 9.258 0.158 52.929 o
-2 2 6 45.617 45.893 0.435 2.673 o
-2 2 7 21.853 19.831 0.267 11.766 o
-2 2 8 8.490 9.228 0.247 45.620 o
-2 2 9 1.986 2.117 0.129 312.746 o
-2 2 10 13.491 13.807 0.227 26.021 o
-2 2 11 0.267 0.297 0.129 395.366 o
-2 2 12 12.209 11.829 0.227 31.244 o
-2 2 13 0.056 -0.168 0.168 232.353 o
-2 2 14 0.002 0.346 0.346 54.813 o
-2 3 1 180.576 178.983 1.494 0.176 o
-2 3 2 129.412 145.928 1.256 0.308 o
-2 3 3 38.417 34.964 0.445 3.851 o
-2 3 4 50.544 46.951 0.435 2.319 o
-2 3 5 131.542 134.751 0.959 0.328 o
-2 3 6 37.475 37.288 0.376 3.955 o
-2 3 7 2.706 2.730 0.138 241.778 o
-2 3 8 62.945 65.259 0.722 1.333 o
-2 3 9 14.475 14.292 0.218 24.069 o
-2 3 10 0.107 0.089 0.119 465.978 o
-2 3 11 40.989 41.106 0.465 3.214 o
-2 3 12 79.357 80.728 0.811 0.867 o
-2 3 13 12.420 12.116 0.366 21.994 o
-2 3 14 60.950 63.271 0.999 1.279 o
-2 3 15 21.753 20.830 0.692 6.712 o
-2 4 1 212.742 223.471 1.859 0.121 o
-2 4 2 821.769 894.952 6.953 0.008 o
-2 4 3 225.583 232.709 2.443 0.105 o
-2 4 4 16.383 16.508 0.227 19.060 o
-2 4 5 99.793 101.528 0.712 0.574 o
-2 4 6 88.724 89.254 0.712 0.723 o
-2 4 7 0.013 -0.218 0.129 397.357 o
-2 4 8 7.219 7.319 0.227 60.346 o
-2 4 9 2.963 3.135 0.129 248.478 o
-2 4 10 365.568 383.157 2.928 0.041 o
-2 4 11 2.994 2.888 0.158 190.154 o
-2 4 12 174.049 178.537 1.810 0.179 o
-2 4 13 0.614 0.781 0.218 137.334 o
-2 4 14 7.919 7.962 0.326 37.566 o
-2 4 15 2.231 2.186 0.376 44.814 o
-2 5 1 690.591 783.632 6.132 0.011 o
-2 5 2 280.562 279.443 2.146 0.073 o
-2 5 3 65.137 70.729 0.593 1.257 o
-2 5 4 1.308 1.691 0.109 466.727 o
-2 5 5 6.204 5.173 0.148 110.777 o
-2 5 6 14.393 14.391 0.247 22.966 o
-2 5 7 110.947 117.294 1.207 0.428 o
-2 5 8 58.117 58.306 0.673 1.592 o
-2 5 9 0.017 0.069 0.099 671.449 o
-2 5 10 1.520 1.533 0.129 344.750 o
-2 5 11 1.622 1.454 0.148 266.241 o
-2 5 12 67.916 68.711 0.841 1.142 o
-2 5 13 95.108 100.371 1.434 0.537 o
-2 5 14 68.227 70.729 1.098 1.029 o
-2 5 15 14.748 14.114 0.593 11.295 o
-2 6 1 56.579 59.315 0.554 1.686 o
-2 6 2 12.533 10.989 0.168 35.491 o
-2 6 3 72.528 71.797 0.574 1.094 o
-2 6 4 5.550 4.748 0.129 140.277 o
-2 6 5 115.710 118.155 0.950 0.420 o
-2 6 6 1.073 1.256 0.129 366.415 o
-2 6 7 8.924 8.892 0.208 50.765 o
-2 6 8 0.696 0.514 0.109 535.179 o
-2 6 9 3.093 2.760 0.129 250.865 o
-2 6 10 0.667 0.455 0.109 537.444 o
-2 6 11 13.005 12.967 0.267 25.803 o
-2 6 12 0.011 0.089 0.168 232.354 o
-2 6 13 3.076 2.967 0.267 80.758 o
-2 6 14 1.801 1.573 0.227 119.485 o
-2 6 15 0.009 -0.386 0.346 54.819 o
-2 7 1 17.939 16.161 0.198 17.957 o
-2 7 2 37.384 37.337 0.376 3.963 o
-2 7 3 3.870 4.540 0.129 189.193 o
-2 7 4 2.884 2.868 0.119 284.591 o
-2 7 5 7.680 7.141 0.178 70.806 o
-2 7 6 83.426 81.391 0.712 0.827 o
-2 7 7 2.227 2.127 0.158 217.052 o
-2 7 8 15.231 14.075 0.208 23.260 o
-2 7 9 133.131 135.493 0.979 0.322 o
-2 7 10 2.964 3.214 0.138 224.525 o
-2 7 11 3.580 3.096 0.168 160.381 o
-2 7 12 3.449 3.580 0.267 77.687 o
-2 7 13 4.023 4.115 0.277 69.493 o
-2 7 14 0.029 0.000 0.198 167.883 o
-2 7 15 3.049 2.928 0.247 92.569 o
-2 8 1 33.090 34.479 0.346 4.894 o
-2 8 2 11.322 9.584 0.188 40.898 o
-2 8 3 8.839 8.427 0.188 55.896 o
-2 8 4 27.850 24.974 0.307 7.472 o
-2 8 5 20.050 19.346 0.277 13.059 o
-2 8 6 10.606 10.583 0.227 37.817 o
-2 8 7 54.603 53.677 0.415 1.947 o
-2 8 8 174.138 177.875 1.177 0.189 o
-2 8 9 0.330 0.317 0.109 549.643 o
-2 8 10 41.196 40.196 0.415 3.309 o
-2 8 11 0.493 0.346 0.138 338.834 o
-2 8 12 28.875 29.573 0.603 5.117 o
-2 8 13 0.008 0.188 0.208 152.258 o
-2 8 14 1.120 1.296 0.227 123.351 o
-2 8 15 0.027 -0.119 0.326 61.665 o
-2 9 1 26.868 28.515 0.317 7.169 o
-2 9 2 0.405 0.148 0.099 664.023 o
-2 9 3 0.973 0.920 0.109 512.112 o
-2 9 4 10.249 9.228 0.227 41.485 o
-2 9 5 24.229 21.987 0.307 9.484 o
-2 9 6 188.452 188.913 1.424 0.162 o
-2 9 7 121.792 121.794 0.791 0.393 o
-2 9 8 10.543 9.643 0.168 46.200 o
-2 9 9 12.363 12.255 0.208 31.564 o
-2 9 10 0.242 0.168 0.129 396.131 o
-2 9 11 23.446 22.917 0.346 9.282 o
-2 9 12 0.299 0.208 0.208 152.000 o
-2 9 13 0.754 0.979 0.218 136.594 o
-2 9 14 0.422 0.227 0.188 185.295 o
-2 10 1 23.433 23.728 0.336 9.197 o
-2 10 2 8.398 7.557 0.198 59.355 o
-2 10 3 6.255 6.221 0.188 84.608 o
-2 10 4 1.169 0.950 0.129 368.320 o
-2 10 5 2.022 1.731 0.099 475.868 o
-2 10 6 5.823 5.628 0.138 119.073 o
-2 10 7 13.147 12.720 0.188 30.005 o
-2 10 8 13.255 13.382 0.188 28.902 o
-2 10 9 0.707 0.504 0.119 452.091 o
-2 10 10 7.628 7.428 0.208 62.435 o
-2 10 11 2.550 2.502 0.208 131.090 o
-2 10 12 0.007 -0.059 0.168 232.366 o
-2 10 13 0.692 0.860 0.188 182.876 o
-2 10 14 5.384 5.252 0.277 61.022 o
-2 11 1 0.095 0.109 0.148 298.316 o
-2 11 2 120.266 128.965 1.266 0.363 o
-2 11 3 0.481 0.386 0.099 656.824 o
-2 11 4 39.282 37.882 0.366 3.712 o
-2 11 5 22.862 22.393 0.267 10.410 o
-2 11 6 4.254 4.599 0.148 153.721 o
-2 11 7 3.585 3.937 0.138 192.907 o
-2 11 8 0.737 0.870 0.109 525.545 o
-2 11 9 0.310 0.544 0.119 460.997 o
-2 11 10 0.436 0.208 0.158 260.853 o
-2 11 11 8.798 8.961 0.287 39.254 o
-2 11 12 34.187 36.358 0.692 3.644 o
-2 11 13 1.783 2.166 0.208 139.463 o
-2 12 1 0.765 0.752 0.109 527.016 o
-2 12 2 101.753 101.993 0.880 0.546 o
-2 12 3 27.637 26.319 0.277 7.466 o
-2 12 4 22.972 22.739 0.267 10.258 o
-2 12 5 4.346 4.471 0.148 153.075 o
-2 12 6 56.671 57.060 0.504 1.748 o
-2 12 7 32.193 32.461 0.356 5.221 o
-2 12 8 14.175 13.896 0.247 23.763 o
-2 12 9 0.829 0.722 0.129 381.596 o
-2 12 10 81.372 85.782 1.048 0.768 o
-2 12 11 9.730 10.187 0.307 32.838 o
-2 12 12 118.419 127.897 1.474 0.361 o
-2 12 13 0.255 0.366 0.208 151.949 o
-2 13 1 153.886 162.129 1.325 0.231 o
-2 13 2 132.430 136.175 1.137 0.317 o
-2 13 3 1.628 1.395 0.129 343.212 o
-2 13 4 22.259 22.244 0.267 10.786 o
-2 13 5 2.095 2.196 0.129 306.232 o
-2 13 6 3.895 3.660 0.148 173.661 o
-2 13 7 16.101 15.073 0.247 19.861 o
-2 13 8 7.514 7.299 0.208 63.605 o
-2 13 9 31.909 32.184 0.534 4.702 o
-2 13 10 2.741 2.413 0.208 129.675 o
-2 13 11 10.601 10.949 0.317 29.213 o
-2 13 12 23.400 25.093 0.455 7.910 o
-2 14 1 34.492 35.508 0.415 4.410 o
-2 14 2 2.728 2.809 0.148 217.170 o
-2 14 3 1.219 1.355 0.138 314.169 o
-2 14 4 19.819 19.673 0.297 12.820 o
-2 14 5 0.011 -0.109 0.109 554.987 o
-2 14 6 0.007 -0.356 0.129 397.359 o
-2 14 7 0.902 0.613 0.148 289.194 o
-2 14 8 4.163 3.739 0.218 101.208 o
-2 14 9 17.066 16.834 0.376 14.450 o
-2 14 10 1.305 1.780 0.188 174.525 o
-2 14 11 20.073 21.730 0.544 8.669 o
-2 14 12 1.984 2.334 0.208 137.050 o
-2 15 1 10.232 10.128 0.227 39.896 o
-2 15 2 1.094 1.157 0.138 320.094 o
-2 15 3 1.275 1.375 0.148 275.229 o
-2 15 4 2.847 2.947 0.168 176.208 o
-2 15 5 4.181 3.956 0.168 141.035 o
-2 15 6 17.782 17.437 0.297 15.387 o
-2 15 7 10.523 10.346 0.277 33.588 o
-2 15 8 1.901 1.958 0.218 127.928 o
-2 15 9 11.207 11.354 0.326 26.912 o
-2 15 10 4.957 5.430 0.257 69.493 o
-2 15 11 14.671 15.360 0.445 14.958 o
-2 16 1 18.902 18.951 0.297 13.782 o
-2 16 2 1.836 1.859 0.148 255.598 o
-2 16 3 37.034 36.883 0.455 3.882 o
-2 16 4 9.365 8.941 0.237 44.173 o
-2 16 5 2.706 2.641 0.218 119.071 o
-2 16 6 0.064 -0.138 0.168 232.350 o
-2 16 7 10.850 10.909 0.277 32.049 o
-2 16 8 32.950 33.441 0.554 4.387 o
-2 16 9 6.664 6.548 0.317 44.437 o
-2 16 10 15.774 17.477 0.475 12.747 o
-2 17 1 21.852 22.086 0.425 9.344 o
-2 17 2 0.020 -0.237 0.188 186.020 o
-2 17 3 2.675 3.076 0.227 108.920 o
-2 17 4 8.571 8.526 0.297 39.212 o
-2 17 5 51.992 53.064 0.742 1.863 o
-2 17 6 39.437 39.929 0.613 3.160 o
-2 17 7 21.324 21.631 0.425 9.670 o
-2 17 8 6.935 7.200 0.277 50.436 o
-2 17 9 14.913 15.805 0.366 17.057 o
-2 18 1 1.925 1.820 0.227 118.097 o
-2 18 2 2.814 3.066 0.227 107.925 o
-2 18 3 16.130 16.864 0.376 15.194 o
-2 18 4 2.989 3.600 0.247 90.978 o
-2 18 5 2.279 1.929 0.227 115.603 o
-2 18 6 0.017 0.069 0.208 152.272 o
-2 18 7 1.229 0.999 0.237 113.677 o
-2 18 8 0.201 0.089 0.227 126.873 o
-2 19 1 0.864 0.564 0.247 106.345 o
-2 19 2 1.495 0.752 0.218 133.968 o
-2 19 3 0.030 -0.059 0.208 152.275 o
-2 19 4 0.008 0.138 0.208 152.266 o
-2 19 5 0.572 0.326 0.208 151.361 o
-2 19 6 0.068 -0.138 0.227 126.939 o
-2 19 7 2.663 2.651 0.267 83.164 o
-2 20 1 3.989 3.571 0.297 63.086 o
-2 20 2 13.150 12.878 0.425 17.946 o
-2 20 3 2.783 2.760 0.247 94.520 o
-2 20 4 0.152 0.079 0.208 152.213 o
-2 20 5 0.042 -0.297 0.227 126.943 o
-1 0 2 0.849 2.374 0.168 217.019 o
-1 0 4 143.687 147.055 1.830 0.252 o
-1 0 6 538.985 576.738 5.608 0.018 o
-1 0 8 25.194 26.349 0.524 6.668 o
-1 0 10 48.324 47.950 0.584 2.295 o
-1 1 1 425.561 446.754 3.511 0.030 o
-1 1 2 180.301 199.229 1.602 0.163 o
-1 1 3 10.355 9.337 0.188 45.546 o
-1 1 4 489.171 523.110 4.144 0.023 o
-1 1 5 0.393 0.613 0.089 805.047 o
-1 1 6 0.001 0.069 0.129 397.345 o
-1 1 7 0.612 0.791 0.129 385.926 o
-1 1 8 119.533 128.213 1.147 0.373 o
-1 1 9 36.267 36.269 0.485 3.950 o
-1 1 10 5.686 5.054 0.148 120.399 o
-1 1 11 27.126 27.368 0.415 6.729 o
-1 1 12 6.090 5.509 0.406 32.490 o
-1 2 1 561.265 596.480 4.639 0.017 o
-1 2 2 315.212 354.474 2.631 0.053 o
-1 2 3 495.082 539.855 4.243 0.022 o
-1 2 4 207.322 216.488 1.879 0.127 o
-1 2 5 0.107 -0.040 0.089 828.476 o
-1 2 6 44.413 46.022 0.396 2.795 o
-1 2 7 8.893 8.516 0.178 57.046 o
-1 2 8 33.743 32.738 0.495 4.511 o
-1 2 9 0.214 0.208 0.158 261.808 o
-1 2 10 1.871 1.889 0.129 322.701 o
-1 2 11 2.071 2.067 0.168 199.532 o
-1 2 12 3.774 3.660 0.208 112.694 o
-1 2 13 0.939 1.207 0.346 54.299 o
-1 3 1 844.072 955.187 7.369 0.007 o
-1 3 2 3029.130 3283.530 27.348 0.001 o
-1 3 3 843.830 898.147 7.527 0.008 o
-1 3 4 574.547 631.394 4.688 0.016 o
-1 3 5 5.014 5.143 0.129 148.301 o
-1 3 6 2.403 1.672 0.109 388.761 o
-1 3 7 75.192 78.067 0.771 0.953 o
-1 3 8 1.474 1.770 0.148 266.008 o
-1 3 9 3.510 3.452 0.148 186.416 o
-1 3 10 3.586 3.729 0.168 154.191 o
-1 3 11 13.923 13.768 0.297 22.122 o
-1 3 12 14.133 13.758 0.336 20.142 o
-1 3 13 3.827 3.798 0.415 34.871 o
-1 3 14 30.391 30.572 0.860 3.760 o
-1 4 1 71.515 64.774 0.593 1.181 o
-1 4 2 247.008 259.463 2.324 0.089 o
-1 4 3 36.162 40.819 0.534 3.591 o
-1 4 4 889.997 967.936 5.925 0.007 o
-1 4 5 17.940 16.992 0.227 16.888 o
-1 4 6 94.145 99.234 0.801 0.619 o
-1 4 7 1.213 1.315 0.129 360.525 o
-1 4 8 5.949 6.103 0.208 79.891 o
-1 4 9 18.650 18.397 0.267 14.743 o
-1 4 10 29.971 30.463 0.445 5.548 o
-1 4 11 1.224 1.365 0.168 218.794 o
-1 4 12 85.547 87.691 0.999 0.724 o
-1 4 13 0.803 1.207 0.366 48.706 o
-1 4 14 93.035 92.775 1.899 0.506 o
-1 4 15 2.563 2.740 0.406 38.214 o
-1 5 1 2145.620 2289.320 18.238 0.001 o
-1 5 2 1307.210 1428.680 11.018 0.003 o
-1 5 3 176.550 196.093 1.523 0.170 o
-1 5 4 492.163 515.475 3.432 0.023 o
-1 5 5 255.139 268.968 1.879 0.086 o
-1 5 6 0.273 0.317 0.109 550.807 o
-1 5 7 22.262 21.542 0.297 10.688 o
-1 5 8 8.423 8.654 0.237 48.735 o
-1 5 9 57.698 59.236 0.534 1.657 o
-1 5 10 10.388 9.792 0.237 38.854 o
-1 5 11 7.291 6.973 0.237 58.444 o
-1 5 12 11.230 10.524 0.287 30.766 o
-1 5 13 0.003 -0.148 0.208 152.276 o
-1 5 14 18.464 19.089 0.692 7.657 o
-1 5 15 19.413 19.910 0.702 7.224 o
-1 6 1 629.101 624.787 4.302 0.015 o
-1 6 2 11.054 10.524 0.178 41.018 o
-1 6 3 34.708 32.264 0.317 4.875 o
-1 6 4 4.268 4.481 0.129 177.669 o
-1 6 5 24.426 23.856 0.277 9.195 o
-1 6 6 6.013 6.093 0.178 92.139 o
-1 6 7 0.173 0.475 0.119 463.670 o
-1 6 8 2.913 2.839 0.119 283.852 o
-1 6 9 9.277 8.951 0.188 51.894 o
-1 6 10 0.475 0.455 0.138 338.420 o
-1 6 11 12.391 12.215 0.257 28.406 o
-1 6 12 0.790 0.613 0.168 227.693 o
-1 6 13 0.013 -0.129 0.198 167.884 o
-1 6 14 0.003 0.376 0.366 49.047 o
-1 6 15 3.419 4.055 0.415 35.153 o
-1 7 1 50.183 48.296 0.455 2.286 o
-1 7 2 26.181 27.565 0.287 7.702 o
-1 7 3 184.494 185.372 1.325 0.169 o
-1 7 4 69.360 69.176 0.603 1.178 o
-1 7 5 36.363 35.290 0.415 4.157 o
-1 7 6 1.039 1.276 0.129 367.206 o
-1 7 7 14.773 14.005 0.257 22.272 o
-1 7 8 18.623 18.140 0.208 15.898 o
-1 7 9 1.007 1.256 0.129 368.599 o
-1 7 10 13.703 13.709 0.247 24.782 o
-1 7 11 48.340 48.395 0.593 2.272 o
-1 7 12 0.007 -0.030 0.208 152.276 o
-1 7 13 9.842 9.574 0.346 29.444 o
-1 7 14 0.807 0.633 0.356 51.569 o
-1 7 15 1.010 0.821 0.336 57.596 o
-1 8 1 147.196 147.560 1.177 0.263 o
-1 8 2 59.855 58.444 0.514 1.605 o
-1 8 3 0.818 0.663 0.089 767.322 o
-1 8 4 20.045 19.326 0.267 13.212 o
-1 8 5 4.353 4.500 0.158 142.559 o
-1 8 6 29.172 27.922 0.356 6.412 o
-1 8 7 0.662 0.692 0.099 639.485 o
-1 8 8 4.462 4.411 0.129 172.937 o
-1 8 9 1.682 1.761 0.138 294.044 o
-1 8 10 71.001 71.737 0.692 1.097 o
-1 8 11 14.411 13.867 0.267 22.563 o
-1 8 12 39.248 39.108 0.712 3.019 o
-1 8 13 2.455 2.403 0.247 97.187 o
-1 8 14 15.895 16.201 0.643 9.505 o
-1 9 1 163.157 168.508 1.246 0.211 o
-1 9 2 0.285 0.188 0.089 821.854 o
-1 9 3 55.372 57.435 0.613 1.734 o
-1 9 4 23.159 21.908 0.297 10.113 o
-1 9 5 0.031 -0.069 0.109 554.967 o
-1 9 6 4.700 4.283 0.138 157.313 o
-1 9 7 0.084 0.069 0.089 828.347 o
-1 9 8 48.550 47.396 0.425 2.433 o
-1 9 9 64.325 64.032 0.544 1.376 o
-1 9 10 33.179 32.699 0.406 4.873 o
-1 9 11 8.075 7.428 0.237 53.230 o
-1 9 12 0.915 0.959 0.188 181.205 o
-1 9 13 7.447 7.428 0.277 48.017 o
-1 9 14 0.540 0.762 0.208 150.844 o
-1 10 1 46.956 46.763 0.514 2.477 o
-1 10 2 49.565 49.088 0.514 2.254 o
-1 10 3 31.702 30.997 0.435 5.195 o
-1 10 4 22.287 21.700 0.356 10.004 o
-1 10 5 4.636 4.550 0.129 165.981 o
-1 10 6 4.668 4.678 0.119 173.890 o
-1 10 7 0.170 0.267 0.089 824.444 o
-1 10 8 7.811 7.467 0.168 70.952 o
-1 10 9 0.474 0.653 0.119 456.323 o
-1 10 10 7.352 7.062 0.208 65.498 o
-1 10 11 5.685 5.301 0.247 69.388 o
-1 10 12 0.484 0.554 0.188 184.561 o
-1 10 13 0.507 0.702 0.188 184.168 o
-1 10 14 0.769 0.584 0.198 165.585 o
-1 11 1 66.596 66.723 0.702 1.236 o
-1 11 2 76.098 78.750 0.959 0.893 o
-1 11 3 8.950 9.010 0.237 45.711 o
-1 11 4 86.533 89.224 0.673 0.751 o
-1 11 5 1.864 1.810 0.109 422.790 o
-1 11 6 0.039 0.079 0.099 671.332 o
-1 11 7 14.775 14.668 0.208 23.543 o
-1 11 8 4.995 4.708 0.148 136.660 o
-1 11 9 4.088 3.956 0.148 165.191 o
-1 11 10 10.744 11.058 0.267 32.994 o
-1 11 11 0.484 0.880 0.188 183.876 o
-1 11 12 1.008 1.078 0.198 163.073 o
-1 11 13 1.974 2.403 0.208 136.839 o
-1 12 1 23.073 23.125 0.277 10.021 o
-1 12 2 27.375 27.219 0.317 7.213 o
-1 12 3 0.696 0.880 0.109 527.251 o
-1 12 4 43.593 43.123 0.396 2.979 o
-1 12 5 27.374 26.280 0.297 7.464 o
-1 12 6 113.012 115.514 0.870 0.443 o
-1 12 7 0.734 0.534 0.129 386.073 o
-1 12 8 26.033 26.240 0.307 7.879 o
-1 12 9 15.321 15.014 0.247 21.014 o
-1 12 10 0.144 0.188 0.158 262.033 o
-1 12 11 3.211 3.501 0.227 103.245 o
-1 12 12 24.081 25.399 0.475 7.480 o
-1 12 13 2.253 2.760 0.218 122.301 o
-1 13 1 137.412 142.575 1.098 0.296 o
-1 13 2 69.489 71.985 0.702 1.121 o
-1 13 3 216.437 224.529 1.780 0.119 o
-1 13 4 101.352 101.944 0.781 0.556 o
-1 13 5 14.681 14.549 0.227 23.102 o
-1 13 6 0.434 0.396 0.129 392.785 o
-1 13 7 0.709 0.692 0.148 291.353 o
-1 13 8 4.741 4.421 0.188 112.039 o
-1 13 9 4.271 3.956 0.208 105.984 o
-1 13 10 12.089 12.077 0.277 27.922 o
-1 13 11 23.238 23.659 0.455 8.207 o
-1 13 12 0.253 0.198 0.198 167.628 o
-1 14 1 2.906 3.244 0.148 205.907 o
-1 14 2 0.067 0.188 0.119 465.931 o
-1 14 3 33.448 33.846 0.406 4.730 o
-1 14 4 5.537 5.311 0.188 97.034 o
-1 14 5 19.474 19.465 0.267 13.603 o
-1 14 6 27.362 26.952 0.336 7.157 o
-1 14 7 0.033 0.040 0.148 298.443 o
-1 14 8 0.004 0.030 0.188 186.020 o
-1 14 9 0.011 -0.317 0.188 186.021 o
-1 14 10 3.635 3.739 0.237 92.568 o
-1 14 11 1.342 1.434 0.198 159.544 o
-1 14 12 0.068 0.069 0.227 126.932 o
-1 15 1 2.426 2.374 0.148 232.061 o
-1 15 2 6.076 5.934 0.188 87.847 o
-1 15 3 1.192 1.306 0.148 277.743 o
-1 15 4 8.793 8.368 0.227 49.387 o
-1 15 5 12.230 12.156 0.237 30.121 o
-1 15 6 1.701 1.859 0.168 207.813 o
-1 15 7 5.191 5.064 0.247 73.052 o
-1 15 8 0.434 0.791 0.188 184.288 o
-1 15 9 2.794 2.730 0.227 109.313 o
-1 15 10 3.392 3.551 0.237 94.887 o
-1 15 11 5.744 6.043 0.267 60.604 o
-1 16 1 10.678 10.791 0.237 36.289 o
-1 16 2 3.383 3.234 0.178 150.116 o
-1 16 3 22.640 22.402 0.336 9.868 o
-1 16 4 2.616 2.413 0.178 169.545 o
-1 16 5 8.597 8.031 0.277 42.807 o
-1 16 6 4.467 3.857 0.227 91.890 o
-1 16 7 4.298 4.935 0.247 78.929 o
-1 16 8 2.598 2.957 0.227 109.913 o
-1 16 9 12.207 12.185 0.336 23.916 o
-1 16 10 14.435 15.252 0.366 17.814 o
-1 17 1 29.686 28.980 0.415 5.896 o
-1 17 2 8.265 8.150 0.277 43.742 o
-1 17 3 0.118 0.247 0.198 167.764 o
-1 17 4 0.109 0.089 0.208 152.236 o
-1 17 5 26.618 26.606 0.574 5.982 o
-1 17 6 2.879 2.641 0.267 82.298 o
-1 17 7 22.619 23.372 0.495 8.086 o
-1 17 8 17.633 18.842 0.435 12.107 o
-1 17 9 10.801 11.285 0.346 26.244 o
-1 18 1 27.098 27.368 0.475 6.391 o
-1 18 2 1.515 1.780 0.227 120.448 o
-1 18 3 0.095 -0.069 0.208 152.261 o
-1 18 4 0.258 0.317 0.218 138.503 o
-1 18 5 5.355 5.321 0.307 52.547 o
-1 18 6 1.145 1.029 0.247 105.162 o
-1 18 7 1.726 1.681 0.247 102.134 o
-1 18 8 0.106 0.030 0.227 126.927 o
-1 19 1 14.622 14.955 0.356 18.124 o
-1 19 2 18.489 17.833 0.396 12.659 o
-1 19 3 5.313 5.143 0.267 64.840 o
-1 19 4 5.276 5.104 0.307 53.160 o
-1 19 5 0.788 1.009 0.247 106.047 o
-1 19 6 0.012 0.148 0.237 116.579 o
-1 19 7 0.126 -0.168 0.227 126.926 o
-1 20 1 15.905 16.043 0.455 13.594 o
-1 20 2 2.626 2.285 0.237 103.944 o
-1 20 3 0.062 -0.158 0.208 152.269 o
-1 20 4 24.695 25.271 0.801 4.998 o
-1 20 5 9.468 10.108 0.534 16.974 o
0 0 2 5417.670 5154.290 64.705 0.000 o
0 0 4 137.758 152.762 1.899 0.255 o
0 0 6 43.270 43.123 0.435 2.962 o
0 0 8 139.385 147.372 1.820 0.260 o
0 1 1 26.694 27.912 0.317 7.319 o
0 1 2 3851.630 4239.480 32.887 0.000 o
0 1 3 450.878 509.145 4.006 0.026 o
0 1 4 12.800 17.131 0.307 20.902 o
0 1 5 6.034 7.903 0.178 82.310 o
0 1 6 3.547 3.976 0.109 246.786 o
0 1 7 0.033 -0.030 0.089 829.003 o
0 1 8 67.667 71.391 0.712 1.160 o
0 1 9 0.077 0.247 0.168 232.207 o
0 1 10 71.314 75.466 1.167 0.925 o
0 1 11 4.686 4.619 0.287 62.042 o
0 2 0 705.383 785.541 8.595 0.010 o
0 2 1 1570.960 1753.290 14.638 0.002 o
0 2 2 708.447 791.802 6.300 0.010 o
0 2 3 1193.030 1331.120 10.405 0.004 o
0 2 4 45.036 43.401 0.574 2.651 o
0 2 5 152.394 163.840 1.197 0.235 o
0 2 6 44.210 46.081 0.386 2.818 o
0 2 7 89.781 91.430 0.742 0.698 o
0 2 8 0.480 0.613 0.129 390.311 o
0 2 9 0.275 0.336 0.168 231.588 o
0 2 10 0.563 0.534 0.188 184.288 o
0 2 11 1.441 1.404 0.247 103.687 o
0 2 12 3.096 2.967 0.287 71.101 o
0 3 1 1396.370 1526.700 11.770 0.003 o
0 3 2 103.821 108.432 1.039 0.500 o
0 3 3 208.804 235.389 2.117 0.117 o
0 3 4 268.072 285.258 2.492 0.075 o
0 3 5 323.327 344.355 2.166 0.053 o
0 3 6 484.600 511.212 3.412 0.024 o
0 3 7 1.392 1.355 0.119 406.689 o
0 3 8 0.286 0.564 0.129 393.650 o
0 3 9 3.728 3.768 0.208 112.603 o
0 3 10 0.057 0.148 0.129 397.159 o
0 3 11 11.589 11.167 0.396 21.983 o
0 3 12 0.151 0.158 0.257 99.301 o
0 3 13 2.586 2.028 0.356 49.381 o
0 4 0 12.873 10.237 0.317 25.624 o
0 4 1 22.975 26.596 0.346 8.704 o
0 4 2 1.131 0.979 0.089 714.749 o
0 4 3 74.913 76.248 0.821 0.960 o
0 4 4 75.752 74.972 0.613 1.001 o
0 4 5 28.773 27.526 0.307 6.793 o
0 4 6 334.675 353.583 2.433 0.050 o
0 4 7 6.771 7.022 0.178 79.417 o
0 4 8 196.612 206.261 1.751 0.142 o
0 4 9 22.350 22.314 0.317 10.233 o
0 4 10 1.152 1.167 0.158 247.931 o
0 4 11 12.417 12.443 0.415 19.310 o
0 4 12 8.798 9.139 0.396 27.062 o
0 4 13 0.404 0.663 0.336 57.958 o
0 4 14 7.648 7.774 0.495 21.276 o
0 5 1 70.316 76.663 0.702 1.061 o
0 5 2 8.084 8.407 0.188 60.730 o
0 5 3 1084.250 1159.940 7.725 0.005 o
0 5 4 255.787 262.223 1.741 0.087 o
0 5 5 122.342 126.057 0.969 0.375 o
0 5 6 315.252 333.278 2.314 0.056 o
0 5 7 80.083 80.619 0.712 0.876 o
0 5 8 2.408 2.641 0.138 253.821 o
0 5 9 0.001 0.158 0.109 554.845 o
0 5 10 3.239 3.145 0.148 197.980 o
0 5 11 2.452 2.651 0.208 131.316 o
0 5 12 0.322 0.376 0.267 91.956 o
0 5 13 20.075 19.593 0.692 7.219 o
0 5 14 7.532 7.566 0.495 21.444 o
0 5 15 0.004 -0.079 0.317 65.580 o
0 6 0 0.617 0.801 0.129 385.698 o
0 6 1 309.395 325.969 2.463 0.058 o
0 6 2 3.718 3.660 0.099 266.642 o
0 6 3 104.802 104.753 0.791 0.524 o
0 6 4 1.209 1.414 0.109 482.700 o
0 6 5 298.872 310.865 2.265 0.063 o
0 6 6 0.926 0.959 0.119 436.786 o
0 6 7 4.120 3.897 0.168 142.681 o
0 6 8 1.929 1.840 0.109 416.976 o
0 6 9 34.034 33.826 0.366 4.738 o
0 6 10 2.300 2.156 0.148 238.719 o
0 6 11 8.284 8.516 0.227 51.458 o
0 6 12 0.464 0.069 0.317 65.501 o
0 6 13 5.108 4.599 0.445 29.253 o
0 6 14 0.386 0.356 0.336 58.013 o
0 6 15 0.060 -0.208 0.307 69.878 o
0 7 1 92.630 96.820 0.722 0.649 o
0 7 2 193.118 201.830 1.335 0.151 o
0 7 3 47.567 46.803 0.396 2.539 o
0 7 4 32.320 31.304 0.346 5.339 o
0 7 5 96.203 97.661 0.811 0.608 o
0 7 6 51.045 51.194 0.514 2.120 o
0 7 7 0.001 0.129 0.129 397.310 o
0 7 8 4.219 4.184 0.129 183.763 o
0 7 9 0.018 0.326 0.109 554.246 o
0 7 10 2.925 2.552 0.148 215.184 o
0 7 11 1.144 1.118 0.148 280.620 o
0 7 12 6.662 6.617 0.297 48.300 o
0 7 13 3.945 4.016 0.415 34.636 o
0 7 14 0.002 -0.425 0.326 61.666 o
0 7 15 12.249 11.849 0.524 15.131 o
0 8 0 2954.690 3152.900 28.841 0.001 o
0 8 1 50.373 51.907 0.475 2.163 o
0 8 2 1416.860 1523.410 8.991 0.003 o
0 8 3 0.060 0.109 0.079 1048.210 o
0 8 4 4.499 4.164 0.148 153.104 o
0 8 5 72.009 72.024 0.673 1.080 o
0 8 6 0.261 0.475 0.129 394.502 o
0 8 7 23.383 22.788 0.247 10.188 o
0 8 8 41.589 40.216 0.376 3.321 o
0 8 9 0.571 0.504 0.109 540.056 o
0 8 10 10.128 9.802 0.227 40.868 o
0 8 11 1.221 1.078 0.148 279.480 o
0 8 12 9.203 8.912 0.287 38.129 o
0 8 13 8.990 8.199 0.485 20.686 o
0 8 14 25.279 26.062 0.801 4.866 o
0 9 1 13.841 13.768 0.218 25.800 o
0 9 2 272.737 286.772 1.998 0.075 o
0 9 3 304.726 312.626 2.028 0.062 o
0 9 4 125.496 127.719 1.019 0.358 o
0 9 5 0.975 1.029 0.129 373.188 o
0 9 6 39.425 38.653 0.366 3.650 o
0 9 7 3.699 3.551 0.129 211.950 o
0 9 8 2.173 1.988 0.119 347.096 o
0 9 9 0.003 -0.059 0.109 554.989 o
0 9 10 8.649 8.219 0.188 57.691 o
0 9 11 10.770 10.366 0.297 31.157 o
0 9 12 23.982 24.529 0.455 7.811 o
0 9 13 10.039 9.812 0.406 24.132 o
0 9 14 0.033 -0.485 0.317 65.579 o
0 10 0 28.922 30.651 0.564 5.203 o
0 10 1 341.614 366.946 2.858 0.047 o
0 10 2 8.743 9.159 0.188 54.309 o
0 10 3 166.925 171.169 1.484 0.199 o
0 10 4 60.420 59.868 0.603 1.526 o
0 10 5 16.796 15.845 0.208 19.436 o
0 10 6 0.102 0.267 0.089 826.265 o
0 10 7 32.174 31.898 0.326 5.367 o
0 10 8 0.094 0.257 0.109 553.868 o
0 10 9 0.263 0.346 0.119 463.321 o
0 10 10 0.004 -0.237 0.119 466.345 o
0 10 11 0.891 0.851 0.188 181.718 o
0 10 12 0.080 0.079 0.178 207.219 o
0 10 13 2.886 2.591 0.297 68.090 o
0 10 14 1.227 1.800 0.356 50.939 o
0 11 1 46.490 47.654 0.554 2.440 o
0 11 2 2.765 2.572 0.138 242.464 o
0 11 3 49.508 49.197 0.593 2.188 o
0 11 4 118.584 121.122 0.900 0.403 o
0 11 5 12.869 13.264 0.208 28.984 o
0 11 6 17.476 17.833 0.227 16.936 o
0 11 7 1.202 1.256 0.129 361.989 o
0 11 8 15.837 15.766 0.237 20.038 o
0 11 9 2.249 2.146 0.138 268.128 o
0 11 10 10.705 10.900 0.267 33.303 o
0 11 11 4.584 4.401 0.237 83.619 o
0 11 12 5.627 5.776 0.257 64.964 o
0 11 13 0.471 -0.208 0.277 85.536 o
0 12 0 8.229 8.635 0.247 47.914 o
0 12 1 22.169 21.097 0.247 11.372 o
0 12 2 57.242 58.316 0.524 1.694 o
0 12 3 6.005 6.182 0.148 106.070 o
0 12 4 16.037 15.657 0.218 20.389 o
0 12 5 2.619 2.621 0.148 222.962 o
0 12 6 49.251 48.207 0.514 2.296 o
0 12 7 14.288 14.233 0.227 24.077 o
0 12 8 87.705 89.926 0.722 0.729 o
0 12 9 6.633 6.004 0.168 89.907 o
0 12 10 0.552 0.356 0.158 259.654 o
0 12 11 3.700 3.689 0.208 113.312 o
0 12 12 3.802 3.818 0.237 91.134 o
0 12 13 2.491 2.295 0.208 132.635 o
0 13 1 8.428 8.170 0.148 67.328 o
0 13 2 0.003 0.099 0.109 554.928 o
0 13 3 56.628 57.129 0.564 1.720 o
0 13 4 88.765 89.472 0.702 0.722 o
0 13 5 150.842 151.832 1.266 0.249 o
0 13 6 31.979 32.521 0.406 5.103 o
0 13 7 32.669 32.649 0.415 4.936 o
0 13 8 17.926 17.398 0.267 15.890 o
0 13 9 0.322 0.168 0.158 261.487 o
0 13 10 9.758 9.792 0.267 37.552 o
0 13 11 0.957 0.890 0.178 201.241 o
0 13 12 4.390 4.659 0.247 79.219 o
0 14 0 20.628 20.147 0.346 11.431 o
0 14 1 7.206 7.448 0.158 79.443 o
0 14 2 11.293 11.602 0.227 34.082 o
0 14 3 18.556 18.446 0.287 14.449 o
0 14 4 0.185 0.049 0.138 342.241 o
0 14 5 17.907 17.447 0.277 15.681 o
0 14 6 3.835 4.055 0.188 126.576 o
0 14 7 40.985 42.026 0.554 3.039 o
0 14 8 4.659 4.787 0.247 77.155 o
0 14 9 1.188 1.276 0.208 146.802 o
0 14 10 2.191 2.216 0.188 161.941 o
0 14 11 0.253 0.040 0.168 232.071 o
0 15 1 11.766 11.740 0.227 32.545 o
0 15 2 12.125 11.740 0.237 30.898 o
0 15 3 1.584 1.335 0.148 268.604 o
0 15 4 7.635 7.280 0.227 58.087 o
0 15 5 1.980 1.929 0.168 202.415 o
0 15 6 14.712 13.036 0.376 18.312 o
0 15 7 8.828 9.119 0.287 38.926 o
0 15 8 0.153 0.376 0.188 185.727 o
0 15 9 0.007 0.000 0.188 186.021 o
0 15 10 1.030 1.424 0.218 134.586 o
0 15 11 0.041 -0.218 0.188 186.017 o
0 16 0 486.881 512.379 4.708 0.023 o
0 16 1 59.009 59.799 0.613 1.568 o
0 16 2 270.442 285.585 2.413 0.074 o
0 16 3 12.327 12.413 0.277 27.095 o
0 16 4 0.834 0.406 0.168 228.181 o
0 16 5 9.388 9.485 0.346 30.386 o
0 16 6 0.331 0.860 0.188 184.561 o
0 16 7 0.233 0.435 0.188 185.507 o
0 16 8 5.025 5.311 0.257 69.444 o
0 16 9 12.594 12.581 0.336 23.036 o
0 16 10 2.690 2.799 0.237 101.977 o
0 17 1 85.443 86.643 0.940 0.739 o
0 17 2 53.195 56.526 0.752 1.744 o
0 17 3 63.917 68.137 0.870 1.219 o
0 17 4 32.420 34.479 0.673 4.000 o
0 17 5 5.727 5.638 0.297 53.284 o
0 17 6 0.010 0.020 0.227 126.944 o
0 17 7 13.794 14.599 0.376 18.455 o
0 17 8 1.062 1.375 0.257 97.169 o
0 17 9 0.923 0.811 0.208 149.327 o
0 18 0 1.257 1.948 0.435 34.252 o
0 18 1 154.689 166.134 1.820 0.215 o
0 18 2 2.440 2.473 0.247 97.091 o
0 18 3 21.863 22.818 0.534 8.016 o
0 18 4 5.001 5.331 0.307 53.683 o
0 18 5 9.339 9.179 0.366 28.871 o
0 18 6 0.498 0.346 0.237 116.139 o
0 18 7 0.296 0.415 0.237 116.334 o
0 18 8 0.077 -0.010 0.227 126.938 o
0 19 1 0.026 0.188 0.218 138.727 o
0 19 2 4.846 4.431 0.257 72.836 o
0 19 3 15.555 16.290 0.455 13.742 o
0 19 4 8.617 8.546 0.356 31.742 o
0 19 5 1.527 1.681 0.267 88.751 o
0 19 6 6.219 6.053 0.317 46.451 o
0 19 7 0.070 0.119 0.237 116.570 o
0 20 0 11.415 11.869 0.593 13.207 o
0 20 1 5.506 5.796 0.346 42.680 o
0 20 2 0.588 0.089 0.247 107.108 o
0 20 3 0.684 0.653 0.257 98.605 o
0 20 4 1.449 1.217 0.267 89.553 o
0 20 5 2.974 2.651 0.267 81.874 o
0 21 1 2.855 2.018 0.297 68.972 o
0 21 2 4.176 3.897 0.445 30.386 o
1 0 0 2042.490 2069.320 33.272 0.001 o
1 0 4 5801.010 6389.470 69.314 0.000 o
1 0 6 41.340 42.955 0.435 3.138 o
1 0 8 0.000 0.188 0.267 92.112 o
1 1 0 452.716 489.225 3.798 0.026 o
1 1 1 44.873 46.496 0.475 2.665 o
1 1 2 1147.940 1280.440 9.841 0.004 o
1 1 3 66.698 71.500 0.692 1.185 o
1 1 4 2099.070 2319.150 17.803 0.001 o
1 1 5 162.497 172.573 1.256 0.209 o
1 1 6 85.211 92.933 0.613 0.751 o
1 1 7 59.691 63.538 0.544 1.516 o
1 1 8 10.040 9.525 0.455 21.006 o
1 1 9 0.326 0.465 0.317 65.481 o
1 1 10 28.112 29.741 0.999 3.477 o
1 2 0 314.720 329.292 2.591 0.056 o
1 2 1 2322.050 2522.340 20.860 0.001 o
1 2 2 20.319 21.532 0.277 12.098 o
1 2 3 276.474 318.946 2.591 0.067 o
1 2 4 11.114 12.096 0.267 30.776 o
1 2 5 569.296 619.011 3.937 0.017 o
1 2 6 27.071 30.058 0.307 6.920 o
1 2 7 71.423 72.993 0.692 1.077 o
1 2 8 0.097 -0.109 0.129 397.251 o
1 2 9 65.255 65.556 1.019 1.157 o
1 2 10 13.024 12.571 0.396 19.525 o
1 2 11 5.965 6.053 0.317 47.197 o
1 3 0 1.081 0.732 0.089 735.269 o
1 3 1 1774.830 1979.890 16.310 0.002 o
1 3 2 320.870 342.842 2.957 0.052 o
1 3 3 1.136 1.385 0.148 278.074 o
1 3 4 40.686 41.155 0.386 3.352 o
1 3 5 128.510 135.236 0.959 0.337 o
1 3 6 5.440 4.955 0.148 125.695 o
1 3 7 30.261 31.373 0.396 5.589 o
1 3 8 174.463 180.229 1.503 0.182 o
1 3 9 17.223 17.200 0.376 14.187 o
1 3 10 1.757 1.741 0.247 101.894 o
1 3 11 1.941 2.206 0.267 86.682 o
1 3 12 1.749 1.899 0.277 81.902 o
1 4 0 233.363 254.834 2.077 0.098 o
1 4 1 276.194 290.560 2.532 0.071 o
1 4 2 0.129 -1.385 0.129 397.167 o
1 4 3 245.228 258.108 2.047 0.092 o
1 4 4 0.577 1.078 0.089 770.562 o
1 4 5 80.756 78.968 0.593 0.896 o
1 4 6 1.764 1.622 0.119 380.008 o
1 4 7 14.298 13.986 0.267 22.648 o
1 4 8 69.152 68.019 0.712 1.164 o
1 4 9 1.322 1.444 0.138 310.031 o
1 4 10 199.069 207.181 2.809 0.126 o
1 4 11 5.482 6.043 0.326 46.450 o
1 4 12 8.620 8.298 0.376 29.869 o
1 4 13 0.174 0.148 0.336 58.076 o
1 4 14 0.507 0.129 0.326 61.574 o
1 5 0 26.684 29.613 0.376 6.759 o
1 5 1 138.174 140.834 1.355 0.288 o
1 5 2 17.528 16.765 0.297 15.945 o
1 5 3 27.158 27.120 0.297 7.397 o
1 5 4 0.217 0.277 0.079 1039.150 o
1 5 5 52.773 55.566 0.475 1.957 o
1 5 6 26.041 24.836 0.336 7.945 o
1 5 7 156.451 159.666 1.365 0.228 o
1 5 8 130.765 132.496 1.108 0.329 o
1 5 9 5.729 5.539 0.188 93.623 o
1 5 10 6.234 6.300 0.237 66.461 o
1 5 11 6.699 5.915 0.336 41.555 o
1 5 12 2.729 2.730 0.297 68.336 o
1 5 13 1.198 1.207 0.356 51.184 o
1 5 14 0.051 -0.356 0.317 65.579 o
1 6 0 11.492 11.671 0.188 36.455 o
1 6 1 0.514 0.692 0.089 793.321 o
1 6 2 0.021 0.069 0.069 1370.060 o
1 6 3 516.820 536.067 3.224 0.021 o
1 6 4 0.057 0.188 0.089 827.904 o
1 6 5 10.879 10.306 0.208 39.296 o
1 6 6 0.041 0.099 0.119 466.215 o
1 6 7 196.921 200.208 1.672 0.145 o
1 6 8 1.005 0.712 0.099 615.275 o
1 6 9 18.841 18.238 0.267 14.645 o
1 6 10 1.365 0.940 0.188 177.839 o
1 6 11 19.093 18.990 0.415 11.587 o
1 6 12 0.730 0.831 0.346 54.531 o
1 6 13 0.117 -0.396 0.317 65.576 o
1 6 14 0.267 0.534 0.317 65.490 o
1 6 15 0.045 -0.455 0.307 69.878 o
1 7 0 132.440 138.253 0.999 0.319 o
1 7 1 2.488 3.076 0.099 373.187 o
1 7 2 5.341 5.143 0.129 140.532 o
1 7 3 12.700 12.007 0.178 32.764 o
1 7 4 151.148 152.802 1.039 0.252 o
1 7 5 12.076 11.681 0.237 31.097 o
1 7 6 131.914 133.337 1.217 0.320 o
1 7 7 7.502 7.369 0.168 74.100 o
1 7 8 2.802 2.868 0.119 288.811 o
1 7 9 30.628 30.355 0.317 5.904 o
1 7 10 6.476 6.152 0.198 79.000 o
1 7 11 1.999 1.681 0.208 139.676 o
1 7 12 0.500 0.534 0.267 91.752 o
1 7 13 3.527 3.531 0.396 38.635 o
1 7 14 1.821 1.899 0.366 47.733 o
1 8 0 577.334 609.901 4.075 0.017 o
1 8 1 132.579 138.539 0.930 0.320 o
1 8 2 2397.280 2535.020 14.975 0.001 o
1 8 3 4.970 4.757 0.129 154.243 o
1 8 4 1306.600 1397.500 8.644 0.003 o
1 8 5 26.957 27.160 0.376 7.032 o
1 8 6 47.287 47.752 0.564 2.379 o
1 8 7 57.813 58.237 0.475 1.697 o
1 8 8 9.533 9.287 0.188 49.656 o
1 8 9 3.141 2.947 0.138 223.061 o
1 8 10 25.474 25.924 0.307 8.141 o
1 8 11 0.660 0.485 0.198 166.215 o
1 8 12 8.832 8.575 0.376 29.285 o
1 8 13 0.112 0.168 0.317 65.568 o
1 8 14 0.008 0.495 0.346 54.805 o
1 9 0 415.661 442.194 3.363 0.032 o
1 9 1 49.737 50.967 0.475 2.223 o
1 9 2 0.554 0.732 0.089 788.434 o
1 9 3 28.095 28.911 0.307 6.789 o
1 9 4 115.536 117.522 1.019 0.418 o
1 9 5 191.078 193.463 1.642 0.154 o
1 9 6 234.005 244.281 1.622 0.103 o
1 9 7 55.002 54.359 0.465 1.890 o
1 9 8 2.025 2.067 0.129 312.128 o
1 9 9 5.847 5.519 0.158 108.066 o
1 9 10 0.403 0.346 0.129 393.552 o
1 9 11 1.287 0.752 0.267 90.426 o
1 9 12 3.700 3.531 0.317 57.331 o
1 9 13 0.670 0.673 0.297 74.203 o
1 9 14 6.469 5.509 0.415 30.753 o
1 10 0 2.212 2.878 0.148 230.946 o
1 10 1 350.270 379.260 2.947 0.044 o
1 10 2 2.291 2.443 0.129 292.140 o
1 10 3 217.530 225.439 1.503 0.120 o
1 10 4 2.108 2.186 0.168 197.785 o
1 10 5 195.475 199.001 1.424 0.149 o
1 10 6 7.473 7.448 0.158 76.798 o
1 10 7 15.615 15.192 0.227 21.073 o
1 10 8 20.559 19.920 0.267 12.614 o
1 10 9 24.405 23.678 0.297 9.099 o
1 10 10 1.113 0.860 0.129 371.545 o
1 10 11 3.441 3.333 0.198 127.017 o
1 10 12 1.985 2.473 0.317 62.458 o
1 10 13 0.702 0.277 0.287 79.520 o
1 11 0 112.351 117.848 1.088 0.428 o
1 11 1 112.897 117.057 1.078 0.428 o
1 11 2 7.192 7.121 0.198 69.203 o
1 11 3 0.011 0.030 0.089 829.026 o
1 11 4 18.307 17.833 0.237 15.868 o
1 11 5 27.756 27.694 0.297 7.115 o
1 11 6 57.758 57.633 0.495 1.701 o
1 11 7 5.081 4.817 0.148 133.856 o
1 11 8 7.744 7.547 0.178 68.637 o
1 11 9 0.000 -0.178 0.109 554.990 o
1 11 10 5.954 6.192 0.227 71.978 o
1 11 11 0.038 -0.188 0.158 262.312 o
1 11 12 2.005 1.652 0.307 67.118 o
1 11 13 2.535 2.868 0.317 60.954 o
1 12 0 58.562 61.075 0.554 1.588 o
1 12 1 3.938 3.580 0.129 202.964 o
1 12 2 1.299 1.375 0.119 410.821 o
1 12 3 28.878 27.635 0.366 6.481 o
1 12 4 5.979 5.707 0.168 99.656 o
1 12 5 0.086 0.336 0.129 396.611 o
1 12 6 1.530 1.355 0.119 399.627 o
1 12 7 1.988 1.948 0.129 316.350 o
1 12 8 62.142 62.005 0.554 1.462 o
1 12 9 4.506 4.481 0.198 107.532 o
1 12 10 37.836 38.267 0.514 3.588 o
1 12 11 7.601 7.794 0.247 52.581 o
1 12 12 14.877 15.420 0.475 13.931 o
1 13 0 44.024 45.072 0.396 2.863 o
1 13 1 32.193 32.827 0.317 5.297 o
1 13 2 10.823 10.633 0.178 41.739 o
1 13 3 1.527 1.681 0.168 212.074 o
1 13 4 13.471 13.194 0.247 25.712 o
1 13 5 15.588 15.083 0.267 19.938 o
1 13 6 46.095 45.379 0.504 2.589 o
1 13 7 58.729 58.345 0.554 1.628 o
1 13 8 16.209 14.777 0.247 19.915 o
1 13 9 32.513 32.788 0.455 4.826 o
1 13 10 10.657 10.623 0.267 33.800 o
1 13 11 0.032 -0.247 0.168 232.362 o
1 13 12 1.580 1.187 0.297 72.733 o
1 14 0 12.055 11.988 0.188 34.123 o
1 14 1 13.634 14.391 0.208 26.016 o
1 14 2 4.591 4.283 0.148 149.709 o
1 14 3 1.037 1.118 0.168 222.680 o
1 14 4 0.349 0.485 0.158 260.563 o
1 14 5 19.515 19.425 0.297 13.131 o
1 14 6 2.436 2.028 0.158 213.394 o
1 14 7 12.371 11.958 0.267 28.097 o
1 14 8 0.251 0.188 0.188 185.719 o
1 14 9 29.700 30.226 0.435 5.670 o
1 14 10 0.246 0.435 0.168 231.518 o
1 14 11 5.873 5.934 0.227 73.430 o
1 15 0 16.585 16.448 0.227 18.835 o
1 15 1 8.363 8.368 0.188 59.035 o
1 15 2 7.919 7.725 0.227 55.332 o
1 15 3 0.250 0.069 0.168 232.045 o
1 15 4 10.466 10.257 0.277 33.854 o
1 15 5 0.872 0.811 0.168 226.068 o
1 15 6 32.312 31.383 0.475 4.912 o
1 15 7 7.343 7.319 0.277 48.620 o
1 15 8 2.378 2.463 0.227 113.192 o
1 15 9 2.859 2.779 0.237 100.977 o
1 15 10 0.422 0.524 0.208 151.482 o
1 15 11 2.439 1.978 0.227 114.409 o
1 16 0 126.709 131.497 1.137 0.343 o
1 16 1 5.717 5.737 0.198 87.946 o
1 16 2 435.524 460.116 4.263 0.028 o
1 16 3 104.640 107.354 1.197 0.486 o
1 16 4 288.204 284.685 2.819 0.067 o
1 16 5 2.832 2.997 0.267 81.745 o
1 16 6 22.991 22.927 0.534 7.656 o
1 16 7 6.786 7.042 0.277 51.338 o
1 16 8 0.414 0.148 0.188 185.418 o
1 16 9 1.738 1.642 0.227 119.638 o
1 16 10 4.355 4.332 0.257 75.812 o
1 17 0 61.199 62.855 0.811 1.369 o
1 17 1 85.212 88.789 1.058 0.712 o
1 17 2 1.208 1.622 0.277 83.513 o
1 17 3 21.283 21.591 0.514 8.631 o
1 17 4 31.871 33.045 0.653 4.221 o
1 17 5 119.475 125.424 1.761 0.344 o
1 17 6 47.651 49.394 0.860 2.011 o
1 17 7 11.573 11.681 0.396 21.692 o
1 17 8 1.332 1.296 0.227 122.467 o
1 17 9 0.238 0.415 0.208 151.938 o
1 18 0 1.381 2.028 0.227 120.502 o
1 18 1 66.569 69.710 1.088 1.069 o
1 18 2 0.744 0.752 0.267 91.342 o
1 18 3 193.395 212.403 2.779 0.129 o
1 18 4 2.080 2.443 0.287 75.052 o
1 18 5 23.192 23.362 0.534 7.533 o
1 18 6 5.674 6.419 0.336 43.458 o
1 18 7 11.492 11.671 0.396 21.795 o
1 18 8 2.387 1.968 0.267 85.540 o
1 19 0 9.182 9.109 0.297 36.680 o
1 19 1 6.113 5.895 0.485 23.933 o
1 19 2 2.935 2.769 0.277 76.656 o
1 19 3 0.467 0.109 0.247 107.216 o
1 19 4 0.819 0.722 0.257 98.341 o
1 19 5 1.588 1.800 0.267 88.414 o
1 19 6 2.409 2.651 0.277 78.746 o
1 20 0 0.637 1.019 0.425 36.192 o
1 20 1 5.037 5.331 0.475 25.861 o
1 20 2 8.339 8.269 0.514 19.344 o
1 20 3 2.759 3.155 0.287 71.916 o
1 20 4 3.359 3.185 0.277 74.210 o
1 20 5 1.571 1.335 0.356 50.846 o
1 21 0 3.078 2.324 0.435 33.167 o
1 21 1 6.398 5.648 0.495 23.002 o
2 0 0 1784.930 1795.570 23.125 0.002 o
2 0 2 540.438 657.219 7.240 0.016 o
2 0 4 3052.780 3356.120 31.235 0.001 o
2 0 6 3077.920 3394.120 26.972 0.001 o
2 0 8 41.354 40.483 0.900 2.487 o
2 1 0 66.019 65.674 0.633 1.284 o
2 1 1 9.274 9.119 0.198 49.965 o
2 1 2 7.855 9.841 0.227 50.333 o
2 1 3 61.899 65.308 0.722 1.359 o
2 1 4 266.094 295.940 2.077 0.075 o
2 1 5 49.642 50.453 0.435 2.270 o
2 1 6 389.821 414.945 2.710 0.037 o
2 1 7 67.759 68.998 0.653 1.200 o
2 1 8 242.095 258.692 2.868 0.088 o
2 1 9 72.206 68.098 1.672 0.797 o
2 2 0 39.986 35.013 0.376 3.783 o
2 2 1 52.832 52.668 0.514 1.997 o
2 2 2 171.939 176.638 1.602 0.186 o
2 2 3 524.808 582.178 4.599 0.019 o
2 2 4 49.941 53.084 0.435 2.181 o
2 2 5 118.125 119.707 0.910 0.408 o
2 2 6 21.414 21.868 0.287 11.187 o
2 2 7 123.741 132.308 1.098 0.353 o
2 2 8 52.514 53.895 0.682 1.870 o
2 2 9 57.005 58.088 0.791 1.564 o
2 2 10 0.000 -0.049 0.208 152.276 o
2 3 0 4518.790 4665.030 37.219 0.000 o
2 3 1 1615.890 1766.020 13.580 0.002 o
2 3 2 136.608 154.147 1.434 0.273 o
2 3 3 385.664 432.472 3.511 0.035 o
2 3 4 85.573 87.394 0.673 0.771 o
2 3 5 205.956 215.766 1.503 0.132 o
2 3 6 0.811 0.841 0.109 522.665 o
2 3 7 43.232 44.014 0.504 2.846 o
2 3 8 1.071 1.197 0.198 162.305 o
2 3 9 1.934 1.840 0.188 167.394 o
2 3 10 19.973 19.969 0.495 9.694 o
2 3 11 9.325 9.980 0.376 27.356 o
2 3 12 8.826 9.406 0.475 20.940 o
2 4 0 0.094 0.297 0.109 553.668 o
2 4 1 103.263 96.998 0.979 0.544 o
2 4 2 785.184 825.935 6.904 0.009 o
2 4 3 119.517 124.455 0.880 0.393 o
2 4 4 5.379 6.449 0.148 113.794 o
2 4 5 30.885 32.155 0.336 5.580 o
2 4 6 17.531 18.496 0.247 16.134 o
2 4 7 0.490 0.435 0.138 338.358 o
2 4 8 0.127 -0.138 0.138 342.483 o
2 4 9 1.060 0.821 0.148 284.954 o
2 4 10 8.763 9.129 0.356 30.915 o
2 4 11 2.314 2.443 0.277 79.410 o
2 4 12 94.037 88.759 1.800 0.526 o
2 4 13 0.007 -0.030 0.307 69.879 o
2 5 0 1865.710 2007.650 15.578 0.002 o
2 5 1 682.559 746.196 6.261 0.011 o
2 5 2 159.575 174.146 1.197 0.213 o
2 5 3 755.989 808.171 4.985 0.010 o
2 5 4 7.823 7.003 0.148 78.301 o
2 5 5 0.241 0.287 0.099 666.670 o
2 5 6 2.479 2.572 0.129 281.069 o
2 5 7 12.050 11.335 0.267 29.485 o
2 5 8 1.553 1.365 0.138 304.353 o
2 5 9 75.062 75.288 0.692 0.994 o
2 5 10 28.519 28.515 0.415 6.223 o
2 5 11 1.512 1.424 0.267 89.134 o
2 5 12 7.949 7.418 0.445 24.913 o
2 5 13 1.948 1.523 0.336 56.327 o
2 5 14 1.933 2.028 0.356 50.158 o
2 6 0 3.854 3.758 0.129 202.798 o
2 6 1 407.886 409.733 2.661 0.035 o
2 6 2 14.242 14.154 0.188 25.797 o
2 6 3 0.996 1.246 0.089 714.904 o
2 6 4 2.815 2.344 0.119 301.950 o
2 6 5 105.976 104.980 0.821 0.514 o
2 6 6 0.924 0.989 0.138 326.100 o
2 6 7 29.751 28.792 0.356 6.155 o
2 6 8 1.582 1.563 0.148 265.900 o
2 6 9 33.833 33.411 0.396 4.729 o
2 6 10 1.056 1.177 0.168 222.108 o
2 6 11 40.209 39.820 0.584 3.151 o
2 6 12 1.141 1.454 0.336 57.239 o
2 6 13 3.527 3.501 0.396 38.652 o
2 6 14 0.251 0.317 0.326 61.619 o
2 7 0 112.939 117.571 0.821 0.441 o
2 7 1 35.924 35.013 0.326 4.426 o
2 7 2 43.598 43.430 0.376 2.986 o
2 7 3 61.552 62.846 0.544 1.470 o
2 7 4 0.002 0.040 0.099 671.521 o
2 7 5 8.070 8.466 0.188 60.627 o
2 7 6 122.797 120.934 1.128 0.376 o
2 7 7 52.319 52.886 0.475 2.041 o
2 7 8 126.494 129.994 1.019 0.351 o
2 7 9 1.113 1.296 0.168 220.685 o
2 7 10 8.097 7.883 0.227 53.984 o
2 7 11 29.722 29.197 0.495 5.509 o
2 7 12 2.966 2.344 0.297 68.213 o
2 7 13 0.084 0.030 0.336 58.089 o
2 7 14 0.098 0.208 0.317 65.567 o
2 8 0 45.718 43.401 0.356 2.831 o
2 8 1 209.975 213.788 1.484 0.130 o
2 8 2 15.451 16.142 0.208 21.182 o
2 8 3 28.890 28.762 0.326 6.504 o
2 8 4 1325.630 1420.660 9.010 0.003 o
2 8 5 17.905 17.675 0.267 15.775 o
2 8 6 834.663 865.814 5.440 0.008 o
2 8 7 7.140 7.131 0.168 78.602 o
2 8 8 113.515 114.910 0.900 0.440 o
2 8 9 6.519 6.528 0.208 73.544 o
2 8 10 6.522 6.014 0.208 75.545 o
2 8 11 3.678 3.195 0.247 88.094 o
2 8 12 4.047 4.204 0.336 50.022 o
2 8 13 3.405 3.838 0.406 36.881 o
2 8 14 6.281 7.022 0.455 25.938 o
2 9 0 64.435 66.347 0.663 1.304 o
2 9 1 4.622 3.838 0.119 189.126 o
2 9 2 229.599 240.493 1.553 0.107 o
2 9 3 135.407 138.826 1.058 0.307 o
2 9 4 13.265 12.967 0.227 27.377 o
2 9 5 30.767 30.671 0.376 5.630 o
2 9 6 84.405 83.399 0.643 0.812 o
2 9 7 85.936 83.943 0.653 0.789 o
2 9 8 146.131 150.477 1.147 0.263 o
2 9 9 101.761 100.826 0.900 0.548 o
2 9 10 14.819 14.895 0.297 20.071 o
2 9 11 0.001 -0.188 0.218 138.747 o
2 9 12 2.296 2.581 0.317 61.753 o
2 9 13 0.621 0.406 0.297 74.338 o
2 10 0 0.721 1.029 0.129 380.421 o
2 10 1 2.939 2.799 0.158 192.509 o
2 10 2 11.785 11.315 0.208 34.583 o
2 10 3 160.002 163.454 1.236 0.221 o
2 10 4 18.564 17.774 0.247 15.466 o
2 10 5 144.421 147.510 1.039 0.273 o
2 10 6 15.213 14.826 0.218 22.316 o
2 10 7 99.912 99.135 0.762 0.578 o
2 10 8 0.268 0.317 0.109 550.913 o
2 10 9 22.205 21.137 0.297 10.834 o
2 10 10 22.538 21.849 0.435 9.002 o
2 10 11 6.204 6.637 0.297 49.842 o
2 10 12 0.007 -0.158 0.287 79.850 o
2 10 13 5.932 6.300 0.366 37.814 o
2 11 0 51.621 54.557 0.613 1.944 o
2 11 1 59.593 60.482 0.673 1.511 o
2 11 2 154.465 164.948 1.642 0.221 o
2 11 3 102.613 103.061 0.811 0.542 o
2 11 4 0.266 0.198 0.089 822.375 o
2 11 5 28.772 28.208 0.297 6.737 o
2 11 6 5.840 5.351 0.148 115.244 o
2 11 7 7.176 6.597 0.168 80.887 o
2 11 8 1.509 1.484 0.129 346.156 o
2 11 9 1.161 1.236 0.138 317.338 o
2 11 10 10.222 9.554 0.317 31.471 o
2 11 11 0.102 0.089 0.227 126.919 o
2 11 12 0.002 0.040 0.227 126.944 o
2 11 13 0.270 0.346 0.277 85.550 o
2 12 0 1.934 1.968 0.119 361.006 o
2 12 1 30.876 30.651 0.326 5.780 o
2 12 2 10.795 10.514 0.188 41.148 o
2 12 3 2.609 2.572 0.119 306.880 o
2 12 4 56.264 56.654 0.564 1.742 o
2 12 5 16.226 15.518 0.218 20.216 o
2 12 6 0.222 -0.059 0.109 553.873 o
2 12 7 1.177 0.940 0.119 426.698 o
2 12 8 12.348 11.859 0.218 31.498 o
2 12 9 0.747 0.771 0.168 227.386 o
2 12 10 27.911 27.447 0.415 6.510 o
2 12 11 0.971 1.058 0.237 114.381 o
2 12 12 20.180 21.196 0.435 10.161 o
2 13 0 66.398 67.237 0.653 1.250 o
2 13 1 215.935 225.489 1.652 0.120 o
2 13 2 80.026 82.380 0.732 0.861 o
2 13 3 46.953 47.930 0.554 2.403 o
2 13 4 1.549 1.622 0.148 265.979 o
2 13 5 15.162 14.401 0.267 21.013 o
2 13 6 2.449 2.245 0.138 259.358 o
2 13 7 0.981 0.801 0.129 376.392 o
2 13 8 2.757 2.888 0.188 149.880 o
2 13 9 14.774 14.332 0.297 20.508 o
2 13 10 16.090 15.341 0.317 17.631 o
2 13 11 15.746 15.637 0.376 16.053 o
2 13 12 1.231 1.177 0.218 134.217 o
2 14 0 6.382 6.459 0.178 86.126 o
2 14 1 0.087 0.267 0.119 465.569 o
2 14 2 0.287 0.277 0.119 463.477 o
2 14 3 2.508 2.591 0.188 155.315 o
2 14 4 2.936 2.720 0.188 148.558 o
2 14 5 0.477 0.148 0.148 296.486 o
2 14 6 11.561 11.167 0.247 32.363 o
2 14 7 4.141 3.739 0.227 94.955 o
2 14 8 2.574 2.572 0.188 154.560 o
2 14 9 10.490 10.801 0.277 33.086 o
2 14 10 1.391 1.306 0.188 175.981 o
2 14 11 10.810 10.237 0.326 28.691 o
2 15 0 25.986 26.369 0.346 7.636 o
2 15 1 0.057 -0.049 0.119 466.294 o
2 15 2 5.694 5.697 0.178 98.178 o
2 15 3 0.171 0.079 0.178 207.124 o
2 15 4 5.154 5.104 0.227 81.705 o
2 15 5 4.292 3.877 0.218 99.415 o
2 15 6 20.892 20.266 0.406 10.445 o
2 15 7 3.186 3.472 0.227 103.554 o
2 15 8 26.524 27.031 0.495 6.452 o
2 15 9 5.648 5.390 0.227 76.980 o
2 15 10 2.548 2.483 0.188 155.511 o
2 16 0 3.952 4.243 0.247 83.217 o
2 16 1 15.671 15.776 0.336 17.246 o
2 16 2 15.964 15.914 0.356 16.305 o
2 16 3 0.255 -0.198 0.188 185.856 o
2 16 4 287.231 311.756 3.937 0.060 o
2 16 5 56.679 59.107 0.959 1.457 o
2 16 6 206.775 216.112 2.819 0.118 o
2 16 7 2.965 2.868 0.237 100.014 o
2 16 8 43.634 45.161 0.673 2.558 o
2 16 9 9.161 9.634 0.425 23.874 o
2 17 0 0.185 0.227 0.227 126.839 o
2 17 1 20.310 20.494 0.495 9.450 o
2 17 2 40.576 44.221 0.791 2.604 o
2 17 3 38.341 41.116 0.752 2.934 o
2 17 4 5.761 5.766 0.326 46.071 o
2 17 5 0.133 0.653 0.267 91.986 o
2 17 6 16.417 16.646 0.465 12.844 o
2 17 7 110.171 117.462 1.662 0.397 o
2 17 8 36.342 38.673 0.613 3.509 o
2 17 9 19.821 19.910 0.722 6.921 o
2 18 0 0.028 -0.049 0.237 116.586 o
2 18 1 12.280 13.105 0.415 19.113 o
2 18 2 0.170 -0.129 0.257 99.319 o
2 18 3 28.578 30.879 0.643 4.872 o
2 18 4 0.026 -0.010 0.247 107.445 o
2 18 5 111.511 116.681 1.652 0.395 o
2 18 6 0.979 0.860 0.267 90.895 o
2 18 7 35.794 36.744 0.702 3.441 o
2 19 0 19.028 18.585 0.485 10.563 o
2 19 1 0.969 1.365 0.415 37.781 o
2 19 2 12.956 12.294 0.593 12.435 o
2 19 3 25.817 25.745 0.574 6.248 o
2 19 4 5.178 5.084 0.317 50.952 o
2 19 5 0.545 0.356 0.257 98.962 o
2 19 6 0.204 0.138 0.247 107.383 o
2 20 0 6.593 6.755 0.336 40.787 o
2 20 1 24.561 23.955 0.791 5.171 o
2 20 2 2.280 1.672 0.415 37.063 o
2 20 3 0.008 0.010 0.247 107.446 o
2 20 4 4.927 4.649 0.307 55.025 o
2 21 0 26.650 24.549 0.811 4.730 o
3 0 0 2107.190 2110.130 23.065 0.001 o
3 0 2 1159.220 1282.020 13.986 0.004 o
3 0 4 5.504 6.755 0.247 66.219 o
3 0 6 365.548 395.095 3.333 0.040 o
3 0 8 1157.240 1254.780 17.170 0.004 o
3 1 0 137.279 122.220 1.058 0.327 o
3 1 1 44.958 49.434 0.554 2.479 o
3 1 2 248.561 271.550 2.443 0.085 o
3 1 3 2.766 1.840 0.129 284.510 o
3 1 4 57.308 60.986 0.485 1.661 o
3 1 5 33.499 34.153 0.336 4.875 o
3 1 6 12.563 13.095 0.247 27.673 o
3 1 7 5.363 5.519 0.208 87.613 o
3 1 8 23.380 23.115 0.425 8.533 o
3 1 9 34.849 34.835 0.653 3.766 o
3 2 0 388.067 419.851 3.353 0.036 o
3 2 1 13.992 14.895 0.277 22.007 o
3 2 2 133.573 134.385 1.276 0.312 o
3 2 3 23.483 25.736 0.267 9.266 o
3 2 4 140.005 140.794 0.989 0.294 o
3 2 5 15.163 17.071 0.307 17.997 o
3 2 6 10.400 10.385 0.227 38.854 o
3 2 7 71.416 73.201 0.712 1.070 o
3 2 8 6.812 6.805 0.247 58.926 o
3 2 9 18.466 18.684 0.317 13.879 o
3 3 0 63.858 69.522 0.682 1.273 o
3 3 1 30.101 33.352 0.406 5.383 o
3 3 2 933.264 1023.780 8.516 0.006 o
3 3 3 653.376 711.776 5.024 0.013 o
3 3 4 316.941 338.698 2.324 0.055 o
3 3 5 128.278 139.627 1.147 0.324 o
3 3 6 2.940 3.195 0.158 187.813 o
3 3 7 141.309 148.104 1.246 0.274 o
3 3 8 18.483 18.644 0.287 14.427 o
3 3 9 0.022 -0.069 0.129 397.354 o
3 3 10 2.304 2.611 0.188 157.904 o
3 4 0 161.700 173.078 1.503 0.205 o
3 4 1 0.554 0.544 0.089 795.980 o
3 4 2 83.767 87.127 0.673 0.794 o
3 4 3 14.699 15.538 0.218 22.578 o
3 4 4 367.866 376.698 2.710 0.042 o
3 4 5 0.063 0.000 0.109 554.901 o
3 4 6 38.806 39.830 0.455 3.511 o
3 4 7 5.012 4.401 0.188 108.731 o
3 4 8 22.238 22.709 0.297 10.384 o
3 4 9 10.317 10.395 0.227 39.124 o
3 4 10 2.682 2.601 0.188 152.888 o
3 4 11 5.177 4.886 0.297 56.602 o
3 4 12 1.802 1.662 0.326 59.788 o
3 5 0 71.513 67.811 0.682 1.127 o
3 5 1 644.230 694.566 4.302 0.013 o
3 5 2 703.199 740.657 4.560 0.011 o
3 5 3 106.349 112.685 0.860 0.486 o
3 5 4 193.250 205.895 1.484 0.147 o
3 5 5 459.773 495.090 3.491 0.026 o
3 5 6 3.516 3.214 0.168 160.479 o
3 5 7 15.303 15.518 0.257 20.351 o
3 5 8 4.584 4.461 0.178 121.423 o
3 5 9 9.487 9.505 0.227 43.913 o
3 5 10 0.230 0.049 0.158 261.992 o
3 5 11 6.446 5.667 0.247 63.970 o
3 5 12 3.365 3.373 0.366 44.923 o
3 5 13 4.500 4.599 0.376 40.161 o
3 6 0 7.386 5.588 0.129 98.726 o
3 6 1 7.201 7.576 0.138 84.817 o
3 6 2 2.084 2.384 0.119 340.991 o
3 6 3 3.162 3.096 0.129 241.200 o
3 6 4 7.475 7.428 0.168 74.076 o
3 6 5 18.457 18.357 0.267 14.935 o
3 6 6 2.050 2.146 0.148 245.882 o
3 6 7 0.094 0.267 0.129 396.759 o
3 6 8 0.207 0.208 0.148 297.829 o
3 6 9 34.281 34.034 0.415 4.554 o
3 6 10 2.860 2.878 0.188 148.507 o
3 6 11 1.560 1.444 0.188 173.667 o
3 6 12 1.773 1.761 0.356 50.464 o
3 6 13 22.771 23.016 0.732 5.957 o
3 6 14 0.917 0.989 0.336 57.602 o
3 7 0 3.839 3.452 0.089 287.261 o
3 7 1 23.727 25.113 0.277 9.227 o
3 7 2 59.428 62.242 0.534 1.549 o
3 7 3 104.224 105.010 0.821 0.524 o
3 7 4 0.210 0.158 0.109 553.105 o
3 7 5 31.692 32.155 0.376 5.287 o
3 7 6 10.680 9.535 0.168 45.804 o
3 7 7 2.422 2.483 0.148 230.614 o
3 7 8 60.839 60.581 0.593 1.507 o
3 7 9 14.218 13.679 0.267 23.026 o
3 7 10 84.274 84.229 0.791 0.788 o
3 7 11 7.146 7.517 0.297 45.172 o
3 7 12 19.991 19.781 0.534 9.173 o
3 7 13 7.528 7.200 0.455 24.626 o
3 7 14 0.113 0.297 0.307 69.855 o
3 8 0 3.818 3.116 0.099 276.885 o
3 8 1 5.351 5.509 0.148 122.297 o
3 8 2 8.698 8.338 0.178 58.873 o
3 8 3 33.606 32.570 0.356 4.947 o
3 8 4 39.972 39.039 0.415 3.493 o
3 8 5 12.767 12.660 0.237 28.276 o
3 8 6 391.190 409.891 2.858 0.037 o
3 8 7 38.471 38.050 0.425 3.699 o
3 8 8 495.586 513.398 3.798 0.023 o
3 8 9 0.044 -0.030 0.168 232.358 o
3 8 10 93.519 94.160 0.940 0.630 o
3 8 11 0.047 0.386 0.237 116.529 o
3 8 12 0.174 0.000 0.227 126.909 o
3 8 13 6.181 7.655 0.475 23.999 o
3 9 0 0.315 0.593 0.099 659.357 o
3 9 1 0.002 0.247 0.099 671.018 o
3 9 2 29.281 30.068 0.346 6.154 o
3 9 3 11.685 11.988 0.218 33.150 o
3 9 4 20.873 20.602 0.297 11.794 o
3 9 5 103.181 102.221 0.752 0.545 o
3 9 6 63.328 62.618 0.514 1.432 o
3 9 7 1.914 2.117 0.168 201.921 o
3 9 8 48.571 49.097 0.524 2.301 o
3 9 9 48.012 46.704 0.524 2.404 o
3 9 10 67.263 66.802 0.950 1.134 o
3 9 11 58.788 59.799 0.811 1.475 o
3 9 12 29.127 29.840 0.524 5.424 o
3 9 13 6.326 5.470 0.356 39.479 o
3 10 0 0.445 0.623 0.129 390.824 o
3 10 1 0.934 1.078 0.129 373.705 o
3 10 2 40.542 40.839 0.435 3.313 o
3 10 3 1.205 1.276 0.129 361.518 o
3 10 4 11.320 10.534 0.148 42.444 o
3 10 5 20.975 19.554 0.227 12.929 o
3 10 6 15.642 15.252 0.227 20.988 o
3 10 7 89.340 88.285 0.732 0.719 o
3 10 8 1.504 1.424 0.168 214.389 o
3 10 9 31.768 30.701 0.415 5.281 o
3 10 10 1.961 2.107 0.247 100.258 o
3 10 11 16.767 17.111 0.406 13.863 o
3 10 12 5.962 6.004 0.287 54.272 o
3 10 13 1.053 0.870 0.287 78.826 o
3 11 0 15.493 16.755 0.356 16.352 o
3 11 1 4.311 4.243 0.188 118.826 o
3 11 2 82.131 85.663 0.732 0.814 o
3 11 3 28.815 29.029 0.267 6.722 o
3 11 4 47.636 48.118 0.376 2.506 o
3 11 5 63.129 62.757 0.514 1.436 o
3 11 6 25.841 24.786 0.297 8.279 o
3 11 7 45.949 45.092 0.425 2.687 o
3 11 8 0.232 -0.010 0.148 298.108 o
3 11 9 0.076 0.119 0.227 126.923 o
3 11 10 3.423 2.967 0.267 79.212 o
3 11 11 0.356 0.702 0.227 126.356 o
3 11 12 5.082 5.272 0.277 62.304 o
3 12 0 153.009 158.034 1.563 0.231 o
3 12 1 5.231 4.985 0.148 129.329 o
3 12 2 0.398 0.574 0.109 544.567 o
3 12 3 20.337 20.088 0.277 12.582 o
3 12 4 1.846 1.939 0.099 482.797 o
3 12 5 13.658 12.947 0.208 27.520 o
3 12 6 64.290 63.241 0.544 1.387 o
3 12 7 2.826 2.789 0.138 236.550 o
3 12 8 2.855 2.809 0.148 213.521 o
3 12 9 2.249 1.741 0.237 107.619 o
3 12 10 4.827 4.886 0.277 64.279 o
3 12 11 0.141 0.168 0.218 138.675 o
3 12 12 1.936 2.117 0.247 100.346 o
3 13 0 35.501 36.081 0.495 4.035 o
3 13 1 54.197 54.755 0.534 1.879 o
3 13 2 108.021 110.944 0.940 0.477 o
3 13 3 181.939 188.487 1.503 0.168 o
3 13 4 36.902 36.724 0.425 3.970 o
3 13 5 54.913 54.468 0.485 1.882 o
3 13 6 8.693 8.229 0.188 57.388 o
3 13 7 16.634 16.260 0.257 18.144 o
3 13 8 1.193 1.276 0.168 219.785 o
3 13 9 1.124 1.137 0.227 123.641 o
3 13 10 1.090 0.771 0.227 124.420 o
3 13 11 2.804 2.947 0.247 93.888 o
3 14 0 31.687 32.293 0.475 4.941 o
3 14 1 10.154 10.454 0.267 35.417 o
3 14 2 13.158 13.135 0.247 26.392 o
3 14 3 1.311 1.484 0.138 309.754 o
3 14 4 0.224 0.178 0.168 231.979 o
3 14 5 1.985 1.741 0.168 203.978 o
3 14 6 4.469 3.976 0.188 118.510 o
3 14 7 0.268 0.326 0.158 261.384 o
3 14 8 5.373 5.232 0.218 84.067 o
3 14 9 0.008 0.495 0.227 126.868 o
3 14 10 0.149 -0.049 0.208 152.238 o
3 14 11 4.582 4.965 0.267 68.861 o
3 15 0 0.482 0.900 0.178 204.560 o
3 15 1 19.858 20.365 0.376 11.390 o
3 15 2 10.527 10.761 0.227 37.784 o
3 15 3 0.273 -0.030 0.138 341.978 o
3 15 4 0.890 0.475 0.188 182.848 o
3 15 5 0.098 -0.089 0.208 152.260 o
3 15 6 0.002 -0.119 0.188 186.021 o
3 15 7 2.954 2.483 0.227 109.046 o
3 15 8 25.165 24.806 0.396 7.843 o
3 15 9 0.383 0.346 0.218 138.311 o
3 15 10 14.455 14.935 0.376 17.603 o
3 16 0 1.529 1.464 0.208 144.043 o
3 16 1 0.029 -0.020 0.158 262.315 o
3 16 2 0.935 0.811 0.158 253.546 o
3 16 3 32.235 32.343 0.554 4.570 o
3 16 4 0.689 0.366 0.247 106.805 o
3 16 5 0.706 0.356 0.247 106.788 o
3 16 6 110.961 113.447 1.602 0.407 o
3 16 7 9.958 9.960 0.336 29.757 o
3 16 8 123.123 128.550 1.484 0.343 o
3 16 9 11.655 11.265 0.465 18.232 o
3 17 0 0.493 0.643 0.237 115.928 o
3 17 1 40.075 42.214 0.762 2.753 o
3 17 2 0.157 0.218 0.208 152.156 o
3 17 3 6.549 6.310 0.336 41.439 o
3 17 4 12.768 12.996 0.415 18.679 o
3 17 5 18.825 19.416 0.495 10.306 o
3 17 6 10.591 10.603 0.396 23.596 o
3 17 7 4.205 4.302 0.317 54.897 o
3 17 8 6.529 6.330 0.307 47.138 o
3 18 0 5.440 5.292 0.317 49.871 o
3 18 1 0.107 0.317 0.237 116.516 o
3 18 2 1.932 2.117 0.425 35.472 o
3 18 3 0.007 -0.049 0.257 99.340 o
3 18 4 0.112 -0.109 0.267 92.110 o
3 18 5 17.721 17.754 0.475 11.591 o
3 18 6 0.263 0.218 0.267 92.032 o
3 18 7 32.546 33.945 0.663 4.049 o
3 19 0 0.023 -0.208 0.247 107.446 o
3 19 1 0.318 0.465 0.247 107.190 o
3 19 2 7.977 7.181 0.514 19.962 o
3 19 3 0.844 1.602 0.415 37.783 o
3 19 4 12.763 11.612 0.396 20.345 o
3 19 5 22.211 22.333 0.524 8.086 o
3 20 0 2.787 2.789 0.277 77.165 o
3 20 1 2.941 3.580 0.455 30.162 o
3 20 2 7.984 7.349 0.504 20.527 o
3 20 3 9.398 8.734 0.534 17.440 o
3 20 4 1.917 1.691 0.396 41.006 o
4 0 0 103.084 93.497 1.236 0.531 o
4 0 2 687.282 710.995 6.924 0.011 o
4 0 4 64.580 69.829 0.732 1.237 o
4 0 6 77.603 81.707 1.098 0.824 o
4 0 8 89.639 91.469 1.335 0.618 o
4 1 0 500.243 553.208 4.362 0.021 o
4 1 1 68.483 70.956 0.771 1.131 o
4 1 2 264.349 274.655 1.830 0.081 o
4 1 3 15.892 16.438 0.218 20.036 o
4 1 4 260.766 284.190 1.830 0.080 o
4 1 5 0.868 1.128 0.138 325.806 o
4 1 6 45.809 46.615 0.504 2.566 o
4 1 7 9.381 9.406 0.247 41.881 o
4 1 8 1.304 1.266 0.168 218.373 o
4 1 9 1.192 1.484 0.168 218.420 o
4 1 10 0.510 0.771 0.247 106.769 o
4 2 0 119.649 115.049 0.999 0.407 o
4 2 1 22.877 21.948 0.366 9.564 o
4 2 2 71.785 74.902 0.613 1.071 o
4 2 3 93.389 97.117 0.732 0.640 o
4 2 4 2.029 1.830 0.138 281.287 o
4 2 5 13.675 14.292 0.227 25.174 o
4 2 6 10.737 9.198 0.227 39.752 o
4 2 7 1.102 0.959 0.158 250.252 o
4 2 8 7.475 7.448 0.168 73.984 o
4 2 9 19.334 18.624 0.396 11.890 o
4 2 10 0.496 0.682 0.267 91.683 o
4 3 0 274.232 285.179 2.216 0.074 o
4 3 1 119.150 116.622 0.880 0.411 o
4 3 2 23.255 21.967 0.247 10.480 o
4 3 3 9.590 9.159 0.178 51.091 o
4 3 4 71.326 73.211 0.593 1.100 o
4 3 5 59.296 61.085 0.613 1.538 o
4 3 6 231.503 240.869 1.879 0.104 o
4 3 7 106.478 110.746 0.999 0.482 o
4 3 8 0.086 0.208 0.109 554.179 o
4 3 9 43.515 44.330 0.534 2.775 o
4 3 10 7.207 7.507 0.346 36.947 o
4 3 11 12.152 11.809 0.534 14.843 o
4 4 0 19.485 20.217 0.247 13.580 o
4 4 1 71.463 72.677 0.554 1.111 o
4 4 2 53.798 56.516 0.475 1.891 o
4 4 3 75.786 76.337 0.593 0.993 o
4 4 4 68.780 67.316 0.633 1.202 o
4 4 5 51.615 51.778 0.544 2.056 o
4 4 6 70.416 67.910 0.682 1.148 o
4 4 7 3.592 3.640 0.138 197.220 o
4 4 8 76.868 76.772 0.653 0.961 o
4 4 9 7.061 6.924 0.208 68.022 o
4 4 10 11.715 11.226 0.277 29.645 o
4 4 11 3.703 3.086 0.257 82.728 o
4 5 0 129.839 130.251 0.900 0.343 o
4 5 1 122.435 115.820 0.771 0.403 o
4 5 2 0.162 0.297 0.089 824.236 o
4 5 3 55.050 58.019 0.554 1.768 o
4 5 4 155.508 163.919 1.444 0.224 o
4 5 5 81.232 82.449 0.771 0.839 o
4 5 6 145.101 147.718 1.256 0.266 o
4 5 7 101.445 103.605 0.771 0.551 o
4 5 8 2.376 2.522 0.168 189.568 o
4 5 9 53.949 53.598 0.554 1.902 o
4 5 10 1.611 1.622 0.178 190.275 o
4 5 11 0.864 1.048 0.188 181.247 o
4 5 12 0.005 -0.079 0.287 79.850 o
4 6 0 0.007 0.109 0.079 1048.970 o
4 6 1 102.312 106.889 0.732 0.537 o
4 6 2 3.158 3.205 0.129 239.179 o
4 6 3 32.725 30.958 0.336 5.322 o
4 6 4 0.011 0.119 0.119 466.267 o
4 6 5 24.970 23.678 0.346 8.491 o
4 6 6 6.978 6.271 0.158 88.299 o
4 6 7 16.123 16.142 0.247 19.119 o
4 6 8 2.254 2.344 0.168 193.587 o
4 6 9 5.729 5.410 0.208 84.803 o
4 6 10 0.035 -0.198 0.168 232.361 o
4 6 11 6.335 6.053 0.277 55.212 o
4 6 12 1.787 1.533 0.257 94.827 o
4 6 13 0.521 0.119 0.297 74.478 o
4 7 0 198.804 200.673 1.315 0.146 o
4 7 1 48.979 45.893 0.386 2.483 o
4 7 2 0.395 0.425 0.109 546.759 o
4 7 3 1.644 1.543 0.119 388.688 o
4 7 4 10.321 10.464 0.208 41.089 o
4 7 5 15.381 14.787 0.307 19.080 o
4 7 6 2.231 2.384 0.119 332.792 o
4 7 7 0.763 0.762 0.168 227.292 o
4 7 8 8.953 8.516 0.227 48.313 o
4 7 9 2.367 1.988 0.188 161.147 o
4 7 10 14.580 13.610 0.297 21.279 o
4 7 11 0.007 -0.049 0.227 126.945 o
4 7 12 42.341 42.471 0.653 2.764 o
4 7 13 9.276 10.504 0.514 17.931 o
4 8 0 18.116 14.025 0.208 18.886 o
4 8 1 36.096 35.251 0.366 4.303 o
4 8 2 34.747 31.472 0.356 4.842 o
4 8 3 4.864 4.866 0.158 129.472 o
4 8 4 3.162 3.195 0.148 199.421 o
4 8 5 0.086 -0.138 0.099 671.291 o
4 8 6 35.004 35.448 0.336 4.516 o
4 8 7 34.528 33.787 0.406 4.561 o
4 8 8 45.773 45.121 0.495 2.630 o
4 8 9 15.108 14.895 0.287 20.041 o
4 8 10 229.487 233.480 2.463 0.103 o
4 8 11 0.374 0.336 0.237 116.294 o
4 8 12 50.456 49.780 0.722 2.015 o
4 8 13 0.001 0.168 0.336 58.090 o
4 9 0 286.344 284.111 2.314 0.070 o
4 9 1 13.416 11.958 0.218 28.704 o
4 9 2 0.024 0.317 0.119 465.815 o
4 9 3 0.187 -0.040 0.119 465.786 o
4 9 4 1.100 1.217 0.109 495.986 o
4 9 5 2.923 2.809 0.109 314.683 o
4 9 6 0.544 0.712 0.129 388.185 o
4 9 7 23.020 21.582 0.317 10.078 o
4 9 8 46.066 45.013 0.514 2.593 o
4 9 9 7.890 7.744 0.247 51.360 o
4 9 10 8.785 9.337 0.326 33.885 o
4 9 11 23.934 23.748 0.475 7.782 o
4 9 12 32.194 31.710 0.554 4.623 o
4 9 13 20.113 20.049 0.534 9.079 o
4 10 0 39.848 38.020 0.564 3.302 o
4 10 1 2.546 2.453 0.148 227.471 o
4 10 2 0.638 0.732 0.129 386.000 o
4 10 3 2.885 2.957 0.099 346.264 o
4 10 4 13.277 12.947 0.168 30.343 o
4 10 5 2.797 2.631 0.109 328.501 o
4 10 6 1.287 1.266 0.148 276.150 o
4 10 7 0.097 0.109 0.148 298.311 o
4 10 8 0.787 0.762 0.168 227.082 o
4 10 9 31.548 30.820 0.524 4.907 o
4 10 10 2.594 2.601 0.257 89.441 o
4 10 11 11.092 10.464 0.346 26.443 o
4 10 12 3.500 3.521 0.267 77.590 o
4 11 0 5.989 5.311 0.188 92.031 o
4 11 1 16.042 15.321 0.237 20.061 o
4 11 2 27.396 25.192 0.257 7.840 o
4 11 3 3.590 3.155 0.109 265.697 o
4 11 4 77.900 78.008 0.544 0.953 o
4 11 5 3.311 3.175 0.109 280.564 o
4 11 6 9.911 9.485 0.247 39.871 o
4 11 7 34.332 32.867 0.415 4.639 o
4 11 8 24.564 24.440 0.386 8.194 o
4 11 9 28.954 29.356 0.514 5.552 o
4 11 10 0.163 0.415 0.227 126.782 o
4 11 11 4.386 4.688 0.277 66.660 o
4 11 12 1.218 1.118 0.247 104.834 o
4 12 0 55.520 55.734 0.663 1.731 o
4 12 1 1.427 1.256 0.138 309.691 o
4 12 2 64.453 64.062 0.603 1.353 o
4 12 3 9.739 9.238 0.168 51.424 o
4 12 4 8.585 8.091 0.148 66.363 o
4 12 5 7.511 6.963 0.148 81.784 o
4 12 6 8.488 7.606 0.198 58.636 o
4 12 7 14.710 14.025 0.277 21.581 o
4 12 8 21.397 20.691 0.425 9.847 o
4 12 9 0.062 0.178 0.227 126.918 o
4 12 10 17.571 17.942 0.406 13.024 o
4 12 11 1.318 1.642 0.247 103.702 o
4 13 0 0.657 0.673 0.148 292.147 o
4 13 1 12.372 12.373 0.277 27.046 o
4 13 2 2.417 2.146 0.138 262.241 o
4 13 3 8.898 8.387 0.198 53.917 o
4 13 4 109.616 110.173 0.771 0.480 o
4 13 5 82.773 81.895 0.663 0.839 o
4 13 6 15.690 14.905 0.247 20.555 o
4 13 7 48.937 48.455 0.682 2.155 o
4 13 8 14.574 15.459 0.376 17.228 o
4 13 9 9.439 9.010 0.317 33.863 o
4 13 10 0.776 0.653 0.227 125.521 o
4 13 11 2.806 2.967 0.247 93.820 o
4 14 0 0.865 1.157 0.158 252.186 o
4 14 1 1.040 1.058 0.168 222.997 o
4 14 2 21.930 22.472 0.317 10.411 o
4 14 3 0.581 0.514 0.138 336.669 o
4 14 4 0.642 0.544 0.129 387.907 o
4 14 5 3.143 3.007 0.188 143.640 o
4 14 6 1.848 1.691 0.178 186.650 o
4 14 7 4.919 4.688 0.267 67.883 o
4 14 8 0.107 -0.069 0.218 138.731 o
4 14 9 0.232 0.148 0.227 126.834 o
4 14 10 0.035 -0.277 0.227 126.943 o
4 15 0 29.922 30.107 0.485 5.425 o
4 15 1 4.298 4.342 0.218 97.265 o
4 15 2 0.980 1.118 0.168 223.335 o
4 15 3 6.353 6.469 0.198 78.688 o
4 15 4 0.140 0.089 0.158 262.148 o
4 15 5 1.710 1.840 0.247 101.883 o
4 15 6 5.284 4.639 0.267 66.213 o
4 15 7 0.296 0.000 0.178 206.989 o
4 15 8 0.623 0.277 0.227 126.261 o
4 15 9 0.029 0.277 0.227 126.911 o
4 16 0 14.307 14.955 0.366 18.101 o
4 16 1 2.352 2.344 0.218 123.160 o
4 16 2 7.560 7.566 0.317 40.485 o
4 16 3 14.191 14.530 0.336 19.596 o
4 16 4 0.227 -0.010 0.237 116.535 o
4 16 5 27.192 26.843 0.574 5.839 o
4 16 6 2.973 2.621 0.277 76.790 o
4 16 7 1.696 2.146 0.257 94.076 o
4 16 8 18.916 19.732 0.564 9.155 o
4 16 9 0.790 1.226 0.425 36.129 o
4 17 0 46.349 48.554 0.841 2.110 o
4 17 1 52.670 54.884 0.920 1.666 o
4 17 2 1.639 1.859 0.247 102.126 o
4 17 3 9.709 10.079 0.297 34.037 o
4 17 4 0.027 -0.119 0.267 92.117 o
4 17 5 0.441 0.376 0.267 91.872 o
4 17 6 1.686 1.523 0.277 82.543 o
4 17 7 16.119 16.428 0.455 13.333 o
4 17 8 8.256 9.169 0.554 17.004 o
4 18 0 1.698 1.711 0.277 82.280 o
4 18 1 0.119 0.396 0.247 107.361 o
4 18 2 5.057 5.390 0.307 53.403 o
4 18 3 7.292 6.854 0.504 21.199 o
4 18 4 3.512 2.987 0.307 61.916 o
4 18 5 3.510 2.512 0.297 66.353 o
4 18 6 0.736 0.317 0.287 79.478 o
4 19 0 2.798 2.483 0.297 68.491 o
4 19 1 0.009 -0.030 0.247 107.446 o
4 19 2 0.515 0.613 0.257 98.852 o
4 19 3 0.007 -0.267 0.396 41.971 o
4 19 4 0.942 0.633 0.396 41.767 o
4 19 5 0.165 -0.010 0.267 92.101 o
4 20 0 0.270 -0.089 0.247 107.384 o
4 20 1 1.640 1.939 0.267 88.061 o
4 20 2 0.577 0.208 0.425 36.274 o
4 20 3 0.558 0.346 0.415 38.012 o
5 0 0 475.883 483.063 5.104 0.024 o
5 0 2 10.749 12.215 0.297 29.175 o
5 0 4 108.781 113.486 1.098 0.455 o
5 0 6 43.126 41.828 0.712 2.642 o
5 0 8 102.496 107.868 1.553 0.462 o
5 0 10 15.628 15.657 0.445 14.170 o
5 1 0 1014.940 1057.830 7.141 0.005 o
5 1 1 385.142 406.479 2.492 0.038 o
5 1 2 180.673 192.830 1.296 0.170 o
5 1 3 120.313 121.745 0.860 0.396 o
5 1 4 228.789 234.657 1.602 0.109 o
5 1 5 2.182 1.958 0.148 244.818 o
5 1 6 56.344 59.295 0.593 1.676 o
5 1 7 3.975 3.818 0.168 146.047 o
5 1 8 0.440 0.247 0.158 260.724 o
5 1 9 2.506 2.651 0.188 154.937 o
5 1 10 9.223 8.575 0.277 39.868 o
5 1 11 3.843 4.382 0.376 41.361 o
5 2 0 7.045 5.954 0.129 101.063 o
5 2 1 0.032 0.030 0.089 828.948 o
5 2 2 12.861 13.659 0.198 29.039 o
5 2 3 9.107 9.149 0.188 52.287 o
5 2 4 1.888 1.672 0.138 288.704 o
5 2 5 10.473 10.870 0.218 38.763 o
5 2 6 20.101 19.910 0.336 11.965 o
5 2 7 1.539 1.543 0.138 302.029 o
5 2 8 1.680 1.859 0.168 208.167 o
5 2 9 0.026 0.168 0.168 232.318 o
5 2 10 15.345 15.222 0.455 14.241 o
5 2 11 0.753 0.742 0.317 65.183 o
5 3 0 248.534 250.334 1.642 0.094 o
5 3 1 27.539 26.705 0.277 7.435 o
5 3 2 159.619 164.918 1.157 0.222 o
5 3 3 0.449 0.277 0.119 460.894 o
5 3 4 1.883 2.463 0.138 275.393 o
5 3 5 3.144 3.373 0.168 166.177 o
5 3 6 4.862 5.114 0.198 100.010 o
5 3 7 0.261 0.475 0.109 549.419 o
5 3 8 70.309 70.363 0.564 1.155 o
5 3 9 57.869 57.337 0.584 1.661 o
5 3 10 5.635 5.440 0.336 44.760 o
5 3 11 14.322 13.550 0.564 12.334 o
5 4 0 13.231 12.898 0.188 29.563 o
5 4 1 16.381 13.768 0.198 21.874 o
5 4 2 85.318 89.729 0.702 0.758 o
5 4 3 62.717 62.143 0.534 1.450 o
5 4 4 35.649 36.764 0.435 4.111 o
5 4 5 26.400 26.735 0.376 7.264 o
5 4 6 30.856 28.970 0.326 5.980 o
5 4 7 5.579 5.410 0.148 119.166 o
5 4 8 1.222 1.424 0.129 358.233 o
5 4 9 0.769 0.752 0.168 227.285 o
5 4 10 55.992 53.529 0.752 1.698 o
5 4 11 0.139 0.227 0.366 49.042 o
5 4 12 9.145 9.179 0.504 19.015 o
5 5 0 159.677 162.485 1.147 0.224 o
5 5 1 11.276 10.158 0.168 41.748 o
5 5 2 47.907 47.644 0.435 2.458 o
5 5 3 0.127 0.188 0.119 465.563 o
5 5 4 10.997 11.186 0.247 33.870 o
5 5 5 20.253 19.445 0.326 12.162 o
5 5 6 23.620 24.608 0.267 9.465 o
5 5 7 62.565 61.224 0.504 1.478 o
5 5 8 66.106 65.368 0.544 1.312 o
5 5 9 14.487 14.025 0.277 21.916 o
5 5 10 5.714 5.410 0.208 84.938 o
5 5 11 39.558 38.237 0.692 3.069 o
5 5 12 0.031 0.069 0.376 46.505 o
5 6 0 14.041 11.651 0.178 29.569 o
5 6 1 161.780 157.124 1.108 0.226 o
5 6 2 2.294 2.206 0.119 334.222 o
5 6 3 43.674 45.270 0.504 2.765 o
5 6 4 0.000 0.336 0.129 397.031 o
5 6 5 19.992 18.080 0.227 14.328 o
5 6 6 0.123 0.138 0.109 554.156 o
5 6 7 2.089 2.127 0.129 308.004 o
5 6 8 2.203 2.265 0.138 267.671 o
5 6 9 0.102 0.040 0.168 232.307 o
5 6 10 2.317 2.433 0.188 158.904 o
5 6 11 0.189 0.208 0.227 126.844 o
5 6 12 0.023 0.208 0.267 92.108 o
5 7 0 79.926 78.127 0.653 0.905 o
5 7 1 53.423 50.591 0.435 2.066 o
5 7 2 213.195 215.598 1.681 0.125 o
5 7 3 0.011 -0.059 0.129 397.358 o
5 7 4 17.405 16.300 0.336 15.341 o
5 7 5 19.004 18.506 0.227 15.031 o
5 7 6 4.070 3.838 0.138 180.086 o
5 7 7 0.484 0.435 0.109 544.060 o
5 7 8 1.250 1.404 0.168 218.173 o
5 7 9 11.883 11.206 0.267 30.015 o
5 7 10 2.622 2.799 0.247 95.286 o
5 7 11 2.651 2.631 0.257 89.110 o
5 7 12 0.986 1.187 0.267 90.588 o
5 7 13 0.317 0.406 0.336 58.025 o
5 8 0 90.841 93.586 0.890 0.661 o
5 8 1 84.800 85.169 0.712 0.788 o
5 8 2 0.009 0.089 0.109 554.925 o
5 8 3 33.025 31.373 0.475 4.794 o
5 8 4 113.436 110.796 0.821 0.455 o
5 8 5 0.091 0.188 0.099 670.402 o
5 8 6 0.066 0.089 0.109 554.712 o
5 8 7 0.044 0.030 0.109 554.910 o
5 8 8 11.518 11.809 0.267 30.162 o
5 8 9 8.985 8.902 0.247 44.311 o
5 8 10 0.318 0.109 0.227 126.780 o
5 8 11 0.087 -0.366 0.227 126.936 o
5 8 12 69.273 70.185 0.920 1.077 o
5 8 13 2.237 2.898 0.376 44.442 o
5 9 0 19.732 18.159 0.336 12.789 o
5 9 1 184.176 183.690 1.474 0.169 o
5 9 2 294.228 295.030 2.067 0.067 o
5 9 3 107.053 103.793 0.712 0.517 o
5 9 4 9.154 8.239 0.168 57.984 o
5 9 5 0.481 0.702 0.109 539.758 o
5 9 6 1.105 1.068 0.119 427.050 o
5 9 7 0.607 0.643 0.168 228.994 o
5 9 8 0.598 0.138 0.168 230.612 o
5 9 9 1.650 1.197 0.227 121.231 o
5 9 10 10.085 9.831 0.336 29.636 o
5 9 11 12.891 13.085 0.376 20.307 o
5 9 12 0.052 -0.119 0.237 116.584 o
5 10 0 1.128 1.276 0.119 421.351 o
5 10 1 0.168 0.030 0.109 554.234 o
5 10 2 0.188 0.148 0.079 1043.750 o
5 10 3 15.085 13.847 0.188 24.415 o
5 10 4 21.265 19.930 0.257 12.238 o
5 10 5 0.107 0.277 0.109 553.633 o
5 10 6 0.000 -0.040 0.109 554.990 o
5 10 7 0.751 0.692 0.158 256.373 o
5 10 8 9.855 9.416 0.257 38.993 o
5 10 9 0.000 0.277 0.227 126.922 o
5 10 10 0.047 0.049 0.227 126.939 o
5 10 11 4.086 3.739 0.277 70.030 o
5 10 12 3.295 3.323 0.267 78.988 o
5 11 0 1.510 1.414 0.129 347.488 o
5 11 1 6.995 6.993 0.168 80.721 o
5 11 2 0.585 0.722 0.089 786.228 o
5 11 3 8.717 8.555 0.148 63.474 o
5 11 4 46.546 44.864 0.406 2.670 o
5 11 5 0.002 -0.129 0.099 671.537 o
5 11 6 12.354 12.255 0.208 31.587 o
5 11 7 0.328 0.168 0.168 231.695 o
5 11 8 9.236 9.347 0.317 33.943 o
5 11 9 13.563 13.461 0.366 19.748 o
5 11 10 4.324 4.164 0.277 68.076 o
5 11 11 12.248 11.354 0.356 23.309 o
5 12 0 18.269 17.437 0.356 13.736 o
5 12 1 45.602 44.558 0.574 2.574 o
5 12 2 9.288 9.188 0.168 54.170 o
5 12 3 1.804 1.642 0.109 433.285 o
5 12 4 0.985 0.890 0.109 512.263 o
5 12 5 8.573 8.051 0.178 60.664 o
5 12 6 37.221 36.190 0.445 3.923 o
5 12 7 0.891 0.732 0.218 136.550 o
5 12 8 8.487 8.427 0.307 38.227 o
5 12 9 8.126 7.319 0.297 42.362 o
5 12 10 5.144 4.866 0.277 62.926 o
5 12 11 1.107 1.118 0.227 123.743 o
5 13 0 8.950 9.080 0.247 44.100 o
5 13 1 12.341 11.859 0.277 27.628 o
5 13 2 5.602 5.470 0.208 85.670 o
5 13 3 16.809 16.082 0.227 18.783 o
5 13 4 12.147 12.235 0.188 33.466 o
5 13 5 0.030 0.119 0.109 554.807 o
5 13 6 34.725 34.657 0.564 4.042 o
5 13 7 21.852 21.997 0.445 9.138 o
5 13 8 17.916 17.398 0.406 12.976 o
5 13 9 27.470 27.605 0.514 6.046 o
5 13 10 4.351 4.718 0.277 66.748 o
5 14 0 4.296 4.421 0.218 96.924 o
5 14 1 0.030 0.089 0.158 262.291 o
5 14 2 0.045 -0.069 0.158 262.309 o
5 14 3 1.526 1.503 0.148 267.975 o
5 14 4 0.468 0.406 0.138 338.788 o
5 14 5 0.514 0.821 0.148 292.969 o
5 14 6 3.926 3.976 0.267 74.488 o
5 14 7 1.262 1.375 0.227 122.601 o
5 14 8 5.316 5.311 0.287 58.168 o
5 14 9 1.087 0.771 0.227 124.429 o
5 14 10 0.113 -0.119 0.267 92.110 o
5 15 0 10.120 10.860 0.297 32.088 o
5 15 1 2.465 2.552 0.218 121.427 o
5 15 2 48.025 48.850 0.722 2.151 o
5 15 3 0.039 -0.208 0.138 342.608 o
5 15 4 0.193 0.188 0.178 207.004 o
5 15 5 0.004 -0.148 0.237 116.586 o
5 15 6 0.036 -0.356 0.208 152.274 o
5 15 7 5.985 5.489 0.277 57.895 o
5 15 8 1.252 1.118 0.227 123.180 o
5 15 9 0.469 0.514 0.218 138.005 o
5 16 0 11.008 10.722 0.386 23.623 o
5 16 1 1.494 1.355 0.247 103.591 o
5 16 2 2.903 2.670 0.267 82.136 o
5 16 3 0.002 -0.069 0.208 152.276 o
5 16 4 21.998 22.729 0.425 9.149 o
5 16 5 16.102 16.102 0.455 13.448 o
5 16 6 0.003 0.297 0.396 41.968 o
5 16 7 4.432 3.956 0.376 40.781 o
5 16 8 0.873 0.465 0.208 150.223 o
5 17 0 15.207 15.538 0.465 13.952 o
5 17 1 84.080 89.709 1.345 0.668 o
5 17 2 47.530 50.047 0.860 2.002 o
5 17 3 42.236 43.549 0.791 2.523 o
5 17 4 4.753 4.708 0.317 52.745 o
5 17 5 1.646 1.404 0.277 82.784 o
5 17 6 0.001 -0.168 0.396 41.971 o
5 17 7 5.481 5.885 0.485 24.410 o
5 18 0 0.529 0.504 0.267 91.739 o
5 18 1 3.558 3.027 0.297 65.397 o
5 18 2 0.294 0.020 0.247 107.368 o
5 18 3 0.003 -0.356 0.227 126.945 o
5 18 4 3.045 2.928 0.445 31.597 o
5 18 5 7.502 7.952 0.356 34.510 o
5 19 0 0.291 -0.109 0.267 92.065 o
5 19 1 0.611 0.584 0.267 91.612 o
5 19 2 2.057 1.879 0.277 81.074 o
5 19 3 4.404 3.531 0.495 24.985 o
5 19 4 1.947 1.929 0.465 29.835 o
5 20 0 11.162 10.751 0.603 13.245 o
5 20 1 36.174 38.425 1.048 2.547 o
6 0 0 6.883 7.042 0.208 68.875 o
6 0 2 315.217 331.834 2.809 0.055 o
6 0 4 44.447 43.747 0.702 2.512 o
6 0 6 37.056 38.228 0.574 3.548 o
6 0 8 76.491 76.406 1.197 0.844 o
6 0 10 20.089 20.019 0.514 9.362 o
6 1 0 13.049 10.583 0.158 35.062 o
6 1 1 206.761 214.896 1.335 0.133 o
6 1 2 162.213 160.052 1.039 0.223 o
6 1 3 111.018 116.602 0.880 0.450 o
6 1 4 172.845 181.297 1.296 0.187 o
6 1 5 80.552 81.757 0.722 0.860 o
6 1 6 52.344 53.004 0.514 2.012 o
6 1 7 2.479 2.344 0.168 189.299 o
6 1 8 0.119 0.148 0.168 232.218 o
6 1 9 1.821 1.583 0.178 187.752 o
6 1 10 9.121 8.407 0.257 43.272 o
6 1 11 1.497 1.434 0.336 56.901 o
6 2 0 47.004 46.793 0.376 2.593 o
6 2 1 267.980 271.639 1.879 0.080 o
6 2 2 15.043 14.965 0.227 22.149 o
6 2 3 56.408 55.705 0.504 1.785 o
6 2 4 58.085 60.195 0.554 1.618 o
6 2 5 7.473 7.566 0.208 62.998 o
6 2 6 5.848 5.054 0.168 105.755 o
6 2 7 4.396 4.599 0.188 115.355 o
6 2 8 12.149 12.057 0.247 29.781 o
6 2 9 0.018 0.267 0.168 232.275 o
6 2 10 0.177 0.455 0.168 231.718 o
6 2 11 0.842 0.010 0.326 61.466 o
6 2 12 2.972 3.640 0.386 41.091 o
6 3 0 0.746 0.633 0.099 636.144 o
6 3 1 53.019 55.744 0.485 1.936 o
6 3 2 174.493 175.244 1.236 0.189 o
6 3 3 72.749 72.410 0.613 1.076 o
6 3 4 2.680 2.651 0.148 220.805 o
6 3 5 2.155 1.899 0.168 199.540 o
6 3 6 33.228 34.182 0.336 4.921 o
6 3 7 3.817 3.838 0.148 173.397 o
6 3 8 2.735 2.760 0.168 180.267 o
6 3 9 1.357 1.286 0.168 217.515 o
6 3 10 8.467 8.466 0.287 41.029 o
6 3 11 11.338 10.949 0.534 15.579 o
6 3 12 8.475 8.308 0.495 20.432 o
6 4 0 2078.030 2105.830 12.967 0.001 o
6 4 1 5.678 5.954 0.158 107.349 o
6 4 2 299.629 307.641 2.047 0.064 o
6 4 3 1.409 1.652 0.138 304.352 o
6 4 4 55.172 56.347 0.603 1.768 o
6 4 5 1.763 1.672 0.119 378.703 o
6 4 6 13.628 13.264 0.208 27.234 o
6 4 7 0.076 0.049 0.109 554.761 o
6 4 8 19.833 19.326 0.267 13.375 o
6 4 9 2.524 2.670 0.158 203.818 o
6 4 10 1.246 1.474 0.336 57.133 o
6 4 11 4.541 4.955 0.455 28.467 o
6 4 12 15.192 16.201 0.633 9.916 o
6 5 0 23.902 21.117 0.307 9.848 o
6 5 1 92.438 94.130 0.752 0.660 o
6 5 2 178.627 182.612 1.315 0.178 o
6 5 3 0.002 0.198 0.119 466.181 o
6 5 4 0.129 0.030 0.138 342.442 o
6 5 5 17.221 17.338 0.227 17.508 o
6 5 6 19.443 19.307 0.247 13.987 o
6 5 7 24.772 23.846 0.277 9.043 o
6 5 8 3.585 3.986 0.148 177.439 o
6 5 9 12.656 12.096 0.227 29.783 o
6 5 10 18.173 17.655 0.396 12.924 o
6 5 11 6.393 5.925 0.485 23.706 o
6 5 12 5.925 6.073 0.475 24.870 o
6 6 0 0.688 0.603 0.109 533.693 o
6 6 1 115.283 111.825 0.860 0.441 o
6 6 2 15.931 14.628 0.237 20.717 o
6 6 3 82.094 79.610 0.771 0.846 o
6 6 4 8.711 8.288 0.168 60.819 o
6 6 5 4.160 3.660 0.129 194.089 o
6 6 6 0.283 0.247 0.109 551.279 o
6 6 7 0.079 0.188 0.119 465.870 o
6 6 8 0.000 -0.030 0.119 466.345 o
6 6 9 6.015 5.944 0.198 84.104 o
6 6 10 0.519 0.396 0.237 116.075 o
6 6 11 2.068 2.295 0.267 86.093 o
6 6 12 1.288 1.444 0.415 37.644 o
6 7 0 34.321 32.204 0.376 4.802 o
6 7 1 13.877 12.621 0.227 26.446 o
6 7 2 44.644 41.907 0.495 2.830 o
6 7 3 128.044 126.176 1.118 0.348 o
6 7 4 89.389 88.641 0.663 0.725 o
6 7 5 2.773 2.819 0.129 263.035 o
6 7 6 35.629 33.727 0.346 4.532 o
6 7 7 16.920 16.567 0.247 17.867 o
6 7 8 1.182 1.315 0.129 361.630 o
6 7 9 0.081 0.069 0.178 207.222 o
6 7 10 0.387 0.593 0.247 107.051 o
6 7 11 3.666 3.620 0.277 72.061 o
6 7 12 0.343 0.227 0.247 107.269 o
6 8 0 20.254 19.870 0.317 12.166 o
6 8 1 15.112 14.045 0.326 19.155 o
6 8 2 10.317 9.940 0.178 45.470 o
6 8 3 14.880 13.966 0.208 23.994 o
6 8 4 2.529 3.017 0.129 269.245 o
6 8 5 0.305 0.297 0.109 550.383 o
6 8 6 91.969 91.460 0.712 0.680 o
6 8 7 10.206 9.693 0.198 44.248 o
6 8 8 10.455 9.772 0.218 40.825 o
6 8 9 1.122 1.108 0.237 113.849 o
6 8 10 2.359 2.107 0.257 91.558 o
6 8 11 0.162 -0.049 0.247 107.424 o
6 8 12 0.482 0.376 0.247 107.067 o
6 9 0 9.485 9.080 0.188 50.441 o
6 9 1 79.281 79.966 0.732 0.888 o
6 9 2 12.013 10.603 0.168 37.986 o
6 9 3 51.057 49.187 0.425 2.232 o
6 9 4 103.682 103.032 0.771 0.538 o
6 9 5 126.017 123.822 0.910 0.368 o
6 9 6 43.143 41.610 0.406 3.073 o
6 9 7 0.304 0.188 0.129 395.528 o
6 9 8 2.655 2.275 0.188 155.462 o
6 9 9 0.507 0.455 0.237 116.050 o
6 9 10 0.002 0.030 0.227 126.944 o
6 9 11 0.540 0.386 0.247 106.993 o
6 9 12 0.628 0.435 0.237 115.876 o
6 10 0 5.053 4.846 0.138 142.353 o
6 10 1 43.829 42.619 0.485 2.878 o
6 10 2 10.544 9.663 0.198 42.876 o
6 10 3 9.293 8.921 0.168 54.948 o
6 10 4 5.009 4.926 0.148 134.207 o
6 10 5 9.349 8.852 0.188 51.773 o
6 10 6 18.445 17.655 0.257 15.455 o
6 10 7 5.369 4.748 0.178 108.352 o
6 10 8 0.001 -0.040 0.208 152.276 o
6 10 9 0.002 -0.069 0.227 126.945 o
6 10 10 3.267 2.789 0.267 80.311 o
6 10 11 0.358 0.049 0.227 126.771 o
6 11 0 17.981 17.793 0.257 15.839 o
6 11 1 19.376 17.922 0.257 14.482 o
6 11 2 11.167 10.247 0.237 35.623 o
6 11 3 5.736 5.628 0.148 114.676 o
6 11 4 0.013 -0.049 0.109 554.986 o
6 11 5 4.962 4.906 0.158 127.374 o
6 11 6 9.058 8.694 0.198 52.204 o
6 11 7 1.351 1.335 0.178 195.152 o
6 11 8 1.905 1.662 0.237 109.561 o
6 11 9 0.681 0.237 0.227 126.192 o
6 11 10 8.670 8.892 0.336 33.501 o
6 11 11 2.647 2.305 0.247 96.455 o
6 12 0 842.581 872.322 7.883 0.008 o
6 12 1 3.172 3.205 0.148 199.006 o
6 12 2 39.361 38.237 0.415 3.604 o
6 12 3 24.562 24.381 0.317 8.736 o
6 12 4 1.292 1.226 0.129 359.294 o
6 12 5 7.215 7.220 0.188 71.513 o
6 12 6 2.458 2.305 0.168 190.068 o
6 12 7 3.352 3.452 0.257 83.608 o
6 12 8 23.979 23.570 0.465 7.883 o
6 12 9 0.102 0.099 0.227 126.917 o
6 12 10 0.288 0.603 0.227 126.535 o
6 13 0 37.775 39.187 0.564 3.447 o
6 13 1 39.442 40.582 0.574 3.203 o
6 13 2 38.993 38.870 0.495 3.472 o
6 13 3 40.350 40.136 0.475 3.306 o
6 13 4 3.421 3.541 0.158 172.644 o
6 13 5 4.622 4.095 0.178 123.569 o
6 13 6 0.900 1.058 0.168 224.534 o
6 13 7 1.634 1.800 0.247 102.263 o
6 13 8 1.077 1.009 0.227 124.050 o
6 13 9 4.045 3.917 0.267 74.058 o
6 13 10 16.561 15.657 0.376 15.337 o
6 14 0 0.503 0.485 0.198 166.742 o
6 14 1 128.297 134.415 1.434 0.320 o
6 14 2 28.464 28.416 0.504 5.797 o
6 14 3 12.267 12.334 0.336 23.710 o
6 14 4 0.087 0.010 0.158 262.277 o
6 14 5 0.295 0.356 0.168 231.481 o
6 14 6 1.659 1.672 0.227 119.980 o
6 14 7 2.659 3.116 0.247 94.220 o
6 14 8 2.900 2.908 0.247 93.464 o
6 14 9 0.231 0.475 0.218 138.437 o
6 15 0 27.020 28.169 0.495 6.198 o
6 15 1 26.483 25.449 0.564 6.200 o
6 15 2 11.244 10.642 0.376 24.004 o
6 15 3 0.236 0.267 0.227 126.783 o
6 15 4 20.462 20.513 0.495 9.386 o
6 15 5 1.383 1.464 0.188 175.311 o
6 15 6 6.030 5.717 0.267 60.029 o
6 15 7 0.347 0.109 0.208 152.002 o
6 15 8 0.208 -0.030 0.208 152.203 o
6 16 0 14.501 14.599 0.445 15.369 o
6 16 1 0.240 0.020 0.227 126.871 o
6 16 2 1.629 1.563 0.257 95.300 o
6 16 3 3.368 3.452 0.277 73.633 o
6 16 4 0.072 0.603 0.287 79.785 o
6 16 5 0.607 0.712 0.386 44.019 o
6 16 6 22.673 23.302 0.762 5.720 o
6 16 7 4.586 4.085 0.237 84.714 o
6 17 0 0.453 0.514 0.267 91.804 o
6 17 1 1.274 1.039 0.277 83.957 o
6 17 2 6.488 5.766 0.326 44.117 o
6 17 3 68.472 71.134 1.118 1.015 o
6 17 4 26.019 26.013 0.791 4.827 o
6 17 5 27.040 27.239 0.811 4.513 o
6 17 6 8.314 8.407 0.514 19.314 o
6 18 0 0.097 -0.218 0.257 99.333 o
6 18 1 0.176 -0.020 0.267 92.098 o
6 18 2 0.223 -0.040 0.257 99.304 o
6 18 3 1.262 1.088 0.267 90.127 o
6 19 0 0.525 0.406 0.267 91.789 o
6 19 1 1.221 0.771 0.287 78.659 o
6 19 2 0.873 0.455 0.267 91.369 o
7 0 0 46.286 42.174 0.504 2.687 o
7 0 2 36.708 36.447 0.485 3.885 o
7 0 4 68.199 68.671 0.979 1.089 o
7 0 6 2.497 2.107 0.208 133.455 o
7 0 8 45.788 46.160 0.841 2.193 o
7 0 10 30.997 30.127 0.841 3.796 o
7 1 0 1.368 1.177 0.109 480.065 o
7 1 1 36.381 35.280 0.326 4.337 o
7 1 2 12.541 13.362 0.227 28.554 o
7 1 3 30.514 31.126 0.356 5.706 o
7 1 4 0.023 0.257 0.138 342.423 o
7 1 5 37.378 38.237 0.376 3.907 o
7 1 6 128.888 132.635 1.019 0.338 o
7 1 7 28.692 28.347 0.366 6.437 o
7 1 8 9.974 10.187 0.267 36.319 o
7 1 9 4.545 4.382 0.218 94.879 o
7 1 10 4.564 4.322 0.277 66.680 o
7 1 11 0.197 0.593 0.237 116.344 o
7 1 12 5.531 4.817 0.396 35.142 o
7 2 0 81.358 80.926 0.613 0.872 o
7 2 1 125.005 125.830 0.930 0.367 o
7 2 2 23.978 23.965 0.307 9.149 o
7 2 3 89.542 89.521 0.742 0.710 o
7 2 4 2.442 2.522 0.158 207.488 o
7 2 5 99.636 100.055 0.732 0.579 o
7 2 6 17.486 17.022 0.277 16.308 o
7 2 7 5.570 5.301 0.198 91.572 o
7 2 8 1.806 1.701 0.168 207.379 o
7 2 9 10.991 11.265 0.297 29.672 o
7 2 10 0.272 0.237 0.227 126.764 o
7 2 11 0.090 0.089 0.227 126.923 o
7 2 12 1.073 1.345 0.356 51.222 o
7 3 0 151.891 157.292 1.276 0.241 o
7 3 1 1.607 1.968 0.138 293.110 o
7 3 2 22.156 21.661 0.287 10.816 o
7 3 3 21.384 22.917 0.307 10.690 o
7 3 4 75.731 74.784 0.613 1.003 o
7 3 5 26.543 26.299 0.277 7.849 o
7 3 6 35.972 35.666 0.346 4.331 o
7 3 7 5.318 5.292 0.198 94.206 o
7 3 8 25.350 25.251 0.356 7.985 o
7 3 9 0.191 -0.059 0.158 262.134 o
7 3 10 0.174 0.109 0.227 126.883 o
7 3 11 0.151 0.138 0.356 51.807 o
7 3 12 0.970 1.583 0.376 46.018 o
7 4 0 1261.760 1294.320 9.010 0.004 o
7 4 1 4.829 4.599 0.168 124.429 o
7 4 2 1515.090 1587.480 9.821 0.002 o
7 4 3 26.612 25.953 0.336 7.556 o
7 4 4 436.571 445.142 2.601 0.030 o
7 4 5 19.574 19.574 0.247 13.768 o
7 4 6 2.885 2.918 0.138 232.308 o
7 4 7 1.536 1.523 0.129 344.320 o
7 4 8 0.004 -0.059 0.129 397.359 o
7 4 9 2.889 3.036 0.188 147.007 o
7 4 10 15.468 15.449 0.376 16.389 o
7 4 11 2.821 2.057 0.396 40.137 o
7 4 12 1.482 1.701 0.396 41.279 o
7 5 0 207.206 210.059 1.652 0.132 o
7 5 1 189.483 192.018 1.414 0.159 o
7 5 2 9.042 9.129 0.208 49.588 o
7 5 3 45.799 45.715 0.495 2.608 o
7 5 4 123.739 124.455 0.880 0.376 o
7 5 5 16.826 16.043 0.208 19.261 o
7 5 6 24.042 23.204 0.277 9.524 o
7 5 7 7.996 7.942 0.188 62.908 o
7 5 8 9.863 9.525 0.208 44.885 o
7 5 9 0.733 0.673 0.158 256.663 o
7 5 10 0.045 0.010 0.208 152.272 o
7 5 11 0.013 0.574 0.376 46.491 o
7 5 12 4.028 4.016 0.435 31.741 o
7 6 0 3.117 3.056 0.148 202.606 o
7 6 1 129.853 126.769 1.197 0.338 o
7 6 2 0.000 0.198 0.119 466.189 o
7 6 3 254.228 256.822 1.751 0.089 o
7 6 4 7.619 7.725 0.168 71.496 o
7 6 5 22.204 21.443 0.267 11.051 o
7 6 6 13.516 13.125 0.218 27.159 o
7 6 7 33.085 33.094 0.356 4.994 o
7 6 8 1.849 1.879 0.148 255.000 o
7 6 9 0.285 0.336 0.188 185.502 o
7 6 10 0.067 -0.178 0.237 116.582 o
7 6 11 6.501 6.775 0.435 27.768 o
7 6 12 0.109 0.722 0.376 46.470 o
7 7 0 0.066 0.198 0.119 465.909 o
7 7 1 0.104 0.356 0.129 396.442 o
7 7 2 2.361 2.305 0.129 292.115 o
7 7 3 0.047 0.020 0.109 554.916 o
7 7 4 20.506 19.317 0.247 13.133 o
7 7 5 42.634 42.154 0.396 3.106 o
7 7 6 26.054 25.360 0.297 8.090 o
7 7 7 1.081 1.029 0.138 321.985 o
7 7 8 23.872 23.392 0.307 9.325 o
7 7 9 0.767 0.702 0.188 182.894 o
7 7 10 0.040 0.168 0.247 107.433 o
7 7 11 1.756 1.563 0.247 102.251 o
7 7 12 0.324 0.376 0.376 46.464 o
7 8 0 0.889 0.811 0.109 519.520 o
7 8 1 16.436 16.003 0.267 18.274 o
7 8 2 8.011 7.606 0.168 68.699 o
7 8 3 0.004 0.049 0.109 554.971 o
7 8 4 3.817 3.393 0.138 194.107 o
7 8 5 1.440 1.375 0.129 350.991 o
7 8 6 0.217 0.307 0.129 395.777 o
7 8 7 4.559 4.312 0.168 131.297 o
7 8 8 33.064 32.867 0.534 4.476 o
7 8 9 11.724 11.711 0.287 28.390 o
7 8 10 22.253 23.629 0.475 8.364 o
7 8 11 0.238 -0.069 0.227 126.878 o
7 9 0 0.015 -0.059 0.099 671.530 o
7 9 1 33.654 32.155 0.435 4.750 o
7 9 2 2.088 1.840 0.129 314.351 o
7 9 3 20.284 19.386 0.247 13.277 o
7 9 4 14.432 13.016 0.218 25.368 o
7 9 5 19.335 18.416 0.257 14.303 o
7 9 6 18.998 18.219 0.267 14.516 o
7 9 7 48.790 46.892 0.455 2.411 o
7 9 8 39.794 39.968 0.534 3.269 o
7 9 9 6.448 5.737 0.297 50.562 o
7 9 10 0.596 0.168 0.247 107.056 o
7 9 11 0.093 -0.010 0.227 126.934 o
7 10 0 5.447 5.203 0.168 110.349 o
7 10 1 18.573 18.001 0.317 14.065 o
7 10 2 6.746 6.617 0.188 78.116 o
7 10 3 15.214 14.688 0.227 22.096 o
7 10 4 4.719 4.609 0.158 134.478 o
7 10 5 28.506 27.269 0.317 6.864 o
7 10 6 0.027 -0.079 0.129 397.351 o
7 10 7 4.475 4.302 0.218 95.851 o
7 10 8 2.355 2.285 0.198 145.874 o
7 10 9 9.637 9.742 0.336 30.603 o
7 10 10 1.674 1.830 0.247 102.049 o
7 10 11 0.110 0.000 0.218 138.730 o
7 11 0 24.411 23.837 0.356 8.602 o
7 11 1 2.565 2.423 0.158 205.778 o
7 11 2 0.146 0.257 0.129 396.489 o
7 11 3 15.910 15.034 0.247 20.153 o
7 11 4 60.208 59.423 0.524 1.573 o
7 11 5 1.133 1.098 0.129 367.058 o
7 11 6 0.000 0.059 0.168 232.362 o
7 11 7 5.134 4.698 0.218 88.336 o
7 11 8 0.041 -0.376 0.218 138.745 o
7 11 9 1.641 1.662 0.247 102.504 o
7 11 10 5.309 5.064 0.277 61.763 o
7 12 0 213.573 221.166 1.751 0.122 o
7 12 1 50.284 50.611 0.633 2.080 o
7 12 2 747.482 786.411 6.963 0.010 o
7 12 3 15.533 15.073 0.317 18.401 o
7 12 4 111.459 113.387 1.039 0.446 o
7 12 5 7.768 7.408 0.227 56.997 o
7 12 6 2.675 2.987 0.208 127.494 o
7 12 7 7.440 7.527 0.247 53.974 o
7 12 8 0.081 -0.059 0.218 138.738 o
7 12 9 0.298 0.030 0.227 126.829 o
7 12 10 3.620 3.274 0.267 77.605 o
7 13 0 67.844 71.263 0.860 1.112 o
7 13 1 35.597 35.953 0.574 3.833 o
7 13 2 0.038 0.227 0.148 298.310 o
7 13 3 19.112 18.802 0.356 12.655 o
7 13 4 77.260 78.226 0.950 0.883 o
7 13 5 45.072 44.973 0.574 2.595 o
7 13 6 2.226 2.225 0.188 161.427 o
7 13 7 0.546 0.603 0.227 126.099 o
7 13 8 0.831 0.969 0.237 114.883 o
7 13 9 2.001 2.146 0.247 99.988 o
7 14 0 2.944 2.938 0.267 81.395 o
7 14 1 133.284 137.807 1.622 0.294 o
7 14 2 2.722 2.651 0.376 44.041 o
7 14 3 93.523 96.197 1.375 0.568 o
7 14 4 17.846 18.179 0.445 11.983 o
7 14 5 31.916 32.501 0.465 4.918 o
7 14 6 3.051 3.096 0.198 133.148 o
7 14 7 0.252 0.158 0.208 152.090 o
7 14 8 0.742 0.890 0.218 136.784 o
7 15 0 0.306 0.297 0.247 107.271 o
7 15 1 16.617 17.556 0.485 12.030 o
7 15 2 1.985 1.968 0.356 50.134 o
7 15 3 6.643 6.093 0.435 27.991 o
7 15 4 13.972 13.986 0.396 17.821 o
7 15 5 0.754 0.791 0.188 182.719 o
7 15 6 3.248 2.997 0.198 131.376 o
7 15 7 0.070 -0.188 0.188 186.009 o
7 16 0 0.033 -0.227 0.247 107.445 o
7 16 1 4.312 4.520 0.317 54.284 o
7 16 2 9.480 9.070 0.485 19.927 o
7 16 3 8.253 7.942 0.465 22.794 o
7 16 4 0.778 0.870 0.297 74.018 o
7 16 5 4.405 4.164 0.366 42.595 o
7 16 6 0.105 0.237 0.208 152.191 o
7 17 0 1.976 2.146 0.297 70.998 o
7 17 1 0.779 0.366 0.257 98.674 o
7 17 2 0.304 0.109 0.277 85.586 o
7 17 3 0.224 0.366 0.267 92.015 o
7 17 4 2.900 2.740 0.317 60.285 o
7 18 0 0.066 -0.386 0.267 92.115 o
7 18 1 0.029 -0.178 0.267 92.117 o
7 18 2 0.050 0.040 0.297 74.613 o
7 18 3 3.500 3.630 0.356 46.785 o
7 19 0 1.000 0.396 0.277 84.889 o
7 19 1 5.834 5.915 0.435 28.980 o
8 0 0 6.537 6.439 0.208 73.748 o
8 0 2 15.372 13.540 0.356 18.079 o
8 0 4 0.782 0.722 0.188 182.758 o
8 0 6 0.205 0.317 0.198 167.612 o
8 0 8 6.374 6.073 0.346 40.410 o
8 0 10 31.724 32.184 0.900 3.433 o
8 0 12 10.468 10.702 0.504 17.509 o
8 1 0 58.639 52.935 0.495 1.757 o
8 1 1 172.919 169.112 1.217 0.196 o
8 1 2 68.164 66.545 0.593 1.235 o
8 1 3 56.036 56.071 0.495 1.797 o
8 1 4 19.062 18.960 0.237 14.616 o
8 1 5 0.560 0.811 0.138 334.762 o
8 1 6 5.214 5.005 0.178 108.707 o
8 1 7 11.421 11.256 0.247 32.619 o
8 1 8 29.730 29.682 0.465 5.592 o
8 1 9 6.086 5.954 0.317 46.986 o
8 1 10 8.130 7.942 0.336 35.752 o
8 1 11 3.181 3.719 0.277 73.848 o
8 1 12 0.542 1.137 0.218 137.024 o
8 2 0 0.030 0.059 0.129 397.318 o
8 2 1 17.363 16.735 0.257 17.036 o
8 2 2 17.701 16.221 0.257 16.947 o
8 2 3 74.817 75.179 0.593 1.019 o
8 2 4 1.819 1.840 0.109 425.002 o
8 2 5 32.475 31.690 0.326 5.327 o
8 2 6 6.535 6.192 0.208 74.733 o
8 2 7 55.672 55.438 0.574 1.783 o
8 2 8 0.556 0.574 0.168 229.580 o
8 2 9 8.893 9.307 0.356 30.508 o
8 2 10 9.549 9.495 0.356 29.143 o
8 2 11 4.700 4.461 0.277 65.775 o
8 2 12 0.080 0.030 0.317 65.577 o
8 3 0 6.442 6.518 0.188 81.374 o
8 3 1 9.695 9.841 0.227 42.428 o
8 3 2 134.205 137.402 1.048 0.313 o
8 3 3 11.383 11.226 0.188 37.601 o
8 3 4 15.688 14.895 0.198 22.087 o
8 3 5 0.045 0.267 0.129 396.991 o
8 3 6 47.158 47.258 0.514 2.449 o
8 3 7 1.729 1.780 0.178 187.665 o
8 3 8 45.560 45.369 0.514 2.615 o
8 3 9 16.927 16.409 0.376 14.728 o
8 3 10 1.434 1.395 0.247 103.728 o
8 3 11 0.031 0.247 0.218 138.714 o
8 3 12 0.731 0.831 0.356 51.558 o
8 4 0 35.512 35.201 0.435 4.236 o
8 4 1 9.660 9.911 0.237 41.207 o
8 4 2 289.549 287.573 1.780 0.070 o
8 4 3 3.095 3.175 0.119 266.303 o
8 4 4 913.834 969.152 5.717 0.007 o
8 4 5 27.940 28.396 0.317 6.864 o
8 4 6 317.251 327.403 2.146 0.057 o
8 4 7 5.749 6.053 0.178 95.405 o
8 4 8 9.712 9.535 0.247 40.474 o
8 4 9 0.005 0.049 0.208 152.275 o
8 4 10 1.963 1.948 0.227 117.493 o
8 4 11 0.197 0.227 0.227 126.831 o
8 4 12 6.081 6.478 0.455 26.392 o
8 5 0 6.524 6.320 0.208 74.315 o
8 5 1 13.692 12.571 0.227 26.885 o
8 5 2 138.698 141.269 0.969 0.297 o
8 5 3 40.173 40.117 0.356 3.499 o
8 5 4 1.011 1.098 0.138 322.841 o
8 5 5 0.059 0.307 0.129 396.839 o
8 5 6 68.912 69.027 0.574 1.196 o
8 5 7 48.485 48.237 0.455 2.388 o
8 5 8 37.775 36.566 0.415 3.889 o
8 5 9 2.162 2.305 0.247 98.873 o
8 5 10 0.330 0.742 0.227 126.365 o
8 5 11 2.120 1.761 0.396 40.838 o
8 5 12 0.297 0.346 0.356 51.773 o
8 6 0 0.111 0.317 0.109 553.356 o
8 6 1 135.077 133.930 0.989 0.318 o
8 6 2 5.925 5.430 0.148 113.197 o
8 6 3 20.315 19.732 0.267 12.859 o
8 6 4 0.742 0.771 0.129 383.128 o
8 6 5 168.198 171.238 1.217 0.202 o
8 6 6 3.212 3.432 0.168 164.273 o
8 6 7 19.949 18.941 0.277 13.289 o
8 6 8 9.676 9.742 0.267 37.877 o
8 6 9 16.262 16.765 0.336 16.173 o
8 6 10 3.163 2.868 0.257 86.066 o
8 6 11 0.985 1.098 0.326 61.015 o
8 7 0 145.120 148.559 1.108 0.269 o
8 7 1 145.505 146.027 1.019 0.273 o
8 7 2 5.159 5.064 0.168 115.624 o
8 7 3 48.290 47.822 0.425 2.436 o
8 7 4 0.050 -0.030 0.119 466.306 o
8 7 5 0.133 0.129 0.129 396.910 o
8 7 6 3.903 3.660 0.158 160.616 o
8 7 7 0.560 0.425 0.138 337.551 o
8 7 8 6.701 6.726 0.247 59.710 o
8 7 9 6.652 6.617 0.247 60.258 o
8 7 10 7.186 6.933 0.297 46.002 o
8 7 11 0.448 -0.435 0.307 69.807 o
8 8 0 0.012 0.089 0.099 671.431 o
8 8 1 41.646 40.740 0.435 3.212 o
8 8 2 5.754 5.272 0.168 105.555 o
8 8 3 18.317 17.536 0.257 15.636 o
8 8 4 0.572 0.386 0.129 390.693 o
8 8 5 0.394 0.030 0.119 463.694 o
8 8 6 5.839 5.420 0.178 98.098 o
8 8 7 2.552 2.314 0.198 143.529 o
8 8 8 0.155 0.138 0.178 207.106 o
8 8 9 1.090 0.890 0.188 180.218 o
8 8 10 7.139 7.764 0.317 41.371 o
8 8 11 1.904 2.107 0.237 108.463 o
8 9 0 134.792 136.017 1.236 0.307 o
8 9 1 96.465 94.170 0.999 0.600 o
8 9 2 0.163 0.188 0.129 396.598 o
8 9 3 26.986 26.319 0.326 7.429 o
8 9 4 6.026 6.132 0.168 96.374 o
8 9 5 1.224 1.118 0.138 317.244 o
8 9 6 3.589 3.412 0.158 170.311 o
8 9 7 10.477 9.456 0.307 31.956 o
8 9 8 4.640 4.728 0.227 87.104 o
8 9 9 7.694 7.309 0.257 51.212 o
8 9 10 12.191 11.968 0.356 22.955 o
8 10 0 27.980 27.862 0.415 6.439 o
8 10 1 3.196 3.155 0.168 167.292 o
8 10 2 2.688 2.572 0.168 183.031 o
8 10 3 15.743 15.410 0.277 19.207 o
8 10 4 0.085 0.020 0.129 397.254 o
8 10 5 3.973 3.917 0.168 145.184 o
8 10 6 0.159 -0.168 0.168 232.266 o
8 10 7 18.933 19.287 0.356 12.613 o
8 10 8 3.521 3.284 0.218 109.105 o
8 10 9 4.595 4.312 0.277 66.565 o
8 10 10 0.002 -0.188 0.218 138.747 o
8 11 0 5.878 5.717 0.208 82.145 o
8 11 1 0.028 -0.198 0.129 397.350 o
8 11 2 0.002 0.109 0.138 342.593 o
8 11 3 0.829 0.811 0.148 288.813 o
8 11 4 2.622 2.581 0.158 202.559 o
8 11 5 4.592 4.619 0.218 93.404 o
8 11 6 49.456 50.364 0.623 2.135 o
8 11 7 0.091 0.188 0.178 207.156 o
8 11 8 4.802 5.173 0.227 84.119 o
8 11 9 4.414 4.609 0.277 66.709 o
8 12 0 0.152 -0.099 0.148 298.310 o
8 12 1 3.923 3.689 0.198 119.042 o
8 12 2 97.163 97.354 1.088 0.574 o
8 12 3 18.480 19.020 0.366 12.831 o
8 12 4 338.183 355.878 3.145 0.047 o
8 12 5 18.834 19.663 0.356 12.553 o
8 12 6 169.284 177.796 1.681 0.188 o
8 12 7 1.001 1.296 0.188 179.359 o
8 12 8 1.685 2.028 0.247 101.607 o
8 12 9 4.342 4.055 0.267 72.275 o
8 13 0 42.175 42.243 0.643 2.799 o
8 13 1 41.440 41.581 0.574 2.989 o
8 13 2 21.077 20.939 0.485 9.186 o
8 13 3 37.671 39.009 0.712 3.151 o
8 13 4 6.625 6.726 0.307 46.214 o
8 13 5 7.309 7.349 0.267 50.717 o
8 13 6 49.190 50.937 0.633 2.126 o
8 13 7 29.687 30.750 0.455 5.535 o
8 13 8 7.563 7.428 0.376 32.420 o
8 14 0 0.574 0.643 0.317 65.328 o
8 14 1 9.804 10.128 0.514 17.698 o
8 14 2 0.384 0.495 0.208 151.600 o
8 14 3 77.345 81.183 1.217 0.802 o
8 14 4 0.048 0.059 0.208 152.266 o
8 14 5 56.861 57.801 0.771 1.585 o
8 14 6 1.603 1.948 0.188 170.548 o
8 14 7 25.735 25.518 0.406 7.469 o
8 15 0 53.222 54.379 1.315 1.354 o
8 15 1 16.219 16.567 0.653 9.177 o
8 15 2 0.984 1.217 0.326 60.966 o
8 15 3 15.119 15.182 0.415 15.587 o
8 15 4 0.602 0.593 0.208 150.912 o
8 15 5 0.883 0.880 0.208 149.351 o
8 15 6 5.951 6.152 0.247 65.388 o
8 16 0 2.358 2.166 0.336 55.297 o
8 16 1 1.906 2.067 0.336 56.026 o
8 16 2 0.869 0.584 0.287 79.224 o
8 16 3 0.335 0.356 0.277 85.514 o
8 16 4 2.866 3.234 0.346 50.715 o
8 16 5 9.628 9.663 0.435 22.630 o
8 17 0 23.950 24.529 0.811 5.090 o
8 17 1 44.274 44.390 1.137 1.918 o
8 17 2 2.100 1.780 0.297 71.130 o
8 17 3 4.467 4.609 0.376 40.207 o
8 17 4 1.240 1.523 0.277 83.549 o
8 18 0 6.420 7.032 0.475 24.061 o
8 18 1 4.628 4.481 0.406 35.091 o
9 0 0 154.990 151.269 1.583 0.233 o
9 0 2 5.431 5.460 0.208 87.269 o
9 0 4 0.381 0.475 0.188 185.055 o
9 0 6 23.296 23.401 0.415 8.603 o
9 0 8 0.767 0.574 0.336 57.817 o
9 0 10 4.970 4.688 0.415 33.115 o
9 1 0 233.547 231.196 1.632 0.107 o
9 1 1 36.697 33.510 0.336 4.404 o
9 1 2 73.024 68.651 0.504 1.130 o
9 1 3 135.034 135.671 0.959 0.316 o
9 1 4 43.189 42.669 0.396 3.033 o
9 1 5 48.211 48.415 0.445 2.407 o
9 1 6 0.002 0.208 0.148 298.387 o
9 1 7 10.729 11.354 0.257 33.513 o
9 1 8 0.058 -0.158 0.237 116.583 o
9 1 9 1.016 0.603 0.247 105.994 o
9 1 10 0.530 0.752 0.247 106.754 o
9 1 11 1.043 1.029 0.227 124.136 o
9 2 0 2.045 2.028 0.129 312.120 o
9 2 1 60.715 60.324 0.574 1.523 o
9 2 2 23.211 22.858 0.227 10.415 o
9 2 3 8.277 7.814 0.148 70.148 o
9 2 4 0.002 0.158 0.129 397.284 o
9 2 5 13.111 13.115 0.227 27.552 o
9 2 6 15.911 15.944 0.287 18.375 o
9 2 7 16.741 16.547 0.297 16.845 o
9 2 8 6.499 5.974 0.287 52.263 o
9 2 9 13.650 13.649 0.415 17.524 o
9 2 10 0.249 0.376 0.237 116.396 o
9 2 11 8.405 8.229 0.326 36.061 o
9 3 0 8.844 8.011 0.158 62.732 o
9 3 1 3.194 3.135 0.119 262.489 o
9 3 2 23.735 23.758 0.237 9.828 o
9 3 3 3.484 3.284 0.129 224.869 o
9 3 4 35.499 35.260 0.317 4.492 o
9 3 5 15.778 14.994 0.277 19.429 o
9 3 6 0.000 0.099 0.168 232.356 o
9 3 7 0.901 1.088 0.168 224.366 o
9 3 8 39.391 40.295 0.613 3.148 o
9 3 9 0.088 -0.089 0.218 138.737 o
9 3 10 22.416 22.551 0.524 7.987 o
9 3 11 8.752 8.921 0.336 33.292 o
9 4 0 1.601 1.741 0.109 444.313 o
9 4 1 19.615 19.326 0.237 13.977 o
9 4 2 20.051 19.030 0.227 13.871 o
9 4 3 0.329 0.138 0.109 551.419 o
9 4 4 13.742 12.937 0.208 27.343 o
9 4 5 0.004 -0.010 0.138 342.621 o
9 4 6 393.356 400.772 2.760 0.037 o
9 4 7 2.948 3.422 0.198 132.436 o
9 4 8 179.743 186.213 2.028 0.164 o
9 4 9 0.304 0.376 0.218 138.406 o
9 4 10 17.638 18.100 0.415 12.724 o
9 4 11 1.705 1.879 0.247 101.826 o
9 5 0 20.937 20.197 0.237 12.605 o
9 5 1 23.947 23.659 0.267 9.535 o
9 5 2 2.751 2.878 0.129 262.725 o
9 5 3 24.000 23.916 0.247 9.589 o
9 5 4 51.028 50.907 0.455 2.168 o
9 5 5 1.968 1.721 0.148 253.920 o
9 5 6 1.746 1.761 0.158 231.546 o
9 5 7 4.928 4.639 0.178 115.163 o
9 5 8 34.257 34.538 0.574 4.080 o
9 5 9 28.198 29.059 0.514 5.735 o
9 5 10 25.235 25.676 0.485 7.030 o
9 5 11 3.562 3.778 0.277 72.162 o
9 6 0 0.938 1.039 0.109 510.742 o
9 6 1 0.256 0.396 0.099 664.789 o
9 6 2 0.597 0.653 0.109 536.353 o
9 6 3 39.934 39.049 0.376 3.556 o
9 6 4 4.734 5.064 0.168 122.222 o
9 6 5 14.050 13.422 0.237 24.852 o
9 6 6 2.803 2.898 0.168 177.562 o
9 6 7 36.889 37.110 0.504 3.780 o
9 6 8 0.650 1.058 0.188 182.551 o
9 6 9 24.922 24.697 0.475 7.334 o
9 6 10 4.555 4.757 0.267 69.504 o
9 6 11 2.324 2.690 0.396 40.299 o
9 7 0 36.650 35.824 0.336 4.239 o
9 7 1 15.821 15.736 0.218 20.648 o
9 7 2 109.112 109.925 0.940 0.473 o
9 7 3 23.716 22.877 0.336 9.259 o
9 7 4 19.269 19.069 0.267 13.928 o
9 7 5 91.901 93.754 0.742 0.667 o
9 7 6 0.239 0.317 0.138 341.268 o
9 7 7 0.145 -0.069 0.178 207.199 o
9 7 8 0.085 -0.069 0.168 232.337 o
9 7 9 1.356 1.335 0.188 176.168 o
9 7 10 1.803 2.037 0.227 118.171 o
9 8 0 74.317 73.518 0.673 1.025 o
9 8 1 5.624 5.331 0.168 106.937 o
9 8 2 8.455 8.110 0.208 55.362 o
9 8 3 23.519 23.461 0.336 9.218 o
9 8 4 18.142 17.576 0.267 15.593 o
9 8 5 0.194 0.208 0.129 396.331 o
9 8 6 0.634 0.692 0.178 204.278 o
9 8 7 1.172 0.593 0.188 180.696 o
9 8 8 4.724 4.283 0.227 88.182 o
9 8 9 0.000 -0.030 0.168 232.366 o
9 8 10 0.000 0.089 0.168 232.358 o
9 9 0 31.238 30.295 0.356 5.638 o
9 9 1 56.148 55.180 0.673 1.712 o
9 9 2 110.360 112.408 0.979 0.458 o
9 9 3 130.391 133.545 1.137 0.328 o
9 9 4 6.176 5.588 0.188 88.607 o
9 9 5 15.324 14.025 0.307 19.623 o
9 9 6 0.699 0.346 0.188 184.108 o
9 9 7 11.289 11.533 0.297 28.761 o
9 9 8 0.116 -0.010 0.178 207.222 o
9 9 9 1.922 1.662 0.188 168.565 o
9 9 10 2.538 2.750 0.336 54.529 o
9 10 0 1.425 1.315 0.158 242.086 o
9 10 1 40.124 40.295 0.554 3.189 o
9 10 2 0.948 1.068 0.148 284.747 o
9 10 3 1.814 1.721 0.158 230.540 o
9 10 4 17.540 17.012 0.307 15.590 o
9 10 5 1.944 2.047 0.188 166.037 o
9 10 6 1.498 1.533 0.198 157.900 o
9 10 7 2.073 2.206 0.208 136.836 o
9 10 8 0.696 0.613 0.188 183.503 o
9 10 9 3.922 4.342 0.218 100.661 o
9 11 0 38.063 38.178 0.534 3.529 o
9 11 1 3.123 3.175 0.188 142.735 o
9 11 2 0.014 -0.010 0.138 342.619 o
9 11 3 0.759 0.129 0.188 184.316 o
9 11 4 0.000 -0.188 0.198 167.884 o
9 11 5 0.416 0.059 0.168 231.582 o
9 11 6 0.074 0.010 0.178 207.245 o
9 11 7 0.598 0.307 0.178 205.499 o
9 11 8 13.773 13.867 0.317 21.393 o
9 12 0 5.455 5.371 0.227 78.459 o
9 12 1 3.690 3.778 0.208 112.954 o
9 12 2 17.470 17.586 0.445 12.373 o
9 12 3 6.879 6.360 0.297 47.996 o
9 12 4 36.220 35.725 0.584 3.750 o
9 12 5 2.867 3.175 0.247 92.899 o
9 12 6 101.481 104.941 1.088 0.521 o
9 12 7 11.178 11.562 0.297 28.961 o
9 12 8 116.746 121.072 1.404 0.383 o
9 13 0 19.681 20.414 0.475 10.007 o
9 13 1 8.092 8.486 0.317 37.842 o
9 13 2 8.119 8.259 0.317 38.068 o
9 13 3 4.817 4.827 0.277 64.453 o
9 13 4 14.268 15.004 0.415 16.371 o
9 13 5 24.335 25.370 0.485 7.330 o
9 13 6 2.807 2.473 0.208 128.734 o
9 13 7 0.970 0.920 0.188 180.965 o
9 14 0 2.648 2.908 0.376 43.977 o
9 14 1 7.606 7.715 0.317 40.159 o
9 14 2 1.130 1.484 0.227 122.927 o
9 14 3 2.761 2.779 0.247 94.586 o
9 14 4 6.350 5.460 0.277 56.399 o
9 14 5 21.726 21.384 0.495 8.739 o
9 14 6 0.101 0.069 0.188 185.975 o
9 15 0 1.463 1.494 0.317 64.073 o
9 15 1 1.575 1.958 0.326 59.895 o
9 15 2 37.566 38.317 0.702 3.211 o
9 15 3 16.301 16.785 0.435 13.583 o
9 15 4 6.116 6.469 0.287 52.782 o
9 15 5 8.401 8.734 0.317 36.733 o
9 16 0 18.882 18.694 0.682 7.726 o
9 16 1 3.395 3.620 0.366 44.690 o
9 16 2 6.825 6.864 0.435 27.354 o
9 16 3 5.056 4.520 0.376 39.316 o
9 16 4 2.819 3.007 0.218 116.557 o
9 17 0 10.939 11.028 0.544 15.401 o
9 17 1 58.468 61.174 1.424 1.122 o
9 17 2 21.209 21.661 0.722 6.461 o
10 0 0 14.891 15.420 0.366 17.269 o
10 0 2 147.969 149.014 1.474 0.252 o
10 0 4 1.174 0.959 0.208 147.759 o
10 0 6 2.039 2.512 0.237 106.666 o
10 0 8 12.513 12.413 0.554 13.805 o
10 0 10 1.059 1.207 0.336 57.414 o
10 1 0 23.388 22.343 0.317 9.710 o
10 1 1 0.381 0.336 0.148 296.502 o
10 1 2 19.652 18.624 0.247 14.098 o
10 1 3 3.869 3.353 0.148 178.272 o
10 1 4 102.094 103.506 0.791 0.545 o
10 1 5 57.186 56.248 0.495 1.749 o
10 1 6 9.088 9.396 0.208 48.712 o
10 1 7 34.274 34.983 0.564 4.078 o
10 1 8 6.089 6.409 0.287 53.000 o
10 1 9 9.713 9.851 0.376 26.850 o
10 1 10 1.343 1.602 0.247 103.683 o
10 2 0 14.572 14.470 0.247 22.604 o
10 2 1 2.145 2.067 0.119 346.424 o
10 2 2 12.504 12.235 0.188 32.417 o
10 2 3 5.723 5.578 0.168 103.881 o
10 2 4 17.127 17.012 0.247 17.369 o
10 2 5 9.864 9.357 0.208 45.245 o
10 2 6 0.318 0.495 0.168 231.105 o
10 2 7 0.106 -0.227 0.208 152.257 o
10 2 8 5.376 5.578 0.277 60.343 o
10 2 9 6.060 6.251 0.317 46.627 o
10 2 10 0.134 0.020 0.227 126.920 o
10 3 0 20.105 19.465 0.277 12.975 o
10 3 1 2.147 2.008 0.119 347.972 o
10 3 2 9.335 9.208 0.178 52.360 o
10 3 3 7.868 7.626 0.158 72.281 o
10 3 4 4.874 4.659 0.168 123.232 o
10 3 5 2.643 2.750 0.188 152.404 o
10 3 6 0.557 0.722 0.168 229.069 o
10 3 7 3.243 2.760 0.257 85.937 o
10 3 8 4.193 3.976 0.267 73.194 o
10 3 9 0.048 0.307 0.218 138.690 o
10 3 10 18.614 18.486 0.475 10.951 o
10 4 0 56.828 55.685 0.465 1.787 o
10 4 1 3.548 3.343 0.129 221.349 o
10 4 2 4.273 4.105 0.148 158.989 o
10 4 3 0.325 0.465 0.109 548.041 o
10 4 4 6.559 6.538 0.148 95.728 o
10 4 5 6.596 6.399 0.198 76.897 o
10 4 6 1.592 2.433 0.198 153.003 o
10 4 7 2.190 2.206 0.257 92.057 o
10 4 8 94.350 97.572 1.177 0.583 o
10 4 9 0.082 0.129 0.227 126.919 o
10 4 10 84.936 84.932 1.266 0.696 o
10 5 0 35.652 34.459 0.336 4.492 o
10 5 1 27.089 26.477 0.287 7.576 o
10 5 2 7.429 7.418 0.168 74.539 o
10 5 3 23.906 24.064 0.287 9.311 o
10 5 4 4.119 4.075 0.158 151.603 o
10 5 5 6.297 6.765 0.188 81.576 o
10 5 6 7.940 7.665 0.247 51.314 o
10 5 7 1.455 1.296 0.247 103.823 o
10 5 8 4.773 4.461 0.277 65.456 o
10 5 9 1.091 1.246 0.237 113.724 o
10 5 10 11.364 12.334 0.346 24.498 o
10 6 0 5.899 5.539 0.148 112.736 o
10 6 1 0.111 0.198 0.109 553.999 o
10 6 2 1.568 1.721 0.129 339.017 o
10 6 3 7.533 7.388 0.208 63.187 o
10 6 4 1.079 1.058 0.138 321.694 o
10 6 5 0.410 0.514 0.148 295.573 o
10 6 6 2.748 2.760 0.208 127.898 o
10 6 7 13.660 13.264 0.307 22.444 o
10 6 8 2.906 3.353 0.257 86.138 o
10 6 9 2.804 2.394 0.247 95.395 o
10 6 10 0.002 0.326 0.208 152.229 o
10 7 0 7.557 7.497 0.168 73.032 o
10 7 1 12.809 12.759 0.208 29.749 o
10 7 2 8.348 7.339 0.208 58.222 o
10 7 3 9.232 9.347 0.227 45.287 o
10 7 4 43.574 42.965 0.445 2.932 o
10 7 5 4.909 4.619 0.208 96.203 o
10 7 6 22.526 23.095 0.386 9.265 o
10 7 7 43.143 44.360 0.574 2.751 o
10 7 8 0.317 0.059 0.178 206.886 o
10 7 9 5.418 5.608 0.277 60.096 o
10 8 0 5.582 5.657 0.168 105.260 o
10 8 1 2.342 2.047 0.129 298.640 o
10 8 2 26.157 25.854 0.356 7.604 o
10 8 3 0.024 0.247 0.148 298.318 o
10 8 4 10.655 10.504 0.247 35.850 o
10 8 5 1.387 1.098 0.188 176.960 o
10 8 6 9.686 9.762 0.277 36.681 o
10 8 7 5.391 5.133 0.227 79.811 o
10 8 8 3.638 3.294 0.208 116.032 o
10 8 9 2.247 2.235 0.188 161.099 o
10 9 0 2.280 2.344 0.148 236.622 o
10 9 1 2.824 2.809 0.178 162.914 o
10 9 2 19.078 18.565 0.307 13.625 o
10 9 3 8.108 7.853 0.227 54.005 o
10 9 4 38.256 38.752 0.593 3.360 o
10 9 5 71.583 72.845 0.811 1.045 o
10 9 6 19.668 19.950 0.366 11.774 o
10 9 7 15.216 14.856 0.317 18.898 o
10 9 8 0.013 0.020 0.168 232.364 o
10 9 9 6.222 5.994 0.376 36.041 o
10 10 0 19.966 19.683 0.356 11.825 o
10 10 1 0.005 0.079 0.148 298.448 o
10 10 2 2.173 2.117 0.178 178.829 o
10 10 3 6.478 6.389 0.267 56.406 o
10 10 4 0.032 0.010 0.198 167.881 o
10 10 5 3.769 3.551 0.247 86.464 o
10 10 6 9.020 9.376 0.277 39.248 o
10 10 7 0.325 0.514 0.178 206.201 o
10 10 8 0.015 0.188 0.168 232.319 o
10 11 0 9.484 9.277 0.267 39.203 o
10 11 1 0.008 -0.129 0.188 186.021 o
10 11 2 1.728 1.602 0.237 110.529 o
10 11 3 3.910 3.818 0.237 90.378 o
10 11 4 8.408 8.358 0.297 39.937 o
10 11 5 0.339 0.376 0.218 138.356 o
10 11 6 1.213 1.177 0.188 178.123 o
10 11 7 0.019 -0.089 0.168 232.364 o
10 12 0 0.161 0.000 0.208 152.232 o
10 12 1 7.861 7.824 0.317 39.323 o
10 12 2 19.239 19.435 0.475 10.427 o
10 12 3 0.146 0.277 0.218 138.633 o
10 12 4 14.292 14.431 0.366 18.394 o
10 12 5 5.262 4.995 0.267 65.451 o
10 12 6 2.918 3.383 0.257 86.005 o
10 12 7 0.025 0.010 0.178 207.262 o
10 13 0 21.378 21.661 0.495 8.816 o
10 13 1 0.198 0.208 0.208 152.121 o
10 13 2 0.692 0.682 0.208 150.478 o
10 13 3 4.604 4.935 0.277 65.153 o
10 13 4 1.013 0.860 0.218 135.864 o
10 13 5 0.054 0.257 0.188 185.937 o
10 13 6 12.182 11.978 0.336 24.115 o
10 14 0 0.377 0.227 0.198 167.387 o
10 14 1 0.399 0.307 0.208 151.759 o
10 14 2 9.894 10.118 0.346 28.846 o
10 14 3 0.697 0.771 0.208 150.304 o
10 14 4 0.618 0.564 0.198 166.224 o
10 14 5 1.720 1.602 0.218 130.307 o
10 15 0 0.596 0.406 0.297 74.355 o
10 15 1 1.408 1.484 0.317 64.151 o
10 15 2 0.667 0.277 0.198 166.552 o
10 15 3 3.282 3.066 0.237 97.270 o
10 15 4 8.690 8.526 0.307 37.545 o
10 16 0 0.752 1.444 0.307 69.108 o
10 16 1 2.945 3.472 0.356 47.828 o
10 16 2 4.276 4.055 0.366 42.909 o
11 0 0 1.292 1.078 0.287 78.309 o
11 0 2 17.346 17.408 0.376 14.015 o
11 0 4 32.823 32.600 0.504 4.630 o
11 0 6 7.394 6.953 0.356 35.740 o
11 0 8 6.878 7.339 0.475 23.539 o
11 0 10 2.363 2.067 0.336 55.366 o
11 1 0 0.110 0.346 0.129 396.434 o
11 1 1 3.882 3.828 0.237 90.537 o
11 1 2 0.535 0.415 0.148 294.894 o
11 1 3 0.069 0.030 0.129 397.277 o
11 1 4 4.566 4.837 0.178 118.936 o
11 1 5 0.277 0.376 0.148 297.053 o
11 1 6 54.131 56.189 0.673 1.768 o
11 1 7 12.195 11.691 0.336 24.318 o
11 1 8 4.801 4.530 0.297 58.582 o
11 1 9 17.852 17.566 0.465 11.764 o
11 1 10 3.160 3.412 0.336 52.761 o
11 2 0 0.335 0.346 0.129 394.384 o
11 2 1 8.250 8.259 0.218 54.159 o
11 2 2 7.025 6.943 0.208 68.207 o
11 2 3 0.000 0.000 0.129 397.359 o
11 2 4 0.321 0.544 0.138 339.619 o
11 2 5 0.002 0.010 0.138 342.621 o
11 2 6 0.417 0.406 0.208 151.625 o
11 2 7 4.942 4.599 0.267 67.991 o
11 2 8 4.057 4.154 0.267 73.425 o
11 2 9 0.045 0.188 0.227 126.922 o
11 3 0 38.158 37.090 0.415 3.810 o
11 3 1 23.320 22.650 0.267 10.098 o
11 3 2 70.501 70.610 0.584 1.144 o
11 3 3 0.926 1.137 0.138 324.372 o
11 3 4 4.369 4.471 0.168 133.193 o
11 3 5 0.933 0.584 0.168 226.566 o
11 3 6 0.511 0.267 0.218 138.163 o
11 3 7 0.250 0.158 0.218 138.595 o
11 3 8 0.375 0.277 0.218 138.376 o
11 3 9 0.009 -0.129 0.208 152.276 o
11 4 0 71.379 70.986 0.673 1.101 o
11 4 1 2.993 2.987 0.138 227.418 o
11 4 2 15.550 15.054 0.227 21.277 o
11 4 3 1.722 2.008 0.138 288.646 o
11 4 4 17.028 16.794 0.247 17.608 o
11 4 5 5.857 5.836 0.277 57.703 o
11 4 6 2.655 2.403 0.247 96.159 o
11 4 7 5.311 4.886 0.267 65.480 o
11 4 8 2.390 2.532 0.247 97.193 o
11 4 9 0.498 0.682 0.218 137.758 o
11 5 0 60.535 60.422 0.593 1.519 o
11 5 1 14.150 13.659 0.218 25.291 o
11 5 2 60.372 59.621 0.524 1.564 o
11 5 3 16.122 15.707 0.257 19.124 o
11 5 4 0.635 0.771 0.138 333.863 o
11 5 5 0.389 0.237 0.168 231.349 o
11 5 6 2.153 2.423 0.247 98.632 o
11 5 7 0.303 -0.020 0.218 138.617 o
11 5 8 0.526 0.673 0.208 151.019 o
11 5 9 3.825 3.927 0.247 84.974 o
11 6 0 2.202 2.225 0.129 300.851 o
11 6 1 1.567 1.622 0.129 341.059 o
11 6 2 5.569 5.361 0.158 113.499 o
11 6 3 11.375 11.325 0.247 32.649 o
11 6 4 1.778 1.444 0.208 142.328 o
11 6 5 9.816 9.742 0.267 37.450 o
11 6 6 0.717 0.465 0.178 204.458 o
11 6 7 0.523 0.277 0.218 138.131 o
11 6 8 1.287 1.543 0.227 122.120 o
11 6 9 3.510 3.531 0.247 88.097 o
11 7 0 4.968 4.886 0.158 127.443 o
11 7 1 28.601 28.940 0.326 6.558 o
11 7 2 11.702 11.651 0.247 31.372 o
11 7 3 0.287 0.307 0.148 297.199 o
11 7 4 0.111 0.257 0.198 167.766 o
11 7 5 0.061 0.069 0.168 232.330 o
11 7 6 10.882 10.890 0.297 30.319 o
11 7 7 4.954 4.866 0.267 67.274 o
11 7 8 11.928 11.829 0.336 24.631 o
11 8 0 14.435 14.193 0.257 22.664 o
11 8 1 24.601 24.648 0.336 8.520 o
11 8 2 0.816 0.771 0.148 289.304 o
11 8 3 6.811 7.072 0.277 51.178 o
11 8 4 12.956 12.195 0.336 22.789 o
11 8 5 1.153 1.276 0.218 134.354 o
11 8 6 4.308 4.174 0.218 97.931 o
11 8 7 0.018 0.089 0.168 232.350 o
11 8 8 1.177 1.404 0.178 196.686 o
11 9 0 9.726 9.436 0.218 44.382 o
11 9 1 0.108 0.297 0.208 152.164 o
11 9 2 12.656 12.255 0.326 23.734 o
11 9 3 0.381 0.208 0.198 167.400 o
11 9 4 6.994 6.894 0.277 50.805 o
11 9 5 2.219 2.265 0.237 106.353 o
11 9 6 9.913 9.821 0.277 35.951 o
11 9 7 15.767 16.132 0.376 15.816 o
11 10 0 12.161 12.393 0.376 21.618 o
11 10 1 4.578 3.917 0.267 71.457 o
11 10 2 2.897 2.888 0.247 93.531 o
11 10 3 0.130 0.376 0.198 167.675 o
11 10 4 0.231 0.415 0.208 151.949 o
11 10 5 0.192 0.188 0.198 167.715 o
11 10 6 0.609 0.811 0.208 150.544 o
11 10 7 2.684 2.740 0.198 139.598 o
11 11 0 35.214 35.775 0.673 3.623 o
11 11 1 0.739 0.435 0.208 150.734 o
11 11 2 2.156 2.047 0.247 99.504 o
11 11 3 0.077 0.297 0.188 185.893 o
11 11 4 3.249 3.224 0.237 96.964 o
11 11 5 1.587 1.563 0.208 143.287 o
11 11 6 7.394 7.359 0.287 46.444 o
11 12 0 3.265 3.155 0.257 84.822 o
11 12 1 0.857 1.157 0.227 124.549 o
11 12 2 0.361 0.475 0.218 138.243 o
11 12 3 3.779 3.758 0.267 75.712 o
11 12 4 8.134 8.526 0.297 40.499 o
11 12 5 0.437 0.435 0.188 184.940 o
11 13 0 44.679 46.843 0.811 2.269 o
11 13 1 39.668 41.363 0.752 2.828 o
11 13 2 8.664 9.159 0.346 32.127 o
11 13 3 6.634 6.993 0.307 45.769 o
11 13 4 2.943 2.730 0.237 100.599 o
11 13 5 1.370 1.573 0.297 72.761 o
11 14 0 4.400 4.540 0.267 70.801 o
11 14 1 1.993 2.018 0.227 117.104 o
11 14 2 1.348 1.039 0.208 146.558 o
11 14 3 0.981 1.147 0.208 148.266 o
11 15 0 2.982 3.076 0.356 48.078 o
11 15 1 1.336 1.513 0.218 132.817 o
11 15 2 4.095 3.739 0.356 45.637 o
12 0 0 290.471 300.777 4.065 0.060 o
12 0 2 0.153 0.752 0.317 65.492 o
12 0 4 0.674 0.841 0.257 98.479 o
12 0 6 0.638 0.831 0.267 91.431 o
12 0 8 13.422 12.818 0.554 13.230 o
12 1 0 73.307 73.498 0.870 0.995 o
12 1 1 0.947 1.029 0.227 124.465 o
12 1 2 0.947 0.880 0.218 136.078 o
12 1 3 7.870 7.883 0.198 61.712 o
12 1 4 0.001 -0.227 0.178 207.265 o
12 1 5 0.188 0.307 0.188 185.726 o
12 1 6 4.711 4.708 0.227 86.627 o
12 1 7 0.019 0.000 0.208 152.275 o
12 1 8 6.953 6.904 0.317 43.100 o
12 2 0 1.156 1.404 0.148 277.460 o
12 2 1 53.489 54.903 0.712 1.791 o
12 2 2 10.549 10.929 0.267 33.678 o
12 2 3 0.039 0.485 0.168 232.053 o
12 2 4 0.064 -0.188 0.168 232.350 o
12 2 5 0.008 -0.059 0.178 207.264 o
12 2 6 3.248 3.353 0.247 90.186 o
12 2 7 0.045 -0.010 0.208 152.273 o
12 2 8 0.636 0.910 0.208 150.276 o
12 3 0 38.760 37.921 0.445 3.638 o
12 3 1 25.014 24.865 0.376 8.032 o
12 3 2 12.946 12.512 0.227 28.603 o
12 3 3 3.706 4.085 0.208 111.182 o
12 3 4 47.623 49.305 0.712 2.170 o
12 3 5 8.151 9.119 0.317 36.879 o
12 3 6 0.284 0.623 0.218 138.247 o
12 3 7 0.007 0.227 0.208 152.251 o
12 3 8 0.840 0.870 0.208 149.554 o
12 4 0 26.055 26.023 0.356 7.610 o
12 4 1 10.571 10.524 0.257 35.112 o
12 4 2 21.393 21.097 0.297 11.319 o
12 4 3 2.061 2.156 0.188 163.947 o
12 4 4 0.308 0.346 0.208 151.882 o
12 4 5 0.360 0.465 0.208 151.680 o
12 4 6 21.865 22.581 0.445 9.017 o
12 4 7 1.054 1.147 0.218 135.098 o
12 4 8 0.178 0.435 0.198 167.562 o
12 5 0 9.182 9.238 0.247 42.923 o
12 5 1 18.740 18.684 0.277 14.367 o
12 5 2 23.169 22.472 0.317 9.784 o
12 5 3 36.560 36.962 0.495 3.850 o
12 5 4 42.007 41.927 0.791 2.587 o
12 5 5 2.625 2.789 0.247 95.295 o
12 5 6 1.057 1.217 0.218 134.934 o
12 5 7 3.428 3.205 0.237 95.820 o
12 5 8 1.110 1.098 0.208 147.728 o
12 6 0 0.122 0.386 0.148 297.813 o
12 6 1 0.551 0.762 0.129 387.544 o
12 6 2 1.628 1.701 0.178 189.531 o
12 6 3 8.648 8.575 0.287 40.298 o
12 6 4 3.742 3.679 0.237 92.030 o
12 6 5 2.248 2.423 0.227 114.200 o
12 6 6 1.693 1.711 0.227 119.698 o
12 6 7 1.256 1.315 0.218 133.755 o
12 7 0 5.541 5.648 0.198 90.120 o
12 7 1 0.574 0.821 0.168 228.588 o
12 7 2 11.277 11.404 0.277 30.439 o
12 7 3 1.352 1.741 0.208 144.303 o
12 7 4 3.506 3.531 0.237 94.174 o
12 7 5 5.379 5.420 0.267 63.848 o
12 7 6 1.409 1.622 0.188 174.288 o
12 7 7 2.541 2.957 0.227 110.322 o
12 8 0 193.310 200.356 2.146 0.142 o
12 8 1 0.668 0.959 0.168 227.259 o
12 8 2 2.539 2.631 0.227 111.495 o
12 8 3 19.823 20.780 0.425 10.572 o
12 8 4 5.231 5.519 0.267 64.327 o
12 8 5 0.658 1.029 0.208 149.972 o
12 8 6 5.867 6.112 0.267 59.862 o
12 8 7 0.007 0.099 0.188 186.013 o
12 9 0 6.557 6.844 0.257 57.533 o
12 9 1 9.727 10.098 0.356 28.298 o
12 9 2 20.971 21.057 0.425 9.958 o
12 9 3 6.290 6.449 0.277 54.571 o
12 9 4 3.950 3.877 0.247 84.359 o
12 9 5 3.380 3.531 0.237 95.037 o
12 9 6 0.077 0.267 0.188 185.908 o
12 10 0 2.626 2.384 0.247 96.358 o
12 10 1 40.847 42.817 0.771 2.664 o
12 10 2 2.854 2.591 0.257 88.253 o
12 10 3 0.126 0.277 0.208 152.157 o
12 10 4 2.268 2.760 0.227 112.933 o
12 10 5 0.023 0.415 0.188 185.886 o
12 10 6 1.944 2.216 0.326 59.170 o
12 11 0 3.669 3.640 0.267 76.516 o
12 11 1 6.456 5.786 0.297 50.446 o
12 11 2 29.965 31.650 0.643 4.610 o
12 11 3 0.224 0.425 0.218 138.478 o
12 11 4 3.259 2.858 0.227 105.348 o
12 11 5 0.468 0.188 0.188 185.222 o
12 12 0 12.186 12.037 0.376 21.812 o
12 12 1 1.472 1.553 0.227 121.230 o
12 12 2 11.227 11.424 0.376 23.485 o
12 12 3 0.727 0.593 0.208 150.513 o
12 12 4 3.293 3.551 0.247 89.331 o
12 13 0 0.726 0.732 0.208 150.271 o
12 13 1 12.178 11.938 0.376 21.884 o
12 13 2 26.548 26.131 0.554 6.174 o
12 13 3 20.352 20.335 0.475 9.734 o
12 14 0 0.018 0.168 0.188 185.995 o
12 14 1 2.144 2.047 0.227 116.083 o
13 0 0 298.106 315.840 4.302 0.055 o
13 0 2 386.820 400.159 7.181 0.030 o
13 0 4 4.159 4.283 0.514 23.158 o
13 0 6 0.115 0.870 0.267 91.929 o
13 1 0 53.464 53.252 0.712 1.824 o
13 1 1 21.108 20.662 0.534 8.619 o
13 1 2 17.445 17.962 0.504 11.107 o
13 1 3 0.414 0.267 0.307 69.772 o
13 1 4 18.952 19.683 0.415 11.472 o
13 1 5 6.148 6.399 0.237 66.681 o
13 1 6 0.424 0.880 0.188 184.143 o
13 1 7 0.054 0.386 0.188 185.866 o
13 2 0 0.004 0.356 0.208 152.220 o
13 2 1 27.760 27.684 0.603 5.478 o
13 2 2 3.443 3.491 0.317 58.051 o
13 2 3 34.754 35.023 0.712 3.599 o
13 2 4 15.170 15.954 0.376 16.431 o
13 2 5 6.361 6.449 0.247 62.281 o
13 2 6 0.161 -0.010 0.198 167.831 o
13 2 7 0.010 0.089 0.188 186.014 o
13 3 0 0.827 0.860 0.168 226.262 o
13 3 1 0.940 0.762 0.198 164.348 o
13 3 2 10.131 9.505 0.386 25.693 o
13 3 3 18.608 18.842 0.406 12.086 o
13 3 4 11.922 11.968 0.336 24.529 o
13 3 5 0.537 0.732 0.188 183.972 o
13 3 6 11.701 11.750 0.326 25.701 o
13 3 7 4.539 5.153 0.247 76.771 o
13 4 0 0.750 0.475 0.188 183.576 o
13 4 1 3.500 3.462 0.227 101.137 o
13 4 2 10.841 10.445 0.267 33.545 o
13 4 3 0.093 0.168 0.208 152.223 o
13 4 4 3.592 3.620 0.247 87.332 o
13 4 5 0.367 0.396 0.247 107.176 o
13 4 6 0.105 0.218 0.198 167.790 o
13 4 7 0.755 0.940 0.198 164.834 o
13 5 0 0.370 0.514 0.188 185.026 o
13 5 1 9.811 10.000 0.297 33.881 o
13 5 2 2.234 2.423 0.188 160.050 o
13 5 3 0.384 0.613 0.178 205.769 o
13 5 4 9.576 9.515 0.386 26.496 o
13 5 5 23.088 22.986 0.554 7.432 o
13 5 6 15.349 16.389 0.475 13.329 o
13 6 0 1.416 1.217 0.198 159.811 o
13 6 1 19.421 19.999 0.406 11.285 o
13 6 2 0.005 -0.030 0.158 262.319 o
13 6 3 11.980 11.839 0.326 25.155 o
13 6 4 1.067 1.365 0.208 147.237 o
13 6 5 2.580 2.631 0.297 68.885 o
13 6 6 2.176 2.423 0.317 62.144 o
13 7 0 15.424 15.202 0.356 17.170 o
13 7 1 47.215 49.533 0.702 2.195 o
13 7 2 3.867 4.115 0.208 109.343 o
13 7 3 0.000 0.148 0.208 152.267 o
13 7 4 10.040 10.000 0.317 31.384 o
13 7 5 0.107 0.089 0.198 167.837 o
13 7 6 0.007 0.208 0.247 107.436 o
13 8 0 279.372 295.990 3.758 0.064 o
13 8 1 5.490 5.934 0.227 76.151 o
13 8 2 167.214 175.194 1.919 0.188 o
13 8 3 0.120 0.732 0.208 151.874 o
13 8 4 21.663 22.333 0.435 9.259 o
13 8 5 2.798 2.928 0.227 108.556 o
13 9 0 12.827 13.323 0.406 18.892 o
13 9 1 5.611 5.964 0.307 50.673 o
13 9 2 5.794 6.370 0.277 56.827 o
13 9 3 0.589 0.633 0.208 150.893 o
13 9 4 11.654 12.452 0.336 24.570 o
13 9 5 9.832 10.791 0.396 24.475 o
13 10 0 10.059 10.642 0.366 26.480 o
13 10 1 37.266 37.674 0.712 3.242 o
13 10 2 4.929 5.064 0.297 57.173 o
13 10 3 30.513 32.521 0.534 4.899 o
13 10 4 0.791 1.039 0.208 149.406 o
13 11 0 9.881 9.871 0.356 28.229 o
13 11 1 0.082 0.049 0.218 138.731 o
13 11 2 6.218 5.747 0.297 51.351 o
13 11 3 3.584 3.818 0.267 76.501 o
13 12 0 5.487 5.252 0.277 60.570 o
13 12 1 2.421 2.483 0.237 104.574 o
13 12 2 0.090 -0.020 0.287 79.846 o
14 0 0 20.692 20.424 0.732 6.592 o
14 0 2 112.591 117.225 2.423 0.328 o
14 0 4 218.904 234.588 4.401 0.089 o
14 0 6 24.406 26.744 0.841 4.707 o
14 1 0 33.152 33.371 0.682 3.947 o
14 1 1 17.403 17.872 0.495 11.339 o
14 1 2 10.117 9.762 0.406 24.063 o
14 1 3 11.138 10.642 0.415 21.660 o
14 1 4 0.145 0.188 0.297 74.592 o
14 1 5 0.501 0.534 0.208 151.278 o
14 1 6 25.659 25.696 0.564 6.357 o
14 2 0 17.270 17.991 0.495 11.376 o
14 2 1 8.598 8.674 0.386 28.620 o
14 2 2 0.279 0.030 0.277 85.609 o
14 2 3 22.563 24.044 0.584 7.158 o
14 2 4 1.691 1.859 0.227 119.303 o
14 2 5 13.718 14.589 0.366 18.932 o
14 3 0 17.399 17.487 0.475 11.832 o
14 3 1 12.113 12.443 0.425 19.147 o
14 3 2 1.657 1.830 0.287 76.868 o
14 3 3 5.737 6.103 0.356 40.044 o
14 3 4 0.188 0.336 0.208 152.060 o
14 3 5 1.936 1.978 0.267 87.075 o
14 4 0 0.154 0.307 0.198 167.689 o
14 4 1 0.274 0.346 0.208 151.937 o
14 4 2 0.520 0.564 0.267 91.718 o
14 4 3 0.434 0.613 0.208 151.348 o
14 4 4 1.584 1.761 0.218 130.662 o
14 4 5 1.967 1.988 0.277 81.177 o
14 5 0 10.364 10.662 0.317 29.990 o
14 5 1 41.899 43.203 0.801 2.539 o
14 5 2 0.125 0.168 0.188 185.910 o
14 5 3 0.071 0.079 0.198 167.859 o
14 5 4 0.056 0.297 0.257 99.310 o
14 5 5 0.060 0.435 0.247 107.380 o
14 6 0 6.657 6.745 0.277 52.456 o
14 6 1 9.958 10.692 0.317 30.814 o
14 6 2 2.213 2.492 0.218 123.668 o
14 6 3 0.921 1.484 0.247 105.151 o
14 6 4 0.154 0.534 0.267 92.007 o
14 7 0 6.842 6.924 0.326 41.640 o
14 7 1 0.198 0.168 0.208 152.140 o
14 7 2 10.204 10.959 0.396 23.869 o
14 7 3 17.693 18.545 0.762 7.057 o
14 7 4 2.591 3.066 0.227 109.565 o
14 8 0 1.215 1.029 0.247 104.969 o
14 8 1 0.019 0.267 0.227 126.917 o
14 8 2 115.716 123.308 1.751 0.360 o
14 8 3 11.974 13.432 0.435 18.352 o
14 9 0 20.454 21.750 0.514 8.900 o
14 9 1 37.164 38.584 1.019 2.550 o
14 9 2 20.957 21.324 0.504 8.915 o
14 10 0 0.311 0.208 0.317 65.525 o
14 10 1 9.486 9.752 0.356 29.027 o
14 11 0 6.588 6.508 0.435 27.820 o
15 0 0 1.304 1.988 0.396 41.299 o
15 0 2 0.128 -0.030 0.376 46.503 o
15 0 4 45.331 46.654 1.187 1.783 o
15 1 0 17.398 18.070 0.495 11.293 o
15 1 1 0.342 0.208 0.267 91.994 o
15 1 2 14.027 14.510 0.445 15.767 o
15 1 3 1.663 1.761 0.287 76.931 o
15 1 4 1.987 2.245 0.287 75.564 o
15 2 0 0.128 0.267 0.247 107.388 o
15 2 1 27.139 27.605 0.613 5.544 o
15 2 2 2.371 2.809 0.297 69.209 o
15 2 3 2.428 2.473 0.297 69.499 o
15 2 4 4.841 6.488 0.514 22.189 o
15 3 0 15.544 15.687 0.455 13.949 o
15 3 1 11.953 12.729 0.425 19.164 o
15 3 2 30.260 31.670 0.663 4.486 o
15 3 3 20.066 20.869 0.524 9.077 o
15 4 0 31.771 32.699 0.534 4.683 o
15 4 1 4.951 5.479 0.317 51.037 o
15 4 2 0.607 0.920 0.257 98.521 o
15 4 3 0.747 0.979 0.257 98.243 o
15 5 0 23.297 24.005 0.445 8.218 o
15 5 1 18.929 19.406 0.396 11.898 o
15 5 2 16.777 17.981 0.475 12.036 o
15 5 3 17.221 18.070 0.712 7.822 o
15 6 0 1.191 1.345 0.208 146.580 o
15 6 1 4.835 4.817 0.247 75.979 o
15 6 2 4.268 4.342 0.297 60.800 o
15 7 0 1.975 1.523 0.247 101.450 o
15 7 1 0.035 0.287 0.188 185.940 o
15 8 0 0.023 0.227 0.208 152.244 o
16 0 0 3.862 4.243 0.415 34.605 o
16 1 0 3.475 4.035 0.297 64.026 o
16 1 1 0.025 0.138 0.237 116.578 o
16 2 0 0.102 0.099 0.237 116.563 o
16 2 1 0.333 0.475 0.247 107.171 o
16 3 0 1.848 2.186 0.257 93.444 o
16 3 1 0.353 1.078 0.356 51.660 o
16 4 0 11.813 12.077 0.386 21.712 o
;
_olex2_submission_special_instructions 'No special instructions were received'
loop_
_space_group_symop_id
_space_group_symop_operation_xyz
1 x,y,z
2 -x,y+1/2,-z+1/2
3 -x,-y,-z
4 x,-y-1/2,z-1/2
loop_
_atom_site_label
_atom_site_type_symbol
_atom_site_fract_x
_atom_site_fract_y
_atom_site_fract_z
_atom_site_U_iso_or_equiv
_atom_site_adp_type
_atom_site_occupancy
_atom_site_refinement_flags_posn
O(1) O 0.353801(18) 0.208856(15) 0.47461(2) 0.01385(3) Uani 1.000000 .
H(1a H 0.2866(7) 0.2588(5) 0.3853(8) 0.0224(11) Uiso 1.000000 .
H(1b H 0.2791(7) 0.1797(5) 0.5403(8) 0.0241(11) Uiso 1.000000 .
O(2) O 0.148170(18) 0.120790(13) 0.71699(2) 0.01209(2) Uani 1.000000 .
N(1) N -0.085293(19) 0.004260(14) 0.78140(2) 0.01007(2) Uani 1.000000 .
N(3) N -0.079119(18) 0.244377(13) 0.78911(2) 0.00961(2) Uani 1.000000 .
N(4) N -0.31104(2) 0.362110(15) 0.86902(2) 0.01236(3) Uani 1.000000 .
C(2) C -0.00203(2) 0.125050(14) 0.76000(2) 0.00907(2) Uani 1.000000 .
C(4) C -0.23595(2) 0.243264(15) 0.84321(2) 0.00934(2) Uani 1.000000 .
C(5) C -0.32216(2) 0.118633(16) 0.87389(2) 0.01124(3) Uani 1.000000 .
C(6) C -0.24196(2) 0.001434(16) 0.83954(2) 0.01068(3) Uani 1.000000 .
H(1) H -0.0277(6) -0.0805(5) 0.7576(7) 0.0227(10) Uiso 1.000000 .
H(4a H -0.2552(6) 0.4457(5) 0.8414(7) 0.0226(10) Uiso 1.000000 .
H(4b H -0.4264(7) 0.3618(5) 0.9111(7) 0.0238(11) Uiso 1.000000 .
H(5) H -0.4416(7) 0.1199(5) 0.9238(8) 0.0295(13) Uiso 1.000000 .
H(6) H -0.2995(6) -0.0983(6) 0.8564(7) 0.0262(11) Uiso 1.000000 .
loop_
_atom_site_aniso_label
_atom_site_aniso_U_11
_atom_site_aniso_U_22
_atom_site_aniso_U_33
_atom_site_aniso_U_12
_atom_site_aniso_U_13
_atom_site_aniso_U_23
O(1) 0.01170(5) 0.01415(5) 0.01675(5) 0.00045(3) 0.00543(4) 0.00054(4)
O(2) 0.01043(4) 0.00991(5) 0.01751(5) -0.00010(3) 0.00676(4) -0.00024(3)
N(1) 0.01026(4) 0.00727(4) 0.01340(5) -0.00039(3) 0.00409(4) -0.00009(3)
N(3) 0.00924(4) 0.00683(4) 0.01363(5) -0.00057(3) 0.00441(4) -0.00012(3)
N(4) 0.01169(5) 0.00851(4) 0.01812(6) 0.00084(3) 0.00597(4) -0.00047(4)
C(2) 0.00878(5) 0.00772(5) 0.01140(5) -0.00037(3) 0.00364(4) -0.00001(3)
C(4) 0.00922(5) 0.00754(5) 0.01186(5) -0.00012(3) 0.00356(4) -0.00011(3)
C(5) 0.01064(5) 0.00850(5) 0.01593(6) -0.00074(4) 0.00596(4) 0.00023(4)
C(6) 0.01108(5) 0.00772(5) 0.01416(6) -0.00107(4) 0.00469(4) 0.00029(4)
loop_
_atom_type_symbol
_atom_type_description
_atom_type_scat_dispersion_real
_atom_type_scat_dispersion_imag
_atom_type_scat_source
_atom_type_scat_dispersion_source
C C 0.00347 0.00161
'Clementi & Roetti, C., At. Data Nucl. Data Tables 1974, 14, (177-478); Clementi & Raimondi, J. Chem. Phys., 1963, 38, (2686-2689)'
'Henke, Gullikson and Davis, At. Data and Nucl. Data Tables, 1993, 54, 2'
H H 0.00000 0.00000
'Clementi & Roetti, C., At. Data Nucl. Data Tables 1974, 14, (177-478); Clementi & Raimondi, J. Chem. Phys., 1963, 38, (2686-2689)'
'Henke, Gullikson and Davis, At. Data and Nucl. Data Tables, 1993, 54, 2'
N N 0.00653 0.00323
'Clementi & Roetti, C., At. Data Nucl. Data Tables 1974, 14, (177-478); Clementi & Raimondi, J. Chem. Phys., 1963, 38, (2686-2689)'
'Henke, Gullikson and Davis, At. Data and Nucl. Data Tables, 1993, 54, 2'
O O 0.01158 0.00611
'Clementi & Roetti, C., At. Data Nucl. Data Tables 1974, 14, (177-478); Clementi & Raimondi, J. Chem. Phys., 1963, 38, (2686-2689)'
'Henke, Gullikson and Davis, At. Data and Nucl. Data Tables, 1993, 54, 2'
loop_
_geom_angle_atom_site_label_1
_geom_angle_atom_site_label_2
_geom_angle_atom_site_label_3
_geom_angle
_geom_angle_site_symmetry_1
_geom_angle_site_symmetry_3
_geom_angle_publ_flag
H(1b O(1) H(1a 104.3(5) . . ?
C(6) N(1) C(2) 121.192(13) . . ?
H(1) N(1) C(2) 118.6(3) . . ?
H(1) N(1) C(6) 120.2(3) . . ?
C(4) N(3) C(2) 119.256(13) . . ?
H(4a N(4) C(4) 119.4(3) . . ?
H(4b N(4) C(4) 118.7(3) . . ?
H(4b N(4) H(4a 121.9(4) . . ?
N(1) C(2) O(2) 118.243(13) . . ?
N(3) C(2) O(2) 121.554(13) . . ?
N(3) C(2) N(1) 120.185(14) . . ?
N(4) C(4) N(3) 118.377(14) . . ?
C(5) C(4) N(3) 121.681(13) . . ?
C(5) C(4) N(4) 119.941(14) . . ?
C(6) C(5) C(4) 117.079(15) . . ?
H(5) C(5) C(4) 120.5(3) . . ?
H(5) C(5) C(6) 122.4(3) . . ?
C(5) C(6) N(1) 120.527(14) . . ?
H(6) C(6) N(1) 117.4(3) . . ?
H(6) C(6) C(5) 122.1(3) . . ?
loop_
_geom_bond_atom_site_label_1
_geom_bond_atom_site_label_2
_geom_bond_distance
_geom_bond_site_symmetry_2
_geom_bond_publ_flag
O(1) H(1a 0.912(6) . ?
O(1) H(1b 0.872(6) . ?
O(2) C(2) 1.2594(2) . ?
N(1) C(2) 1.3738(2) . ?
N(1) C(6) 1.3586(2) . ?
N(1) H(1) 0.976(5) . ?
N(3) C(2) 1.3513(2) . ?
N(3) C(4) 1.3451(2) . ?
N(4) C(4) 1.3342(2) . ?
N(4) H(4a 0.968(5) . ?
N(4) H(4b 0.998(6) . ?
C(4) C(5) 1.4331(2) . ?
C(5) C(6) 1.3550(2) . ?
C(5) H(5) 1.056(6) . ?
C(6) H(6) 1.094(6) . ?
loop_
_refln_index_h
_refln_index_k
_refln_index_l
_refln_F_squared_meas
_refln_F_squared_sigma
1 0 0 2092.18 33.64
2 0 0 1815.41 23.38
3 0 0 2133.44 23.32
4 0 0 94.53 1.25
5 0 0 488.4 5.16
6 0 0 7.12 0.21
7 0 0 42.64 0.51
8 0 0 6.51 0.21
9 0 0 152.94 1.6
10 0 0 15.59 0.37
11 0 0 1.09 0.29
12 0 0 304.1 4.11
13 0 0 319.33 4.35
14 0 0 20.65 0.74
15 0 0 2.01 0.4
16 0 0 4.29 0.42
0 1 0 -0.5 0.05
1 1 0 494.63 3.84
2 1 0 66.4 0.64
3 1 0 123.57 1.07
4 1 0 559.32 4.41
5 1 0 1069.52 7.22
6 1 0 10.7 0.16
7 1 0 1.19 0.11
8 1 0 53.52 0.5
9 1 0 233.75 1.65
10 1 0 22.59 0.32
11 1 0 0.35 0.13
12 1 0 74.31 0.88
13 1 0 53.84 0.72
14 1 0 33.74 0.69
15 1 0 18.27 0.5
16 1 0 4.08 0.3
0 2 0 794.22 8.69
1 2 0 332.93 2.62
2 2 0 35.4 0.38
3 2 0 424.49 3.39
4 2 0 116.32 1.01
5 2 0 6.02 0.13
6 2 0 47.31 0.38
7 2 0 81.82 0.62
8 2 0 0.06 0.13
9 2 0 2.05 0.13
10 2 0 14.63 0.25
11 2 0 0.35 0.13
12 2 0 1.42 0.15
13 2 0 0.36 0.21
14 2 0 18.19 0.5
15 2 0 0.27 0.25
16 2 0 0.1 0.24
0 3 0 0.19 0.12
1 3 0 0.74 0.09
2 3 0 4716.57 37.63
3 3 0 70.29 0.69
4 3 0 288.33 2.24
5 3 0 253.1 1.66
6 3 0 0.64 0.1
7 3 0 159.03 1.29
8 3 0 6.59 0.19
9 3 0 8.1 0.16
10 3 0 19.68 0.28
11 3 0 37.5 0.42
12 3 0 38.34 0.45
13 3 0 0.87 0.17
14 3 0 17.68 0.48
15 3 0 15.86 0.46
16 3 0 2.21 0.26
0 4 0 10.35 0.32
1 4 0 257.65 2.1
2 4 0 0.3 0.11
3 4 0 174.99 1.52
4 4 0 20.44 0.25
5 4 0 13.04 0.19
6 4 0 2129.1 13.11
7 4 0 1308.62 9.11
8 4 0 35.59 0.44
9 4 0 1.76 0.11
10 4 0 56.3 0.47
11 4 0 71.77 0.68
12 4 0 26.31 0.36
13 4 0 0.48 0.19
14 4 0 0.31 0.2
15 4 0 33.06 0.54
16 4 0 12.21 0.39
0 5 0 0.08 0.13
1 5 0 29.94 0.38
2 5 0 2029.83 15.75
3 5 0 68.56 0.69
4 5 0 131.69 0.91
5 5 0 164.28 1.16
6 5 0 21.35 0.31
7 5 0 212.38 1.67
8 5 0 6.39 0.21
9 5 0 20.42 0.24
10 5 0 34.84 0.34
11 5 0 61.09 0.6
12 5 0 9.34 0.25
13 5 0 0.52 0.19
14 5 0 10.78 0.32
15 5 0 24.27 0.45
0 6 0 0.81 0.13
1 6 0 11.8 0.19
2 6 0 3.8 0.13
3 6 0 5.65 0.13
4 6 0 0.11 0.08
5 6 0 11.78 0.18
6 6 0 0.61 0.11
7 6 0 3.09 0.15
8 6 0 0.32 0.11
9 6 0 1.05 0.11
10 6 0 5.6 0.15
11 6 0 2.25 0.13
12 6 0 0.39 0.15
13 6 0 1.23 0.2
14 6 0 6.82 0.28
15 6 0 1.36 0.21
0 7 0 0.07 0.09
1 7 0 139.78 1.01
2 7 0 118.87 0.83
3 7 0 3.49 0.09
4 7 0 202.89 1.33
5 7 0 78.99 0.66
6 7 0 32.56 0.38
7 7 0 0.2 0.12
8 7 0 150.2 1.12
9 7 0 36.22 0.34
10 7 0 7.58 0.17
11 7 0 4.94 0.16
12 7 0 5.71 0.2
13 7 0 15.37 0.36
14 7 0 7 0.33
15 7 0 1.54 0.25
0 8 0 3187.74 29.16
1 8 0 616.64 4.12
2 8 0 43.88 0.36
3 8 0 3.15 0.1
4 8 0 14.18 0.21
5 8 0 94.62 0.9
6 8 0 20.09 0.32
7 8 0 0.82 0.11
8 8 0 0.09 0.1
9 8 0 74.33 0.68
10 8 0 5.72 0.17
11 8 0 14.35 0.26
12 8 0 202.57 2.17
13 8 0 299.26 3.8
14 8 0 1.04 0.25
15 8 0 0.23 0.21
0 9 0 0.76 0.21
1 9 0 447.08 3.4
2 9 0 67.08 0.67
3 9 0 0.6 0.1
4 9 0 287.25 2.34
5 9 0 18.36 0.34
6 9 0 9.18 0.19
7 9 0 -0.06 0.1
8 9 0 137.52 1.25
9 9 0 30.63 0.36
10 9 0 2.37 0.15
11 9 0 9.54 0.22
12 9 0 6.92 0.26
13 9 0 13.47 0.41
14 9 0 21.99 0.52
0 10 0 30.99 0.57
1 10 0 2.91 0.15
2 10 0 1.04 0.13
3 10 0 0.63 0.13
4 10 0 38.44 0.57
5 10 0 1.29 0.12
6 10 0 4.9 0.14
7 10 0 5.26 0.17
8 10 0 28.17 0.42
9 10 0 1.33 0.16
10 10 0 19.9 0.36
11 10 0 12.53 0.38
12 10 0 2.41 0.25
13 10 0 10.76 0.37
14 10 0 0.21 0.32
0 11 0 0.18 0.17
1 11 0 119.15 1.1
2 11 0 55.16 0.62
3 11 0 16.94 0.36
4 11 0 5.37 0.19
5 11 0 1.43 0.13
6 11 0 17.99 0.26
7 11 0 24.1 0.36
8 11 0 5.78 0.21
9 11 0 38.6 0.54
10 11 0 9.38 0.27
11 11 0 36.17 0.68
12 11 0 3.68 0.27
13 11 0 9.98 0.36
14 11 0 6.58 0.44
0 12 0 8.73 0.25
1 12 0 61.75 0.56
2 12 0 1.99 0.12
3 12 0 159.78 1.58
4 12 0 56.35 0.67
5 12 0 17.63 0.36
6 12 0 881.96 7.97
7 12 0 223.61 1.77
8 12 0 -0.1 0.15
9 12 0 5.43 0.23
10 12 0 0 0.21
11 12 0 3.19 0.26
12 12 0 12.17 0.38
13 12 0 5.31 0.28
0 13 0 0.05 0.13
1 13 0 45.57 0.4
2 13 0 67.98 0.66
3 13 0 36.48 0.5
4 13 0 0.68 0.15
5 13 0 9.18 0.25
6 13 0 39.62 0.57
7 13 0 72.05 0.87
8 13 0 42.71 0.65
9 13 0 20.64 0.48
10 13 0 21.9 0.5
11 13 0 47.36 0.82
12 13 0 0.74 0.21
0 14 0 20.37 0.35
1 14 0 12.12 0.19
2 14 0 6.53 0.18
3 14 0 32.65 0.48
4 14 0 1.17 0.16
5 14 0 4.47 0.22
6 14 0 0.49 0.2
7 14 0 2.97 0.27
8 14 0 0.65 0.32
9 14 0 2.94 0.38
10 14 0 0.23 0.2
11 14 0 4.59 0.27
12 14 0 0.17 0.19
0 15 0 0.14 0.15
1 15 0 16.63 0.23
2 15 0 26.66 0.35
3 15 0 0.91 0.18
4 15 0 30.44 0.49
5 15 0 10.98 0.3
6 15 0 28.48 0.5
7 15 0 0.3 0.25
8 15 0 54.98 1.33
9 15 0 1.51 0.32
10 15 0 0.41 0.3
11 15 0 3.11 0.36
0 16 0 518.04 4.76
1 16 0 132.95 1.15
2 16 0 4.29 0.25
3 16 0 1.48 0.21
4 16 0 15.12 0.37
5 16 0 10.84 0.39
6 16 0 14.76 0.45
7 16 0 -0.23 0.25
8 16 0 2.19 0.34
9 16 0 18.9 0.69
10 16 0 1.46 0.31
0 17 0 2.07 0.27
1 17 0 63.55 0.82
2 17 0 0.23 0.23
3 17 0 0.65 0.24
4 17 0 49.09 0.85
5 17 0 15.71 0.47
6 17 0 0.52 0.27
7 17 0 2.17 0.3
8 17 0 24.8 0.82
9 17 0 11.15 0.55
0 18 0 1.97 0.44
1 18 0 2.05 0.23
2 18 0 -0.05 0.24
3 18 0 5.35 0.32
4 18 0 1.73 0.28
5 18 0 0.51 0.27
6 18 0 -0.22 0.26
7 18 0 -0.39 0.27
8 18 0 7.11 0.48
0 19 0 0.28 0.4
1 19 0 9.21 0.3
2 19 0 18.79 0.49
3 19 0 -0.21 0.25
4 19 0 2.51 0.3
5 19 0 -0.11 0.27
6 19 0 0.41 0.27
7 19 0 0.4 0.28
0 20 0 12 0.6
1 20 0 1.03 0.43
2 20 0 6.83 0.34
3 20 0 2.82 0.28
4 20 0 -0.09 0.25
5 20 0 10.87 0.61
0 21 0 -0.45 0.4
1 21 0 2.35 0.44
2 21 0 24.82 0.82
-16 0 1 0.15 0.32
-15 0 1 0.49 0.36
-14 0 1 0.11 0.36
-13 0 1 0.44 0.29
-12 0 1 0.33 0.28
-11 0 1 0.04 0.19
-10 0 1 -0.13 0.12
-9 0 1 0.01 0.17
-8 0 1 0.05 0.15
-7 0 1 -0.04 0.12
-6 0 1 -0.93 0.14
-5 0 1 0.02 0.15
-4 0 1 0.03 0.17
-3 0 1 -0.17 0.15
-2 0 1 -0.38 0.13
-1 0 1 -0.17 0.07
1 0 1 -0.17 0.19
2 0 1 -0.44 0.13
3 0 1 -0.21 0.13
4 0 1 -0.05 0.22
5 0 1 0.84 0.19
6 0 1 0.09 0.13
7 0 1 0.09 0.13
8 0 1 -0.11 0.14
9 0 1 -0.11 0.13
10 0 1 -0.56 0.28
11 0 1 -0.11 0.27
12 0 1 0.3 0.3
13 0 1 0.68 0.45
14 0 1 -0.1 0.4
15 0 1 -0.05 0.36
16 0 1 0.53 0.34
-16 1 1 1.27 0.25
-15 1 1 0.01 0.24
-14 1 1 0.18 0.25
-13 1 1 55.53 0.73
-12 1 1 36.34 0.42
-11 1 1 14.66 0.25
-10 1 1 2.06 0.12
-9 1 1 1.35 0.13
-8 1 1 144.82 1.21
-7 1 1 130.41 0.99
-6 1 1 1.68 0.09
-5 1 1 509.75 3.43
-4 1 1 892.12 6.93
-3 1 1 6.27 0.16
-2 1 1 0.62 0.1
-1 1 1 451.69 3.55
0 1 1 28.22 0.32
1 1 1 47.01 0.48
2 1 1 9.22 0.2
3 1 1 49.98 0.56
4 1 1 71.74 0.78
5 1 1 410.97 2.52
6 1 1 217.27 1.35
7 1 1 35.67 0.33
8 1 1 170.98 1.23
9 1 1 33.88 0.34
10 1 1 0.34 0.15
11 1 1 3.87 0.24
12 1 1 1.04 0.23
13 1 1 20.89 0.54
14 1 1 18.07 0.5
15 1 1 0.21 0.27
16 1 1 0.14 0.24
-16 2 1 0.79 0.23
-15 2 1 6.79 0.34
-14 2 1 36.9 0.72
-13 2 1 29.61 0.39
-12 2 1 26.42 0.35
-11 2 1 22.94 0.31
-10 2 1 9.09 0.19
-9 2 1 3.57 0.21
-8 2 1 144.79 1.07
-7 2 1 103.93 0.79
-6 2 1 84.08 0.62
-5 2 1 359.39 2.56
-4 2 1 34.21 0.42
-3 2 1 526.35 4.17
-2 2 1 354.48 2.8
-1 2 1 603.07 4.69
0 2 1 1772.66 14.8
1 2 1 2550.21 21.09
2 2 1 53.25 0.52
3 2 1 15.06 0.28
4 2 1 22.19 0.37
5 2 1 0.03 0.09
6 2 1 274.64 1.9
7 2 1 127.22 0.94
8 2 1 16.92 0.26
9 2 1 60.99 0.58
10 2 1 2.09 0.12
11 2 1 8.35 0.22
12 2 1 55.51 0.72
13 2 1 27.99 0.61
14 2 1 8.77 0.39
15 2 1 27.91 0.62
16 2 1 0.48 0.25
-16 3 1 0.43 0.23
-15 3 1 0.64 0.25
-14 3 1 47.32 0.68
-13 3 1 6.68 0.21
-12 3 1 17.16 0.28
-11 3 1 9.9 0.21
-10 3 1 30.22 0.38
-9 3 1 0.2 0.11
-8 3 1 6.91 0.19
-7 3 1 98.03 0.85
-6 3 1 30.91 0.3
-5 3 1 0.7 0.09
-4 3 1 3.4 0.16
-3 3 1 367.03 2.95
-2 3 1 180.96 1.51
-1 3 1 965.74 7.45
0 3 1 1543.57 11.9
1 3 1 2001.76 16.49
2 3 1 1785.53 13.73
3 3 1 33.72 0.41
4 3 1 117.91 0.89
5 3 1 27 0.28
6 3 1 56.36 0.49
7 3 1 1.99 0.14
8 3 1 9.95 0.23
9 3 1 3.17 0.12
10 3 1 2.03 0.12
11 3 1 22.9 0.27
12 3 1 25.14 0.38
13 3 1 0.77 0.2
14 3 1 12.58 0.43
15 3 1 12.87 0.43
16 3 1 1.09 0.36
-16 4 1 2.47 0.25
-15 4 1 5.7 0.26
-14 4 1 1.27 0.21
-13 4 1 2.7 0.21
-12 4 1 14.35 0.27
-11 4 1 9.46 0.21
-10 4 1 2.74 0.15
-9 4 1 39.21 0.41
-8 4 1 35.85 0.44
-7 4 1 0.66 0.12
-6 4 1 128.7 0.99
-5 4 1 88.82 0.65
-4 4 1 4 0.11
-3 4 1 51.03 0.56
-2 4 1 225.94 1.88
-1 4 1 65.49 0.6
0 4 1 26.89 0.35
1 4 1 293.77 2.56
2 4 1 98.07 0.99
3 4 1 0.55 0.09
4 4 1 73.48 0.56
5 4 1 13.92 0.2
6 4 1 6.02 0.16
7 4 1 4.65 0.17
8 4 1 10.02 0.24
9 4 1 19.54 0.24
10 4 1 3.38 0.13
11 4 1 3.02 0.14
12 4 1 10.64 0.26
13 4 1 3.5 0.23
14 4 1 0.35 0.21
15 4 1 5.54 0.32
-16 5 1 1.2 0.23
-15 5 1 7.64 0.27
-14 5 1 14.82 0.35
-13 5 1 29.23 0.49
-12 5 1 7.89 0.21
-11 5 1 100.26 0.95
-10 5 1 3.88 0.16
-9 5 1 0.06 0.09
-8 5 1 3.7 0.17
-7 5 1 15.24 0.27
-6 5 1 183.27 1.31
-5 5 1 3.08 0.12
-4 5 1 159.4 1.21
-3 5 1 105.38 0.85
-2 5 1 792.29 6.2
-1 5 1 2314.61 18.44
0 5 1 77.51 0.71
1 5 1 142.39 1.37
2 5 1 754.44 6.33
3 5 1 702.24 4.35
4 5 1 117.1 0.78
5 5 1 10.27 0.17
6 5 1 95.17 0.76
7 5 1 194.14 1.43
8 5 1 12.71 0.23
9 5 1 23.92 0.27
10 5 1 26.77 0.29
11 5 1 13.81 0.22
12 5 1 18.89 0.28
13 5 1 10.11 0.3
14 5 1 43.68 0.81
15 5 1 19.62 0.4
-15 6 1 31.98 0.64
-14 6 1 25.88 0.57
-13 6 1 0.12 0.23
-12 6 1 48.13 0.64
-11 6 1 0.05 0.14
-10 6 1 22.72 0.3
-9 6 1 32.25 0.34
-8 6 1 9.17 0.19
-7 6 1 104.59 0.94
-6 6 1 496.96 3.28
-5 6 1 19.66 0.25
-4 6 1 9.48 0.17
-3 6 1 -0.24 0.13
-2 6 1 59.97 0.56
-1 6 1 631.69 4.35
0 6 1 329.57 2.49
1 6 1 0.7 0.09
2 6 1 414.26 2.69
3 6 1 7.66 0.14
4 6 1 108.07 0.74
5 6 1 158.86 1.12
6 6 1 113.06 0.87
7 6 1 128.17 1.21
8 6 1 135.41 1
9 6 1 0.4 0.1
10 6 1 0.2 0.11
11 6 1 1.64 0.13
12 6 1 0.77 0.13
13 6 1 20.22 0.41
14 6 1 10.81 0.32
15 6 1 4.87 0.25
-15 7 1 -0.17 0.22
-14 7 1 5.51 0.31
-13 7 1 2.74 0.27
-12 7 1 31.34 0.49
-11 7 1 5.44 0.24
-10 7 1 55.9 0.55
-9 7 1 2.61 0.13
-8 7 1 2.1 0.11
-7 7 1 305.22 2.7
-6 7 1 18.47 0.29
-5 7 1 228.1 1.8
-4 7 1 7.92 0.19
-3 7 1 55.57 0.44
-2 7 1 16.34 0.2
-1 7 1 48.83 0.46
0 7 1 97.89 0.73
1 7 1 3.11 0.1
2 7 1 35.4 0.33
3 7 1 25.39 0.28
4 7 1 46.4 0.39
5 7 1 51.15 0.44
6 7 1 12.76 0.23
7 7 1 0.36 0.13
8 7 1 147.64 1.03
9 7 1 15.91 0.22
10 7 1 12.9 0.21
11 7 1 29.26 0.33
12 7 1 0.83 0.17
13 7 1 50.08 0.71
14 7 1 0.17 0.21
15 7 1 0.29 0.19
-15 8 1 0.54 0.23
-14 8 1 0.76 0.24
-13 8 1 14.97 0.44
-12 8 1 1.11 0.24
-11 8 1 4.04 0.17
-10 8 1 1.2 0.13
-9 8 1 0.36 0.11
-8 8 1 2.19 0.12
-7 8 1 2.39 0.11
-6 8 1 -0.03 0.11
-5 8 1 17.78 0.28
-4 8 1 39.62 0.41
-3 8 1 0.54 0.08
-2 8 1 34.86 0.35
-1 8 1 149.19 1.19
0 8 1 52.48 0.48
1 8 1 140.07 0.94
2 8 1 216.15 1.5
3 8 1 5.57 0.15
4 8 1 35.64 0.37
5 8 1 86.11 0.72
6 8 1 14.2 0.33
7 8 1 16.18 0.27
8 8 1 41.19 0.44
9 8 1 5.39 0.17
10 8 1 2.07 0.13
11 8 1 24.92 0.34
12 8 1 0.97 0.17
13 8 1 6 0.23
14 8 1 0.27 0.23
-15 9 1 1 0.34
-14 9 1 0.23 0.22
-13 9 1 91.87 1.37
-12 9 1 12.35 0.38
-11 9 1 44.55 0.53
-10 9 1 4.53 0.17
-9 9 1 5.49 0.17
-8 9 1 213.13 1.66
-7 9 1 34.22 0.36
-6 9 1 1.15 0.1
-5 9 1 72.36 0.72
-4 9 1 348.95 2.51
-3 9 1 2.52 0.13
-2 9 1 28.83 0.32
-1 9 1 170.37 1.26
0 9 1 13.92 0.22
1 9 1 51.53 0.48
2 9 1 3.88 0.12
3 9 1 0.25 0.1
4 9 1 12.09 0.22
5 9 1 185.72 1.49
6 9 1 80.85 0.74
7 9 1 32.51 0.44
8 9 1 95.21 1.01
9 9 1 55.79 0.68
10 9 1 2.84 0.18
11 9 1 0.3 0.21
12 9 1 10.21 0.36
13 9 1 6.03 0.31
14 9 1 39.01 1.03
-14 10 1 14.8 0.42
-13 10 1 31.99 0.64
-12 10 1 42.68 0.62
-11 10 1 18.5 0.37
-10 10 1 3.42 0.15
-9 10 1 0.34 0.12
-8 10 1 77.09 0.7
-7 10 1 21.68 0.25
-6 10 1 4.95 0.13
-5 10 1 36.61 0.5
-4 10 1 1.48 0.16
-3 10 1 6.89 0.2
-2 10 1 23.99 0.34
-1 10 1 47.28 0.52
0 10 1 371 2.89
1 10 1 383.45 2.98
2 10 1 2.83 0.16
3 10 1 1.09 0.13
4 10 1 2.48 0.15
5 10 1 0.03 0.11
6 10 1 43.09 0.49
7 10 1 18.2 0.32
8 10 1 3.19 0.17
9 10 1 40.74 0.56
10 10 1 0.08 0.15
11 10 1 3.96 0.27
12 10 1 43.29 0.78
13 10 1 38.09 0.72
14 10 1 9.86 0.36
-14 11 1 7.64 0.46
-13 11 1 7.61 0.45
-12 11 1 5.62 0.28
-11 11 1 4.76 0.27
-10 11 1 0.18 0.15
-9 11 1 1.4 0.16
-8 11 1 0.32 0.15
-7 11 1 2.45 0.15
-6 11 1 14.19 0.27
-5 11 1 5.28 0.2
-4 11 1 7.95 0.21
-3 11 1 9.98 0.29
-2 11 1 0.11 0.15
-1 11 1 67.46 0.71
0 11 1 48.18 0.56
1 11 1 118.35 1.09
2 11 1 61.15 0.68
3 11 1 4.29 0.19
4 11 1 15.49 0.24
5 11 1 7.07 0.17
6 11 1 18.12 0.26
7 11 1 2.45 0.16
8 11 1 -0.2 0.13
9 11 1 3.21 0.19
10 11 1 -0.13 0.19
11 11 1 0.44 0.21
12 11 1 5.85 0.3
13 11 1 0.05 0.22
-13 12 1 -0.02 0.27
-12 12 1 2.17 0.24
-11 12 1 6.66 0.3
-10 12 1 0.06 0.2
-9 12 1 9.93 0.27
-8 12 1 11.54 0.27
-7 12 1 -0.01 0.18
-6 12 1 75.97 0.88
-5 12 1 2.63 0.19
-4 12 1 50.32 0.63
-3 12 1 13.13 0.24
-2 12 1 0.76 0.11
-1 12 1 23.38 0.28
0 12 1 21.33 0.25
1 12 1 3.62 0.13
2 12 1 30.99 0.33
3 12 1 5.04 0.15
4 12 1 1.27 0.14
5 12 1 45.05 0.58
6 12 1 3.24 0.15
7 12 1 51.17 0.64
8 12 1 3.73 0.2
9 12 1 3.82 0.21
10 12 1 7.91 0.32
11 12 1 1.17 0.23
12 12 1 1.57 0.23
13 12 1 2.51 0.24
-13 13 1 2.15 0.31
-12 13 1 3.55 0.25
-11 13 1 19.95 0.48
-10 13 1 46.02 0.8
-9 13 1 3.53 0.25
-8 13 1 4.77 0.31
-7 13 1 135.9 1.44
-6 13 1 25.13 0.44
-5 13 1 69.78 0.83
-4 13 1 0.12 0.15
-3 13 1 1.49 0.15
-2 13 1 163.92 1.34
-1 13 1 144.15 1.11
0 13 1 8.26 0.15
1 13 1 33.19 0.32
2 13 1 227.98 1.67
3 13 1 55.36 0.54
4 13 1 12.51 0.28
5 13 1 11.99 0.28
6 13 1 41.03 0.58
7 13 1 36.35 0.58
8 13 1 42.04 0.58
9 13 1 8.58 0.32
10 13 1 0.21 0.21
11 13 1 41.82 0.76
12 13 1 12.07 0.38
-12 14 1 -0.23 0.19
-11 14 1 0.34 0.19
-10 14 1 0.68 0.32
-9 14 1 0.33 0.28
-8 14 1 16.55 0.48
-7 14 1 44.49 0.66
-6 14 1 152.68 1.6
-5 14 1 104.96 1.17
-4 14 1 1.56 0.18
-3 14 1 0.17 0.15
-2 14 1 35.9 0.42
-1 14 1 3.28 0.15
0 14 1 7.53 0.16
1 14 1 14.55 0.21
2 14 1 0.27 0.12
3 14 1 10.57 0.27
4 14 1 1.07 0.17
5 14 1 0.09 0.16
6 14 1 135.9 1.45
7 14 1 139.33 1.64
8 14 1 10.24 0.52
9 14 1 7.8 0.32
10 14 1 0.31 0.21
11 14 1 2.04 0.23
12 14 1 2.07 0.23
-11 15 1 0.3 0.3
-10 15 1 1.31 0.32
-9 15 1 0.73 0.32
-8 15 1 2.72 0.3
-7 15 1 11.39 0.41
-6 15 1 0.74 0.21
-5 15 1 21.38 0.42
-4 15 1 6.48 0.25
-3 15 1 4.12 0.21
-2 15 1 10.24 0.23
-1 15 1 2.4 0.15
0 15 1 11.87 0.23
1 15 1 8.46 0.19
2 15 1 -0.05 0.12
3 15 1 20.59 0.38
4 15 1 4.39 0.22
5 15 1 2.58 0.22
6 15 1 25.73 0.57
7 15 1 17.75 0.49
8 15 1 16.75 0.66
9 15 1 1.98 0.33
10 15 1 1.5 0.32
11 15 1 1.53 0.22
-10 16 1 9.9 0.51
-9 16 1 18.79 0.7
-8 16 1 9.97 0.41
-7 16 1 3.02 0.3
-6 16 1 31.29 0.66
-5 16 1 14.41 0.44
-4 16 1 5.74 0.26
-3 16 1 25.93 0.46
-2 16 1 19.16 0.3
-1 16 1 10.91 0.24
0 16 1 60.46 0.62
1 16 1 5.8 0.2
2 16 1 15.95 0.34
3 16 1 -0.02 0.16
4 16 1 2.37 0.22
5 16 1 1.37 0.25
6 16 1 0.02 0.23
7 16 1 4.57 0.32
8 16 1 2.09 0.34
9 16 1 3.66 0.37
10 16 1 3.51 0.36
-9 17 1 2.58 0.36
-8 17 1 65.34 1.52
-7 17 1 44.92 0.83
-6 17 1 3.98 0.32
-5 17 1 30.64 0.65
-4 17 1 66.99 1.07
-3 17 1 19.41 0.5
-2 17 1 22.33 0.43
-1 17 1 29.3 0.42
0 17 1 87.6 0.95
1 17 1 89.77 1.07
2 17 1 20.72 0.5
3 17 1 42.68 0.77
4 17 1 55.49 0.93
5 17 1 90.7 1.36
6 17 1 1.05 0.28
7 17 1 0.37 0.26
8 17 1 44.88 1.15
9 17 1 61.85 1.44
-8 18 1 3.55 0.33
-7 18 1 0.9 0.28
-6 18 1 5.22 0.34
-5 18 1 6.26 0.36
-4 18 1 0.02 0.25
-3 18 1 9.19 0.38
-2 18 1 1.84 0.23
-1 18 1 27.67 0.48
0 18 1 167.97 1.84
1 18 1 70.48 1.1
2 18 1 13.25 0.42
3 18 1 0.32 0.24
4 18 1 0.4 0.25
5 18 1 3.06 0.3
6 18 1 -0.02 0.27
7 18 1 -0.18 0.27
8 18 1 4.53 0.41
-7 19 1 3.49 0.32
-6 19 1 8.57 0.39
-5 19 1 6.57 0.36
-4 19 1 10.72 0.41
-3 19 1 0.55 0.27
-2 19 1 0.57 0.25
-1 19 1 15.12 0.36
0 19 1 0.19 0.22
1 19 1 5.96 0.49
2 19 1 1.38 0.42
3 19 1 0.47 0.25
4 19 1 -0.03 0.25
5 19 1 0.59 0.27
6 19 1 0.78 0.29
7 19 1 5.98 0.44
-5 20 1 0.56 0.26
-4 20 1 26.95 0.86
-3 20 1 1.49 0.27
-2 20 1 3.61 0.3
-1 20 1 16.22 0.46
0 20 1 5.86 0.35
1 20 1 5.39 0.48
2 20 1 24.22 0.8
3 20 1 3.62 0.46
4 20 1 1.96 0.27
5 20 1 38.85 1.06
0 21 1 2.04 0.3
1 21 1 5.71 0.5
-16 0 2 0.5 0.32
-15 0 2 37.2 1.02
-14 0 2 18.98 0.69
-13 0 2 74.37 1.27
-12 0 2 758.38 8.06
-11 0 2 67.26 0.77
-10 0 2 14.83 0.28
-9 0 2 29.39 0.56
-8 0 2 35.44 0.6
-7 0 2 65.22 0.87
-6 0 2 1.99 0.17
-5 0 2 505.9 4.35
-4 0 2 212.9 2.52
-3 0 2 24.9 0.48
-2 0 2 275.15 3.13
-1 0 2 2.4 0.17
0 0 2 5211.24 65.42
2 0 2 664.48 7.32
3 0 2 1296.18 14.14
4 0 2 718.85 7
5 0 2 12.35 0.3
6 0 2 335.5 2.84
7 0 2 36.85 0.49
8 0 2 13.69 0.36
9 0 2 5.52 0.21
10 0 2 150.66 1.49
11 0 2 17.6 0.38
12 0 2 0.76 0.32
13 0 2 404.58 7.26
14 0 2 118.52 2.45
15 0 2 -0.03 0.38
-16 1 2 2.48 0.25
-15 1 2 0.28 0.23
-14 1 2 0.64 0.25
-13 1 2 43.56 0.5
-12 1 2 79.76 0.74
-11 1 2 61.58 0.56
-10 1 2 5.73 0.15
-9 1 2 43.14 0.5
-8 1 2 415.54 3.09
-7 1 2 121.23 1.02
-6 1 2 144.69 1.1
-5 1 2 32.05 0.29
-4 1 2 1168.86 9.03
-3 1 2 1916.14 14.7
-2 1 2 2192.3 18.25
-1 1 2 201.43 1.62
0 1 2 4286.32 33.25
1 1 2 1294.59 9.95
2 1 2 9.95 0.23
3 1 2 274.55 2.47
4 1 2 277.69 1.85
5 1 2 194.96 1.31
6 1 2 161.82 1.05
7 1 2 13.51 0.23
8 1 2 67.28 0.6
9 1 2 69.41 0.51
10 1 2 18.83 0.25
11 1 2 0.42 0.15
12 1 2 0.89 0.22
13 1 2 18.16 0.51
14 1 2 9.87 0.41
15 1 2 14.67 0.45
-16 2 2 2.87 0.26
-15 2 2 2.33 0.26
-14 2 2 4.55 0.25
-13 2 2 15.17 0.28
-12 2 2 6.32 0.19
-11 2 2 26.12 0.33
-10 2 2 4.23 0.15
-9 2 2 0.35 0.12
-8 2 2 24.97 0.34
-7 2 2 15.24 0.25
-6 2 2 31.46 0.27
-5 2 2 8 0.16
-4 2 2 220.55 1.9
-3 2 2 236.48 1.94
-2 2 2 -1.06 0.11
-1 2 2 358.39 2.66
0 2 2 800.55 6.37
1 2 2 21.77 0.28
2 2 2 178.59 1.62
3 2 2 135.87 1.29
4 2 2 75.73 0.62
5 2 2 13.81 0.2
6 2 2 15.13 0.23
7 2 2 24.23 0.31
8 2 2 16.4 0.26
9 2 2 23.11 0.23
10 2 2 12.37 0.19
11 2 2 7.02 0.21
12 2 2 11.05 0.27
13 2 2 3.53 0.32
14 2 2 0.03 0.28
15 2 2 2.84 0.3
-16 3 2 3.65 0.21
-15 3 2 9.2 0.29
-14 3 2 48.6 0.69
-13 3 2 -0.06 0.15
-12 3 2 1.77 0.15
-11 3 2 32.59 0.38
-10 3 2 124.57 1.03
-9 3 2 3.03 0.13
-8 3 2 25.53 0.39
-7 3 2 75.4 0.62
-6 3 2 73.09 0.54
-5 3 2 2.27 0.1
-4 3 2 35.47 0.36
-3 3 2 0.19 0.1
-2 3 2 147.54 1.27
-1 3 2 3319.81 27.65
0 3 2 109.63 1.05
1 3 2 346.63 2.99
2 3 2 155.85 1.45
3 3 2 1035.09 8.61
4 3 2 22.21 0.25
5 3 2 166.74 1.17
6 3 2 177.18 1.25
7 3 2 21.9 0.29
8 3 2 138.92 1.06
9 3 2 24.02 0.24
10 3 2 9.31 0.18
11 3 2 71.39 0.59
12 3 2 12.65 0.23
13 3 2 9.61 0.39
14 3 2 1.85 0.29
15 3 2 32.02 0.67
-16 4 2 4 0.28
-15 4 2 30.27 0.63
-14 4 2 59.47 0.8
-13 4 2 0.05 0.17
-12 4 2 4.9 0.17
-11 4 2 58.04 0.58
-10 4 2 77.99 0.7
-9 4 2 72.85 0.79
-8 4 2 3.72 0.2
-7 4 2 3.94 0.15
-6 4 2 2534.68 14.59
-5 4 2 2230.75 13.52
-4 4 2 280.63 1.9
-3 4 2 9.06 0.24
-2 4 2 904.84 7.03
-1 4 2 262.33 2.35
0 4 2 0.99 0.09
1 4 2 -1.4 0.13
2 4 2 835.06 6.98
3 4 2 88.09 0.68
4 4 2 57.14 0.48
5 4 2 90.72 0.71
6 4 2 311.04 2.07
7 4 2 1605.02 9.93
8 4 2 290.75 1.8
9 4 2 19.24 0.23
10 4 2 4.15 0.15
11 4 2 15.22 0.23
12 4 2 21.33 0.3
13 4 2 10.56 0.27
14 4 2 0.57 0.27
15 4 2 0.93 0.26
-16 5 2 1.23 0.24
-15 5 2 6.48 0.32
-14 5 2 45.12 0.81
-13 5 2 0.73 0.23
-12 5 2 0.85 0.17
-11 5 2 13 0.28
-10 5 2 123.84 1.27
-9 5 2 3.57 0.17
-8 5 2 32.82 0.48
-7 5 2 123.64 1.21
-6 5 2 189.11 1.44
-5 5 2 38.68 0.4
-4 5 2 40.01 0.37
-3 5 2 38.71 0.36
-2 5 2 282.53 2.17
-1 5 2 1444.46 11.14
0 5 2 8.5 0.19
1 5 2 16.95 0.3
2 5 2 176.07 1.21
3 5 2 748.84 4.61
4 5 2 0.3 0.09
5 5 2 48.17 0.44
6 5 2 184.63 1.33
7 5 2 9.23 0.21
8 5 2 142.83 0.98
9 5 2 2.91 0.13
10 5 2 7.5 0.17
11 5 2 60.28 0.53
12 5 2 22.72 0.32
13 5 2 2.45 0.19
14 5 2 0.17 0.19
15 5 2 18.18 0.48
-15 6 2 0.07 0.23
-14 6 2 4.51 0.3
-13 6 2 6 0.3
-12 6 2 0.28 0.16
-11 6 2 0.34 0.15
-10 6 2 2.72 0.17
-9 6 2 5.2 0.17
-8 6 2 -0.06 0.1
-7 6 2 0.39 0.12
-6 6 2 2.5 0.14
-5 6 2 1.02 0.11
-4 6 2 9.46 0.16
-3 6 2 5.87 0.12
-2 6 2 11.11 0.17
-1 6 2 10.64 0.18
0 6 2 3.7 0.1
1 6 2 0.07 0.07
2 6 2 14.31 0.19
3 6 2 2.41 0.12
4 6 2 3.24 0.13
5 6 2 2.23 0.12
6 6 2 14.79 0.24
7 6 2 0.2 0.12
8 6 2 5.49 0.15
9 6 2 0.66 0.11
10 6 2 1.74 0.13
11 6 2 5.42 0.16
12 6 2 1.72 0.18
13 6 2 -0.03 0.16
14 6 2 2.52 0.22
15 6 2 4.39 0.3
-15 7 2 1.86 0.25
-14 7 2 1.07 0.25
-13 7 2 43.78 0.79
-12 7 2 16.2 0.34
-11 7 2 13.75 0.3
-10 7 2 0.21 0.13
-9 7 2 0.02 0.11
-8 7 2 107.4 0.86
-7 7 2 75.62 0.76
-6 7 2 3.33 0.15
-5 7 2 61.67 0.62
-4 7 2 143.15 1.07
-3 7 2 70.33 0.59
-2 7 2 37.75 0.38
-1 7 2 27.87 0.29
0 7 2 204.06 1.35
1 7 2 5.2 0.13
2 7 2 43.91 0.38
3 7 2 62.93 0.54
4 7 2 0.43 0.11
5 7 2 217.98 1.7
6 7 2 42.37 0.5
7 7 2 2.33 0.13
8 7 2 5.12 0.17
9 7 2 111.14 0.95
10 7 2 7.42 0.21
11 7 2 11.78 0.25
12 7 2 11.53 0.28
13 7 2 4.16 0.21
14 7 2 11.08 0.4
-15 8 2 7.06 0.32
-14 8 2 0.15 0.22
-13 8 2 22.6 0.53
-12 8 2 424.85 5.28
-11 8 2 150.98 1.55
-10 8 2 51.82 0.73
-9 8 2 27.75 0.34
-8 8 2 176.14 1.39
-7 8 2 4.78 0.17
-6 8 2 -0.03 0.11
-5 8 2 25.41 0.35
-4 8 2 229.23 1.64
-3 8 2 25.43 0.34
-2 8 2 9.69 0.19
-1 8 2 59.09 0.52
0 8 2 1540.24 9.09
1 8 2 2563.03 15.14
2 8 2 16.32 0.21
3 8 2 8.43 0.18
4 8 2 31.82 0.36
5 8 2 0.09 0.11
6 8 2 10.05 0.18
7 8 2 7.69 0.17
8 8 2 5.33 0.17
9 8 2 8.2 0.21
10 8 2 26.14 0.36
11 8 2 0.78 0.15
12 8 2 2.66 0.23
13 8 2 177.13 1.94
14 8 2 124.67 1.77
-15 9 2 2.92 0.25
-14 9 2 -0.01 0.21
-13 9 2 94.85 1.4
-12 9 2 3.9 0.27
-11 9 2 21.84 0.39
-10 9 2 1.97 0.13
-9 9 2 5.16 0.16
-8 9 2 84.2 0.74
-7 9 2 39.6 0.36
-6 9 2 4.12 0.17
-5 9 2 22.72 0.35
-4 9 2 113.98 1.05
-3 9 2 87.27 0.84
-2 9 2 0.15 0.1
-1 9 2 0.19 0.09
0 9 2 289.94 2.02
1 9 2 0.74 0.09
2 9 2 243.15 1.57
3 9 2 30.4 0.35
4 9 2 0.32 0.12
5 9 2 298.29 2.09
6 9 2 10.72 0.17
7 9 2 1.86 0.13
8 9 2 0.19 0.13
9 9 2 113.65 0.99
10 9 2 18.77 0.31
11 9 2 12.39 0.33
12 9 2 21.29 0.43
13 9 2 6.44 0.28
14 9 2 21.56 0.51
-14 10 2 0.86 0.23
-13 10 2 -0.32 0.2
-12 10 2 0.56 0.22
-11 10 2 -0.12 0.15
-10 10 2 7.63 0.19
-9 10 2 7.9 0.18
-8 10 2 1.33 0.12
-7 10 2 54.88 0.46
-6 10 2 2.46 0.12
-5 10 2 5.43 0.16
-4 10 2 25.73 0.39
-3 10 2 40.88 0.5
-2 10 2 7.64 0.2
-1 10 2 49.63 0.52
0 10 2 9.26 0.19
1 10 2 2.47 0.13
2 10 2 11.44 0.21
3 10 2 41.29 0.44
4 10 2 0.74 0.13
5 10 2 0.15 0.08
6 10 2 9.77 0.2
7 10 2 6.69 0.19
8 10 2 2.6 0.17
9 10 2 1.08 0.15
10 10 2 2.14 0.18
11 10 2 2.92 0.25
12 10 2 2.62 0.26
13 10 2 5.12 0.3
-14 11 2 18.66 0.46
-13 11 2 10.95 0.36
-12 11 2 36.5 0.69
-11 11 2 12.51 0.31
-10 11 2 6.96 0.19
-9 11 2 13.94 0.25
-8 11 2 43.82 0.44
-7 11 2 4.14 0.17
-6 11 2 126.02 1.07
-5 11 2 30.5 0.4
-4 11 2 0.21 0.12
-3 11 2 50.84 0.53
-2 11 2 130.39 1.28
-1 11 2 79.62 0.97
0 11 2 2.6 0.14
1 11 2 7.2 0.2
2 11 2 166.77 1.66
3 11 2 86.61 0.74
4 11 2 25.47 0.26
5 11 2 0.73 0.09
6 11 2 10.36 0.24
7 11 2 0.26 0.13
8 11 2 0.11 0.14
9 11 2 -0.01 0.14
10 11 2 1.62 0.24
11 11 2 2.07 0.25
12 11 2 32 0.65
13 11 2 5.81 0.3
-13 12 2 3.49 0.36
-12 12 2 1.84 0.23
-11 12 2 68.2 0.87
-10 12 2 1.21 0.16
-9 12 2 16.14 0.3
-8 12 2 5.7 0.25
-7 12 2 32.57 0.5
-6 12 2 552.58 5.08
-5 12 2 468.92 4.33
-4 12 2 3.88 0.2
-3 12 2 18.98 0.27
-2 12 2 103.12 0.89
-1 12 2 27.52 0.32
0 12 2 58.96 0.53
1 12 2 1.39 0.12
2 12 2 10.63 0.19
3 12 2 0.58 0.11
4 12 2 64.77 0.61
5 12 2 9.29 0.17
6 12 2 38.66 0.42
7 12 2 795.1 7.04
8 12 2 98.43 1.1
9 12 2 17.78 0.45
10 12 2 19.65 0.48
11 12 2 0.48 0.22
12 12 2 11.55 0.38
13 12 2 -0.02 0.29
-13 13 2 7.68 0.42
-12 13 2 3.17 0.25
-11 13 2 1.53 0.21
-10 13 2 28.66 0.58
-9 13 2 27.21 0.82
-8 13 2 16.08 0.37
-7 13 2 52.47 0.7
-6 13 2 138.27 1.45
-5 13 2 84 0.96
-4 13 2 10.65 0.28
-3 13 2 27.72 0.34
-2 13 2 137.68 1.15
-1 13 2 72.78 0.71
0 13 2 0.1 0.11
1 13 2 10.75 0.18
2 13 2 83.29 0.74
3 13 2 112.17 0.95
4 13 2 2.17 0.14
5 13 2 5.53 0.21
6 13 2 39.3 0.5
7 13 2 0.23 0.15
8 13 2 21.17 0.49
9 13 2 8.35 0.32
10 13 2 0.69 0.21
11 13 2 9.26 0.35
12 13 2 26.42 0.56
-12 14 2 0.58 0.19
-11 14 2 3.78 0.38
-10 14 2 9.38 0.5
-9 14 2 5.35 0.42
-8 14 2 4.41 0.31
-7 14 2 2.35 0.23
-6 14 2 0.2 0.19
-5 14 2 7.45 0.27
-4 14 2 3.68 0.22
-3 14 2 0.68 0.13
-2 14 2 2.84 0.15
-1 14 2 0.19 0.12
0 14 2 11.73 0.23
1 14 2 4.33 0.15
2 14 2 0.28 0.12
3 14 2 13.28 0.25
4 14 2 22.72 0.32
5 14 2 -0.07 0.16
6 14 2 28.73 0.51
7 14 2 2.68 0.38
8 14 2 0.5 0.21
9 14 2 1.5 0.23
10 14 2 10.23 0.35
11 14 2 1.05 0.21
-11 15 2 0.4 0.3
-10 15 2 0.07 0.29
-9 15 2 1.35 0.32
-8 15 2 9.96 0.39
-7 15 2 21.42 0.54
-6 15 2 -0.11 0.19
-5 15 2 46.59 0.66
-4 15 2 24.06 0.43
-3 15 2 1.21 0.14
-2 15 2 1.17 0.14
-1 15 2 6 0.19
0 15 2 11.87 0.24
1 15 2 7.81 0.23
2 15 2 5.76 0.18
3 15 2 10.88 0.23
4 15 2 1.13 0.17
5 15 2 49.39 0.73
6 15 2 10.76 0.38
7 15 2 1.99 0.36
8 15 2 1.23 0.33
9 15 2 38.74 0.71
10 15 2 0.28 0.2
11 15 2 3.78 0.36
-10 16 2 5.88 0.44
-9 16 2 4.29 0.33
-8 16 2 52.92 0.92
-7 16 2 0.23 0.26
-6 16 2 2.22 0.28
-5 16 2 14.16 0.44
-4 16 2 21.39 0.42
-3 16 2 18.6 0.39
-2 16 2 1.88 0.15
-1 16 2 3.27 0.18
0 16 2 288.74 2.44
1 16 2 465.2 4.31
2 16 2 16.09 0.36
3 16 2 0.82 0.16
4 16 2 7.65 0.32
5 16 2 2.7 0.27
6 16 2 1.58 0.26
7 16 2 9.17 0.49
8 16 2 0.59 0.29
9 16 2 6.94 0.44
10 16 2 4.1 0.37
-9 17 2 1.91 0.3
-8 17 2 22.14 0.77
-7 17 2 13.51 0.46
-6 17 2 2.42 0.31
-5 17 2 2.15 0.3
-4 17 2 35.59 0.71
-3 17 2 25.21 0.58
-2 17 2 -0.24 0.19
-1 17 2 8.24 0.28
0 17 2 57.15 0.76
1 17 2 1.64 0.28
2 17 2 44.71 0.8
3 17 2 0.22 0.21
4 17 2 1.88 0.25
5 17 2 50.6 0.87
6 17 2 5.83 0.33
7 17 2 0.11 0.28
8 17 2 1.8 0.3
9 17 2 21.9 0.73
-8 18 2 1.5 0.29
-7 18 2 6.34 0.37
-6 18 2 0.74 0.28
-5 18 2 0.28 0.27
-4 18 2 0.3 0.27
-3 18 2 3.86 0.31
-2 18 2 3.1 0.23
-1 18 2 1.8 0.23
0 18 2 2.5 0.25
1 18 2 0.76 0.27
2 18 2 -0.13 0.26
3 18 2 2.14 0.43
4 18 2 5.45 0.31
5 18 2 0.02 0.25
6 18 2 -0.04 0.26
7 18 2 0.04 0.3
-7 19 2 0.2 0.27
-6 19 2 3.49 0.32
-5 19 2 1.83 0.3
-4 19 2 0.17 0.26
-3 19 2 0.99 0.26
-2 19 2 0.76 0.22
-1 19 2 18.03 0.4
0 19 2 4.48 0.26
1 19 2 2.8 0.28
2 19 2 12.43 0.6
3 19 2 7.26 0.52
4 19 2 0.62 0.26
5 19 2 1.9 0.28
6 19 2 0.46 0.27
-5 20 2 111.64 2.27
-4 20 2 0.01 0.26
-3 20 2 -0.11 0.26
-2 20 2 13.02 0.43
-1 20 2 2.31 0.24
0 20 2 0.09 0.25
1 20 2 8.36 0.52
2 20 2 1.69 0.42
3 20 2 7.43 0.51
4 20 2 0.21 0.43
0 21 2 3.94 0.45
-16 0 3 0.38 0.3
-15 0 3 0.34 0.3
-14 0 3 -0.04 0.31
-13 0 3 0.19 0.17
-12 0 3 0.03 0.17
-11 0 3 0.24 0.15
-10 0 3 0.02 0.13
-9 0 3 0.09 0.16
-8 0 3 0.06 0.16
-7 0 3 -0.15 0.15
-6 0 3 -0.14 0.12
-5 0 3 -0.76 0.11
-4 0 3 0.14 0.15
-3 0 3 -0.03 0.14
-2 0 3 0.24 0.17
-1 0 3 -0.3 0.12
0 0 3 0.14 0.15
1 0 3 -2.86 0.4
2 0 3 0.09 0.2
3 0 3 0.04 0.15
4 0 3 0.11 0.18
5 0 3 0.82 0.17
6 0 3 0.11 0.15
7 0 3 0.02 0.19
8 0 3 0.29 0.23
9 0 3 -0.12 0.17
10 0 3 0.64 0.19
11 0 3 -0.07 0.19
12 0 3 0.22 0.22
13 0 3 -0.09 0.43
14 0 3 0.22 0.44
15 0 3 0.17 0.38
-16 1 3 0.8 0.21
-15 1 3 -0.26 0.21
-14 1 3 0.39 0.17
-13 1 3 7.82 0.22
-12 1 3 92.64 0.83
-11 1 3 34.99 0.34
-10 1 3 34.22 0.35
-9 1 3 7.73 0.21
-8 1 3 1.97 0.13
-7 1 3 229.95 1.78
-6 1 3 70.89 0.58
-5 1 3 179.63 1.17
-4 1 3 588 4.55
-3 1 3 454.82 3.9
-2 1 3 0.44 0.11
-1 1 3 9.44 0.19
0 1 3 514.77 4.05
1 1 3 72.29 0.7
2 1 3 66.03 0.73
3 1 3 1.86 0.13
4 1 3 16.62 0.22
5 1 3 123.09 0.87
6 1 3 117.89 0.89
7 1 3 31.47 0.36
8 1 3 56.69 0.5
9 1 3 137.17 0.97
10 1 3 3.39 0.15
11 1 3 0.03 0.13
12 1 3 7.97 0.2
13 1 3 0.27 0.31
14 1 3 10.76 0.42
15 1 3 1.78 0.29
-16 2 3 7.3 0.32
-15 2 3 0.07 0.17
-14 2 3 48.37 0.69
-13 2 3 24.33 0.35
-12 2 3 39.52 0.45
-11 2 3 40.19 0.44
-10 2 3 1.38 0.11
-9 2 3 4.58 0.18
-8 2 3 13.4 0.25
-7 2 3 132.89 1.1
-6 2 3 251.2 1.73
-5 2 3 60.64 0.5
-4 2 3 44.55 0.45
-3 2 3 17.41 0.32
-2 2 3 405.27 3.5
-1 2 3 545.82 4.29
0 2 3 1345.83 10.52
1 2 3 322.47 2.62
2 2 3 588.61 4.65
3 2 3 26.02 0.27
4 2 3 98.19 0.74
5 2 3 9.25 0.19
6 2 3 56.32 0.51
7 2 3 90.51 0.75
8 2 3 76.01 0.6
9 2 3 7.9 0.15
10 2 3 5.64 0.17
11 2 3 0 0.13
12 2 3 0.49 0.17
13 2 3 35.41 0.72
14 2 3 24.31 0.59
15 2 3 2.5 0.3
-16 3 3 10.94 0.36
-15 3 3 3.77 0.27
-14 3 3 2.07 0.21
-13 3 3 47.81 0.56
-12 3 3 8.41 0.22
-11 3 3 93.95 0.83
-10 3 3 7.4 0.18
-9 3 3 0.97 0.11
-8 3 3 23.22 0.33
-7 3 3 9.11 0.19
-6 3 3 103.84 0.78
-5 3 3 254.91 1.63
-4 3 3 73.49 0.58
-3 3 3 9.97 0.24
-2 3 3 35.35 0.45
-1 3 3 908.07 7.61
0 3 3 237.99 2.14
1 3 3 1.4 0.15
2 3 3 437.25 3.55
3 3 3 719.64 5.08
4 3 3 9.26 0.18
5 3 3 0.28 0.12
6 3 3 73.21 0.62
7 3 3 23.17 0.31
8 3 3 11.35 0.19
9 3 3 3.32 0.13
10 3 3 7.71 0.16
11 3 3 1.15 0.14
12 3 3 4.13 0.21
13 3 3 19.05 0.41
14 3 3 6.17 0.36
15 3 3 21.1 0.53
-16 4 3 0.87 0.21
-15 4 3 0.48 0.23
-14 4 3 0 0.24
-13 4 3 1.98 0.25
-12 4 3 5.18 0.22
-11 4 3 0.74 0.15
-10 4 3 0.66 0.15
-9 4 3 14.78 0.27
-8 4 3 17.34 0.4
-7 4 3 0.08 0.11
-6 4 3 30.62 0.33
-5 4 3 138.08 0.93
-4 4 3 12.64 0.17
-3 4 3 204.63 1.71
-2 4 3 235.28 2.47
-1 4 3 41.27 0.54
0 4 3 77.09 0.83
1 4 3 260.96 2.07
2 4 3 125.83 0.89
3 4 3 15.71 0.22
4 4 3 77.18 0.6
5 4 3 62.83 0.54
6 4 3 1.67 0.14
7 4 3 26.24 0.34
8 4 3 3.21 0.12
9 4 3 0.14 0.11
10 4 3 0.47 0.11
11 4 3 2.03 0.14
12 4 3 2.18 0.19
13 4 3 0.17 0.21
14 4 3 0.62 0.21
15 4 3 0.99 0.26
-16 5 3 8.61 0.33
-15 5 3 2.14 0.26
-14 5 3 31.33 0.64
-13 5 3 28.84 0.6
-12 5 3 0.59 0.17
-11 5 3 3.06 0.19
-10 5 3 108.31 1.13
-9 5 3 22.52 0.35
-8 5 3 58.97 0.89
-7 5 3 63.62 0.68
-6 5 3 188.6 1.62
-5 5 3 7.1 0.15
-4 5 3 17.01 0.2
-3 5 3 92.13 0.69
-2 5 3 71.51 0.6
-1 5 3 198.26 1.54
0 5 3 1172.76 7.81
1 5 3 27.42 0.3
2 5 3 817.1 5.04
3 5 3 113.93 0.87
4 5 3 58.66 0.56
5 5 3 0.19 0.12
6 5 3 0.2 0.12
7 5 3 46.22 0.5
8 5 3 40.56 0.36
9 5 3 24.18 0.25
10 5 3 24.33 0.29
11 5 3 15.88 0.26
12 5 3 37.37 0.5
13 5 3 0.62 0.18
14 5 3 0.08 0.2
15 5 3 18.27 0.72
-16 6 3 0.8 0.3
-15 6 3 3.57 0.28
-14 6 3 37.04 0.72
-13 6 3 74.14 1.15
-12 6 3 1.1 0.17
-11 6 3 14.63 0.31
-10 6 3 5.1 0.19
-9 6 3 70.72 0.79
-8 6 3 51.94 0.68
-7 6 3 159.23 1.48
-6 6 3 29.58 0.43
-5 6 3 476.72 3.49
-4 6 3 53.09 0.44
-3 6 3 149.14 1
-2 6 3 72.59 0.58
-1 6 3 32.62 0.32
0 6 3 105.91 0.8
1 6 3 541.99 3.26
2 6 3 1.26 0.09
3 6 3 3.13 0.13
4 6 3 31.3 0.34
5 6 3 45.77 0.51
6 6 3 80.49 0.78
7 6 3 259.66 1.77
8 6 3 19.95 0.27
9 6 3 39.48 0.38
10 6 3 7.47 0.21
11 6 3 11.45 0.25
12 6 3 8.67 0.29
13 6 3 11.97 0.33
14 6 3 1.5 0.25
-15 7 3 3.91 0.28
-14 7 3 1.39 0.25
-13 7 3 5.14 0.3
-12 7 3 53.47 0.7
-11 7 3 6.57 0.23
-10 7 3 0.03 0.13
-9 7 3 11.05 0.25
-8 7 3 12.23 0.23
-7 7 3 3.36 0.17
-6 7 3 125.1 1.21
-5 7 3 7.24 0.18
-4 7 3 445.68 3.23
-3 7 3 15.48 0.24
-2 7 3 4.59 0.13
-1 7 3 187.42 1.34
0 7 3 47.32 0.4
1 7 3 12.14 0.18
2 7 3 63.54 0.55
3 7 3 106.17 0.83
4 7 3 1.56 0.12
5 7 3 -0.06 0.13
6 7 3 127.57 1.13
7 7 3 0.02 0.11
8 7 3 48.35 0.43
9 7 3 23.13 0.34
10 7 3 9.45 0.23
11 7 3 0.31 0.15
12 7 3 1.76 0.21
13 7 3 0.15 0.21
14 7 3 18.75 0.77
-15 8 3 7.27 0.32
-14 8 3 0.21 0.23
-13 8 3 12.22 0.4
-12 8 3 33.68 0.66
-11 8 3 2.45 0.19
-10 8 3 51.82 0.66
-9 8 3 9.55 0.24
-8 8 3 1.25 0.11
-7 8 3 17.41 0.26
-6 8 3 25.63 0.42
-5 8 3 0.72 0.11
-4 8 3 12.9 0.25
-3 8 3 4.7 0.16
-2 8 3 8.52 0.19
-1 8 3 0.67 0.09
0 8 3 0.11 0.08
1 8 3 4.81 0.13
2 8 3 29.08 0.33
3 8 3 32.93 0.36
4 8 3 4.92 0.16
5 8 3 31.72 0.48
6 8 3 14.12 0.21
7 8 3 0.05 0.11
8 8 3 17.73 0.26
9 8 3 23.72 0.34
10 8 3 0.25 0.15
11 8 3 7.15 0.28
12 8 3 21.01 0.43
13 8 3 0.74 0.21
14 8 3 13.58 0.44
-15 9 3 0.35 0.21
-14 9 3 0.05 0.21
-13 9 3 13.73 0.42
-12 9 3 96.97 1.42
-11 9 3 10.43 0.28
-10 9 3 53.48 0.68
-9 9 3 -0.07 0.11
-8 9 3 4.14 0.13
-7 9 3 290.11 1.92
-6 9 3 18.17 0.28
-5 9 3 54.2 0.71
-4 9 3 51.62 0.58
-3 9 3 207.77 1.74
-2 9 3 0.93 0.11
-1 9 3 58.07 0.62
0 9 3 316.08 2.05
1 9 3 29.23 0.31
2 9 3 140.36 1.07
3 9 3 12.12 0.22
4 9 3 -0.04 0.12
5 9 3 104.94 0.72
6 9 3 49.73 0.43
7 9 3 19.6 0.25
8 9 3 26.61 0.33
9 9 3 135.02 1.15
10 9 3 7.94 0.23
11 9 3 0.21 0.2
12 9 3 6.52 0.28
13 9 3 0.64 0.21
-14 10 3 20.8 0.5
-13 10 3 10.43 0.37
-12 10 3 47.5 1.15
-11 10 3 55.81 1.26
-10 10 3 0.13 0.14
-9 10 3 0.45 0.11
-8 10 3 20.43 0.27
-7 10 3 59.39 0.58
-6 10 3 48.62 0.5
-5 10 3 1.39 0.12
-4 10 3 1.15 0.13
-3 10 3 0.4 0.12
-2 10 3 6.29 0.19
-1 10 3 31.34 0.44
0 10 3 173.06 1.5
1 10 3 227.93 1.52
2 10 3 165.26 1.25
3 10 3 1.29 0.13
4 10 3 2.99 0.1
5 10 3 14 0.19
6 10 3 9.02 0.17
7 10 3 14.85 0.23
8 10 3 15.58 0.28
9 10 3 1.74 0.16
10 10 3 6.46 0.27
11 10 3 0.38 0.2
12 10 3 0.28 0.21
13 10 3 32.88 0.54
-14 11 3 2.3 0.23
-13 11 3 11.46 0.38
-12 11 3 4.77 0.3
-11 11 3 25.56 0.55
-10 11 3 2.25 0.15
-9 11 3 0.63 0.13
-8 11 3 9.22 0.21
-7 11 3 0.11 0.12
-6 11 3 4.93 0.17
-5 11 3 39.37 0.43
-4 11 3 0.27 0.09
-3 11 3 14.73 0.24
-2 11 3 0.39 0.1
-1 11 3 9.11 0.24
0 11 3 49.74 0.6
1 11 3 0.03 0.09
2 11 3 104.2 0.82
3 11 3 29.35 0.27
4 11 3 3.19 0.11
5 11 3 8.65 0.15
6 11 3 5.69 0.15
7 11 3 15.2 0.25
8 11 3 0.82 0.15
9 11 3 0.13 0.19
10 11 3 3.86 0.24
11 11 3 0.3 0.19
12 11 3 0.43 0.22
13 11 3 3.86 0.27
-13 12 3 3.04 0.24
-12 12 3 1.05 0.21
-11 12 3 0.34 0.19
-10 12 3 12.54 0.3
-9 12 3 1.41 0.15
-8 12 3 5.69 0.19
-7 12 3 18.49 0.3
-6 12 3 5.67 0.19
-5 12 3 61.61 0.6
-4 12 3 23 0.29
-3 12 3 26.45 0.28
-2 12 3 26.61 0.28
-1 12 3 0.89 0.11
0 12 3 6.25 0.15
1 12 3 27.94 0.37
2 12 3 2.6 0.12
3 12 3 20.31 0.28
4 12 3 9.34 0.17
5 12 3 1.66 0.11
6 12 3 24.65 0.32
7 12 3 15.24 0.32
8 12 3 19.23 0.37
9 12 3 6.43 0.3
10 12 3 0.28 0.22
11 12 3 3.8 0.27
12 12 3 0.6 0.21
-13 13 3 27.75 0.82
-12 13 3 -0.05 0.18
-11 13 3 10.91 0.36
-10 13 3 28.09 0.59
-9 13 3 22.92 0.52
-8 13 3 9.8 0.25
-7 13 3 1.52 0.16
-6 13 3 206.15 2.05
-5 13 3 8.68 0.28
-4 13 3 79.02 0.83
-3 13 3 3.41 0.15
-2 13 3 1.41 0.13
-1 13 3 227.01 1.8
0 13 3 57.76 0.57
1 13 3 1.7 0.17
2 13 3 48.46 0.56
3 13 3 190.57 1.52
4 13 3 8.48 0.2
5 13 3 16.26 0.23
6 13 3 40.58 0.48
7 13 3 19.01 0.36
8 13 3 39.44 0.72
9 13 3 4.88 0.28
10 13 3 4.99 0.28
11 13 3 7.07 0.31
12 13 3 20.56 0.48
-11 14 3 0.27 0.28
-10 14 3 5.83 0.41
-9 14 3 -0.24 0.24
-8 14 3 5.41 0.32
-7 14 3 12.94 0.34
-6 14 3 98.64 1.12
-5 14 3 139.44 1.47
-4 14 3 26.55 0.45
-3 14 3 0.09 0.13
-2 14 3 1.37 0.14
-1 14 3 34.22 0.41
0 14 3 18.65 0.29
1 14 3 1.13 0.17
2 14 3 2.62 0.19
3 14 3 1.5 0.14
4 14 3 0.52 0.14
5 14 3 1.52 0.15
6 14 3 12.47 0.34
7 14 3 97.26 1.39
8 14 3 82.08 1.23
9 14 3 2.81 0.25
10 14 3 0.78 0.21
11 14 3 1.16 0.21
-11 15 3 28.41 0.85
-10 15 3 2.81 0.37
-9 15 3 5.82 0.35
-8 15 3 8.5 0.38
-7 15 3 10.48 0.4
-6 15 3 12.09 0.36
-5 15 3 17.3 0.38
-4 15 3 9.91 0.3
-3 15 3 0.5 0.14
-2 15 3 1.39 0.15
-1 15 3 1.32 0.15
0 15 3 1.35 0.15
1 15 3 0.07 0.17
2 15 3 0.08 0.18
3 15 3 -0.03 0.14
4 15 3 6.54 0.2
5 15 3 -0.21 0.14
6 15 3 0.27 0.23
7 15 3 6.16 0.44
8 15 3 15.35 0.42
9 15 3 16.97 0.44
10 15 3 3.1 0.24
-10 16 3 16.62 0.66
-9 16 3 5.42 0.36
-8 16 3 19.05 0.53
-7 16 3 3.39 0.32
-6 16 3 3.74 0.32
-5 16 3 26.85 0.6
-4 16 3 15.78 0.46
-3 16 3 12.55 0.26
-2 16 3 37.29 0.46
-1 16 3 22.65 0.34
0 16 3 12.55 0.28
1 16 3 108.54 1.21
2 16 3 -0.2 0.19
3 16 3 32.7 0.56
4 16 3 14.69 0.34
5 16 3 -0.07 0.21
6 16 3 3.49 0.28
7 16 3 8.03 0.47
8 16 3 0.36 0.28
9 16 3 4.57 0.38
-9 17 3 1.62 0.3
-8 17 3 33.58 0.71
-7 17 3 51.89 1.29
-6 17 3 8.31 0.39
-5 17 3 1.03 0.28
-4 17 3 74.05 1.17
-3 17 3 56.31 0.76
-2 17 3 3.11 0.23
-1 17 3 0.25 0.2
0 17 3 68.89 0.88
1 17 3 21.83 0.52
2 17 3 41.57 0.76
3 17 3 6.38 0.34
4 17 3 10.19 0.3
5 17 3 44.03 0.8
6 17 3 71.92 1.13
7 17 3 0.37 0.27
8 17 3 4.66 0.38
-8 18 3 25.33 0.61
-7 18 3 16.27 0.5
-6 18 3 1.4 0.29
-5 18 3 3.01 0.31
-4 18 3 2.74 0.31
-3 18 3 3.64 0.24
-2 18 3 17.05 0.38
-1 18 3 -0.07 0.21
0 18 3 23.07 0.54
1 18 3 214.75 2.81
2 18 3 31.22 0.65
3 18 3 -0.05 0.26
4 18 3 6.93 0.51
5 18 3 -0.36 0.23
6 18 3 1.1 0.27
7 18 3 3.67 0.36
-7 19 3 4.33 0.34
-6 19 3 0.92 0.27
-5 19 3 2.13 0.3
-4 19 3 8.56 0.39
-3 19 3 9.64 0.4
-2 19 3 -0.06 0.21
-1 19 3 5.2 0.27
0 19 3 16.47 0.46
1 19 3 0.11 0.25
2 19 3 26.03 0.58
3 19 3 1.62 0.42
4 19 3 -0.27 0.4
5 19 3 3.57 0.5
-5 20 3 17.18 0.66
-4 20 3 9.36 0.4
-3 20 3 5.73 0.34
-2 20 3 2.79 0.25
-1 20 3 -0.16 0.21
0 20 3 0.66 0.26
1 20 3 3.19 0.29
2 20 3 0.01 0.25
3 20 3 8.83 0.54
4 20 3 0.35 0.42
-15 0 4 0.62 0.31
-14 0 4 59.65 0.96
-13 0 4 9.58 0.27
-12 0 4 98.89 1.08
-11 0 4 1050.85 8.22
-10 0 4 2.36 0.16
-9 0 4 92.98 1.25
-8 0 4 363.34 3.87
-7 0 4 14.56 0.33
-6 0 4 3.77 0.17
-5 0 4 68.7 0.78
-4 0 4 1610.08 15.08
-3 0 4 272.76 2.87
-2 0 4 575.55 6.43
-1 0 4 148.68 1.85
0 0 4 154.45 1.92
1 0 4 6460.06 70.08
2 0 4 3393.2 31.58
3 0 4 6.83 0.25
4 0 4 70.6 0.74
5 0 4 114.74 1.11
6 0 4 44.23 0.71
7 0 4 69.43 0.99
8 0 4 0.73 0.19
9 0 4 0.48 0.19
10 0 4 0.97 0.21
11 0 4 32.96 0.51
12 0 4 0.85 0.26
13 0 4 4.33 0.52
14 0 4 237.18 4.45
15 0 4 47.17 1.2
-16 1 4 28.08 0.85
-15 1 4 3.39 0.21
-14 1 4 12.9 0.39
-13 1 4 28.5 0.34
-12 1 4 100.8 0.78
-11 1 4 11.44 0.19
-10 1 4 8.91 0.16
-9 1 4 11.55 0.21
-8 1 4 0.77 0.12
-7 1 4 169.86 1.28
-6 1 4 172.58 1.14
-5 1 4 152.85 1.05
-4 1 4 112.37 0.81
-3 1 4 170.84 1.4
-2 1 4 724.73 5.69
-1 1 4 528.89 4.19
0 1 4 17.32 0.31
1 1 4 2344.77 18
2 1 4 299.21 2.1
3 1 4 61.66 0.49
4 1 4 287.33 1.85
5 1 4 237.25 1.62
6 1 4 183.3 1.31
7 1 4 0.26 0.14
8 1 4 19.17 0.24
9 1 4 43.14 0.4
10 1 4 104.65 0.8
11 1 4 4.89 0.18
12 1 4 -0.23 0.18
13 1 4 19.9 0.42
14 1 4 0.19 0.3
15 1 4 2.27 0.29
-16 2 4 1.54 0.22
-15 2 4 1.42 0.23
-14 2 4 4.17 0.27
-13 2 4 0.01 0.17
-12 2 4 -0.14 0.15
-11 2 4 20.56 0.29
-10 2 4 18.68 0.25
-9 2 4 2.31 0.13
-8 2 4 43.95 0.52
-7 2 4 48.28 0.46
-6 2 4 1.07 0.09
-5 2 4 49.89 0.44
-4 2 4 106.5 0.75
-3 2 4 21.28 0.26
-2 2 4 18.63 0.34
-1 2 4 218.88 1.9
0 2 4 43.88 0.58
1 2 4 12.23 0.27
2 2 4 53.67 0.44
3 2 4 142.35 1
4 2 4 1.85 0.14
5 2 4 1.69 0.14
6 2 4 60.86 0.56
7 2 4 2.55 0.16
8 2 4 1.86 0.11
9 2 4 0.16 0.13
10 2 4 17.2 0.25
11 2 4 0.55 0.14
12 2 4 -0.19 0.17
13 2 4 16.13 0.38
14 2 4 1.88 0.23
15 2 4 6.56 0.52
-16 3 4 20.79 0.49
-15 3 4 2.22 0.24
-14 3 4 7 0.45
-13 3 4 77.12 0.91
-12 3 4 11.46 0.29
-11 3 4 17.93 0.34
-10 3 4 6.39 0.19
-9 3 4 164.38 1.45
-8 3 4 16.17 0.32
-7 3 4 82.53 0.78
-6 3 4 505.49 3.41
-5 3 4 76.88 0.64
-4 3 4 76.95 0.6
-3 3 4 74.6 0.58
-2 3 4 47.47 0.44
-1 3 4 638.37 4.74
0 3 4 288.41 2.52
1 3 4 41.61 0.39
2 3 4 88.36 0.68
3 3 4 342.44 2.35
4 3 4 74.02 0.6
5 3 4 2.49 0.14
6 3 4 2.68 0.15
7 3 4 75.61 0.62
8 3 4 15.06 0.2
9 3 4 35.65 0.32
10 3 4 4.71 0.17
11 3 4 4.52 0.17
12 3 4 49.85 0.72
13 3 4 12.1 0.34
14 3 4 0.34 0.21
-16 4 4 1.25 0.22
-15 4 4 2.11 0.24
-14 4 4 73.41 1.15
-13 4 4 43.41 0.78
-12 4 4 0.43 0.17
-11 4 4 45.05 0.59
-10 4 4 145.23 1.46
-9 4 4 11.34 0.25
-8 4 4 53.31 0.67
-7 4 4 0.54 0.12
-6 4 4 105.94 0.86
-5 4 4 2410.46 14.95
-4 4 4 1175.91 7.06
-3 4 4 364.09 2.47
-2 4 4 16.69 0.23
-1 4 4 978.63 5.99
0 4 4 75.8 0.62
1 4 4 1.09 0.09
2 4 4 6.52 0.15
3 4 4 380.86 2.74
4 4 4 68.06 0.64
5 4 4 37.17 0.44
6 4 4 56.97 0.61
7 4 4 450.06 2.63
8 4 4 979.86 5.78
9 4 4 13.08 0.21
10 4 4 6.61 0.15
11 4 4 16.98 0.25
12 4 4 0.35 0.21
13 4 4 3.66 0.25
14 4 4 1.78 0.22
-16 5 4 8.99 0.34
-15 5 4 1.58 0.23
-14 5 4 14.16 0.43
-13 5 4 50.66 0.87
-12 5 4 2.25 0.19
-11 5 4 3.02 0.19
-10 5 4 14.05 0.29
-9 5 4 150.47 1.49
-8 5 4 3.02 0.13
-7 5 4 28.23 0.44
-6 5 4 440.57 3.33
-5 5 4 123.79 0.87
-4 5 4 124.13 0.86
-3 5 4 6.78 0.13
-2 5 4 1.71 0.11
-1 5 4 521.17 3.47
0 5 4 265.12 1.76
1 5 4 0.28 0.08
2 5 4 7.08 0.15
3 5 4 208.17 1.5
4 5 4 165.73 1.46
5 5 4 11.31 0.25
6 5 4 0.03 0.14
7 5 4 125.83 0.89
8 5 4 1.11 0.14
9 5 4 51.47 0.46
10 5 4 4.12 0.16
11 5 4 0.78 0.14
12 5 4 42.39 0.8
13 5 4 9.62 0.39
14 5 4 0.3 0.26
-15 6 4 0.4 0.21
-14 6 4 -0.34 0.23
-13 6 4 6.78 0.33
-12 6 4 2.67 0.2
-11 6 4 0.14 0.15
-10 6 4 0.33 0.15
-9 6 4 2.25 0.15
-8 6 4 1.84 0.13
-7 6 4 1.06 0.17
-6 6 4 1.69 0.13
-5 6 4 0.24 0.09
-4 6 4 0.11 0.09
-3 6 4 0.44 0.09
-2 6 4 4.8 0.13
-1 6 4 4.53 0.13
0 6 4 1.43 0.11
1 6 4 0.19 0.09
2 6 4 2.37 0.12
3 6 4 7.51 0.17
4 6 4 0.12 0.12
5 6 4 0.34 0.13
6 6 4 8.38 0.17
7 6 4 7.81 0.17
8 6 4 0.78 0.13
9 6 4 5.12 0.17
10 6 4 1.07 0.14
11 6 4 1.46 0.21
12 6 4 3.72 0.24
13 6 4 1.38 0.21
14 6 4 0.54 0.27
-15 7 4 2.79 0.27
-14 7 4 2.29 0.26
-13 7 4 0.27 0.23
-12 7 4 92.17 1.35
-11 7 4 14.28 0.31
-10 7 4 30.67 0.46
-9 7 4 3.78 0.17
-8 7 4 2.9 0.14
-7 7 4 174.6 1.54
-6 7 4 11.3 0.25
-5 7 4 24.23 0.3
-4 7 4 44.6 0.44
-3 7 4 146.15 1.12
-2 7 4 2.9 0.12
-1 7 4 69.94 0.61
0 7 4 31.65 0.35
1 7 4 154.49 1.05
2 7 4 0.04 0.1
3 7 4 0.16 0.11
4 7 4 10.58 0.21
5 7 4 16.48 0.34
6 7 4 89.62 0.67
7 7 4 19.53 0.25
8 7 4 -0.03 0.12
9 7 4 19.28 0.27
10 7 4 43.44 0.45
11 7 4 0.26 0.2
12 7 4 3.57 0.24
13 7 4 10.11 0.32
14 7 4 3.1 0.23
-15 8 4 2.98 0.27
-14 8 4 6.43 0.31
-13 8 4 -0.07 0.23
-12 8 4 117.95 1.66
-11 8 4 414.68 3.86
-10 8 4 34.78 0.5
-9 8 4 23.9 0.38
-8 8 4 74.07 0.68
-7 8 4 176.85 1.31
-6 8 4 0.34 0.14
-5 8 4 16.55 0.3
-4 8 4 69.25 0.72
-3 8 4 145.55 1.29
-2 8 4 25.25 0.31
-1 8 4 19.54 0.27
0 8 4 4.21 0.15
1 8 4 1412.94 8.74
2 8 4 1436.36 9.11
3 8 4 39.47 0.42
4 8 4 3.23 0.15
5 8 4 112.02 0.83
6 8 4 3.05 0.13
7 8 4 3.43 0.14
8 8 4 0.39 0.13
9 8 4 17.77 0.27
10 8 4 10.62 0.25
11 8 4 12.33 0.34
12 8 4 5.58 0.27
13 8 4 22.58 0.44
-15 9 4 14.44 0.58
-14 9 4 1.01 0.23
-13 9 4 1.22 0.24
-12 9 4 159.39 3
-11 9 4 3.06 0.21
-10 9 4 56.49 0.71
-9 9 4 18.47 0.34
-8 9 4 11.41 0.23
-7 9 4 186.62 1.39
-6 9 4 0.03 0.11
-5 9 4 0.34 0.11
-4 9 4 3.76 0.17
-3 9 4 259.57 2.13
-2 9 4 9.33 0.23
-1 9 4 22.15 0.3
0 9 4 129.13 1.03
1 9 4 118.82 1.03
2 9 4 13.11 0.23
3 9 4 20.83 0.3
4 9 4 1.23 0.11
5 9 4 8.33 0.17
6 9 4 104.17 0.78
7 9 4 13.16 0.22
8 9 4 6.2 0.17
9 9 4 5.65 0.19
10 9 4 39.18 0.6
11 9 4 6.97 0.28
12 9 4 3.92 0.25
13 9 4 12.59 0.34
-14 10 4 3.37 0.26
-13 10 4 0.35 0.22
-12 10 4 8.42 0.33
-11 10 4 2.78 0.25
-10 10 4 -0.03 0.15
-9 10 4 3.23 0.17
-8 10 4 0.54 0.11
-7 10 4 0.21 0.12
-6 10 4 9.13 0.2
-5 10 4 3.02 0.13
-4 10 4 16.17 0.23
-3 10 4 6.59 0.21
-2 10 4 0.96 0.13
-1 10 4 21.94 0.36
0 10 4 60.53 0.61
1 10 4 2.21 0.17
2 10 4 17.97 0.25
3 10 4 10.65 0.15
4 10 4 13.09 0.17
5 10 4 20.15 0.26
6 10 4 4.98 0.15
7 10 4 4.66 0.16
8 10 4 0.02 0.13
9 10 4 17.2 0.31
10 10 4 0.01 0.2
11 10 4 0.42 0.21
12 10 4 2.79 0.23
13 10 4 1.05 0.21
-14 11 4 5.39 0.28
-13 11 4 5.33 0.28
-12 11 4 2.11 0.23
-11 11 4 24.22 0.54
-10 11 4 36.92 0.68
-9 11 4 -0.23 0.17
-8 11 4 -0.17 0.13
-7 11 4 2.07 0.15
-6 11 4 9.88 0.21
-5 11 4 118.74 1.01
-4 11 4 2.58 0.11
-3 11 4 12.76 0.19
-2 11 4 38.3 0.37
-1 11 4 90.21 0.68
0 11 4 122.46 0.91
1 11 4 18.03 0.24
2 11 4 0.2 0.09
3 11 4 48.65 0.38
4 11 4 78.87 0.55
5 11 4 45.36 0.41
6 11 4 -0.05 0.11
7 11 4 60.08 0.53
8 11 4 2.61 0.16
9 11 4 -0.19 0.2
10 11 4 8.45 0.3
11 11 4 3.26 0.24
12 11 4 2.89 0.23
-13 12 4 18.64 0.46
-12 12 4 2.66 0.23
-11 12 4 2.56 0.23
-10 12 4 90.76 1.92
-9 12 4 5.83 0.21
-8 12 4 66.44 0.67
-7 12 4 15 0.27
-6 12 4 52.36 0.55
-5 12 4 910.67 6.69
-4 12 4 131.33 0.96
-3 12 4 11.56 0.19
-2 12 4 22.99 0.27
-1 12 4 43.6 0.4
0 12 4 15.83 0.22
1 12 4 5.77 0.17
2 12 4 57.28 0.57
3 12 4 1.96 0.1
4 12 4 8.18 0.15
5 12 4 0.9 0.11
6 12 4 1.24 0.13
7 12 4 114.64 1.05
8 12 4 359.81 3.18
9 12 4 36.12 0.59
10 12 4 14.59 0.37
11 12 4 8.62 0.3
12 12 4 3.59 0.25
-12 13 4 4.58 0.37
-11 13 4 0.22 0.27
-10 13 4 24.51 0.77
-9 13 4 18.58 0.4
-8 13 4 2.42 0.17
-7 13 4 1.09 0.14
-6 13 4 63.79 0.65
-5 13 4 80.78 0.76
-4 13 4 38.15 0.38
-3 13 4 19.32 0.26
-2 13 4 22.49 0.27
-1 13 4 103.07 0.79
0 13 4 90.46 0.71
1 13 4 13.34 0.25
2 13 4 1.64 0.15
3 13 4 37.13 0.43
4 13 4 111.39 0.78
5 13 4 12.37 0.19
6 13 4 3.58 0.16
7 13 4 79.09 0.96
8 13 4 6.8 0.31
9 13 4 15.17 0.42
10 13 4 0.87 0.22
11 13 4 2.76 0.24
-12 14 4 3.39 0.34
-11 14 4 6.51 0.41
-10 14 4 2.01 0.23
-9 14 4 1.35 0.2
-8 14 4 14.57 0.36
-7 14 4 14.31 0.32
-6 14 4 0.48 0.16
-5 14 4 4.85 0.19
-4 14 4 15.81 0.25
-3 14 4 4.25 0.17
-2 14 4 19.89 0.3
-1 14 4 5.37 0.19
0 14 4 0.05 0.14
1 14 4 0.49 0.16
2 14 4 2.75 0.19
3 14 4 0.18 0.17
4 14 4 0.55 0.13
5 14 4 0.41 0.14
6 14 4 0.01 0.16
7 14 4 18.38 0.45
8 14 4 0.06 0.21
9 14 4 5.52 0.28
10 14 4 0.57 0.2
-10 15 4 7.12 0.46
-9 15 4 1.34 0.28
-8 15 4 0.92 0.28
-7 15 4 35.62 0.72
-6 15 4 0.58 0.26
-5 15 4 2.95 0.23
-4 15 4 19.74 0.34
-3 15 4 37.15 0.45
-2 15 4 2.98 0.17
-1 15 4 8.46 0.23
0 15 4 7.36 0.23
1 15 4 10.37 0.28
2 15 4 5.16 0.23
3 15 4 0.48 0.19
4 15 4 0.09 0.16
5 15 4 0.19 0.18
6 15 4 20.74 0.5
7 15 4 14.14 0.4
8 15 4 0.6 0.21
9 15 4 6.54 0.29
10 15 4 8.62 0.31
-10 16 4 20.4 0.71
-9 16 4 2.74 0.32
-8 16 4 12.24 0.44
-7 16 4 64.79 1.08
-6 16 4 0.21 0.27
-5 16 4 15.92 0.48
-4 16 4 16.87 0.37
-3 16 4 10.68 0.28
-2 16 4 9.04 0.24
-1 16 4 2.44 0.18
0 16 4 0.41 0.17
1 16 4 287.83 2.85
2 16 4 315.2 3.98
3 16 4 0.37 0.25
4 16 4 -0.01 0.24
5 16 4 22.98 0.43
6 16 4 0.61 0.29
7 16 4 0.88 0.3
8 16 4 3.27 0.35
9 16 4 3.04 0.22
-9 17 4 0.23 0.28
-8 17 4 4.02 0.34
-7 17 4 29.69 0.67
-6 17 4 3.98 0.34
-5 17 4 1.02 0.28
-4 17 4 3.13 0.31
-3 17 4 49.73 0.7
-2 17 4 8.62 0.3
-1 17 4 0.09 0.21
0 17 4 34.86 0.68
1 17 4 33.41 0.66
2 17 4 5.83 0.33
3 17 4 13.14 0.42
4 17 4 -0.12 0.27
5 17 4 4.76 0.32
6 17 4 26.3 0.8
7 17 4 2.77 0.32
8 17 4 1.54 0.28
-8 18 4 2 0.31
-7 18 4 5.2 0.36
-6 18 4 2.07 0.32
-5 18 4 1.41 0.3
-4 18 4 -0.11 0.27
-3 18 4 0.05 0.2
-2 18 4 3.64 0.25
-1 18 4 0.32 0.22
0 18 4 5.39 0.31
1 18 4 2.47 0.29
2 18 4 -0.01 0.25
3 18 4 -0.11 0.27
4 18 4 3.02 0.31
5 18 4 2.96 0.45
-6 19 4 3.75 0.33
-5 19 4 10.27 0.42
-4 19 4 0.53 0.28
-3 19 4 -0.09 0.21
-2 19 4 0.14 0.21
-1 19 4 5.16 0.31
0 19 4 8.64 0.36
1 19 4 0.73 0.26
2 19 4 5.14 0.32
3 19 4 11.74 0.4
4 19 4 0.64 0.4
5 19 4 1.95 0.47
-4 20 4 66.02 1.08
-3 20 4 0.87 0.29
-2 20 4 0.08 0.21
-1 20 4 25.55 0.81
0 20 4 1.23 0.27
1 20 4 3.22 0.28
2 20 4 4.7 0.31
3 20 4 1.71 0.4
-15 0 5 -0.05 0.2
-14 0 5 -0.03 0.19
-13 0 5 -0.07 0.17
-12 0 5 0.1 0.15
-11 0 5 0.02 0.15
-10 0 5 0.04 0.14
-9 0 5 -0.11 0.14
-8 0 5 0.09 0.14
-7 0 5 0.21 0.13
-6 0 5 -0.09 0.11
-5 0 5 0.03 0.12
-4 0 5 -0.14 0.09
-3 0 5 -0.34 0.14
-2 0 5 0.01 0.13
-1 0 5 -0.26 0.12
0 0 5 0.05 0.13
1 0 5 0.02 0.13
2 0 5 0.47 0.14
3 0 5 0.05 0.17
4 0 5 -0.15 0.15
5 0 5 0.14 0.24
6 0 5 -0.07 0.25
7 0 5 0.17 0.18
8 0 5 -0.03 0.19
9 0 5 -0.13 0.19
10 0 5 0.42 0.19
11 0 5 0.25 0.21
12 0 5 -0.15 0.25
13 0 5 0.55 0.27
14 0 5 0.83 0.25
-16 1 5 2.97 0.24
-15 1 5 1.3 0.22
-14 1 5 -0.07 0.16
-13 1 5 0.41 0.13
-12 1 5 55.19 0.57
-11 1 5 109.47 0.95
-10 1 5 5.76 0.17
-9 1 5 35.19 0.38
-8 1 5 13.43 0.26
-7 1 5 10.68 0.2
-6 1 5 136.85 1.01
-5 1 5 16.48 0.22
-4 1 5 320.4 2.11
-3 1 5 353.77 2.45
-2 1 5 22.17 0.25
-1 1 5 0.62 0.09
0 1 5 7.99 0.18
1 1 5 174.48 1.27
2 1 5 51.01 0.44
3 1 5 34.53 0.34
4 1 5 1.14 0.14
5 1 5 1.98 0.15
6 1 5 82.66 0.73
7 1 5 38.66 0.38
8 1 5 0.82 0.14
9 1 5 48.95 0.45
10 1 5 56.87 0.5
11 1 5 0.38 0.15
12 1 5 0.31 0.19
13 1 5 6.47 0.24
14 1 5 0.54 0.21
-16 2 5 4.41 0.27
-15 2 5 8.42 0.34
-14 2 5 1.4 0.23
-13 2 5 108.25 1.33
-12 2 5 17.48 0.28
-11 2 5 12.66 0.22
-10 2 5 51.48 0.51
-9 2 5 23.91 0.29
-8 2 5 5.01 0.2
-7 2 5 165.18 1.27
-6 2 5 92.08 0.76
-5 2 5 129.84 0.99
-4 2 5 81.37 0.67
-3 2 5 25.59 0.28
-2 2 5 9.36 0.16
-1 2 5 -0.04 0.09
0 2 5 165.65 1.21
1 2 5 625.85 3.98
2 2 5 121.03 0.92
3 2 5 17.26 0.31
4 2 5 14.45 0.23
5 2 5 10.99 0.22
6 2 5 7.65 0.21
7 2 5 101.16 0.74
8 2 5 32.04 0.33
9 2 5 13.26 0.23
10 2 5 9.46 0.21
11 2 5 0.01 0.14
12 2 5 -0.06 0.18
13 2 5 6.52 0.25
14 2 5 14.75 0.37
-16 3 5 -0.09 0.19
-15 3 5 5.16 0.28
-14 3 5 1.79 0.24
-13 3 5 0.95 0.21
-12 3 5 13.71 0.32
-11 3 5 1.83 0.16
-10 3 5 87.71 0.78
-9 3 5 26.62 0.33
-8 3 5 13.35 0.27
-7 3 5 24.6 0.36
-6 3 5 27.68 0.33
-5 3 5 41.37 0.42
-4 3 5 217.38 1.56
-3 3 5 40.83 0.39
-2 3 5 136.24 0.97
-1 3 5 5.2 0.13
0 3 5 348.16 2.19
1 3 5 136.73 0.97
2 3 5 218.15 1.52
3 3 5 141.17 1.16
4 3 5 61.76 0.62
5 3 5 3.41 0.17
6 3 5 1.92 0.17
7 3 5 26.59 0.28
8 3 5 0.27 0.13
9 3 5 15.16 0.28
10 3 5 2.78 0.19
11 3 5 0.59 0.17
12 3 5 9.22 0.32
13 3 5 0.74 0.19
14 3 5 2 0.27
-16 4 5 7.27 0.31
-15 4 5 -0.1 0.21
-14 4 5 5.43 0.29
-13 4 5 6.61 0.31
-12 4 5 1.85 0.19
-11 4 5 2.24 0.18
-10 4 5 15.67 0.3
-9 4 5 4.17 0.15
-8 4 5 0.67 0.1
-7 4 5 9.2 0.23
-6 4 5 12.47 0.22
-5 4 5 1.31 0.12
-4 4 5 0.67 0.11
-3 4 5 9.97 0.17
-2 4 5 102.65 0.72
-1 4 5 17.18 0.23
0 4 5 27.83 0.31
1 4 5 79.84 0.6
2 4 5 32.51 0.34
3 4 5 0 0.11
4 4 5 52.35 0.55
5 4 5 27.03 0.38
6 4 5 1.69 0.12
7 4 5 19.79 0.25
8 4 5 28.71 0.32
9 4 5 -0.01 0.14
10 4 5 6.47 0.2
11 4 5 5.9 0.28
12 4 5 0.47 0.21
13 4 5 0.4 0.25
14 4 5 2.01 0.28
-16 5 5 2.14 0.23
-15 5 5 29.39 0.87
-14 5 5 5.32 0.42
-13 5 5 21.11 0.51
-12 5 5 60.74 0.76
-11 5 5 33.4 0.5
-10 5 5 19.08 0.34
-9 5 5 17.26 0.31
-8 5 5 49.05 0.49
-7 5 5 52.59 0.6
-6 5 5 50.27 0.5
-5 5 5 566.46 3.83
-4 5 5 12.64 0.19
-3 5 5 13.6 0.19
-2 5 5 5.23 0.15
-1 5 5 271.94 1.9
0 5 5 127.45 0.98
1 5 5 56.18 0.48
2 5 5 0.29 0.1
3 5 5 500.56 3.53
4 5 5 83.36 0.78
5 5 5 19.66 0.33
6 5 5 17.53 0.23
7 5 5 16.22 0.21
8 5 5 0.31 0.13
9 5 5 1.74 0.15
10 5 5 6.84 0.19
11 5 5 0.24 0.17
12 5 5 2.82 0.25
13 5 5 23.24 0.56
14 5 5 0.44 0.25
-15 6 5 1.11 0.23
-14 6 5 11.78 0.38
-13 6 5 34.56 0.68
-12 6 5 45.73 0.63
-11 6 5 2.13 0.18
-10 6 5 3.55 0.19
-9 6 5 2.27 0.16
-8 6 5 7.84 0.19
-7 6 5 18.49 0.28
-6 6 5 301.72 2.16
-5 6 5 55.02 0.54
-4 6 5 83.38 0.64
-3 6 5 89.04 0.74
-2 6 5 119.46 0.96
-1 6 5 24.12 0.28
0 6 5 314.3 2.29
1 6 5 10.42 0.21
2 6 5 106.14 0.83
3 6 5 18.56 0.27
4 6 5 23.94 0.35
5 6 5 18.28 0.23
6 6 5 3.7 0.13
7 6 5 21.68 0.27
8 6 5 173.13 1.23
9 6 5 13.57 0.24
10 6 5 0.52 0.15
11 6 5 9.85 0.27
12 6 5 2.45 0.23
13 6 5 2.66 0.3
-15 7 5 7.34 0.45
-14 7 5 10.64 0.52
-13 7 5 1.68 0.26
-12 7 5 0.25 0.24
-11 7 5 129.07 1.37
-10 7 5 4.98 0.21
-9 7 5 48.35 0.61
-8 7 5 3.62 0.16
-7 7 5 13 0.22
-6 7 5 62.16 0.68
-5 7 5 0.45 0.1
-4 7 5 18.65 0.28
-3 7 5 150.07 1.16
-2 7 5 7.22 0.18
-1 7 5 35.68 0.42
0 7 5 98.74 0.82
1 7 5 11.81 0.24
2 7 5 8.56 0.19
3 7 5 32.51 0.38
4 7 5 14.95 0.31
5 7 5 18.71 0.23
6 7 5 2.85 0.13
7 7 5 42.62 0.4
8 7 5 0.13 0.13
9 7 5 94.79 0.75
10 7 5 4.67 0.21
11 7 5 0.07 0.17
12 7 5 5.48 0.27
13 7 5 0.09 0.2
-15 8 5 1.76 0.23
-14 8 5 0.95 0.21
-13 8 5 2.92 0.27
-12 8 5 6.89 0.32
-11 8 5 13.94 0.33
-10 8 5 7.72 0.25
-9 8 5 71.15 0.68
-8 8 5 6.35 0.19
-7 8 5 29.16 0.35
-6 8 5 52.33 0.54
-5 8 5 22.97 0.36
-4 8 5 10.25 0.21
-3 8 5 106.28 0.89
-2 8 5 19.56 0.28
-1 8 5 4.55 0.16
0 8 5 72.82 0.68
1 8 5 27.46 0.38
2 8 5 17.87 0.27
3 8 5 12.8 0.24
4 8 5 -0.14 0.1
5 8 5 0.19 0.1
6 8 5 0.3 0.11
7 8 5 1.39 0.13
8 8 5 0.03 0.12
9 8 5 0.21 0.13
10 8 5 1.11 0.19
11 8 5 1.29 0.22
12 8 5 1.04 0.21
13 8 5 2.96 0.23
-14 9 5 1.72 0.23
-13 9 5 0.46 0.23
-12 9 5 104.34 1.51
-11 9 5 77.51 1.18
-10 9 5 0.93 0.18
-9 9 5 17.37 0.28
-8 9 5 6.3 0.19
-7 9 5 20.15 0.37
-6 9 5 131.13 1.09
-5 9 5 14.92 0.24
-4 9 5 119.71 0.95
-3 9 5 89.59 0.9
-2 9 5 22.23 0.31
-1 9 5 -0.07 0.11
0 9 5 1.04 0.13
1 9 5 195.6 1.66
2 9 5 31.01 0.38
3 9 5 103.35 0.76
4 9 5 2.84 0.11
5 9 5 0.71 0.11
6 9 5 125.19 0.92
7 9 5 18.62 0.26
8 9 5 1.13 0.14
9 9 5 14.18 0.31
10 9 5 73.65 0.82
11 9 5 2.29 0.24
12 9 5 3.57 0.24
13 9 5 10.91 0.4
-14 10 5 1.43 0.21
-13 10 5 44.59 0.8
-12 10 5 9.57 0.35
-11 10 5 32.24 0.64
-10 10 5 60.21 0.76
-9 10 5 7.94 0.23
-8 10 5 0.01 0.17
-7 10 5 99.36 0.99
-6 10 5 34.11 0.4
-5 10 5 23.12 0.27
-4 10 5 3.83 0.12
-3 10 5 14.18 0.2
-2 10 5 1.75 0.1
-1 10 5 4.6 0.13
0 10 5 16.02 0.21
1 10 5 201.2 1.44
2 10 5 149.14 1.05
3 10 5 19.77 0.23
4 10 5 2.66 0.11
5 10 5 0.28 0.11
6 10 5 8.95 0.19
7 10 5 27.57 0.32
8 10 5 3.96 0.17
9 10 5 2.07 0.19
10 10 5 3.59 0.25
11 10 5 0.19 0.2
12 10 5 0.42 0.19
-14 11 5 0.27 0.25
-13 11 5 0.91 0.21
-12 11 5 8.36 0.32
-11 11 5 0.22 0.21
-10 11 5 31.1 0.89
-9 11 5 1.34 0.21
-8 11 5 1.94 0.21
-7 11 5 14.46 0.27
-6 11 5 3.73 0.17
-5 11 5 5.71 0.15
-4 11 5 39.7 0.38
-3 11 5 3.29 0.13
-2 11 5 22.64 0.27
-1 11 5 1.83 0.11
0 11 5 13.41 0.21
1 11 5 28 0.3
2 11 5 28.52 0.3
3 11 5 63.45 0.52
4 11 5 3.21 0.11
5 11 5 -0.13 0.1
6 11 5 4.96 0.16
7 11 5 1.11 0.13
8 11 5 4.67 0.22
9 11 5 0.06 0.17
10 11 5 0.38 0.22
11 11 5 1.58 0.21
12 11 5 0.19 0.19
-13 12 5 0.42 0.18
-12 12 5 2.67 0.24
-11 12 5 2.97 0.34
-10 12 5 1.5 0.31
-9 12 5 12.9 0.42
-8 12 5 7.23 0.23
-7 12 5 0.63 0.14
-6 12 5 16.22 0.28
-5 12 5 19.3 0.26
-4 12 5 24.88 0.29
-3 12 5 40.16 0.41
-2 12 5 4.52 0.15
-1 12 5 26.57 0.3
0 12 5 2.65 0.15
1 12 5 0.34 0.13
2 12 5 15.69 0.22
3 12 5 13.09 0.21
4 12 5 7.04 0.15
5 12 5 8.14 0.18
6 12 5 7.3 0.19
7 12 5 7.49 0.23
8 12 5 19.88 0.36
9 12 5 3.21 0.25
10 12 5 5.05 0.27
11 12 5 0.44 0.19
-12 13 5 10.82 0.51
-11 13 5 1.27 0.3
-10 13 5 11.97 0.42
-9 13 5 36.87 0.72
-8 13 5 3.42 0.22
-7 13 5 11.68 0.26
-6 13 5 46.04 0.52
-5 13 5 194.52 1.46
-4 13 5 -0.22 0.11
-3 13 5 46.47 0.44
-2 13 5 2.22 0.13
-1 13 5 14.71 0.23
0 13 5 153.51 1.28
1 13 5 15.25 0.27
2 13 5 14.56 0.27
3 13 5 55.07 0.49
4 13 5 82.8 0.67
5 13 5 0.12 0.11
6 13 5 4.14 0.18
7 13 5 45.47 0.58
8 13 5 7.43 0.27
9 13 5 25.65 0.49
10 13 5 0.26 0.19
11 13 5 1.59 0.3
-12 14 5 1.99 0.3
-11 14 5 0.46 0.27
-10 14 5 0.23 0.25
-9 14 5 11.88 0.33
-8 14 5 0.35 0.19
-7 14 5 24.63 0.46
-6 14 5 10.46 0.25
-5 14 5 100.03 0.93
-4 14 5 124.46 1.1
-3 14 5 0.03 0.12
-2 14 5 -0.11 0.11
-1 14 5 19.68 0.27
0 14 5 17.64 0.28
1 14 5 19.64 0.3
2 14 5 0.15 0.15
3 14 5 1.76 0.17
4 14 5 3.04 0.19
5 14 5 0.83 0.15
6 14 5 0.36 0.17
7 14 5 32.86 0.47
8 14 5 58.44 0.78
9 14 5 21.62 0.5
10 14 5 1.62 0.22
-11 15 5 4.97 0.38
-10 15 5 14.98 0.46
-9 15 5 2.62 0.23
-8 15 5 7.94 0.29
-7 15 5 9.19 0.3
-6 15 5 5.11 0.26
-5 15 5 11.52 0.32
-4 15 5 47.04 0.51
-3 15 5 9.82 0.21
-2 15 5 4 0.17
-1 15 5 12.29 0.24
0 15 5 1.95 0.17
1 15 5 0.82 0.17
2 15 5 3.92 0.22
3 15 5 -0.09 0.21
4 15 5 1.86 0.25
5 15 5 -0.15 0.24
6 15 5 1.48 0.19
7 15 5 0.8 0.19
8 15 5 0.89 0.21
9 15 5 8.83 0.32
-10 16 5 1.21 0.55
-9 16 5 14.12 0.76
-8 16 5 1.39 0.3
-7 16 5 2.9 0.32
-6 16 5 0.34 0.28
-5 16 5 -0.07 0.27
-4 16 5 1.09 0.19
-3 16 5 9.36 0.3
-2 16 5 2.67 0.22
-1 16 5 8.12 0.28
0 16 5 9.59 0.35
1 16 5 3.03 0.27
2 16 5 59.76 0.97
3 16 5 0.36 0.25
4 16 5 27.14 0.58
5 16 5 16.28 0.46
6 16 5 0.72 0.39
7 16 5 4.21 0.37
8 16 5 9.77 0.44
-9 17 5 13.31 0.46
-8 17 5 6.44 0.38
-7 17 5 56.9 0.98
-6 17 5 51.8 0.93
-5 17 5 2.31 0.31
-4 17 5 0.66 0.2
-3 17 5 56.66 0.78
-2 17 5 53.65 0.75
-1 17 5 26.9 0.58
0 17 5 5.7 0.3
1 17 5 126.81 1.78
2 17 5 0.66 0.27
3 17 5 19.63 0.5
4 17 5 0.38 0.27
5 17 5 1.42 0.28
6 17 5 27.54 0.82
-8 18 5 0.1 0.56
-7 18 5 17.02 0.51
-6 18 5 23.7 0.58
-5 18 5 0.28 0.28
-4 18 5 2.27 0.3
-3 18 5 0.3 0.21
-2 18 5 1.95 0.23
-1 18 5 5.38 0.31
0 18 5 9.28 0.37
1 18 5 23.62 0.54
2 18 5 117.97 1.67
3 18 5 17.95 0.48
4 18 5 2.54 0.3
5 18 5 8.04 0.36
-6 19 5 0.53 0.29
-5 19 5 2.73 0.32
-4 19 5 0.64 0.28
-3 19 5 0.29 0.21
-2 19 5 0.33 0.21
-1 19 5 1.02 0.25
0 19 5 1.7 0.27
1 19 5 1.82 0.27
2 19 5 0.36 0.26
3 19 5 22.58 0.53
4 19 5 -0.01 0.27
-3 20 5 31.83 0.91
-2 20 5 -0.3 0.23
-1 20 5 10.22 0.54
0 20 5 2.68 0.27
1 20 5 1.35 0.36
-15 0 6 15.47 0.6
-14 0 6 4.5 0.38
-13 0 6 12.39 0.54
-12 0 6 1.23 0.25
-11 0 6 168.98 2.38
-10 0 6 669.58 8.44
-9 0 6 0.66 0.18
-8 0 6 87.64 1.1
-7 0 6 484.44 5.33
-6 0 6 126.44 1.6
-5 0 6 56.04 0.83
-4 0 6 1.54 0.19
-3 0 6 639.39 6.82
-2 0 6 241.86 2.59
-1 0 6 583.11 5.67
0 0 6 43.6 0.44
1 0 6 43.43 0.44
2 0 6 3431.62 27.27
3 0 6 399.46 3.37
4 0 6 82.61 1.11
5 0 6 42.29 0.72
6 0 6 38.65 0.58
7 0 6 2.13 0.21
8 0 6 0.32 0.2
9 0 6 23.66 0.42
10 0 6 2.54 0.24
11 0 6 7.03 0.36
12 0 6 0.84 0.27
13 0 6 0.88 0.27
14 0 6 27.04 0.85
-16 1 6 0.28 0.28
-15 1 6 13.79 0.57
-14 1 6 14.1 0.33
-13 1 6 34.9 0.54
-12 1 6 79.73 0.81
-11 1 6 256.43 2.15
-10 1 6 17.99 0.27
-9 1 6 2.85 0.13
-8 1 6 5.11 0.14
-7 1 6 140.51 1.11
-6 1 6 36.26 0.39
-5 1 6 3.35 0.13
-4 1 6 -0.03 0.1
-3 1 6 266.52 2.01
-2 1 6 92.88 0.74
-1 1 6 0.07 0.13
0 1 6 4.02 0.11
1 1 6 93.96 0.62
2 1 6 419.53 2.74
3 1 6 13.24 0.25
4 1 6 47.13 0.51
5 1 6 59.95 0.6
6 1 6 53.59 0.52
7 1 6 134.1 1.03
8 1 6 5.06 0.18
9 1 6 0.21 0.15
10 1 6 9.5 0.21
11 1 6 56.81 0.68
12 1 6 4.76 0.23
13 1 6 0.89 0.19
14 1 6 25.98 0.57
-16 2 6 0.69 0.2
-15 2 6 9.87 0.34
-14 2 6 2.5 0.24
-13 2 6 0.58 0.18
-12 2 6 9.32 0.22
-11 2 6 2.54 0.15
-10 2 6 2.34 0.14
-9 2 6 1.94 0.12
-8 2 6 19.33 0.26
-7 2 6 24.11 0.32
-6 2 6 0.62 0.11
-5 2 6 48.2 0.47
-4 2 6 50.01 0.49
-3 2 6 2.82 0.13
-2 2 6 46.4 0.44
-1 2 6 46.53 0.4
0 2 6 46.59 0.39
1 2 6 30.39 0.31
2 2 6 22.11 0.29
3 2 6 10.5 0.23
4 2 6 9.3 0.23
5 2 6 20.13 0.34
6 2 6 5.11 0.17
7 2 6 17.21 0.28
8 2 6 6.26 0.21
9 2 6 16.12 0.29
10 2 6 0.5 0.17
11 2 6 0.41 0.21
12 2 6 3.39 0.25
13 2 6 -0.01 0.2
-16 3 6 0.67 0.21
-15 3 6 8.78 0.34
-14 3 6 0.08 0.2
-13 3 6 5.08 0.28
-12 3 6 36.15 0.46
-11 3 6 6.46 0.19
-10 3 6 44.43 0.47
-9 3 6 3.56 0.14
-8 3 6 46.47 0.43
-7 3 6 2.31 0.13
-6 3 6 29.21 0.35
-5 3 6 520.9 3.54
-4 3 6 153.07 1.21
-3 3 6 181.34 1.37
-2 3 6 37.7 0.38
-1 3 6 1.69 0.11
0 3 6 516.86 3.45
1 3 6 5.01 0.15
2 3 6 0.85 0.11
3 3 6 3.23 0.16
4 3 6 243.53 1.9
5 3 6 5.17 0.2
6 3 6 34.56 0.34
7 3 6 36.06 0.35
8 3 6 47.78 0.52
9 3 6 0.1 0.17
10 3 6 0.73 0.17
11 3 6 0.27 0.22
12 3 6 0.63 0.22
13 3 6 11.88 0.33
-15 4 6 13.03 0.4
-14 4 6 24.41 0.54
-13 4 6 149.82 2.05
-12 4 6 7.96 0.25
-11 4 6 -0.29 0.14
-10 4 6 87.41 0.88
-9 4 6 257.22 2.2
-8 4 6 16.5 0.23
-7 4 6 57.02 0.58
-6 4 6 18.63 0.28
-5 4 6 481.4 3.3
-4 4 6 1638.06 10.67
-3 4 6 111.04 0.89
-2 4 6 90.24 0.72
-1 4 6 100.33 0.81
0 4 6 357.49 2.46
1 4 6 1.64 0.12
2 4 6 18.7 0.25
3 4 6 40.27 0.46
4 4 6 68.66 0.69
5 4 6 29.29 0.33
6 4 6 13.41 0.21
7 4 6 2.95 0.14
8 4 6 331.02 2.17
9 4 6 405.2 2.79
10 4 6 2.46 0.2
11 4 6 2.43 0.25
12 4 6 22.83 0.45
13 4 6 0.22 0.2
-15 5 6 3.49 0.26
-14 5 6 -0.05 0.2
-13 5 6 20.05 0.7
-12 5 6 22.25 0.5
-11 5 6 3.35 0.19
-10 5 6 5.55 0.22
-9 5 6 20.25 0.3
-8 5 6 79.9 0.62
-7 5 6 7.92 0.17
-6 5 6 0.28 0.11
-5 5 6 515.97 3.69
-4 5 6 70.24 0.66
-3 5 6 135.98 1.05
-2 5 6 14.55 0.25
-1 5 6 0.32 0.11
0 5 6 336.96 2.34
1 5 6 25.11 0.34
2 5 6 2.6 0.13
3 5 6 3.25 0.17
4 5 6 149.35 1.27
5 5 6 24.88 0.27
6 5 6 19.52 0.25
7 5 6 23.46 0.28
8 5 6 69.79 0.58
9 5 6 1.78 0.16
10 5 6 7.75 0.25
11 5 6 2.45 0.25
12 5 6 1.23 0.22
13 5 6 16.57 0.48
-15 6 6 0.64 0.21
-14 6 6 1.21 0.23
-13 6 6 0.46 0.21
-12 6 6 5.32 0.42
-11 6 6 -0.03 0.14
-10 6 6 0.17 0.15
-9 6 6 0.26 0.13
-8 6 6 2.06 0.13
-7 6 6 0.1 0.11
-6 6 6 5.5 0.17
-5 6 6 0.89 0.13
-4 6 6 0.23 0.13
-3 6 6 0.11 0.11
-2 6 6 1.27 0.13
-1 6 6 6.16 0.18
0 6 6 0.97 0.12
1 6 6 0.1 0.12
2 6 6 1 0.14
3 6 6 2.17 0.15
4 6 6 6.34 0.16
5 6 6 0.14 0.11
6 6 6 0.25 0.11
7 6 6 13.27 0.22
8 6 6 3.47 0.17
9 6 6 2.93 0.17
10 6 6 2.79 0.21
11 6 6 0.47 0.18
12 6 6 1.73 0.23
13 6 6 2.45 0.32
-15 7 6 1.66 0.23
-14 7 6 0.15 0.2
-13 7 6 0.87 0.21
-12 7 6 17.5 0.66
-11 7 6 122.89 1.31
-10 7 6 5.67 0.23
-9 7 6 30.48 0.38
-8 7 6 2.09 0.15
-7 7 6 7.67 0.19
-6 7 6 130.23 0.99
-5 7 6 0.36 0.13
-4 7 6 38.52 0.44
-3 7 6 18.46 0.28
-2 7 6 82.29 0.72
-1 7 6 1.29 0.13
0 7 6 51.76 0.52
1 7 6 134.81 1.23
2 7 6 122.27 1.14
3 7 6 9.64 0.17
4 7 6 2.41 0.12
5 7 6 3.88 0.14
6 7 6 34.1 0.35
7 7 6 25.64 0.3
8 7 6 3.7 0.16
9 7 6 0.32 0.14
10 7 6 23.35 0.39
11 7 6 11.01 0.3
12 7 6 1.64 0.19
13 7 6 0.21 0.25
-15 8 6 33.2 0.65
-14 8 6 17.22 0.46
-13 8 6 8.62 0.48
-12 8 6 4.63 0.42
-11 8 6 221.29 2.76
-10 8 6 353.26 3.31
-9 8 6 3.55 0.17
-8 8 6 -0.05 0.13
-7 8 6 179.72 1.8
-6 8 6 72.96 0.68
-5 8 6 0.64 0.1
-4 8 6 49.64 0.46
-3 8 6 160.47 1.26
-2 8 6 10.7 0.23
-1 8 6 28.23 0.36
0 8 6 0.48 0.13
1 8 6 48.28 0.57
2 8 6 875.38 5.5
3 8 6 414.42 2.89
4 8 6 35.84 0.34
5 8 6 0.09 0.11
6 8 6 92.47 0.72
7 8 6 0.31 0.13
8 8 6 5.48 0.18
9 8 6 0.7 0.18
10 8 6 9.87 0.28
11 8 6 4.22 0.22
12 8 6 6.18 0.27
-14 9 6 1.22 0.21
-13 9 6 -0.27 0.19
-12 9 6 26.99 0.83
-11 9 6 118.13 1.66
-10 9 6 1.56 0.19
-9 9 6 43.96 0.53
-8 9 6 6.29 0.25
-7 9 6 6.75 0.26
-6 9 6 162.51 1.35
-5 9 6 1.09 0.11
-4 9 6 7.82 0.17
-3 9 6 0.18 0.09
-2 9 6 191 1.44
-1 9 6 4.33 0.14
0 9 6 39.08 0.37
1 9 6 246.98 1.64
2 9 6 84.32 0.65
3 9 6 63.31 0.52
4 9 6 0.72 0.13
5 9 6 1.08 0.12
6 9 6 42.07 0.41
7 9 6 18.42 0.27
8 9 6 3.45 0.16
9 9 6 0.35 0.19
10 9 6 20.17 0.37
11 9 6 9.93 0.28
12 9 6 0.27 0.19
-14 10 6 7.19 0.3
-13 10 6 1.56 0.22
-12 10 6 7.45 0.31
-11 10 6 16.83 0.44
-10 10 6 0.42 0.21
-9 10 6 7.17 0.28
-8 10 6 25.96 0.46
-7 10 6 0.98 0.19
-6 10 6 11.67 0.27
-5 10 6 5.95 0.15
-4 10 6 3.08 0.13
-3 10 6 0.21 0.1
-2 10 6 5.69 0.14
-1 10 6 4.73 0.12
0 10 6 0.27 0.09
1 10 6 7.53 0.16
2 10 6 14.99 0.22
3 10 6 15.42 0.23
4 10 6 1.28 0.15
5 10 6 -0.04 0.11
6 10 6 17.85 0.26
7 10 6 -0.08 0.13
8 10 6 -0.17 0.17
9 10 6 1.55 0.2
10 10 6 9.48 0.28
11 10 6 0.82 0.21
12 10 6 2.24 0.33
-13 11 6 16.92 0.44
-12 11 6 3.64 0.25
-11 11 6 11.15 0.53
-10 11 6 3.98 0.31
-9 11 6 26.2 0.48
-8 11 6 2.98 0.23
-7 11 6 24.61 0.44
-6 11 6 9.49 0.23
-5 11 6 72.06 0.6
-4 11 6 23.04 0.28
-3 11 6 1.5 0.12
-2 11 6 4.65 0.15
-1 11 6 0.08 0.1
0 11 6 18.03 0.23
1 11 6 58.27 0.5
2 11 6 5.41 0.15
3 11 6 25.06 0.3
4 11 6 9.59 0.25
5 11 6 12.39 0.21
6 11 6 8.79 0.2
7 11 6 0.06 0.17
8 11 6 50.92 0.63
9 11 6 0.01 0.18
10 11 6 1.19 0.19
11 11 6 7.44 0.29
-13 12 6 63.37 1.46
-12 12 6 33.05 0.94
-11 12 6 17.16 0.65
-10 12 6 27.11 0.62
-9 12 6 40.46 0.77
-8 12 6 4.04 0.25
-7 12 6 49.42 0.69
-6 12 6 0.61 0.15
-5 12 6 57.53 0.52
-4 12 6 784.1 5.05
-3 12 6 39.94 0.4
-2 12 6 57.69 0.51
-1 12 6 116.79 0.88
0 12 6 48.74 0.52
1 12 6 1.37 0.12
2 12 6 -0.06 0.11
3 12 6 63.94 0.55
4 12 6 7.69 0.2
5 12 6 36.59 0.45
6 12 6 2.33 0.17
7 12 6 3.02 0.21
8 12 6 179.76 1.7
9 12 6 106.1 1.1
10 12 6 3.42 0.26
-12 13 6 2.49 0.34
-11 13 6 0.34 0.28
-10 13 6 5.37 0.34
-9 13 6 38.79 0.75
-8 13 6 31.44 0.67
-7 13 6 9.11 0.26
-6 13 6 29.69 0.4
-5 13 6 120.09 0.92
-4 13 6 4.82 0.17
-3 13 6 7.38 0.18
-2 13 6 3.7 0.15
-1 13 6 0.4 0.13
0 13 6 32.88 0.41
1 13 6 45.88 0.51
2 13 6 2.27 0.14
3 13 6 8.32 0.19
4 13 6 15.07 0.25
5 13 6 35.04 0.57
6 13 6 1.07 0.17
7 13 6 2.25 0.19
8 13 6 51.5 0.64
9 13 6 2.5 0.21
10 13 6 12.11 0.34
-11 14 6 1.8 0.32
-10 14 6 2.78 0.29
-9 14 6 0.85 0.26
-8 14 6 0.1 0.25
-7 14 6 3.64 0.24
-6 14 6 5 0.25
-5 14 6 9.09 0.21
-4 14 6 6.84 0.19
-3 14 6 1.15 0.13
-2 14 6 -0.36 0.13
-1 14 6 27.25 0.34
0 14 6 4.1 0.19
1 14 6 2.05 0.16
2 14 6 11.29 0.25
3 14 6 4.02 0.19
4 14 6 1.71 0.18
5 14 6 4.02 0.27
6 14 6 1.69 0.23
7 14 6 3.13 0.2
8 14 6 1.97 0.19
9 14 6 0.07 0.19
-10 15 6 12.6 0.43
-9 15 6 11.73 0.42
-8 15 6 -0.32 0.2
-7 15 6 -0.29 0.2
-6 15 6 37.37 0.6
-5 15 6 0.3 0.16
-4 15 6 20.79 0.36
-3 15 6 3.35 0.19
-2 15 6 17.63 0.3
-1 15 6 1.88 0.17
0 15 6 13.18 0.38
1 15 6 31.73 0.48
2 15 6 20.49 0.41
3 15 6 -0.12 0.19
4 15 6 4.69 0.27
5 15 6 -0.36 0.21
6 15 6 5.78 0.27
7 15 6 3.03 0.2
8 15 6 6.22 0.25
-9 16 6 0.52 0.27
-8 16 6 0.04 0.21
-7 16 6 36.53 0.6
-6 16 6 34.98 0.58
-5 16 6 0.15 0.23
-4 16 6 29.79 0.44
-3 16 6 29.71 0.44
-2 16 6 -0.14 0.17
-1 16 6 3.9 0.23
0 16 6 0.87 0.19
1 16 6 23.18 0.54
2 16 6 218.5 2.85
3 16 6 114.7 1.62
4 16 6 2.65 0.28
5 16 6 0.3 0.4
6 16 6 23.56 0.77
7 16 6 0.24 0.21
-8 17 6 -0.33 0.28
-7 17 6 4.37 0.36
-6 17 6 25.57 0.62
-5 17 6 0.8 0.3
-4 17 6 -0.2 0.19
-3 17 6 4.12 0.25
-2 17 6 40.37 0.62
-1 17 6 2.67 0.27
0 17 6 0.02 0.23
1 17 6 49.94 0.87
2 17 6 16.83 0.47
3 17 6 10.72 0.4
4 17 6 1.54 0.28
5 17 6 -0.17 0.4
6 17 6 8.5 0.52
-7 18 6 -0.01 0.3
-6 18 6 6.06 0.38
-5 18 6 -0.15 0.28
-4 18 6 1.69 0.23
-3 18 6 0.03 0.21
-2 18 6 0.07 0.21
-1 18 6 1.04 0.25
0 18 6 0.35 0.24
1 18 6 6.49 0.34
2 18 6 0.87 0.27
3 18 6 0.22 0.27
4 18 6 0.32 0.29
-5 19 6 10.31 0.42
-4 19 6 14.25 0.6
-3 19 6 -0.26 0.21
-2 19 6 -0.14 0.23
-1 19 6 0.15 0.24
0 19 6 6.12 0.32
1 19 6 2.68 0.28
2 19 6 0.14 0.25
-15 0 7 -0.01 0.31
-14 0 7 0.12 0.32
-13 0 7 -0.04 0.3
-12 0 7 -0.52 0.24
-11 0 7 -0.33 0.23
-10 0 7 -0.05 0.23
-9 0 7 0.03 0.2
-8 0 7 0.06 0.13
-7 0 7 0.28 0.14
-6 0 7 0.09 0.19
-5 0 7 -0.17 0.19
-4 0 7 -0.15 0.18
-3 0 7 0.09 0.19
-2 0 7 -0.11 0.18
-1 0 7 -0.08 0.17
0 0 7 0.14 0.17
1 0 7 0.11 0.14
2 0 7 0.15 0.2
3 0 7 0.13 0.32
4 0 7 0.28 0.33
5 0 7 0.13 0.21
6 0 7 -0.28 0.2
7 0 7 0.12 0.23
8 0 7 0.09 0.21
9 0 7 0.11 0.22
10 0 7 -0.24 0.28
11 0 7 0.15 0.28
12 0 7 0.23 0.26
13 0 7 0.38 0.25
-16 1 7 6.36 0.42
-15 1 7 -0.22 0.22
-14 1 7 0.55 0.23
-13 1 7 1.79 0.25
-12 1 7 2.72 0.21
-11 1 7 112.78 1.2
-10 1 7 100.54 1.08
-9 1 7 8.1 0.23
-8 1 7 25.41 0.27
-7 1 7 3.09 0.13
-6 1 7 29.34 0.41
-5 1 7 38.05 0.47
-4 1 7 2.45 0.15
-3 1 7 171.31 1.45
-2 1 7 144.33 1.24
-1 1 7 0.8 0.13
0 1 7 -0.03 0.09
1 1 7 64.24 0.55
2 1 7 69.76 0.66
3 1 7 5.58 0.21
4 1 7 9.51 0.25
5 1 7 3.86 0.17
6 1 7 2.37 0.17
7 1 7 28.66 0.37
8 1 7 11.38 0.25
9 1 7 11.48 0.26
10 1 7 35.37 0.57
11 1 7 11.82 0.34
12 1 7 0 0.21
13 1 7 0.39 0.19
-15 2 7 0.25 0.31
-14 2 7 0.74 0.23
-13 2 7 11.29 0.38
-12 2 7 96.3 0.94
-11 2 7 16.59 0.29
-10 2 7 0.29 0.13
-9 2 7 20.17 0.3
-8 2 7 9.22 0.17
-7 2 7 1.05 0.11
-6 2 7 246.86 1.83
-5 2 7 85.28 0.75
-4 2 7 8.27 0.19
-3 2 7 42.15 0.43
-2 2 7 20.05 0.27
-1 2 7 8.61 0.18
0 2 7 92.44 0.75
1 2 7 73.8 0.7
2 2 7 133.77 1.11
3 2 7 74.01 0.72
4 2 7 0.97 0.16
5 2 7 1.56 0.14
6 2 7 4.65 0.19
7 2 7 5.36 0.2
8 2 7 56.05 0.58
9 2 7 16.73 0.3
10 2 7 -0.23 0.21
11 2 7 4.65 0.27
12 2 7 -0.01 0.21
13 2 7 0.09 0.19
-15 3 7 18.43 0.46
-14 3 7 4.8 0.28
-13 3 7 3.59 0.21
-12 3 7 17.95 0.3
-11 3 7 2.45 0.15
-10 3 7 13.66 0.25
-9 3 7 20.6 0.25
-8 3 7 25.14 0.26
-7 3 7 2.41 0.11
-6 3 7 1.66 0.13
-5 3 7 143.9 1.14
-4 3 7 49.97 0.5
-3 3 7 9.81 0.2
-2 3 7 2.76 0.14
-1 3 7 78.93 0.78
0 3 7 1.37 0.12
1 3 7 31.72 0.4
2 3 7 44.5 0.51
3 3 7 149.74 1.26
4 3 7 111.97 1.01
5 3 7 0.48 0.11
6 3 7 3.88 0.15
7 3 7 5.35 0.2
8 3 7 1.8 0.18
9 3 7 1.1 0.17
10 3 7 2.79 0.26
11 3 7 0.16 0.22
12 3 7 0.23 0.21
13 3 7 5.21 0.25
-15 4 7 2.3 0.24
-14 4 7 3.84 0.26
-13 4 7 15.99 0.43
-12 4 7 2.36 0.21
-11 4 7 3.48 0.16
-10 4 7 19.23 0.28
-9 4 7 18.26 0.24
-8 4 7 2.68 0.12
-7 4 7 36.46 0.3
-6 4 7 25.73 0.35
-5 4 7 0.46 0.13
-4 4 7 39.73 0.43
-3 4 7 21.72 0.3
-2 4 7 -0.22 0.13
-1 4 7 1.33 0.13
0 4 7 7.1 0.18
1 4 7 14.14 0.27
2 4 7 0.44 0.14
3 4 7 4.45 0.19
4 4 7 3.68 0.14
5 4 7 5.47 0.15
6 4 7 0.05 0.11
7 4 7 1.54 0.13
8 4 7 6.12 0.18
9 4 7 3.46 0.2
10 4 7 2.23 0.26
11 4 7 4.94 0.27
12 4 7 1.16 0.22
13 4 7 0.95 0.2
-15 5 7 3.48 0.27
-14 5 7 17.14 0.46
-13 5 7 0.38 0.21
-12 5 7 2.58 0.24
-11 5 7 38.64 0.56
-10 5 7 20.78 0.3
-9 5 7 73.97 0.6
-8 5 7 -0.19 0.1
-7 5 7 7.55 0.13
-6 5 7 2.25 0.11
-5 5 7 41.86 0.47
-4 5 7 390.53 3.11
-3 5 7 1.65 0.16
-2 5 7 118.59 1.22
-1 5 7 21.78 0.3
0 5 7 81.51 0.72
1 5 7 161.43 1.38
2 5 7 11.46 0.27
3 5 7 15.69 0.26
4 5 7 104.75 0.78
5 5 7 61.9 0.51
6 5 7 24.11 0.28
7 5 7 8.03 0.19
8 5 7 48.77 0.46
9 5 7 4.69 0.18
10 5 7 1.31 0.25
11 5 7 -0.02 0.22
12 5 7 3.24 0.24
-15 6 7 0.97 0.22
-14 6 7 11.42 0.38
-13 6 7 64.04 1.04
-12 6 7 57.44 0.95
-11 6 7 0.27 0.16
-10 6 7 11.99 0.29
-9 6 7 8.67 0.21
-8 6 7 11.44 0.19
-7 6 7 33.05 0.29
-6 6 7 22.7 0.25
-5 6 7 107.91 0.81
-4 6 7 141.5 1.3
-3 6 7 1.51 0.17
-2 6 7 8.99 0.21
-1 6 7 0.48 0.12
0 6 7 3.94 0.17
1 6 7 202.42 1.69
2 6 7 29.11 0.36
3 6 7 0.27 0.13
4 6 7 16.32 0.25
5 6 7 2.15 0.13
6 6 7 0.19 0.12
7 6 7 33.46 0.36
8 6 7 19.15 0.28
9 6 7 37.52 0.51
10 6 7 13.41 0.31
11 6 7 0.28 0.22
12 6 7 1.33 0.22
-15 7 7 7.23 0.42
-14 7 7 5.68 0.29
-13 7 7 2.25 0.24
-12 7 7 25.37 0.56
-11 7 7 2.84 0.2
-10 7 7 73 0.87
-9 7 7 10.97 0.23
-8 7 7 97.03 0.93
-7 7 7 3.12 0.12
-6 7 7 1.43 0.11
-5 7 7 122.37 0.89
-4 7 7 25.61 0.29
-3 7 7 104.2 0.91
-2 7 7 2.15 0.16
-1 7 7 14.16 0.26
0 7 7 0.13 0.13
1 7 7 7.45 0.17
2 7 7 53.47 0.48
3 7 7 2.51 0.15
4 7 7 0.77 0.17
5 7 7 0.44 0.11
6 7 7 16.75 0.25
7 7 7 1.04 0.14
8 7 7 0.43 0.14
9 7 7 -0.07 0.18
10 7 7 44.85 0.58
11 7 7 4.92 0.27
12 7 7 2.99 0.23
-14 8 7 3.62 0.25
-13 8 7 -0.26 0.19
-12 8 7 0.31 0.21
-11 8 7 1.52 0.23
-10 8 7 1.27 0.16
-9 8 7 0.32 0.14
-8 8 7 13.25 0.32
-7 8 7 -0.03 0.13
-6 8 7 28.05 0.33
-5 8 7 11.24 0.19
-4 8 7 0.28 0.09
-3 8 7 14.8 0.19
-2 8 7 54.27 0.42
-1 8 7 0.7 0.1
0 8 7 23.04 0.25
1 8 7 58.88 0.48
2 8 7 7.21 0.17
3 8 7 38.47 0.43
4 8 7 34.16 0.41
5 8 7 0.03 0.11
6 8 7 9.8 0.2
7 8 7 4.36 0.17
8 8 7 2.34 0.2
9 8 7 0.6 0.19
10 8 7 5.19 0.23
11 8 7 0.09 0.17
12 8 7 0.1 0.19
-14 9 7 7.33 0.31
-13 9 7 0.01 0.19
-12 9 7 -0.03 0.19
-11 9 7 187.62 2.5
-10 9 7 66.02 0.78
-9 9 7 43.67 0.63
-8 9 7 2.32 0.21
-7 9 7 2.14 0.21
-6 9 7 71.51 0.69
-5 9 7 18.62 0.28
-4 9 7 0.34 0.1
-3 9 7 56.25 0.42
-2 9 7 123.14 0.8
-1 9 7 0.07 0.09
0 9 7 3.59 0.13
1 9 7 54.96 0.47
2 9 7 84.87 0.66
3 9 7 2.14 0.17
4 9 7 21.82 0.32
5 9 7 0.65 0.17
6 9 7 0.19 0.13
7 9 7 47.41 0.46
8 9 7 9.56 0.31
9 9 7 11.66 0.3
10 9 7 15.02 0.32
11 9 7 16.31 0.38
-13 10 7 5.84 0.3
-12 10 7 37.15 0.7
-11 10 7 13.66 0.58
-10 10 7 14.52 0.45
-9 10 7 28.14 0.49
-8 10 7 3.16 0.23
-7 10 7 1.51 0.21
-6 10 7 139.82 1.22
-5 10 7 25.34 0.34
-4 10 7 0.03 0.1
-3 10 7 2.55 0.13
-2 10 7 12.86 0.19
-1 10 7 0.27 0.09
0 10 7 32.25 0.33
1 10 7 15.36 0.23
2 10 7 100.23 0.77
3 10 7 89.26 0.74
4 10 7 0.11 0.15
5 10 7 0.7 0.16
6 10 7 4.8 0.18
7 10 7 4.35 0.22
8 10 7 19.5 0.36
9 10 7 2.23 0.21
10 10 7 0.52 0.18
11 10 7 2.77 0.2
-13 11 7 3.64 0.36
-12 11 7 0.74 0.3
-11 11 7 4.19 0.38
-10 11 7 6.24 0.35
-9 11 7 16.18 0.47
-8 11 7 0.21 0.2
-7 11 7 0.11 0.19
-6 11 7 11.5 0.25
-5 11 7 11.86 0.25
-4 11 7 8.36 0.19
-3 11 7 12.61 0.22
-2 11 7 3.98 0.14
-1 11 7 14.83 0.21
0 11 7 1.27 0.13
1 11 7 4.87 0.15
2 11 7 6.67 0.17
3 11 7 45.59 0.43
4 11 7 33.23 0.42
5 11 7 0.17 0.17
6 11 7 1.35 0.18
7 11 7 4.75 0.22
8 11 7 0.19 0.18
9 11 7 0.31 0.18
10 11 7 -0.09 0.17
-12 12 7 0.55 0.29
-11 12 7 1.49 0.31
-10 12 7 2.59 0.29
-9 12 7 7.71 0.36
-8 12 7 5.49 0.34
-7 12 7 13.26 0.35
-6 12 7 1.17 0.14
-5 12 7 8.09 0.19
-4 12 7 27.2 0.32
-3 12 7 2.55 0.15
-2 12 7 32.82 0.36
-1 12 7 0.54 0.13
0 12 7 14.39 0.23
1 12 7 1.97 0.13
2 12 7 0.95 0.12
3 12 7 2.82 0.14
4 12 7 14.18 0.28
5 12 7 0.74 0.22
6 12 7 3.49 0.26
7 12 7 7.61 0.25
8 12 7 1.31 0.19
9 12 7 11.69 0.3
10 12 7 0.01 0.18
-12 13 7 24.85 0.78
-11 13 7 1.51 0.32
-10 13 7 4.57 0.32
-9 13 7 7.01 0.36
-8 13 7 30.92 0.66
-7 13 7 0.18 0.26
-6 13 7 5.24 0.2
-5 13 7 129.05 1.11
-4 13 7 129.93 0.99
-3 13 7 16.48 0.26
-2 13 7 15.24 0.25
-1 13 7 0.7 0.15
0 13 7 33.01 0.42
1 13 7 58.99 0.56
2 13 7 0.81 0.13
3 13 7 16.44 0.26
4 13 7 48.99 0.69
5 13 7 22.24 0.45
6 13 7 1.82 0.25
7 13 7 0.61 0.23
8 13 7 31.09 0.46
9 13 7 0.93 0.19
-11 14 7 1.46 0.25
-10 14 7 5.32 0.34
-9 14 7 1.58 0.27
-8 14 7 4.46 0.32
-7 14 7 1.19 0.28
-6 14 7 29.38 0.52
-5 14 7 16.47 0.32
-4 14 7 56.48 0.64
-3 14 7 69.83 0.64
-2 14 7 0.62 0.15
-1 14 7 0.04 0.15
0 14 7 42.49 0.56
1 14 7 12.09 0.27
2 14 7 3.78 0.23
3 14 7 0.33 0.16
4 14 7 4.74 0.27
5 14 7 1.39 0.23
6 14 7 3.15 0.25
7 14 7 0.16 0.21
8 14 7 25.8 0.41
-10 15 7 12.83 0.44
-9 15 7 0.8 0.27
-8 15 7 2.24 0.29
-7 15 7 0.19 0.28
-6 15 7 0.61 0.23
-5 15 7 0.99 0.17
-4 15 7 0.81 0.17
-3 15 7 31.93 0.46
-2 15 7 10.46 0.28
-1 15 7 5.12 0.25
0 15 7 9.22 0.29
1 15 7 7.4 0.28
2 15 7 3.51 0.23
3 15 7 2.51 0.23
4 15 7 0 0.18
5 15 7 5.55 0.28
6 15 7 0.11 0.21
7 15 7 -0.19 0.19
-9 16 7 9.26 0.39
-8 16 7 16.81 0.5
-7 16 7 22.09 0.45
-6 16 7 0.06 0.23
-5 16 7 1.91 0.2
-4 16 7 10.59 0.28
-3 16 7 5.62 0.24
-2 16 7 11.03 0.28
-1 16 7 4.99 0.25
0 16 7 0.44 0.19
1 16 7 7.12 0.28
2 16 7 2.9 0.24
3 16 7 10.07 0.34
4 16 7 2.17 0.26
5 16 7 4 0.38
6 16 7 4.13 0.24
-8 17 7 10.5 0.68
-7 17 7 0.64 0.24
-6 17 7 32.34 0.55
-5 17 7 35.59 0.5
-4 17 7 8.58 0.27
-3 17 7 8.06 0.26
-2 17 7 21.87 0.43
-1 17 7 23.63 0.5
0 17 7 14.76 0.38
1 17 7 11.81 0.4
2 17 7 118.76 1.68
3 17 7 4.35 0.32
4 17 7 16.61 0.46
5 17 7 5.95 0.49
-6 18 7 14.04 0.46
-5 18 7 6.32 0.37
-4 18 7 -0.42 0.19
-3 18 7 13.04 0.35
-2 18 7 1.01 0.24
-1 18 7 1.7 0.25
0 18 7 0.42 0.24
1 18 7 11.8 0.4
2 18 7 37.15 0.71
3 18 7 34.32 0.67
-3 19 7 2.97 0.4
-2 19 7 2.68 0.27
-1 19 7 -0.17 0.23
0 19 7 0.12 0.24
-15 0 8 119.88 2.36
-14 0 8 5.64 0.44
-13 0 8 60.11 1.38
-12 0 8 3.68 0.4
-11 0 8 5.33 0.34
-10 0 8 354.4 4.63
-9 0 8 170.16 2.02
-8 0 8 1.31 0.16
-7 0 8 2.23 0.16
-6 0 8 243.85 2.19
-5 0 8 140.29 1.8
-4 0 8 41.87 0.72
-3 0 8 110.83 1.46
-2 0 8 145.81 1.82
-1 0 8 26.64 0.53
0 0 8 149 1.84
1 0 8 0.19 0.27
2 0 8 40.93 0.91
3 0 8 1268.64 17.36
4 0 8 92.48 1.35
5 0 8 109.06 1.57
6 0 8 77.25 1.21
7 0 8 46.67 0.85
8 0 8 6.14 0.35
9 0 8 0.58 0.34
10 0 8 12.55 0.56
11 0 8 7.42 0.48
12 0 8 12.96 0.56
-15 1 8 0.46 0.24
-14 1 8 1.52 0.25
-13 1 8 12.03 0.39
-12 1 8 4.45 0.3
-11 1 8 79.27 0.93
-10 1 8 292.27 2.75
-9 1 8 34.7 0.4
-8 1 8 27.6 0.29
-7 1 8 49.76 0.42
-6 1 8 142.52 0.97
-5 1 8 47.63 0.56
-4 1 8 52.04 0.59
-3 1 8 11.86 0.26
-2 1 8 78.17 0.78
-1 1 8 129.63 1.16
0 1 8 72.18 0.72
1 1 8 9.63 0.46
2 1 8 261.55 2.9
3 1 8 23.37 0.43
4 1 8 1.28 0.17
5 1 8 0.25 0.16
6 1 8 0.15 0.17
7 1 8 10.3 0.27
8 1 8 30.01 0.47
9 1 8 -0.16 0.24
10 1 8 6.48 0.29
11 1 8 4.58 0.3
12 1 8 6.98 0.32
-15 2 8 3.43 0.27
-14 2 8 3.37 0.28
-13 2 8 0.48 0.24
-12 2 8 12.38 0.4
-11 2 8 8.79 0.28
-10 2 8 0.87 0.19
-9 2 8 9.24 0.21
-8 2 8 13.44 0.2
-7 2 8 0.42 0.1
-6 2 8 2.03 0.11
-5 2 8 24.48 0.38
-4 2 8 7.62 0.23
-3 2 8 0.08 0.14
-2 2 8 9.33 0.25
-1 2 8 33.1 0.5
0 2 8 0.62 0.13
1 2 8 -0.11 0.13
2 2 8 54.49 0.69
3 2 8 6.88 0.25
4 2 8 7.53 0.17
5 2 8 1.88 0.17
6 2 8 12.19 0.25
7 2 8 1.72 0.17
8 2 8 0.58 0.17
9 2 8 6.04 0.29
10 2 8 5.64 0.28
11 2 8 4.2 0.27
12 2 8 0.92 0.21
-15 3 8 12.75 0.57
-14 3 8 0.52 0.34
-13 3 8 1.86 0.25
-12 3 8 15.52 0.44
-11 3 8 0.13 0.19
-10 3 8 1.17 0.18
-9 3 8 15.35 0.26
-8 3 8 26.78 0.28
-7 3 8 0.32 0.1
-6 3 8 2.45 0.11
-5 3 8 28.32 0.27
-4 3 8 266.28 1.94
-3 3 8 58.26 0.57
-2 3 8 65.98 0.73
-1 3 8 1.79 0.15
0 3 8 0.57 0.13
1 3 8 182.22 1.52
2 3 8 1.21 0.2
3 3 8 18.85 0.29
4 3 8 0.21 0.11
5 3 8 71.14 0.57
6 3 8 2.79 0.17
7 3 8 25.53 0.36
8 3 8 45.87 0.52
9 3 8 40.74 0.62
10 3 8 4.02 0.27
11 3 8 0.28 0.22
12 3 8 0.88 0.21
-15 4 8 32.2 0.92
-14 4 8 7.14 0.32
-13 4 8 54.75 0.92
-12 4 8 183.86 1.98
-11 4 8 -0.01 0.13
-10 4 8 15.9 0.27
-9 4 8 91.68 0.72
-8 4 8 192.59 1.19
-7 4 8 49.63 0.38
-6 4 8 58.79 0.43
-5 4 8 32.96 0.32
-4 4 8 506.03 3.78
-3 4 8 938.33 7.12
-2 4 8 7.4 0.23
-1 4 8 6.17 0.21
0 4 8 208.54 1.77
1 4 8 68.77 0.72
2 4 8 -0.14 0.14
3 4 8 22.96 0.3
4 4 8 77.62 0.66
5 4 8 1.44 0.13
6 4 8 19.54 0.27
7 4 8 -0.06 0.13
8 4 8 9.64 0.25
9 4 8 188.27 2.05
10 4 8 98.65 1.19
11 4 8 2.56 0.25
12 4 8 0.44 0.2
-15 5 8 11.05 0.37
-14 5 8 0.16 0.21
-13 5 8 0.38 0.23
-12 5 8 23.72 0.54
-11 5 8 1.33 0.15
-10 5 8 1.39 0.13
-9 5 8 1.66 0.13
-8 5 8 39.23 0.34
-7 5 8 18.34 0.21
-6 5 8 9.5 0.15
-5 5 8 46.55 0.41
-4 5 8 351.68 2.41
-3 5 8 9.65 0.19
-2 5 8 58.95 0.68
-1 5 8 8.75 0.24
0 5 8 2.67 0.14
1 5 8 133.96 1.12
2 5 8 1.38 0.14
3 5 8 4.51 0.18
4 5 8 2.55 0.17
5 5 8 66.09 0.55
6 5 8 4.03 0.15
7 5 8 9.63 0.21
8 5 8 36.97 0.42
9 5 8 34.92 0.58
10 5 8 4.51 0.28
11 5 8 0.68 0.21
12 5 8 1.11 0.21
-15 6 8 0.56 0.34
-14 6 8 0.05 0.21
-13 6 8 1.01 0.23
-12 6 8 0.77 0.23
-11 6 8 2.58 0.25
-10 6 8 0.5 0.13
-9 6 8 0.17 0.12
-8 6 8 -0.08 0.11
-7 6 8 0.73 0.1
-6 6 8 1.5 0.11
-5 6 8 7.3 0.16
-4 6 8 0.21 0.1
-3 6 8 0.26 0.1
-2 6 8 0.52 0.11
-1 6 8 2.87 0.12
0 6 8 1.86 0.11
1 6 8 0.72 0.1
2 6 8 1.58 0.15
3 6 8 0.21 0.15
4 6 8 2.37 0.17
5 6 8 2.29 0.14
6 6 8 -0.03 0.12
7 6 8 1.9 0.15
8 6 8 9.85 0.27
9 6 8 1.07 0.19
10 6 8 3.39 0.26
11 6 8 1.56 0.23
-14 7 8 2.31 0.24
-13 7 8 -0.03 0.21
-12 7 8 0.21 0.21
-11 7 8 69.18 1.09
-10 7 8 97.05 0.89
-9 7 8 0.9 0.15
-8 7 8 12.45 0.25
-7 7 8 0.52 0.11
-6 7 8 12.36 0.2
-5 7 8 36.49 0.36
-4 7 8 2.81 0.13
-3 7 8 22.79 0.28
-2 7 8 14.23 0.21
-1 7 8 18.34 0.21
0 7 8 4.23 0.13
1 7 8 2.9 0.12
2 7 8 131.43 1.03
3 7 8 61.25 0.6
4 7 8 8.61 0.23
5 7 8 1.42 0.17
6 7 8 1.33 0.13
7 7 8 23.65 0.31
8 7 8 6.8 0.25
9 7 8 -0.07 0.17
10 7 8 0.06 0.18
11 7 8 11.96 0.34
-14 8 8 12.94 0.4
-13 8 8 21.7 0.52
-12 8 8 5.92 0.3
-11 8 8 1.53 0.24
-10 8 8 228.75 2.42
-9 8 8 229.47 2.29
-8 8 8 27.87 0.47
-7 8 8 13.02 0.21
-6 8 8 273.05 1.86
-5 8 8 12.13 0.2
-4 8 8 2.01 0.13
-3 8 8 47.11 0.43
-2 8 8 179.84 1.19
-1 8 8 4.46 0.13
0 8 8 40.66 0.38
1 8 8 9.39 0.19
2 8 8 116.18 0.91
3 8 8 519.07 3.84
4 8 8 45.62 0.5
5 8 8 11.94 0.27
6 8 8 9.88 0.22
7 8 8 33.23 0.54
8 8 8 0.14 0.18
9 8 8 4.33 0.23
10 8 8 3.33 0.21
11 8 8 1.42 0.18
-13 9 8 -0.02 0.2
-12 9 8 -0.09 0.2
-11 9 8 111.08 1.59
-10 9 8 62.17 1.01
-9 9 8 2.54 0.23
-8 9 8 4.64 0.25
-7 9 8 0.05 0.12
-6 9 8 11.83 0.24
-5 9 8 40.73 0.4
-4 9 8 0.87 0.11
-3 9 8 10.37 0.19
-2 9 8 9.75 0.17
-1 9 8 47.92 0.43
0 9 8 2.01 0.12
1 9 8 2.09 0.13
2 9 8 152.14 1.16
3 9 8 49.64 0.53
4 9 8 45.51 0.52
5 9 8 0.14 0.17
6 9 8 2.3 0.19
7 9 8 40.41 0.54
8 9 8 4.78 0.23
9 9 8 -0.01 0.18
10 9 8 0.02 0.17
-13 10 8 0.36 0.27
-12 10 8 0.03 0.27
-11 10 8 5.45 0.32
-10 10 8 3.58 0.3
-9 10 8 2.01 0.28
-8 10 8 8.24 0.29
-7 10 8 10.98 0.25
-6 10 8 2.35 0.16
-5 10 8 23.63 0.34
-4 10 8 10.31 0.2
-3 10 8 2.8 0.13
-2 10 8 13.53 0.19
-1 10 8 7.55 0.17
0 10 8 0.26 0.11
1 10 8 20.14 0.27
2 10 8 0.32 0.11
3 10 8 1.44 0.17
4 10 8 0.77 0.17
5 10 8 9.52 0.26
6 10 8 -0.04 0.21
7 10 8 2.31 0.2
8 10 8 3.32 0.22
9 10 8 0.62 0.19
10 10 8 0.19 0.17
-12 11 8 6.96 0.43
-11 11 8 7.45 0.34
-10 11 8 35.04 0.7
-9 11 8 1.82 0.28
-8 11 8 1.05 0.27
-7 11 8 10.74 0.26
-6 11 8 24.31 0.36
-5 11 8 13.59 0.27
-4 11 8 173.18 1.46
-3 11 8 0.42 0.13
-2 11 8 0.88 0.11
-1 11 8 4.76 0.15
0 11 8 15.94 0.24
1 11 8 7.63 0.18
2 11 8 1.5 0.13
3 11 8 -0.01 0.15
4 11 8 24.71 0.39
5 11 8 9.45 0.32
6 11 8 1.68 0.24
7 11 8 -0.38 0.22
8 11 8 5.23 0.23
9 11 8 14.02 0.32
-12 12 8 38.11 1.03
-11 12 8 14.13 0.44
-10 12 8 12.69 0.43
-9 12 8 87.05 1.33
-8 12 8 13.1 0.44
-7 12 8 4.67 0.32
-6 12 8 4.48 0.19
-5 12 8 3.98 0.19
-4 12 8 105.46 0.89
-3 12 8 331.74 2.25
-2 12 8 14.05 0.25
-1 12 8 26.53 0.31
0 12 8 90.92 0.73
1 12 8 62.69 0.56
2 12 8 11.99 0.22
3 12 8 2.84 0.15
4 12 8 20.92 0.43
5 12 8 8.52 0.31
6 12 8 23.83 0.47
7 12 8 -0.06 0.22
8 12 8 2.05 0.25
9 12 8 122.41 1.42
-11 13 8 6.34 0.42
-10 13 8 4.1 0.31
-9 13 8 2.25 0.28
-8 13 8 16.55 0.49
-7 13 8 38.45 0.75
-6 13 8 12.37 0.32
-5 13 8 36.67 0.58
-4 13 8 162.51 1.44
-3 13 8 3.99 0.17
-2 13 8 7.38 0.21
-1 13 8 4.47 0.19
0 13 8 17.59 0.27
1 13 8 14.94 0.25
2 13 8 2.92 0.19
3 13 8 1.29 0.17
4 13 8 15.63 0.38
5 13 8 17.59 0.41
6 13 8 1.02 0.23
7 13 8 0.98 0.24
8 13 8 7.51 0.38
-10 14 8 1.77 0.27
-9 14 8 0.75 0.26
-8 14 8 2.5 0.3
-7 14 8 0.07 0.26
-6 14 8 3.39 0.23
-5 14 8 0.22 0.17
-4 14 8 3.83 0.21
-3 14 8 -0.08 0.18
-2 14 8 3.78 0.22
-1 14 8 0.03 0.19
0 14 8 4.84 0.25
1 14 8 0.19 0.19
2 14 8 2.6 0.19
3 14 8 5.29 0.22
4 14 8 -0.07 0.22
5 14 8 5.37 0.29
6 14 8 2.94 0.25
7 14 8 0.9 0.22
-9 15 8 2.68 0.3
-8 15 8 3.66 0.32
-7 15 8 0.87 0.28
-6 15 8 -0.28 0.18
-5 15 8 8.93 0.27
-4 15 8 0.13 0.18
-3 15 8 22.7 0.39
-2 15 8 1.98 0.22
-1 15 8 0.8 0.19
0 15 8 0.38 0.19
1 15 8 2.49 0.23
2 15 8 27.33 0.5
3 15 8 25.08 0.4
4 15 8 0.28 0.23
5 15 8 1.13 0.23
6 15 8 -0.03 0.21
-8 16 8 2.2 0.3
-7 16 8 3.15 0.32
-6 16 8 65.01 1.07
-5 16 8 9.62 0.27
-4 16 8 0.76 0.18
-3 16 8 25.3 0.41
-2 16 8 33.81 0.56
-1 16 8 2.99 0.23
0 16 8 5.37 0.26
1 16 8 0.15 0.19
2 16 8 45.66 0.68
3 16 8 129.97 1.5
4 16 8 19.95 0.57
5 16 8 0.47 0.21
-7 17 8 0.3 0.51
-6 17 8 4.79 0.27
-5 17 8 10.99 0.28
-4 17 8 0.7 0.19
-3 17 8 -0.03 0.19
-2 17 8 7.28 0.28
-1 17 8 19.05 0.44
0 17 8 1.39 0.26
1 17 8 1.31 0.23
2 17 8 39.1 0.62
3 17 8 6.4 0.31
4 17 8 9.27 0.56
-4 18 8 0.69 0.19
-3 18 8 1.25 0.24
-2 18 8 0.09 0.23
-1 18 8 0.03 0.23
0 18 8 -0.01 0.23
1 18 8 1.99 0.27
-15 0 9 0.17 0.33
-14 0 9 -0.08 0.34
-13 0 9 0.03 0.34
-12 0 9 -0.07 0.34
-11 0 9 -0.13 0.28
-10 0 9 -0.38 0.27
-9 0 9 0 0.17
-8 0 9 -0.15 0.15
-7 0 9 0.03 0.15
-6 0 9 -0.01 0.15
-5 0 9 0.08 0.14
-4 0 9 -0.05 0.13
-3 0 9 0.09 0.15
-2 0 9 0.18 0.21
-1 0 9 0.5 0.19
0 0 9 0.17 0.19
3 0 9 0.63 0.44
4 0 9 0.09 0.22
5 0 9 0.14 0.23
6 0 9 0.1 0.25
7 0 9 0.28 0.25
8 0 9 -0.4 0.33
9 0 9 -0.27 0.34
10 0 9 0.3 0.35
11 0 9 -0.4 0.31
-15 1 9 6.58 0.32
-14 1 9 -0.26 0.24
-13 1 9 0.04 0.24
-12 1 9 7.32 0.35
-11 1 9 16.25 0.38
-10 1 9 115.37 1.24
-9 1 9 57.8 0.5
-8 1 9 34.17 0.34
-7 1 9 18.64 0.24
-6 1 9 1.13 0.11
-5 1 9 29.46 0.3
-4 1 9 10.57 0.17
-3 1 9 28.79 0.29
-2 1 9 64 0.7
-1 1 9 36.67 0.49
0 1 9 0.25 0.17
1 1 9 0.47 0.32
2 1 9 68.85 1.69
3 1 9 35.22 0.66
4 1 9 1.5 0.17
5 1 9 2.68 0.19
6 1 9 1.6 0.18
7 1 9 4.43 0.22
8 1 9 6.02 0.32
9 1 9 0.61 0.25
10 1 9 9.96 0.38
11 1 9 17.76 0.47
-15 2 9 0.31 0.24
-14 2 9 1.35 0.26
-13 2 9 0.85 0.25
-12 2 9 46.87 0.82
-11 2 9 31.88 0.51
-10 2 9 6.35 0.21
-9 2 9 0.91 0.13
-8 2 9 0.15 0.11
-7 2 9 0.12 0.11
-6 2 9 12.94 0.19
-5 2 9 118.95 0.86
-4 2 9 55.84 0.45
-3 2 9 0 0.11
-2 2 9 2.14 0.13
-1 2 9 0.21 0.16
0 2 9 0.34 0.17
1 2 9 66.28 1.03
2 2 9 58.73 0.8
3 2 9 18.89 0.32
4 2 9 18.83 0.4
5 2 9 0.17 0.17
6 2 9 0.27 0.17
7 2 9 11.39 0.3
8 2 9 9.41 0.36
9 2 9 13.8 0.42
10 2 9 6.32 0.32
11 2 9 0.19 0.23
-15 3 9 18.67 0.68
-14 3 9 23.88 0.55
-13 3 9 7.16 0.34
-12 3 9 17.14 0.47
-11 3 9 16.06 0.44
-10 3 9 4.43 0.19
-9 3 9 58.44 0.54
-8 3 9 3.36 0.14
-7 3 9 1.11 0.11
-6 3 9 10.86 0.19
-5 3 9 0.91 0.11
-4 3 9 107.28 0.85
-3 3 9 76.32 0.68
-2 3 9 14.45 0.22
-1 3 9 3.49 0.15
0 3 9 3.81 0.21
1 3 9 17.39 0.38
2 3 9 1.86 0.19
3 3 9 -0.07 0.13
4 3 9 44.82 0.54
5 3 9 57.97 0.59
6 3 9 1.3 0.17
7 3 9 -0.06 0.16
8 3 9 16.59 0.38
9 3 9 -0.09 0.22
10 3 9 0.31 0.22
11 3 9 -0.13 0.21
-14 4 9 0.28 0.36
-13 4 9 2.69 0.28
-12 4 9 3.04 0.29
-11 4 9 1.74 0.27
-10 4 9 9.06 0.23
-9 4 9 4 0.18
-8 4 9 0.27 0.12
-7 4 9 13.92 0.21
-6 4 9 22.72 0.27
-5 4 9 1.15 0.12
-4 4 9 16.61 0.24
-3 4 9 40.07 0.4
-2 4 9 3.17 0.13
-1 4 9 18.6 0.27
0 4 9 22.56 0.32
1 4 9 1.46 0.14
2 4 9 0.83 0.15
3 4 9 10.51 0.23
4 4 9 7 0.21
5 4 9 0.76 0.17
6 4 9 2.7 0.16
7 4 9 3.07 0.19
8 4 9 0.05 0.21
9 4 9 0.38 0.22
10 4 9 0.13 0.23
11 4 9 0.69 0.22
-14 5 9 16.57 0.66
-13 5 9 0.2 0.21
-12 5 9 5.49 0.25
-11 5 9 3.07 0.23
-10 5 9 0.04 0.15
-9 5 9 1.52 0.14
-8 5 9 58.15 0.46
-7 5 9 2.74 0.12
-6 5 9 6.41 0.15
-5 5 9 50.23 0.44
-4 5 9 111.55 0.83
-3 5 9 66.52 0.57
-2 5 9 0.07 0.1
-1 5 9 59.89 0.54
0 5 9 0.16 0.11
1 5 9 5.6 0.19
2 5 9 76.12 0.7
3 5 9 9.61 0.23
4 5 9 54.19 0.56
5 5 9 14.18 0.28
6 5 9 12.23 0.23
7 5 9 0.68 0.16
8 5 9 2.33 0.25
9 5 9 29.38 0.52
10 5 9 1.26 0.24
11 5 9 3.97 0.25
-14 6 9 6.68 0.31
-13 6 9 4.76 0.29
-12 6 9 59.95 0.99
-11 6 9 82.51 1.01
-10 6 9 12.59 0.26
-9 6 9 0.8 0.13
-8 6 9 0.22 0.1
-7 6 9 28.67 0.32
-6 6 9 61.17 0.52
-5 6 9 70.01 0.58
-4 6 9 4.81 0.15
-3 6 9 95.45 0.74
-2 6 9 2.79 0.13
-1 6 9 9.05 0.19
0 6 9 34.2 0.37
1 6 9 18.44 0.27
2 6 9 33.78 0.4
3 6 9 34.41 0.42
4 6 9 5.47 0.21
5 6 9 0.04 0.17
6 6 9 6.01 0.2
7 6 9 0.34 0.19
8 6 9 16.95 0.34
9 6 9 24.97 0.48
10 6 9 2.42 0.25
11 6 9 3.57 0.25
-14 7 9 0.26 0.2
-13 7 9 1 0.23
-12 7 9 0.09 0.21
-11 7 9 26.76 0.47
-10 7 9 35.81 0.56
-9 7 9 10.84 0.23
-8 7 9 1.6 0.13
-7 7 9 31.75 0.34
-6 7 9 1.54 0.12
-5 7 9 8.48 0.18
-4 7 9 38.06 0.39
-3 7 9 8.37 0.18
-2 7 9 136.99 0.99
-1 7 9 1.27 0.13
0 7 9 0.33 0.11
1 7 9 30.69 0.32
2 7 9 1.31 0.17
3 7 9 13.83 0.27
4 7 9 2.01 0.19
5 7 9 11.33 0.27
6 7 9 0.07 0.18
7 7 9 0.71 0.19
8 7 9 6.69 0.25
9 7 9 1.35 0.19
10 7 9 5.67 0.28
-13 8 9 8.62 0.34
-12 8 9 1.45 0.23
-11 8 9 13.87 0.34
-10 8 9 12.28 0.4
-9 8 9 1.86 0.26
-8 8 9 15.82 0.27
-7 8 9 1.3 0.13
-6 8 9 1.68 0.13
-5 8 9 0.13 0.11
-4 8 9 2.3 0.13
-3 8 9 1.58 0.13
-2 8 9 0.32 0.11
-1 8 9 1.78 0.14
0 8 9 0.51 0.11
1 8 9 2.98 0.14
2 8 9 6.6 0.21
3 8 9 -0.03 0.17
4 8 9 15.06 0.29
5 8 9 9 0.25
6 8 9 1.12 0.24
7 8 9 11.84 0.29
8 8 9 0.9 0.19
9 8 9 -0.03 0.17
10 8 9 2.26 0.19
-13 9 9 0.75 0.21
-12 9 9 3.01 0.34
-11 9 9 10.79 0.38
-10 9 9 152 2.09
-9 9 9 40.81 0.76
-8 9 9 70.42 0.88
-7 9 9 2.28 0.15
-6 9 9 1.17 0.13
-5 9 9 78.5 0.65
-4 9 9 2.76 0.14
-3 9 9 15.3 0.23
-2 9 9 12.39 0.21
-1 9 9 64.74 0.55
0 9 9 -0.06 0.11
1 9 9 5.58 0.16
2 9 9 101.94 0.91
3 9 9 47.22 0.53
4 9 9 7.83 0.25
5 9 9 1.21 0.23
6 9 9 0.46 0.24
7 9 9 5.8 0.3
8 9 9 7.39 0.26
9 9 9 1.68 0.19
10 9 9 6.06 0.38
-12 10 9 20.48 0.7
-11 10 9 10.27 0.4
-10 10 9 9.94 0.38
-9 10 9 13.8 0.44
-8 10 9 2.57 0.27
-7 10 9 0.19 0.13
-6 10 9 14.15 0.27
-5 10 9 76.71 0.65
-4 10 9 17.78 0.26
-3 10 9 4.69 0.16
-2 10 9 0.51 0.12
-1 10 9 0.66 0.12
0 10 9 0.35 0.12
1 10 9 23.94 0.3
2 10 9 21.37 0.3
3 10 9 31.04 0.42
4 10 9 31.16 0.53
5 10 9 0.28 0.23
6 10 9 -0.07 0.23
7 10 9 9.85 0.34
8 10 9 4.36 0.28
9 10 9 4.39 0.22
-12 11 9 7.94 0.45
-11 11 9 1.55 0.25
-10 11 9 2.52 0.28
-9 11 9 20.15 0.52
-8 11 9 5.19 0.32
-7 11 9 -0.03 0.17
-6 11 9 4.76 0.21
-5 11 9 8.32 0.23
-4 11 9 11.44 0.23
-3 11 9 12.2 0.23
-2 11 9 0.55 0.12
-1 11 9 4 0.15
0 11 9 2.17 0.14
1 11 9 -0.18 0.11
2 11 9 1.25 0.14
3 11 9 0.12 0.23
4 11 9 29.68 0.52
5 11 9 13.61 0.37
6 11 9 0.24 0.23
7 11 9 1.68 0.25
8 11 9 4.66 0.28
-11 12 9 1.44 0.3
-10 12 9 0.36 0.24
-9 12 9 1.1 0.27
-8 12 9 10.39 0.4
-7 12 9 0.28 0.17
-6 12 9 11.73 0.32
-5 12 9 5.77 0.26
-4 12 9 2.24 0.21
-3 12 9 22.15 0.36
-2 12 9 0.73 0.13
-1 12 9 15.18 0.25
0 12 9 6.07 0.17
1 12 9 4.53 0.2
2 12 9 0.78 0.17
3 12 9 1.76 0.24
4 12 9 0.18 0.23
5 12 9 7.4 0.3
6 12 9 0.1 0.23
7 12 9 0.03 0.23
8 12 9 4.1 0.27
-10 13 9 0.17 0.24
-9 13 9 5.05 0.32
-8 13 9 4.96 0.33
-7 13 9 13.43 0.34
-6 13 9 -0.09 0.18
-5 13 9 0.43 0.19
-4 13 9 152.86 1.71
-3 13 9 57.42 0.68
-2 13 9 32.54 0.54
-1 13 9 4 0.21
0 13 9 0.17 0.16
1 13 9 33.15 0.46
2 13 9 14.49 0.3
3 13 9 1.15 0.23
4 13 9 9.11 0.32
5 13 9 27.91 0.52
6 13 9 3.96 0.27
7 13 9 2.17 0.25
-9 14 9 4.61 0.32
-8 14 9 6.89 0.36
-7 14 9 0.17 0.27
-6 14 9 6.13 0.27
-5 14 9 11.59 0.33
-4 14 9 19.92 0.42
-3 14 9 31.55 0.46
-2 14 9 17.02 0.38
-1 14 9 -0.32 0.19
0 14 9 1.29 0.21
1 14 9 30.56 0.44
2 14 9 10.92 0.28
3 14 9 0.5 0.23
4 14 9 0.15 0.23
5 14 9 0.78 0.23
6 14 9 0.48 0.22
-8 15 9 0.48 0.27
-7 15 9 4.51 0.33
-6 15 9 3.07 0.23
-5 15 9 0.32 0.19
-4 15 9 0.94 0.18
-3 15 9 7.28 0.25
-2 15 9 11.48 0.33
-1 15 9 2.76 0.23
0 15 9 0 0.19
1 15 9 2.81 0.24
2 15 9 5.45 0.23
3 15 9 0.35 0.22
4 15 9 0.28 0.23
5 15 9 0.52 0.22
-7 16 9 9.53 0.4
-6 16 9 23.59 0.57
-5 16 9 0.33 0.19
-4 16 9 4.43 0.22
-3 16 9 10.03 0.31
-2 16 9 6.62 0.32
-1 16 9 12.32 0.34
0 16 9 12.72 0.34
1 16 9 1.66 0.23
2 16 9 9.74 0.43
3 16 9 11.39 0.47
4 16 9 1.24 0.43
-5 17 9 13.36 0.4
-4 17 9 6.77 0.27
-3 17 9 2.02 0.26
-2 17 9 15.98 0.37
-1 17 9 11.41 0.35
0 17 9 0.82 0.21
1 17 9 0.42 0.21
2 17 9 20.13 0.73
-14 0 10 75.76 1.66
-13 0 10 3.37 0.43
-12 0 10 96.14 1.99
-11 0 10 12.47 0.6
-10 0 10 0.44 0.22
-9 0 10 455.21 5
-8 0 10 33.87 0.5
-7 0 10 20.98 0.37
-6 0 10 138.14 1.42
-5 0 10 125.53 1.29
-4 0 10 15.63 0.3
-3 0 10 6.31 0.21
-2 0 10 201.88 1.95
-1 0 10 48.48 0.59
5 0 10 15.83 0.45
6 0 10 20.24 0.52
7 0 10 30.46 0.85
8 0 10 32.54 0.91
9 0 10 4.74 0.42
10 0 10 1.22 0.34
11 0 10 2.09 0.34
-14 1 10 6.75 0.34
-13 1 10 0.75 0.27
-12 1 10 0.01 0.27
-11 1 10 15.94 0.47
-10 1 10 94.37 0.83
-9 1 10 100.82 0.79
-8 1 10 8.97 0.19
-7 1 10 29.01 0.32
-6 1 10 20.23 0.25
-5 1 10 26.22 0.29
-4 1 10 44.05 0.4
-3 1 10 40.83 0.38
-2 1 10 -0.11 0.11
-1 1 10 5.11 0.15
0 1 10 76.3 1.18
1 1 10 30.07 1.01
4 1 10 0.78 0.25
5 1 10 8.67 0.28
6 1 10 8.5 0.26
7 1 10 4.37 0.28
8 1 10 8.03 0.34
9 1 10 0.76 0.25
10 1 10 1.62 0.25
11 1 10 3.45 0.34
-14 2 10 -0.07 0.25
-13 2 10 0.74 0.27
-12 2 10 3.38 0.3
-11 2 10 6.12 0.34
-10 2 10 0.71 0.16
-9 2 10 11.15 0.21
-8 2 10 8.15 0.18
-7 2 10 0.25 0.12
-6 2 10 12.67 0.21
-5 2 10 6.43 0.16
-4 2 10 7.68 0.17
-3 2 10 6.68 0.17
-2 2 10 13.96 0.23
-1 2 10 1.91 0.13
0 2 10 0.54 0.19
1 2 10 12.71 0.4
2 2 10 -0.05 0.21
4 2 10 0.69 0.27
5 2 10 15.39 0.46
6 2 10 0.46 0.17
7 2 10 0.24 0.23
8 2 10 9.6 0.36
9 2 10 0.38 0.24
10 2 10 0.02 0.23
-14 3 10 33.11 0.67
-13 3 10 1.31 0.27
-12 3 10 0.09 0.26
-11 3 10 25.51 0.58
-10 3 10 6.9 0.23
-9 3 10 3.39 0.15
-8 3 10 0.59 0.13
-7 3 10 40.25 0.39
-6 3 10 0.36 0.11
-5 3 10 8.48 0.17
-4 3 10 155 1.28
-3 3 10 140.37 1.17
-2 3 10 0.09 0.12
-1 3 10 3.77 0.17
0 3 10 0.15 0.13
1 3 10 1.76 0.25
2 3 10 20.19 0.5
3 3 10 2.64 0.19
4 3 10 7.59 0.35
5 3 10 5.5 0.34
6 3 10 8.56 0.29
7 3 10 0.11 0.23
8 3 10 1.41 0.25
9 3 10 22.8 0.53
10 3 10 18.69 0.48
-14 4 10 6.14 0.32
-13 4 10 0.48 0.26
-12 4 10 79.1 1.21
-11 4 10 100.18 1.44
-10 4 10 0.08 0.2
-9 4 10 55.48 0.5
-8 4 10 97.81 0.77
-7 4 10 40.38 0.4
-6 4 10 43.95 0.42
-5 4 10 16.75 0.27
-4 4 10 6.12 0.19
-3 4 10 330.75 2.55
-2 4 10 387.39 2.96
-1 4 10 30.8 0.45
0 4 10 1.18 0.16
1 4 10 209.47 2.84
2 4 10 9.23 0.36
3 4 10 2.63 0.19
4 4 10 11.35 0.28
5 4 10 54.12 0.76
6 4 10 1.49 0.34
7 4 10 15.62 0.38
8 4 10 1.97 0.23
9 4 10 18.3 0.42
10 4 10 85.87 1.28
-14 5 10 15.83 0.64
-13 5 10 0.8 0.26
-12 5 10 0.2 0.25
-11 5 10 20.48 0.41
-10 5 10 1.11 0.21
-9 5 10 0.58 0.15
-8 5 10 0.21 0.13
-7 5 10 42.13 0.48
-6 5 10 2.96 0.16
-5 5 10 4.92 0.17
-4 5 10 128.05 1.03
-3 5 10 173.24 1.33
-2 5 10 1.55 0.13
-1 5 10 9.9 0.24
0 5 10 3.18 0.15
1 5 10 6.37 0.24
2 5 10 28.83 0.42
3 5 10 0.05 0.16
4 5 10 1.64 0.18
5 5 10 5.47 0.21
6 5 10 17.85 0.4
7 5 10 0.01 0.21
8 5 10 0.75 0.23
9 5 10 25.96 0.49
10 5 10 12.47 0.35
-13 6 10 -0.09 0.33
-12 6 10 1.06 0.36
-11 6 10 0.87 0.17
-10 6 10 -0.17 0.16
-9 6 10 0.97 0.15
-8 6 10 0.36 0.13
-7 6 10 0.08 0.11
-6 6 10 0.05 0.11
-5 6 10 3.45 0.15
-4 6 10 7.32 0.17
-3 6 10 -0.01 0.11
-2 6 10 0.46 0.11
-1 6 10 0.46 0.14
0 6 10 2.18 0.15
1 6 10 0.95 0.19
2 6 10 1.19 0.17
3 6 10 2.91 0.19
4 6 10 -0.2 0.17
5 6 10 2.46 0.19
6 6 10 0.4 0.24
7 6 10 -0.18 0.24
8 6 10 2.9 0.26
9 6 10 4.81 0.27
10 6 10 0.33 0.21
-13 7 10 1.7 0.22
-12 7 10 0.22 0.2
-11 7 10 0.83 0.19
-10 7 10 104.96 1.23
-9 7 10 59.13 0.79
-8 7 10 13.35 0.23
-7 7 10 1.92 0.13
-6 7 10 1.24 0.13
-5 7 10 15.16 0.23
-4 7 10 2.44 0.14
-3 7 10 4.19 0.15
-2 7 10 3.25 0.14
-1 7 10 13.86 0.25
0 7 10 2.58 0.15
1 7 10 6.22 0.2
2 7 10 7.97 0.23
3 7 10 85.16 0.8
4 7 10 13.76 0.3
5 7 10 2.83 0.25
6 7 10 0.6 0.25
7 7 10 0.17 0.25
8 7 10 7.01 0.3
9 7 10 2.06 0.23
-13 8 10 -0.11 0.2
-12 8 10 15.71 0.6
-11 8 10 0.08 0.21
-10 8 10 2.69 0.27
-9 8 10 172.57 1.88
-8 8 10 82.39 0.91
-7 8 10 11.77 0.22
-6 8 10 32.65 0.36
-5 8 10 202.75 1.45
-4 8 10 1.91 0.14
-3 8 10 22.9 0.29
-2 8 10 40.64 0.42
-1 8 10 72.53 0.7
0 8 10 9.91 0.23
1 8 10 26.21 0.31
2 8 10 6.08 0.21
3 8 10 95.2 0.95
4 8 10 236.06 2.49
5 8 10 0.11 0.23
6 8 10 2.13 0.26
7 8 10 23.89 0.48
8 8 10 7.85 0.32
9 8 10 0.09 0.17
-12 9 10 -0.27 0.25
-11 9 10 0.32 0.22
-10 9 10 149.11 2.05
-9 9 10 34.93 0.69
-8 9 10 23.45 0.44
-7 9 10 1.31 0.16
-6 9 10 0.19 0.12
-5 9 10 28.53 0.35
-4 9 10 0.79 0.13
-3 9 10 0.66 0.13
-2 9 10 0.17 0.13
-1 9 10 33.06 0.41
0 9 10 8.31 0.19
1 9 10 0.35 0.13
2 9 10 15.06 0.3
3 9 10 67.54 0.96
4 9 10 9.44 0.33
5 9 10 9.94 0.34
6 9 10 0.03 0.23
7 9 10 0.17 0.25
8 9 10 12.1 0.36
9 9 10 2.78 0.34
-12 10 10 3.66 0.35
-11 10 10 1.41 0.24
-10 10 10 0.66 0.25
-9 10 10 0.25 0.25
-8 10 10 1.94 0.21
-7 10 10 -0.4 0.17
-6 10 10 -0.05 0.15
-5 10 10 3.33 0.16
-4 10 10 2.23 0.15
-3 10 10 0.79 0.13
-2 10 10 7.51 0.21
-1 10 10 7.14 0.21
0 10 10 -0.24 0.12
1 10 10 0.87 0.13
2 10 10 22.09 0.44
3 10 10 2.13 0.25
4 10 10 2.63 0.26
5 10 10 0.05 0.23
6 10 10 2.82 0.27
7 10 10 1.85 0.25
8 10 10 -0.19 0.22
-11 11 10 0.44 0.23
-10 11 10 3.31 0.28
-9 11 10 13.79 0.43
-8 11 10 5.59 0.25
-7 11 10 1.94 0.2
-6 11 10 2.84 0.23
-5 11 10 0.24 0.17
-4 11 10 13 0.29
-3 11 10 127.96 1.17
-2 11 10 0.21 0.16
-1 11 10 11.18 0.27
0 11 10 11.02 0.27
1 11 10 6.26 0.23
2 11 10 9.66 0.32
3 11 10 3 0.27
4 11 10 0.42 0.23
5 11 10 4.21 0.28
6 11 10 8.99 0.34
7 11 10 5.12 0.28
-10 12 10 0.73 0.24
-9 12 10 7.9 0.36
-8 12 10 83.84 1.29
-7 12 10 9.2 0.3
-6 12 10 36.71 0.58
-5 12 10 1.25 0.2
-4 12 10 1.22 0.21
-3 12 10 168.4 1.6
-2 12 10 86.73 1.06
-1 12 10 0.19 0.16
0 12 10 0.36 0.16
1 12 10 38.69 0.52
2 12 10 27.75 0.42
3 12 10 4.94 0.28
4 12 10 18.14 0.41
5 12 10 4.92 0.28
6 12 10 0.61 0.23
7 12 10 3.31 0.27
-10 13 10 4.47 0.38
-9 13 10 0.08 0.24
-8 13 10 1.89 0.28
-7 13 10 5.66 0.25
-6 13 10 13.64 0.34
-5 13 10 0.41 0.19
-4 13 10 28.46 0.5
-3 13 10 107.11 1.27
-2 13 10 2.44 0.21
-1 13 10 12.21 0.28
0 13 10 9.9 0.27
1 13 10 10.74 0.27
2 13 10 15.51 0.32
3 13 10 0.78 0.23
4 13 10 0.66 0.23
5 13 10 4.77 0.28
6 13 10 15.83 0.38
-9 14 10 9.23 0.48
-8 14 10 1.96 0.27
-7 14 10 0.24 0.17
-6 14 10 2.79 0.22
-5 14 10 11.72 0.32
-4 14 10 1.49 0.21
-3 14 10 0.32 0.23
-2 14 10 1.8 0.19
-1 14 10 3.78 0.24
0 14 10 2.24 0.19
1 14 10 0.44 0.17
2 14 10 1.32 0.19
3 14 10 -0.05 0.21
4 14 10 -0.28 0.23
5 14 10 -0.12 0.27
-7 15 10 0.6 0.26
-6 15 10 0.21 0.19
-5 15 10 1 0.2
-4 15 10 0.2 0.19
-3 15 10 0.25 0.23
-2 15 10 5.49 0.26
-1 15 10 3.59 0.24
0 15 10 1.44 0.22
1 15 10 0.53 0.21
2 15 10 2.51 0.19
3 15 10 15.1 0.38
-5 16 10 57.45 1.37
-4 16 10 2.31 0.25
-3 16 10 9.87 0.49
-2 16 10 17.67 0.48
-1 16 10 15.42 0.37
0 16 10 2.83 0.24
1 16 10 4.38 0.26
-14 0 11 -0.26 0.36
-13 0 11 0.11 0.38
-12 0 11 0.13 0.38
-11 0 11 0.32 0.4
-10 0 11 0.17 0.25
-9 0 11 0.03 0.19
-8 0 11 0.18 0.18
-7 0 11 -0.35 0.17
-6 0 11 -0.06 0.16
-5 0 11 -0.05 0.17
-4 0 11 -0.06 0.16
-3 0 11 -0.23 0.15
-2 0 11 -0.03 0.15
-1 0 11 0.19 0.17
6 0 11 0.09 0.31
7 0 11 0.05 0.32
8 0 11 0.09 0.32
9 0 11 0.3 0.32
-14 1 11 1.73 0.28
-13 1 11 0.09 0.27
-12 1 11 0.44 0.28
-11 1 11 10.13 0.41
-10 1 11 42.17 0.54
-9 1 11 73.37 0.66
-8 1 11 9.72 0.2
-7 1 11 29.97 0.34
-6 1 11 7.85 0.18
-5 1 11 2.54 0.14
-4 1 11 11.47 0.2
-3 1 11 2.84 0.13
-2 1 11 34.05 0.39
-1 1 11 27.67 0.42
0 1 11 4.67 0.29
5 1 11 4.43 0.38
6 1 11 1.45 0.34
7 1 11 0.6 0.24
8 1 11 3.76 0.28
9 1 11 1.04 0.23
-14 2 11 4.31 0.45
-13 2 11 0.65 0.28
-12 2 11 1.63 0.3
-11 2 11 72.07 0.91
-10 2 11 5.43 0.22
-9 2 11 0.33 0.16
-8 2 11 6.28 0.18
-7 2 11 1.5 0.13
-6 2 11 0.99 0.13
-5 2 11 53.21 0.48
-4 2 11 32.17 0.39
-3 2 11 11.6 0.23
-2 2 11 0.3 0.13
-1 2 11 2.09 0.17
0 2 11 1.42 0.25
1 2 11 6.12 0.32
5 2 11 0.75 0.32
6 2 11 0.01 0.33
7 2 11 0.09 0.23
8 2 11 4.51 0.28
9 2 11 8.32 0.33
-13 3 11 9.48 0.39
-12 3 11 2.24 0.3
-11 3 11 7.45 0.28
-10 3 11 1.76 0.19
-9 3 11 3.6 0.2
-8 3 11 41.6 0.42
-7 3 11 6.21 0.17
-6 3 11 3.04 0.15
-5 3 11 21.73 0.32
-4 3 11 19.77 0.3
-3 3 11 34.37 0.41
-2 3 11 41.56 0.47
-1 3 11 13.92 0.3
0 3 11 11.29 0.4
1 3 11 2.23 0.27
2 3 11 10.09 0.38
4 3 11 11.94 0.54
5 3 11 13.7 0.57
6 3 11 11.07 0.54
7 3 11 0.14 0.36
8 3 11 0.25 0.22
9 3 11 9.02 0.34
-13 4 11 -0.31 0.25
-12 4 11 2.07 0.28
-11 4 11 1.63 0.22
-10 4 11 1.81 0.22
-9 4 11 0.01 0.17
-8 4 11 3.18 0.15
-7 4 11 1.5 0.14
-6 4 11 1.08 0.14
-5 4 11 0.05 0.14
-4 4 11 1.82 0.15
-3 4 11 6.04 0.19
-2 4 11 2.92 0.16
-1 4 11 1.38 0.17
0 4 11 12.58 0.42
1 4 11 6.11 0.33
2 4 11 2.47 0.28
3 4 11 4.94 0.3
4 4 11 3.12 0.26
5 4 11 0.23 0.37
6 4 11 5.01 0.46
7 4 11 2.08 0.4
8 4 11 0.23 0.23
9 4 11 1.9 0.25
-13 5 11 35.32 0.68
-12 5 11 8.54 0.36
-11 5 11 0.57 0.21
-10 5 11 16.22 0.37
-9 5 11 10.32 0.26
-8 5 11 1.33 0.17
-7 5 11 6.29 0.21
-6 5 11 18.73 0.3
-5 5 11 5.08 0.19
-4 5 11 38.95 0.45
-3 5 11 175.32 1.44
-2 5 11 1.47 0.15
-1 5 11 7.05 0.24
0 5 11 2.68 0.21
1 5 11 5.98 0.34
2 5 11 1.44 0.27
3 5 11 5.73 0.25
4 5 11 1.06 0.19
5 5 11 38.66 0.7
6 5 11 5.99 0.49
7 5 11 0.58 0.38
8 5 11 1.78 0.4
9 5 11 3.82 0.28
-13 6 11 2.27 0.4
-12 6 11 4.35 0.3
-11 6 11 26.6 0.47
-10 6 11 35.49 0.56
-9 6 11 7.65 0.27
-8 6 11 7.42 0.27
-7 6 11 4.47 0.19
-6 6 11 2.05 0.16
-5 6 11 19.5 0.31
-4 6 11 71.21 0.7
-3 6 11 0.35 0.15
-2 6 11 13.11 0.27
-1 6 11 12.35 0.26
0 6 11 8.61 0.23
1 6 11 19.2 0.42
2 6 11 40.26 0.59
3 6 11 1.46 0.19
4 6 11 6.12 0.28
5 6 11 0.21 0.23
6 6 11 2.32 0.27
7 6 11 6.85 0.44
8 6 11 1.11 0.33
9 6 11 2.72 0.4
-12 7 11 8.47 0.5
-11 7 11 6.12 0.32
-10 7 11 6.98 0.34
-9 7 11 61.91 0.81
-8 7 11 1.72 0.18
-7 7 11 10.99 0.27
-6 7 11 0.27 0.13
-5 7 11 1.23 0.13
-4 7 11 -0.09 0.12
-3 7 11 0.09 0.12
-2 7 11 3.13 0.17
-1 7 11 48.93 0.6
0 7 11 1.13 0.15
1 7 11 1.7 0.21
2 7 11 29.52 0.5
3 7 11 7.6 0.3
4 7 11 -0.05 0.23
5 7 11 2.66 0.26
6 7 11 3.66 0.28
7 7 11 1.58 0.25
8 7 11 -0.44 0.31
-12 8 11 2.15 0.32
-11 8 11 4.76 0.29
-10 8 11 14.63 0.35
-9 8 11 3.98 0.21
-8 8 11 7.79 0.24
-7 8 11 27.7 0.41
-6 8 11 2.35 0.19
-5 8 11 13.38 0.24
-4 8 11 7.05 0.19
-3 8 11 3.57 0.15
-2 8 11 0.35 0.14
-1 8 11 14.02 0.27
0 8 11 1.09 0.15
1 8 11 0.49 0.2
2 8 11 3.23 0.25
3 8 11 0.39 0.24
4 8 11 0.34 0.24
5 8 11 -0.37 0.23
6 8 11 -0.05 0.25
7 8 11 -0.07 0.23
8 8 11 2.13 0.24
-11 9 11 3.13 0.27
-10 9 11 54.05 0.91
-9 9 11 77.79 1.21
-8 9 11 3.55 0.2
-7 9 11 34.26 0.48
-6 9 11 3.67 0.2
-5 9 11 1.68 0.18
-4 9 11 25.2 0.39
-3 9 11 2.21 0.16
-2 9 11 23.17 0.35
-1 9 11 7.51 0.24
0 9 11 10.48 0.3
1 9 11 0.76 0.27
2 9 11 -0.19 0.22
3 9 11 60.46 0.82
4 9 11 24.01 0.48
5 9 11 13.23 0.38
6 9 11 0.39 0.25
7 9 11 -0.01 0.23
-11 10 11 29.32 0.61
-10 10 11 1.32 0.26
-9 10 11 1.86 0.28
-8 10 11 17.2 0.38
-7 10 11 -0.03 0.16
-6 10 11 1.57 0.18
-5 10 11 38.99 0.51
-4 10 11 21.62 0.36
-3 10 11 2.89 0.19
-2 10 11 2.53 0.21
-1 10 11 5.36 0.25
0 10 11 0.86 0.19
1 10 11 3.37 0.2
2 10 11 6.71 0.3
3 10 11 17.3 0.41
4 10 11 10.58 0.35
5 10 11 3.78 0.28
6 10 11 0.05 0.23
7 10 11 0 0.22
-10 11 11 1.02 0.25
-9 11 11 0.49 0.25
-8 11 11 18.99 0.4
-7 11 11 2.58 0.21
-6 11 11 0.82 0.19
-5 11 11 10.85 0.27
-4 11 11 9.09 0.25
-3 11 11 5.11 0.25
-2 11 11 9.06 0.29
-1 11 11 0.89 0.19
0 11 11 4.45 0.24
1 11 11 -0.19 0.16
2 11 11 0.09 0.23
3 11 11 0.71 0.23
4 11 11 4.74 0.28
5 11 11 11.48 0.36
6 11 11 2.33 0.25
-9 12 11 0.13 0.25
-8 12 11 -0.03 0.17
-7 12 11 6.72 0.27
-6 12 11 0.74 0.19
-5 12 11 4.54 0.25
-4 12 11 6.79 0.23
-3 12 11 0.03 0.19
-2 12 11 10.3 0.31
-1 12 11 3.54 0.23
0 12 11 3.73 0.21
1 12 11 7.88 0.25
2 12 11 1.07 0.24
3 12 11 0.17 0.22
4 12 11 1.66 0.25
5 12 11 1.13 0.23
-8 13 11 2.17 0.27
-7 13 11 5.02 0.24
-6 13 11 4.33 0.23
-5 13 11 -0.07 0.18
-4 13 11 14.15 0.34
-3 13 11 100.82 1.2
-2 13 11 11.07 0.32
-1 13 11 23.92 0.46
0 13 11 0.9 0.18
1 13 11 -0.25 0.17
2 13 11 15.81 0.38
3 13 11 2.98 0.25
4 13 11 3 0.25
-7 14 11 5.8 0.24
-6 14 11 0.54 0.18
-5 14 11 12.19 0.32
-4 14 11 2.07 0.21
-3 14 11 9.8 0.38
-2 14 11 21.97 0.55
-1 14 11 1.45 0.2
0 14 11 0.04 0.17
1 14 11 6 0.23
2 14 11 10.35 0.33
3 14 11 5.02 0.27
-5 15 11 5.49 0.25
-4 15 11 -0.03 0.22
-3 15 11 2.07 0.24
-2 15 11 15.53 0.45
-1 15 11 6.11 0.27
0 15 11 -0.22 0.19
1 15 11 2 0.23
-13 0 12 15.45 0.65
-12 0 12 0.05 0.38
-11 0 12 30.19 0.62
-10 0 12 5.04 0.32
-9 0 12 0.19 0.26
-8 0 12 270.6 3.43
-7 0 12 17.38 0.36
-6 0 12 22.36 0.41
-5 0 12 174.67 1.78
-4 0 12 89.25 1.01
-3 0 12 8.66 0.26
-2 0 12 3.98 0.26
8 0 12 10.82 0.51
-13 1 12 2.86 0.31
-12 1 12 10.94 0.42
-11 1 12 5.73 0.27
-10 1 12 37.12 0.5
-9 1 12 142.27 1.37
-8 1 12 4.99 0.22
-7 1 12 3.64 0.16
-6 1 12 0.59 0.13
-5 1 12 -0.02 0.13
-4 1 12 0.83 0.13
-3 1 12 7.25 0.19
-2 1 12 1.35 0.13
-1 1 12 5.57 0.41
7 1 12 4.87 0.4
8 1 12 1.15 0.22
-13 2 12 2.47 0.3
-12 2 12 3.55 0.32
-11 2 12 -0.24 0.21
-10 2 12 -0.05 0.17
-9 2 12 5.96 0.23
-8 2 12 3.07 0.2
-7 2 12 -0.11 0.14
-6 2 12 3.12 0.15
-5 2 12 10.39 0.23
-4 2 12 0.51 0.14
-3 2 12 -0.26 0.12
-2 2 12 11.96 0.23
-1 2 12 3.7 0.21
0 2 12 3 0.29
6 2 12 3.68 0.39
7 2 12 1.36 0.36
8 2 12 0.03 0.32
-13 3 12 16.75 0.46
-12 3 12 0.38 0.27
-11 3 12 4.39 0.25
-10 3 12 12.1 0.28
-9 3 12 1.58 0.18
-8 3 12 6.08 0.23
-7 3 12 3.46 0.2
-6 3 12 15.69 0.28
-5 3 12 1.43 0.15
-4 3 12 3.54 0.17
-3 3 12 141.4 1.21
-2 3 12 81.62 0.82
-1 3 12 13.91 0.34
0 3 12 0.16 0.26
1 3 12 1.92 0.28
2 3 12 9.51 0.48
6 3 12 8.4 0.5
7 3 12 1.6 0.38
8 3 12 0.84 0.36
-12 4 12 11.14 0.4
-11 4 12 96.27 1.15
-10 4 12 22.14 0.37
-9 4 12 2.72 0.19
-8 4 12 55.85 0.76
-7 4 12 90.56 1.09
-6 4 12 0.03 0.14
-5 4 12 29.65 0.39
-4 4 12 0.75 0.14
-3 4 12 1.97 0.16
-2 4 12 180.51 1.83
-1 4 12 88.66 1.01
0 4 12 9.24 0.4
1 4 12 8.39 0.38
2 4 12 89.74 1.82
3 4 12 1.68 0.33
5 4 12 9.28 0.51
6 4 12 16.38 0.64
7 4 12 1.72 0.4
8 4 12 6.55 0.46
-12 5 12 1.67 0.27
-11 5 12 0.15 0.2
-10 5 12 8.34 0.25
-9 5 12 0.7 0.2
-8 5 12 -0.48 0.19
-7 5 12 -0.15 0.19
-6 5 12 24.43 0.44
-5 5 12 0.89 0.15
-4 5 12 0.34 0.15
-3 5 12 127.62 1.13
-2 5 12 69.47 0.85
-1 5 12 10.64 0.29
0 5 12 0.38 0.27
1 5 12 2.76 0.3
2 5 12 7.5 0.45
3 5 12 3.41 0.37
4 5 12 -0.08 0.29
5 5 12 0.07 0.38
6 5 12 6.14 0.48
7 5 12 4.06 0.44
8 5 12 0.35 0.36
-12 6 12 0.42 0.19
-11 6 12 0.34 0.24
-10 6 12 0.21 0.25
-9 6 12 0.62 0.2
-8 6 12 0.52 0.19
-7 6 12 -0.03 0.18
-6 6 12 -0.09 0.18
-5 6 12 0.34 0.19
-4 6 12 3.93 0.19
-3 6 12 4.51 0.19
-2 6 12 0.09 0.17
-1 6 12 0.62 0.17
0 6 12 0.07 0.32
1 6 12 0.84 0.35
2 6 12 1.47 0.34
3 6 12 1.78 0.36
4 6 12 1.55 0.26
5 6 12 0.21 0.27
6 6 12 1.46 0.42
7 6 12 0.73 0.38
-11 7 12 1.06 0.25
-10 7 12 8.28 0.36
-9 7 12 83.33 1.02
-8 7 12 20.81 0.41
-7 7 12 16.37 0.36
-6 7 12 -0.38 0.18
-5 7 12 3.11 0.22
-4 7 12 8.16 0.27
-3 7 12 0.15 0.17
-2 7 12 3.62 0.27
-1 7 12 -0.03 0.21
0 7 12 6.69 0.3
1 7 12 0.54 0.27
2 7 12 2.37 0.3
3 7 12 20 0.54
4 7 12 42.94 0.66
5 7 12 1.2 0.27
6 7 12 0.23 0.25
7 7 12 0.38 0.38
-11 8 12 11.06 0.52
-10 8 12 10.4 0.38
-9 8 12 13 0.32
-8 8 12 119.68 1.38
-7 8 12 10.07 0.3
-6 8 12 -0.07 0.19
-5 8 12 53.69 0.64
-4 8 12 71.54 0.78
-3 8 12 0.03 0.17
-2 8 12 29.9 0.61
-1 8 12 39.54 0.72
0 8 12 9.01 0.29
1 8 12 8.67 0.38
2 8 12 4.25 0.34
3 8 12 0 0.23
4 8 12 50.33 0.73
5 8 12 70.96 0.93
6 8 12 0.38 0.25
-10 9 12 6.91 0.46
-9 9 12 93.77 0.97
-8 9 12 18.59 0.34
-7 9 12 23.18 0.38
-6 9 12 1.09 0.17
-5 9 12 1.83 0.18
-4 9 12 24.01 0.38
-3 9 12 -0.27 0.18
-2 9 12 0.21 0.21
-1 9 12 0.97 0.19
0 9 12 24.8 0.46
1 9 12 3.57 0.32
2 9 12 2.61 0.32
3 9 12 30.17 0.53
4 9 12 32.06 0.56
5 9 12 -0.12 0.24
6 9 12 0.44 0.24
-10 10 12 7.68 0.34
-9 10 12 3.84 0.23
-8 10 12 -0.09 0.16
-7 10 12 0.44 0.17
-6 10 12 5.41 0.22
-5 10 12 0.32 0.16
-4 10 12 -0.11 0.15
-3 10 12 3.72 0.23
-2 10 12 -0.06 0.17
-1 10 12 0.56 0.19
0 10 12 0.08 0.18
1 10 12 2.5 0.32
2 10 12 -0.16 0.29
3 10 12 6.07 0.29
4 10 12 3.56 0.27
5 10 12 3.36 0.27
-9 11 12 0.5 0.25
-8 11 12 -0.05 0.17
-7 11 12 3.33 0.22
-6 11 12 0.09 0.15
-5 11 12 0.96 0.17
-4 11 12 5.62 0.22
-3 11 12 25.33 0.47
-2 11 12 36.76 0.7
-1 11 12 1.09 0.2
0 11 12 5.84 0.26
1 11 12 1.67 0.31
2 11 12 0.04 0.23
3 11 12 5.33 0.28
4 11 12 1.13 0.25
-8 12 12 14.59 0.34
-7 12 12 29.03 0.5
-6 12 12 4.68 0.25
-5 12 12 29.42 0.43
-4 12 12 0.39 0.16
-3 12 12 0.65 0.19
-2 12 12 129.31 1.49
-1 12 12 25.68 0.48
0 12 12 3.86 0.24
1 12 12 15.59 0.48
2 12 12 21.43 0.44
3 12 12 2.14 0.25
-6 13 12 8.11 0.29
-5 13 12 0.12 0.18
-4 13 12 5.99 0.31
-3 13 12 33.94 0.66
-2 13 12 25.37 0.46
-1 13 12 0.2 0.2
0 13 12 4.71 0.25
1 13 12 1.2 0.3
2 13 12 1.19 0.22
-4 14 12 4.47 0.38
-3 14 12 5.87 0.36
-2 14 12 2.36 0.21
-1 14 12 0.07 0.23
-12 0 13 -0.28 0.36
-11 0 13 -0.17 0.24
-10 0 13 0.47 0.25
-9 0 13 -0.03 0.26
-8 0 13 0.11 0.27
-7 0 13 -0.14 0.25
-6 0 13 -0.26 0.23
-5 0 13 -0.01 0.22
-4 0 13 0.21 0.21
-3 0 13 0.27 0.19
-2 0 13 -0.13 0.21
-12 1 13 0.04 0.27
-11 1 13 4.21 0.21
-10 1 13 8.86 0.26
-9 1 13 47.09 0.59
-8 1 13 41.96 0.54
-7 1 13 0.41 0.17
-6 1 13 13.49 0.29
-5 1 13 0.27 0.16
-4 1 13 0.4 0.15
-3 1 13 2.18 0.15
-2 1 13 0.06 0.19
-12 2 13 0.07 0.27
-11 2 13 3.13 0.2
-10 2 13 38 0.51
-9 2 13 0.61 0.17
-8 2 13 4.77 0.22
-7 2 13 5.84 0.23
-6 2 13 -0.5 0.17
-5 2 13 0.97 0.17
-4 2 13 46.86 0.65
-3 2 13 8.3 0.26
-2 2 13 -0.17 0.17
-1 2 13 1.22 0.35
-11 3 13 2.11 0.22
-10 3 13 0.33 0.17
-9 3 13 0.05 0.17
-8 3 13 -0.17 0.17
-7 3 13 7.19 0.27
-6 3 13 7.19 0.26
-5 3 13 0.24 0.17
-4 3 13 9.05 0.27
-3 3 13 38.17 0.56
-2 3 13 12.25 0.37
-1 3 13 3.84 0.42
0 3 13 2.05 0.36
-11 4 13 8.08 0.28
-10 4 13 0.68 0.17
-9 4 13 0.37 0.19
-8 4 13 3.84 0.23
-7 4 13 4.8 0.24
-6 4 13 -0.06 0.17
-5 4 13 3.86 0.22
-4 4 13 2.54 0.2
-3 4 13 0.19 0.17
-2 4 13 0.79 0.22
-1 4 13 1.22 0.37
0 4 13 0.67 0.34
1 4 13 0.15 0.34
2 4 13 -0.03 0.31
-11 5 13 5.06 0.3
-10 5 13 1.86 0.2
-9 5 13 16.38 0.36
-8 5 13 4.29 0.24
-7 5 13 9.08 0.29
-6 5 13 0.21 0.19
-5 5 13 11.34 0.31
-4 5 13 2.49 0.2
-3 5 13 17.13 0.36
-2 5 13 101.48 1.45
-1 5 13 -0.15 0.21
0 5 13 19.81 0.7
1 5 13 1.22 0.36
2 5 13 1.54 0.34
3 5 13 4.65 0.38
-11 6 13 22.65 0.52
-10 6 13 18.04 0.47
-9 6 13 0.09 0.18
-8 6 13 -0.03 0.19
-7 6 13 6.93 0.27
-6 6 13 0.23 0.19
-5 6 13 8.41 0.28
-4 6 13 4.82 0.23
-3 6 13 16.45 0.44
-2 6 13 3 0.27
-1 6 13 -0.13 0.2
0 6 13 4.65 0.45
1 6 13 -0.4 0.32
2 6 13 3.54 0.4
3 6 13 23.27 0.74
4 6 13 0.12 0.3
-10 7 13 22.25 0.52
-9 7 13 1.89 0.2
-8 7 13 27 0.48
-7 7 13 3.03 0.22
-6 7 13 24.8 0.45
-5 7 13 1.16 0.19
-4 7 13 2.23 0.2
-3 7 13 6.3 0.31
-2 7 13 4.16 0.28
-1 7 13 9.68 0.35
0 7 13 4.06 0.42
1 7 13 3.57 0.4
2 7 13 0.03 0.34
3 7 13 7.28 0.46
4 7 13 10.62 0.52
5 7 13 0.41 0.34
-10 8 13 0.16 0.33
-9 8 13 1.94 0.2
-8 8 13 0.18 0.18
-7 8 13 3.82 0.23
-6 8 13 6.35 0.25
-5 8 13 0.19 0.18
-4 8 13 12.86 0.32
-3 8 13 3.17 0.27
-2 8 13 0.19 0.21
-1 8 13 2.43 0.25
0 8 13 8.29 0.49
1 8 13 0.17 0.32
2 8 13 3.88 0.41
3 8 13 7.74 0.48
4 8 13 0.17 0.34
5 8 13 2.93 0.38
-9 9 13 72.18 0.91
-8 9 13 38.46 0.58
-7 9 13 6.45 0.26
-6 9 13 7.06 0.26
-5 9 13 0.1 0.17
-4 9 13 0.32 0.17
-3 9 13 2.4 0.25
-2 9 13 0.99 0.22
-1 9 13 7.51 0.28
0 9 13 9.92 0.41
1 9 13 0.68 0.3
2 9 13 0.41 0.3
3 9 13 5.53 0.36
4 9 13 20.27 0.54
-8 10 13 -0.19 0.17
-7 10 13 12.19 0.32
-6 10 13 0.03 0.15
-5 10 13 1.27 0.17
-4 10 13 35.56 0.56
-3 10 13 5.22 0.36
-2 10 13 0.87 0.19
-1 10 13 0.71 0.19
0 10 13 2.62 0.3
1 10 13 0.28 0.29
2 10 13 6.37 0.37
3 10 13 0.88 0.29
-7 11 13 7.99 0.27
-6 11 13 0.88 0.17
-5 11 13 0.09 0.16
-4 11 13 9.03 0.34
-3 11 13 9.17 0.4
-2 11 13 2.19 0.21
-1 11 13 2.43 0.21
0 11 13 -0.21 0.28
1 11 13 2.9 0.32
2 11 13 0.35 0.28
-5 12 13 2.07 0.17
-4 12 13 0.44 0.2
-3 12 13 5.63 0.27
-2 12 13 0.37 0.21
-1 12 13 2.79 0.22
0 12 13 2.32 0.21
-10 0 14 0.24 0.25
-9 0 14 4.69 0.32
-8 0 14 11.25 0.41
-7 0 14 82.39 1.25
-6 0 14 9.11 0.36
-5 0 14 0.6 0.22
-4 0 14 75.95 1.62
-3 0 14 45.09 1.09
-10 1 14 0.68 0.18
-9 1 14 22.86 0.39
-8 1 14 121.7 1.21
-7 1 14 0.72 0.18
-6 1 14 8.48 0.25
-5 1 14 9.05 0.28
-4 1 14 1.48 0.18
-3 1 14 0.96 0.16
-10 2 14 5.19 0.22
-9 2 14 0.5 0.18
-8 2 14 1.1 0.19
-7 2 14 0.38 0.19
-6 2 14 3.56 0.22
-5 2 14 0.42 0.17
-4 2 14 0.48 0.16
-3 2 14 7.88 0.25
-2 2 14 0.35 0.35
-10 3 14 1.56 0.19
-9 3 14 0.33 0.19
-8 3 14 -0.33 0.18
-7 3 14 0.68 0.19
-6 3 14 -0.2 0.17
-5 3 14 1.54 0.19
-4 3 14 2.04 0.19
-3 3 14 2.08 0.24
-2 3 14 63.97 1.01
-1 3 14 30.91 0.87
-10 4 14 78.78 1.19
-9 4 14 0.82 0.19
-8 4 14 10.14 0.3
-7 4 14 28.32 0.49
-6 4 14 47.18 0.68
-5 4 14 5.37 0.24
-4 4 14 16.53 0.36
-3 4 14 10.48 0.36
-2 4 14 8.05 0.33
-1 4 14 93.8 1.92
0 4 14 7.86 0.5
1 4 14 0.13 0.33
-9 5 14 0.94 0.19
-8 5 14 -0.01 0.19
-7 5 14 0.17 0.19
-6 5 14 0.71 0.19
-5 5 14 8.83 0.28
-4 5 14 0.21 0.17
-3 5 14 3.45 0.27
-2 5 14 71.51 1.11
-1 5 14 19.3 0.7
0 5 14 7.65 0.5
1 5 14 -0.36 0.32
2 5 14 2.05 0.36
-9 6 14 -0.06 0.17
-8 6 14 1.85 0.21
-7 6 14 0 0.18
-6 6 14 0.19 0.18
-5 6 14 0.03 0.17
-4 6 14 0.75 0.17
-3 6 14 3.23 0.27
-2 6 14 1.59 0.23
-1 6 14 0.38 0.37
0 6 14 0.36 0.34
1 6 14 0.54 0.32
2 6 14 0.32 0.33
3 6 14 1 0.34
-8 7 14 45.34 0.66
-7 7 14 2.75 0.21
-6 7 14 7.35 0.27
-5 7 14 0.48 0.17
-4 7 14 3.04 0.21
-3 7 14 1.82 0.24
-2 7 14 0 0.2
-1 7 14 0.64 0.36
0 7 14 -0.43 0.33
1 7 14 1.92 0.37
2 7 14 0.21 0.32
3 7 14 0.3 0.31
-8 8 14 13.72 0.33
-7 8 14 73.49 0.93
-6 8 14 -0.07 0.17
-5 8 14 1.72 0.19
-4 8 14 56.4 0.94
-3 8 14 13.24 0.4
-2 8 14 1.31 0.23
-1 8 14 16.38 0.65
0 8 14 26.35 0.81
1 8 14 0.5 0.35
2 8 14 7.1 0.46
-7 9 14 2.93 0.21
-6 9 14 4.95 0.23
-5 9 14 -0.13 0.15
-4 9 14 1.06 0.21
-3 9 14 5.25 0.28
-2 9 14 0.23 0.19
-1 9 14 0.77 0.21
0 9 14 -0.49 0.32
1 9 14 5.57 0.42
-5 10 14 2.32 0.19
-4 10 14 0.48 0.2
-3 10 14 0.97 0.22
-2 10 14 5.31 0.28
-1 10 14 0.59 0.2
0 10 14 1.82 0.36
-9 0 15 0 0.29
-8 0 15 0.29 0.25
-7 0 15 -0.01 0.23
-6 0 15 -0.05 0.21
-5 0 15 0.02 0.25
-4 0 15 -0.07 0.23
-9 1 15 9.05 0.34
-8 1 15 28.48 0.42
-7 1 15 16.12 0.36
-6 1 15 5.47 0.24
-5 1 15 4.79 0.22
-4 1 15 1.35 0.19
-3 1 15 -0.37 0.24
-8 2 15 -0.17 0.19
-7 2 15 1.59 0.2
-6 2 15 1.33 0.19
-5 2 15 1.67 0.19
-4 2 15 1.49 0.17
-3 2 15 15.75 0.42
-8 3 15 1.13 0.2
-7 3 15 5.09 0.24
-6 3 15 0.98 0.19
-5 3 15 2.09 0.19
-4 3 15 2.66 0.19
-3 3 15 3.77 0.26
-2 3 15 21.06 0.7
-8 4 15 3.07 0.22
-7 4 15 2 0.2
-6 4 15 0.43 0.17
-5 4 15 2.43 0.19
-4 4 15 4.3 0.21
-3 4 15 0.83 0.21
-2 4 15 2.21 0.38
-1 4 15 2.77 0.41
-7 5 15 0.08 0.17
-6 5 15 8.45 0.27
-5 5 15 0.22 0.17
-4 5 15 0.82 0.23
-3 5 15 12.48 0.38
-2 5 15 14.27 0.6
-1 5 15 20.13 0.71
0 5 15 -0.08 0.32
-7 6 15 0.54 0.21
-6 6 15 0.19 0.17
-5 6 15 1.16 0.18
-4 6 15 11.22 0.37
-3 6 15 4.86 0.28
-2 6 15 -0.39 0.35
-1 6 15 4.1 0.42
0 6 15 -0.21 0.31
1 6 15 -0.46 0.31
-6 7 15 0.8 0.21
-5 7 15 8.31 0.34
-4 7 15 -0.07 0.2
-3 7 15 4.04 0.26
-2 7 15 2.96 0.25
-1 7 15 0.83 0.34
0 7 15 11.98 0.53
-3 8 15 1.87 0.23
-2 8 15 -0.12 0.33
-5 0 16 0.39 0.25
-5 1 16 6.81 0.4
-4 1 16 9.39 0.44
-5 2 16 0.96 0.27
-4 2 16 0.62 0.26
