#------------------------------------------------------------------------------
#$Date: 2020-11-26 07:09:14 +0200 (Thu, 26 Nov 2020) $
#$Revision: 259256 $
#$URL: file:///home/coder/svn-repositories/cod/cif/2/02/22/2022285.cif $
#------------------------------------------------------------------------------
#
# This file is available in the Crystallography Open Database (COD),
# http://www.crystallography.net/. The original data for this entry
# were provided by IUCr Journals, http://journals.iucr.org/.
#
# The file may be used within the scientific community so long as
# proper attribution is given to the journal article from which the
# data were obtained.
#
data_2022285
loop_
_publ_author_name
'Huang, Chao-Ran'
'Li, Peng-Fei'
'Luo, Xu-Zhong'
_publ_section_title
;
 A two-dimensional organic--inorganic lead iodide perovskite:
 poly[bis(3-fluorocyclobutylammonium) [di-\m-iodido-diiodidoplumbate(VI)]]
;
_journal_coeditor_code           QF3046
_journal_issue                   12
_journal_name_full               'Acta Crystallographica Section C'
_journal_page_first              1096
_journal_page_last               1099
_journal_paper_doi               10.1107/S2053229620015272
_journal_volume                  76
_journal_year                    2020
_chemical_formula_iupac          '(C4 H9 F N)2 [Pb I4]'
_chemical_formula_moiety         '2(C4 H9 F N +), I4 P4 2-'
_chemical_formula_sum            'C8 H18 F2 I4 N2 Pb'
_chemical_formula_weight         895.03
_chemical_name_common
;
Bis(3-fluorocyclobutylammonium) tetraiodidoplumbate(VI)
;
_chemical_name_systematic
;
Poly[bis(3-fluorocyclobutylammonium) [di-\m-iodido-diiodidoplumbate(VI)]]
;
_space_group_crystal_system      monoclinic
_space_group_IT_number           14
_space_group_name_Hall           '-P 2ybc'
_space_group_name_H-M_alt        'P 1 21/c 1'
_atom_sites_solution_hydrogens   geom
_audit_creation_method           SHELXL-2014/7
_cell_angle_alpha                90
_cell_angle_beta                 107.996(4)
_cell_angle_gamma                90
_cell_formula_units_Z            2
_cell_length_a                   13.6842(5)
_cell_length_b                   8.5302(3)
_cell_length_c                   8.9518(3)
_cell_measurement_reflns_used    6193
_cell_measurement_temperature    293(2)
_cell_measurement_theta_max      30.5340
_cell_measurement_theta_min      2.4560
_cell_volume                     993.81(6)
_computing_cell_refinement
;
CrysAlis PRO (Rigaku OD, 2018)
;
_computing_data_collection
;
CrysAlis PRO (Rigaku OD, 2018)
;
_computing_data_reduction
;
CrysAlis PRO (Rigaku OD, 2018)
;
_computing_molecular_graphics
;
SHELXTL (Sheldrick, 2008)
;
_computing_publication_material
;
SHELXTL (Sheldrick, 2008)
;
_computing_structure_refinement
;
SHELXL2014 (Sheldrick, 2015)
;
_diffrn_ambient_temperature      293(2)
_diffrn_measured_fraction_theta_full 0.998
_diffrn_measured_fraction_theta_max 0.814
_diffrn_measurement_device_type  'XtaLAB Synergy R, DW system, HyPix'
_diffrn_measurement_method       '\w scans'
_diffrn_radiation_type           MoK\a
_diffrn_radiation_wavelength     0.71073
_diffrn_reflns_av_R_equivalents  0.0359
_diffrn_reflns_av_unetI/netI     0.0298
_diffrn_reflns_limit_h_max       17
_diffrn_reflns_limit_h_min       -18
_diffrn_reflns_limit_k_max       12
_diffrn_reflns_limit_k_min       -11
_diffrn_reflns_limit_l_max       10
_diffrn_reflns_limit_l_min       -11
_diffrn_reflns_number            8813
_diffrn_reflns_theta_full        25.242
_diffrn_reflns_theta_max         30.809
_diffrn_reflns_theta_min         2.855
_diffrn_standards_decay_%        0
_diffrn_standards_interval_count 0
_diffrn_standards_interval_time  0
_diffrn_standards_number         6193
_exptl_absorpt_coefficient_mu    14.704
_exptl_absorpt_correction_T_max  0.119
_exptl_absorpt_correction_T_min  0.110
_exptl_absorpt_correction_type   multi-scan
_exptl_absorpt_process_details
;
(CrysAlis PRO; Rigaku OD, 2018)
;
_exptl_crystal_colour            yellow
_exptl_crystal_density_diffrn    2.991
_exptl_crystal_description       block
_exptl_crystal_F_000             784
_exptl_crystal_size_max          0.160
_exptl_crystal_size_mid          0.160
_exptl_crystal_size_min          0.150
_refine_diff_density_max         1.405
_refine_diff_density_min         -1.626
_refine_ls_extinction_method     none
_refine_ls_goodness_of_fit_ref   1.001
_refine_ls_hydrogen_treatment    constr
_refine_ls_matrix_type           full
_refine_ls_number_parameters     79
_refine_ls_number_reflns         2537
_refine_ls_number_restraints     24
_refine_ls_restrained_S_all      1.012
_refine_ls_R_factor_all          0.0379
_refine_ls_R_factor_gt           0.0321
_refine_ls_shift/su_max          0.001
_refine_ls_shift/su_mean         0.000
_refine_ls_structure_factor_coef Fsqd
_refine_ls_weighting_details
'w=1/[\s^2^(Fo^2^)+(0.0435P)^2^+2.3818P] where P=(Fo^2^+2Fc^2^)/3'
_refine_ls_weighting_scheme      calc
_refine_ls_wR_factor_gt          0.0794
_refine_ls_wR_factor_ref         0.0815
_reflns_number_gt                2191
_reflns_number_total             2537
_reflns_threshold_expression     'I > 2\s(I)'
_cod_data_source_file            qf3046sup1.cif
_cod_data_source_block           I
_cod_original_sg_symbol_H-M      'P 21/c'
_cod_database_code               2022285
_shelx_space_group_comment
;
The symmetry employed for this shelxl refinement is uniquely defined
by the following loop, which should always be used as a source of
symmetry information in preference to the above space-group names.
They are only intended as comments.
;
_shelx_estimated_absorpt_t_min   0.202
_shelx_estimated_absorpt_t_max   0.216
_shelx_hkl_file
;
   2   0   0  325.39    6.47
   3   0   0 1106.86   20.44
   4   0   0 3207.87   57.22
   5   0   0  891.97   17.72
   5   0   0  914.13   17.47
   6   0   0    5.82    0.91
   6   0   0    9.10    1.01
   7   0   0    5.75    0.98
   7   0   0    7.90    0.99
   8   0   0  288.41    7.99
   8   0   0  347.34    7.75
   9   0   0   98.36    3.42
   9   0   0   83.54    3.66
  10   0   0   52.09    2.50
  10   0   0   42.50    2.65
  11   0   0   36.61    2.59
  11   0   0   46.74    2.41
  12   0   0   33.72    2.57
  12   0   0   43.96    2.31
  13   0   0   39.87    2.91
  13   0   0   50.99    2.53
  14   0   0    1.46    1.46
  15   0   0    0.82    1.60
  16   0   0   20.12    2.61
   0  -1   0    0.28    0.25
   0   1   0    0.88    0.31
   1   1   0    5.31    0.67
   1   1   0    5.28    0.31
  -1  -1   0    5.66    0.32
  -2  -1   0   70.39    1.84
   2   1   0   69.47    1.86
   3   1   0 1120.18   20.48
   3   1   0 1152.24   20.41
  -3  -1   0 1114.33   19.71
   4   1   0  570.00   11.23
   4   1   0  591.18   11.39
  -4  -1   0  565.38   10.24
   5   1   0  150.98    4.88
   5   1   0  146.98    4.21
   6   1   0  116.96    4.02
   6   1   0  134.88    4.64
   7   1   0  473.49   11.66
   7  -1   0  454.04   11.54
   8   1   0  162.10    5.45
   8  -1   0  160.75    5.40
   9   1   0    6.09    1.15
   9  -1   0    6.29    0.91
   9   1   0    5.21    1.12
   9  -1   0    6.09    1.15
   9   1   0    9.70    1.34
  10  -1   0    1.11    0.90
  10   1   0    1.35    0.90
  10   1   0    1.82    0.99
  10  -1   0    1.21    0.73
  10   1   0    1.24    0.96
  11   1   0   15.44    1.75
  11   1   0   12.43    1.65
  11  -1   0   14.95    1.72
  11   1   0   17.58    1.72
  11  -1   0   20.23    1.35
  12   1   0    1.94    1.12
  12   1   0    1.73    1.21
  12   1   0    0.99    1.01
  12  -1   0    1.94    1.15
 -12  -1   0    1.57    0.35
 -13  -1   0    8.78    0.52
  13  -1   0   11.31    1.72
 -13  -1   0    9.09    0.47
  13   1   0   13.79    1.91
  13   1   0   14.51    1.69
  13   1   0   14.02    1.86
  14   1   0   17.40    2.12
  14  -1   0   18.94    2.53
  14   1   0   22.43    1.95
  14   1   0   18.08    2.07
  15   1   0    3.58    1.43
  15  -1   0    2.52    1.60
  16  -1   0    1.13    1.32
  16   1   0    0.44    1.33
  16  -1   0    1.17    1.75
   0   2   0  580.80   12.02
   1   2   0   10.29    1.26
  -1   2   0    9.68    0.82
   2   2   0  301.46    5.48
  -2   2   0  309.96    6.08
   2   2   0  301.50    6.13
  -2  -2   0  312.29    5.50
   3   2   0   57.86    1.86
   3   2   0   60.84    1.46
  -3  -2   0   59.48    1.27
   4   2   0  482.30    8.75
   4   2   0  475.69    9.70
  -5  -2   0  503.86   10.27
   5   2   0  513.92   10.58
  -6  -2   0   42.73    1.86
   6   2   0   44.98    2.74
   6   2   0   40.79    1.91
   6   2   0   37.59    1.93
   7   2   0  202.69    5.29
   7   2   0  222.79    6.37
   7   2   0  201.96    5.45
  -7  -2   0  221.39    5.36
   8   2   0  524.73   11.23
  -8  -2   0  553.38   10.90
   8   2   0  520.35   10.91
  -9  -2   0  435.18    9.26
   9   2   0  410.72    9.40
   9   2   0  443.98    9.86
  10   2   0  120.00    4.66
  10   2   0  127.41    4.70
  10   2   0  112.38    4.36
  11  -2   0   89.86    3.99
  11   2   0   91.24    4.06
  11   2   0  111.34    4.31
  11   2   0  103.51    4.46
  12   2   0  185.14    6.46
  12   2   0  192.86    5.99
  12   2   0  166.48    5.93
  12  -2   0  155.21    5.74
  13  -2   0  105.99    4.65
  13   2   0  136.11    5.91
  13   2   0  124.76    5.35
  13   2   0  109.85    4.78
  13   2   0  137.76    4.86
  14   2   0   24.38    2.15
  14   2   0   23.61    2.77
  14  -2   0   28.14    2.94
  14   2   0   25.09    2.57
  15   2   0   12.03    1.82
  15  -2   0   14.19    2.43
  15   2   0   11.22    2.00
  15   2   0   10.24    2.15
  16   2   0   23.39    2.81
  16   2   0   18.73    2.44
  16  -2   0   23.96    2.91
   0   3   0   -0.14    0.58
   1   3   0  588.74   10.41
  -1  -3   0  588.59   10.87
  -2   3   0  145.19    3.80
   2   3   0  141.31    3.44
   2   3   0  144.81    2.79
  -2  -3   0  147.59    3.40
  -3  -3   0  182.96    3.48
   3   3   0  191.70    4.01
  -3  -3   0  182.57    4.20
   3   3   0  182.55    4.32
  -4  -3   0    1.63    0.49
  -4  -3   0    1.62    0.18
  -4  -3   0    1.23    0.41
   4   3   0    2.01    0.50
   4   3   0    1.76    0.31
   5   3   0  627.77   11.33
  -5  -3   0  635.50   12.25
   5   3   0  596.66   12.44
  -5  -3   0  612.09   11.07
  -6  -3   0  207.77    4.18
   6   3   0  200.80    5.48
   7   3   0   38.23    2.79
   7   3   0   33.74    2.02
  -7  -3   0   39.23    1.94
  -8  -3   0   13.41    1.28
   8   3   0   11.74    1.75
   8   3   0   14.18    1.47
   9   3   0  146.85    5.48
   9   3   0  133.91    4.90
  -9  -3   0  137.91    4.53
  10   3   0   38.95    2.67
  10   3   0   43.26    2.92
 -10  -3   0   39.08    2.35
 -11  -3   0   20.26    1.86
  11  -3   0   19.06    1.83
  11   3   0   24.56    2.26
  12   3   0   27.94    2.55
  12   3   0   31.88    2.58
  12  -3   0   25.18    2.16
  12   3   0   34.33    2.98
  13  -3   0    8.29    2.04
  13   3   0   11.69    2.15
  13   3   0    8.27    1.81
  13   3   0    5.67    1.63
  14  -3   0    5.37    2.05
  14   3   0    4.02    1.57
  14   3   0    3.11    1.81
  14   3   0    3.88    1.50
  15   3   0    7.08    1.88
  15  -3   0    8.29    2.18
  15   3   0    6.78    1.77
  15   3   0    8.99    2.12
  16   3   0   10.86    2.37
   0   4   0  283.42    7.85
   1   4   0  351.13    6.63
  -1   4   0  335.56    8.49
   2   4   0  579.28   10.08
  -2   4   0  554.32   11.69
   2   4   0  542.17   10.26
  -2  -4   0  587.00   10.89
   2  -4   0  528.96   10.48
   3   4   0  243.62    8.65
   3   4   0  303.38    6.66
   3   4   0  302.40    5.57
   3   4   0  359.86    6.72
   3  -4   0  256.51    6.65
  -3  -4   0  311.42    6.51
   3   4   0  291.98    6.31
   4   4   0  135.27    3.86
   4   4   0  140.06    3.37
  -4  -4   0  139.00    3.76
   5   4   0  193.64    4.10
  -5  -4   0  188.29    4.77
  -5  -4   0  182.86    3.60
   5   4   0  179.60    4.93
  -5  -4   0  198.11    4.77
   6   4   0  249.02    6.40
  -6  -4   0  263.24    6.09
   6   4   0  257.29    5.14
  -6  -4   0  243.74    4.69
   7   4   0  135.61    4.41
  -7  -4   0  151.87    4.25
   7   4   0  144.17    5.92
  -7  -4   0  130.95    2.78
  -8  -4   0   45.93    1.33
  -8  -4   0   46.85    2.27
   8   4   0   44.29    2.50
  -9  -4   0   40.88    1.35
  -9  -4   0   43.39    2.30
   9   4   0   41.27    3.15
   9   4   0   46.39    2.69
  10   4   0   62.41    3.37
 -10  -4   0   59.76    1.88
  11   4   0   55.07    3.34
  11   4   0   62.56    3.72
 -11  -4   0   52.62    2.96
  11   4   0   84.31    4.52
  11  -4   0   73.31    4.46
  12   4   0   17.52    2.27
  12   4   0   14.66    2.01
  12  -4   0   20.90    2.61
 -12  -4   0   15.62    1.83
  12   4   0   23.19    2.74
  13   4   0    9.03    1.91
  13  -4   0   13.03    2.41
  13   4   0   11.90    2.05
  13   4   0   12.17    2.20
  14   4   0   14.86    2.18
  14   4   0   17.64    2.63
  14  -4   0   17.58    2.75
  14   4   0   15.86    2.29
  15   4   0   17.09    2.50
  15  -4   0   25.72    3.14
  15   4   0   21.14    2.79
   0   5   0    0.49    0.96
   1   5   0  121.46    5.27
  -1   5   0  124.32    4.65
  -1  -5   0  134.45    3.44
   1   5   0  125.51    2.88
  -2   5   0   23.43    0.58
  -2   5   0   21.75    1.64
   2   5   0   22.62    0.84
  -2  -5   0   24.10    1.29
   3   5   0   67.45    1.59
   3  -5   0   57.32    2.02
   3   5   0   69.86    1.96
   3   5   0   54.28    3.82
  -3  -5   0   69.48    2.33
   3   5   0   66.01    2.27
   4   5   0    0.67    0.48
   4   5   0    0.69    0.47
   4  -5   0    0.28    0.48
   4   5   0   -0.10    1.25
  -4  -5   0    0.52    0.48
   5   5   0  106.80    3.53
   5   5   0  103.19    2.77
  -5  -5   0  106.07    3.29
   5   5   0  135.65    3.97
   5   5   0  100.51    5.28
   5  -5   0   75.00    3.46
   6   5   0   44.72    1.57
   6   5   0   40.25    2.16
  -6  -5   0   44.53    2.05
   7   5   0   20.31    1.03
  -7  -5   0   21.34    1.52
   7   5   0   19.92    1.68
   8   5   0    3.75    1.62
  -8  -5   0    2.08    0.25
   8   5   0    2.41    0.98
  -8  -5   0    3.28    0.93
   8  -5   0    1.75    1.16
   8   5   0    2.89    1.29
   9   5   0   30.26    2.96
  -9  -5   0   23.68    0.77
  -9  -5   0   26.69    1.87
   9  -5   0   29.22    2.79
   9   5   0   26.14    2.16
  10  -5   0   12.32    2.14
 -10  -5   0    6.90    0.45
  10   5   0    6.14    1.86
  10   5   0   11.58    2.07
 -10  -5   0    7.45    1.25
  10   5   0    7.49    1.48
 -11  -5   0    8.79    0.55
  11  -5   0   12.50    2.22
  11   5   0    9.76    1.69
 -11  -5   0   11.24    1.54
  11   5   0   15.54    2.38
  11   5   0    8.91    2.02
  12   5   0    5.19    1.58
 -12  -5   0    4.36    1.35
  12   5   0    8.23    2.07
  12  -5   0    8.75    2.03
  12   5   0    9.28    2.10
 -13  -5   0    1.95    1.23
  13  -5   0    2.87    1.66
  13   5   0    3.09    1.98
  13   5   0    2.28    1.37
  14   5   0    1.19    1.36
  14  -5   0    4.18    2.13
  14   5   0    1.60    1.78
  15  -5   0    4.19    2.25
  15   5   0    6.01    2.38
   0   6   0   96.07    4.54
   0   6   0   95.16    2.60
   0  -6   0  101.44    3.05
   1   6   0  367.19    7.28
  -1   6   0  361.26    9.67
  -2   6   0  737.31   16.05
   2   6   0  699.82   15.00
  -2  -6   0  816.46   14.95
   2   6   0  774.12   13.87
   2   6   0  683.76   18.11
  -3  -6   0  313.83    6.89
  -3   6   0  298.87    5.44
   3   6   0  298.55    5.76
   4  -6   0   21.62    1.23
  -4  -6   0   26.82    1.55
   4   6   0   25.61    1.42
   4   6   0   21.46    2.77
   4   6   0   25.07    0.84
  -5  -6   0   85.41    2.93
   5   6   0   78.18    2.48
   5   6   0   86.17    2.76
   6   6   0  231.99    6.40
  -6  -6   0  250.99    6.22
   6   6   0  250.85    9.24
   6   6   0  245.14    5.37
  -6  -6   0  248.77    6.12
  -7  -6   0   72.49    2.85
   7   6   0   74.02    2.25
   7   6   0   69.44    3.14
   8  -6   0    0.16    0.86
  -8  -6   0    1.44    0.78
   8   6   0    1.15    0.55
   8   6   0    1.23    1.08
   8   6   0    1.91    1.02
   9   6   0    2.61    1.33
   9   6   0    1.08    1.74
  -9  -6   0    0.63    0.87
   9   6   0    1.15    1.02
   9  -6   0    1.53    1.06
  10   6   0   36.03    2.69
 -10  -6   0   42.10    2.45
  10   6   0   49.97    3.86
  10  -6   0   31.66    2.92
  10   6   0   56.84    3.69
 -11  -6   0   23.70    2.03
  11   6   0   25.74    2.48
  11  -6   0   22.72    2.67
  12   6   0    0.44    1.30
  12  -6   0    0.79    1.42
 -12  -6   0    0.61    1.18
  12   6   0    0.20    1.73
  13  -6   0    1.32    1.70
  13   6   0    0.29    1.40
  13   6   0    0.42    1.75
 -13  -6   0    0.77    1.24
 -14  -6   0   10.76    1.85
  14  -6   0   10.67    2.57
  14   6   0   12.65    2.25
  14   6   0   16.94    2.85
  15  -6   0   12.42    2.65
  15   6   0   20.13    3.08
   0  -7   0    0.03    0.59
   0   7   0   -0.42    1.16
   0   7   0   -0.08    0.49
  -1  -7   0    9.38    1.05
   1   7   0    8.77    1.93
   1   7   0    8.41    1.22
   1   7   0    8.59    0.75
  -1   7   0    8.52    1.54
  -2   7   0   18.50    1.87
  -2  -7   0   22.49    1.45
   2   7   0   20.44    0.96
   2   7   0   16.05    2.53
   2   7   0   18.50    1.54
  -3  -7   0   42.12    2.00
   3   7   0   38.32    2.00
   3   7   0   33.94    3.42
   3   7   0   35.80    1.22
   4   7   0   41.62    1.94
  -4   7   0   39.49    1.01
   4   7   0   41.70    1.23
   5   7   0   53.03    2.13
  -5  -7   0   56.74    2.49
  -6  -7   0   47.75    2.37
   6   7   0   42.64    4.03
   6   7   0   46.38    1.90
  -7  -7   0   22.18    1.66
   7   7   0   23.83    1.79
   7   7   0   22.49    3.15
   7   7   0   22.58    1.32
   8   7   0    9.86    0.96
   8   7   0   12.28    1.55
  -8  -7   0   10.47    1.33
  -9  -7   0    7.18    1.31
   9   7   0    7.32    1.51
   9   7   0    8.52    1.56
   9  -7   0    2.81    1.11
 -10  -7   0    2.87    1.10
  10   7   0    2.77    1.57
  10  -7   0    1.53    1.14
  10   7   0    2.83    1.21
  11   7   0    0.08    1.30
  11  -7   0   -0.10    1.35
  11   7   0    0.09    1.61
 -11  -7   0    0.28    1.04
  12   7   0    1.65    1.75
  12   7   0    0.98    1.34
 -12  -7   0    1.03    1.18
  12  -7   0    0.32    1.47
 -13  -7   0    1.36    1.34
  13  -7   0    0.59    1.65
  13   7   0    0.10    1.89
  13   7   0   -0.09    1.48
 -14  -7   0    1.26    1.50
  14   7   0   -1.30    2.18
  14  -7   0   -0.12    1.91
  15   7   0    0.11    2.23
   0   8   0   24.82    2.08
   0   8   0   26.28    1.33
   0   8   0   24.98    2.57
   0  -8   0   29.86    1.75
   1  -8   0    2.64    0.82
  -1   8   0    1.68    1.24
   1   8   0    1.48    1.54
   1   8   0    1.75    0.56
   1   8   0    2.18    1.03
  -1   8   0    1.23    0.64
  -1  -8   0    2.14    0.83
  -2  -8   0   36.19    1.95
   2   8   0   32.15    1.28
   2   8   0   33.71    2.12
   3   8   0   10.28    2.37
   3   8   0   10.70    1.28
   3   8   0   11.78    0.74
  -3  -8   0   13.61    1.33
   4   8   0    0.83    1.90
  -4  -8   0    1.43    0.80
   4   8   0    1.00    0.40
   4   8   0    1.74    0.88
   5   8   0   29.54    3.68
  -5   8   0   22.32    0.64
   5   8   0   27.84    1.64
  -5  -8   0   32.72    2.01
  -5  -8   0   26.00    0.80
   6   8   0  105.47    3.34
  -6  -8   0  114.48    4.04
  -6   8   0  110.87    2.57
  -7  -8   0   73.52    3.17
   7   8   0   79.22    2.71
  -8  -8   0   30.23    2.09
   8   8   0   28.01    1.55
  -9  -8   0   42.72    2.52
   9  -8   0   27.62    2.21
 -10  -8   0   76.33    3.45
  10   8   0   97.62    4.25
  11   8   0   64.33    3.76
 -11  -8   0   50.29    2.98
 -12  -8   0   12.51    1.76
  12   8   0   11.05    2.10
  12   8   0   17.57    2.50
  13   8   0   13.22    2.59
 -13  -8   0   10.26    1.84
   0   9   0   -0.56    1.23
   0  -9   0    0.08    0.86
   0   9   0    0.27    0.66
   0   9   0    0.28    1.41
  -1  -9   0    1.37    0.84
   1  -9   0    1.74    0.87
  -1   9   0    1.36    0.75
   1   9   0    2.11    1.20
   1   9   0    1.05    1.60
   1   9   0    1.19    0.61
   2   9   0    7.41    2.15
   2   9   0    8.19    0.78
   2   9   0    7.07    1.37
  -2  -9   0   10.82    1.27
   2  -9   0    9.18    1.21
  -2   9   0    7.28    1.06
   3   9   0   46.48    2.47
   3   9   0   42.25    1.51
  -3   9   0   46.55    2.34
   4   9   0   30.19    1.14
   4   9   0   32.26    1.98
   5   9   0    5.06    1.09
  -5  -9   0    7.76    1.33
  -6  -9   0   10.62    1.53
   6   9   0    9.60    1.24
   7   9   0   31.77    1.80
  -7  -9   0   30.56    2.18
  -7   9   0   28.26    0.98
   8   9   0   13.56    1.26
  -8  -9   0   12.18    1.57
  -9  -9   0    0.66    1.21
 -10  -9   0    0.35    1.20
 -11  -9   0    0.60    1.21
 -12  -9   0   -0.63    1.30
   0 -10   0   87.46    3.36
   0  10   0   85.71    2.77
  -1  10   0   91.40    3.03
   1  10   0   84.70    2.61
   1 -10   0   95.08    3.51
  -1 -10   0   94.18    3.50
  -2  10   0   72.41    2.80
  -2 -10   0   81.23    3.26
   2 -10   0   77.31    3.11
   2  10   0   71.36    2.24
  -3 -10   0   57.74    2.77
  -3  10   0   54.58    2.54
   3 -10   0   52.98    2.61
   3  10   0   49.87    1.70
  -4  10   0   37.57    2.30
   4  10   0   33.30    1.22
  -4 -10   0   38.75    2.37
  -5 -10   0   23.12    1.98
  -5  10   0   23.53    2.06
  -7 -10   0    6.17    1.45
   7  10   0    5.67    1.21
  -8 -10   0    3.12    1.31
  -9 -10   0    1.81    1.31
 -10 -10   0    2.35    1.36
   0  11   0    0.51    0.80
  -1  11   0    3.91    0.96
   1  11   0    4.31    0.85
   2  11   0    2.65    0.71
  -2  11   0    2.24    1.02
  -3  11   0    0.53    1.06
  -4  11   0    2.48    1.23
  -5  11   0   11.65    1.70
  -7 -11   0   -0.23    1.21
  -8 -11   0    0.59    1.34
  -3  12   0    3.86    1.22
  16   0  -1    0.62    1.10
  16   0  -1    0.47    1.13
  15   0  -1    0.49    1.09
  14   0  -1   -0.20    0.95
 -14   0   1    0.06    0.36
  14   0  -1    0.62    1.14
  13   0  -1   -0.04    0.91
  13   0  -1    0.20    1.04
 -13   0   1   -0.09    0.45
  12   0  -1    0.63    0.86
 -12   0   1    0.10    0.46
  12   0  -1   -0.37    0.95
 -11   0   1    0.54    0.46
  11   0  -1    0.41    0.80
  11   0  -1    0.51    0.82
 -10   0   1    0.52    0.42
  10   0  -1    0.27    0.82
   9   0  -1    0.15    0.80
   8   0  -1    0.14    0.63
   7   0  -1   -0.04    0.53
   6   0  -1    0.60    0.45
  -5   0   1    0.40    0.23
  -4   0   1    0.12    0.17
  -3   0   1    0.27    0.13
  -2   0   1    2.26    0.19
  -2   0   1    0.05    0.09
   1   0  -1    0.19    0.08
  -1   0   1    0.21    0.10
   0   0  -1    0.22    0.09
   1   0   1   -0.01    0.11
   1   0   1    0.08    0.15
  -1   0  -1    0.18    0.17
  -1   0  -1    0.34    0.17
  -1   0  -1    0.13    0.13
   2   0   1    0.01    0.21
  -2   0  -1    0.94    0.35
   2   0   1    0.39    0.30
   2   0   1    0.14    0.24
  -2   0  -1   -0.08    0.23
  -3   0  -1    0.05    0.39
   3   0   1    0.13    0.32
   3   0   1   -0.04    0.38
  -3   0  -1   -0.12    0.28
   4   0   1   -0.10    0.39
   4   0   1   -0.05    0.62
  -4   0  -1    0.41    0.46
  -4   0  -1    1.01    0.44
   5   0   1   -0.07    0.83
   5   0   1   -0.08    0.48
   6   0   1    0.47    0.89
   6   0   1    0.42    0.61
   7   0   1    0.26    0.71
   7   0   1    0.09    0.93
   8   0   1   -0.18    0.87
   8   0   1    0.37    1.17
   9   0   1    0.10    1.30
   9   0   1    3.40    1.11
  10   0   1    1.32    1.02
  10   0   1   -0.31    1.26
  11   0   1    0.11    1.39
  11   0   1   -0.07    1.08
  12   0   1    0.53    1.51
  12   0   1   -0.31    1.24
  13   0   1    2.05    1.69
  13   0   1   -0.40    1.29
  14   0   1    0.11    1.63
  15   0   1    1.00    1.24
  15   0   1   -0.23    1.70
  16   1  -1    7.07    1.50
  16   1  -1    7.80    1.72
  15   1  -1    0.71    1.13
  15   1  -1    0.63    1.15
  14  -1  -1   19.56    1.44
  14   1  -1   18.23    1.78
  14   1  -1   14.47    1.87
 -14   1   1   17.50    1.36
  14   1  -1   16.40    1.99
  13   1  -1  149.31    4.87
  13  -1  -1  141.78    5.35
 -13   1   1  163.03    4.52
  13   1  -1  157.44    5.64
  12  -1  -1   90.16    3.96
  12   1  -1   96.97    4.14
  12  -1  -1   98.48    3.10
  12   1  -1   89.14    3.62
  11   1  -1    1.94    1.02
  11  -1  -1    2.14    0.98
  11  -1  -1    2.56    0.80
  11   1  -1    2.14    1.03
  10   1  -1   65.70    3.04
  10  -1  -1   70.58    3.17
   9  -1  -1  643.56   14.30
   9   1  -1  719.89   14.74
   8   1  -1  661.10   13.97
   7   1  -1   78.32    2.94
   6   1  -1   87.89    2.93
   5   1  -1 1591.31   29.05
   4   1  -1 1877.03   33.55
  -3   1   1   54.95    1.70
   3   1  -1   57.69    1.54
  -3  -1   1   56.06    1.19
  -2   1   1  117.82    2.74
  -1   1   1  960.06   16.63
   1  -1  -1  904.85   16.38
   1  -1  -1  940.78   16.31
  -1   1   1  902.10   16.38
   1  -1  -1  954.46   16.66
  -1  -1   1  916.72   16.27
   0  -1  -1 1070.69   19.31
   0   1   1 1152.81   19.59
   0  -1  -1 1128.60   19.61
   0   1   1 1083.06   19.32
  -1  -1  -1  299.71    5.51
   1   1   1  293.33    5.80
  -1  -1  -1  287.62    5.76
  -1  -1  -1  305.33    6.25
  -1  -1  -1  303.19    5.75
  -1  -1  -1  284.04    5.83
  -2  -1  -1  154.03    3.43
  -2  -1  -1  158.72    3.77
   2  -1   1  163.55    3.92
  -2  -1  -1  147.95    3.47
  -2  -1  -1  160.31    4.01
   2   1   1  146.80    3.46
   3   1   1  422.26    8.43
  -3  -1  -1  430.12    8.40
   3  -1   1  455.94    9.33
  -3  -1  -1  369.42    8.75
   3   1   1  404.67    8.30
  -3  -1  -1  404.31    8.12
   4   1   1  727.81   13.69
   4  -1   1  703.27   14.14
  -4  -1  -1  678.79   14.38
  -4   1  -1  654.54   12.69
   4   1   1  728.22   13.79
  -4  -1  -1  695.85   13.62
   4   1   1  709.37   14.54
   5   1   1   68.69    2.59
   5   1   1   67.43    3.01
   5  -1   1   75.58    3.68
   5  -1   1   68.19    2.83
   5   1   1   68.48    2.61
   6  -1   1   57.64    3.39
   6   1   1   44.49    2.22
   6   1   1   43.25    2.22
   6   1   1   52.45    2.69
   6  -1   1   49.69    2.54
   7   1   1  152.58    5.00
   7   1   1  195.93    5.70
   7  -1   1  163.74    5.38
   7   1   1  159.92    5.13
   7  -1   1  197.60    6.86
   8   1   1  502.96   12.40
   8  -1   1  529.77   12.71
   8   1   1  685.96   13.33
   8  -1   1  668.69   15.34
   8   1   1  500.42   12.46
   9  -1   1  102.52    5.17
   9   1   1   71.68    3.51
   9  -1   1   76.17    3.63
   9   1   1  102.63    4.00
   9   1   1   71.61    3.50
  10   1   1    1.61    1.00
  10  -1   1    1.69    1.47
  10   1   1    1.64    1.12
  10   1   1    3.48    1.11
  10  -1   1    2.00    1.03
  11  -1   1   66.69    3.54
  11   1   1   65.45    3.58
  11   1   1   60.98    3.40
  12  -1   1  175.58    6.30
  12   1   1  169.02    6.34
  12   1   1  169.74    6.27
  12  -1   1  186.93    6.19
  13  -1   1   61.45    3.41
  13   1   1   60.56    3.61
  13  -1   1   66.20    4.51
  14  -1   1    2.46    1.17
  14  -1   1    2.63    1.76
  15  -1   1    8.74    1.65
  15  -1   1    9.74    2.35
  16   2  -1   14.34    1.97
  16   2  -1   18.44    2.32
  15   2  -1    1.81    1.32
  15   2  -1    3.13    1.41
 -14   2   1    1.60    1.09
  14   2  -1    1.70    1.18
  14   2  -1    1.95    1.27
  14   2  -1    1.86    1.26
  13   2  -1    5.62    1.37
  13   2  -1    8.01    1.63
  13   2  -1    7.92    1.48
  13  -2  -1    7.25    1.41
  12   2  -1   85.87    3.98
  12   2  -1   88.72    3.90
  12  -2  -1   78.37    3.72
  11  -2  -1   30.70    2.17
  11   2  -1   37.52    2.59
  11   2  -1   36.21    2.40
  11  -2  -1   44.87    1.60
  11   2  -1   43.41    2.78
  10   2  -1    8.46    1.45
  10   2  -1    8.36    1.22
  10   2  -1   10.11    1.44
   9   2  -1    2.37    0.85
   9   2  -1    1.10    0.96
   9   2  -1    2.86    0.99
   8   2  -1  149.96    4.59
   8   2  -1  165.56    5.09
   7   2  -1   32.17    1.72
  -7  -2   1   33.80    1.74
   6   2  -1  214.96    5.51
   6   2  -1  204.66    5.05
  -6  -2   1  211.72    5.12
   5   2  -1  457.90    9.55
   5   2  -1  460.50    9.14
  -5  -2   1  451.22    9.09
  -4  -2   1    1.76    0.34
   4   2  -1    2.11    0.43
   3   2  -1    0.99    0.30
  -3  -2   1    1.30    0.25
   2   2  -1  705.59   12.72
  -2   2   1  696.45   13.36
  -1   2   1 1856.99   31.92
  -1  -2   1 1773.89   31.15
   1  -2  -1 1798.90   31.09
   1   2  -1 1787.23   31.15
  -1  -2   1 1752.99   31.07
   0   2   1    1.29    0.32
   0  -2  -1    0.74    0.20
   0  -2  -1    0.55    0.50
   1   2   1    9.53    1.00
  -1  -2  -1   10.64    0.72
  -1  -2  -1    8.69    0.56
  -1  -2  -1    6.89    0.55
  -1  -2  -1   10.32    1.02
  -1  -2  -1    8.23    0.41
   2   2   1  256.90    5.52
  -2  -2  -1  259.51    4.94
   2  -2   1  259.33    5.69
  -2  -2  -1  254.23    5.41
  -2  -2  -1  253.32    6.55
  -2  -2  -1  274.57    5.50
   3  -2   1  459.75    9.84
   3   2   1  452.20    9.17
  -3  -2  -1  455.83    8.81
  -3  -2  -1  437.94    8.98
  -3  -2  -1  457.46   10.65
  -3  -2  -1  457.83    8.43
   3   2   1  454.70    9.59
  -4  -2  -1   49.60    1.61
   4  -2   1   50.50    2.51
  -4  -2  -1   47.67    2.68
  -4  -2  -1   44.48    1.76
   4   2   1   48.18    1.95
   5   2   1  242.64    7.80
  -5  -2  -1  265.03    5.79
   5   2   1  277.48    6.63
   5  -2   1  299.95    8.13
   6   2   1   13.23    1.67
   6   2   1   11.98    1.18
   6   2   1   11.34    1.14
   6  -2   1   14.01    1.74
  -6  -2  -1   11.42    0.75
   7   2   1   10.10    1.21
   7  -2   1    9.39    1.18
   7   2   1   10.58    1.24
   7  -2   1   12.72    1.87
  -7  -2  -1    9.06    0.70
   7   2   1   10.39    1.66
   8   2   1   59.13    3.30
   8  -2   1   42.07    2.50
  -8  -2  -1   38.56    1.51
   8   2   1   67.77    3.94
   8   2   1   45.21    2.58
   8  -2   1   53.52    3.69
   8   2   1   45.62    2.55
  -8  -2  -1   46.22    2.45
  -9  -2  -1  168.79    4.32
   9  -2   1  203.20    6.30
  -9  -2  -1  204.59    6.04
   9   2   1  290.03    8.66
   9  -2   1  252.08    8.51
   9   2   1  254.50    7.12
   9   2   1  197.34    6.31
   9   2   1  197.64    6.21
  10   2   1   42.40    2.80
 -10  -2  -1   35.72    1.41
  10   2   1   60.35    3.88
  10  -2   1   54.58    3.89
  10  -2   1   39.99    2.66
  10   2   1   40.24    2.66
  10   2   1   53.69    3.09
 -10  -2  -1   38.21    2.47
  11   2   1    6.14    1.64
  11   2   1    6.70    1.48
  11  -2   1    7.09    1.41
  11  -2   1    7.07    1.93
 -11  -2  -1    6.06    0.61
  11   2   1    3.93    1.27
  11   2   1    6.35    1.80
 -12  -2  -1    1.68    0.44
  12   2   1    1.00    1.15
  12   2   1    1.58    1.24
  12   2   1    1.25    1.65
  12  -2   1    0.93    1.10
  12  -2   1    1.80    1.66
  13  -2   1   33.61    3.29
  13   2   1   30.07    2.65
  13   2   1   28.86    2.68
  13   2   1   32.55    3.25
 -13  -2  -1   21.69    0.91
  14   2   1    3.86    1.60
  14   2   1    4.13    1.95
  14  -2   1    4.05    1.28
  14  -2   1    3.95    1.96
  15  -2   1    5.15    1.46
  15  -2   1    7.24    2.20
  15   2   1    5.43    1.86
  15   2   1    8.28    2.33
  16   3  -1   22.20    2.71
  16  -3  -1   21.03    2.76
  16   3  -1   20.71    2.58
  16   3  -1   22.07    2.34
  15   3  -1   22.07    2.49
  15   3  -1   20.14    2.16
  14   3  -1   24.12    2.28
 -14   3   1   28.84    2.26
  14   3  -1   28.20    2.65
  13   3  -1   43.36    2.84
  13   3  -1   50.25    3.29
  12   3  -1   36.63    2.77
  12   3  -1   35.12    2.55
  11   3  -1    7.74    1.42
  11   3  -1    7.72    1.59
  10   3  -1    6.27    1.27
  10   3  -1    6.78    1.55
 -10  -3   1    5.47    1.09
   9   3  -1   17.34    1.95
   9   3  -1   16.00    1.62
  -9  -3   1   17.28    1.44
  -8  -3   1   14.64    1.27
   8   3  -1   17.19    2.02
   8   3  -1   13.21    1.36
   7   3  -1    4.38    0.85
  -7  -3   1    5.69    0.77
   6   3  -1   11.04    0.48
   6   3  -1   11.51    1.05
   5   3  -1   18.77    1.19
  -5  -3   1   21.33    1.11
   5   3  -1   20.74    0.80
   4   3  -1  139.98    3.71
  -4  -3   1  151.95    3.58
  -3  -3   1   77.74    2.21
   3   3  -1   75.34    2.18
  -2  -3   1  269.32    5.15
  -2   3   1  284.32    5.18
   2   3  -1  273.21    5.53
  -2  -3   1  269.82    5.51
  -1   3   1  483.10   10.19
  -1  -3   1  520.03    9.40
   0  -3  -1  948.65   17.27
   0   3  -1  984.95   17.52
   0   3  -1  992.79   17.23
   0   3   1  982.25   19.50
  -1   3  -1 1161.55   20.21
   1   3   1 1124.22   19.83
  -1  -3  -1 1173.39   22.65
  -1  -3  -1 1097.71   19.91
  -1  -3  -1 1103.74   20.15
  -2  -3  -1 1199.05   21.31
   2   3   1 1246.53   21.77
   2  -3   1 1172.12   22.00
   2   3   1 1204.28   21.28
   3   3   1 1318.14   22.94
   3   3   1 1264.01   23.56
  -3  -3  -1 1281.51   23.59
  -3   3  -1 1203.46   23.27
  -3  -3  -1 1350.41   26.31
   3   3   1 1368.34   23.69
   3  -3   1 1262.02   23.87
  -3  -3  -1 1260.83   22.50
   4   3   1 1199.11   22.63
   4  -3   1 1169.98   23.41
   4   3   1 1230.89   21.69
  -4  -3  -1 1233.53   25.26
  -4  -3  -1 1176.92   22.32
  -4   3  -1 1177.73   21.35
  -4  -3  -1 1164.13   21.39
  -5  -3  -1  659.95   13.34
  -5  -3  -1  680.74   12.61
   5   3   1  665.56   13.92
  -6  -3  -1  477.09   10.28
  -6  -3  -1  507.80    9.80
  -6  -3  -1  545.38   11.06
   6   3   1  502.99   11.20
   6  -3   1  470.41   12.45
   6   3   1  518.68   13.35
   7   3   1  431.98   11.02
  -7  -3  -1  317.03    7.56
  -7  -3  -1  391.71    8.65
   7   3   1  358.31    8.86
   7  -3   1  342.50   10.24
  -8  -3  -1  276.88    7.09
   8   3   1  336.92    9.20
   8   3   1  276.37    7.52
   8   3   1  375.00    9.74
  -8  -3  -1  236.20    5.88
   8  -3   1  271.58    8.95
  -9  -3  -1   59.38    2.06
   9  -3   1   54.46    2.91
   9   3   1   58.62    3.18
   9  -3   1   68.55    4.27
   9   3   1   75.33    3.96
  -9  -3  -1   63.16    3.01
  10   3   1   44.79    3.40
 -10  -3  -1   30.71    2.28
  10  -3   1   47.96    3.69
  10   3   1   30.97    2.49
  10   3   1   40.50    2.90
  10  -3   1   27.71    2.17
 -10  -3  -1   32.45    1.38
  11  -3   1   29.30    3.08
 -11  -3  -1   21.59    1.99
  11   3   1   31.66    3.17
  11   3   1   19.44    2.17
  11   3   1   26.86    2.50
  11  -3   1   19.20    1.94
  12   3   1   17.55    2.21
  12   3   1   21.47    2.32
  12   3   1   25.66    2.91
  12  -3   1   25.03    3.01
  13  -3   1    4.98    2.00
  13   3   1    5.51    1.87
  13   3   1    3.87    1.61
  14   3   1    0.29    1.47
  14   3   1    0.46    1.83
  14  -3   1    2.25    1.84
  15  -3   1    1.00    1.98
  15   3   1    2.01    1.94
  15   3   1    0.61    1.65
  16   4  -1    1.29    1.76
  16  -4  -1    2.86    2.00
  15   4  -1    2.44    1.71
  15   4  -1    3.30    1.70
  14   4  -1   46.73    3.18
  14   4  -1   45.02    3.32
  13   4  -1   19.45    2.24
  13   4  -1   18.90    2.22
  12   4  -1   -0.23    1.15
  12   4  -1   -0.07    1.38
  11   4  -1    6.92    1.47
 -11  -4   1    6.47    1.23
  11   4  -1    5.43    1.57
  10   4  -1  158.87    6.01
 -10  -4   1  163.49    4.89
  10   4  -1  154.00    5.31
  -9  -4   1   54.32    2.47
   9   4  -1   50.66    2.73
  -9  -4   1   46.03    1.07
   8   4  -1   30.89    2.76
  -8  -4   1   29.81    1.72
   8   4  -1   30.34    2.00
   7   4  -1   82.25    1.99
   7   4  -1   77.74    3.10
  -7  -4   1   79.39    2.80
   6   4  -1   36.67    1.24
   6   4  -1   39.82    1.94
  -6  -4   1   39.41    1.70
  -5  -4   1    2.93    0.53
   5   4  -1    0.35    0.43
   5   4  -1    0.85    0.36
   5   4  -1    1.27    1.13
   5  -4  -1    1.30    0.77
   4  -4  -1  690.42   12.90
   4   4  -1  496.52   10.82
   3   4  -1  978.23   17.50
   3   4  -1 1002.90   18.48
  -3  -4   1 1009.32   18.41
  -2   4   1   84.92    1.80
  -2  -4   1   88.47    2.29
  -2  -4   1   84.19    1.79
  -1  -4   1   26.29    1.03
   1   4  -1   22.99    2.19
  -1   4   1   23.84    1.02
   0  -4  -1  720.72   12.99
   0  -4  -1  723.05   12.74
   0   4   1  758.64   13.32
   0   4   1  705.20   15.57
  -1   4  -1  772.38   17.85
  -1  -4  -1  902.43   16.43
   1   4   1  795.22   18.41
   1   4   1  884.25   15.64
   1   4   1  861.07   16.43
   2   4   1    4.54    1.32
   2   4   1    3.88    0.37
  -2  -4  -1    3.96    1.38
  -2  -4  -1    3.99    0.63
   2   4   1    3.47    0.58
  -2   4  -1    3.10    0.82
   3   4   1   61.98    3.86
  -3  -4  -1   73.60    1.88
  -3  -4  -1   79.12    2.53
   3  -4   1   73.64    2.54
   3   4   1   75.36    1.83
  -3   4  -1   64.16    2.44
   3   4   1   76.09    2.26
  -3  -4  -1   82.13    4.39
   4   4   1   12.15    1.11
   4   4   1    9.85    1.87
  -4   4  -1   10.67    0.79
  -4  -4  -1   11.98    0.62
  -4  -4  -1   13.35    1.05
   4   4   1   14.41    1.15
   4   4   1   12.16    0.81
   4  -4   1   12.02    1.15
  -5  -4  -1   62.82    1.69
   5   4   1   65.19    2.67
   5   4   1   65.72    2.01
  -5  -4  -1   63.88    2.42
  -5  -4  -1   65.03    2.50
  -6  -4  -1  118.80    3.70
  -6  -4  -1  109.47    2.64
  -6  -4  -1  115.49    3.63
   6   4   1  111.33    3.93
   7   4   1  265.59    7.39
  -7  -4  -1  298.45    7.17
  -7  -4  -1  274.95    5.73
   7   4   1  307.82    9.60
   8   4   1   88.28    4.62
   8   4   1   73.25    3.43
  -8  -4  -1   70.04    2.11
  -8  -4  -1   73.88    3.12
   8  -4   1   56.71    3.76
  -9  -4  -1    0.30    0.75
   9   4   1    0.28    1.25
   9   4   1   -0.35    1.45
   9   4   1    0.07    0.93
  -9  -4  -1    0.02    0.43
   9  -4   1    0.93    1.20
  10   4   1   39.05    3.08
  10   4   1   32.74    2.55
  10  -4   1   33.18    3.21
 -10  -4  -1   30.61    2.19
  10   4   1   42.91    3.48
 -10  -4  -1   26.68    1.36
 -11  -4  -1   83.88    2.79
  11   4   1  141.34    6.22
 -11  -4  -1  101.42    4.20
  11  -4   1   81.97    3.81
  11   4   1   97.01    4.65
  11   4   1  128.26    5.27
  11  -4   1  118.20    5.97
 -12  -4  -1   16.76    1.94
  12   4   1   15.47    2.13
  12   4   1   19.29    2.39
 -12  -4  -1   12.14    1.08
  12  -4   1   20.29    2.87
  13  -4   1    3.52    2.01
  13   4   1    3.24    1.52
  13   4   1    5.26    2.00
  14   4   1   -0.71    1.53
  14  -4   1    0.87    1.89
  14   4   1   -0.34    1.85
  15   4   1    7.19    2.51
  15  -4   1    8.21    2.58
  16   5  -1    2.33    1.93
  15   5  -1   13.88    2.50
  15   5  -1   15.83    2.37
  15  -5  -1   15.07    2.69
  14   5  -1   11.12    2.32
  14  -5  -1   13.78    2.40
 -14   5   1   12.80    2.15
  14   5  -1    6.59    1.88
  13   5  -1    5.93    1.89
  13   5  -1    1.71    1.33
 -12  -5   1   32.89    2.25
  12   5  -1   34.73    3.03
  12   5  -1   31.55    2.66
 -11  -5   1  133.95    4.62
  11   5  -1  143.39    5.83
  10   5  -1  151.77    5.42
 -10  -5   1  150.86    4.77
  10   5  -1  163.25    6.42
   9   5  -1   83.48    3.65
  -9  -5   1   89.38    3.30
   8   5  -1  252.71    5.06
  -8  -5   1  250.12    6.26
   8   5  -1  235.33    6.71
  -7  -5   1  710.87   13.89
   7   5  -1  694.48   12.81
  -6  -5   1  618.04   12.83
   6   5  -1  592.29   13.21
   6   5  -1  619.07   12.20
   5   5  -1  268.08    9.36
   5   5  -1  258.36    6.35
  -4  -5   1  288.11    6.48
   4   5  -1  289.00    5.25
   4   5  -1  271.19    9.53
   4   5  -1  288.46    6.57
  -3  -5   1  733.29   13.17
   3   5  -1  732.04   13.12
  -3   5   1  727.50   13.16
  -3  -5   1  753.28   14.10
   2   5  -1  417.79   13.23
  -2  -5   1  521.57   10.29
  -1   5   1   39.37    1.45
  -1  -5   1   43.45    1.55
   0  -5   1    7.58    0.66
   0   5   1    7.35    1.32
   0   5   1    9.74    0.66
   0   5  -1    7.62    1.50
   1   5   1   80.98    2.74
  -1  -5  -1   81.43    2.63
  -1   5  -1   67.55    3.37
   1   5   1   80.61    2.05
   1   5   1   68.42    3.80
  -1  -5  -1   75.99    1.61
   2   5   1   75.68    4.25
  -2  -5  -1   98.12    2.97
  -2   5  -1   78.09    3.31
   2   5   1   87.65    2.77
   2   5   1   89.46    2.19
  -3   5  -1    6.98    0.96
   3   5   1    8.11    0.55
  -3  -5  -1    8.47    0.90
   3   5   1    8.23    1.80
   3   5   1    8.22    0.82
   4   5   1   83.84    5.00
  -4  -5  -1  121.18    3.48
  -4   5  -1   98.77    3.01
   4  -5   1   93.56    3.31
   4   5   1  109.01    2.99
  -5  -5  -1    3.35    0.45
  -5  -5  -1    3.58    0.78
   5   5   1    2.42    0.80
   5   5   1    1.56    1.61
   5   5   1    2.85    0.58
   5  -5   1    1.62    0.68
   5   5   1    3.25    0.86
  -6  -5  -1   73.12    1.96
  -6  -5  -1   76.05    2.92
   6   5   1   73.58    2.30
   6   5   1   72.71    3.16
  -6  -5  -1   76.79    2.88
  -7  -5  -1   19.37    1.55
   7  -5   1   14.08    1.72
   7   5   1   18.08    2.62
  -7  -5  -1   18.66    0.87
   7   5   1   16.43    1.62
  -8  -5  -1    2.81    0.46
   8   5   1    2.33    1.01
  -8  -5  -1    3.27    1.02
   8   5   1    4.29    1.36
   8   5   1    2.71    1.72
   8  -5   1    1.02    0.95
   9  -5   1   24.20    2.54
   9   5   1   29.19    2.36
   9   5   1   34.60    3.17
  -9  -5  -1   28.55    1.18
  -9  -5  -1   33.16    2.20
  10   5   1  118.48    5.49
  10  -5   1   78.56    4.69
 -10  -5  -1   89.65    2.53
  10   5   1   99.44    4.56
 -10  -5  -1  101.06    4.00
 -11  -5  -1   65.57    3.30
  11  -5   1   61.41    4.29
  11   5   1   65.63    3.83
  11   5   1   73.45    4.32
  12   5   1   19.95    2.77
  12  -5   1   17.76    2.68
 -12  -5  -1   15.37    1.88
  12   5   1   13.13    2.07
  13   5   1   26.43    2.82
 -13  -5  -1   25.67    2.42
  13  -5   1   27.46    3.30
  14   5   1   38.52    3.48
  14  -5   1   44.77    4.16
  14   5   1   51.63    4.25
  15   5   1   32.16    3.67
  15  -6  -1    3.54    2.03
  15   6  -1    1.94    2.06
  14   6  -1   -0.19    1.34
  14  -6  -1    2.04    1.78
  14   6  -1    0.69    1.74
  13   6  -1    2.40    1.49
  13   6  -1    5.51    2.05
  13  -6  -1    5.55    1.96
 -13  -6   1    2.90    1.23
  12   6  -1   18.33    2.20
  12   6  -1   29.04    2.98
  12  -6  -1   27.54    2.88
 -12  -6   1   17.35    1.82
 -11  -6   1   17.93    1.70
  11   6  -1   17.17    2.05
  10   6  -1    5.02    1.65
 -10  -6   1    3.54    0.99
  10   6  -1    4.35    1.29
  10   6  -1    4.70    1.96
   9   6  -1    0.66    0.93
  -9  -6   1    1.66    0.83
   9   6  -1    0.89    0.44
   9   6  -1    2.39    1.91
   8   6  -1   14.05    1.56
   8   6  -1   17.31    0.97
  -8  -6   1   18.24    1.44
   7   6  -1    1.92    0.57
   7   6  -1    4.79    1.84
   7   6  -1    3.90    0.96
  -7  -6   1    2.85    0.76
   6   6  -1   11.94    1.27
  -6  -6   1   15.19    1.22
   6   6  -1   16.68    2.56
   6   6  -1   12.82    0.99
   5   6  -1   62.22    2.24
   5   6  -1   60.07    4.38
  -4  -6   1   26.27    1.47
   4   6  -1   31.52    1.40
   4   6  -1   20.38    2.72
  -4   6   1   26.16    0.89
  -4  -6   1   25.91    0.89
   4   6  -1   25.47    0.74
  -3  -6   1   51.17    1.13
   3   6  -1   49.65    1.31
   3   6  -1   54.27    1.36
   3   6  -1   49.53    3.85
  -3  -6   1   56.17    2.05
  -2   6   1  128.98    3.48
   2   6  -1  128.19    2.95
  -1  -6   1  252.45    5.38
  -1   6   1  226.03    5.12
   0   6   1   51.00    3.24
   0   6  -1   48.75    3.27
   0  -6  -1   59.89    2.35
   0   6   1   55.43    2.51
   0  -6   1   62.42    2.06
   0   6   1   55.30    1.82
   1   6   1   39.93    1.41
  -1   6  -1   36.42    2.58
   1   6   1   37.64    3.02
  -1  -6  -1   42.03    1.96
   1   6   1   40.04    2.02
  -2   6  -1   45.09    2.58
  -2   6  -1   41.76    0.93
  -2  -6  -1   48.85    2.12
   2   6   1   47.65    1.47
   2   6   1   41.43    3.32
   2   6   1   44.19    2.00
  -3  -6  -1   35.52    1.83
   3   6   1   35.01    1.70
  -3   6  -1   31.08    1.98
   3   6   1   33.45    1.18
   4   6   1    1.73    0.63
   4   6   1    2.91    1.53
  -4   6  -1    2.35    0.74
  -4  -6  -1    2.25    0.77
   5   6   1   20.42    1.29
  -5  -6  -1   22.41    1.58
  -6  -6  -1    5.63    1.07
  -6  -6  -1    4.78    1.00
   6  -6   1    4.79    1.00
   6   6   1    4.28    0.76
  -7  -6  -1    7.99    1.13
  -7  -6  -1    8.60    1.28
   7  -6   1    5.56    1.13
   7   6   1    9.48    1.46
   7   6   1    7.83    1.35
   8   6   1   24.25    2.13
  -8  -6  -1   28.65    2.03
   8  -6   1   19.43    2.00
   8   6   1   27.68    3.09
  -9  -6  -1   38.71    2.43
   9  -6   1   22.37    2.35
   9   6   1   30.84    2.50
   9   6   1   49.66    3.24
   9   6   1   40.34    3.59
  -9  -6  -1   30.74    1.14
  10  -6   1    4.62    1.58
 -10  -6  -1    9.29    1.44
 -10  -6  -1    7.64    0.61
  10   6   1    7.68    1.57
  11   6   1    1.18    1.20
 -11  -6  -1    1.74    1.11
  11   6   1    1.77    1.79
  11  -6   1    0.11    1.51
  12  -6   1    3.38    1.82
  12   6   1    3.25    1.51
  12   6   1    5.60    2.08
 -12  -6  -1    4.44    1.41
  13   6   1    3.23    1.71
 -13  -6  -1    4.84    1.54
  13  -6   1    3.92    2.00
  13   6   1    5.84    2.29
  14   6   1   -0.48    2.25
 -14  -6  -1    0.43    1.41
  14  -6   1   -1.16    2.18
  15   7  -1   23.38    3.20
  15  -7  -1   22.27    3.16
  14  -7  -1    8.76    2.29
 -14  -7   1    8.86    1.66
  14   7  -1   11.65    2.61
  14   7  -1   10.40    2.06
  13  -7  -1    2.70    1.78
 -13  -7   1    1.19    1.30
  13   7  -1    0.81    1.32
  13   7  -1    2.25    1.84
  12  -7  -1    9.52    2.11
 -12  -7   1    7.86    1.48
  12   7  -1   10.78    2.18
  12   7  -1    6.12    1.59
 -11  -7   1   41.08    2.50
  11   7  -1   41.16    2.91
  11  -7  -1   41.69    3.28
 -10  -7   1   21.84    1.79
  10  -7  -1   19.05    2.19
  10   7  -1   18.62    1.99
  -9  -7   1    1.14    0.88
   9  -7  -1    0.66    1.01
   9   7  -1    0.97    0.56
   9   7  -1    0.31    0.86
   9   7  -1    1.94    1.30
   8   7  -1    1.36    0.60
   8   7  -1    3.47    1.19
   8   7  -1    2.09    1.05
  -8  -7   1    2.47    0.87
   8  -7  -1    0.14    0.87
   8   7  -1    1.12    2.02
  -7  -7   1   64.93    2.65
   7   7  -1   70.87    5.01
   7   7  -1   65.05    2.19
  -6   7   1   41.16    1.39
   6   7  -1   36.82    1.73
   6   7  -1   39.26    3.80
   6   7  -1   45.31    2.03
  -5   7   1    2.30    0.40
   5   7  -1    2.26    1.73
   5  -7  -1    2.05    0.59
   5   7  -1    1.94    0.76
  -5  -7   1    2.25    0.82
   5   7  -1    2.57    0.57
  -5  -7   1    2.21    0.41
   4   7  -1    2.68    0.33
   4  -7  -1    1.98    0.40
  -4  -7   1    2.70    0.78
   4   7  -1    3.17    1.90
   4   7  -1    2.64    0.86
  -4  -7   1    2.87    0.27
   3   7  -1  144.33    3.11
  -3   7   1  143.42    4.04
  -3  -7   1  152.60    4.07
   2   7  -1  181.49    7.60
  -2   7   1  192.56    4.83
   2   7  -1  197.88    4.27
  -1   7   1   34.96    1.55
  -1  -7   1   38.54    1.73
   1   7  -1   33.27    3.00
  -1   7   1   34.39    2.21
   0   7   1   41.13    1.60
   0   7  -1   35.99    2.96
   0  -7   1   41.07    1.78
   0   7   1   35.91    2.18
   0  -7  -1   41.29    2.07
  -1  -7  -1  302.07    6.95
   1   7   1  269.09    5.77
   1   7   1  268.18    6.90
   1   7   1  248.52    8.81
  -1   7  -1  247.83    7.90
   1  -7   1  297.04    6.38
  -2   7  -1  438.05   11.06
   2   7   1  441.58    9.92
   2   7   1  462.24    8.95
   3   7   1  131.62    3.94
  -3   7  -1  125.32    4.36
   3   7   1  133.23    3.12
  -4  -7  -1   61.40    2.63
   4   7   1   53.61    2.21
  -5  -7  -1  178.64    5.08
   5   7   1  166.30    4.43
  -6  -7  -1  305.55    7.51
  -6  -7  -1  288.51    7.44
   6   7   1  299.61    6.71
  -7  -7  -1   71.20    3.12
   7   7   1   70.80    2.52
  -7  -7  -1   76.72    3.26
   8  -7   1    7.87    1.35
  -8  -7  -1    8.27    1.29
   9   7   1   28.81    2.44
  -9  -7  -1   32.24    2.23
  10   7   1   52.66    3.41
 -10  -7  -1   56.73    3.04
  11   7   1   16.53    2.43
 -11  -7  -1   13.96    1.77
  11   7   1   12.52    1.97
 -12  -7  -1    0.32    1.24
  12   7   1    0.10    1.81
  12  -7   1   -0.58    1.77
  12   7   1    0.77    1.38
 -13  -7  -1    2.61    1.53
  13   7   1    1.77    2.08
  13  -7   1   -0.88    2.02
  14   7   1   11.77    2.88
  14  -7   1    3.04    2.24
 -14  -8   1   -0.43    1.34
 -13  -8   1   -0.06    1.24
  13   8  -1   -0.46    1.52
  13   8  -1    0.56    1.90
  12   8  -1    1.18    1.41
 -12  -8   1    1.69    1.27
  12   8  -1    1.97    1.75
  11   8  -1   -0.15    1.54
  11  -8  -1   -0.52    1.38
 -11  -8   1    0.63    1.10
  11   8  -1    0.85    1.31
  10  -8  -1   -0.15    1.04
 -10  -8   1    0.25    1.03
  10   8  -1   -0.20    1.31
   9   8  -1    0.32    0.66
  -9  -8   1   -0.19    1.00
   9  -8  -1    0.07    0.88
   9   8  -1    0.16    1.07
   8  -8  -1    2.65    0.88
   8   8  -1    3.68    0.81
  -8   8   1    3.54    0.74
   8   8  -1    3.99    1.03
  -8  -8   1    4.56    1.07
  -7  -8   1    0.47    0.85
  -7  -8   1    0.61    0.52
   7   8  -1    2.75    0.85
   7   8  -1   -0.06    0.75
  -7   8   1    0.34    0.54
   7  -8  -1    1.01    0.65
  -6  -8   1    4.22    0.48
  -6   8   1    3.95    0.46
   6   8  -1    3.56    0.92
   6  -8  -1    3.01    0.64
  -5   8   1    3.67    1.58
  -5  -8   1    6.32    1.10
   5   8  -1    5.10    1.05
   5   8  -1    7.52    2.42
  -4   8   1    0.70    0.82
   4   8  -1    1.73    1.91
   4   8  -1    1.94    0.89
  -4  -8   1    1.27    0.80
  -4   8   1    1.61    1.37
   4   8  -1    1.77    0.37
   3   8  -1    0.87    1.80
   3   8  -1    0.09    0.85
   3   8  -1   -0.42    0.44
  -3   8   1   -0.59    0.78
  -3  -8   1    0.31    0.73
  -2   8   1   21.07    1.38
  -2  -8   1   19.09    1.41
   2   8  -1   19.15    1.01
  -2   8   1   19.99    2.05
   1   8  -1   23.06    1.21
   1   8  -1   22.13    2.67
  -1   8   1   25.08    1.39
   1  -8  -1   26.63    1.78
  -1   8   1   21.15    1.94
  -1  -8   1   28.01    1.59
   0  -8   1   -0.25    0.64
   0   8   1    0.41    0.58
   0  -8  -1    0.72    0.76
   0   8  -1    0.62    1.33
   0   8   1    0.15    0.93
   1   8   1    1.25    0.55
  -1   8  -1    0.30    1.17
   1  -8   1    0.90    0.65
   1   8   1    0.41    0.86
  -1  -8  -1    0.96    0.86
  -2   8  -1    6.70    1.37
   2   8   1    7.62    0.75
  -2  -8  -1    7.44    1.15
   2   8   1    6.46    2.06
   2   8   1    6.61    1.10
  -3  -8  -1   15.16    1.45
   3   8   1   12.46    0.85
   3   8   1   12.67    1.30
  -3   8  -1   12.51    1.52
   3   8   1   12.43    2.55
  -4  -8  -1    0.63    0.93
   4   8   1    0.54    1.98
  -4  -8  -1    0.34    0.23
   4   8   1    0.31    0.44
   4   8   1    0.03    0.76
  -5  -8  -1    5.09    1.11
   5   8   1    6.27    1.02
   6   8   1    0.49    0.79
  -6  -8  -1    1.25    1.03
  -7  -8  -1    1.98    1.03
   7   8   1    1.34    0.81
  -7  -8  -1    1.04    0.97
  -8  -8  -1   -0.16    1.05
  -9  -8  -1    5.86    1.37
 -10  -8  -1    2.38    1.33
 -11  -8  -1    0.31    1.24
 -12  -8  -1   -0.07    1.34
 -12  -9   1    4.03    1.34
 -11  -9   1   10.94    1.65
 -10  -9   1   15.95    1.77
   9   9  -1    5.42    0.95
  -9  -9   1    6.32    1.36
  -8   9   1   10.07    0.76
  -8  -9   1    9.47    1.37
   8   9  -1   10.18    1.16
  -7  -9   1   30.85    2.07
   7   9  -1   28.10    1.71
   6   9  -1   33.77    1.95
  -6   9   1   35.55    2.39
  -5   9   1   17.07    1.66
   5   9  -1   16.20    1.53
   4   9  -1   22.66    1.86
  -4   9   1   22.99    1.73
  -4  -9   1   24.00    1.72
   4   9  -1   20.63    0.84
  -3   9   1   60.48    2.53
  -3  -9   1   68.28    2.73
   3   9  -1   55.30    1.71
   3   9  -1   63.49    3.03
  -2   9   1   66.74    2.52
   2   9  -1   60.55    3.15
   2  -9  -1   68.16    2.94
   2   9  -1   59.42    4.49
  -2  -9   1   71.57    2.74
   2   9  -1   62.18    1.97
  -1  -9   1   38.23    1.94
   1   9  -1   34.45    3.26
  -1   9   1   32.95    1.68
   1   9  -1   34.60    1.53
   1  -9  -1   33.84    2.09
   0   9   1   28.79    2.26
   0  -9  -1   32.16    2.09
   0   9  -1   29.94    1.57
   0   9   1   29.95    1.50
   0  -9   1   32.38    1.81
   0   9  -1   30.55    2.83
   1   9   1   62.08    3.00
   1   9   1   65.88    2.21
   1  -9   1   71.07    2.70
  -1  -9  -1   72.36    3.08
  -1   9  -1   59.43    3.60
  -2   9  -1   66.96    3.61
   2   9   1   73.50    3.19
   2  -9   1   77.87    2.83
   2   9   1   74.01    2.28
  -2  -9  -1   82.68    3.30
   3   9   1   31.10    1.95
   3   9   1   29.61    1.31
  -3  -9  -1   34.95    2.19
   4   9   1   20.19    1.64
  -4  -9  -1   21.13    1.79
   5   9   1   37.25    2.09
  -5  -9  -1   40.98    2.47
  -6   9  -1   23.43    0.66
   6   9   1   39.72    2.02
  -7  -9  -1   16.77    1.78
   7   9   1   17.05    1.50
  -8  -9  -1    5.84    1.38
   8   9   1    5.40    1.15
  -9  -9  -1   13.10    1.77
 -10  -9  -1   13.39    1.81
 -11  -9  -1    5.07    1.63
 -10 -10   1    0.79    1.26
  -9 -10   1   -0.43    1.16
  -8 -10   1    1.38    1.10
   7  10  -1    0.46    0.93
  -7  10   1   -0.24    1.29
  -7 -10   1    0.10    1.01
   6  10  -1    4.11    1.15
  -6  10   1    6.31    1.48
  -5  10   1    5.81    1.31
  -4  10   1   -0.21    0.95
   4  10  -1   -0.05    0.41
  -4 -10   1    0.36    0.97
   3  10  -1    1.25    0.53
  -3  10   1    0.38    0.88
  -3 -10   1    0.33    0.90
   3 -10  -1    0.38    1.04
  -2 -10   1   16.42    1.52
   2 -10  -1   13.46    1.54
   2  10  -1   14.26    0.96
  -2  10   1   14.97    1.36
   1  10  -1   15.56    1.14
  -1  10   1   15.31    1.27
  -1 -10   1   16.99    1.46
   1 -10  -1   15.28    1.65
   0  10  -1    0.16    0.73
   0 -10  -1   -0.05    1.07
   0 -10   1    0.25    0.80
   0  10   1    0.13    0.74
   1  10   1    1.33    0.70
  -1 -10  -1    1.83    1.05
  -1  10  -1    2.38    0.91
   1 -10   1    1.23    0.89
   2  10   1    2.94    0.75
   2 -10   1    4.09    1.01
  -2  10  -1    3.56    1.09
  -2 -10  -1    3.95    1.20
  -3 -10  -1    6.41    1.42
   3  10   1    4.48    0.76
   3 -10   1    4.99    1.05
   4 -10   1    1.77    0.89
  -7 -10  -1   -0.47    1.16
  -8 -10  -1    0.66    1.28
  -7 -11   1   17.57    1.90
  -5  11   1   28.35    2.16
  -4  11   1   25.60    1.96
  -3  11   1   18.30    1.63
  -2  11   1   13.39    1.37
  -1  11   1   12.11    1.26
   1  11  -1   12.26    1.08
   0  11  -1   10.44    1.12
   0  11   1    9.13    1.11
   1  11   1    4.02    0.84
  -1  11  -1    4.20    1.06
  -2  11  -1    2.36    1.09
   2  11   1    2.16    0.75
  -3  11  -1    3.47    1.29
  -4  11  -1    2.24    1.37
  -3  12   1    6.35    1.34
  -2  12   1    3.13    1.09
  -3  12  -1   -0.04    1.22
  16   0  -2   15.06    1.56
  15   0  -2   14.43    1.79
  15   0  -2   16.92    1.60
  14   0  -2  125.45    4.76
  14   0  -2  121.03    4.10
  13   0  -2  263.97    7.42
  12   0  -2  110.74    4.12
 -12   0   2   99.82    2.37
  11   0  -2   27.23    1.96
 -11   0   2   20.91    0.90
 -10   0   2  139.88    3.28
  10   0  -2  182.35    5.13
  -9   0   2  465.65    9.48
   9   0  -2  658.60   11.67
  -8   0   2   43.00    1.40
   8   0  -2   53.42    2.28
  -7   0   2   53.82    1.58
  -6   0   2    4.08    0.39
  -5   0   2  439.15    8.66
  -5   0   2  438.40    8.59
  -4   0   2   14.30    0.66
   4   0  -2   14.56    0.60
  -3   0   2  886.67   15.73
  -3   0   2  871.25   15.85
   2   0  -2  295.59    5.49
  -2   0   2  279.80    5.46
  -2   0   2  280.68    5.39
   1   0  -2 1246.03   22.26
  -1   0   2 1276.14   22.28
   1   0  -2 1253.19   22.25
   0   0  -2  154.65    3.24
   0   0  -2  155.75    3.31
  -1   0  -2  249.64    5.05
  -1   0  -2  257.13    5.35
  -2   0  -2   25.55    1.24
  -2   0  -2   25.82    1.06
  -2   0  -2   27.82    1.32
  -3   0  -2 2008.76   36.42
   3   0   2 1947.54   36.41
  -3   0  -2 1989.71   35.81
  -3   0  -2 1955.53   36.37
  -4   0  -2 1748.75   32.25
   4   0   2 1672.18   32.22
  -4   0  -2 1722.25   31.47
  -5   0  -2  163.20    4.84
   5   0   2  162.03    5.00
  -5   0  -2  156.30    4.21
   6   0   2  264.01    7.19
  -6   0  -2  263.75    6.96
   7   0   2  968.00   21.12
   7   0   2 1148.68   23.35
   8   0   2 1148.80   24.48
   8   0   2 1300.92   27.01
   9   0   2  210.67    8.03
   9   0   2  195.99    6.47
  10   0   2   28.48    2.43
  10   0   2   27.30    2.32
  11   0   2  164.51    6.04
  11   0   2  156.97    6.06
  12   0   2  188.37    6.66
  12   0   2  181.08    6.73
  13   0   2   22.05    3.09
  13   0   2   20.94    2.27
  14   0   2    0.65    1.96
  14   0   2    0.51    1.27
  15   0   2    4.68    2.28
  15   0   2    5.76    1.70
  17   1  -2    2.95    1.43
  17   1  -2    4.03    1.43
  16  -1  -2    5.01    1.11
  16   1  -2    5.01    1.31
  16   1  -2    5.50    1.59
  15  -1  -2    0.38    0.83
  15   1  -2    1.06    1.19
  15   1  -2   -0.15    1.08
  14   1  -2    6.06    1.36
  14  -1  -2    6.92    1.41
 -14   1   2    8.80    0.91
  14   1  -2    6.66    1.40
  14  -1  -2    7.37    1.15
  13   1  -2    0.43    1.06
  13   1  -2    0.79    1.07
  13  -1  -2    0.18    0.96
 -13   1   2    0.23    0.60
  12  -1  -2    0.33    0.84
 -12   1   2    0.20    0.54
  12   1  -2    0.63    0.94
  11  -1  -2   50.79    2.57
 -11   1   2   47.82    2.05
 -10   1   2  128.36    3.82
  10   1  -2  179.95    5.07
   9   1  -2   96.29    3.31
  -9   1   2   60.14    2.32
  -8   1   2   33.87    1.62
   8   1  -2   49.69    2.19
  -7   1   2  137.84    3.80
   7   1  -2  173.39    4.40
  -6  -1   2  483.26    8.91
   6   1  -2  480.19    9.69
   5   1  -2   74.89    2.26
   5   1  -2   73.30    1.58
  -5   1   2   68.80    2.17
  -5  -1   2   75.12    1.78
  -4   1   2   14.58    0.75
   4   1  -2   15.49    0.75
  -4  -1   2   13.72    0.54
   3   1  -2   39.93    1.00
  -3   1   2   42.30    1.45
  -3  -1   2   39.88    1.21
  -3   1   2   41.57    1.26
  -3  -1   2   40.35    1.03
   2  -1  -2   18.11    0.73
  -2   1   2   16.71    0.70
   2  -1  -2   18.37    0.71
  -2   1   2   19.36    0.91
   2  -1  -2   16.35    0.80
  -1   1   2  212.09    4.18
  -1  -1   2  200.56    3.92
   1  -1  -2  208.49    4.13
   1  -1  -2  221.98    4.53
   1  -1  -2  216.65    4.17
   0  -1  -2  775.66   13.99
   0  -1  -2  793.78   14.44
   0   1   2  763.11   13.98
   0   1  -2  772.55   13.71
  -1  -1  -2 1180.49   20.90
  -1   1  -2 1153.69   20.73
  -1  -1  -2 1172.30   21.14
   1  -1   2 1170.08   20.75
   2   1   2  123.68    3.19
  -2  -1  -2  127.89    3.25
  -2  -1  -2  123.13    3.09
  -2  -1  -2  122.46    3.38
   2  -1   2  130.16    3.00
   3  -1   2  267.13    5.69
  -3  -1  -2  255.99    5.99
  -3  -1  -2  254.04    5.56
   3   1   2  251.00    5.85
  -3  -1  -2  261.52    5.87
  -3  -1  -2  252.23    6.00
   3  -1   2  275.65    6.55
   4   1   2  439.63    9.44
   4  -1   2  460.58   10.34
  -4  -1  -2  438.74    9.35
  -4  -1  -2  430.43    9.50
  -4  -1  -2  418.66    8.89
   4  -1   2  443.52    9.23
  -5  -1  -2  423.60    9.47
  -5   1  -2  434.36    8.50
   5  -1   2  448.65    9.57
   5   1   2  424.27    9.61
   5  -1   2  471.82   11.10
  -5  -1  -2  394.58    9.44
   6  -1   2    0.93    0.58
  -6  -1  -2    0.53    0.71
   6  -1   2    0.76    0.72
  -6  -1  -2    1.20    0.68
  -6   1  -2    2.03    0.50
   6  -1   2    1.40    0.93
   6   1   2    1.65    0.69
   7   1   2    5.63    1.08
  -7  -1  -2    5.70    1.09
   7  -1   2    5.12    1.44
   7  -1   2    6.29    1.09
   7  -1   2    4.59    1.09
  -7  -1  -2    4.38    1.02
   8  -1   2    5.33    1.08
   8   1   2    5.67    1.19
   8  -1   2    5.14    1.22
   8  -1   2    4.91    1.61
   9   1   2    4.77    1.22
   9  -1   2    4.28    1.12
   9  -1   2    4.40    1.27
   9  -1   2    3.16    1.43
  10  -1   2   30.88    2.48
  10   1   2   30.02    2.44
  10  -1   2   38.63    3.46
  10  -1   2   31.81    2.35
  11   1   2   46.68    3.15
  11  -1   2   49.04    2.99
  11  -1   2   58.25    4.32
  11  -1   2   47.41    3.18
  12  -1   2   12.98    1.83
  12  -1   2   13.29    2.62
  12   1   2   11.58    1.93
  13  -1   2    1.78    1.85
  13  -1   2    2.38    1.23
  14  -1   2   10.41    2.53
  14  -1   2    8.14    1.65
  15  -1   2    9.07    1.81
  15  -1   2    7.16    2.28
  15   1   2    6.50    1.95
  17   2  -2    7.90    1.71
  16  -2  -2    1.14    0.78
  16   2  -2    2.23    1.40
  16   2  -2    0.74    1.28
  15   2  -2    1.60    1.27
  15   2  -2    0.22    1.17
  15   2  -2    0.53    1.02
  15  -2  -2    0.77    0.76
 -14   2   2   14.34    1.40
  14  -2  -2   10.23    1.55
  14   2  -2   15.24    2.01
  14   2  -2   11.12    1.59
  14  -2  -2   12.04    1.12
  14   2  -2   12.64    1.78
  13  -2  -2   21.98    1.89
  13   2  -2   19.14    1.92
  13   2  -2   24.07    2.06
 -12   2   2   13.05    1.40
  12   2  -2   11.85    1.47
 -11   2   2    2.41    0.90
  11   2  -2    1.28    0.78
 -10   2   2   51.42    2.55
  10   2  -2   66.39    2.86
   9   2  -2  259.14    5.93
  -9   2   2  157.75    5.16
  -8  -2   2  213.42    4.30
   8   2  -2  231.68    5.42
  -7  -2   2  112.79    2.44
   7   2  -2  112.00    3.24
   6   2  -2  720.17   13.20
  -6  -2   2  696.14   12.33
  -5   2   2 1457.11   26.91
  -5  -2   2 1433.73   25.39
  -5  -2   2 1513.00   26.20
   4   2  -2 1398.24   24.26
  -4  -2   2 1375.01   24.74
  -4   2   2 1370.72   25.10
  -4   2   2 1400.74   25.62
  -3  -2   2  615.92   10.60
  -3   2   2  589.54   11.64
   3   2  -2  590.07   10.56
  -3   2   2  572.28   11.13
  -3  -2   2  581.83   10.93
  -2  -2   2 1249.52   22.07
   2  -2  -2 1271.31   22.11
   2  -2  -2 1270.41   22.32
  -2   2   2 1258.20   22.32
  -2   2   2 1294.82   22.82
   1  -2  -2 2874.78   47.29
   1  -2  -2 3022.95   47.93
  -1   2   2 3022.73   47.85
   0  -2  -2 1331.18   23.76
   0   2   2 1316.98   24.25
   0  -2  -2 1373.00   24.38
   1  -2   2  148.80    2.88
  -1  -2  -2  134.10    3.38
  -1  -2  -2  136.30    3.03
  -1  -2  -2  141.77    4.00
  -1  -2  -2  140.59    3.51
  -2  -2  -2  183.14    5.01
  -2  -2  -2  185.17    4.56
  -2  -2  -2  191.64    3.96
  -2  -2  -2  193.68    4.43
  -2  -2  -2  191.19    4.36
   2   2   2  191.38    4.53
  -3  -2  -2  747.58   14.13
  -3  -2  -2  730.84   14.22
  -3  -2  -2  742.14   14.57
  -3  -2  -2  755.31   15.23
  -3  -2  -2  739.38   14.08
  -3  -2  -2  743.41   13.60
   3   2   2  738.88   14.33
  -4  -2  -2  296.17    7.84
  -4  -2  -2  312.62    6.96
  -4  -2  -2  309.19    6.89
   4  -2   2  333.86    8.21
  -4  -2  -2  316.35    7.17
   4   2   2  314.49    7.28
   4   2   2  349.75    8.16
   5  -2   2    9.41    1.34
  -5  -2  -2   10.76    0.89
  -5  -2  -2    7.91    0.96
   5   2   2    9.77    1.31
  -5  -2  -2    8.47    1.23
   5   2   2    9.29    1.01
  -5  -2  -2    9.61    0.92
   6  -2   2    9.61    1.53
   6   2   2    7.10    1.00
  -6  -2  -2    6.41    0.74
  -6  -2  -2    7.97    1.38
   6   2   2   11.14    1.56
  -7  -2  -2   39.47    1.81
   7  -2   2   48.71    3.34
   7   2   2   47.06    2.56
   8   2   2   73.63    3.45
   8  -2   2   79.83    4.57
   8   2   2   74.60    3.43
  -8  -2  -2   67.26    2.45
   8  -2   2   71.30    3.55
   9  -2   2    0.33    1.25
   9   2   2    2.57    1.04
  -9  -2  -2    1.86    0.57
   9  -2   2    2.70    1.04
   9   2   2    1.85    1.01
   9   2   2    1.80    1.47
  10   2   2    6.99    1.46
  10   2   2    9.45    2.15
  10   2   2    6.81    1.40
  10  -2   2    5.97    1.34
 -10  -2  -2    5.05    1.33
 -10  -2  -2    6.48    0.79
  10  -2   2    8.84    1.36
  10  -2   2    6.48    1.84
  11   2   2   26.39    2.53
 -11  -2  -2   26.27    1.42
  11  -2   2   33.61    3.41
  11  -2   2   33.16    2.36
  11   2   2   34.48    3.43
  11   2   2   25.82    2.40
  11  -2   2   25.83    2.38
  12   2   2   46.11    3.35
  12   2   2   43.36    3.18
  12  -2   2   52.40    4.24
 -12  -2  -2   42.81    1.76
  12  -2   2   48.50    2.92
  13  -2   2   11.40    1.64
  13  -2   2   13.47    2.75
  13   2   2   16.77    2.83
 -13  -2  -2   11.48    0.90
  14  -2   2    4.56    1.38
  14  -2   2    3.51    1.98
  14   2   2    3.67    2.09
  15  -2   2   10.67    1.83
  16   3  -2    4.78    1.73
  16   3  -2    3.33    1.54
  15   3  -2    3.27    1.52
  15   3  -2    1.60    1.38
 -14   3   2   22.32    1.98
  14   3  -2   16.01    2.06
  14   3  -2   19.77    2.20
  13   3  -2   11.95    1.55
  13   3  -2    8.10    1.72
 -13   3   2   11.55    1.65
  13   3  -2   11.49    1.74
  13  -3  -2    9.17    0.80
  12   3  -2   67.24    3.43
 -12   3   2   63.43    3.09
  12   3  -2   53.77    3.19
  12   3  -2   56.20    2.83
 -11   3   2    0.53    0.98
 -11  -3   2    0.24    0.39
  11   3  -2    0.07    0.95
 -10  -3   2   15.38    0.81
 -10   3   2   13.93    1.64
  -9  -3   2   37.79    1.13
   9   3  -2   47.30    2.52
   8   3  -2  307.98    7.29
  -8  -3   2  315.18    6.66
  -7  -3   2   32.60    1.57
   7   3  -2   29.26    1.75
   7   3  -2   32.29    0.83
   6   3  -2   75.57    2.63
  -6  -3   2   76.79    2.27
   5   3  -2    8.65    0.77
  -5  -3   2    8.98    0.64
  -4   3   2  444.21    9.89
   4   3  -2  452.60    8.96
  -4  -3   2  472.94    8.61
  -4   3   2  431.31    9.08
  -4   3   2  463.05    8.66
  -3   3   2    8.55    0.90
  -3   3   2    9.66    0.54
  -3  -3   2    8.04    0.51
   3   3  -2    7.82    0.52
  -2   3   2  422.46    8.62
  -2   3   2  402.69    7.51
  -2  -3   2  400.49    7.51
   2   3  -2  402.19    7.44
   1  -3  -2  191.54    3.94
  -1   3   2  201.13    4.74
   1  -3  -2  202.03    4.30
   1   3  -2  198.83    3.92
   0  -3  -2  113.94    3.77
   0  -3  -2  110.16    2.61
   0  -3  -2  119.49    3.37
  -1   3  -2    1.77    0.39
  -1  -3  -2    1.91    0.33
  -1  -3  -2    2.60    0.58
   1   3   2    2.57    0.35
  -1  -3  -2    2.33    0.47
  -1  -3  -2    2.34    0.77
  -2  -3  -2  599.33   11.39
   2   3   2  617.96   11.87
  -2   3  -2  576.22   11.99
   2   3   2  627.65   11.43
  -2  -3  -2  628.32   13.60
  -2  -3  -2  655.01   12.37
  -2  -3  -2  604.22   12.15
  -3  -3  -2  463.69    9.28
  -3  -3  -2  439.38    8.36
  -3  -3  -2  415.76   10.45
  -3  -3  -2  433.23    9.38
  -3  -3  -2  395.82    8.91
   3   3   2  443.42    9.35
  -4  -3  -2   20.14    1.28
   4   3   2   20.26    1.38
   4  -3   2   20.77    1.66
  -4  -3  -2   20.90    0.99
  -4  -3  -2   20.03    1.24
  -4  -3  -2   20.16    1.90
   5   3   2   51.20    2.72
   5  -3   2   43.58    2.62
  -5  -3  -2   44.27    2.94
   5   3   2   41.43    2.16
  -5  -3  -2   43.46    1.97
  -5  -3  -2   43.45    1.58
  -5  -3  -2   43.80    1.89
  -6  -3  -2  122.51    3.67
   6  -3   2  134.08    5.26
  -6  -3  -2  132.74    4.01
   6   3   2  138.97    4.53
  -6  -3  -2  133.10    3.45
  -6  -3  -2  125.55    5.20
   7  -3   2  135.94    5.77
  -7  -3  -2  127.23    3.81
   8  -3   2   33.55    3.00
   8   3   2   31.86    2.29
  -8  -3  -2   28.60    1.53
  -8  -3  -2   36.26    2.23
   9   3   2   56.04    3.23
  -9  -3  -2   58.90    2.99
  -9  -3  -2   50.97    2.07
   9  -3   2   51.81    3.94
  10   3   2    3.27    1.71
  10   3   2    2.25    1.19
  10  -3   2    2.55    1.53
 -10  -3  -2    3.01    1.22
 -10  -3  -2    1.69    0.60
  11   3   2   13.71    1.96
  11   3   2   21.20    2.92
  11  -3   2   19.14    2.84
  11  -3   2   16.76    1.98
 -11  -3  -2   17.05    1.95
 -11  -3  -2   14.84    1.09
  12   3   2   12.70    2.66
 -12  -3  -2    6.74    1.57
  12  -3   2    7.84    2.40
  12  -3   2    9.72    1.46
 -12  -3  -2    7.37    0.83
  12   3   2    7.00    1.77
  13  -3   2   23.24    2.15
  13   3   2   22.10    2.62
  13  -3   2   28.47    3.41
  13   3   2   28.12    3.35
  14  -3   2   -0.14    2.08
  14  -3   2    1.07    1.15
  14   3   2    0.38    2.04
  14   3   2   -0.31    1.59
  15  -3   2    3.23    1.41
  16   4  -2   15.81    2.38
  15   4  -2   22.24    2.57
  14   4  -2   12.77    2.02
  14   4  -2   14.09    2.07
 -13   4   2   24.72    2.29
  13   4  -2   22.32    2.36
  13   4  -2   18.85    2.37
  12   4  -2   62.95    3.43
 -12   4   2   65.32    3.44
  12   4  -2   55.50    3.55
  11   4  -2   89.97    4.58
  11   4  -2   99.16    4.31
 -11   4   2   86.40    4.23
  10   4  -2   56.25    2.97
 -10  -4   2   59.18    2.61
   9   4  -2   52.87    2.67
  -9  -4   2   58.78    2.42
   8   4  -2  120.64    2.33
  -8  -4   2  113.10    3.42
   8   4  -2  112.71    3.88
   7   4  -2  262.52    6.40
  -7  -4   2  266.52    5.84
   7   4  -2  266.19    5.06
  -6  -4   2  159.62    3.75
   6   4  -2  146.23    4.03
  -5   4   2   62.67    2.94
  -5  -4   2   72.07    2.09
   5   4  -2   67.16    2.29
  -4   4   2  105.03    3.77
  -4  -4   2  113.71    2.70
   4   4  -2  110.57    2.96
  -3   4   2  361.89    6.88
  -3   4   2  357.40    8.36
  -3  -4   2  353.91    6.86
   3   4  -2  362.66    7.13
  -2   4   2  253.01    6.02
  -2   4   2  221.92    5.13
  -1   4   2  110.15    2.81
   1  -4  -2  120.00    2.54
   1   4  -2  112.78    2.43
  -1  -4   2  117.41    2.47
   0   4   2  110.30    2.69
   0  -4  -2  108.87    2.41
   0   4  -2  103.56    2.75
   0   4  -2  104.59    2.34
   0  -4   2  115.01    2.33
  -1  -4  -2  266.12    6.03
  -1  -4  -2  282.38    5.77
  -1  -4  -2  298.24    8.18
   1   4   2  285.57    5.68
   1   4   2  289.18    6.29
  -1   4  -2  265.84    5.94
  -2  -4  -2  296.50    7.04
   2   4   2  275.88    5.63
  -2  -4  -2  274.53    8.07
   2   4   2  280.77    6.16
  -2  -4  -2  265.15    6.27
  -2   4  -2  267.75    6.20
  -2  -4  -2  277.14    5.67
   3   4   2  142.50    3.64
  -3  -4  -2  145.86    4.39
  -3  -4  -2  132.65    3.18
  -3  -4  -2  135.05    5.42
  -4  -4  -2  118.44    2.84
  -4  -4  -2  118.60    3.84
  -4  -4  -2  119.54    5.25
   4   4   2  115.79    3.82
   4   4   2  121.79    3.25
  -5  -4  -2  171.74    6.45
  -5  -4  -2  172.09    4.86
   5  -4   2  169.58    5.46
   5   4   2  169.04    5.03
  -5  -4  -2  172.79    3.81
   6  -4   2  171.89    6.18
  -6  -4  -2  192.04    5.35
   6   4   2  180.73    5.58
  -6  -4  -2  183.95    4.29
  -6  -4  -2  179.94    5.21
  -7  -4  -2   81.96    2.49
  -7  -4  -2   82.84    3.10
  -7  -4  -2   90.14    3.47
   7  -4   2   72.88    3.99
   7   4   2   79.28    3.56
  -8  -4  -2   56.29    2.45
  -8  -4  -2   60.95    2.92
   8  -4   2   48.75    3.45
   8   4   2   56.90    3.14
  -8  -4  -2   55.38    2.05
   9   4   2   62.22    3.52
  -9  -4  -2   66.33    2.58
  -9  -4  -2   61.28    2.30
  -9  -4  -2   69.56    3.23
 -10  -4  -2   57.04    2.27
  10  -4   2   54.93    4.21
 -10  -4  -2   68.08    2.57
 -10  -4  -2   64.45    3.26
  10   4   2   63.87    3.70
 -11  -4  -2   32.81    2.52
  11  -4   2   31.82    3.36
 -11  -4  -2   27.45    1.60
  11   4   2   32.66    2.81
 -12  -4  -2   10.26    1.09
  12   4   2   16.58    2.78
  12  -4   2   12.95    2.64
 -12  -4  -2    9.91    1.73
  12   4   2   11.51    2.04
 -13  -4  -2   11.18    1.89
  13   4   2   12.45    2.18
  13  -4   2   11.74    1.61
  13  -4   2   14.25    2.73
  13   4   2   16.84    2.98
  14   4   2   21.67    3.33
  14  -4   2   18.50    3.14
  14  -4   2   16.79    1.90
  15  -4   2    7.34    1.54
  15   5  -2   -0.83    1.52
 -14   5   2    3.07    1.64
  14   5  -2    3.14    1.50
  13   5  -2    2.19    1.43
 -13   5   2    2.35    1.57
 -12   5   2   26.00    2.63
  12   5  -2   20.63    2.66
  12   5  -2   20.38    2.16
  11   5  -2   -0.27    1.07
 -11  -5   2    0.05    0.84
  11   5  -2    0.66    1.65
 -11   5   2    1.76    1.40
  10   5  -2    2.64    1.75
 -10  -5   2    3.75    0.95
  10   5  -2    4.34    1.16
  10  -5  -2    4.60    0.95
 -10   5   2    3.42    1.40
   9   5  -2    4.12    1.02
  -9  -5   2    3.94    0.83
   9  -5  -2    6.47    1.19
   9   5  -2    5.26    0.42
  -9   5   2    3.11    1.31
   9   5  -2    5.34    1.77
  -8  -5   2   69.81    2.58
   8   5  -2   64.50    2.88
   7   5  -2    1.84    0.51
  -7  -5   2    1.42    0.58
   7   5  -2    2.14    0.74
   7  -5  -2    1.61    1.09
  -7   5   2    1.36    1.00
  -6  -5   2   29.31    1.39
   6   5  -2   28.36    1.62
  -5  -5   2    0.88    0.39
   5   5  -2    0.42    0.45
  -5   5   2    0.88    0.39
   5  -5  -2    0.06    0.94
  -5   5   2    0.11    0.84
  -4   5   2   68.68    2.42
   4   5  -2   69.66    2.25
  -4   5   2   73.53    1.89
  -4  -5   2   72.32    1.88
   4   5  -2   74.16    1.49
  -3   5   2    0.02    0.44
  -3  -5   2    0.29    0.26
  -3   5   2    0.54    0.75
   3  -5  -2    0.07    0.97
  -3   5   2    0.09    0.25
  -2   5   2  127.25    3.35
  -2   5   2  122.53    4.05
   1  -5  -2   43.50    2.97
  -1  -5   2   42.06    1.30
  -1   5   2   39.66    1.51
   0   5  -2   23.69    0.75
   0  -5   2   24.77    0.92
   0  -5  -2   23.15    0.81
   0   5  -2   23.52    1.04
   0  -5  -2   21.83    1.03
   0   5   2   24.65    1.09
  -1  -5  -2    1.28    0.59
   1   5   2    1.19    0.40
  -1   5  -2    0.93    0.26
  -1  -5  -2    0.93    0.43
   2   5   2  149.47    4.01
  -2  -5  -2  156.05    6.38
  -2  -5  -2  145.14    3.56
   2   5   2  144.98    3.38
  -2  -5  -2  157.99    4.26
   3   5   2   57.81    1.76
  -3  -5  -2   56.65    1.83
  -3  -5  -2   61.21    4.02
   3   5   2   60.32    2.19
  -3  -5  -2   60.89    2.41
  -4   5  -2    9.71    0.96
  -4  -5  -2   15.36    0.90
  -4  -5  -2   12.51    2.09
   4   5   2   12.29    1.01
  -4  -5  -2   12.68    1.17
  -5  -5  -2   22.59    1.60
  -5  -5  -2   20.52    1.04
  -5  -5  -2   22.57    1.55
  -5   5  -2   19.84    1.07
  -6  -5  -2   29.48    1.28
  -6  -5  -2   31.79    1.96
  -6  -5  -2   29.72    1.85
   6   5   2   29.54    2.11
  -7  -5  -2   27.46    1.85
  -7  -5  -2   26.43    1.22
  -7  -5  -2   25.63    1.84
   7   5   2   23.80    2.05
  -8  -5  -2   19.44    1.10
  -8  -5  -2   20.17    1.83
   8   5   2   17.68    1.88
   9  -5   2   12.74    2.13
   9   5   2   16.87    1.94
  -9  -5  -2   18.79    1.82
  -9  -5  -2   16.19    1.08
 -10  -5  -2    1.18    0.61
 -10  -5  -2    0.48    1.06
  10  -5   2   -0.35    1.52
  10   5   2    0.42    1.69
  10   5   2    0.82    1.18
 -11  -5  -2    3.23    0.71
  11   5   2    3.36    2.02
 -11  -5  -2    2.55    1.23
  11  -5   2    1.00    1.64
  11   5   2    2.45    1.39
 -12  -5  -2    4.12    1.46
  12  -5   2    2.13    1.77
  12   5   2    1.97    1.99
  12   5   2    3.85    1.62
  13   5   2    5.96    1.95
  13  -5   2    5.36    2.29
 -13  -5  -2    7.52    1.73
  13   5   2   10.89    2.80
  14  -5   2    0.81    1.21
  14  -5   2   -1.02    2.46
  14   5   2   -2.41    2.59
  16   6  -2   23.30    2.94
  15   6  -2   41.07    3.48
  15   6  -2   28.60    2.86
  14   6  -2   10.79    1.99
  13   6  -2    9.30    1.76
 -12  -6   2   52.27    2.70
  12   6  -2   46.13    3.12
 -11  -6   2  112.96    4.01
 -11   6   2  107.50    5.16
  11   6  -2  109.86    4.59
 -10  -6   2   34.17    2.00
 -10   6   2   28.36    2.74
  10   6  -2   30.29    2.25
  10   6  -2   36.02    3.63
  -9  -6   2    4.19    0.89
   9   6  -2    2.99    0.50
   9  -6  -2    3.87    1.19
   9   6  -2    2.91    1.00
  -9   6   2    3.97    1.48
  -8  -6   2   44.65    2.07
   8   6  -2   40.26    2.31
   8   6  -2   44.04    1.57
   7   6  -2  165.82    4.05
  -7  -6   2  168.60    4.41
   7   6  -2  176.97    7.61
  -6  -6   2   38.15    1.76
  -6   6   2   33.54    2.57
  -6   6   2   41.43    1.48
  -6  -6   2   37.25    1.44
   6   6  -2   35.27    1.87
   6   6  -2   40.39    3.69
   5   6  -2   26.49    3.15
  -5  -6   2   22.40    0.96
  -5   6   2   17.54    1.40
  -5   6   2   22.93    0.98
  -5   6   2   18.09    1.88
  -4  -6   2    6.64    0.48
  -4   6   2    5.92    0.85
  -4   6   2    7.43    0.51
   4   6  -2    6.02    1.81
  -4   6   2    8.10    1.32
   4   6  -2    7.70    0.39
  -3   6   2  170.85    4.43
  -3   6   2  173.49    5.52
  -2   6   2   87.35    2.69
  -2  -6   2   95.92    2.58
   1   6  -2    8.60    0.53
  -1   6   2    8.69    0.79
   1   6  -2    6.77    1.71
   1  -6  -2    7.67    0.53
   1  -6  -2    9.51    2.10
  -1  -6   2   10.34    0.71
   0   6   2   16.17    0.95
   0  -6  -2   23.61    2.86
   0  -6   2   18.42    0.94
   0   6  -2   12.04    1.96
   0   6   2   18.28    1.43
   0  -6  -2   18.13    1.38
  -1   6  -2  299.68    5.57
   1   6   2  297.59    7.01
  -1  -6  -2  298.65    5.70
   1   6   2  306.13    6.28
   2   6   2  259.53    6.19
   2   6   2  258.91    5.47
  -3  -6  -2   50.81    4.08
  -3  -6  -2   44.29    2.16
   3   6   2   44.18    1.97
   3   6   2   39.08    1.46
  -3   6  -2   32.88    2.06
  -4  -6  -2   74.13    2.87
   4   6   2   72.83    2.57
  -5   6  -2  275.42    6.42
  -5  -6  -2  292.48    6.33
   5   6   2  323.58    6.94
  -5  -6  -2  321.59    7.52
  -6  -6  -2  272.56    6.86
  -6  -6  -2  250.91    5.62
  -6  -6  -2  268.31    6.97
  -7  -6  -2   75.89    3.18
  -7  -6  -2   70.64    2.22
  -7  -6  -2   72.78    3.18
   8   6   2   32.36    2.51
  -8  -6  -2   28.49    1.34
  -8  -6  -2   29.99    2.19
  -9  -6  -2   85.14    2.52
   9   6   2   87.00    4.27
 -10  -6  -2   87.61    3.88
  10   6   2   86.73    4.39
  11   6   2   17.25    2.24
 -11  -6  -2   18.94    1.98
  12   6   2    1.60    1.49
 -12  -6  -2    1.41    1.29
  12  -6   2   -0.13    1.94
 -13  -6  -2    9.04    1.89
  13  -6   2    4.78    2.21
  15  -7  -2    4.01    2.09
  15   7  -2    1.37    1.92
  14  -7  -2    2.01    1.81
  14   7  -2    0.10    1.88
  14   7  -2   -0.74    1.58
  13   7  -2    1.55    1.75
  13   7  -2    0.51    1.36
 -13  -7   2    1.49    1.18
 -12  -7   2    3.47    1.23
  12   7  -2    2.54    1.35
  11   7  -2    3.50    1.31
 -11  -7   2    4.40    1.13
 -10  -7   2    7.85    1.17
  10   7  -2    7.87    0.70
  10   7  -2    5.93    1.32
  -9  -7   2   22.31    1.64
   9   7  -2   18.96    1.77
   9   7  -2   21.78    1.13
   8   7  -2   30.51    2.02
   8   7  -2   29.35    1.41
   8   7  -2   33.96    3.79
  -8   7   2   30.62    1.50
  -8  -7   2   31.14    1.79
   7   7  -2   15.91    1.19
  -7   7   2   13.60    2.09
  -7   7   2   16.04    1.01
  -7  -7   2   18.13    1.34
  -7  -7   2   13.42    0.95
  -6  -7   2   12.24    0.77
  -6   7   2   12.86    0.80
   6   7  -2   10.91    2.57
  -6   7   2   11.65    1.35
  -6   7   2   12.61    1.89
  -5  -7   2    5.31    0.48
  -5   7   2    5.75    1.42
  -5   7   2    5.32    0.51
  -5   7   2    5.62    1.00
   4   7  -2    2.54    0.31
   4   7  -2    4.06    2.04
   4  -7  -2    3.17    2.06
  -4   7   2    2.53    0.74
  -4   7   2    4.59    1.32
  -3  -7   2    0.82    0.58
   3   7  -2    1.41    1.88
   3  -7  -2    2.61    2.10
  -3   7   2    0.58    0.63
   3   7  -2    0.98    0.37
  -2   7   2   15.32    1.11
  -2  -7   2   16.74    1.08
  -1   7   2   40.16    2.26
  -1   7   2   40.12    1.70
   1   7  -2   35.71    3.27
   0   7   2   45.91    2.36
   0  -7   2   53.75    1.80
   0   7   2   47.31    1.79
   0  -7  -2   49.47    2.37
   1   7   2   48.93    1.79
  -1  -7  -2   56.26    2.53
  -1   7  -2   43.53    2.97
   1   7   2   45.75    2.27
   1  -7   2   55.19    1.84
  -2  -7  -2   59.86    2.62
   2   7   2   54.02    1.83
   2   7   2   51.82    2.34
  -2   7  -2   46.07    2.80
  -2  -7  -2   54.26    1.38
  -2   7  -2   51.40    1.21
  -3  -7  -2   67.47    2.83
   3   7   2   60.09    1.95
  -3   7  -2   56.14    2.81
   3   7   2   64.68    2.58
   4   7   2   26.86    1.64
  -4  -7  -2   28.78    1.91
  -4   7  -2   27.12    1.75
   5   7   2   11.17    1.17
  -5  -7  -2   11.04    1.33
  -6  -7  -2    4.50    1.11
  -6  -7  -2    2.72    1.06
   6   7   2    3.86    0.93
  -7  -7  -2    1.24    1.03
  -7  -7  -2    1.37    1.07
  -8  -7  -2   -0.50    1.01
  -9  -7  -2    4.77    1.36
 -10  -7  -2    4.92    1.43
  11   7   2    3.63    1.62
 -11  -7  -2    2.63    1.33
 -12  -7  -2    1.60    1.39
  14   8  -2   -0.76    2.02
  13   8  -2   -0.08    1.37
 -13  -8   2   -0.43    1.25
  13   8  -2    1.51    1.77
  12   8  -2    3.79    1.42
 -12  -8   2    4.30    1.27
  12   8  -2    5.88    1.94
 -11   8   2   19.85    1.57
 -11  -8   2   16.66    1.65
  11   8  -2   18.31    2.05
  11  -8  -2   15.18    2.19
  10   8  -2    8.02    0.84
 -10  -8   2    8.04    1.25
  10   8  -2   11.76    1.93
 -10   8   2    9.79    1.12
  10  -8  -2    8.46    1.64
   9   8  -2    6.00    1.40
  -9  -8   2    4.52    1.08
   9  -8  -2    2.24    1.09
   9   8  -2    4.37    0.77
  -9   8   2    5.69    0.90
  -8   8   2   45.70    2.75
  -8   8   2   45.24    1.69
  -8  -8   2   40.40    1.61
  -8  -8   2   46.65    2.25
   8   8  -2   46.69    1.93
  -7   8   2  143.14    4.77
  -7  -8   2  146.06    4.22
   7   8  -2  148.38    4.02
  -7   8   2  144.25    3.23
  -6   8   2  131.69    4.20
   6   8  -2  134.80    3.18
   6   8  -2  131.10    3.82
  -5   8   2   68.66    3.79
  -5   8   2   74.24    2.81
   5   8  -2   72.85    5.15
   4   8  -2  163.70    3.31
  -4   8   2  162.66    5.95
  -4   8   2  175.51    4.70
  -3   8   2  354.23    7.94
   3   8  -2  352.50    6.93
  -2   8   2  254.59    7.35
  -2   8   2  271.94    6.26
  -1   8   2   88.90    3.62
  -1   8   2   87.92    2.79
   1  -8  -2   92.95    3.52
   0   8   2  104.86    3.89
   0   8   2  107.11    3.09
   0  -8  -2  114.29    3.93
   0  -8   2  118.12    3.13
  -1  -8  -2  205.61    5.74
   1   8   2  177.21    5.27
   1   8   2  184.76    4.50
   1  -8   2  213.84    4.73
  -1   8  -2  158.45    6.22
  -2  -8  -2  100.01    3.65
   2   8   2   85.34    3.26
  -2   8  -2   76.97    3.80
   2   8   2   90.18    2.63
   2  -8   2   99.91    2.86
  -3  -8  -2    6.14    1.16
   3   8   2    5.60    1.08
  -3   8  -2    5.94    1.29
  -3  -8  -2    5.00    0.41
   3   8   2    5.82    0.73
  -4   8  -2    2.84    0.99
   4   8   2    3.54    1.01
  -4   8  -2    2.62    0.38
  -4  -8  -2    4.18    1.18
  -5  -8  -2   19.95    1.82
   5   8   2   21.83    1.62
  -6  -8  -2    9.41    1.47
   6   8   2    9.67    1.26
  -6  -8  -2    8.91    1.37
  -7  -8  -2    2.36    1.13
  -8  -8  -2    1.40    1.21
  -9  -8  -2    6.33    1.52
 -10  -8  -2    8.07    1.66
 -11  -8  -2    0.81    1.32
 -11  -9   2    5.49    1.29
 -10  -9   2   20.00    1.77
  -9  -9   2    8.09    1.35
   9   9  -2    8.32    1.02
  -9   9   2    7.25    1.74
   9   9  -2    6.78    1.15
  -8  -9   2    4.52    1.11
  -8   9   2    2.14    1.31
   8   9  -2    2.53    0.89
  -8   9   2    2.59    0.56
  -7  -9   2   17.11    1.48
  -7   9   2   16.55    1.79
   7   9  -2   15.20    1.46
   6   9  -2   33.84    2.06
  -6   9   2   36.22    2.28
  -5   9   2    8.58    1.26
   5   9  -2    7.10    1.35
   4   9  -2    1.10    0.37
  -4   9   2    1.32    0.95
   3   9  -2    1.64    0.49
  -3   9   2    1.17    0.80
   2   9  -2    0.55    0.55
   2   9  -2    0.46    1.78
  -2  -9   2    0.54    0.71
   2  -9  -2    0.68    0.93
  -2   9   2    0.52    0.72
   1  -9  -2    4.03    1.12
  -1   9   2    4.27    0.84
  -1  -9   2    5.82    0.86
   1   9  -2    2.98    1.73
   0   9  -2   42.01    3.30
   0  -9  -2   53.29    2.71
   0  -9   2   54.83    2.06
   0   9   2   45.66    1.93
  -1  -9  -2   62.24    2.96
   1  -9   2   59.23    2.15
  -1   9  -2   48.60    3.40
   1   9   2   52.85    2.04
   2   9   2   12.60    1.48
  -2  -9  -2   15.63    1.66
   2  -9   2   13.78    1.12
  -2   9  -2   12.80    1.86
   2   9   2   13.16    1.03
  -3   9  -2    9.54    1.52
   3   9   2    9.55    0.90
   3   9   2   10.31    1.38
   3  -9   2   11.80    1.05
  -3  -9  -2   10.17    1.47
   4   9   2   34.02    2.09
   5   9   2   26.18    1.85
  -6  -9  -2    0.23    1.03
   6   9   2    1.76    1.05
  -7  -9  -2    0.41    1.09
  -8  -9  -2    0.62    1.15
  -9  -9  -2   -0.26    1.33
  -9 -10   2   10.04    1.52
  -8 -10   2   10.59    1.44
   7  10  -2    7.74    1.25
  -7 -10   2    9.22    1.36
  -7  10   2    9.54    1.61
  -6  10   2    4.18    1.30
   6  10  -2    3.58    1.24
  -5  10   2    2.01    1.17
   4  10  -2    1.21    0.40
  -4  10   2    0.65    0.91
   3 -10  -2    1.44    1.07
   3  10  -2    1.63    0.52
  -3  10   2    1.82    0.96
  -2 -10   2    1.89    0.88
   2 -10  -2    1.89    1.14
  -2  10   2    1.28    0.83
   2  10  -2    2.28    0.65
   1 -10  -2    1.30    1.13
  -1  10   2    2.15    0.87
   1  10  -2    1.44    0.73
  -1 -10   2    1.39    0.78
   0  10  -2    5.81    1.04
   0  10   2    5.00    0.90
   0 -10   2    5.79    0.93
  -1  10  -2    9.75    1.91
   1 -10   2   11.65    1.11
   1  10   2   11.69    1.10
   2 -10   2   18.32    1.32
  -2  10  -2   14.43    2.03
   2  10   2   16.16    1.20
   3  10   2   21.33    1.26
  -6 -10  -2   31.56    2.46
  -7 -10  -2   25.85    2.32
  -5  11   2    0.90    1.22
  -4  11   2    4.06    1.23
  -3  11   2    1.30    1.03
  -2  11   2    2.65    1.02
  -1  11   2    3.57    1.01
   1  11  -2    2.48    0.84
   0  11   2    0.79    0.88
   0  11  -2    0.64    0.85
   1  11   2    1.68    0.83
  -1  11  -2    2.25    1.03
  -2  11  -2    9.69    1.45
  -3  12   2    9.51    1.47
  -2  12   2   15.15    1.52
 -18   0   3    2.60    1.40
  17   0  -3   -0.55    1.26
  16   0  -3   -0.26    1.08
  15   0  -3    0.06    1.02
  14   0  -3    0.06    0.96
  13   0  -3    0.48    0.90
  12   0  -3    0.25    0.74
  11   0  -3    0.05    0.71
  10   0  -3    0.52    0.61
  -9   0   3    0.17    0.51
  -8   0   3    1.28    0.46
   7   0  -3    0.25    0.30
  -7   0   3    0.02    0.34
  -6   0   3    0.28    0.28
   6   0  -3    0.14    0.25
  -5   0   3    0.92    0.28
   5   0  -3    0.29    0.26
  -5   0   3    0.95    0.35
  -4   0   3    0.23    0.26
  -4   0   3    0.27    0.21
   4   0  -3    0.02    0.25
  -3   0   3    0.16    0.20
   3   0  -3    0.11    0.22
  -3   0   3    0.28    0.23
  -2   0   3    0.29    0.21
   2   0  -3    0.56    0.25
   1   0  -3    0.14    0.24
   1   0  -3    1.25    0.28
   0   0  -3    0.31    0.24
   0   0  -3    0.52    0.29
   0   0  -3    0.27    0.27
  -1   0  -3    3.43    0.52
  -1   0  -3    0.05    0.25
  -2   0  -3   -0.06    0.37
  -2   0  -3    0.41    0.34
   2   0   3    0.24    0.32
  -2   0  -3   -0.20    0.45
  -3   0  -3   -0.37    0.38
  -3   0  -3   -0.07    0.45
   3   0   3    0.30    0.41
  -3   0  -3    0.04    0.46
   4   0   3   -0.07    0.42
  -4   0  -3    1.31    0.65
  -4   0  -3    0.64    0.60
  -5   0  -3    0.03    0.44
  -5   0  -3    0.19    0.65
  -5   0  -3    0.05    0.58
   5   0   3   -0.28    0.50
   6   0   3    0.06    0.76
   6   0   3    0.24    0.64
  -6   0  -3    0.16    0.73
   6   0   3   -0.17    1.21
  -6   0  -3    0.07    0.55
   7   0   3   -0.19    0.83
  -7   0  -3    0.04    0.60
   7   0   3   -0.40    1.41
   7   0   3    0.28    0.74
   8   0   3   -0.25    0.82
   8   0   3    0.48    0.92
   8   0   3    0.11    1.40
  -8   0  -3    0.56    0.73
   9   0   3   -0.22    1.06
   9   0   3   -0.24    1.57
   9   0   3   -0.35    0.96
  10   0   3    0.45    1.05
  10   0   3   -0.52    1.62
  10   0   3    0.08    1.07
  11   0   3    0.68    1.27
  11   0   3   -1.08    2.02
  11   0   3    0.32    1.19
  12   0   3   -0.26    1.39
  12   0   3   -0.99    2.19
  13   0   3   -1.17    2.32
  13   0   3   -0.97    1.36
  14   0   3   -0.92    1.59
  14   0   3   -1.33    2.26
  17   1  -3   11.86    1.80
 -17  -1   3   12.99    1.49
  16  -1  -3    0.55    0.97
  16   1  -3    1.50    1.08
 -16  -1   3    1.38    0.89
  16   1  -3    0.47    1.23
  15   1  -3    3.92    1.19
  15  -1  -3    2.48    1.18
 -15  -1   3    2.29    0.89
  14   1  -3   75.36    3.42
  14  -1  -3   72.79    3.35
 -14   1   3   77.99    2.26
  13   1  -3   61.14    2.94
  13  -1  -3   54.13    2.80
 -13   1   3   58.47    2.02
  12   1  -3    2.99    0.92
 -12   1   3    2.76    0.59
  12  -1  -3    1.83    0.88
 -12  -1   3    1.06    0.67
  11   1  -3    1.22    0.75
 -11   1   3    1.79    0.53
 -11  -1   3    0.64    0.55
 -10  -1   3  159.93    4.02
  10   1  -3  189.04    4.92
  -9  -1   3  249.37    5.23
   9   1  -3  262.54    6.06
  -8   1   3    4.74    0.71
  -8   1   3    4.11    0.61
  -8  -1   3    5.74    0.59
   7   1  -3    6.39    0.41
  -7  -1   3    6.90    0.56
  -7   1   3    5.37    0.67
   7   1  -3    6.55    0.74
  -7   1   3    6.04    0.71
  -6   1   3  518.28   10.17
   6   1  -3  506.09   10.13
  -6   1   3  489.49   10.37
   6   1  -3  530.20    9.63
  -6  -1   3  506.36    9.71
  -5  -1   3 1169.70   21.71
   5  -1  -3 1263.18   22.17
  -5   1   3 1240.05   22.14
   5   1  -3 1243.11   21.68
  -5   1   3 1196.55   22.50
  -5  -1   3 1202.62   22.09
  -4   1   3  356.09    7.06
   4   1  -3  359.62    6.74
  -4  -1   3  347.98    6.79
  -4   1   3  369.63    7.59
  -4  -1   3  356.52    7.06
  -3   1   3    5.47    0.47
  -3  -1   3    5.50    0.47
   3  -1  -3    5.64    0.49
   3  -1  -3    5.97    0.51
  -3  -1   3    6.29    0.45
   2  -1  -3  881.42   16.00
  -2   1   3  874.06   16.07
   2   1  -3  936.79   15.76
  -2  -1   3  859.17   15.98
   2  -1  -3  878.13   16.04
   2  -1  -3  806.51   16.42
   1  -1  -3 2417.21   41.33
   1   1  -3 2274.26   41.29
   1  -1  -3 2160.05   41.21
   1  -1  -3 2534.90   42.03
  -1   1   3 2444.67   41.38
   0  -1   3  992.87   18.15
   0   1  -3 1016.97   18.54
   0  -1  -3  992.34   18.12
   0   1  -3  989.97   17.84
  -1   1  -3   50.55    1.51
   1  -1   3   52.65    1.89
  -1  -1  -3   51.47    1.85
   1  -1   3   55.40    1.60
  -1  -1  -3   53.36    1.81
  -1   1  -3   52.63    2.06
  -1  -1  -3   52.78    1.69
  -2  -1  -3  511.47   10.20
   2  -1   3  497.54   10.40
  -2  -1  -3  495.64    9.90
  -2   1  -3  495.64   10.56
  -2  -1  -3  496.94   10.48
  -2   1  -3  491.43    9.60
   2  -1   3  504.06    9.73
  -3  -1  -3 1268.33   23.83
   3  -1   3 1297.84   23.40
  -3  -1  -3 1270.23   23.40
  -3  -1  -3 1214.65   23.95
  -4  -1  -3  595.50   12.00
  -4  -1  -3  576.76   12.66
  -4  -1  -3  611.71   12.59
  -4  -1  -3  597.58   12.52
   4  -1   3  625.25   12.28
  -5  -1  -3    4.61    0.77
  -5  -1  -3    5.63    0.92
   5   1   3    4.61    0.87
  -5  -1  -3    4.07    0.83
   5  -1   3    4.98    0.83
   6  -1   3   64.99    2.87
   6   1   3   65.13    3.04
  -6  -1  -3   63.67    2.92
  -6  -1  -3   60.37    2.73
   6  -1   3   67.71    3.82
  -6   1  -3   59.90    2.17
   7  -1   3  368.07    8.89
   7   1   3  362.15    9.12
  -7  -1  -3  373.19    8.99
  -7   1  -3  314.13    7.28
  -7  -1  -3  314.92    8.34
   7  -1   3  416.81   11.34
   8  -1   3  101.46    4.07
  -8  -1  -3   82.86    3.52
  -8   1  -3   77.08    2.74
  -8  -1  -3  100.20    4.01
   8   1   3   97.53    4.17
   8  -1   3  117.55    5.79
   9   1   3    1.30    1.01
   9  -1   3    1.67    0.93
   9  -1   3    1.72    1.21
   9   1   3    2.47    1.13
  -9  -1  -3    1.82    1.09
   9  -1   3    1.35    1.57
  10  -1   3    7.61    1.47
  10   1   3    3.69    1.28
  10   1   3    4.60    1.39
  10  -1   3    3.30    1.42
  10  -1   3    3.83    1.95
  11  -1   3   70.32    3.97
  11  -1   3   75.13    5.33
  11  -1   3   64.99    3.65
  11   1   3   66.37    3.93
  11   1   3   61.22    3.79
  12  -1   3   36.79    2.85
  12  -1   3   38.10    3.98
  12   1   3   38.88    3.11
  13   1   3    0.38    1.36
  13  -1   3    0.92    1.32
  13  -1   3   -1.33    2.24
  14   1   3    0.39    1.58
  14  -1   3    1.05    2.08
  14  -1   3   -0.09    1.36
  17   2  -3    0.99    1.34
  17   2  -3    0.41    1.39
 -16  -2   3    0.15    0.65
  16   2  -3    0.72    1.28
  16   2  -3    0.06    0.99
  16  -2  -3    0.47    0.92
  16   2  -3    0.72    1.35
  15   2  -3   20.42    1.88
  15   2  -3   16.45    1.99
 -14   2   3   14.60    1.33
  14   2  -3   14.32    1.62
  14  -2  -3   12.48    1.54
 -13  -2   3    0.80    0.58
 -13   2   3    1.57    0.82
  13   2  -3    3.12    1.01
 -12   2   3    6.57    1.01
 -12  -2   3    4.89    0.72
  12   2  -3    6.71    1.13
 -11  -2   3   22.58    1.22
 -11   2   3   21.11    1.54
  10   2  -3   27.30    1.71
 -10  -2   3   23.12    1.13
  -9  -2   3   90.17    2.27
   9   2  -3   90.92    3.02
  -8  -2   3  229.95    4.48
   8   2  -3  233.55    5.36
  -7  -2   3    7.39    0.48
   7   2  -3    7.76    0.70
  -7   2   3    6.83    0.78
  -7   2   3    6.58    0.84
  -6   2   3    4.88    0.62
  -6  -2   3    6.63    0.43
  -6   2   3    5.00    0.75
   6   2  -3    4.80    0.46
   5  -2  -3  383.93    7.80
  -5   2   3  355.89    7.98
  -5   2   3  353.22    7.47
  -5   2   3  344.81    7.25
  -5  -2   3  354.83    7.32
  -5  -2   3  370.32    6.87
   5   2  -3  371.90    6.77
   4   2  -3  843.33   15.10
  -4  -2   3  867.28   15.56
  -4   2   3  849.16   15.74
  -4   2   3  880.01   16.38
   3   2  -3   62.08    1.56
  -3   2   3   56.48    1.77
  -3  -2   3   61.41    1.74
   3  -2  -3   62.05    1.84
  -3   2   3   54.27    1.67
   3  -2  -3   63.60    1.75
  -3   2   3   58.73    2.18
   2  -2  -3   60.75    2.06
   2  -2  -3   60.93    1.77
  -2   2   3   57.64    1.75
   2  -2  -3   57.02    1.65
   2   2  -3   56.02    1.63
  -2   2   3   63.93    2.18
  -1  -2   3   60.13    1.67
   1  -2  -3   59.38    1.73
   1  -2  -3   60.25    1.69
   1   2  -3   58.84    1.67
  -1   2   3   63.71    2.19
   1  -2  -3   60.68    2.12
   0  -2  -3  368.78    7.28
   0  -2  -3  376.44    7.91
   0  -2   3  360.89    7.59
  -1  -2  -3    7.21    0.60
   1  -2   3    6.04    0.42
  -1  -2  -3    5.27    0.69
   1  -2   3    5.57    0.75
  -1  -2  -3    5.66    0.63
   2  -2   3  397.36    9.06
  -2  -2  -3  403.85    8.47
   2  -2   3  433.92    7.96
  -2  -2  -3  397.26    8.54
  -2  -2  -3  413.71    8.80
  -2  -2  -3  394.06    8.80
  -2  -2  -3  412.58    8.12
   3  -2   3  116.76    3.97
  -3  -2  -3  111.66    3.46
  -3   2  -3  105.18    3.52
  -3  -2  -3  116.56    3.57
  -3  -2  -3  111.34    3.63
   3   2   3  112.84    3.54
  -3  -2  -3  115.78    3.06
  -3  -2  -3  116.87    3.36
  -3  -2  -3  113.08    3.87
   4  -2   3   10.97    0.99
   4   2   3    9.39    1.04
  -4  -2  -3   10.09    1.23
   4  -2   3   12.28    1.35
  -4  -2  -3    8.54    0.96
  -4   2  -3    8.62    1.07
  -4  -2  -3    8.62    1.09
  -4  -2  -3   10.13    1.00
  -4  -2  -3    8.52    0.89
   5  -2   3   51.21    2.31
  -5  -2  -3   44.87    2.05
  -5  -2  -3   48.19    2.33
   5  -2   3   51.94    2.76
  -5  -2  -3   46.25    2.54
  -5  -2  -3   42.44    2.11
   6  -2   3  254.88    8.05
  -6   2  -3  239.13    5.05
  -6  -2  -3  244.18    6.11
  -6  -2  -3  241.18    6.45
  -6  -2  -3  222.84    6.69
  -6  -2  -3  209.84    5.95
   6  -2   3  254.23    6.53
   7  -2   3  115.28    4.13
  -7  -2  -3  116.02    4.14
  -7  -2  -3  106.54    3.61
   7  -2   3  121.10    5.58
  -7  -2  -3  112.20    4.49
  -8  -2  -3    1.99    0.73
  -8  -2  -3    0.78    1.04
   8  -2   3    1.69    1.41
   8  -2   3    1.75    0.90
   8   2   3    3.33    1.63
   9   2   3   -0.48    1.59
  -9  -2  -3   -0.11    0.64
   9  -2   3    0.51    0.94
   9  -2   3    0.37    1.53
  10  -2   3   35.89    3.64
  10   2   3   41.83    3.94
 -10  -2  -3   32.00    1.81
  10  -2   3   37.85    2.61
  11  -2   3   12.49    1.80
  11  -2   3   10.27    2.43
 -11  -2  -3   12.40    1.19
  11   2   3   16.63    2.84
  12  -2   3    7.04    1.54
 -12  -2  -3    6.68    0.98
  12   2   3    6.92    2.52
  12  -2   3    8.11    2.62
  13  -2   3    9.22    1.69
  13  -2   3    6.53    2.51
  13   2   3    9.70    2.75
  14   2   3   -0.15    2.37
  14  -2   3    1.24    2.37
  14  -2   3    0.08    1.36
  16   3  -3   13.02    2.04
  15   3  -3   25.92    2.46
  15   3  -3   16.24    2.09
 -14   3   3   59.62    2.78
  14   3  -3   59.89    3.39
  13   3  -3  113.81    4.58
 -13   3   3  104.35    3.76
 -12   3   3   88.02    3.60
  12   3  -3   91.99    3.52
 -11   3   3  154.42    5.11
 -11  -3   3  156.43    3.44
 -10  -3   3  266.99    5.05
 -10   3   3  200.00    6.56
  -9   3   3  270.11    8.53
  -9  -3   3  400.88    7.04
  -8  -3   3  282.82    5.15
  -8   3   3  212.92    6.72
  -7   3   3  250.47    6.75
  -7   3   3  274.11    6.35
  -6   3   3  297.62    7.55
  -6   3   3  313.11    6.99
   5   3  -3  388.87    7.10
  -5   3   3  375.01    8.06
  -5  -3   3  402.42    7.42
  -5   3   3  360.84    8.67
  -5   3   3  416.18    7.89
  -5  -3   3  385.10    7.80
   4   3  -3   97.03    2.53
  -4   3   3   98.58    3.24
  -4   3   3   97.63    2.47
   4   3  -3   96.70    2.09
  -4  -3   3   96.62    2.48
  -4   3   3   95.07    2.69
   3   3  -3   14.10    0.61
  -3   3   3   12.94    0.83
   3  -3  -3   14.59    1.18
  -3   3   3   14.79    0.76
  -3  -3   3   14.72    0.76
  -3   3   3   15.50    1.16
   2  -3  -3   12.08    1.08
   2  -3  -3   11.92    0.80
   2  -3  -3   11.23    0.66
   2   3  -3   11.88    0.68
  -2   3   3   13.00    1.03
   1  -3  -3   33.34    1.70
   1  -3  -3   30.23    1.16
   1   3  -3   32.79    1.19
  -1   3   3   32.15    1.62
   0  -3  -3    6.03    0.78
   0  -3  -3    5.37    0.55
  -1  -3  -3    9.76    0.97
  -1  -3  -3   10.23    0.72
   1  -3   3   10.99    0.47
  -1   3  -3    8.82    0.87
  -1  -3  -3    9.34    0.88
   1   3   3   10.31    0.70
   2  -3   3    4.60    0.46
  -2  -3  -3    4.10    0.54
  -2  -3  -3    5.89    1.03
  -2  -3  -3    5.90    0.77
  -2  -3  -3    4.10    0.70
  -2  -3  -3    4.52    0.78
  -2   3  -3    4.62    0.72
   3  -3   3   34.13    1.47
  -3   3  -3   31.58    1.72
  -3  -3  -3   31.88    1.64
  -3  -3  -3   36.03    1.43
  -3  -3  -3   31.97    2.19
  -3  -3  -3   33.19    1.83
  -3  -3  -3   30.75    1.67
  -3  -3  -3   30.13    1.72
   3  -3   3   32.17    1.95
   4  -3   3   47.14    2.01
  -4  -3  -3   46.18    2.15
   4   3   3   46.94    2.30
  -4   3  -3   45.40    2.24
   4  -3   3   46.08    2.48
  -4  -3  -3   44.09    2.66
  -4  -3  -3   47.72    2.08
  -4  -3  -3   46.28    2.35
  -4  -3  -3   47.00    1.76
  -4  -3  -3   46.14    2.17
   5  -3   3   48.57    2.26
  -5  -3  -3   46.74    2.31
   5  -3   3   53.16    2.80
  -5  -3  -3   49.29    1.91
  -5  -3  -3   44.61    2.72
  -5  -3  -3   51.80    2.26
   5   3   3   46.20    2.47
  -5  -3  -3   41.58    2.11
  -6  -3  -3  101.73    3.43
   6  -3   3   99.75    3.64
   6  -3   3  100.53    4.10
   6   3   3  100.19    3.91
  -6  -3  -3   95.92    4.37
  -6  -3  -3   98.78    3.02
  -6  -3  -3   91.05    3.31
  -7  -3  -3  159.89    6.11
   7  -3   3  184.98    5.46
   7  -3   3  193.08    6.15
   7  -3   3  186.02    7.04
  -7  -3  -3  159.01    4.51
  -7  -3  -3  162.61    4.80
   7   3   3  187.95    5.90
   8  -3   3  120.65    4.83
  -8  -3  -3  110.21    3.72
   8  -3   3  125.79    4.48
   8  -3   3  120.65    5.90
   8   3   3  123.12    4.89
   9  -3   3  110.58    4.29
   9  -3   3  108.09    4.64
   9  -3   3  109.38    5.90
  -9  -3  -3  104.39    3.49
   9   3   3  103.00    4.74
  10  -3   3   98.08    4.12
  10  -3   3   99.34    5.86
  10   3   3   98.34    4.73
 -10  -3  -3   97.01    4.35
 -10  -3  -3   95.91    3.24
  11  -3   3   93.27    4.13
  11   3   3   88.21    4.68
 -11  -3  -3   91.72    4.29
  11  -3   3   90.46    5.89
 -11  -3  -3   90.57    3.04
  12  -3   3   56.57    3.26
 -12  -3  -3   50.23    2.12
 -12  -3  -3   46.50    3.17
  12  -3   3   54.89    4.74
  12   3   3   48.45    3.66
  13  -3   3   24.63    2.36
  13  -3   3   20.30    3.44
  13   3   3   26.43    3.61
  13   3   3   18.42    2.64
  14  -3   3   17.79    2.14
  14   3   3   19.01    3.25
  16   4  -3   11.44    2.08
  15   4  -3    1.27    1.41
  14   4  -3    3.56    1.49
 -14   4   3    1.79    1.31
  13   4  -3   33.40    2.63
 -13   4   3   36.19    2.65
 -12   4   3   35.26    2.54
  12   4  -3   43.92    2.85
 -11   4   3   11.91    1.66
  11   4  -3   15.06    1.71
  10   4  -3   49.27    2.64
 -10   4   3   26.50    2.21
   9   4  -3    3.13    0.96
   9   4  -3    2.59    0.26
  -9   4   3    2.21    0.97
  -8  -4   3    3.87    0.72
  -8   4   3    2.02    0.92
   8   4  -3    2.47    0.77
   7   4  -3  236.15    5.82
  -7  -4   3  244.07    5.24
  -6   4   3  529.83   12.62
  -6  -4   3  597.28   11.02
   6   4  -3  577.25   11.63
  -6   4   3  607.68   11.27
  -6  -4   3  588.98   11.30
  -6   4   3  544.86   11.72
  -5   4   3   87.06    3.35
   5   4  -3   83.30    1.70
  -5  -4   3   93.24    2.16
  -5   4   3   76.29    2.63
  -5   4   3   89.95    2.38
  -5  -4   3   91.91    2.41
   5   4  -3   84.02    2.46
  -4   4   3    5.02    0.86
  -4   4   3    5.74    0.55
  -4  -4   3    4.90    0.52
   4   4  -3    5.72    0.37
   4   4  -3    4.87    0.49
  -3  -4   3  293.33    5.88
   3   4  -3  299.21    5.66
  -3   4   3  296.27    7.10
  -2   4   3  725.43   14.67
   2  -4  -3  740.04   13.49
   2   4  -3  728.85   13.42
  -1   4   3   27.33    1.23
   1  -4  -3   29.45    1.31
   1  -4  -3   29.55    1.10
   1   4  -3   28.31    1.05
   0   4   3  128.61    3.20
   0  -4  -3  130.11    3.27
   0  -4  -3  125.05    3.00
   0   4  -3  131.05    2.99
  -1  -4  -3    6.72    0.66
  -1  -4  -3    9.22    1.15
   1   4   3    7.56    0.67
   1  -4   3    8.08    0.36
   1   4   3    6.31    0.84
  -1  -4  -3    6.42    1.16
  -1   4  -3    6.26    0.74
  -1  -4  -3    7.49    0.84
   2  -4   3   63.80    1.80
  -2  -4  -3   53.92    1.85
  -2  -4  -3   57.53    3.12
  -2  -4  -3   61.94    2.70
  -2   4  -3   53.56    2.22
   2   4   3   60.58    2.27
   2   4   3   58.64    1.89
  -2  -4  -3   52.17    2.22
  -3  -4  -3   59.71    3.31
  -3  -4  -3   67.62    2.84
  -3   4  -3   62.10    2.53
  -3  -4  -3   61.67    2.60
  -3  -4  -3   62.38    2.02
  -4  -4  -3  432.15    8.68
  -4  -4  -3  410.10   10.95
  -4  -4  -3  429.80    9.84
  -5  -4  -3  141.07    4.57
  -5  -4  -3  146.70    5.79
   5   4   3  149.06    4.89
  -5  -4  -3  149.51    3.81
   6   4   3    6.82    1.19
  -6  -4  -3    5.11    1.01
  -6  -4  -3    5.32    1.61
   6  -4   3    6.49    1.18
  -6  -4  -3    5.16    1.00
  -6  -4  -3    6.85    0.81
  -7  -4  -3   22.08    2.53
  -7  -4  -3   23.49    1.73
  -7  -4  -3   20.92    1.63
   7  -4   3   22.38    1.99
   7   4   3   21.83    1.99
  -7  -4  -3   21.30    1.32
   8  -4   3  135.63    4.56
  -8  -4  -3  119.31    3.98
  -8  -4  -3  131.67    4.66
   8  -4   3  116.73    4.70
  -8  -4  -3  116.94    3.59
   8   4   3  122.51    4.95
   9   4   3   44.29    3.06
  -9  -4  -3   50.94    2.36
  -9  -4  -3   50.50    2.90
   9  -4   3   40.80    3.68
   9  -4   3   49.51    3.04
  -9  -4  -3   44.79    2.12
   9  -4   3   51.38    2.74
  10  -4   3    4.36    1.19
  10   4   3    5.67    1.56
 -10  -4  -3    3.25    0.85
  10  -4   3    2.47    1.67
 -10  -4  -3    5.65    1.37
 -10  -4  -3    3.82    0.92
  11   4   3    2.87    1.45
  11  -4   3    4.18    1.21
  11   4   3    1.82    1.93
 -11  -4  -3    2.26    0.85
 -11  -4  -3    1.16    1.29
 -11  -4  -3    2.84    0.88
  11  -4   3    1.95    1.89
  12   4   3    2.61    1.55
  12  -4   3    6.42    1.40
 -12  -4  -3    4.63    1.57
  12  -4   3    2.50    2.10
  12   4   3    6.74    2.58
 -13  -4  -3    1.33    1.45
  13  -4   3    1.61    1.20
  13  -4   3    0.62    2.53
  13   4   3    1.00    1.60
  14  -4   3   10.69    1.80
  16   5  -3   17.39    2.44
  15   5  -3   13.60    2.06
  14   5  -3    0.90    1.26
 -14   5   3    0.67    1.48
  13   5  -3    0.38    1.13
 -13   5   3    0.08    1.41
  13  -5  -3    1.47    0.84
  12   5  -3   17.95    1.95
 -12   5   3   15.64    2.09
  12   5  -3   16.08    2.51
  11   5  -3    8.91    1.48
 -11   5   3    8.13    1.62
  10   5  -3    4.06    1.03
 -10   5   3    1.85    1.15
   9   5  -3    9.25    0.61
  -9  -5   3    9.34    1.02
   9   5  -3    7.46    1.11
  -8  -5   3   30.65    1.52
  -8   5   3   31.22    1.98
   8   5  -3   30.96    1.84
  -7  -5   3   69.14    2.18
  -7   5   3   56.26    2.53
  -7   5   3   68.85    2.21
  -7  -5   3   69.99    2.26
   7   5  -3   63.69    2.51
  -7   5   3   54.75    3.11
  -6   5   3   24.80    1.96
  -6   5   3   27.15    1.22
  -6  -5   3   25.33    1.22
   6   5  -3   26.84    1.43
  -6  -5   3   26.19    1.18
   5   5  -3   19.49    0.51
   5   5  -3   22.80    1.16
  -5   5   3   22.81    1.05
  -5  -5   3   24.21    1.06
  -5   5   3   23.70    1.85
  -4   5   3  333.23    8.32
  -4   5   3  332.76    6.66
  -4  -5   3  330.77    6.65
  -3   5   3  630.40   13.82
  -3   5   3  650.31   12.90
  -2   5   3  487.21    9.81
  -2   5   3  458.29   10.60
  -1   5   3  315.02    6.61
   1  -5  -3  309.70    6.16
   1   5  -3  312.93    6.10
   1  -5  -3  307.04    8.84
   0   5   3  765.23   14.20
   0  -5  -3  757.04   14.40
   0  -5  -3  756.68   13.82
   0   5  -3  731.99   14.42
   0   5  -3  751.32   13.70
   0   5   3  708.64   14.93
   1   5   3 1126.78   20.33
  -1  -5  -3 1083.75   20.83
  -1   5  -3 1044.25   20.65
  -1  -5  -3 1112.04   20.47
   1   5   3 1159.91   21.21
  -2  -5  -3  614.77   11.79
  -2  -5  -3  657.12   13.78
  -2  -5  -3  598.88   14.62
  -2  -5  -3  563.31   12.27
   2   5   3  628.94   12.43
  -2   5  -3  588.77   12.30
   2   5   3  599.34   11.62
  -3  -5  -3  162.82    4.03
  -3  -5  -3  174.32    5.53
   3   5   3  166.55    4.53
  -3  -5  -3  154.55    6.14
  -4  -5  -3  220.86    5.07
  -4  -5  -3  229.14    6.67
  -4  -5  -3  217.16    7.83
  -5  -5  -3  325.73    8.25
  -5  -5  -3  320.11    6.52
  -5  -5  -3  334.20   10.08
  -6  -5  -3  125.82    3.25
  -6  -5  -3  120.80    5.71
  -6  -5  -3  127.12    4.22
  -6  -5  -3  120.13    4.36
   7   5   3    3.26    1.13
  -7  -5  -3    3.41    1.07
  -7  -5  -3    3.72    1.10
  -7  -5  -3    3.36    0.69
   7  -5   3    3.29    1.05
  -8  -5  -3    2.53    1.14
  -8  -5  -3    3.28    0.74
   8  -5   3    2.94    1.06
  -8  -5  -3    5.64    1.19
   8   5   3    3.65    1.23
  -9  -5  -3   27.94    2.21
  -9  -5  -3   24.92    1.88
   9  -5   3   23.61    2.15
   9   5   3   23.72    2.43
  -9  -5  -3   23.55    1.44
 -10  -5  -3   12.04    1.70
  10  -5   3   11.52    1.51
  10   5   3    9.05    1.83
 -10  -5  -3    9.74    1.04
 -11  -5  -3    0.91    1.29
  11  -5   3    1.71    1.03
  11   5   3    0.39    1.31
 -12  -5  -3    0.30    1.33
  12  -5   3    1.22    1.03
  12   5   3    0.10    1.48
  13  -5   3    2.88    1.29
  14  -5   3    3.90    1.37
  15   6  -3    3.93    1.74
  14   6  -3    3.84    1.55
  13   6  -3    1.46    1.27
  12   6  -3   -0.42    1.18
 -12   6   3    0.79    1.58
  12  -6  -3    0.46    1.02
  11  -6  -3    4.70    1.33
 -11  -6   3    2.67    0.98
 -11   6   3    1.86    1.47
  11   6  -3    2.56    1.15
  10  -6  -3    3.26    1.42
  10   6  -3    1.87    0.99
 -10  -6   3    1.93    0.84
  10   6  -3    2.15    0.41
 -10   6   3    1.70    1.20
 -10   6   3    0.61    1.25
   9   6  -3   13.06    0.86
  -9  -6   3   12.53    1.17
   9   6  -3   13.42    1.42
  -9   6   3    9.08    1.48
  -9   6   3   13.46    1.19
  -8  -6   3   30.14    1.53
   8   6  -3   27.61    1.78
  -8   6   3   30.85    1.54
  -8  -6   3   27.97    1.50
  -7  -6   3   24.93    1.32
  -7   6   3   21.46    2.10
   7   6  -3   22.88    1.48
  -7   6   3   24.83    1.26
  -7  -6   3   21.76    1.21
  -6   6   3   15.56    1.79
  -6  -6   3   21.86    1.16
  -6   6   3   15.73    1.36
  -6  -6   3   21.24    1.06
   6   6  -3   17.63    1.20
  -6   6   3   20.05    1.06
  -5   6   3  103.97    2.61
  -5  -6   3  100.24    2.56
  -5   6   3  103.51    3.30
  -4   6   3  152.29    5.11
  -4   6   3  149.43    4.17
  -3   6   3   68.44    3.03
  -3   6   3   69.53    2.42
  -2   6   3   18.88    1.16
   2  -6  -3   22.31    2.40
  -1   6   3   33.79    1.51
   1   6  -3   33.04    1.44
   0   6  -3   36.98    1.58
   0   6   3   36.62    2.00
   0  -6  -3   35.21    3.04
   0  -6  -3   37.52    1.27
   0   6  -3   38.90    1.21
   0  -6  -3   34.84    1.57
   0   6   3   38.62    1.60
   0  -6  -3   37.03    2.02
   1   6   3    0.80    0.54
  -1   6  -3    0.71    0.36
   1   6   3    0.26    0.68
   1  -6   3    0.26    0.25
  -1   6  -3    0.47    0.54
  -1  -6  -3    0.52    0.73
  -1  -6  -3    0.58    0.38
  -1  -6  -3   -0.06    0.47
  -2  -6  -3   33.48    1.96
   2   6   3   32.23    1.82
   2   6   3   32.29    1.43
  -3  -6  -3   18.84    1.21
  -3   6  -3   13.85    1.57
   3   6   3   16.55    1.38
  -3  -6  -3   19.41    2.61
  -3  -6  -3   20.62    1.59
  -4  -6  -3    9.75    2.19
  -4  -6  -3    7.57    0.88
   4   6   3    8.71    1.08
  -4   6  -3    6.90    1.12
  -4  -6  -3    9.32    1.24
  -5  -6  -3   48.42    2.47
  -5  -6  -3   46.63    3.90
  -5  -6  -3   44.31    1.84
  -5  -6  -3   46.87    2.51
  -6  -6  -3   52.93    2.64
  -6  -6  -3   52.25    2.69
  -6  -6  -3   51.22    1.96
  -7  -6  -3   27.23    1.97
  -7  -6  -3   26.43    1.44
  -7  -6  -3   28.15    2.11
  -8  -6  -3    5.94    1.37
  -8  -6  -3    4.07    0.77
  -9  -6  -3    5.07    0.83
  -9  -6  -3    5.99    1.47
  10   6   3    9.35    1.83
 -10  -6  -3    8.90    1.66
 -11  -6  -3    1.26    1.32
  11   6   3    0.20    1.29
  11  -6   3    2.34    1.07
  12  -6   3    1.53    1.14
  13  -6   3    0.67    1.18
  14  -6   3    0.57    1.26
  15   7  -3    9.64    1.98
  14   7  -3    2.74    1.47
  13   7  -3    9.42    1.77
 -12   7   3   52.35    3.41
  12   7  -3   58.51    3.40
 -11  -7   3   77.63    3.09
  11   7  -3   70.06    1.72
  11   7  -3   73.06    3.59
 -10  -7   3   31.61    1.87
  10   7  -3   31.50    1.24
  10   7  -3   27.18    2.10
 -10   7   3   34.64    1.83
 -10  -7   3   27.41    1.68
   9   7  -3   39.04    1.60
  -9  -7   3   36.71    1.87
   9   7  -3   34.98    2.18
  -9   7   3   37.90    1.78
  -9  -7   3   35.36    1.76
   8   7  -3  159.59    7.66
  -8  -7   3  158.66    4.15
  -8   7   3  141.38    4.75
   8   7  -3  138.59    3.80
   8   7  -3  136.42    4.39
  -8   7   3  151.16    3.81
  -8  -7   3  142.82    3.74
   7   7  -3  213.20    9.14
  -7  -7   3  198.38    4.95
  -7   7   3  193.72    5.61
  -7   7   3  208.49    4.60
  -7  -7   3  193.36    4.50
  -6  -7   3   61.33    2.19
  -6  -7   3   56.52    1.77
   6   7  -3   55.47    4.66
  -6   7   3   57.76    2.54
  -6   7   3   58.28    1.81
  -6   7   3   49.79    3.12
  -5   7   3   25.12    1.64
  -5   7   3   21.17    2.04
  -4   7   3  104.10    3.37
  -4   7   3  108.33    4.32
  -3   7   3  168.41    4.54
   3  -7  -3  230.81    8.23
   2   7  -3   16.98    0.89
  -2   7   3   16.58    1.18
   1  -7  -3    3.66    0.97
  -1   7   3    4.01    0.73
  -1   7   3    3.83    0.99
   1   7  -3    1.26    1.67
   1   7  -3    2.80    0.54
   1  -7  -3    3.36    0.52
   1  -7  -3    5.40    2.08
   0   7   3   17.03    1.16
   0  -7   3   18.64    0.76
   0   7  -3   13.45    2.15
   0   7   3   16.42    1.46
   0  -7  -3   22.20    3.07
   0  -7  -3   18.30    1.58
  -1  -7  -3  104.04    3.78
  -1  -7  -3  100.94    2.49
  -1   7  -3  106.21    2.41
   1   7   3   97.80    3.57
   1   7   3  106.87    3.03
   1  -7   3  109.36    2.41
  -2   7  -3    7.80    1.60
   2   7   3   12.80    1.00
  -2  -7  -3   11.43    0.76
  -2   7  -3   11.12    0.69
  -2  -7  -3   14.28    1.44
   2  -7   3   11.24    0.72
   2   7   3   10.50    1.26
  -3  -7  -3    7.04    1.22
  -3   7  -3    5.21    1.22
   3   7   3    7.64    1.10
  -4   7  -3    8.87    1.20
   4   7   3   10.89    1.29
  -4  -7  -3    9.62    1.29
  -5   7  -3   81.67    2.91
  -5  -7  -3  107.71    3.89
  -6  -7  -3   40.94    2.47
  -6  -7  -3   38.69    2.45
  -6  -7  -3   37.49    1.78
  -7  -7  -3    1.95    1.06
  -7  -7  -3    2.14    0.73
  -8  -7  -3   17.54    1.93
  -9  -7  -3   66.29    3.50
 -10  -7  -3   34.11    2.67
  11  -7   3    5.16    1.31
  12  -7   3    6.89    1.53
  13  -7   3   12.29    1.77
  14   8  -3    2.47    1.96
  13   8  -3    0.54    1.27
  13   8  -3    1.66    1.79
  12   8  -3    0.56    1.20
 -12  -8   3    0.23    1.04
  11   8  -3    2.50    1.21
 -11  -8   3    2.81    1.07
 -11   8   3    2.44    0.97
  10   8  -3    3.02    1.05
 -10  -8   3    3.26    0.98
  10   8  -3    3.11    0.69
 -10   8   3    1.71    1.29
 -10   8   3    2.46    0.85
  -9  -8   3    0.60    0.76
  -9   8   3    0.41    1.09
  -9   8   3    0.34    0.66
   9   8  -3    0.50    0.70
  -8  -8   3    1.36    0.78
  -8   8   3    1.27    1.11
   8   8  -3    1.48    0.86
  -8   8   3    1.59    0.62
   8  -8  -3    3.88    2.31
  -7  -8   3    0.65    0.69
  -7   8   3   -0.38    0.96
  -7  -8   3    0.22    0.49
   6  -8  -3    1.50    2.44
  -6   8   3    0.47    0.91
  -5   8   3    8.98    1.20
   5   8  -3    6.33    2.58
  -4   8   3   15.95    1.92
  -4   8   3   15.59    1.34
   4   8  -3   15.28    0.71
   4   8  -3   19.37    3.16
   4   8  -3   11.74    0.56
   3  -8  -3    1.58    0.30
  -3   8   3    2.41    0.80
   3   8  -3    0.95    2.11
   2  -8  -3   -0.72    2.44
   2   8  -3   -0.12    1.83
  -2   8   3    0.21    0.72
  -2   8   3   -0.11    1.03
  -1   8   3    9.10    0.98
   1  -8  -3   10.94    2.89
   1   8  -3   10.80    2.40
   1  -8  -3    9.71    1.33
  -1   8   3    9.14    1.33
   0  -8   3   18.02    0.86
   0   8  -3   14.46    2.24
   0   8   3   16.87    1.59
   0  -8  -3   18.57    1.69
   0   8   3   16.89    1.21
  -1  -8  -3    1.90    2.36
   1  -8   3    1.18    0.43
   1   8   3    0.75    0.67
   1   8   3    0.94    0.97
  -1   8  -3    1.38    1.37
  -1  -8  -3    0.15    0.96
   2  -8   3    2.67    0.52
  -2   8  -3    1.13    1.13
   2   8   3    2.65    0.72
   2   8   3    2.05    0.98
  -2  -8  -3    2.14    0.43
  -2  -8  -3    2.00    1.01
  -3   8  -3    0.16    1.01
  -3  -8  -3    0.65    1.00
   3   8   3    0.54    0.91
  -3  -8  -3   -0.16    0.48
  -3   8  -3   -0.01    0.37
  -4  -8  -3    2.10    1.07
   4   8   3    1.52    1.01
  -4   8  -3    1.64    0.97
  -4   8  -3    1.47    0.50
   5   8   3    0.04    0.96
  -6  -8  -3    7.13    1.47
  -7  -8  -3    3.85    1.30
  -8  -8  -3   -0.37    1.18
  -9  -8  -3    0.67    1.34
 -10  -9   3   10.21    1.30
   9   9  -3    8.81    1.12
   9   9  -3   10.65    1.46
  -9   9   3    7.79    1.59
  -9  -9   3    8.98    1.24
   8   9  -3   21.54    1.63
  -8  -9   3   22.59    1.63
  -8   9   3   22.44    2.04
   8   9  -3   26.39    1.62
  -7  -9   3   28.44    1.72
   7   9  -3   29.52    1.93
   7   9  -3   28.39    1.24
  -7   9   3   28.71    2.10
  -6   9   3   13.68    1.52
  -5   9   3    9.82    1.32
  -4   9   3   27.14    1.74
   4   9  -3   24.82    0.92
  -3   9   3   35.46    1.87
   3   9  -3   33.54    1.34
   2  -9  -3   18.52    1.79
  -2   9   3   17.89    1.38
   2   9  -3   13.70    2.58
  -1   9   3   12.05    1.18
   1  -9  -3   12.27    1.55
   1   9  -3   10.84    2.21
   0  -9  -3   32.87    2.31
   0   9  -3   26.20    2.71
   0   9   3   29.60    1.63
   1  -9   3   51.45    1.55
   1   9   3   48.13    2.02
   2  -9   3   27.54    1.12
   2   9   3   24.05    1.44
  -3   9  -3   13.67    1.82
   3  -9   3   16.26    0.97
   4  -9   3   29.58    1.37
  -4   9  -3   24.28    0.79
  -5   9  -3   36.38    1.22
  -6  -9  -3   22.67    2.18
  -7  -9  -3   10.06    1.69
   7  10  -3   -0.59    1.17
  -7 -10   3    0.38    0.89
  -7  10   3    0.05    1.21
  -6  10   3   -0.15    1.10
  -5  10   3    6.21    1.23
   4  10  -3    9.23    0.58
  -4  10   3    9.50    1.33
  -3  10   3   -0.70    0.94
   3  10  -3    0.14    0.54
  -2  10   3    2.01    0.91
   2  10  -3    2.38    0.71
  -1  10   3    0.65    0.80
   0  10   3    2.57    0.88
   1  10   3    2.37    0.84
   2  10   3   10.24    1.08
  -5  11   3   18.97    1.79
  -4  11   3   17.74    1.68
  -3  11   3   22.11    1.73
  -2  11   3   30.31    1.90
  -1  11   3   38.37    2.06
   0  11  -3   34.47    1.96
   0  11   3   35.74    1.90
   1  11   3   26.51    1.66
 -17   0   4    2.20    1.04
  16   0  -4    3.40    1.12
 -16   0   4    1.32    0.86
  15   0  -4    6.32    1.24
 -15   0   4    2.47    0.92
 -14   0   4   32.87    2.12
  14   0  -4   58.86    2.80
 -13   0   4   31.94    1.96
  13   0  -4   43.34    2.33
  12   0  -4    0.83    0.72
 -12   0   4    1.15    0.66
 -11   0   4   66.12    2.58
  11   0  -4   67.22    2.72
 -10   0   4  573.22   11.69
  -9   0   4  673.99   13.21
  -8   0   4  192.10    4.67
   8   0  -4  205.59    4.47
   7   0  -4  424.25    8.28
  -7   0   4  419.59    8.44
  -7   0   4  415.62    8.68
  -6   0   4 2229.54   40.71
   6   0  -4 2384.68   40.70
   6   0  -4 2210.99   40.72
  -6   0   4 2358.30   41.10
  -5   0   4 1753.76   32.20
   5   0  -4 1849.02   32.16
  -5   0   4 1825.37   32.39
   5   0  -4 1784.21   32.43
   4   0  -4  302.25    6.12
  -4   0   4  307.46    6.33
   4   0  -4  307.82    6.33
  -4   0   4  302.91    6.23
  -3   0   4  457.08    9.02
   3   0  -4  458.87    9.06
  -3   0   4  475.27    9.05
   2   0  -4 1188.99   21.63
   1   0  -4 1037.83   19.54
   1   0  -4 1088.70   19.50
   0   0  -4    6.10    0.67
   0   0  -4    5.92    0.65
   0   0  -4    7.17    0.63
  -1   0  -4   71.69    2.49
  -1   0  -4   66.49    2.12
  -2   0  -4  110.15    3.03
  -2   0  -4  109.57    3.46
  -2   0  -4  102.50    3.56
   2   0   4  112.67    3.24
  -3   0  -4  207.03    4.96
   3   0   4  210.50    5.51
  -3   0  -4  208.72    5.59
   3   0   4  216.59    5.28
  -4   0  -4   71.98    2.55
  -4   0  -4   76.86    3.18
   4   0   4   76.32    2.88
  -4   0  -4   71.70    3.07
  -5   0  -4  131.43    4.62
  -5   0  -4  124.14    4.43
   5   0   4  139.63    4.42
   6   0   4    5.99    1.08
  -6   0  -4    5.34    0.88
  -6   0  -4    5.27    1.19
   7   0   4  156.12    5.36
  -7   0  -4  151.04    4.62
  -7   0  -4  161.65    5.54
  -8   0  -4    9.32    1.20
   8   0   4    9.76    1.52
  -9   0  -4    5.96    1.17
   9   0   4    8.99    1.59
  10   0   4   24.33    2.46
  10   0   4   21.71    2.34
  11   0   4  117.06    5.31
  12   0   4   43.92    3.39
  13   0   4    3.10    1.74
 -18   1   4    1.10    1.26
 -17   1   4    2.42    1.21
  16   1  -4    1.78    1.12
 -16  -1   4    0.45    0.72
 -16   1   4    0.31    0.99
  15   1  -4    0.11    0.97
  15  -1  -4    0.39    0.87
 -15  -1   4   -0.21    0.72
 -15   1   4   -0.64    0.94
 -14  -1   4    6.85    1.03
  14   1  -4   13.90    1.51
  14  -1  -4   12.09    1.45
 -14   1   4    7.06    1.23
 -13  -1   4   37.60    1.99
 -13   1   4   38.02    2.32
 -12  -1   4   35.93    1.80
 -12   1   4   33.82    2.07
 -11  -1   4   10.43    0.96
 -11   1   4    9.04    1.15
  11   1  -4   11.03    1.16
 -10  -1   4   40.71    1.72
 -10   1   4   40.37    1.98
  10   1  -4   42.20    2.05
   9   1  -4  125.15    2.81
   9   1  -4  114.52    3.51
  -9  -1   4  116.14    3.13
  -9   1   4  118.92    3.57
  -8  -1   4   58.09    1.88
  -8   1   4   58.35    2.18
   8  -1  -4   61.49    2.08
   8   1  -4   59.47    1.66
   8   1  -4   53.84    2.02
  -7  -1   4   15.30    0.86
  -7   1   4   13.75    0.96
   7  -1  -4   16.31    1.02
  -7  -1   4   15.42    1.05
   7   1  -4   15.03    0.81
   6  -1  -4   28.13    1.30
  -6   1   4   26.76    1.27
   6   1  -4   29.73    1.10
  -6  -1   4   29.79    1.39
  -6  -1   4   28.29    1.16
  -5   1   4   10.25    0.77
   5   1  -4   10.59    0.64
  -5  -1   4   10.30    0.78
  -5  -1   4   11.91    0.72
   5  -1  -4    9.56    0.79
   4   1  -4   29.43    1.09
  -4  -1   4   29.70    1.25
   4  -1  -4   29.60    1.25
  -4  -1   4   29.60    1.17
  -4   1   4   28.76    1.24
   3   1  -4  540.79    9.98
  -3   1   4  553.32   10.53
  -3  -1   4  544.76   10.44
   3  -1  -4  539.44   10.47
   3   1  -4  549.96   10.31
   2  -1  -4  648.76   12.10
   2   1  -4  670.74   12.00
   2   1  -4  632.49   12.06
   2  -1  -4  640.02   12.12
  -2   1   4  639.07   12.18
   1   1  -4  236.79    5.23
   1  -1  -4  230.85    5.10
   1  -1  -4  243.20    5.18
   0   1  -4  120.08    3.34
   0  -1  -4  111.73    3.10
   0  -1  -4  113.13    3.01
   0   1  -4  113.61    2.76
  -1   1  -4  407.59    8.04
   1  -1   4  399.09    8.51
  -1  -1  -4  393.68    8.57
  -1  -1  -4  409.87    8.48
  -1   1  -4  427.52    9.09
  -1  -1  -4  412.59    8.37
   2  -1   4  316.04    7.28
  -2  -1  -4  302.14    7.18
  -2   1  -4  332.48    7.74
  -2   1  -4  307.86    6.57
  -2  -1  -4  300.31    7.49
   2  -1   4  337.08    6.85
  -2  -1  -4  313.13    6.85
  -2  -1  -4  318.13    6.92
   3   1   4   16.32    1.28
   3  -1   4   17.60    1.41
  -3  -1  -4   18.60    1.38
  -3   1  -4   19.12    1.56
  -3  -1  -4   21.45    1.30
  -3  -1  -4   16.63    1.41
   3  -1   4   20.18    1.24
   4  -1   4   20.95    1.67
  -4  -1  -4   18.13    1.48
  -4  -1  -4   18.15    1.55
   4   1   4   21.47    1.52
  -4  -1  -4   18.81    1.29
   4  -1   4   20.23    1.38
   5   1   4   -0.14    0.65
  -5  -1  -4    0.10    0.61
  -5  -1  -4    0.18    0.62
   5  -1   4    0.63    0.76
  -5  -1  -4   -0.19    0.67
  -5  -1  -4    0.05    0.73
  -6   1  -4    1.73    0.63
   6   1   4    1.61    0.88
   6  -1   4    2.33    1.02
  -6  -1  -4    0.68    0.81
  -6  -1  -4    2.27    0.94
   6  -1   4    1.42    0.76
   7   1   4   33.18    2.46
  -7  -1  -4   37.38    2.51
  -7  -1  -4   34.96    2.22
   7  -1   4   40.17    2.49
  -7   1  -4   36.17    1.81
   7   1   4   37.02    2.50
   8   1   4   84.22    3.98
  -8  -1  -4   82.64    3.83
  -8  -1  -4   75.86    3.37
   8   1   4   83.80    3.97
   8  -1   4   84.67    3.85
  -9   1  -4   22.84    1.52
  -9  -1  -4   22.98    1.95
   9   1   4   30.80    2.58
  -9  -1  -4   27.72    2.36
   9   1   4   30.11    2.56
   9  -1   4   31.93    2.49
  10   1   4    3.48    1.40
  10  -1   4    1.43    1.21
  11   1   4    9.35    1.80
  11  -1   4    9.91    1.78
  12   1   4   14.31    2.20
  12  -1   4   14.93    2.16
  13  -1   4    3.35    1.58
  13   1   4    3.73    1.76
  14  -1   4   -0.74    1.73
 -18   2   4   25.36    2.49
 -17   2   4   18.69    2.08
  16   2  -4    8.68    1.40
 -16   2   4    8.21    1.52
 -15  -2   4   19.83    1.37
  15   2  -4   34.97    2.26
 -15   2   4   25.25    2.22
  15  -2  -4   34.67    2.28
 -14  -2   4   51.04    2.17
  14   2  -4   77.54    3.20
 -14   2   4   46.81    2.91
 -14   2   4   88.94    2.94
 -13   2   4   65.01    2.61
 -13   2   4   41.90    2.59
  13   2  -4   65.15    2.85
 -13  -2   4   49.62    1.99
 -12  -2   4    8.53    0.79
  12   2  -4   10.02    1.19
 -12   2   4    8.15    1.06
 -11  -2   4   21.11    1.14
  11   2  -4   22.33    1.56
 -11   2   4   20.47    1.65
 -11   2   4   19.88    1.49
 -10  -2   4  105.36    2.65
  10   2  -4  105.18    3.28
 -10   2   4   99.08    3.41
   9   2  -4   60.78    2.23
  -9   2   4   59.34    2.45
   9   2  -4   60.30    1.51
   8   2  -4    6.37    0.66
  -8   2   4    6.40    0.85
  -8   2   4    5.58    0.89
  -8  -2   4    7.35    0.59
  -7   2   4   12.78    1.02
   7   2  -4   11.21    0.66
  -7   2   4   10.48    1.08
   7  -2  -4   11.21    1.02
  -7   2   4   11.55    0.92
  -7  -2   4   11.33    0.96
  -7  -2   4   11.78    0.69
   6   2  -4  116.04    2.61
  -6   2   4  111.90    3.18
  -6   2   4  108.02    3.03
  -6  -2   4  114.24    3.11
  -6   2   4  111.78    3.66
  -6  -2   4  113.87    2.74
  -5   2   4   49.66    1.82
   5  -2  -4   56.96    2.08
   5   2  -4   50.93    1.45
  -5   2   4   49.58    1.74
  -5  -2   4   54.02    1.83
  -5   2   4   51.26    2.26
  -4   2   4    6.99    0.66
  -4   2   4    6.88    0.65
  -4  -2   4    6.60    0.64
  -4   2   4    7.76    0.92
   4   2  -4    6.75    0.52
  -3   2   4   14.45    0.91
   3  -2  -4   15.46    0.91
   3   2  -4   16.63    0.83
   3  -2  -4   14.42    0.86
   3   2  -4   15.30    0.89
  -2   2   4  331.67    7.01
   2  -2  -4  345.14    6.96
   2  -2  -4  330.74    6.87
   2   2  -4  339.88    6.87
   2  -2  -4  352.63    7.60
   1   2  -4  516.01    9.50
  -1  -2   4  531.44    9.86
   1  -2  -4  518.66   10.11
   1  -2  -4  514.50   10.04
   1   2  -4  519.42   10.05
   1  -2  -4  535.77   10.91
  -1   2   4  501.18   10.13
   0  -2  -4  191.89    4.46
   0   2  -4  190.51    3.95
   0  -2   4  202.05    4.61
   0  -2  -4  204.83    5.21
   0  -2  -4  185.21    4.72
   1  -2   4  210.53    5.22
  -1  -2  -4  199.06    5.00
  -1  -2  -4  209.45    5.51
  -1  -2  -4  206.52    4.79
  -2  -2  -4  898.52   17.82
  -2  -2  -4  891.65   18.18
  -2  -2  -4  896.95   17.58
  -2  -2  -4  911.43   18.25
  -2   2  -4  867.64   18.05
   2  -2   4  930.58   18.21
  -2  -2  -4  913.03   17.29
  -3  -2  -4  893.30   18.01
   3  -2   4  910.63   18.61
  -3   2  -4  875.03   18.23
  -3  -2  -4  934.09   17.77
  -3  -2  -4  918.42   18.43
  -3  -2  -4  883.79   18.38
  -3  -2  -4  899.75   17.45
  -4  -2  -4  334.75    8.33
  -4  -2  -4  335.94    7.63
  -4  -2  -4  341.72    8.06
   4  -2   4  326.65    8.53
  -4  -2  -4  317.00    8.12
  -4   2  -4  314.09    8.04
  -4  -2  -4  323.72    8.19
  -4  -2  -4  323.24    7.32
   4  -2   4  358.47    7.64
  -5  -2  -4  184.45    5.03
  -5  -2  -4  184.97    5.81
  -5  -2  -4  183.23    5.70
  -5  -2  -4  189.85    5.54
   5  -2   4  196.66    6.11
  -5  -2  -4  171.08    5.38
  -5   2  -4  174.30    5.51
   5  -2   4  198.67    5.30
  -6  -2  -4  334.89    8.12
  -6  -2  -4  345.74    8.71
  -6  -2  -4  328.56    8.87
   6  -2   4  355.06    8.61
  -7   2  -4  349.63    7.48
   7  -2   4  404.15   10.21
  -7  -2  -4  367.84    9.22
  -7  -2  -4  330.49    9.13
  -7  -2  -4  338.29    8.69
   7  -2   4  381.92    9.28
  -8  -2  -4  103.96    4.27
  -8  -2  -4   96.16    4.29
  -8  -2  -4  100.51    3.72
   8  -2   4   98.24    4.11
  -9  -2  -4   10.75    1.70
   9  -2   4   13.72    2.01
  -9  -2  -4   13.63    1.78
  -9  -2  -4   13.65    1.44
   9   2   4    9.72    1.76
   9  -2   4   11.98    1.70
 -10  -2  -4   33.10    2.68
  10   2   4   36.76    3.02
 -10  -2  -4   33.77    2.07
  10  -2   4   33.64    2.64
  11   2   4   39.77    3.26
 -11  -2  -4   47.91    2.39
  11  -2   4   45.26    3.14
 -12  -2  -4   13.05    1.36
  12  -2   4   14.74    2.05
  13   2   4   -0.87    1.42
  13  -2   4   -0.51    1.56
  14  -2   4    1.40    1.59
  17   3  -4    4.21    1.57
 -17   3   4    6.65    1.67
  16   3  -4    0.47    1.25
 -16   3   4    0.45    1.15
  15   3  -4   21.47    2.29
 -15   3   4   14.04    1.89
 -14  -3   4    1.41    0.49
 -14   3   4    0.44    0.93
 -14   3   4    0.13    1.03
 -13  -3   4    8.95    0.74
 -13   3   4    9.61    1.36
 -13   3   4    7.25    1.37
 -12   3   4    6.29    1.14
 -12   3   4    4.37    1.15
 -12  -3   4    5.18    0.57
 -11   3   4   73.61    3.23
 -11  -3   4   78.11    2.06
 -10   3   4   34.88    2.07
 -10  -3   4   37.25    1.24
  -9   3   4   27.50    1.72
   9   3  -4   26.69    0.92
  -9  -3   4   27.34    1.02
  -8   3   4    0.62    0.62
  -8   3   4    0.63    0.67
  -8   3   4    0.07    0.58
  -8  -3   4    1.53    0.66
  -7   3   4  109.02    3.36
  -7   3   4  118.31    3.23
  -7  -3   4  109.51    3.14
  -6   3   4   46.75    1.94
   6   3  -4   48.88    1.31
  -6   3   4   48.53    1.78
  -6  -3   4   45.85    1.76
  -6   3   4   45.66    2.32
   5   3  -4  146.14    3.10
  -5   3   4  140.98    3.77
  -5   3   4  149.53    3.60
  -5  -3   4  148.55    3.60
  -5   3   4  150.49    4.51
  -4   3   4  189.14    4.56
   4  -3  -4  197.87    4.64
  -4   3   4  193.28    4.35
  -4  -3   4  191.10    4.35
  -4   3   4  195.63    5.30
   4   3  -4  193.69    4.04
  -3   3   4   16.54    1.01
   3  -3  -4   18.41    1.31
   3  -3  -4   17.54    0.97
   3   3  -4   17.15    0.93
  -3   3   4   19.36    1.38
   3  -3  -4   17.65    1.04
   3   3  -4   16.96    0.87
   2  -3  -4   15.32    1.26
   2  -3  -4   15.74    0.98
  -2  -3   4   15.78    0.72
   2  -3  -4   14.33    0.87
   2   3  -4   14.52    0.85
  -2   3   4   14.62    1.21
   1  -3  -4  347.26    7.82
   1  -3  -4  329.70    6.99
  -1  -3   4  332.88    7.00
   1  -3  -4  327.63    6.87
   1   3  -4  346.22    6.88
   0  -3   4  408.74    8.79
   0  -3  -4  407.74    8.30
   0  -3  -4  390.73    8.78
  -1  -3  -4    0.25    0.52
   1  -3   4    0.35    0.58
  -1  -3  -4   -0.07    0.47
  -1  -3  -4   -0.25    0.59
  -2  -3  -4   39.03    2.08
  -2  -3  -4   39.80    1.67
   2  -3   4   41.21    2.26
  -2  -3  -4   45.14    2.48
  -2   3  -4   38.10    1.99
   2  -3   4   44.78    1.44
  -2  -3  -4   43.47    2.22
  -2  -3  -4   39.65    1.91
  -3  -3  -4   73.45    3.32
  -3  -3  -4   74.89    2.91
   3  -3   4   74.74    3.28
  -3  -3  -4   73.58    2.74
  -3   3  -4   67.22    2.81
  -3  -3  -4   68.62    2.91
  -3  -3  -4   70.31    3.00
  -3  -3  -4   76.01    2.50
   3  -3   4   81.22    2.39
  -4  -3  -4  172.80    4.78
  -4   3  -4  150.23    4.92
  -4  -3  -4  176.13    5.05
  -4  -3  -4  172.96    5.76
   4  -3   4  178.85    5.66
  -4  -3  -4  165.87    5.16
  -4  -3  -4  161.17    5.05
  -4  -3  -4  168.41    4.40
   4  -3   4  188.29    4.64
  -5  -3  -4    7.03    1.00
  -5  -3  -4    7.56    1.11
   5  -3   4    8.59    1.38
  -5  -3  -4    7.94    1.45
  -5  -3  -4    6.94    1.20
  -5  -3  -4    7.42    1.10
  -5  -3  -4    5.92    0.84
   5  -3   4    9.54    1.09
   6  -3   4  114.99    3.99
  -6  -3  -4  111.02    4.12
  -6  -3  -4  104.13    3.66
   6  -3   4  115.23    4.61
  -6  -3  -4   97.56    4.34
  -6  -3  -4   91.73    3.65
  -6  -3  -4  103.44    3.36
   7  -3   4    0.28    0.83
  -7  -3  -4    0.63    0.83
  -7  -3  -4    0.51    0.91
  -7   3  -4    0.14    0.40
  -7  -3  -4   -0.21    0.68
   7  -3   4    0.57    1.04
  -7  -3  -4    0.56    0.77
  -7  -3  -4   -0.37    1.14
   8  -3   4   18.63    1.81
   8  -3   4   20.64    2.13
  -8  -3  -4   17.31    1.82
  -8  -3  -4   17.38    2.17
  -8   3  -4   11.78    0.68
  -8  -3  -4   17.17    1.51
  -8  -3  -4   14.18    1.33
   9  -3   4    4.16    1.16
  -9  -3  -4    3.96    0.97
   9  -3   4    6.41    1.52
  -9  -3  -4    4.86    1.63
  -9  -3  -4    5.49    1.04
  10  -3   4   44.99    2.95
 -10  -3  -4   40.40    2.21
  11  -3   4    4.21    1.43
 -11  -3  -4    3.33    0.94
  12  -3   4    4.34    1.52
 -12  -3  -4    1.76    1.49
  13  -3   4   -0.16    1.47
  14  -3   4    4.54    1.60
  16   4  -4   12.43    2.04
 -16   4   4   10.51    1.87
  15   4  -4   11.82    1.83
 -15   4   4    6.72    1.64
  14   4  -4   11.24    1.77
 -14   4   4   10.51    1.63
 -14   4   4    5.79    1.50
  13   4  -4   23.71    2.21
 -13   4   4   21.16    2.07
 -12   4   4   42.08    2.66
 -12   4   4   43.11    2.80
 -11   4   4   35.03    2.32
 -11   4   4   29.14    2.28
 -10   4   4   32.13    2.08
  10   4  -4   30.20    0.81
   9   4  -4   75.27    3.08
  -9   4   4   67.44    2.85
  -9   4   4   73.23    2.58
  -9  -4   4   69.32    2.58
   8   4  -4  196.82    5.30
  -8   4   4  187.55    5.15
  -8   4   4  198.88    4.78
  -8  -4   4  197.02    4.81
   7   4  -4  164.93    4.42
  -7   4   4  157.45    4.46
  -7   4   4  164.58    4.07
  -7  -4   4  167.05    4.13
   6   4  -4  118.03    3.25
   6   4  -4  114.52    2.39
  -6   4   4  116.43    3.47
  -6   4   4  114.08    3.08
  -6  -4   4  115.58    3.10
  -6   4   4  109.50    4.05
  -5   4   4  147.59    4.01
  -5   4   4  156.12    3.73
  -5  -4   4  155.82    3.75
   5   4  -4  153.59    3.59
  -5   4   4  153.38    4.82
   5   4  -4  150.97    3.16
  -4   4   4  384.16    8.89
  -4   4   4  369.89    7.48
  -4  -4   4  364.77    7.45
   4   4  -4  381.21    7.18
   4   4  -4  367.71    7.03
   3  -4  -4  400.09    8.21
  -3   4   4  421.35    9.46
   2  -4  -4  179.44    4.43
   2  -4  -4  178.23    4.15
   2   4  -4  177.05    4.08
  -2   4   4  190.38    5.15
   1  -4  -4  149.93    3.92
   1  -4  -4  157.69    3.75
   1   4  -4  160.38    3.71
  -1   4   4  156.83    3.94
   0  -4  -4  279.12    7.00
   0  -4  -4  261.98    5.85
   0  -4   4  256.75    6.41
   0  -4  -4  259.81    5.62
   0   4  -4  266.25    5.62
   0  -4  -4  249.66    6.33
   0   4   4  265.27    5.84
   0  -4  -4  251.96    7.26
  -1  -4  -4  273.23    7.71
   1  -4   4  266.72    6.95
  -1  -4  -4  280.81    6.15
  -1  -4  -4  282.51    6.86
  -1   4  -4  274.81    6.78
   1   4   4  280.86    6.14
  -1  -4  -4  268.39    6.66
  -2  -4  -4  155.26    4.86
  -2  -4  -4  141.96    3.75
   2  -4   4  157.71    3.21
  -2  -4  -4  143.28    5.22
   2  -4   4  134.20    4.57
  -2   4  -4  137.24    4.29
  -2  -4  -4  141.44    4.27
  -2  -4  -4  132.01    4.30
  -3  -4  -4   56.59    2.75
  -3  -4  -4   58.61    2.14
  -3  -4  -4   54.60    2.63
  -3  -4  -4   58.62    3.28
   3  -4   4   56.44    2.89
  -3   4  -4   53.99    2.52
   3  -4   4   64.25    1.97
  -3  -4  -4   58.35    2.51
  -4  -4  -4   75.35    3.11
   4  -4   4   75.47    3.48
  -4  -4  -4   71.27    3.76
   4  -4   4   79.93    2.63
  -4  -4  -4   74.56    2.55
  -4   4  -4   72.03    3.09
  -4  -4  -4   73.64    3.29
  -4  -4  -4   76.54    3.28
  -4  -4  -4   74.80    2.94
  -5  -4  -4   97.61    3.87
   5  -4   4  116.57    3.68
  -5  -4  -4  113.21    3.80
  -5  -4  -4  107.92    3.97
   5  -4   4  115.05    4.52
  -5  -4  -4  101.57    4.64
  -5  -4  -4  110.45    3.33
  -6  -4  -4   56.23    2.62
   6  -4   4   55.55    2.63
  -6  -4  -4   47.68    3.30
   6  -4   4   56.20    3.18
  -6  -4  -4   47.88    2.58
  -6  -4  -4   57.77    2.30
  -7  -4  -4   20.77    1.70
   7  -4   4   22.30    1.83
  -7  -4  -4   21.12    1.71
   7  -4   4   23.07    2.14
  -7   4  -4   17.48    0.72
   7   4   4   23.10    2.17
  -7  -4  -4   21.95    2.55
  -7  -4  -4   20.63    1.44
  -8  -4  -4   19.41    1.64
   8  -4   4   21.11    1.89
  -8  -4  -4   19.98    2.41
   8  -4   4   21.36    2.14
   8   4   4   20.88    2.20
  -8  -4  -4   16.48    1.40
   9  -4   4   31.03    2.34
  -9  -4  -4   30.35    1.96
   9   4   4   30.80    2.71
   9  -4   4   33.26    2.67
  -9  -4  -4   28.25    1.83
  10  -4   4   22.80    2.14
 -10  -4  -4   22.44    1.71
 -10  -4  -4   21.40    2.26
 -10  -4  -4   16.70    1.55
  10   4   4   25.81    2.64
  11   4   4    6.12    1.77
 -11  -4  -4    5.06    1.11
 -11  -4  -4    5.81    1.56
 -11  -4  -4    7.47    1.21
  11  -4   4    8.66    1.53
  12   4   4    3.88    1.79
  12  -4   4    8.44    1.62
 -12  -4  -4    5.49    1.64
  13  -4   4    7.76    1.72
  14  -4   4    3.84    1.59
  16   5  -4   -0.26    1.41
  15   5  -4    7.92    1.81
 -15   5   4    4.15    1.52
  14   5  -4   -0.23    1.28
 -14   5   4   -0.07    1.47
 -14   5   4   -0.23    1.29
  13   5  -4    5.59    1.51
 -13   5   4    3.55    1.32
 -13   5   4    2.42    1.38
  12   5  -4    0.19    1.04
 -12   5   4   -0.45    1.09
 -12   5   4    0.37    1.18
  11   5  -4   12.86    1.57
 -11   5   4   14.19    1.65
 -11   5   4   14.36    1.42
  10   5  -4    3.92    1.04
 -10   5   4    3.35    1.08
 -10   5   4    2.16    1.12
 -10   5   4    4.56    0.93
 -10  -5   4    3.05    0.90
   9   5  -4   18.91    1.56
  -9   5   4   15.92    1.51
  -9   5   4   19.54    1.37
  -9  -5   4   19.13    1.39
  -8   5   4    7.46    1.08
  -8   5   4    5.57    1.28
  -8   5   4    7.03    0.88
  -8  -5   4    6.79    0.87
   8   5  -4    8.36    0.99
  -7   5   4   10.51    1.14
  -7  -5   4   11.79    0.78
  -7   5   4   11.71    0.97
  -7  -5   4   11.28    0.96
  -7   5   4    9.63    1.40
   7   5  -4   12.16    1.03
   6   5  -4    0.89    0.46
  -6  -5   4    1.31    0.34
   6   5  -4    0.71    0.20
  -6   5   4    1.59    0.54
  -6   5   4    0.62    0.79
  -6  -5   4    0.69    0.49
  -5   5   4   57.29    1.88
  -5  -5   4   57.88    1.87
  -5  -5   4   60.10    1.49
   5   5  -4   56.15    1.73
  -5   5   4   54.51    2.79
   5   5  -4   55.81    1.45
  -4   5   4   67.82    3.04
   3  -5  -4    6.74    1.32
  -3   5   4    5.67    1.05
  -3   5   4    5.34    0.74
   2  -5  -4    1.19    1.01
  -2   5   4    1.26    0.57
   2  -5  -4    1.14    0.47
   2   5  -4    1.26    0.45
   1  -5  -4   65.58    2.35
   1  -5  -4   73.45    3.36
   1  -5  -4   66.96    2.05
   1   5  -4   66.13    1.98
  -1   5   4   65.40    2.27
   0  -5  -4   63.69    2.27
   0  -5  -4   59.38    1.98
   0   5  -4   64.74    1.97
   0   5   4   63.44    2.68
   0   5  -4   60.80    2.46
   0   5   4   59.89    2.14
  -1  -5  -4    9.63    0.93
  -1  -5  -4   11.72    1.55
   1   5   4   10.53    0.93
   1   5   4    9.65    1.15
  -1  -5  -4    9.42    1.05
  -1  -5  -4    8.21    1.49
  -1   5  -4    9.09    1.03
  -2  -5  -4   25.79    1.41
  -2  -5  -4   26.78    2.12
  -2  -5  -4   29.18    2.49
  -2  -5  -4   22.52    1.60
  -2   5  -4   23.95    1.61
   2  -5   4   25.64    0.74
  -3  -5  -4    6.09    0.79
  -3  -5  -4    6.16    1.49
  -3   5  -4    6.43    1.05
  -3  -5  -4    7.08    1.40
  -3  -5  -4    5.89    1.02
   3  -5   4    7.86    0.65
   4  -5   4   21.43    1.28
  -4  -5  -4   21.19    1.29
  -4  -5  -4   19.74    1.90
   4  -5   4   18.56    1.72
  -4  -5  -4   18.59    2.18
   5  -5   4   15.14    1.27
  -5  -5  -4   16.50    1.22
  -5  -5  -4   15.87    1.72
   5  -5   4   15.87    1.69
  -5  -5  -4   17.42    2.27
   6  -5   4   42.91    2.30
  -6  -5  -4   45.65    2.01
  -6  -5  -4   44.80    2.70
   6  -5   4   42.24    2.72
  -6  -5  -4   45.75    3.60
   7  -5   4    0.05    0.80
  -7  -5  -4    0.32    0.68
  -7  -5  -4   -0.61    1.74
   7  -5   4    0.74    1.07
  -7  -5  -4    1.17    1.02
   8  -5   4    3.42    1.13
  -8  -5  -4    2.62    1.18
  -8  -5  -4    3.13    0.83
   8  -5   4    2.60    1.28
  -8  -5  -4    4.51    1.26
  -9  -5  -4    3.80    1.21
   9  -5   4    2.97    1.17
   9   5   4    5.18    1.53
  -9  -5  -4    4.07    1.37
  -9  -5  -4    3.06    0.86
  10  -5   4   13.73    1.71
 -10  -5  -4   16.44    1.68
 -10  -5  -4   17.20    2.03
  10   5   4   12.70    2.15
 -10  -5  -4   11.86    1.27
  11   5   4    0.53    1.47
  11  -5   4    0.47    1.10
 -11  -5  -4    0.53    1.29
  12  -5   4    1.03    1.27
  13  -5   4   -0.22    1.25
  16   6  -4    8.58    1.98
  15   6  -4    4.79    1.69
  14   6  -4    2.02    1.33
 -14   6   4    1.29    1.36
  13  -6  -4   18.98    1.90
 -13   6   4   15.00    2.03
  13   6  -4   13.88    1.93
  12   6  -4   65.28    3.42
 -12   6   4   63.64    3.54
 -12  -6   4   61.50    2.94
 -11   6   4   57.58    3.11
 -11  -6   4   55.00    2.55
  11   6  -4   54.63    1.32
  11   6  -4   58.47    3.00
  10  -6  -4   22.90    2.37
 -10   6   4   15.47    1.68
  10   6  -4   16.69    0.94
 -10   6   4    9.03    1.71
 -10   6   4   16.86    1.43
 -10  -6   4   15.84    1.38
  10   6  -4   16.73    1.59
  -9   6   4   74.43    3.26
   9   6  -4   77.34    3.08
  -9   6   4   82.33    2.75
  -9  -6   4   78.36    2.73
  -8  -6   4  286.11    6.12
  -8   6   4  294.18    6.37
  -8  -6   4  270.19    6.25
   8   6  -4  269.82    6.68
  -7  -6   4  240.72    5.13
  -7   6   4  246.93    5.48
  -7  -6   4  233.93    5.38
   7   6  -4  232.74    5.62
  -6  -6   4   53.49    1.64
  -6   6   4   51.81    1.84
  -6  -6   4   49.26    1.79
   6   6  -4   47.93    1.79
  -6   6   4   52.41    2.94
  -5   6   4   97.30    3.16
   5   6  -4   92.88    2.12
  -5   6   4   93.87    3.91
  -4   6   4  334.68    7.67
  -4   6   4  333.35    8.72
  -3   6   4  280.95    6.64
  -3   6   4  289.98    7.64
  -2   6   4   19.41    1.27
   2  -6  -4   25.00    2.47
   1  -6  -4    8.24    0.73
   1   6  -4    7.88    0.67
   1  -6  -4    8.97    1.70
  -1   6   4    6.96    0.86
   0   6   4  112.74    3.90
   0  -6  -4  117.19    3.90
   0  -6  -4  111.45    2.90
   0   6  -4  113.98    2.82
   0   6  -4  109.92    3.43
   0  -6  -4  101.47    3.39
   0   6   4  110.35    3.22
  -1  -6  -4  115.67    3.43
  -1  -6  -4  113.77    3.05
  -1   6  -4  117.96    2.98
   1   6   4  123.20    3.40
   1   6   4  120.58    3.94
  -1   6  -4  109.12    3.56
  -1  -6  -4  118.05    3.98
  -2  -6  -4    4.80    1.08
   2   6   4    3.26    0.70
   2   6   4    3.72    1.03
  -2  -6  -4    3.39    1.48
  -2  -6  -4    3.85    0.76
  -2   6  -4    3.85    0.87
  -2  -6  -4    2.95    0.80
  -3  -6  -4    6.97    0.93
  -3  -6  -4    8.01    1.56
  -3  -6  -4    7.73    1.19
  -3  -6  -4    7.06    1.82
   3  -6   4    8.46    0.60
   4  -6   4   22.21    1.25
  -4  -6  -4   20.58    1.38
  -4  -6  -4   22.72    2.28
  -4  -6  -4   22.78    2.75
  -4  -6  -4   22.19    1.77
  -5  -6  -4   57.81    2.81
   5  -6   4   56.59    2.32
  -5  -6  -4   61.06    2.34
  -5  -6  -4   63.58    3.45
  -5  -6  -4   62.98    4.39
  -6  -6  -4   10.27    1.07
   6  -6   4   10.40    1.50
  -6  -6  -4   10.70    1.67
  -6   6  -4    6.50    0.73
  -6  -6  -4    9.56    1.46
  -6  -6  -4    9.59    2.17
   6  -6   4    8.48    1.15
   7  -6   4    0.61    0.82
  -7  -6  -4    0.72    0.98
   7  -6   4    0.07    1.04
  -7  -6  -4    0.29    0.72
  -7  -6  -4   -0.06    1.12
   8  -6   4   13.14    1.53
  -8  -6  -4   15.49    1.86
  -8  -6  -4   13.77    1.25
   9  -6   4   45.82    2.74
  -9  -6  -4   49.14    3.06
  10  -6   4   19.25    1.97
 -10  -6  -4   16.78    2.08
  11  -6   4    3.13    1.33
  12  -6   4    8.74    1.67
  13  -6   4   16.24    2.10
  15   7  -4    2.04    1.41
  14   7  -4    2.36    1.42
  13   7  -4    4.29    1.41
  12   7  -4   10.21    1.60
  12  -7  -4   10.37    1.82
 -12   7   4    8.11    1.65
 -12   7   4    9.47    1.46
 -11   7   4    9.32    1.60
 -11   7   4   12.73    1.35
 -11  -7   4   11.17    1.31
  11   7  -4    9.96    1.48
  11   7  -4   10.69    0.70
  10   7  -4    5.16    1.14
  10   7  -4    5.90    0.78
 -10   7   4    5.66    1.00
 -10  -7   4    6.11    0.96
   9   7  -4    4.14    0.93
  -9  -7   4    4.44    0.81
   9  -7  -4    6.31    2.14
  -9   7   4    4.03    0.83
  -9  -7   4    3.58    0.82
   8   7  -4    1.85    0.77
  -8   7   4    2.35    0.70
  -8  -7   4    2.17    0.61
  -8   7   4    1.96    1.06
   8  -7  -4    4.57    2.08
  -8  -7   4    2.20    0.70
  -7  -7   4    0.17    0.48
  -7   7   4    0.04    0.81
  -7   7   4    0.30    1.17
  -7   7   4   -0.06    0.63
  -7  -7   4    0.04    0.57
   7  -7  -4    1.49    1.87
   6  -7  -4    2.74    1.81
  -6  -7   4    1.59    0.51
  -6   7   4    1.41    0.82
  -6   7   4    1.84    1.14
  -5   7   4   17.36    1.37
   5   7  -4   17.42    0.70
  -5   7   4   14.56    1.74
  -4   7   4   29.54    1.67
   4  -7  -4   36.01    3.34
  -4   7   4   30.37    2.24
  -3   7   4   39.78    1.90
   3  -7  -4   51.14    3.80
  -2   7   4   38.71    1.83
   2   7  -4   35.42    1.69
  -1   7   4   46.89    1.98
   1  -7  -4   52.86    3.75
   1  -7  -4   41.56    1.85
   1   7  -4   42.47    1.87
  -1   7   4   48.24    2.54
   1  -7  -4   46.33    2.50
   0  -7  -4   50.05    2.15
   0  -7  -4   59.59    4.06
   0  -7  -4   56.27    1.79
   0   7  -4   53.75    2.18
   0   7  -4   57.28    1.71
   0   7   4   60.76    2.78
   0  -7  -4   60.46    2.85
   0   7   4   57.70    2.22
   1   7   4   27.07    1.90
  -1  -7  -4   30.60    2.09
  -1  -7  -4   28.22    1.28
  -1   7  -4   25.78    1.14
   1   7   4   28.08    1.52
  -2  -7  -4    7.08    1.20
   2   7   4    5.57    1.13
  -2  -7  -4    5.80    0.74
  -2   7  -4    4.72    0.65
   2   7   4    5.72    0.84
  -3  -7  -4    2.03    0.98
   3   7   4    1.51    1.03
  -3  -7  -4    1.56    1.86
  -3   7  -4    0.46    1.06
  -3  -7  -4    2.32    0.88
  -4  -7  -4    0.60    1.92
  -4  -7  -4    0.25    1.00
   4  -7   4    0.75    0.50
  -4   7  -4    0.05    0.97
  -4  -7  -4    1.20    0.76
   5  -7   4    0.92    0.67
  -5   7  -4    0.73    0.77
  -5  -7  -4    0.93    1.02
  -5  -7  -4   -0.98    1.83
  -5  -7  -4    0.62    0.80
  -6  -7  -4    5.66    1.31
  -6  -7  -4    6.16    0.96
   6  -7   4    4.20    0.91
   7  -7   4    8.46    1.19
  -7  -7  -4    8.92    1.58
   8  -7   4    5.40    1.13
  -8  -7  -4    4.54    1.47
   9  -7   4    3.29    1.16
  -9  -7  -4    5.02    1.52
  10  -7   4    3.65    1.25
  11  -7   4    4.37    1.46
 -11   8   4   10.89    1.23
  11  -8  -4   13.55    2.38
  10  -8  -4    0.09    2.10
 -10  -8   4    0.85    0.85
 -10   8   4    1.31    1.30
 -10   8   4    0.91    0.79
  10   8  -4    1.02    0.72
  -9  -8   4    1.55    0.74
  -9   8   4    0.56    1.06
  -9   8   4    1.68    0.75
   9   8  -4    0.68    0.83
   9  -8  -4    0.20    2.12
  -8   8   4   13.84    1.61
  -8  -8   4   12.44    1.06
   8  -8  -4   17.02    3.06
  -7  -8   4    4.59    0.76
  -7   8   4    3.92    1.12
   7  -8  -4    6.89    2.57
  -6   8   4    7.17    1.18
  -6  -8   4    7.24    0.81
   6  -8  -4    9.56    2.68
   5   8  -4    1.95    0.35
  -5   8   4    1.14    0.81
   5   8  -4    1.83    0.34
   5  -8  -4    3.36    2.25
  -4   8   4   25.34    1.62
   4  -8  -4   39.07    3.87
  -3   8   4   33.98    1.85
   3   8  -4   32.42    1.39
  -2   8   4    8.41    1.07
   2  -8  -4    7.62    1.39
   2   8  -4    5.22    2.24
   2   8  -4    6.49    0.72
   2  -8  -4    5.97    0.71
   2  -8  -4    9.62    2.54
   1   8  -4   16.18    2.61
   1  -8  -4   16.01    1.07
   1  -8  -4   19.78    1.84
   1  -8  -4   26.75    3.32
  -1   8   4   22.14    1.90
  -1   8   4   21.46    1.44
   0  -8  -4  128.96    4.51
   0   8   4  124.23    4.37
   0   8   4  131.02    3.70
  -1  -8  -4  168.26    5.33
  -1  -8  -4  165.98    3.75
   1   8   4  162.26    5.06
   1   8   4  160.09    4.32
  -2  -8  -4   80.76    2.34
  -2   8  -4   80.42    2.14
   2   8   4   81.94    3.36
   2   8   4   81.57    2.74
  -3  -8  -4   63.97    2.13
  -3   8  -4   62.80    1.93
   3   8   4   67.58    3.02
   4  -8   4  113.52    2.49
   4  -8   4  116.87    2.63
   5  -8   4  125.35    3.37
  -5  -8  -4  123.02    4.72
   6  -8   4   47.33    2.16
  -6  -8  -4   49.16    2.96
   7  -8   4   17.45    1.51
  -7  -8  -4   18.59    2.00
   8  -8   4   27.42    2.00
  -9   9   4   12.02    1.73
   9  -9  -4   20.45    3.34
  -8  -9   4    4.43    0.91
  -8   9   4    4.91    1.41
   7  -9  -4    0.41    2.75
  -7  -9   4    0.86    0.73
  -7   9   4    2.38    1.13
  -6  -9   4    2.99    0.77
  -6   9   4    3.32    1.05
   6  -9  -4    5.19    3.11
   5   9  -4    0.07    0.20
   5   9  -4    0.08    0.19
  -5   9   4    0.08    0.88
   5  -9  -4    2.02    2.88
  -4   9   4    4.34    1.07
   4   9  -4    3.03    0.55
   4  -9  -4    6.03    3.17
   3  -9  -4   56.54    5.10
  -3   9   4   35.69    1.98
  -2   9   4   46.07    2.21
   2  -9  -4   71.10    5.57
   1   9  -4   12.61    2.59
  -1   9   4   16.36    1.38
   0  -9  -4    8.21    2.92
   0   9  -4    5.22    1.90
   0   9   4    7.14    1.05
  -1   9  -4   22.50    2.47
   1   9   4   29.62    1.70
  -2   9  -4   23.34    2.27
   2   9   4   26.99    1.59
  -3   9  -4    0.95    0.47
  -4   9  -4    1.19    0.53
  -5  -9  -4   -0.33    1.15
  -5   9  -4   -0.02    0.58
  -6  10   4   44.30    2.51
  -5  10   4   53.52    2.60
  -4  10   4   52.71    2.53
  -3  10   4   43.41    2.27
   3  10  -4   41.76    1.62
  -2  10   4   30.32    1.88
  -1  10   4   22.24    1.62
   0  10   4   16.38    1.41
   1  10   4    7.67    1.11
  -4  11   4    3.15    1.21
  -3  11   4   -0.16    1.05
  -2  11   4    1.51    1.06
  -1  11   4    7.53    1.28
   0  11   4   10.25    1.34
   1  11   4    1.30    1.01
 -17   0   5   -0.81    0.99
  16   0  -5    0.05    0.92
 -16   0   5   -0.83    0.86
  15   0  -5    0.15    0.84
 -15   0   5    0.54    0.78
  14   0  -5    0.09    0.81
 -14   0   5   -0.23    0.73
  13   0  -5    0.25    0.73
 -13   0   5    0.25    0.67
  12   0  -5    0.34    0.65
 -12   0   5    0.37    0.57
 -11   0   5    0.97    0.63
 -10   0   5    1.87    0.61
 -10   0   5    1.12    0.72
  10   0  -5    0.40    0.54
  -9   0   5    0.33    0.50
   9   0  -5   -0.04    0.45
  -9   0   5    0.26    0.62
  -8   0   5    0.13    0.47
   8   0  -5   -0.27    0.41
  -8   0   5   -0.03    0.55
  -7   0   5   -0.02    0.42
   7   0  -5    0.37    0.43
  -7   0   5    0.03    0.49
   7   0  -5    0.22    0.46
  -6   0   5    0.75    0.42
   6   0  -5    0.69    0.47
   6   0  -5    0.15    0.41
  -6   0   5    0.02    0.42
   5   0  -5   -0.20    0.47
  -5   0   5    0.55    0.39
   5   0  -5    0.17    0.40
  -5   0   5   -0.12    0.45
  -4   0   5    0.11    0.36
   4   0  -5   -0.06    0.40
  -4   0   5    0.84    0.45
   4   0  -5    0.12    0.43
   3   0  -5    0.04    0.40
   2   0  -5    0.02    0.32
   2   0  -5    0.16    0.39
   1   0  -5    0.98    0.43
   1   0  -5    1.16    0.44
   1   0  -5    1.39    0.46
   0   0  -5    0.39    0.40
   0   0  -5   -0.13    0.45
   0   0  -5    0.03    0.41
  -1   0  -5    0.02    0.39
  -1   0  -5    0.59    0.49
  -1   0  -5    0.67    0.57
  -2   0  -5    0.21    0.46
  -2   0  -5    0.04    0.60
  -2   0  -5    0.62    0.68
  -3   0  -5    0.06    0.52
  -3   0  -5   -0.18    0.68
  -3   0  -5   -0.29    0.71
   4   0   5    0.87    0.69
  -4   0  -5    1.50    0.66
  -4   0  -5    0.16    0.83
  -4   0  -5   -0.51    0.76
   5   0   5    0.84    0.80
   5   0   5   -0.06    0.86
  -5   0  -5    0.18    0.92
  -5   0  -5    0.17    0.91
   6   0   5    0.76    0.82
  -6   0  -5    0.35    0.82
   6   0   5   -0.46    1.04
  -6   0  -5   -0.06    0.98
  -6   0  -5    0.12    0.89
   7   0   5    0.27    0.94
   7   0   5   -0.36    1.03
  -7   0  -5    0.34    1.16
  -7   0  -5    1.22    0.93
   8   0   5    0.15    1.04
  -8   0  -5   -0.05    0.86
   8   0   5   -0.16    1.07
   9   0   5   -0.17    1.20
  -9   0  -5   -0.24    0.92
 -10   0  -5   -0.10    1.01
  10   0   5    0.09    1.26
  11   0   5    0.10    1.41
  12   0   5   -0.20    1.49
  13   0   5   -0.11    1.41
 -18   1   5   13.62    1.84
 -17   1   5    2.89    1.21
  16   1  -5    5.05    1.16
  16  -1  -5    4.88    1.19
 -16  -1   5    1.59    0.77
 -16   1   5    2.04    1.06
 -15  -1   5   31.14    1.86
 -15   1   5   31.03    2.24
  15   1  -5   54.32    2.62
  15  -1  -5   46.54    2.49
 -14  -1   5   67.97    2.75
 -14   1   5   71.47    3.26
  14   1  -5   91.67    3.34
  14  -1  -5   87.79    3.37
 -13  -1   5   24.54    1.54
 -13   1   5   23.43    1.82
  13   1  -5   27.06    1.76
 -12  -1   5   16.79    1.23
 -12   1   5   16.10    1.46
  12   1  -5   14.03    1.28
 -11  -1   5  143.17    3.91
 -11   1   5  142.00    4.29
  11   1  -5  138.21    4.11
 -10  -1   5  322.96    7.11
 -10   1   5  319.97    7.49
  10   1  -5  304.69    7.21
 -10  -1   5  320.65    7.64
  -9  -1   5   53.86    1.97
  -9   1   5   58.36    2.28
   9  -1  -5   59.89    2.18
   9   1  -5   48.92    1.93
  -9  -1   5   53.57    2.27
   9   1  -5   58.69    1.79
  -8   1   5    7.71    0.85
   8  -1  -5   10.29    0.94
  -8  -1   5    6.84    0.89
   8   1  -5    7.63    0.70
  -8  -1   5    8.88    0.78
  -7   1   5  135.87    3.71
   7  -1  -5  135.15    3.67
   7   1  -5  141.96    3.35
  -7  -1   5  138.62    3.74
   7   1  -5  143.23    3.62
  -7  -1   5  132.77    3.45
  -6   1   5  452.24    9.42
   6   1  -5  476.05    9.04
   6  -1  -5  481.31    9.34
  -6  -1   5  446.61    9.40
  -6  -1   5  460.65    9.23
   6  -1  -5  459.81    9.57
   5  -1  -5  188.26    4.63
   5   1  -5  179.13    4.00
  -5  -1   5  176.31    4.30
  -5  -1   5  176.09    4.17
  -5   1   5  170.37    4.27
   4   1  -5   62.38    1.93
   4   1  -5   61.39    1.67
  -4  -1   5   60.63    2.03
   4  -1  -5   63.70    2.14
  -4   1   5   59.52    2.06
   3   1  -5   33.49    1.27
   3  -1  -5   35.69    1.51
  -3   1   5   33.42    1.48
   3   1  -5   33.43    1.40
   2  -1  -5  664.74   12.75
   2   1  -5  656.75   12.71
   2  -1  -5  657.74   12.78
  -2   1   5  661.72   12.81
   2   1  -5  685.08   12.75
   1   1  -5  241.70    5.60
   1  -1  -5  238.14    5.42
   1   1  -5  234.61    5.11
   1  -1  -5  240.17    5.43
   0  -1  -5    8.19    0.90
   0   1  -5   10.41    1.01
   0  -1  -5    9.84    0.90
   0  -1  -5   11.27    0.94
   0   1  -5    9.37    0.72
  -1   1  -5   23.85    1.19
  -1  -1  -5   22.99    1.46
  -1   1  -5   27.11    1.74
  -1  -1  -5   24.75    1.41
  -1  -1  -5   26.30    1.43
  -2   1  -5  521.89   10.50
   2  -1   5  552.37   11.36
  -2  -1  -5  530.92   11.35
  -2   1  -5  567.54   12.00
  -2  -1  -5  507.87   11.65
  -2  -1  -5  511.60   10.85
  -2  -1  -5  526.98   10.88
  -3  -1  -5  412.24    8.85
  -3   1  -5  396.42    8.53
   3  -1   5  414.29    9.44
  -3  -1  -5  397.68    9.39
  -3   1  -5  417.38    9.89
  -3  -1  -5  370.95    9.39
  -3  -1  -5  389.89    8.84
   3  -1   5  438.22    9.03
  -4  -1  -5   28.61    1.66
   4  -1   5   28.22    1.98
  -4  -1  -5   26.49    1.89
  -4   1  -5   26.13    2.10
   4  -1   5   28.60    1.76
  -4  -1  -5   24.92    1.89
   4   1   5   27.44    1.87
  -5  -1  -5   33.71    1.88
   5  -1   5   32.69    2.30
  -5  -1  -5   33.92    2.23
  -5  -1  -5   28.99    2.11
   5   1   5   38.10    2.33
  -5  -1  -5   31.81    2.10
   5  -1   5   37.94    2.17
   6  -1   5  265.33    7.90
  -6  -1  -5  269.99    7.64
   6   1   5  285.03    7.78
  -6  -1  -5  246.53    7.48
  -6  -1  -5  266.14    7.24
   6  -1   5  294.22    7.65
  -7   1  -5  211.12    5.67
   7   1   5  230.77    7.06
   7  -1   5  229.04    7.27
  -7  -1  -5  217.59    6.43
  -7  -1  -5  230.60    7.05
   7  -1   5  232.35    6.93
   8  -1   5   35.38    2.77
  -8  -1  -5   34.24    2.60
  -8   1  -5   30.57    1.82
  -8  -1  -5   27.62    2.15
   8   1   5   35.25    2.69
   8  -1   5   35.45    2.66
   9  -1   5    9.67    1.70
  -9  -1  -5    9.33    1.58
  -9  -1  -5   10.12    1.73
  -9   1  -5    9.50    1.18
   9   1   5   13.29    1.96
 -10  -1  -5   51.33    2.99
  10   1   5   57.89    3.79
  10  -1   5   56.48    3.60
  11   1   5   51.31    3.74
  11  -1   5   46.40    3.42
  12   1   5    6.23    1.82
  12  -1   5    5.62    1.77
  13  -1   5    0.20    1.46
 -18   2   5    1.16    1.45
 -17   2   5    2.40    1.32
 -16   2   5   -0.81    1.17
  15   2  -5    2.07    0.88
 -15  -2   5    1.10    0.67
 -15   2   5    0.82    0.98
  14   2  -5    1.22    0.79
 -14  -2   5    0.79    0.63
 -14   2   5    1.23    1.02
 -13  -2   5    7.16    0.85
  13   2  -5    8.78    1.12
 -13   2   5    5.74    1.15
 -12  -2   5   18.16    1.16
 -12   2   5   15.51    1.52
  12   2  -5   16.27    1.32
  11   2  -5   69.03    2.60
  11   2  -5   78.44    1.89
 -11   2   5   75.42    3.05
 -11   2   5   81.72    3.05
 -11  -2   5   74.40    2.40
 -10   2   5   13.49    1.29
  10   2  -5   12.50    0.99
 -10   2   5    9.77    1.20
 -10   2   5   13.08    1.27
 -10  -2   5   11.14    1.26
 -10  -2   5   13.62    0.94
  10   2  -5   12.41    0.72
  -9  -2   5    2.44    0.52
   9   2  -5    1.80    0.48
   9   2  -5    1.87    0.46
  -9   2   5    2.88    0.72
  -9  -2   5    2.12    0.75
  -9   2   5    1.76    0.72
  -8  -2   5   76.05    2.24
  -8   2   5   72.29    2.64
   8   2  -5   72.01    1.90
   8  -2  -5   80.41    2.78
  -8   2   5   73.99    2.56
  -8  -2   5   72.87    2.59
  -7   2   5  320.46    7.34
   7  -2  -5  350.04    7.62
   7   2  -5  337.85    6.65
  -7   2   5  330.63    7.23
  -7  -2   5  326.72    7.27
  -7  -2   5  334.30    6.90
  -6   2   5   40.52    1.77
   6   2  -5   41.81    1.41
  -6   2   5   40.79    1.70
  -6  -2   5   41.47    1.71
   6  -2  -5   43.09    1.95
   5  -2  -5   37.17    1.80
  -5   2   5   37.37    1.64
   5   2  -5   40.64    1.38
  -5   2   5   35.40    1.57
  -5  -2   5   37.29    1.59
   4  -2  -5    6.35    0.74
   4  -2  -5    6.84    0.74
   4   2  -5    6.37    0.72
  -4   2   5    6.76    0.74
   4   2  -5    6.21    0.59
   3  -2  -5  113.73    3.12
   3  -2  -5  109.69    3.08
   3   2  -5  114.78    3.11
   3   2  -5  114.85    2.98
  -3   2   5  113.04    3.16
   2   2  -5    1.08    0.48
  -2   2   5    0.69    0.46
   2  -2  -5    1.09    0.51
   2  -2  -5    1.62    0.66
   2  -2  -5    0.95    0.48
   2   2  -5    0.80    0.49
   1  -2  -5  288.66    6.43
   1   2  -5  302.30    6.48
   1  -2  -5  302.01    7.35
   1  -2  -5  300.80    6.51
  -1   2   5  292.98    6.51
   1   2  -5  293.60    5.88
   0  -2  -5  167.96    4.21
   0   2  -5  162.11    3.64
   0  -2   5  169.12    4.19
   0  -2  -5  172.84    5.05
  -1  -2  -5    0.03    0.54
  -1   2  -5    0.75    0.38
  -1  -2  -5    0.25    0.54
   1  -2   5    0.42    0.53
  -1  -2  -5    0.19    0.63
  -1  -2  -5    0.50    0.54
   2  -2   5    9.90    1.13
  -2  -2  -5    9.87    1.02
  -2  -2  -5   10.38    1.29
  -2   2  -5   10.12    1.23
  -2  -2  -5    8.87    1.20
  -2  -2  -5   10.84    1.12
  -2  -2  -5    8.80    0.94
  -3  -2  -5  237.88    6.33
   3  -2   5  244.70    6.63
  -3  -2  -5  227.13    6.49
  -3  -2  -5  231.65    6.76
  -3   2  -5  231.28    6.51
  -3  -2  -5  242.90    5.93
  -3  -2  -5  236.92    5.99
  -4  -2  -5  145.48    4.30
   4  -2   5  145.35    5.01
  -4  -2  -5  153.72    4.80
  -4   2  -5  134.68    4.70
  -4  -2  -5  129.73    4.80
  -4  -2  -5  138.08    4.79
  -4  -2  -5  136.18    4.12
  -4  -2  -5  142.47    4.87
   4  -2   5  153.46    4.31
   5   2   5    0.34    0.83
   5  -2   5    0.67    0.73
  -5  -2  -5    1.10    0.73
  -5  -2  -5    0.26    0.67
  -5  -2  -5   -0.47    0.78
   5  -2   5    1.05    1.05
  -5  -2  -5    0.32    0.86
  -5  -2  -5    0.45    0.90
  -5  -2  -5    0.64    0.81
  -5   2  -5   -0.05    0.75
   6   2   5    4.96    1.23
   6  -2   5    4.44    1.04
  -6  -2  -5    4.74    0.97
  -6  -2  -5    3.69    0.93
  -6  -2  -5    4.25    1.06
   6  -2   5    6.39    1.46
  -6  -2  -5    4.20    1.14
  -6  -2  -5    4.49    1.23
  -6  -2  -5    4.84    1.25
  -7   2  -5   20.54    1.36
   7  -2   5   21.07    2.23
  -7  -2  -5   21.57    1.97
  -7  -2  -5   19.55    1.98
  -7  -2  -5   23.36    2.02
   7   2   5   21.94    2.13
   7  -2   5   23.74    2.06
   8  -2   5   19.04    2.17
  -8   2  -5   14.83    1.17
  -8  -2  -5   19.13    2.05
  -8  -2  -5   17.32    1.72
  -8  -2  -5   16.51    1.89
   8   2   5   18.13    2.10
   8  -2   5   17.42    1.92
   9   2   5    7.41    1.61
   9  -2   5    7.74    1.57
  -9  -2  -5    7.03    1.32
  -9  -2  -5    7.08    1.64
  -9  -2  -5    6.62    1.54
  -9   2  -5    4.96    0.89
 -10  -2  -5   16.06    2.06
 -10  -2  -5   21.51    2.27
 -10  -2  -5   19.64    1.78
  10   2   5   17.93    2.33
  10  -2   5   16.22    2.06
  11   2   5    0.52    1.44
  11  -2   5    0.26    1.39
 -11  -2  -5    0.24    0.96
 -11  -2  -5    0.98    1.30
  12  -2   5    0.18    1.56
  12   2   5    0.55    1.52
  13  -2   5    2.61    1.55
  17   3  -5    4.46    1.55
 -17   3   5    2.15    1.44
 -16   3   5    0.44    1.11
 -15   3   5    0.55    1.07
 -14  -3   5    3.98    0.64
 -14   3   5    4.16    1.17
 -14   3   5    4.48    1.32
 -13  -3   5    2.19    0.54
 -13   3   5    2.74    1.02
 -13   3   5    1.47    1.04
 -12   3   5    1.06    0.90
 -12   3   5    3.14    1.05
 -12  -3   5    3.86    0.60
 -12   3   5    2.69    1.02
  11   3  -5   14.52    0.60
 -11   3   5   14.69    1.49
 -11  -3   5   14.93    0.91
 -11   3   5   17.31    1.51
 -11  -3   5   15.32    1.47
 -10   3   5   56.21    2.53
 -10   3   5   52.31    2.28
 -10  -3   5   45.27    2.22
  10   3  -5   45.53    1.40
  -9   3   5   46.54    2.22
  -9   3   5   50.53    2.14
  -9  -3   5   51.17    2.25
  -8   3   5  103.52    3.35
  -8   3   5  108.53    3.20
  -8  -3   5  104.44    3.21
  -7   3   5  265.15    6.33
   7   3  -5  271.45    5.38
   7  -3  -5  286.48    6.79
  -7   3   5  267.96    6.09
  -7  -3   5  269.82    6.14
  -6   3   5  442.66    9.52
   6   3  -5  447.55    8.61
  -6   3   5  461.44    9.30
  -6  -3   5  461.28    9.34
  -6   3   5  439.40   10.47
   5   3  -5  561.62   10.51
  -5   3   5  542.54   11.25
   5  -3  -5  578.18   11.28
  -5   3   5  550.11   10.96
  -5  -3   5  545.89   10.96
  -5   3   5  569.99   12.38
  -4   3   5  473.69    9.96
   4  -3  -5  489.73    9.93
   4   3  -5  497.58    9.45
   4  -3  -5  489.88    9.81
   4   3  -5  483.93    9.73
   3  -3  -5  739.89   15.32
   3  -3  -5  762.45   14.61
   3  -3  -5  732.67   14.42
   3   3  -5  779.25   14.44
   3   3  -5  768.62   14.26
  -3   3   5  745.73   14.64
   2  -3  -5  929.10   17.39
   2  -3  -5  913.99   17.25
   2   3  -5  951.71   17.27
   2   3  -5  903.61   16.17
   2  -3  -5  949.51   18.37
   1  -3  -5  638.83   12.76
  -1  -3   5  650.35   12.50
   1  -3  -5  633.74   12.70
   1   3  -5  671.41   12.77
   1  -3  -5  691.05   13.95
   0  -3  -5  372.73    8.03
   0  -3   5  387.68    8.24
   0  -3  -5  362.29    8.43
   0  -3  -5  393.99    9.18
  -1  -3  -5  286.31    6.57
   1  -3   5  307.14    7.23
  -1  -3  -5  302.02    7.70
  -1  -3  -5  281.23    6.95
  -2  -3  -5  237.22    6.30
  -2   3  -5  237.45    6.52
   2  -3   5  247.98    6.62
  -2  -3  -5  232.18    6.52
  -2  -3  -5  244.28    6.77
  -2  -3  -5  247.46    6.19
  -2  -3  -5  247.45    5.81
  -3  -3  -5  120.05    4.05
   3  -3   5  114.80    4.37
  -3   3  -5  117.85    4.15
  -3  -3  -5  115.59    4.20
  -3  -3  -5  115.32    4.30
   3  -3   5  130.00    3.39
  -3  -3  -5  114.76    4.47
  -3  -3  -5  120.85    3.62
  -3  -3  -5  117.55    3.83
  -4  -3  -5   20.05    1.56
  -4  -3  -5   20.26    1.66
   4  -3   5   25.20    2.07
  -4  -3  -5   21.86    1.82
  -4   3  -5   20.90    1.75
  -4  -3  -5   21.37    1.84
  -4  -3  -5   20.98    1.99
   4  -3   5   24.84    1.48
  -4  -3  -5   21.68    1.46
  -5  -3  -5    9.82    1.24
  -5  -3  -5   10.15    1.61
  -5  -3  -5    9.10    1.32
  -5  -3  -5    8.74    1.29
  -5   3  -5    8.21    1.32
  -5  -3  -5    9.96    1.49
  -5  -3  -5   10.55    1.15
   5  -3   5    9.56    1.15
  -6  -3  -5    9.44    1.24
  -6  -3  -5    7.19    1.50
  -6  -3  -5   11.53    1.49
  -6  -3  -5   10.20    1.36
  -6  -3  -5    9.10    1.14
   6  -3   5   10.82    1.35
   7  -3   5    6.03    1.22
  -7  -3  -5    4.83    1.11
  -7  -3  -5    9.03    1.41
  -7  -3  -5    3.79    1.00
   7  -3   5    6.61    1.55
  -7  -3  -5    4.78    1.10
  -7  -3  -5    6.42    1.54
  -8  -3  -5    1.22    1.32
   8  -3   5    0.40    0.98
  -8  -3  -5    0.18    0.84
   8  -3   5    1.19    1.30
  -8  -3  -5    2.25    1.19
  -8  -3  -5    0.80    0.88
  -8   3  -5    0.77    0.54
  -9  -3  -5    0.75    1.48
   9   3   5    0.63    1.32
   9  -3   5    0.95    1.12
  -9  -3  -5    0.28    0.84
  -9  -3  -5    1.16    1.25
  -9  -3  -5    0.82    0.93
  10   3   5    3.96    1.58
  10  -3   5    4.16    1.44
 -10  -3  -5    3.29    1.09
 -10  -3  -5    5.19    1.54
 -10  -3  -5    4.45    1.12
  11   3   5    4.48    1.70
  11  -3   5    2.31    1.32
 -11  -3  -5    5.02    1.17
  12  -3   5    0.34    1.55
  13  -3   5    1.23    1.66
  17   4  -5   -0.48    1.36
  16   4  -5    6.92    1.64
 -16   4   5    3.00    1.40
  15   4  -5    7.56    1.68
 -15   4   5    5.06    1.48
  14   4  -5    3.29    1.35
 -14   4   5    1.70    1.24
 -14   4   5    1.10    1.20
 -13   4   5   18.23    1.92
 -13  -4   5   17.61    1.77
 -13   4   5   20.97    2.04
  12   4  -5    1.12    1.02
 -12   4   5    0.60    0.98
 -12   4   5    1.85    1.06
 -12   4   5    1.80    1.08
 -12  -4   5    0.33    0.93
 -11   4   5    0.53    0.95
  11   4  -5    0.81    0.31
 -11   4   5    1.00    0.92
 -11   4   5    1.64    0.88
 -11  -4   5    0.04    0.90
 -10   4   5   66.14    2.92
 -10   4   5   74.45    2.76
 -10  -4   5   71.24    2.82
  -9   4   5  213.36    5.69
  -9   4   5  215.76    5.25
  -9  -4   5  212.04    5.28
  -8   4   5   73.25    2.87
  -8   4   5   78.43    2.65
  -8  -4   5   80.03    2.68
  -7   4   5    0.23    0.85
  -7   4   5    0.38    0.61
   7   4  -5    0.35    0.32
  -7   4   5    0.54    0.59
  -7  -4   5   -0.03    0.57
   6   4  -5  114.74    3.15
   6   4  -5  113.44    2.59
  -6   4   5  108.46    3.40
  -6   4   5  113.86    3.18
  -6  -4   5  115.66    3.18
  -6   4   5  107.50    4.18
   5   4  -5  281.87    5.81
  -5   4   5  277.69    6.58
   5   4  -5  298.76    5.80
  -5  -4   5  279.82    6.18
  -5   4   5  289.16    7.65
   4  -4  -5   33.54    1.69
  -4   4   5   35.55    2.16
   4   4  -5   34.62    1.33
   4   4  -5   30.15    0.86
  -3  -4   5   83.76    1.84
   3  -4  -5   91.29    3.55
   3  -4  -5   84.71    2.76
  -3   4   5   90.30    3.48
   3  -4  -5   89.82    2.71
   3   4  -5   86.25    2.56
   2  -4  -5   32.85    2.08
   2  -4  -5   30.66    1.57
  -2  -4   5   32.34    1.28
   2  -4  -5   29.62    1.43
   2   4  -5   31.49    1.42
   1  -4  -5   12.16    1.41
   1  -4  -5   13.32    1.09
  -1  -4   5   13.30    1.03
   1  -4  -5   12.89    0.98
   1   4  -5   13.86    1.01
  -1   4   5   13.96    1.08
   0  -4  -5   25.35    1.91
   0  -4  -5   24.23    1.37
   0  -4   5   23.00    1.54
   0  -4  -5   22.09    1.29
   0   4  -5   24.29    1.32
   0   4   5   22.74    1.35
   0  -4  -5   22.11    1.57
  -1  -4  -5  373.64    9.13
  -1  -4  -5  360.00    7.79
  -1  -4  -5  359.52    8.37
   1  -4   5  357.31    8.66
  -1   4  -5  359.12    8.57
  -1  -4  -5  351.39    8.59
  -1  -4  -5  346.80    9.32
  -2  -4  -5  226.19    7.01
  -2  -4  -5  237.73    5.65
   2  -4   5  227.96    6.60
  -2   4  -5  232.95    6.32
  -2  -4  -5  219.85    6.25
  -2  -4  -5  235.45    6.14
  -2  -4  -5  246.22    6.89
  -3  -4  -5   12.34    1.10
  -3  -4  -5   13.55    1.79
  -3  -4  -5   13.01    1.41
   3  -4   5   14.57    0.92
  -3   4  -5   11.70    1.35
   3  -4   5   15.58    1.64
  -3  -4  -5   13.09    1.41
  -3  -4  -5   14.12    1.36
  -3  -4  -5   11.74    1.49
  -4  -4  -5   14.63    1.25
  -4  -4  -5   14.80    1.51
  -4  -4  -5   12.84    1.81
   4  -4   5   13.42    1.63
   4  -4   5   16.46    1.18
  -4  -4  -5   14.14    1.56
  -4   4  -5   12.97    1.44
  -4  -4  -5   15.09    1.65
  -4  -4  -5   14.51    1.38
  -5  -4  -5  123.34    4.15
  -5  -4  -5  126.57    4.46
   5  -4   5  115.29    4.82
  -5  -4  -5  113.69    5.01
  -5  -4  -5  118.49    4.60
  -5  -4  -5  114.73    4.47
  -5  -4  -5  118.55    3.78
  -6  -4  -5   71.32    3.09
  -6  -4  -5   70.09    2.82
  -6  -4  -5   71.72    3.42
   6  -4   5   70.65    3.78
  -6  -4  -5   67.43    3.81
  -6  -4  -5   63.92    3.23
   6  -4   5   76.61    3.11
   7  -4   5    0.82    0.84
  -7  -4  -5    0.52    0.79
  -7  -4  -5    1.07    1.14
   7  -4   5    0.78    1.17
  -7  -4  -5    0.72    0.93
  -7  -4  -5    1.47    1.41
  -8   4  -5    4.18    0.42
  -8  -4  -5    6.95    1.12
   8  -4   5    9.20    1.73
  -8  -4  -5    9.08    1.55
  -8  -4  -5    8.83    2.11
  -8  -4  -5    8.08    1.37
   8  -4   5    9.70    1.50
   9  -4   5    1.18    1.06
  -9  -4  -5    1.45    0.94
  -9  -4  -5    1.59    1.04
  -9  -4  -5    0.48    1.78
  10  -4   5    0.45    1.16
 -10  -4  -5    0.56    0.89
 -10  -4  -5    2.45    1.10
  11  -4   5    4.77    1.53
  12  -4   5   10.78    1.96
  13  -4   5   -0.50    1.65
  16   5  -5   31.30    2.77
  15   5  -5   19.60    2.25
 -15   5   5   14.98    2.11
  14   5  -5   27.78    2.41
 -14   5   5   19.87    2.16
 -14   5   5   27.40    2.50
  13   5  -5   89.79    4.08
 -13   5   5   83.65    3.94
 -13   5   5   85.50    4.25
  12   5  -5  122.60    4.64
 -12   5   5  108.40    4.45
 -12   5   5  134.39    4.22
 -12  -5   5  112.78    4.02
 -12   5   5   99.39    4.67
  11   5  -5   81.89    3.50
 -11   5   5   73.70    3.40
 -11   5   5   84.95    3.11
 -11  -5   5   81.47    3.21
  10   5  -5   44.15    2.40
 -10   5   5   40.39    2.37
 -10   5   5   49.48    2.19
 -10  -5   5   42.90    2.11
   9   5  -5   93.06    3.35
  -9   5   5   93.81    3.51
  -9   5   5   99.47    3.12
  -9  -5   5   94.44    3.12
   8   5  -5  141.40    4.07
  -8   5   5  144.14    4.40
  -8   5   5  152.75    4.00
  -8  -5   5  146.20    3.97
  -7   5   5   44.57    2.13
   7   5  -5   45.67    1.20
  -7   5   5   47.88    1.92
  -7  -5   5   46.46    1.89
  -7   5   5   40.28    2.63
   7   5  -5   44.00    1.77
   6   5  -5    2.93    0.39
   6   5  -5    2.78    0.48
  -6   5   5    1.92    1.04
  -6   5   5    3.34    0.66
  -6  -5   5    2.15    0.60
  -5   5   5    4.41    1.09
   5   5  -5    3.29    0.35
   5   5  -5    3.85    0.50
  -4   5   5   31.36    2.17
   4   5  -5   31.85    1.30
   3  -5  -5    3.96    0.68
  -3  -5   5    3.28    0.51
  -3   5   5    4.13    1.03
   3  -5  -5    3.50    1.11
   2  -5  -5   36.01    1.76
  -2  -5   5   36.78    1.75
   2  -5  -5   36.64    1.58
   2   5  -5   36.50    1.54
  -2   5   5   31.97    2.12
  -2   5   5   35.70    1.76
   1  -5  -5    9.17    1.49
   1  -5  -5    8.93    0.99
  -1  -5   5    8.77    1.07
   1  -5  -5    7.74    0.83
   1   5  -5    9.05    0.84
  -1   5   5    8.36    0.93
   0  -5  -5   49.49    3.07
   0  -5  -5   53.63    2.18
   0  -5   5   46.50    2.48
   0  -5  -5   51.95    1.98
   0   5  -5   50.72    1.93
   0   5   5   48.87    2.07
   0  -5  -5   48.87    2.42
  -1  -5  -5   45.75    3.01
  -1  -5  -5   50.03    2.94
  -1  -5  -5   46.65    2.05
   1  -5   5   43.96    2.53
  -1   5  -5   45.08    1.85
  -1  -5  -5   43.31    2.33
  -1   5  -5   44.84    2.31
  -1  -5  -5   44.49    2.34
  -2  -5  -5    4.75    0.99
  -2  -5  -5    6.12    0.92
   2  -5   5    5.77    1.22
  -2  -5  -5    6.16    1.39
  -2  -5  -5    5.50    1.47
  -2   5  -5    6.06    1.05
  -2  -5  -5    5.44    1.05
  -3  -5  -5   35.78    2.58
  -3  -5  -5   32.69    1.73
   3  -5   5   35.01    2.45
  -3  -5  -5   30.87    2.69
  -3   5  -5   29.46    2.00
  -3  -5  -5   30.63    2.09
  -3  -5  -5   32.69    2.04
  -4  -5  -5  167.86    4.61
  -4  -5  -5  168.23    5.85
  -4  -5  -5  160.38    5.32
   4  -5   5  166.93    5.82
  -4  -5  -5  160.49    6.33
  -4   5  -5  156.98    5.25
  -4  -5  -5  157.89    5.38
  -4  -5  -5  163.49    5.10
  -5  -5  -5  168.91    5.22
  -5  -5  -5  170.86    4.71
  -5  -5  -5  158.74    5.72
  -5  -5  -5  165.65    5.45
   5  -5   5  164.96    5.91
  -5  -5  -5  145.87    6.16
   5  -5   5  185.46    4.67
  -6  -5  -5   64.04    2.63
  -6  -5  -5   63.65    3.36
  -6  -5  -5   62.92    3.25
   6  -5   5   62.73    3.50
  -6  -5  -5   58.24    3.87
   6  -5   5   67.00    2.81
  -7  -5  -5   53.19    2.44
  -7  -5  -5   56.61    3.07
   7  -5   5   54.53    3.31
  -7  -5  -5   56.67    4.07
   7  -5   5   51.85    2.69
  -8  -5  -5   90.28    3.34
  -8  -5  -5   87.15    5.01
  -8  -5  -5   99.36    4.04
   8  -5   5   85.32    3.77
  -9  -5  -5   72.49    3.04
   9  -5   5   67.39    3.55
 -10  -5  -5   28.94    2.17
 -10  -5  -5   23.89    2.42
  10  -5   5   26.01    2.34
  11  -5   5    5.89    1.55
  12  -5   5    9.44    1.82
  13  -5   5    7.09    1.91
  16   6  -5    0.25    1.54
  15   6  -5    0.16    1.35
  14   6  -5   -0.22    1.21
  14  -6  -5    0.55    1.55
  13   6  -5    0.33    1.12
  13  -6  -5    0.85    1.65
 -13   6   5    1.73    1.33
  12   6  -5    2.62    1.17
  12  -6  -5    2.86    1.78
 -12   6   5    3.79    1.33
 -12   6   5    1.54    1.09
 -12  -6   5    1.82    1.01
 -11   6   5    9.90    1.55
 -11   6   5   11.27    1.31
 -11  -6   5   10.17    1.25
  11   6  -5    9.77    1.36
 -10   6   5    8.05    1.35
 -10   6   5    5.80    1.54
 -10   6   5    8.63    1.14
 -10  -6   5    7.42    1.08
  10   6  -5    8.59    1.19
  -9   6   5   13.10    1.45
  -9   6   5    8.06    1.68
  -9   6   5   10.02    1.11
  -9  -6   5    8.77    1.02
   9   6  -5    8.98    1.09
  -8   6   5   34.23    1.69
  -8  -6   5   33.35    1.64
  -8   6   5   30.59    2.57
   8   6  -5   33.82    1.66
  -7   6   5   71.11    2.39
  -7  -6   5   67.79    2.32
  -7   6   5   64.48    3.52
   7   6  -5   68.82    2.16
   6   6  -5   30.91    0.98
  -6   6   5   31.89    2.42
  -5   6   5    7.96    1.05
   5  -6  -5    8.86    1.81
  -5   6   5    7.59    1.37
   5   6  -5    8.55    0.65
  -4   6   5   18.00    1.36
  -4   6   5   18.74    1.83
   4  -6  -5   20.65    2.29
  -3   6   5   19.33    1.38
   3  -6  -5   22.18    2.32
  -3   6   5   20.18    1.81
  -2   6   5    0.57    0.68
   2  -6  -5   -0.32    1.26
   2   6  -5    0.76    0.54
   2  -6  -5    0.83    0.54
   1  -6  -5   31.50    1.79
   1  -6  -5   31.13    1.47
   1   6  -5   31.13    1.39
  -1   6   5   27.30    2.03
  -1   6   5   29.01    1.62
   0  -6  -5   23.39    1.55
   0  -6  -5   25.58    2.40
   0  -6   5   21.75    1.76
   0  -6  -5   21.65    1.26
   0   6  -5   22.32    1.23
   0   6   5   24.04    1.88
   0   6   5   24.54    1.50
   0   6  -5   22.64    1.65
   0  -6  -5   20.65    1.58
  -1   6  -5    9.07    1.16
  -1  -6  -5   10.95    1.16
  -1  -6  -5   12.13    1.85
   1  -6   5    9.90    1.39
  -1  -6  -5   10.99    1.00
  -1   6  -5   11.98    1.00
  -1  -6  -5    9.37    1.19
   1   6   5   10.85    1.11
  -1  -6  -5   11.15    1.92
  -2  -6  -5   27.53    1.68
  -2  -6  -5   32.00    2.66
   2  -6   5   25.03    2.06
  -2  -6  -5   29.59    2.71
  -2   6  -5   25.92    1.85
  -2  -6  -5   23.83    1.80
  -3  -6  -5   70.88    2.65
  -3  -6  -5   71.55    3.95
   3  -6   5   61.47    3.26
  -3  -6  -5   59.77    2.99
  -3  -6  -5   58.03    3.81
  -3   6  -5   64.01    2.98
  -4  -6  -5   37.55    2.00
  -4  -6  -5   41.05    3.02
   4  -6   5   33.06    2.51
  -4  -6  -5   33.15    3.03
   4  -6   5   40.32    1.34
  -5  -6  -5    8.57    1.12
   5  -6   5    8.56    1.59
  -5  -6  -5    7.26    1.66
   5  -6   5    7.98    0.89
  -5  -6  -5    7.08    2.02
   6  -6   5    3.83    0.86
   6  -6   5    4.88    1.49
  -6  -6  -5    3.53    0.99
  -6  -6  -5    6.57    2.15
  -6  -6  -5    5.85    1.57
  -7  -6  -5    8.60    1.17
  -7  -6  -5    7.78    2.31
  -7  -6  -5   10.44    1.75
   7  -6   5    7.71    1.17
   8  -6   5    1.11    1.00
  -8  -6  -5    2.34    1.39
  -8  -6  -5    1.62    1.39
  -9  -6  -5    1.67    1.28
   9  -6   5    0.83    1.04
  -9  -6  -5    1.39    1.33
  10  -6   5    0.65    1.16
  11  -6   5   -1.16    1.36
  13  -7  -5   12.32    2.23
 -12   7   5   15.06    1.95
 -12   7   5   18.35    1.63
  12   7  -5   13.13    1.66
  11   7  -5    1.64    0.95
 -11   7   5    2.36    1.21
  11  -7  -5    3.99    2.08
 -11  -7   5    2.33    0.90
 -11   7   5    2.43    1.01
  11   7  -5    1.76    0.65
  10   7  -5    0.61    0.79
  10  -7  -5    0.58    2.00
 -10   7   5    0.30    0.86
 -10  -7   5    0.80    0.75
  -9   7   5   19.51    1.39
  -9  -7   5   17.35    1.28
   9   7  -5   16.98    1.33
  -8   7   5   72.21    2.46
  -8  -7   5   66.44    2.37
  -7   7   5   34.99    2.07
   7  -7  -5   56.46    4.02
   6   7  -5   14.18    0.57
  -6   7   5   15.59    1.37
  -6  -7   5   13.72    0.63
  -5   7   5   78.72    2.95
   5   7  -5   77.78    2.07
  -5   7   5   80.89    3.85
  -4   7   5  247.50    6.24
  -4   7   5  240.80    7.25
  -3   7   5  161.56    4.60
   3  -7  -5  193.52    7.23
   2  -7  -5   71.73    4.36
  -2   7   5   63.29    2.53
   1  -7  -5  120.33    5.65
   1  -7  -5  109.94    3.01
   1   7  -5  111.92    2.89
  -1   7   5  112.43    4.18
   1   7  -5  104.03    3.53
   1  -7  -5  112.25    4.13
  -1   7   5  109.04    3.44
   0  -7  -5  262.83    5.81
   0   7  -5  262.57    5.62
   0   7   5  272.75    7.19
   0   7  -5  253.76    6.49
   0   7   5  271.25    6.34
   0  -7  -5  259.64    7.05
  -1  -7  -5  123.11    4.22
  -1  -7  -5  147.18    3.84
  -1   7  -5  154.36    3.72
   1   7   5  165.12    5.11
  -1   7  -5  134.99    4.37
   1   7   5  147.76    4.16
  -1  -7  -5  155.40    5.02
  -2  -7  -5   24.80    1.69
   2  -7   5   21.29    1.90
  -2  -7  -5   23.97    1.41
  -2  -7  -5   20.36    1.64
  -2   7  -5   24.49    1.34
  -2  -7  -5   22.43    2.72
  -3  -7  -5   31.36    1.89
   3  -7   5   26.39    2.16
  -3   7  -5   30.37    1.56
  -3  -7  -5   26.54    2.94
  -4  -7  -5   82.65    3.07
   4  -7   5   69.20    3.57
  -4  -7  -5   80.47    5.13
  -5  -7  -5   34.81    3.60
  -5  -7  -5   41.65    2.18
   5  -7   5   37.13    2.64
   5  -7   5   44.12    1.48
   6  -7   5    1.38    0.72
  -6  -7  -5    1.07    1.82
  -6  -7  -5    1.36    1.17
  -6  -7  -5    0.82    0.96
   7  -7   5    1.11    0.82
  -7  -7  -5    1.29    1.29
   8  -7   5   11.24    1.44
  12  -8  -5    1.13    1.95
  11  -8  -5    4.01    2.31
 -11   8   5    1.29    0.95
  10  -8  -5    1.22    2.42
 -10   8   5    1.19    1.26
 -10   8   5   -0.39    0.83
   9  -8  -5    0.56    2.30
  -9   8   5    0.54    1.02
   8  -8  -5    3.77    2.49
  -8   8   5    3.20    1.07
  -7   8   5   10.51    1.35
  -7  -8   5   12.42    0.75
   6  -8  -5    6.59    2.50
  -6  -8   5    5.43    0.60
  -6   8   5    6.90    1.17
   5  -8  -5    1.70    2.09
   5   8  -5    0.91    0.44
  -5   8   5    1.23    0.89
   4  -8  -5    5.75    2.39
  -4   8   5    5.02    1.06
  -3   8   5   15.38    1.38
   3  -8  -5   16.01    2.70
   3   8  -5   13.67    1.24
  -2   8   5    4.03    0.94
   2  -8  -5    3.22    1.97
   2   8  -5    4.41    0.90
   2  -8  -5    3.27    0.76
  -1   8   5    0.34    0.73
   1  -8  -5    0.46    1.83
   1   8  -5    0.13    0.71
   1  -8  -5   -0.09    0.61
   0   8   5   -0.52    0.81
   0  -8  -5   -0.21    0.61
   0  -8  -5    0.12    1.96
   0  -8  -5   -0.31    0.68
   1   8   5    0.20    0.78
  -1  -8  -5    0.71    0.61
  -1   8  -5    1.14    0.61
  -2   8  -5    0.61    1.42
  -2  -8  -5    0.24    0.64
  -2   8  -5    0.26    0.58
  -3  -8  -5    4.65    0.87
  -3   8  -5    4.35    0.80
  -3  -8  -5    4.21    2.25
   4  -8   5    5.61    1.42
  -4   8  -5    5.32    0.88
  -4  -8  -5    5.96    2.38
  -4  -8  -5    5.06    0.92
  -5  -8  -5    0.07    1.22
  -5  -8  -5   -0.80    2.36
  10  -9  -5   14.20    3.39
   9  -9  -5   42.52    4.56
  -8   9   5   36.27    2.38
   8  -9  -5   58.25    5.12
  -7   9   5   34.37    2.21
   7  -9  -5   45.85    4.76
  -6   9   5   22.32    1.85
  -6  -9   5   23.35    1.19
  -5   9   5   34.15    2.09
   5   9  -5   34.71    1.63
  -4   9   5   52.04    2.49
   4   9  -5   50.66    1.90
   3   9  -5   29.92    1.44
  -3   9   5   29.51    1.90
   2  -9  -5   16.58    3.46
  -2   9   5   15.27    1.46
   1  -9  -5   24.37    3.68
  -1   9   5   18.81    1.54
   0   9   5   28.75    1.81
   0  -9  -5   31.59    4.00
  -1  -9  -5   15.09    3.27
   1   9   5   14.81    1.39
  -2  -9  -5    2.61    2.45
   8 -10  -5    5.16    3.51
   7 -10  -5    7.78    3.73
   6 -10  -5   -1.50    3.54
   5 -10  -5    0.34    3.28
  -5  10   5    2.52    1.21
  -4  10   5    0.86    1.08
   4 -10  -5    1.37    3.43
  -3  10   5    1.10    1.09
   3 -10  -5   -0.17    3.18
   2 -10  -5    2.01    3.23
  -2  10   5    0.99    1.03
  -1  10   5    9.88    1.34
   0  10   5    4.81    1.12
   1  10   5    0.39    0.99
  -2  11   5    3.46    1.20
  -1  11   5    3.64    1.25
   0  11   5    3.43    1.16
 -17   0   6   -0.72    1.08
 -16   0   6    4.01    1.00
 -15   0   6   30.47    2.00
  15   0  -6   40.72    2.26
 -14   0   6   22.00    1.69
  14   0  -6   26.30    1.77
 -13   0   6    2.60    0.87
  13   0  -6    3.23    0.80
 -12   0   6    4.58    0.94
 -12   0   6    4.20    1.07
 -11   0   6   30.70    1.77
  11   0  -6   34.99    1.62
 -11   0   6   34.35    2.06
 -10   0   6   48.20    2.11
  10   0  -6   50.42    1.95
 -10   0   6   48.82    2.26
   9   0  -6   27.79    1.43
  -9   0   6   28.82    1.65
  -9   0   6   28.54    1.57
   8   0  -6   79.40    2.50
  -8   0   6   74.41    2.67
   8   0  -6   79.44    2.64
  -8   0   6   75.61    2.62
   7   0  -6  109.51    3.01
  -7   0   6  102.72    3.18
   7   0  -6  108.55    3.30
  -7   0   6  101.40    3.10
   6   0  -6  276.22    5.96
  -6   0   6  260.07    6.14
   6   0  -6  273.21    6.50
  -6   0   6  265.40    6.15
   5   0  -6   24.13    1.26
  -5   0   6   22.30    1.29
   5   0  -6   26.17    1.66
   5   0  -6   20.73    1.30
  -5   0   6   22.69    1.30
   4   0  -6   33.15    1.50
   4   0  -6   31.60    1.60
   3   0  -6  447.40    9.14
   3   0  -6  431.29    9.01
   3   0  -6  457.21    9.32
   2   0  -6 1070.97   21.15
   2   0  -6 1198.03   21.36
   1   0  -6  528.64   10.64
   1   0  -6  514.04   10.91
   1   0  -6  539.69   10.87
   0   0  -6  247.68    6.16
   0   0  -6  233.43    5.84
   0   0  -6  245.19    5.69
  -1   0  -6  612.62   12.95
  -1   0  -6  600.47   12.49
  -1   0  -6  618.65   12.25
  -2   0  -6 1074.75   19.86
  -2   0  -6 1040.55   20.74
  -2   0  -6  992.93   20.98
  -2   0  -6 1033.83   20.26
  -3   0  -6  427.48    9.01
  -3   0  -6  423.56    9.98
  -4   0  -6   54.61    2.35
  -4   0  -6   58.30    3.08
  -4   0  -6   50.76    2.80
  -5   0  -6  117.25    4.70
   5   0   6  123.51    4.41
  -6   0  -6  238.16    7.31
  -6   0  -6  221.52    7.02
  -6   0  -6  235.37    6.47
   6   0   6  240.65    7.17
  -7   0  -6   57.41    2.83
  -7   0  -6   58.69    3.47
   7   0   6   60.23    3.38
   8   0   6    1.30    1.26
  -8   0  -6    1.26    1.05
   9   0   6    0.88    1.25
  -9   0  -6    0.49    1.00
  10   0   6   21.27    2.53
 -10   0  -6   15.67    1.74
  11   0   6    6.60    1.84
  12   0   6    1.95    1.68
 -18   1   6   -0.93    1.31
 -17   1   6   -0.48    1.08
 -16  -1   6    7.04    1.09
 -16   1   6    4.76    1.25
 -15  -1   6    7.43    1.09
 -15   1   6    7.57    1.28
  15  -1  -6   10.75    1.35
  14   1  -6    2.79    0.85
 -14  -1   6    2.00    0.81
 -14   1   6    2.67    0.97
  13   1  -6    4.06    0.86
 -13  -1   6    4.57    0.88
 -13   1   6    5.33    1.00
 -12  -1   6   24.86    1.54
 -12   1   6   23.60    1.66
  12   1  -6   23.16    1.47
 -12  -1   6   24.16    1.85
 -11   1   6   15.63    1.42
  11   1  -6   16.92    1.06
  11   1  -6   14.56    1.12
 -11  -1   6   18.03    1.58
 -11  -1   6   17.13    1.27
  10  -1  -6    5.35    0.87
  10   1  -6    4.59    0.65
 -10   1   6    5.58    0.96
 -10  -1   6    3.99    0.89
 -10  -1   6    5.43    0.83
  10   1  -6    4.61    0.70
  -9   1   6   22.06    1.44
   9  -1  -6   22.49    1.39
  -9  -1   6   18.27    1.40
   9   1  -6   22.66    1.26
  -9  -1   6   21.34    1.30
  -8   1   6    8.24    0.92
   8  -1  -6    8.66    0.97
   8   1  -6    8.89    0.81
  -8  -1   6   11.79    1.09
   8   1  -6   10.48    0.96
  -8  -1   6   10.55    0.95
   7   1  -6   18.55    1.10
   7  -1  -6   19.06    1.22
  -7  -1   6   18.50    1.29
   7   1  -6   22.64    1.42
  -7  -1   6   18.71    1.16
   7  -1  -6   18.32    1.30
  -7   1   6   18.42    1.27
   6   1  -6  162.19    3.90
   6  -1  -6  163.71    4.12
  -6  -1   6  161.37    4.26
   6  -1  -6  166.75    4.57
  -6   1   6  157.28    4.26
   5   1  -6  340.38    7.07
   5   1  -6  329.75    6.66
   5  -1  -6  351.63    7.30
   5  -1  -6  331.53    7.37
   5  -1  -6  348.51    7.91
  -5   1   6  328.18    7.39
   4   1  -6  148.40    3.71
   4   1  -6  139.48    3.45
   4  -1  -6  146.09    3.89
   4  -1  -6  144.46    4.41
  -4   1   6  143.26    3.88
   3   1  -6   57.20    2.03
   3  -1  -6   56.13    2.16
   3   1  -6   57.56    2.08
   2  -1  -6  150.10    4.12
   2   1  -6  156.50    3.90
   2   1  -6  164.92    4.29
   2  -1  -6  164.16    4.27
   2   1  -6  170.86    4.23
   1   1  -6  180.93    4.66
   1  -1  -6  185.02    4.84
   1   1  -6  187.33    4.97
   1  -1  -6  186.76    4.74
   1  -1  -6  175.16    4.70
   1   1  -6  185.75    4.38
   1  -1  -6  184.38    4.69
   0  -1  -6   16.14    1.27
   0   1  -6   18.74    1.46
   0  -1  -6   19.12    1.28
   0  -1  -6   18.38    1.29
   0   1  -6   17.86    1.08
  -1   1  -6   18.89    1.16
  -1  -1  -6   15.72    1.36
  -1   1  -6   19.19    1.61
  -1  -1  -6   18.22    1.35
  -1  -1  -6   20.33    1.36
  -2   1  -6    4.61    0.75
  -2  -1  -6    4.67    0.82
  -2  -1  -6    4.96    0.88
  -2  -1  -6    5.41    1.00
  -2   1  -6    4.80    1.16
  -2  -1  -6    4.37    1.04
  -3  -1  -6    0.32    0.66
  -3   1  -6    0.21    0.62
  -3  -1  -6    0.26    0.69
  -3  -1  -6    0.39    0.77
  -3   1  -6    1.12    1.01
  -3  -1  -6    0.38    0.83
  -4  -1  -6   30.36    1.80
   4  -1   6   31.22    2.17
  -4  -1  -6   27.63    2.03
  -4  -1  -6   25.90    2.06
  -4   1  -6   32.64    2.44
  -4  -1  -6   26.54    1.82
  -5  -1  -6   95.36    3.45
   5  -1   6  104.13    4.27
  -5  -1  -6   95.09    4.02
   5  -1   6  102.63    3.87
  -5  -1  -6   88.32    3.94
  -6  -1  -6   47.85    2.74
  -6  -1  -6   48.49    2.97
   6  -1   6   47.24    3.05
  -6  -1  -6   54.14    3.13
   6   1   6   51.34    3.05
   6  -1   6   48.17    2.81
  -7  -1  -6   10.35    1.76
   7   1   6   12.92    1.84
   7  -1   6   10.57    1.80
  -7  -1  -6    9.11    1.48
   7  -1   6    9.62    1.51
  -7   1  -6   10.52    1.29
   8   1   6    8.12    1.71
  -8  -1  -6    9.60    1.53
  -8   1  -6    9.04    1.25
  -8  -1  -6   11.69    1.83
   8  -1   6    9.80    1.63
  -9  -1  -6   20.83    2.35
  -9   1  -6   17.39    1.53
  -9  -1  -6   16.94    1.95
   9   1   6   16.87    2.24
   9  -1   6   21.16    2.35
  10   1   6    5.85    1.82
  10  -1   6    5.76    1.72
 -10  -1  -6    4.03    1.44
  11   1   6    1.19    1.56
  11  -1   6   -0.30    1.45
  12  -1   6    0.21    1.52
 -18   2   6    1.84    1.36
 -17   2   6   -0.75    1.32
 -16   2   6    4.23    1.30
 -15   2   6   31.23    2.34
 -15  -2   6   30.47    1.67
 -14   2   6   39.99    2.50
  14   2  -6   41.95    2.09
 -14  -2   6   40.63    1.94
 -13   2   6   22.22    1.83
  13   2  -6   24.72    1.53
 -13  -2   6   23.78    1.44
 -12   2   6   54.14    2.64
  12   2  -6   48.24    2.05
  12   2  -6   58.60    1.73
 -12   2   6   62.06    2.78
 -12  -2   6   58.01    2.76
 -12  -2   6   52.34    2.09
  11   2  -6  217.17    4.56
 -11   2   6  210.01    5.74
 -11   2   6  224.61    5.77
 -11  -2   6  217.22    5.83
 -11  -2   6  214.99    5.10
 -10   2   6  306.96    7.39
 -10   2   6  318.85    7.25
 -10  -2   6  314.07    7.29
  10   2  -6  323.74    6.45
 -10  -2   6  308.41    6.73
  -9   2   6  175.96    4.87
   9   2  -6  162.31    3.49
   9  -2  -6  192.92    4.99
  -9   2   6  175.71    4.72
  -9  -2   6  178.49    4.79
   9   2  -6  190.21    4.38
  -9  -2   6  174.73    4.36
  -8   2   6  124.74    3.87
   8  -2  -6  138.34    4.05
   8   2  -6  133.25    3.28
  -8   2   6  133.38    3.80
  -8  -2   6  129.27    3.80
  -7   2   6  466.39    9.98
   7  -2  -6  493.40   10.30
   7   2  -6  476.55    9.23
  -7   2   6  451.63    9.74
  -7  -2   6  466.25    9.83
   6  -2  -6  490.16   10.30
   6   2  -6  476.93    9.28
  -6   2   6  464.41    9.74
  -6  -2   6  468.56    9.77
  -6   2   6  467.81    9.94
   5   2  -6  160.48    3.81
   5  -2  -6  153.67    4.13
   5   2  -6  152.23    4.07
   5  -2  -6  163.58    4.64
  -5   2   6  153.27    4.22
   4  -2  -6   56.11    2.18
   4   2  -6   60.73    2.25
  -4   2   6   53.27    2.19
   4   2  -6   57.72    1.97
   3  -2  -6  128.54    3.57
   3  -2  -6  126.74    3.61
   3   2  -6  129.09    3.61
  -3   2   6  126.03    3.64
   3   2  -6  130.02    3.46
   2  -2  -6  173.09    4.46
   2  -2  -6  179.80    4.53
   2   2  -6  178.67    4.53
   2  -2  -6  179.62    5.31
  -2   2   6  172.86    4.53
   2   2  -6  176.84    4.41
   2   2  -6  161.48    3.83
   1  -2  -6   14.55    1.14
   1  -2  -6   13.95    1.13
   1   2  -6   14.35    1.15
   1  -2  -6   16.67    1.61
   1   2  -6   14.13    1.16
   1  -2  -6   13.20    1.19
   1   2  -6   14.12    0.84
   0  -2  -6   10.42    1.03
   0   2  -6   10.91    0.78
   0  -2  -6   10.26    1.10
   0  -2  -6   10.50    1.33
   0  -2  -6    9.85    1.04
  -1   2  -6    7.86    0.74
   1  -2   6    9.07    1.02
  -1  -2  -6    8.68    1.07
  -1  -2  -6    9.53    1.08
  -1  -2  -6    9.99    1.05
   2  -2   6   57.47    2.60
  -2  -2  -6   54.35    2.56
  -2  -2  -6   52.50    2.98
  -2   2  -6   54.57    2.80
  -2  -2  -6   51.28    2.71
  -2  -2  -6   52.46    2.31
  -2  -2  -6   54.36    2.40
   3  -2   6    8.97    1.23
  -3  -2  -6    9.46    1.28
  -3  -2  -6    9.09    1.42
  -3   2  -6    9.23    1.34
  -3  -2  -6   11.65    1.43
  -3  -2  -6    8.72    1.10
  -3  -2  -6   10.70    1.17
  -4  -2  -6    2.62    0.86
   4  -2   6    4.42    1.13
  -4  -2  -6    2.82    1.13
  -4  -2  -6    2.86    0.90
  -4  -2  -6    3.46    1.05
  -4  -2  -6    2.89    1.06
  -4   2  -6    3.33    1.06
  -5  -2  -6   21.02    1.65
   5  -2   6   21.14    2.06
  -5  -2  -6   19.46    1.85
  -5  -2  -6   19.23    1.98
  -5   2  -6   17.34    1.78
  -5  -2  -6   18.52    1.86
  -5  -2  -6   18.03    1.60
   5  -2   6   22.71    1.74
  -5  -2  -6   19.92    1.95
  -6  -2  -6   82.19    3.32
  -6  -2  -6   85.80    3.97
   6  -2   6   86.32    4.15
  -6  -2  -6   80.61    3.75
  -6  -2  -6   80.89    3.91
  -6  -2  -6   80.10    3.87
  -6   2  -6   75.29    3.70
  -6  -2  -6   74.70    3.20
   6  -2   6   91.72    3.69
   7  -2   6   43.15    3.08
  -7  -2  -6   40.94    2.78
  -7  -2  -6   40.41    2.79
  -7  -2  -6   41.26    2.81
  -7  -2  -6   34.31    2.30
   7   2   6   41.66    2.95
   7  -2   6   40.73    2.67
  -8   2  -6   12.11    1.25
  -8  -2  -6   12.50    1.90
  -8  -2  -6   10.14    1.72
  -8  -2  -6   11.27    1.67
   8   2   6   10.77    1.86
   8  -2   6   11.43    1.76
  -9  -2  -6   22.46    2.39
   9   2   6   23.11    2.64
  -9  -2  -6   26.31    2.20
  -9  -2  -6   21.83    2.34
   9  -2   6   25.84    2.51
 -10  -2  -6   48.55    3.24
 -10  -2  -6   51.00    3.45
 -10  -2  -6   53.88    3.00
  10   2   6   50.94    3.75
  10  -2   6   48.08    3.41
 -11  -2  -6   32.10    2.36
  11   2   6   30.05    3.14
  11  -2   6   25.58    2.76
  12  -2   6    5.11    1.80
 -17   3   6   -0.23    1.38
 -16   3   6   -0.29    1.29
 -15   3   6    0.20    1.09
 -14   3   6   18.48    1.90
 -14  -3   6   20.68    1.21
 -13   3   6   14.20    1.60
 -13  -3   6   13.11    1.02
 -12   3   6    3.37    1.05
  12   3  -6    2.59    0.45
 -12  -3   6    2.38    1.04
 -12   3   6    2.51    1.05
 -11   3   6    5.08    1.08
  11   3  -6    3.54    0.57
 -11   3   6    4.19    0.96
 -11  -3   6    3.73    0.99
 -10   3   6   30.82    1.91
 -10   3   6   33.84    1.88
 -10  -3   6   34.13    1.91
  10   3  -6   32.78    1.45
  -9   3   6   24.30    1.65
  -9   3   6   24.32    1.52
  -9  -3   6   23.29    1.56
  -8   3   6   26.65    1.68
   8   3  -6   26.63    1.15
   8  -3  -6   28.15    1.85
  -8   3   6   27.61    1.56
  -8  -3   6   25.26    1.53
  -7   3   6   88.93    3.10
   7   3  -6   92.17    2.44
   7  -3  -6   96.44    3.49
  -7   3   6   90.83    2.93
  -7  -3   6   89.34    2.94
  -6   3   6    0.63    0.64
   6   3  -6    0.96    0.44
   6  -3  -6    1.34    0.81
  -6   3   6    0.30    0.54
  -6  -3   6    1.01    0.61
   5   3  -6   20.64    1.08
   5  -3  -6   18.60    1.29
  -5   3   6   18.42    1.31
   4  -3  -6   98.48    3.06
   4  -3  -6   94.06    2.98
   4   3  -6   96.11    2.95
   4   3  -6   97.13    2.75
  -4   3   6   89.19    3.03
   3  -3  -6  267.44    6.13
   3  -3  -6  261.43    6.04
   3   3  -6  275.22    6.07
   3   3  -6  276.29    5.91
  -3   3   6  254.10    6.16
   3   3  -6  246.64    5.09
   3  -3  -6  251.16    6.82
   2  -3  -6   10.93    1.03
   2  -3  -6   10.16    1.00
   2   3  -6   10.90    1.01
   2   3  -6   11.49    1.03
   2  -3  -6   11.02    1.33
   2   3  -6   11.23    0.58
   1   3  -6   25.19    0.95
   1  -3  -6   27.95    1.54
   1  -3  -6   27.06    1.52
   1   3  -6   27.24    1.55
   1  -3  -6   27.04    1.99
   1  -3  -6   24.82    1.66
   0  -3  -6   20.28    1.37
   0  -3   6   22.25    1.35
   0  -3  -6   20.31    1.37
   0   3  -6   21.81    1.41
   0  -3  -6   23.53    1.92
   0  -3  -6   19.27    1.46
  -1  -3  -6  120.31    3.68
  -1  -3  -6  118.66    4.03
   1  -3   6  128.37    3.94
  -1  -3  -6  120.10    4.53
  -1  -3  -6  119.24    3.94
  -2  -3  -6   -0.04    0.69
  -2  -3  -6    0.14    0.71
   2  -3   6    0.43    0.81
  -2  -3  -6    0.31    0.63
  -2  -3  -6    0.37    0.93
  -2   3  -6   -0.05    0.85
  -2  -3  -6    0.44    0.85
  -3  -3  -6   69.88    3.12
   3  -3   6   75.65    3.38
  -3   3  -6   67.24    3.23
  -3  -3  -6   70.54    3.51
  -3  -3  -6   71.35    3.32
  -3  -3  -6   68.73    3.45
  -3  -3  -6   68.58    2.75
  -3  -3  -6   73.05    2.96
  -4  -3  -6    6.94    1.14
   4  -3   6    7.12    1.38
  -4  -3  -6    5.66    1.20
  -4  -3  -6    8.20    1.53
  -4  -3  -6    5.59    1.03
  -4  -3  -6    8.03    1.42
  -4   3  -6    5.25    1.24
  -4  -3  -6    5.47    1.21
   4  -3   6    6.97    0.97
  -5  -3  -6   12.83    1.40
  -5  -3  -6   12.44    1.86
   5  -3   6   14.40    1.88
  -5  -3  -6   13.07    1.61
  -5   3  -6   10.36    1.53
  -5  -3  -6   11.90    1.66
  -5  -3  -6   10.96    1.57
   5  -3   6   13.19    1.32
  -5  -3  -6   11.46    1.29
   6  -3   6    1.52    0.92
  -6  -3  -6    1.55    0.97
  -6  -3  -6    0.13    0.86
   6  -3   6    1.11    1.20
  -6  -3  -6    1.06    1.01
  -6  -3  -6    0.71    1.02
  -6  -3  -6    1.04    1.13
  -6  -3  -6    2.36    1.34
   7  -3   6   44.82    3.16
  -7  -3  -6   41.85    2.76
  -7  -3  -6   39.42    2.92
  -7  -3  -6   42.42    2.71
  -7  -3  -6   36.75    2.28
   7  -3   6   43.41    2.69
  -8   3  -6   10.73    1.09
  -8  -3  -6   10.68    1.76
  -8  -3  -6    8.12    1.82
  -8  -3  -6   11.37    1.63
   8  -3   6   13.62    1.79
   9  -3   6    2.52    1.31
  -9  -3  -6    1.48    1.71
  -9  -3  -6    2.99    1.47
  -9  -3  -6    2.57    1.23
  10   3   6    0.97    1.54
  10  -3   6    0.43    1.26
 -10  -3  -6    1.32    1.51
 -10  -3  -6    0.05    1.17
 -10  -3  -6   -1.01    1.68
  11  -3   6    2.72    1.49
  12  -3   6    1.60    1.47
  17   4  -6   10.28    1.89
  16   4  -6   12.72    1.86
 -16   4   6    9.52    1.82
  15   4  -6   11.93    1.78
 -15   4   6    9.48    1.67
  14   4  -6   19.02    2.03
 -14   4   6   14.97    1.85
 -14   4   6   16.59    2.01
 -13   4   6   30.93    2.35
 -13   4   6   25.90    2.34
 -12   4   6   33.30    2.27
 -12  -4   6   34.50    2.14
  12   4  -6   32.59    1.04
 -11   4   6   22.51    1.81
 -11   4   6   22.00    1.64
 -11  -4   6   22.72    1.68
  11   4  -6   22.91    1.08
 -10   4   6   30.56    1.97
 -10   4   6   30.92    1.80
 -10  -4   6   30.51    1.86
  -9   4   6   61.03    2.66
  -9   4   6   62.94    2.48
  -9  -4   6   60.91    2.49
  -8   4   6   58.56    2.56
   8   4  -6   57.99    1.68
  -8   4   6   59.07    2.34
  -8  -4   6   60.43    2.37
  -7   4   6   32.13    1.82
   7   4  -6   32.03    1.21
   7  -4  -6   34.16    2.19
  -7   4   6   31.50    1.65
  -7  -4   6   32.40    1.64
  -7   4   6   33.65    2.44
  -6   4   6   34.66    1.87
   6   4  -6   35.35    1.34
   6  -4  -6   40.72    2.38
  -6   4   6   37.50    2.54
  -5   4   6   80.06    2.90
   5  -4  -6   85.18    2.97
   5   4  -6   85.28    2.42
   4  -4  -6  124.75    3.67
   4  -4  -6  117.22    3.48
   4   4  -6  119.06    3.40
   4   4  -6  125.30    3.26
   3  -4  -6   70.36    3.21
   3  -4  -6   65.09    2.47
   3  -4  -6   61.76    2.34
   3   4  -6   65.10    2.33
   3   4  -6   65.21    2.25
   2  -4  -6   57.16    2.97
  -2  -4   6   57.07    1.74
   2  -4  -6   57.40    2.30
   2  -4  -6   55.44    2.19
   2   4  -6   59.00    2.23
   1  -4  -6  113.90    4.27
   1  -4  -6  106.97    3.34
  -1  -4   6  102.50    3.00
   1  -4  -6  103.99    3.25
   1   4  -6  109.56    3.29
   1  -4  -6  101.58    3.68
  -1   4   6  103.36    3.34
   0  -4  -6  180.79    5.80
   0  -4  -6  170.13    4.64
   0  -4   6  181.55    4.82
   0  -4  -6  168.73    4.54
   0   4  -6  181.55    4.63
   0  -4  -6  161.41    4.98
  -1  -4  -6  122.09    3.69
   1  -4   6  126.18    4.16
  -1   4  -6  110.22    4.15
  -1  -4  -6  112.53    4.22
  -1  -4  -6  116.01    4.01
  -1  -4  -6  124.18    4.69
  -2  -4  -6   65.48    2.62
  -2  -4  -6   68.59    3.08
   2  -4   6   71.71    3.27
  -2   4  -6   61.76    3.01
  -2  -4  -6   60.03    2.99
  -2  -4  -6   68.93    3.47
  -2  -4  -6   66.51    2.89
  -2  -4  -6   61.81    3.43
  -3  -4  -6   74.82    2.86
  -3  -4  -6   65.24    3.59
  -3  -4  -6   73.78    3.24
   3  -4   6   77.04    3.64
  -3   4  -6   68.59    3.23
  -3  -4  -6   65.84    3.22
  -3  -4  -6   73.37    3.63
  -3  -4  -6   74.15    3.07
  -4  -4  -6  104.76    3.57
  -4  -4  -6  104.90    4.70
  -4  -4  -6  103.89    4.09
   4  -4   6  103.82    4.55
  -4   4  -6  100.40    4.08
  -4  -4  -6  101.97    4.19
  -4  -4  -6   99.09    4.34
  -4  -4  -6  104.38    3.81
  -5  -4  -6   83.16    3.39
  -5  -4  -6   81.75    3.72
   5  -4   6   89.28    4.30
  -5  -4  -6   79.73    4.15
   5  -4   6   92.14    3.16
  -5   4  -6   76.80    3.69
  -5  -4  -6   86.72    3.97
  -5  -4  -6   76.34    3.77
  -5  -4  -6   78.82    3.13
   6  -4   6   42.02    3.11
  -6  -4  -6   37.20    2.60
  -6  -4  -6   29.94    2.72
  -6  -4  -6   28.56    2.37
   6  -4   6   37.34    2.17
  -6  -4  -6   32.02    2.01
   7  -4   6   24.34    2.45
  -7  -4  -6   23.13    2.17
  -7  -4  -6   19.53    2.47
  -7  -4  -6   18.25    1.66
  -7  -4  -6   22.41    2.07
   7  -4   6   23.29    1.99
  -8  -4  -6   32.79    2.58
  -8  -4  -6   27.83    2.94
  -8  -4  -6   32.81    2.43
   8  -4   6   28.67    2.32
  -9  -4  -6   22.76    2.84
  -9  -4  -6   21.58    2.30
   9  -4   6   20.54    2.17
  -9  -4  -6   24.75    2.12
  10  -4   6    7.97    1.71
 -10  -4  -6    8.80    1.52
  11  -4   6    2.64    1.49
  12  -4   6    3.37    1.52
  16   5  -6    1.14    1.30
  15   5  -6    0.29    1.29
  14   5  -6    6.25    1.48
 -14   5   6    5.57    1.49
  13   5  -6    2.07    1.15
 -13   5   6    2.42    1.50
 -13   5   6    1.83    1.18
  12   5  -6    5.39    1.22
 -12   5   6    2.95    1.43
 -12   5   6    3.91    1.22
  12   5  -6    4.66    0.52
 -12   5   6    3.87    1.13
 -12  -5   6    4.12    1.15
  11   5  -6    5.77    1.13
 -11   5   6    3.33    1.31
 -11   5   6    6.55    1.29
 -11   5   6    5.78    1.10
 -11  -5   6    5.46    1.12
  10   5  -6    1.98    0.85
 -10   5   6    0.16    1.10
 -10   5   6    1.61    0.94
 -10  -5   6    1.98    0.85
 -10   5   6    2.20    0.86
   9   5  -6    1.47    0.77
  -9   5   6    0.54    1.16
  -9   5   6    1.60    0.89
  -9   5   6    1.19    0.80
  -9  -5   6    2.16    0.84
   8   5  -6   22.17    1.35
  -8   5   6   22.63    1.66
   8   5  -6   20.89    0.87
  -8   5   6   22.08    1.46
  -8  -5   6   23.82    1.49
  -8   5   6   17.73    2.05
  -7   5   6   31.38    1.87
   7   5  -6   31.53    1.13
  -7  -5   6   29.12    1.56
  -7   5   6   32.17    2.52
   7   5  -6   31.82    1.36
   6   5  -6    0.73    0.32
  -6   5   6    0.53    1.05
   6   5  -6    0.43    0.42
  -5   5   6    7.75    1.42
   5   5  -6    5.96    0.68
   4  -5  -6   21.00    2.04
  -4   5   6   19.74    1.93
   4   5  -6   18.58    1.12
   3  -5  -6   37.98    2.60
   3  -5  -6   33.62    1.83
   3  -5  -6   34.67    1.70
   3   5  -6   33.86    1.63
  -3   5   6   33.43    1.82
  -2   5   6    1.86    0.78
  -2  -5   6    1.33    0.50
   2  -5  -6    1.69    0.80
   2  -5  -6    2.91    1.26
   2  -5  -6    1.57    0.72
   2   5  -6    1.56    0.66
   1  -5  -6   32.65    2.48
   1  -5  -6   32.15    1.81
  -1  -5   6   33.11    1.72
   1  -5  -6   29.59    1.61
   1   5  -6   32.43    1.63
  -1   5   6   31.82    1.75
   1  -5  -6   26.22    1.93
   0  -5  -6    0.14    0.82
   0  -5  -6    0.52    1.15
   0  -5   6    0.56    0.75
   0  -5  -6    0.03    0.74
   0  -5  -6   -0.07    1.05
   0  -5  -6    0.03    0.70
   0   5  -6    0.24    0.68
  -1  -5  -6    9.05    1.13
   1  -5   6    8.10    1.27
  -1  -5  -6    8.20    1.55
  -1  -5  -6    9.77    1.09
  -1   5  -6   11.13    1.11
  -1  -5  -6   10.16    1.68
  -1   5  -6    6.93    1.23
  -1  -5  -6    8.08    1.25
  -1  -5  -6    7.82    1.23
  -2  -5  -6   10.65    1.77
  -2  -5  -6   11.79    1.22
   2  -5   6    9.79    1.46
  -2  -5  -6    8.88    1.76
  -2   5  -6   11.47    1.45
  -2  -5  -6   10.85    1.42
  -2  -5  -6    9.85    1.34
  -3  -5  -6   41.45    2.92
  -3  -5  -6   39.31    2.09
  -3  -5  -6   40.24    2.52
  -3  -5  -6   33.99    2.85
   3  -5   6   38.38    2.66
  -3   5  -6   38.47    2.44
  -3  -5  -6   38.29    2.45
  -3  -5  -6   37.86    2.30
  -4  -5  -6    3.00    1.14
  -4  -5  -6    4.48    1.23
   4  -5   6    3.82    1.37
  -4  -5  -6    3.09    0.99
  -4  -5  -6    4.18    1.39
  -4   5  -6    3.91    1.21
  -4  -5  -6    4.28    1.53
   5  -5   6    2.08    0.69
  -5  -5  -6    1.24    1.43
  -5  -5  -6    1.35    1.09
   5  -5   6    0.85    1.22
  -5  -5  -6    2.76    0.98
  -5  -5  -6    2.38    1.32
   6  -5   6    0.87    0.75
  -6  -5  -6    0.66    1.13
   6  -5   6    0.32    1.27
  -6  -5  -6    1.82    0.97
  -6  -5  -6    1.20    1.54
  -6  -5  -6    1.19    1.22
  -7  -5  -6   14.10    1.44
  -7  -5  -6   10.64    2.22
  -7  -5  -6   11.70    1.85
  -7  -5  -6   13.96    1.85
   7  -5   6   15.10    1.55
   8  -5   6    0.82    1.02
  -8  -5  -6    0.80    1.26
  -8  -5  -6    0.32    1.26
  -8  -5  -6   -0.21    1.82
   9  -5   6    1.79    1.12
  -9  -5  -6    2.72    2.06
  -9  -5  -6    4.33    1.42
  10  -5   6   -0.22    1.23
 -13   6   6   14.09    1.86
  13   6  -6   14.59    1.74
 -12   6   6   13.38    1.75
 -12  -6   6   14.52    1.52
  12   6  -6   14.73    1.62
  11   6  -6    0.28    0.85
 -11   6   6    1.30    1.02
 -11   6   6    1.15    1.01
 -11  -6   6    1.21    0.94
  10   6  -6    1.91    0.80
 -10   6   6    1.50    0.95
 -10   6   6    1.24    0.92
 -10  -6   6    3.71    0.95
  -9   6   6   34.74    2.14
  -9   6   6   39.07    1.92
  -9  -6   6   36.12    1.86
   9   6  -6   31.45    1.70
  -8   6   6   52.98    2.17
  -8  -6   6   50.40    2.09
  -8   6   6   47.49    3.20
   8   6  -6   49.06    1.83
   7   6  -6    6.84    0.54
  -7   6   6    7.53    1.58
   7   6  -6    6.63    0.55
   6   6  -6   12.60    0.78
  -6   6   6   14.50    1.90
  -5   6   6  121.49    3.95
  -5   6   6  134.62    5.05
   5   6  -6  130.06    3.18
  -4   6   6  218.75    6.73
   4   6  -6  218.17    4.94
   4  -6  -6  223.76    7.52
  -4   6   6  204.15    5.55
  -3  -6   6   94.70    2.39
   3  -6  -6  102.49    4.56
  -3   6   6   97.85    4.09
   3  -6  -6   89.17    2.90
  -3   6   6   88.91    3.21
   3  -6  -6   89.12    4.49
   2  -6  -6   55.58    3.58
  -2  -6   6   60.81    2.28
   2  -6  -6   60.78    2.61
   2  -6  -6   57.88    2.31
   2   6  -6   58.15    2.17
  -2   6   6   59.89    2.51
  -1  -6   6  194.74    5.39
   1  -6  -6  196.80    5.31
   1  -6  -6  196.98    4.91
   1   6  -6  198.31    4.84
  -1   6   6  189.77    5.14
   1  -6  -6  180.48    5.73
   0  -6  -6  290.53    6.95
   0  -6   6  270.69    7.40
   0  -6  -6  284.65    6.56
   0   6  -6  292.99    6.48
   0  -6  -6  254.64    7.21
   0   6   6  287.90    6.84
   0   6  -6  269.47    7.30
   0  -6  -6  270.56    7.37
  -1  -6  -6  126.96    5.63
  -1  -6  -6  137.01    4.17
  -1  -6  -6  146.23    5.83
   1  -6   6  120.67    4.65
  -1  -6  -6  133.72    3.87
  -1   6  -6  135.54    3.82
  -1  -6  -6  119.02    4.34
  -1   6  -6  130.88    4.52
  -1  -6  -6  129.02    4.56
  -2  -6  -6   32.68    1.94
  -2  -6  -6   39.57    3.13
   2  -6   6   30.37    2.39
  -2  -6  -6   30.24    2.86
  -2  -6  -6   31.38    1.76
  -2   6  -6   33.07    1.80
  -2   6  -6   31.80    2.21
  -2  -6  -6   31.91    2.20
  -3  -6  -6   62.50    3.23
  -3  -6  -6   67.48    2.80
  -3  -6  -6   70.98    4.07
   3  -6   6   57.67    3.34
  -3  -6  -6   54.31    3.72
  -3   6  -6   60.82    3.13
  -3  -6  -6   57.59    3.00
  -4  -6  -6  112.33    3.79
  -4  -6  -6  113.09    4.46
  -4  -6  -6  123.09    5.36
   4  -6   6   99.18    4.56
  -4  -6  -6   98.41    5.12
  -5  -6  -6   42.16    2.26
  -5  -6  -6   43.01    3.17
  -5  -6  -6   44.20    2.82
   5  -6   6   40.77    2.96
  -5  -6  -6   39.11    3.30
   6  -6   6    2.25    0.77
  -6  -6  -6    2.39    1.92
  -6  -6  -6    2.32    1.31
  -6  -6  -6    3.01    1.08
  -6  -6  -6    2.13    1.54
   7  -6   6    3.42    0.96
  -7  -6  -6    2.97    2.08
  -7  -6  -6    4.89    1.71
  -8  -6  -6   19.83    2.30
  -8  -6  -6   16.24    2.94
   8  -6   6   18.95    1.72
  13  -7  -6    1.35    2.24
  12  -7  -6    1.36    2.18
  11  -7  -6    1.77    2.12
 -11   7   6   -0.12    1.02
 -11   7   6    0.45    0.92
  10  -7  -6    1.74    2.05
 -10   7   6    1.02    0.90
 -10  -7   6    0.77    0.83
   9  -7  -6    4.90    2.22
  -9  -7   6    2.79    0.84
   8  -7  -6   13.46    2.58
  -7   7   6   21.56    1.71
   7   7  -6   18.32    0.70
   6   7  -6   22.44    0.96
  -6   7   6   22.81    1.72
  -5   7   6   26.88    1.82
   5   7  -6   26.62    1.23
  -4  -7   6   26.15    0.85
   4   7  -6   29.42    1.43
  -4   7   6   28.92    1.83
   3  -7  -6   31.91    3.09
  -3  -7   6   31.69    1.52
  -3   7   6   30.13    1.87
   2  -7  -6   14.65    2.35
  -2  -7   6   15.01    1.37
   2  -7  -6   15.84    1.18
  -2   7   6   14.30    1.35
  -1   7   6    2.14    0.92
  -1  -7   6    3.19    1.07
   1  -7  -6    2.81    0.80
   1   7  -6    2.73    0.76
   1  -7  -6    1.75    1.61
   1   7  -6    2.81    0.97
   1  -7  -6    2.34    0.96
   0   7   6    0.70    0.81
   0  -7   6   -0.59    1.03
   0  -7  -6    0.96    0.98
   0  -7  -6    0.55    0.70
   0   7  -6    0.23    0.64
   0   7  -6   -0.28    0.87
   0  -7  -6    0.51    0.86
   1  -7   6    0.26    1.10
  -1  -7  -6    0.37    0.95
  -1  -7  -6    0.79    0.78
  -1   7  -6    0.40    0.68
  -1   7  -6    1.08    0.94
  -1  -7  -6    0.73    0.89
  -2  -7  -6    1.90    1.56
   2  -7   6    2.02    1.22
  -2  -7  -6    2.07    1.07
  -2  -7  -6    1.21    0.76
  -2   7  -6    1.49    0.77
  -2   7  -6    2.07    1.07
  -2  -7  -6    1.62    0.98
  -2  -7  -6    1.66    1.54
  -3  -7  -6   10.99    1.36
  -3  -7  -6   11.01    2.20
   3  -7   6    6.15    1.47
  -3  -7  -6    8.99    1.15
  -3   7  -6   10.40    1.16
  -3  -7  -6    8.43    2.12
  -4  -7  -6   13.66    1.85
  -4  -7  -6   14.74    1.49
   4  -7   6   14.86    2.00
  -4  -7  -6   14.68    2.34
  -4  -7  -6   12.88    2.36
  -5  -7  -6    7.90    2.38
   5  -7   6    7.53    1.75
  -5  -7  -6    8.50    1.35
  -5  -7  -6   11.56    2.22
  -6  -7  -6    7.11    2.04
  -6  -7  -6    5.21    2.28
  12  -8  -6   58.21    4.36
  11  -8  -6   41.95    4.08
  10  -8  -6   58.93    4.69
  -9   8   6   77.38    3.50
   9  -8  -6  131.05    6.63
  -8   8   6   86.45    3.62
   8  -8  -6  139.07    6.74
  -7   8   6   33.85    2.17
   7  -8  -6   51.64    4.45
   6   8  -6   27.19    0.99
  -6   8   6   28.73    1.95
  -5   8   6   54.33    2.61
   5   8  -6   55.15    1.79
  -4  -8   6   43.89    1.68
   4   8  -6   45.28    1.81
  -4   8   6   41.34    2.25
   3  -8  -6    4.27    2.08
  -3   8   6    5.33    1.16
  -3  -8   6    5.15    1.08
   3   8  -6    4.62    1.09
   2  -8  -6    2.27    2.02
  -2   8   6    1.45    0.94
  -2  -8   6    0.88    0.99
   2   8  -6    0.99    0.91
   1  -8  -6    4.38    2.05
  -1   8   6    5.48    1.15
  -1  -8   6    4.21    1.27
   1   8  -6    4.55    1.08
   0   8   6    7.27    1.20
   0  -8  -6    6.26    2.10
   0  -8   6    6.28    1.45
   0  -8  -6    9.29    1.09
   0   8  -6    7.73    0.89
   0   8  -6    7.58    1.20
   1  -8   6    1.58    1.20
  -1  -8  -6    0.71    0.76
  -1   8  -6    0.85    0.70
   2  -8   6    3.43    1.41
  -2  -8  -6    3.65    0.91
  -2   8  -6    3.75    0.85
  -3  -8  -6    3.10    2.12
   3  -8   6    1.75    1.36
  -3  -8  -6    1.50    0.88
  -3   8  -6    1.74    0.83
   4  -8   6   11.21    1.91
  -4   8  -6   12.55    1.25
  -5   8  -6    6.05    1.09
  10  -9  -6    0.12    2.78
   9  -9  -6    2.49    3.11
   8  -9  -6   -1.36    2.96
   7  -9  -6    0.56    2.65
  -6   9   6   16.96    1.72
   6  -9  -6   25.26    3.87
  -5   9   6   28.47    1.98
   5  -9  -6   32.35    4.00
   4  -9  -6   13.33    3.07
  -4   9   6   10.86    1.40
  -3   9   6    5.04    1.15
   3  -9  -6    6.16    2.73
   2  -9  -6   17.41    3.11
  -2   9   6   17.25    1.63
  -1   9   6   21.45    1.75
   1  -9  -6   20.00    3.42
   0   9   6    1.26    1.05
   9 -10  -6    1.53    3.57
   8 -10  -6    0.50    3.85
   7 -10  -6    1.22    3.65
  -3  10   6   15.98    1.68
  -2  10   6   19.39    1.73
  -1  10   6   32.45    2.08
   0  10   6   36.18    2.21
 -17   0   7   -0.96    0.93
 -16   0   7   -0.99    1.03
 -15   0   7   -0.15    0.88
 -14   0   7   -0.19    0.89
  14   0  -7    0.26    0.71
 -13   0   7   -0.71    0.84
 -12   0   7    2.51    0.88
  12   0  -7    0.47    0.74
 -11   0   7    1.43    0.81
  11   0  -7   -0.03    0.71
 -11   0   7    0.04    0.77
 -10   0   7    0.15    0.70
  10   0  -7    0.24    0.66
 -10   0   7   -0.08    0.71
  -9   0   7    0.18    0.62
   9   0  -7   -0.29    0.70
  -9   0   7   -0.14    0.65
  -8   0   7    0.35    0.65
   8   0  -7    0.52    0.71
   8   0  -7    0.55    0.69
  -8   0   7    0.64    0.69
  -7   0   7    0.46    0.64
   7   0  -7    0.57    0.73
   7   0  -7    0.32    0.65
  -7   0   7    0.67    0.67
  -6   0   7   -0.16    0.60
   6   0  -7    0.25    0.78
   6   0  -7    0.37    0.64
   5   0  -7    0.60    0.83
   5   0  -7   -0.21    0.64
   5   0  -7    0.58    0.63
   4   0  -7   -0.13    0.49
   4   0  -7   -0.06    0.62
   4   0  -7    0.23    0.62
   3   0  -7   -0.18    0.52
   3   0  -7    0.53    0.63
   3   0  -7    0.56    0.66
   2   0  -7   -0.03    0.56
   2   0  -7    0.68    0.57
   1   0  -7   -0.03    0.59
   1   0  -7   -0.16    0.64
   1   0  -7    0.18    0.64
   0   0  -7    0.06    0.51
   0   0  -7    0.17    0.73
  -1   0  -7    0.19    0.61
  -1   0  -7   -0.11    0.80
  -1   0  -7    0.14    0.75
  -2   0  -7    0.20    0.65
  -2   0  -7   -0.08    0.74
  -2   0  -7    0.21    0.86
  -2   0  -7   -0.30    0.90
  -3   0  -7    0.32    0.64
  -3   0  -7   -0.13    0.83
  -3   0  -7    0.36    0.90
  -3   0  -7   -0.24    0.93
  -4   0  -7    0.31    0.76
  -4   0  -7    0.85    1.03
  -4   0  -7   -0.25    0.99
  -5   0  -7    0.28    1.12
  -5   0  -7    0.07    1.06
  -6   0  -7    0.07    1.24
  -7   0  -7   -0.26    1.02
   8   0   7   -0.26    1.20
  -8   0  -7    0.27    1.13
   9   0   7   -0.10    1.34
  -9   0  -7   -0.16    1.13
  10   0   7    0.31    1.43
 -17   1   7   -0.97    1.09
 -16  -1   7    5.98    1.07
 -16   1   7    4.47    1.23
 -15   1   7   26.44    2.07
 -15  -1   7   26.38    1.76
 -14   1   7   12.15    1.46
 -14  -1   7   15.68    1.43
 -13  -1   7    3.25    0.87
  13   1  -7    2.83    0.73
 -13   1   7    3.84    1.07
 -12   1   7   30.45    1.99
  12   1  -7   36.52    1.64
  12   1  -7   29.97    1.57
 -12  -1   7   34.57    1.89
 -11   1   7  150.38    4.56
  11   1  -7  153.22    3.90
  11  -1  -7  165.88    4.41
 -11  -1   7  153.77    4.62
 -11  -1   7  156.17    4.33
  10  -1  -7  106.53    3.42
 -10  -1   7   98.65    3.46
 -10  -1   7  102.56    3.40
  10   1  -7  110.71    3.23
 -10   1   7  100.23    3.55
   9  -1  -7   32.71    1.85
   9   1  -7   36.22    1.64
  -9  -1   7   30.29    1.80
   9   1  -7   35.56    1.79
  -9  -1   7   33.56    1.77
  -9   1   7   37.11    1.98
   8   1  -7  116.30    3.22
   8  -1  -7  116.42    3.47
  -8  -1   7  107.44    3.51
   8   1  -7  121.39    3.70
  -8  -1   7  113.23    3.50
  -8   1   7  111.79    3.62
   8  -1  -7  118.19    3.71
   7   1  -7  409.85    8.41
   7  -1  -7  413.42    8.65
  -7  -1   7  378.91    8.70
   7   1  -7  429.72    9.33
   7  -1  -7  406.82    9.19
  -7   1   7  389.78    8.88
   6   1  -7  358.88    7.48
   6  -1  -7  370.15    7.75
   6  -1  -7  361.41    8.38
  -6   1   7  345.81    7.92
   5   1  -7   56.00    2.10
   5  -1  -7   59.01    2.25
   5   1  -7   52.73    1.88
   5  -1  -7   53.70    2.29
  -5   1   7   54.81    2.31
   5  -1  -7   59.98    2.72
   4   1  -7   97.91    2.98
   4   1  -7   95.35    2.91
   4  -1  -7   93.79    3.14
   4  -1  -7   94.21    3.68
   3   1  -7  446.01    9.70
   3  -1  -7  457.04    9.86
   3   1  -7  477.21    9.69
   2  -1  -7  320.52    7.72
   2   1  -7  330.74    7.79
   2  -1  -7  346.67    7.78
   2  -1  -7  331.87    7.69
   2   1  -7  335.62    7.24
   2   1  -7  349.07    7.60
   1  -1  -7   20.30    1.48
   1   1  -7   20.94    1.61
   1  -1  -7   19.98    1.47
   1   1  -7   21.57    1.49
   1  -1  -7   19.81    1.42
   1   1  -7   24.43    1.34
   1  -1  -7   22.54    1.49
   0  -1  -7    7.66    1.07
   0   1  -7    8.89    1.32
   0  -1  -7    9.13    1.06
   0  -1  -7    8.65    1.05
   0   1  -7    7.73    0.85
  -1   1  -7  177.59    4.56
  -1  -1  -7  177.51    5.34
  -1   1  -7  184.84    5.74
  -1  -1  -7  172.35    4.94
  -1  -1  -7  176.48    4.87
  -2   1  -7  148.14    4.04
  -2  -1  -7  139.16    4.75
  -2   1  -7  155.27    5.29
  -2  -1  -7  135.32    4.96
  -2  -1  -7  144.05    4.48
  -2  -1  -7  146.08    4.32
  -3  -1  -7    7.68    1.07
  -3   1  -7    7.02    0.98
  -3   1  -7    9.54    1.58
  -3  -1  -7    6.19    1.12
  -3  -1  -7    7.08    1.27
  -3  -1  -7    5.95    1.25
  -4  -1  -7    1.87    0.89
  -4  -1  -7    0.73    0.84
  -4  -1  -7    2.21    1.06
  -4  -1  -7    2.21    1.09
  -5  -1  -7   32.23    1.99
  -5  -1  -7   32.41    2.47
  -5  -1  -7   33.42    2.46
  -5  -1  -7   26.41    2.04
  -6  -1  -7   75.12    3.86
  -6  -1  -7   70.91    3.43
  -7  -1  -7   10.58    1.74
  -7  -1  -7   11.64    1.88
   7  -1   7   13.51    1.84
  -7   1  -7   12.38    1.49
   8  -1   7    1.16    1.29
  -8  -1  -7    0.23    1.25
  -8   1  -7    0.66    0.98
  -8  -1  -7    2.80    1.36
  -9  -1  -7   10.93    1.78
   9  -1   7   12.99    2.13
  10   1   7   25.80    2.93
  10  -1   7   26.16    2.78
  11  -1   7    6.00    1.89
 -11  -1  -7    9.41    1.89
 -17   2   7   -1.40    1.43
 -16   2   7    0.38    1.07
 -15   2   7    2.48    1.21
 -14   2   7   17.33    1.77
 -14  -2   7   19.12    1.44
  13   2  -7    8.29    0.83
 -13   2   7    7.10    1.33
 -13  -2   7    9.15    1.10
 -12  -2   7    0.30    0.66
  12   2  -7    0.05    0.43
 -12   2   7    0.05    0.90
  12   2  -7    0.15    0.61
 -11   2   7   11.48    1.34
  11   2  -7    8.77    0.55
 -11   2   7   10.63    1.27
 -11  -2   7   10.62    1.28
 -11  -2   7   11.24    1.10
  11   2  -7   11.14    0.98
 -10   2   7   71.47    2.99
  10  -2  -7   79.25    3.03
 -10   2   7   75.40    2.91
 -10  -2   7   70.84    2.87
  10   2  -7   75.00    2.57
  -9   2   7   28.87    1.81
   9  -2  -7   30.64    1.91
   9   2  -7   28.25    1.38
  -9   2   7   28.47    1.72
  -9  -2   7   28.32    1.78
   9   2  -7   28.21    1.64
   8  -2  -7   11.12    1.30
   8   2  -7   11.04    0.93
  -8   2   7    9.83    1.13
  -8  -2   7    9.56    1.10
  -8   2   7   10.26    1.15
  -7   2   7    0.59    0.70
   7   2  -7    1.08    0.58
   7  -2  -7    1.79    0.76
   7  -2  -7    0.69    0.77
  -7   2   7    0.19    0.63
  -7  -2   7    2.67    0.79
   6   2  -7   26.65    1.36
  -6   2   7   27.87    1.68
   6  -2  -7   28.43    1.86
  -5   2   7    0.11    0.65
   5   2  -7    0.91    0.61
   5  -2  -7    1.59    0.87
   5  -2  -7   -0.33    0.72
   5   2  -7   -0.03    0.70
   4  -2  -7   99.99    3.28
   4   2  -7  107.58    3.36
  -4   2   7  100.95    3.35
   4   2  -7  106.59    3.12
   3  -2  -7  123.53    3.64
   3  -2  -7  121.17    3.71
   3   2  -7  128.42    3.77
   3   2  -7  114.77    3.11
   3   2  -7  122.64    3.54
   2  -2  -7    6.33    0.91
   2  -2  -7    5.13    1.17
   2  -2  -7    6.36    1.00
   2   2  -7    4.77    0.91
   2   2  -7    6.55    0.96
   2   2  -7    4.98    0.65
   1  -2  -7    6.36    0.96
   1  -2  -7    4.46    0.93
   1   2  -7    5.25    0.93
   1  -2  -7    4.48    0.88
   1  -2  -7    5.59    1.21
   1  -2  -7    5.97    0.99
   1   2  -7    5.45    0.98
   1   2  -7    6.83    0.70
   0  -2  -7  106.76    3.50
   0   2  -7  106.04    2.94
   0  -2  -7  105.31    3.71
   0  -2  -7  103.45    3.48
   0   2  -7  113.67    3.62
   0  -2  -7  108.56    4.40
   0   2  -7  105.08    3.57
   0  -2  -7  103.12    3.57
  -1   2  -7  121.52    3.30
  -1  -2  -7  118.62    4.12
  -1  -2  -7  118.25    4.76
  -1  -2  -7  116.05    3.89
  -1  -2  -7  119.32    3.82
  -2  -2  -7    3.87    0.94
  -2  -2  -7    3.22    0.97
  -2  -2  -7    2.54    1.21
  -2  -2  -7    3.07    0.96
  -2   2  -7    2.66    1.12
  -2  -2  -7    3.52    1.14
  -3  -2  -7    8.55    1.17
  -3  -2  -7    8.20    1.31
  -3  -2  -7    6.22    1.46
  -3   2  -7    6.87    1.34
  -3  -2  -7    8.30    1.37
  -3  -2  -7    8.28    1.21
  -4  -2  -7    7.41    1.18
   4  -2   7    6.34    1.35
  -4  -2  -7    4.28    1.32
  -4  -2  -7    4.65    1.06
  -4  -2  -7    6.53    1.34
  -4   2  -7    4.17    1.18
  -4  -2  -7    7.93    1.44
  -5  -2  -7   15.18    1.51
   5  -2   7   14.90    1.88
  -5  -2  -7   14.28    1.74
  -5  -2  -7   13.30    1.80
  -5   2  -7   13.19    1.72
  -5  -2  -7   11.65    1.68
  -5  -2  -7   15.10    1.64
  -5  -2  -7   15.70    1.84
   6  -2   7    5.06    1.55
  -6  -2  -7    3.87    1.42
  -6  -2  -7    4.52    1.36
  -6  -2  -7    4.46    1.43
  -7  -2  -7   25.04    2.34
  -7  -2  -7   23.98    2.35
  -7  -2  -7   25.07    2.40
   7  -2   7   26.88    2.30
   8  -2   7    3.05    1.35
  -8  -2  -7    3.27    1.46
  -8  -2  -7    3.04    1.37
  -8  -2  -7    2.91    1.44
   9  -2   7    0.34    1.23
  -9  -2  -7    0.07    1.27
  -9  -2  -7    0.57    1.43
  -9  -2  -7    0.58    1.43
  10  -2   7    2.24    1.54
 -10  -2  -7    2.82    1.48
 -10  -2  -7    1.14    1.62
  11  -2   7    5.36    1.79
 -16   3   7   15.22    1.94
 -15   3   7   25.59    2.23
 -14   3   7   32.12    2.32
 -13   3   7   29.48    2.19
  13   3  -7   28.13    1.19
 -12   3   7   30.89    2.17
  12   3  -7   33.10    1.38
 -11   3   7   33.31    2.15
 -11   3   7   34.19    1.99
 -11  -3   7   35.87    2.06
  11   3  -7   35.28    1.59
 -10   3   7   19.06    1.64
 -10   3   7   20.34    1.52
 -10  -3   7   17.24    1.45
  10   3  -7   18.36    1.31
   9   3  -7    6.26    0.75
  -9   3   7    5.94    1.06
  -9   3   7    6.52    1.02
  -9  -3   7    6.23    1.02
   9  -3  -7    7.46    1.27
  -8   3   7    6.32    1.06
   8   3  -7    6.49    0.76
  -8   3   7    6.23    0.98
  -8  -3   7    7.01    1.03
   8  -3  -7    6.29    1.21
   7   3  -7    5.46    0.71
  -7  -3   7    6.87    0.93
   7  -3  -7    5.64    1.13
  -7   3   7    6.65    1.03
  -6   3   7    4.13    0.90
   6  -3  -7    3.14    1.05
  -5   3   7    2.83    0.81
   5   3  -7    3.55    0.66
   5  -3  -7    2.50    0.83
   5  -3  -7    2.84    1.04
   5   3  -7    5.58    0.88
   5  -3  -7    2.10    0.75
   4  -3  -7    7.68    1.04
   4  -3  -7    6.30    1.00
   4   3  -7    8.10    1.10
  -4   3   7    7.26    1.03
   4   3  -7    8.26    0.64
   4   3  -7    7.46    0.90
   3  -3  -7   36.85    1.92
   3  -3  -7   36.03    1.86
   3   3  -7   40.03    1.93
  -3   3   7   36.18    1.91
   3   3  -7   38.54    1.82
   3  -3  -7   34.50    2.33
   3   3  -7   33.84    1.21
   2   3  -7   52.74    1.61
   2  -3  -7   55.56    2.36
   2  -3  -7   55.40    2.36
   2   3  -7   58.83    2.39
   2   3  -7   58.09    2.32
   2  -3  -7   62.23    3.14
   1   3  -7   48.39    1.57
   1  -3  -7   52.93    2.31
   1  -3  -7   53.50    2.31
   1   3  -7   54.20    2.37
   1   3  -7   51.78    2.33
   1  -3  -7   52.16    2.96
   1  -3  -7   48.29    2.43
   0  -3  -7   99.08    3.40
   0  -3  -7   97.72    3.71
   0  -3  -7  102.55    3.43
   0   3  -7  108.41    3.55
   0  -3  -7  102.29    4.35
   0  -3  -7   95.26    3.56
  -1  -3  -7  207.11    5.46
  -1  -3  -7  194.42    5.80
  -1  -3  -7  196.73    6.56
  -1   3  -7  200.48    6.24
  -1  -3  -7  201.57    5.65
  -2  -3  -7  192.92    5.34
   2  -3   7  200.37    5.77
  -2  -3  -7  184.51    5.70
  -2  -3  -7  183.74    6.37
  -2   3  -7  184.16    5.98
  -2  -3  -7  182.61    5.99
  -2  -3  -7  191.44    5.47
   3  -3   7  149.46    5.05
  -3  -3  -7  140.03    4.89
  -3  -3  -7  132.19    5.33
  -3   3  -7  142.09    5.13
  -3  -3  -7  130.59    4.93
  -3  -3  -7  138.79    4.44
  -3  -3  -7  143.24    4.56
  -4  -3  -7  129.63    4.33
   4  -3   7  126.53    4.91
  -4  -3  -7  127.74    4.78
  -4  -3  -7  123.41    4.87
  -4   3  -7  117.17    4.72
  -4  -3  -7  108.93    4.87
  -4  -3  -7  126.05    4.24
  -4  -3  -7  120.00    4.94
  -5  -3  -7  122.54    5.03
   5  -3   7  125.14    5.09
  -5  -3  -7  128.63    4.86
  -5  -3  -7  117.44    5.00
  -5  -3  -7  114.22    4.19
   6  -3   7  107.67    4.91
  -6  -3  -7  106.18    4.75
  -6  -3  -7  106.15    4.51
  -6  -3  -7  103.74    4.65
  -7  -3  -7   42.09    2.91
  -7  -3  -7   47.01    3.25
  -7  -3  -7   47.09    3.10
   7  -3   7   50.70    2.93
  -8  -3  -7   23.31    2.41
  -8  -3  -7   23.29    2.52
  -8  -3  -7   26.40    2.37
   8  -3   7   22.97    2.21
  -9  -3  -7   21.81    2.21
  -9  -3  -7   20.62    2.64
   9  -3   7   19.20    2.19
  10  -3   7    9.60    1.93
 -10  -3  -7   11.02    2.27
 -10  -3  -7   11.89    1.81
  11  -3   7    4.10    1.66
  17   4  -7   -0.07    1.28
  16   4  -7    4.57    1.45
 -15   4   7    1.33    1.27
 -14   4   7    1.10    1.10
  13   4  -7    8.76    0.68
 -13   4   7    8.87    1.42
 -12   4   7   52.01    2.84
  12   4  -7   51.60    1.77
 -11   4   7   26.30    2.02
 -11   4   7   28.17    1.88
 -11  -4   7   29.84    1.93
  11   4  -7   30.34    1.51
 -10   4   7    1.43    0.93
 -10   4   7    0.60    0.89
 -10  -4   7    1.18    0.86
  -9   4   7   13.17    1.41
   9   4  -7   10.80    0.83
  -9   4   7   12.78    1.29
  -9  -4   7   12.58    1.27
  -8   4   7   82.62    3.23
   8   4  -7   85.14    2.36
   8  -4  -7   86.91    3.65
  -8   4   7   81.38    2.90
  -8  -4   7   81.95    2.93
   7   4  -7   16.41    1.00
   7  -4  -7   17.17    1.75
  -7   4   7   13.25    1.34
   6   4  -7   34.21    1.48
   6  -4  -7   37.96    2.48
  -6   4   7   34.56    1.98
   5  -4  -7   30.79    1.80
  -5   4   7   29.82    1.81
   5   4  -7   31.19    1.47
   4   4  -7    0.62    0.67
   4  -4  -7    0.63    0.76
   4  -4  -7   -0.10    0.78
   4   4  -7   -0.22    0.78
   3  -4  -7   12.66    1.68
   3  -4  -7   12.59    1.28
   3  -4  -7   11.18    1.20
   3   4  -7   10.87    1.14
   3   4  -7   12.27    1.13
   2  -4  -7  205.41    6.43
   2  -4  -7  197.36    5.30
   2  -4  -7  196.73    5.22
   2   4  -7  202.51    5.24
   2   4  -7  198.15    5.16
   1  -4  -7  176.34    4.93
   1  -4  -7  175.50    4.87
   1   4  -7  193.64    5.01
   1  -4  -7  164.30    5.22
   1  -4  -7  186.59    6.14
   0  -4  -7   24.99    1.70
   0  -4   7   27.24    1.63
   0  -4  -7   25.61    1.68
   0   4  -7   27.47    1.74
   0  -4  -7   24.78    1.85
   0  -4  -7   27.17    2.32
  -1  -4  -7    5.32    1.08
   1  -4   7    6.49    1.10
  -1  -4  -7    6.51    1.25
  -1  -4  -7    5.38    1.03
  -1  -4  -7    6.72    1.09
  -1  -4  -7    6.82    1.52
  -1   4  -7    6.90    1.11
  -1   4  -7    6.84    1.35
  -1  -4  -7    5.14    1.21
  -2  -4  -7   67.48    2.81
  -2  -4  -7   65.48    3.15
   2  -4   7   68.68    3.16
  -2   4  -7   60.99    3.21
  -2  -4  -7   63.82    3.22
  -2  -4  -7   65.90    3.66
  -2  -4  -7   61.80    3.55
  -2  -4  -7   64.75    2.98
  -3  -4  -7   64.51    3.62
  -3  -4  -7   69.62    2.94
   3  -4   7   65.84    3.38
  -3  -4  -7   71.96    3.38
  -3   4  -7   59.63    3.17
  -3  -4  -7   62.56    3.27
  -3  -4  -7   66.21    3.70
  -3  -4  -7   67.18    3.04
   4  -4   7    0.57    1.06
  -4  -4  -7    0.06    1.05
  -4  -4  -7   -0.26    0.88
  -4  -4  -7   -0.45    1.23
  -4  -4  -7    0.64    1.36
  -4   4  -7    0.83    1.08
  -4  -4  -7    0.40    1.13
   5  -4   7   14.77    2.06
  -5  -4  -7   15.40    1.85
  -5  -4  -7   14.30    2.12
  -5  -4  -7   13.44    1.92
  -6  -4  -7   -0.59    1.60
   6  -4   7   -0.34    1.39
  -6  -4  -7   -0.07    1.13
  -6  -4  -7    0.22    1.22
   7  -4   7    1.49    1.04
  -7  -4  -7    0.51    1.56
  -7  -4  -7    0.43    1.22
  -7  -4  -7    0.78    1.25
   8  -4   7    7.20    1.45
  -8  -4  -7    7.32    1.68
  -8  -4  -7    4.62    1.90
   9  -4   7   19.60    2.15
  -9  -4  -7   18.49    2.11
  -9  -4  -7   19.53    2.79
  10  -4   7    3.59    1.53
 -10  -4  -7    1.96    2.08
  14   5  -7    5.50    1.43
  13   5  -7   18.61    1.85
 -13   5   7   16.63    1.86
  13   5  -7   15.89    0.78
  12   5  -7   15.60    1.66
 -12   5   7   15.90    1.72
  12   5  -7   13.74    0.99
  11   5  -7   10.75    1.38
 -11   5   7   10.16    1.47
 -11  -5   7   11.52    1.40
  10   5  -7   45.10    2.27
 -10   5   7   44.74    2.54
 -10   5   7   48.92    2.32
 -10  -5   7   50.11    2.37
   9   5  -7  143.83    4.13
  -9   5   7  147.95    4.74
   9   5  -7  146.87    3.34
  -9   5   7  150.50    4.29
  -9  -5   7  149.79    4.32
   8   5  -7  164.98    4.18
  -8   5   7  167.78    5.06
   8   5  -7  168.63    3.76
  -7   5   7  109.98    3.82
   7   5  -7  113.28    2.81
   7   5  -7  107.07    2.65
   6   5  -7  162.95    3.90
   6  -5  -7  163.07    5.67
   5   5  -7  360.57    7.55
   4  -5  -7  351.09    9.34
   4  -5  -7  321.67    7.81
   4  -5  -7  332.01    7.58
   4   5  -7  322.97    7.44
   4   5  -7  344.65    7.30
   3  -5  -7  149.67    5.50
   3  -5  -7  132.33    4.16
   3  -5  -7  133.72    4.00
   3   5  -7  135.73    3.96
   3   5  -7  134.87    3.84
  -3   5   7  134.02    4.22
   2  -5  -7   91.99    4.26
   2  -5  -7   82.76    3.12
   2  -5  -7   81.07    2.96
   2   5  -7   85.67    2.98
  -2   5   7   79.09    3.06
   2  -5  -7   78.15    3.43
   1  -5  -7  154.76    5.71
  -1  -5   7  142.29    3.84
   1  -5  -7  149.67    4.46
   1  -5  -7  143.98    4.25
   1   5  -7  143.22    4.16
   0  -5  -7  104.03    4.74
   0  -5  -7  102.36    3.57
   0  -5   7  100.07    3.43
   0  -5  -7   96.96    3.36
   0   5  -7  105.04    3.44
   0   5  -7   95.23    4.04
   0  -5  -7   89.43    4.40
   0  -5  -7   94.96    3.79
  -1  -5  -7   12.93    1.37
   1  -5   7   11.86    1.41
  -1  -5  -7   10.09    1.73
  -1  -5  -7   10.56    1.26
  -1   5  -7   12.25    1.35
  -1  -5  -7   10.81    1.90
  -1   5  -7   13.28    1.59
  -1  -5  -7   10.19    1.46
  -2  -5  -7    1.38    1.05
   2  -5   7    1.50    1.00
  -2  -5  -7    0.72    1.32
  -2  -5  -7    1.03    0.97
  -2  -5  -7    0.56    1.29
  -2   5  -7    1.07    0.88
  -2   5  -7    1.76    1.10
  -2  -5  -7    0.55    1.03
  -3  -5  -7    8.69    1.47
   3  -5   7    7.21    1.50
  -3  -5  -7    7.94    1.18
  -3  -5  -7    7.26    1.79
  -3  -5  -7    6.72    1.75
  -3   5  -7    6.87    1.46
  -3  -5  -7    8.16    1.50
  -4  -5  -7    9.96    1.60
   4  -5   7    8.74    1.72
  -4  -5  -7    7.95    1.71
  -4   5  -7    8.53    1.57
  -4  -5  -7    8.45    1.54
  -4  -5  -7    7.75    1.84
  -5  -5  -7    1.35    1.50
  -5  -5  -7    1.50    1.21
   5  -5   7    0.92    1.31
  -5  -5  -7   -0.31    1.29
  -6  -5  -7    1.09    1.59
  -6  -5  -7    1.03    1.25
  -6  -5  -7    1.36    1.38
  -7  -5  -7    1.68    1.46
  -7  -5  -7    1.37    1.73
   8  -5   7    5.65    1.34
  -8  -5  -7    6.18    2.35
  -8  -5  -7    6.50    1.67
 -12   6   7    5.43    1.38
 -11   6   7    9.89    1.55
 -10   6   7   22.04    1.91
 -10   6   7   23.63    1.68
 -10  -6   7   22.17    1.60
  -9   6   7   17.93    1.72
   8   6  -7    5.61    0.58
  -8   6   7    4.19    1.17
   7   6  -7    6.19    0.66
   6   6  -7    9.44    0.83
   5   6  -7    0.60    0.61
  -5   6   7    0.13    0.86
   4  -6  -7   14.79    2.11
   4   6  -7   12.62    1.11
  -4   6   7   12.63    1.37
   3  -6  -7   21.98    2.46
   3  -6  -7   16.65    1.36
   3   6  -7   17.53    1.32
   3   6  -7   16.42    1.31
  -3   6   7   17.81    1.55
   3  -6  -7   17.87    2.27
  -2  -6   7    7.02    0.72
   2  -6  -7   10.77    2.04
  -2   6   7    6.87    1.17
   2  -6  -7    6.80    1.21
   2  -6  -7    7.95    1.08
   2   6  -7    7.11    1.07
  -1  -6   7   24.17    1.50
   1  -6  -7   26.63    2.72
   1  -6  -7   21.78    1.74
   1  -6  -7   23.16    1.58
   1   6  -7   24.90    1.57
  -1   6   7   22.50    1.68
   0  -6  -7   39.96    3.12
   0  -6  -7   52.42    3.63
   0  -6   7   46.77    2.45
   0  -6  -7   45.97    2.41
   0  -6  -7   48.56    2.24
   0   6  -7   47.63    2.20
   0   6  -7   43.04    2.66
   0  -6  -7   41.14    2.57
  -1  -6  -7   33.02    3.04
  -1  -6  -7   40.86    3.32
   1  -6   7   36.93    2.47
  -1  -6  -7   35.45    2.02
  -1   6  -7   38.78    2.04
  -1   6  -7   37.31    2.46
  -1  -6  -7   33.87    2.34
  -2  -6  -7   10.45    1.60
   2  -6   7    9.07    1.60
  -2  -6  -7    8.84    1.21
  -2   6  -7   10.51    1.30
  -2  -6  -7   10.84    2.16
  -2  -6  -7    7.79    1.85
  -2   6  -7    7.59    1.44
  -2  -6  -7    9.12    1.48
  -3  -6  -7    2.79    1.26
   3  -6   7    4.60    1.49
  -3   6  -7    3.30    1.07
  -3  -6  -7    2.78    1.61
  -3   6  -7    3.43    1.27
  -3  -6  -7    3.18    1.17
  -3  -6  -7    2.61    1.68
  -4  -6  -7    8.33    2.02
  -4  -6  -7    8.69    1.58
   4  -6   7    7.59    1.71
  -4  -6  -7   10.18    2.14
  -4  -6  -7    7.09    1.49
  -5  -6  -7    2.59    1.32
  -5  -6  -7    1.95    1.63
  -5  -6  -7    2.84    1.70
  -6  -6  -7   -0.08    1.43
  -6  -6  -7    0.21    1.68
  -7  -6  -7    2.38    1.62
  -8  -6  -7    0.23    1.64
  13  -7  -7   55.61    4.41
  12  -7  -7   34.93    3.82
  11  -7  -7    8.45    2.87
  10  -7  -7   25.58    3.48
   9  -7  -7   57.46    4.52
   8   7  -7   17.53    0.74
   8  -7  -7   22.41    3.15
   7  -7  -7    2.30    2.03
  -7   7   7    1.36    0.96
   7   7  -7    0.98    0.49
   6  -7  -7    2.23    1.95
  -6   7   7    1.87    0.98
   6   7  -7    1.47    0.58
   5  -7  -7   26.17    2.96
   5   7  -7   23.55    1.30
  -5   7   7   24.09    1.82
   4  -7  -7   14.87    2.45
   4   7  -7   17.61    1.27
  -4   7   7   14.66    1.51
  -3   7   7    2.01    1.02
   3  -7  -7    1.88    1.58
  -2   7   7    1.43    1.01
  -2  -7   7    0.82    0.63
   2  -7  -7    1.80    1.61
   2  -7  -7    1.11    0.81
   2   7  -7    3.25    0.81
   2   7  -7    1.10    1.11
  -1  -7   7   35.39    2.01
   1  -7  -7   41.21    3.39
   1  -7  -7   34.62    1.88
   1   7  -7   36.66    1.88
   1   7  -7   29.86    2.19
   1  -7  -7   30.34    2.15
  -1   7   7   32.04    2.05
   0  -7   7   47.56    2.60
   0  -7  -7   50.51    3.76
   0  -7  -7   42.21    2.10
   0   7  -7   42.71    2.00
   0   7  -7   39.38    2.53
   0  -7  -7   35.47    2.32
   1  -7   7    9.56    1.54
  -1  -7  -7    7.18    1.13
  -1   7  -7    9.37    1.14
  -1   7  -7    6.81    1.45
  -1  -7  -7    6.05    1.26
  -1  -7  -7   12.24    2.30
  -1  -7  -7    6.17    1.94
  -2  -7  -7    9.14    2.16
   2  -7   7   11.00    1.71
  -2  -7  -7   11.29    1.31
  -2   7  -7   10.40    1.27
  -2   7  -7    9.75    1.61
  -2  -7  -7    9.33    1.48
  -2  -7  -7   14.32    2.44
  -3  -7  -7   45.45    3.04
   3  -7   7   41.71    3.07
  -3  -7  -7   52.14    3.95
  -3  -7  -7   46.14    2.36
  -3   7  -7   51.69    2.40
  -3  -7  -7   40.42    3.48
   4  -7   7   50.64    3.43
  -4  -7  -7   60.71    4.09
  -4  -7  -7   51.29    2.57
  -4   7  -7   52.50    2.54
  -5  -7  -7   19.28    2.75
  -6  -7  -7   12.48    2.35
  -7  -7  -7   26.91    2.87
  12  -8  -7   -0.23    2.77
  11  -8  -7    0.63    2.75
  10  -8  -7    5.63    3.03
   9  -8  -7    6.52    2.98
   8  -8  -7   -0.13    2.60
  -7   8   7    2.46    1.14
   7  -8  -7    1.57    2.43
  -6   8   7    6.42    1.28
   6  -8  -7   10.43    2.80
   5   8  -7    4.49    0.81
  -5   8   7    4.18    1.22
   5  -8  -7    4.14    2.33
   4   8  -7    0.05    0.75
  -4   8   7    0.09    0.96
   4  -8  -7   -0.12    1.95
  -3   8   7   -0.13    1.01
   3   8  -7    0.30    0.94
   3  -8  -7    0.46    1.93
  -2   8   7    0.09    0.98
   2   8  -7    0.29    0.96
   2  -8  -7    0.79    1.88
   1  -8  -7   -1.12    1.90
  -1   8   7    0.17    0.97
   1  -8  -7    0.53    0.81
   1   8  -7    1.09    0.99
   0   8  -7    3.09    0.85
   0   8  -7    2.77    1.17
  -1   8  -7    5.98    0.98
  -1   8  -7    5.15    1.38
  -2   8  -7    1.77    0.92
  -3   8  -7    0.30    0.95
  -4   8  -7    1.90    1.04
  -5   8  -7    3.28    1.19
  10  -9  -7    5.50    3.24
   9  -9  -7   12.95    3.67
   8  -9  -7   10.23    3.53
   7  -9  -7    5.82    3.11
   6  -9  -7   14.70    3.39
  -4   9   7   25.82    2.01
  -3   9   7   18.89    1.75
  -2   9   7   22.40    1.87
  -1   9   7   40.56    2.32
 -16   0   8   28.21    2.06
 -15   0   8   50.57    2.72
 -14   0   8   27.47    2.01
  13   0  -8   38.50    1.98
 -13   0   8   33.45    2.14
  12   0  -8  165.67    4.53
 -12   0   8  148.99    4.76
  11   0  -8  250.52    6.15
 -11   0   8  239.31    6.42
 -10   0   8   84.58    3.25
 -10   0   8   90.00    3.38
  10   0  -8   93.92    3.23
   9   0  -8   23.58    1.50
  -9   0   8   23.15    1.62
  -9   0   8   21.12    1.62
   9   0  -8   23.10    1.70
   8   0  -8  115.47    3.41
  -8   0   8  103.46    3.51
   8   0  -8  111.13    3.84
  -8   0   8  108.65    3.67
   7   0  -8  220.34    5.43
   7   0  -8  220.92    6.17
   6   0  -8   26.96    1.60
   6   0  -8   30.15    2.12
   6   0  -8   27.51    1.73
   5   0  -8   21.97    1.46
   5   0  -8   21.98    1.36
   5   0  -8   23.81    2.00
   5   0  -8   21.31    1.60
   4   0  -8    1.87    0.69
   4   0  -8    2.63    0.83
   4   0  -8    2.03    0.88
   3   0  -8   56.35    2.36
   3   0  -8   50.14    2.31
   3   0  -8   54.23    2.48
   3   0  -8   53.15    2.28
   2   0  -8    3.68    0.80
   2   0  -8    4.74    0.98
   2   0  -8    4.38    0.95
   2   0  -8    4.03    1.02
   1   0  -8   34.14    2.09
   1   0  -8   38.15    2.13
   1   0  -8   35.70    1.86
   0   0  -8    6.28    1.16
   0   0  -8    6.12    1.11
   0   0  -8    5.97    0.92
  -1   0  -8   60.95    3.08
  -1   0  -8   63.47    2.85
  -1   0  -8   64.84    2.58
  -2   0  -8   63.98    2.63
  -2   0  -8   62.14    3.26
  -2   0  -8   61.75    3.37
  -2   0  -8   63.57    2.99
  -3   0  -8    3.17    0.95
  -3   0  -8    3.15    1.30
  -4   0  -8   19.05    1.59
  -4   0  -8   17.44    2.15
  -5   0  -8  106.98    4.72
  -6   0  -8   97.29    4.62
  -7   0  -8   22.15    2.06
  -8   0  -8   16.40    1.89
 -17   1   8    0.13    1.04
 -16   1   8    0.36    1.03
 -15  -1   8    3.59    1.03
 -15   1   8    1.39    1.03
 -14  -1   8    3.28    0.98
 -14   1   8    3.41    1.17
 -13  -1   8    1.04    0.85
 -13   1   8    0.36    0.89
  13   1  -8    1.22    0.79
  12   1  -8    8.16    1.08
  12  -1  -8    9.01    1.30
 -12  -1   8    8.73    1.19
 -12   1   8    9.08    1.34
  11   1  -8    4.24    0.60
 -11  -1   8    5.06    1.00
 -11   1   8    3.80    1.03
  11   1  -8    3.86    0.94
  11  -1  -8    5.50    1.15
 -10  -1   8    5.24    1.03
 -10   1   8    7.28    1.16
  10  -1  -8    6.90    1.21
 -10  -1   8    5.94    1.03
  10   1  -8    6.63    1.05
   9  -1  -8   45.31    2.33
   9   1  -8   43.79    1.89
  -9  -1   8   41.58    2.17
   9   1  -8   46.90    2.29
  -9   1   8   43.78    2.29
   8   1  -8   96.13    2.61
   8   1  -8  108.10    3.16
   8  -1  -8  109.24    3.38
  -8  -1   8   98.00    3.39
   8   1  -8  100.78    3.65
  -8   1   8   99.43    3.57
   8  -1  -8  104.81    3.72
   7   1  -8   67.71    2.43
   7  -1  -8   65.91    2.53
   7   1  -8   72.37    3.13
  -7   1   8   64.11    2.71
   7  -1  -8   65.98    2.98
   6   1  -8   21.35    1.39
   6  -1  -8   23.63    1.53
   6   1  -8   18.86    1.16
   6  -1  -8   22.26    1.56
   6  -1  -8   22.63    1.83
  -6   1   8   19.75    1.53
   5   1  -8   43.83    1.96
   5  -1  -8   42.56    2.01
   5   1  -8   42.77    1.88
   5  -1  -8   43.35    2.18
   5  -1  -8   42.06    2.51
   4   1  -8   75.02    2.69
   4  -1  -8   71.10    2.67
   4   1  -8   65.84    2.60
   4  -1  -8   71.37    2.81
   4  -1  -8   71.22    3.38
   3  -1  -8   10.05    1.15
   3   1  -8   10.32    1.17
   3  -1  -8   10.72    1.25
   3   1  -8   10.99    1.04
   3   1  -8   10.88    1.17
   2  -1  -8    9.28    1.14
   2   1  -8   10.35    1.30
   2  -1  -8    8.95    1.16
   2  -1  -8    8.19    1.11
   2   1  -8    8.77    0.97
   2   1  -8    8.92    1.13
   1  -1  -8   11.44    1.25
   1  -1  -8   10.95    1.27
   1   1  -8   13.50    1.53
   1  -1  -8   12.81    1.35
   1  -1  -8   11.37    1.74
   1   1  -8   13.22    1.33
   1  -1  -8   10.90    1.24
   1   1  -8   11.09    1.01
   0  -1  -8    2.66    0.86
   0   1  -8    1.66    0.68
   0   1  -8    1.87    0.90
   0  -1  -8    1.63    0.88
   0  -1  -8    3.92    1.00
   0   1  -8    1.39    1.01
   0  -1  -8    2.81    0.92
  -1   1  -8   20.40    1.40
  -1  -1  -8   20.89    1.82
  -1   1  -8   22.06    2.04
  -1  -1  -8   22.38    1.73
  -1  -1  -8   21.93    1.57
  -2  -1  -8   64.74    2.74
  -2   1  -8   62.15    2.46
  -2  -1  -8   58.47    3.05
  -2   1  -8   61.78    3.40
  -2  -1  -8   61.71    3.34
  -2  -1  -8   59.03    2.81
  -3  -1  -8   50.84    2.47
  -3  -1  -8   50.68    2.90
  -3   1  -8   53.61    3.30
  -4  -1  -8   14.26    1.47
  -4  -1  -8   12.59    1.74
  -5  -1  -8    8.61    1.35
  -5  -1  -8    9.50    1.73
  -6  -1  -8   15.24    2.09
  -6  -1  -8   14.16    1.88
  -7   1  -8    7.10    1.42
  -7  -1  -8    8.64    1.80
  -7  -1  -8    6.12    1.61
  -8  -1  -8    0.17    1.48
  -8  -1  -8   -0.20    1.35
 -16   2   8    4.84    1.45
 -15   2   8    6.47    1.44
 -14  -2   8    0.45    0.80
 -14   2   8    0.53    1.03
  14   2  -8    1.09    0.70
 -13   2   8    0.61    1.02
  13   2  -8    0.71    0.74
  12   2  -8   12.61    1.10
 -12   2   8   11.81    1.52
  11  -2  -8   27.03    1.92
  11   2  -8   25.61    1.57
 -11   2   8   23.55    1.84
  10   2  -8    6.10    1.08
 -10  -2   8    6.65    1.15
  10  -2  -8    6.83    1.25
 -10   2   8    7.27    1.27
   9   2  -8    2.61    0.94
  -9   2   8    2.46    0.95
   9   2  -8    3.88    0.82
   9  -2  -8    3.39    1.13
  -9   2   8    3.78    0.95
  -9  -2   8    2.76    0.89
   8  -2  -8   54.42    2.70
   8   2  -8   55.37    2.10
   8  -2  -8   55.93    2.41
  -8   2   8   53.21    2.55
   7   2  -8  166.35    4.29
   7  -2  -8  178.73    4.76
  -7   2   8  167.27    4.99
   7  -2  -8  170.66    5.23
   6   2  -8  120.25    3.45
   6  -2  -8  129.15    3.85
   6  -2  -8  116.68    3.80
  -6   2   8  116.27    3.89
   6  -2  -8  123.74    4.39
   5   2  -8   77.30    2.66
   5  -2  -8   76.05    2.97
   5   2  -8   76.35    2.96
  -5   2   8   72.42    2.94
   5  -2  -8   81.56    3.51
   4  -2  -8  202.53    5.46
   4   2  -8  207.05    5.49
   4   2  -8  192.03    4.77
   4   2  -8  211.77    5.20
   3  -2  -8  380.78    8.80
   3  -2  -8  399.35    9.04
   3   2  -8  422.44    9.15
   3   2  -8  376.24    8.13
   3   2  -8  415.51    8.82
   2  -2  -8  282.06    6.78
   2  -2  -8  260.20    6.93
   2  -2  -8  275.30    6.88
   2   2  -8  293.87    7.02
   2  -2  -8  268.84    7.91
   2  -2  -8  261.03    6.93
   2   2  -8  289.87    6.76
   2   2  -8  264.82    5.99
   1   2  -8  135.37    3.62
   1  -2  -8  141.50    4.32
   1  -2  -8  128.43    4.38
   1  -2  -8  141.75    4.43
   1   2  -8  152.22    4.57
   1  -2  -8  142.63    5.36
   1   2  -8  153.01    4.46
   1  -2  -8  133.34    4.36
   0  -2  -8  137.32    4.36
   0   2  -8  135.07    3.70
   0  -2  -8  133.40    4.57
   0  -2  -8  143.34    4.49
   0   2  -8  153.35    4.66
   0  -2  -8  136.22    5.39
   0   2  -8  146.01    4.45
   0  -2  -8  137.82    4.44
  -1   2  -8  204.69    5.11
  -1  -2  -8  201.12    6.12
  -1  -2  -8  199.97    6.96
  -1   2  -8  227.15    6.11
  -1  -2  -8  209.18    5.80
  -1  -2  -8  217.85    5.89
  -2  -2  -8  127.65    4.65
  -2  -2  -8  123.16    5.28
  -2   2  -8  119.85    4.82
  -2  -2  -8  120.34    4.83
  -2  -2  -8  127.41    4.24
  -3  -2  -8   23.21    1.83
  -3  -2  -8   24.02    2.10
  -3  -2  -8   20.14    2.23
  -4  -2  -8   18.03    1.92
  -4  -2  -8   17.29    2.17
  -5  -2  -8   32.98    2.56
  -5  -2  -8   32.40    2.80
  -5  -2  -8   31.49    2.58
  -6  -2  -8   16.87    2.10
  -6  -2  -8   15.26    1.97
  -6  -2  -8   16.13    2.22
  -7  -2  -8    2.05    1.55
  -7  -2  -8    1.97    1.46
  -7  -2  -8    1.68    1.55
  -8  -2  -8    0.44    1.46
  -8  -2  -8    0.79    1.43
  -9  -2  -8    5.41    1.85
 -15   3   8   -0.54    1.32
 -14   3   8    1.14    1.22
  14   3  -8    1.43    0.64
 -13   3   8    3.19    1.27
  13   3  -8    4.05    0.75
 -12   3   8    8.25    1.45
  12   3  -8    8.17    1.00
 -11   3   8    6.03    1.26
  11   3  -8    5.30    0.98
  10  -3  -8   34.81    2.34
  10   3  -8   34.00    1.95
 -10   3   8   30.11    2.07
  -9   3   8    2.42    1.04
   9   3  -8    2.27    0.73
  -9   3   8    1.61    0.84
  -9  -3   8    1.62    0.82
   9  -3  -8    2.58    1.14
  -8   3   8    2.76    0.99
   8   3  -8    2.40    0.71
   8  -3  -8    2.65    1.10
   7  -3  -8   17.77    1.80
   7   3  -8   16.51    1.17
  -7   3   8   19.62    1.60
   6  -3  -8  107.25    4.13
   6   3  -8  105.82    3.11
  -6   3   8  102.28    3.71
   5   3  -8   21.02    1.36
   5  -3  -8   16.37    1.49
   5  -3  -8   20.29    1.56
   5   3  -8   20.91    1.59
  -5   3   8   17.52    1.51
   5  -3  -8   21.18    1.96
   4  -3  -8    7.60    1.14
  -4   3   8    5.68    1.09
   4  -3  -8    6.88    1.08
   4   3  -8    5.29    1.07
   4   3  -8    5.56    0.62
   4   3  -8    7.15    0.99
   3   3  -8    1.40    0.46
   3   3  -8    1.06    0.83
   3  -3  -8    2.20    0.92
   3  -3  -8    1.73    1.20
   3  -3  -8    0.97    0.87
   3   3  -8    1.17    0.88
   2   3  -8   54.33    1.75
   2  -3  -8   56.20    2.54
   2  -3  -8   57.84    2.57
   2   3  -8   59.90    2.65
   2  -3  -8   59.39    3.32
   2   3  -8   60.01    2.56
   2  -3  -8   53.06    2.70
   1  -3  -8    4.13    1.04
   1   3  -8    5.35    1.10
   1  -3  -8    3.26    1.03
   1  -3  -8    3.44    0.97
   1  -3  -8    5.65    1.41
   1  -3  -8    4.69    1.04
   1   3  -8    4.73    1.12
   0  -3  -8   40.53    2.23
   0  -3  -8   38.37    2.35
   0  -3  -8   42.07    2.28
   0   3  -8   46.35    2.39
   0   3  -8   40.79    2.33
   0  -3  -8   39.83    2.89
   0  -3  -8   38.79    2.29
  -1  -3  -8   12.03    1.38
  -1  -3  -8    8.92    1.38
  -1  -3  -8    9.58    1.30
  -1  -3  -8    9.21    1.70
  -1   3  -8   12.35    1.49
  -1   3  -8    9.97    1.62
  -1  -3  -8   10.14    1.64
  -1  -3  -8   11.17    1.40
  -2  -3  -8    2.61    1.05
  -2  -3  -8    2.87    1.14
  -2  -3  -8    3.74    1.39
  -2   3  -8    1.97    1.26
  -2  -3  -8    3.17    1.24
  -3  -3  -8    0.82    1.05
  -3  -3  -8    0.73    1.22
  -4  -3  -8   22.63    2.14
  -4  -3  -8   19.66    2.28
  -4  -3  -8   22.53    2.34
  -5  -3  -8   14.72    2.16
   5  -3   8   17.16    2.07
  -5  -3  -8   14.99    1.91
  -5  -3  -8   16.91    2.19
  -6  -3  -8   -0.36    1.35
  -6  -3  -8    0.08    1.39
  -6  -3  -8    0.79    1.46
  -7  -3  -8    0.73    1.57
  -7  -3  -8    0.71    1.44
  -8  -3  -8    4.17    1.75
  -8  -3  -8    2.20    1.52
  -9  -3  -8    5.67    1.74
  -9  -3  -8    2.48    1.85
 -14   4   8   15.06    1.91
 -13   4   8   25.75    2.25
  13   4  -8   26.65    1.31
 -12   4   8   29.01    2.28
  12   4  -8   30.82    1.60
 -11   4   8   30.39    2.24
  11   4  -8   35.12    1.86
 -10   4   8   48.19    2.66
   9   4  -8   78.86    2.39
   9  -4  -8   84.22    3.73
  -9   4   8   74.70    3.26
   8   4  -8   67.49    2.22
   8  -4  -8   71.59    3.45
  -8   4   8   63.50    2.98
   7   4  -8   60.22    2.13
  -7   4   8   61.79    2.83
   6   4  -8   76.91    2.54
   6  -4  -8   82.48    3.73
  -6   4   8   75.15    3.14
   5  -4  -8   89.56    3.27
   5  -4  -8   89.67    3.19
   5   4  -8   86.60    3.11
  -5   4   8   87.41    3.35
   5   4  -8   78.28    1.89
   5   4  -8   88.86    2.82
   4  -4  -8   70.77    2.90
   4  -4  -8   69.45    2.87
   4   4  -8   68.91    2.80
  -4   4   8   60.98    2.81
   4   4  -8   69.67    2.57
   3  -4  -8   43.62    2.89
   3  -4  -8   43.40    2.29
   3  -4  -8   40.94    2.20
   3   4  -8   43.02    2.20
   3   4  -8   42.88    2.10
   2  -4  -8   41.79    2.91
   2  -4  -8   39.72    2.21
   2  -4  -8   38.76    2.15
   2   4  -8   40.62    2.21
   2   4  -8   35.98    1.99
   2  -4  -8   31.99    2.20
   1  -4  -8   53.73    2.54
   1   4  -8   54.44    2.59
   1   4  -8   52.34    2.50
   1  -4  -8   47.40    2.61
   1  -4  -8   54.34    3.34
   0  -4  -8   35.45    2.37
   0  -4  -8   35.46    2.10
   0   4  -8   36.79    2.20
   0  -4  -8   33.69    2.81
  -1  -4  -8   15.69    1.75
  -1  -4  -8   15.52    1.56
  -1   4  -8   15.35    1.60
  -1   4  -8   14.30    1.84
  -1  -4  -8   13.91    1.79
  -1  -4  -8   16.92    2.17
  -2  -4  -8   15.42    1.80
  -2  -4  -8   10.65    1.81
  -2  -4  -8   11.81    1.97
  -3  -4  -8   21.58    2.32
   3  -4   8   25.44    2.14
  -3  -4  -8   21.08    2.05
  -3  -4  -8   19.62    2.33
  -4  -4  -8   25.86    2.62
   4  -4   8   24.52    2.31
  -4  -4  -8   20.92    2.13
  -4  -4  -8   23.14    2.46
  -5  -4  -8    9.25    1.74
  -5  -4  -8    9.15    1.85
  -5  -4  -8   10.35    2.00
  -6  -4  -8    5.13    1.83
  -6  -4  -8    6.59    1.66
  -6  -4  -8    5.97    1.76
  -7  -4  -8   10.71    2.14
  -7  -4  -8   13.15    2.07
  -8  -4  -8   14.53    2.17
  12   5  -8   -0.08    0.77
 -12   5   8   -0.30    1.15
 -11   5   8    5.85    1.35
 -10   5   8   14.36    1.65
  -9   5   8    0.66    1.02
   9   5  -8    0.91    0.58
  -8   5   8    1.45    0.99
   8   5  -8    1.17    0.64
   8  -5  -8    2.08    1.41
  -7   5   8    4.68    1.16
   7   5  -8    2.92    0.72
   7  -5  -8    2.32    1.38
   6   5  -8   13.71    1.11
   6  -5  -8   14.72    1.99
  -6   5   8   13.56    1.51
   5   5  -8   -0.03    0.70
   4  -5  -8   19.17    2.22
   4  -5  -8   17.20    1.50
   4   5  -8   17.88    1.51
   4   5  -8   17.07    1.35
  -3   5   8    4.52    1.14
   3   5  -8    3.34    1.00
   3  -5  -8    5.02    1.58
   3  -5  -8    4.67    1.08
   3   5  -8    5.02    1.13
   2   5  -8    1.54    0.99
   2  -5  -8    2.05    1.44
   2  -5  -8    1.03    0.86
   2   5  -8    2.80    0.98
   1  -5  -8    4.23    1.57
   1  -5  -8    2.51    1.03
   1   5  -8    2.89    1.06
   0  -5  -8   34.61    2.96
   0  -5  -8   31.97    2.04
   0   5  -8   36.32    2.12
   0   5  -8   33.72    2.52
   0  -5  -8   27.85    2.28
   0  -5  -8   27.63    2.60
  -1  -5  -8    6.59    1.66
   1  -5   8    7.41    1.21
  -1  -5  -8    7.63    1.48
  -1  -5  -8    6.98    1.84
  -1  -5  -8    7.13    1.22
  -1   5  -8    7.07    1.30
  -1   5  -8    6.00    1.38
  -1  -5  -8    5.03    1.34
   2  -5   8   -0.17    0.95
  -2  -5  -8   -0.32    1.11
  -2  -5  -8   -0.17    1.34
  -2  -5  -8   -0.61    1.43
  -2  -5  -8   -0.59    0.99
  -2   5  -8    0.28    1.13
   3  -5   8    1.40    1.20
  -3  -5  -8    1.88    1.17
  -3  -5  -8    0.43    1.41
  -3  -5  -8    0.81    1.49
   4  -5   8    6.93    1.66
  -4  -5  -8    6.40    1.55
  -4  -5  -8    4.70    1.69
  -4  -5  -8    7.18    1.90
  -5  -5  -8    0.55    1.60
  -5  -5  -8    1.34    1.49
  -6  -5  -8    1.88    1.65
  -7  -5  -8    1.02    1.59
 -10   6   8   30.27    2.25
  -9   6   8   45.61    2.61
   9   6  -8   42.71    1.50
   8   6  -8   12.62    0.91
  -8   6   8   11.37    1.50
   7   6  -8    2.63    0.70
   6   6  -8   12.14    1.07
  -5   6   8   28.28    2.02
   5   6  -8   28.51    1.56
  -4   6   8    6.51    1.23
   4   6  -8    6.73    1.06
   4  -6  -8    7.69    1.92
  -3   6   8    2.40    1.06
   3   6  -8    0.51    0.89
   3  -6  -8    3.47    1.71
   3  -6  -8    2.26    0.98
   3   6  -8    1.53    0.89
   2   6  -8    4.44    1.14
   2  -6  -8    4.90    1.94
   2  -6  -8    5.29    1.16
   2   6  -8    5.61    1.13
   1  -6  -8   39.93    3.34
   1  -6  -8   35.87    2.07
   1   6  -8   33.52    2.02
   1   6  -8   32.30    2.45
   1  -6  -8   30.04    2.84
   0  -6  -8   18.85    2.40
   0  -6   8   23.74    1.68
   0  -6  -8   27.67    2.94
   0  -6  -8   23.09    1.75
   0   6  -8   24.40    1.78
   0   6  -8   21.03    2.04
   0  -6  -8   21.83    2.07
  -1  -6  -8    4.03    1.31
   1  -6   8    4.29    1.13
  -1  -6  -8    4.57    1.80
  -1  -6  -8    4.27    1.87
  -1  -6  -8    5.29    1.19
  -1   6  -8    3.72    1.12
  -1  -6  -8    3.86    1.27
  -2  -6  -8   12.76    1.79
   2  -6   8   13.44    1.75
  -2  -6  -8   12.73    1.51
  -2   6  -8   12.28    1.55
  -2  -6  -8   14.13    2.42
  -2  -6  -8   10.01    2.14
  -3  -6  -8   54.29    3.95
  -3  -6  -8   52.18    3.24
   3  -6   8   54.06    3.26
  -3  -6  -8   43.82    3.58
  -3  -6  -8   50.92    2.68
  -3   6  -8   56.04    2.81
  -4  -6  -8   45.28    3.50
   4  -6   8   39.51    3.05
  -4   6  -8   45.00    2.61
  -5  -6  -8   12.01    2.28
   7  -7  -8    9.59    2.57
  -7   7   8    8.79    1.45
   6   7  -8    8.59    0.94
   6  -7  -8   11.67    2.51
  -6   7   8    9.64    1.40
   5  -7  -8    6.05    2.17
  -5   7   8    4.60    1.28
   5   7  -8    5.01    0.89
  -4   7   8    0.49    1.05
   4   7  -8    0.61    0.85
   4  -7  -8   -0.10    1.71
   3   7  -8   -0.17    0.91
  -3   7   8   -0.05    1.01
   3  -7  -8    1.92    1.79
  -2   7   8    0.75    1.00
   2  -7  -8    1.64    1.78
   2  -7  -8    1.29    0.94
   2   7  -8    1.84    0.92
   2  -7  -8    2.60    1.92
   2   7  -8    0.92    1.15
   1  -7  -8    4.90    1.14
   1   7  -8    5.62    1.16
   1  -7  -8    5.26    2.12
   1   7  -8    3.08    1.27
   0  -7  -8    9.43    1.29
   0   7  -8    8.09    1.24
   0  -7  -8    8.70    2.11
   0  -7  -8    8.64    2.37
   0   7  -8    5.02    1.46
  -1  -7  -8   13.23    1.48
  -1   7  -8   11.67    1.40
  -1  -7  -8   15.82    2.73
  -2   7  -8   10.86    1.40
  -2  -7  -8    9.80    1.42
  -3  -7  -8    5.16    1.31
  -3   7  -8    5.34    1.33
  -4  -7  -8    3.64    1.26
  -4   7  -8    4.37    1.36
  -5  -7  -8    3.31    1.30
  -5   7  -8    2.57    1.35
  12  -8  -8    1.03    3.12
  11  -8  -8    0.93    2.84
  10  -8  -8    6.32    3.18
   9  -8  -8   24.43    3.82
   8  -8  -8   17.21    3.54
   7  -8  -8   18.02    3.47
   6  -8  -8   47.42    4.50
  -3   8   8   41.64    2.51
  -2   8   8   68.56    3.16
   1   8  -8   81.58    2.92
   0   8  -8   45.48    2.20
  -1   8  -8   16.84    1.50
  -2   8  -8   14.58    1.49
 -15   0   9    1.09    1.05
 -14   0   9   -0.17    0.94
  14   0  -9    0.46    0.95
 -13   0   9    0.11    0.96
  13   0  -9   -0.12    0.96
 -12   0   9    0.92    1.02
  12   0  -9    0.47    0.99
 -11   0   9    0.69    0.97
  11   0  -9   -0.28    0.96
 -10   0   9   -0.19    0.87
  10   0  -9   -0.26    0.99
   9   0  -9    0.61    0.95
   9   0  -9    0.30    0.88
   8   0  -9    0.35    1.02
   8   0  -9   -0.03    0.87
   7   0  -9    0.44    0.62
   7   0  -9   -0.22    1.08
   7   0  -9    0.58    0.82
   6   0  -9   -0.13    0.60
   6   0  -9   -0.23    1.06
   6   0  -9   -0.24    0.79
   6   0  -9    1.81    0.94
   5   0  -9    0.18    0.66
   5   0  -9    0.06    1.10
   5   0  -9   -0.38    0.85
   5   0  -9    0.32    0.96
   4   0  -9    1.96    0.84
   4   0  -9    0.27    1.10
   4   0  -9    0.04    0.74
   4   0  -9   -0.07    0.85
   4   0  -9   -0.04    0.82
   3   0  -9    0.97    0.78
   3   0  -9    0.60    0.85
   3   0  -9    1.05    0.85
   3   0  -9    0.59    0.94
   2   0  -9    0.11    0.72
   2   0  -9    1.14    0.90
   2   0  -9    0.24    0.89
   2   0  -9    0.28    0.92
   1   0  -9    0.40    0.73
   1   0  -9    0.16    0.86
   1   0  -9    0.34    0.94
   0   0  -9    0.19    0.77
   0   0  -9    0.17    1.04
   0   0  -9   -0.25    1.02
  -1   0  -9   -0.08    0.83
  -1   0  -9    0.39    1.08
  -1   0  -9    0.88    1.08
  -2   0  -9    1.01    0.90
  -2   0  -9   -0.56    1.24
  -3   0  -9   -0.04    0.86
  -3   0  -9   -0.37    1.33
  -4   0  -9    0.53    1.41
  -5   0  -9    0.73    1.41
  -6   0  -9    0.25    1.27
 -16   1   9   16.14    1.86
 -15   1   9   12.19    1.62
 -14  -1   9    3.72    1.12
 -14   1   9    3.94    1.26
  14   1  -9    3.29    1.02
 -13  -1   9    6.35    1.20
 -13   1   9    6.48    1.32
  13   1  -9    5.49    1.07
  13  -1  -9    7.05    1.34
  12   1  -9   32.34    1.89
  12  -1  -9   36.41    2.24
 -12   1   9   36.57    2.35
  11  -1  -9   43.84    2.39
 -11   1   9   43.64    2.53
  11   1  -9   43.01    2.25
 -10   1   9    3.34    1.10
  10   1  -9    3.67    1.08
  10   1  -9    3.28    0.93
  10  -1  -9    3.97    1.16
  -9   1   9    4.06    1.07
   9   1  -9    3.52    0.57
   9   1  -9    4.45    1.16
   9   1  -9    4.07    0.93
   9  -1  -9    4.44    1.24
   9  -1  -9    5.14    1.10
   8   1  -9   66.65    2.53
   8  -1  -9   66.64    2.67
   8   1  -9   63.03    3.01
  -8   1   9   63.65    2.90
   8  -1  -9   62.55    3.02
   7   1  -9   83.89    2.92
   7  -1  -9   85.86    3.10
   7   1  -9   84.61    3.64
   7  -1  -9   85.47    3.65
   6   1  -9   17.73    1.40
   6  -1  -9   19.67    1.56
   6   1  -9   15.97    1.20
   6  -1  -9   18.90    1.64
   6  -1  -9   20.23    1.95
   5   1  -9   16.43    1.39
   5  -1  -9   15.91    1.43
   5  -1  -9   14.36    1.33
   5   1  -9   15.22    1.30
   5  -1  -9   14.70    1.57
   5  -1  -9   13.18    1.75
   4   1  -9  103.75    3.43
   4  -1  -9   99.78    3.44
   4  -1  -9   93.09    3.42
   4   1  -9   95.30    3.48
   4  -1  -9  103.03    3.70
   4  -1  -9  103.86    4.36
   4   1  -9   93.72    3.17
   3   1  -9  177.97    4.89
   3  -1  -9  154.95    4.90
   3   1  -9  167.43    5.17
   3  -1  -9  179.57    5.19
   3  -1  -9  166.68    4.98
   3   1  -9  164.01    4.51
   2  -1  -9   55.24    2.72
   2   1  -9   57.29    2.93
   2  -1  -9   55.03    2.70
   2  -1  -9   51.21    2.49
   2   1  -9   50.71    2.21
   2   1  -9   58.59    2.63
   1  -1  -9   24.73    2.00
   1   1  -9   26.20    2.16
   1  -1  -9   25.93    1.97
   1  -1  -9   22.73    2.39
   1  -1  -9   22.55    1.69
   1   1  -9   24.43    1.52
   0   1  -9  108.66    3.47
   0  -1  -9  106.73    4.18
   0   1  -9  115.65    4.62
   0  -1  -9  118.96    4.19
   0  -1  -9  105.51    5.04
   0  -1  -9  111.42    3.82
  -1   1  -9  137.66    4.09
  -1  -1  -9  131.73    4.89
  -1   1  -9  147.66    5.46
  -1  -1  -9  147.82    4.86
  -1  -1  -9  138.40    4.41
  -2  -1  -9   51.21    2.57
  -2   1  -9   51.44    2.33
  -2  -1  -9   54.47    3.08
  -2   1  -9   56.56    3.39
  -3  -1  -9   13.74    1.53
  -3  -1  -9   13.83    1.86
  -4  -1  -9   29.77    2.61
  -5  -1  -9   50.66    3.37
  -6  -1  -9   17.41    2.10
  -6  -1  -9   15.70    2.18
  -7  -1  -9    3.02    1.61
 -15   2   9   -0.59    1.19
 -14   2   9    0.76    1.22
  14   2  -9    0.97    0.89
  13   2  -9   11.56    1.19
 -13   2   9   11.60    1.66
 -12   2   9    7.19    1.44
  12  -2  -9    8.55    1.53
  12   2  -9    6.90    1.16
 -11   2   9    1.35    1.00
  11   2  -9    1.39    0.97
  11  -2  -9    2.31    1.24
 -10   2   9    3.87    1.14
  10   2  -9    4.38    1.14
  10   2  -9    2.83    0.89
  10  -2  -9    3.18    1.23
  -9   2   9    1.99    1.01
   9   2  -9    3.09    1.09
   9   2  -9    1.26    0.80
   9  -2  -9    1.10    1.06
  -8   2   9    0.14    0.88
   8   2  -9    0.65    0.77
   8  -2  -9    0.53    1.10
   7   2  -9   30.28    1.68
  -7   2   9   27.89    1.96
   7  -2  -9   30.72    2.28
   6   2  -9   57.76    2.31
   6  -2  -9   53.69    2.58
   6   2  -9   55.27    2.62
   6  -2  -9   55.52    3.07
   5   2  -9    8.81    1.13
   5  -2  -9    9.21    1.57
   5  -2  -9   10.13    1.32
   5   2  -9    9.82    1.34
   5   2  -9    7.52    0.94
   4   2  -9    2.27    0.69
   4   2  -9    2.45    0.89
   4  -2  -9    1.35    0.96
   4   2  -9    2.21    1.02
   3  -2  -9   34.92    2.19
   3  -2  -9   38.22    2.25
   3   2  -9   38.70    2.30
   3  -2  -9   35.43    2.20
   3   2  -9   34.63    1.64
   3   2  -9   35.69    2.01
   2  -2  -9   50.73    2.66
   2  -2  -9   53.99    2.68
   2   2  -9   56.62    2.78
   2  -2  -9   53.52    3.33
   2  -2  -9   49.04    2.54
   2   2  -9   51.94    2.47
   2   2  -9   48.77    1.97
   1  -2  -9    5.68    1.24
   1   2  -9    4.04    0.76
   1  -2  -9    4.69    1.07
   1  -2  -9    6.39    1.57
   1  -2  -9    5.78    1.23
   1   2  -9    4.60    1.28
   0  -2  -9    3.40    1.05
   0   2  -9    3.64    0.77
   0  -2  -9    3.04    1.13
   0  -2  -9    1.40    1.32
   0  -2  -9    4.17    1.21
   0   2  -9    4.48    1.27
  -1  -2  -9    0.79    0.98
  -1  -2  -9   -0.73    1.05
  -1  -2  -9    0.26    1.29
  -1  -2  -9    0.20    0.99
  -1   2  -9   -0.32    1.11
  -2  -2  -9    3.98    1.55
  -2  -2  -9    6.70    1.47
  -3  -2  -9    1.45    1.51
  -3  -2  -9    2.19    1.23
  -4  -2  -9   19.04    2.14
  -4  -2  -9   19.30    2.41
  -5  -2  -9    6.12    1.70
  -5  -2  -9    6.74    1.85
  -5  -2  -9    6.12    1.62
  -6  -2  -9    0.09    1.53
  -6  -2  -9    0.76    1.49
  -7  -2  -9    1.81    1.54
 -14   3   9   16.46    1.94
  13   3  -9   28.15    1.59
 -13   3   9   28.69    2.35
  12   3  -9   56.19    2.37
 -12   3   9   53.43    3.03
  11  -3  -9   91.45    3.89
  11   3  -9   88.33    3.23
 -11   3   9   80.72    3.64
  10   3  -9   82.71    2.73
  10   3  -9   89.81    3.43
 -10   3   9   84.24    3.61
   9  -3  -9  114.88    4.36
   9   3  -9  110.39    3.25
  -9   3   9  102.57    4.00
   8  -3  -9  139.51    5.00
   8   3  -9  146.28    3.91
  -8   3   9  135.32    4.68
   7  -3  -9  121.01    4.68
   7   3  -9  121.59    3.54
  -7   3   9  121.18    4.26
   6  -3  -9   92.60    4.06
   6   3  -9   94.55    3.05
  -6   3   9   89.64    3.56
   5   3  -9   74.23    2.71
   5  -3  -9   69.16    3.00
   5   3  -9   72.49    3.06
   5   3  -9   63.11    2.11
   5  -3  -9   73.15    3.63
   4  -3  -9   57.39    2.66
   4   3  -9   59.74    2.80
   4   3  -9   58.79    2.42
   3   3  -9   31.71    1.36
   3  -3  -9   33.15    2.14
   3   3  -9   37.82    2.29
   3  -3  -9   32.09    2.21
   3  -3  -9   27.61    2.60
   3   3  -9   37.39    2.02
   2   3  -9    8.33    0.79
   2  -3  -9    7.78    1.27
   2  -3  -9    7.64    1.35
   2  -3  -9    8.80    1.69
   2  -3  -9    8.91    1.37
   2   3  -9    8.23    1.41
   2   3  -9    8.58    1.24
   1  -3  -9    3.07    1.09
   1  -3  -9    3.06    1.44
   1  -3  -9    3.75    1.19
   1   3  -9    3.13    1.22
   0  -3  -9    4.70    1.29
   0  -3  -9    5.14    1.66
   0  -3  -9    5.92    1.29
   0   3  -9    4.62    1.33
  -1  -3  -9    3.00    1.20
  -1  -3  -9    1.72    1.39
  -1  -3  -9    2.47    1.08
  -1   3  -9    3.43    1.29
  -2  -3  -9    2.57    1.22
  -2  -3  -9    1.42    1.42
  -2  -3  -9    1.16    1.12
  -2   3  -9    0.55    1.15
  -3  -3  -9    0.14    1.09
  -3  -3  -9    1.08    1.41
  -4  -3  -9    1.97    1.57
  -4  -3  -9    4.40    1.53
  -4  -3  -9    2.91    1.51
  -5  -3  -9    8.34    1.71
  -5  -3  -9    9.94    2.06
  -5  -3  -9    8.54    1.97
  -6  -3  -9    6.18    1.85
  13   4  -9    0.69    0.79
 -12   4   9    2.66    1.32
  12   4  -9    1.88    0.98
  11   4  -9   15.27    1.53
 -11   4   9   13.41    1.74
  10   4  -9    6.50    0.89
 -10   4   9    5.65    1.35
  10  -4  -9    7.84    1.67
  -9   4   9    6.78    1.33
   9   4  -9    5.75    0.90
   9  -4  -9    5.09    1.55
   8   4  -9   16.37    1.25
   8  -4  -9   21.31    2.22
  -8   4   9   18.01    1.75
  -7   4   9    2.32    1.11
   7   4  -9    1.16    0.81
   7  -4  -9    1.88    1.44
  -6   4   9    3.22    1.12
   6   4  -9    3.94    0.90
   6  -4  -9    3.60    1.46
   5  -4  -9   61.96    2.84
   5   4  -9   63.69    2.81
  -5   4   9   61.44    2.92
   5   4  -9   62.94    2.51
   4  -4  -9   96.63    3.68
   4   4  -9   95.10    3.58
   4   4  -9   92.86    3.27
   3  -4  -9   19.47    2.25
   3  -4  -9   20.04    1.76
   3   4  -9   20.37    1.79
   3   4  -9   17.12    1.53
   2  -4  -9    5.10    1.61
   2  -4  -9    3.57    1.15
   2   4  -9    6.25    1.30
   1  -4  -9   25.13    2.13
   1  -4  -9   25.61    1.97
   1   4  -9   25.70    2.01
   1  -4  -9   20.74    2.44
   0  -4  -9   30.90    2.33
   0  -4  -9   33.20    2.20
   0   4  -9   36.37    2.35
   0  -4  -9   34.69    3.02
  -1  -4  -9    1.34    1.13
  -1  -4  -9   -0.09    1.63
  -1  -4  -9    0.25    1.14
  -1   4  -9    0.85    1.11
  -2  -4  -9   11.18    1.70
  -2  -4  -9   11.41    1.65
  -2   4  -9   13.16    1.76
  -2  -4  -9    9.88    2.09
  -2  -4  -9   14.18    2.18
  -3  -4  -9    2.58    1.61
  -3  -4  -9    2.35    1.31
  -3  -4  -9    0.46    1.57
  -3   4  -9    0.86    1.28
  -4  -4  -9    0.59    1.38
  -4  -4  -9    0.35    1.57
  -4  -4  -9   -0.55    1.72
  12   5  -9    0.07    1.00
 -10   5   9    5.23    1.37
  -9   5   9    4.30    1.24
   9   5  -9    3.51    0.84
  -8   5   9    1.48    1.10
   8   5  -9    1.67    0.77
   8  -5  -9    1.59    1.52
  -7   5   9    2.10    1.12
   7   5  -9    1.93    0.77
   7  -5  -9    2.56    1.55
   6   5  -9   12.37    1.20
   6  -5  -9   12.20    2.06
  -6   5   9   11.86    1.50
   5   5  -9   31.13    1.77
   4  -5  -9   17.25    2.27
   4  -5  -9   15.13    1.60
   4   5  -9   15.79    1.55
   4   5  -9   13.46    1.39
   3  -5  -9   18.58    2.41
   3  -5  -9   17.03    1.72
   3   5  -9   17.24    1.74
   3   5  -9   16.96    1.59
   2  -5  -9   76.50    4.32
   2  -5  -9   67.76    3.07
   2   5  -9   70.46    3.06
   1  -5  -9  120.51    5.60
   1  -5  -9  107.98    4.50
   1  -5  -9  108.35    4.03
   1   5  -9  119.37    4.13
   0  -5  -9   80.13    4.61
   0  -5  -9   69.43    3.66
   0  -5  -9   80.62    3.37
   0   5  -9   80.41    3.42
   0  -5  -9   67.97    4.09
  -1  -5  -9   56.99    3.92
  -1  -5  -9   47.97    3.06
  -1  -5  -9   49.44    2.72
  -1   5  -9   52.87    2.84
  -1  -5  -9   41.90    3.33
  -2  -5  -9   62.74    4.11
  -2  -5  -9   55.87    3.75
  -2  -5  -9   57.93    3.43
  -2  -5  -9   67.08    3.19
  -2   5  -9   69.72    3.29
  -3  -5  -9   73.00    3.43
  -3   5  -9   82.83    3.69
  -4   5  -9   46.09    2.91
   7   6  -9    4.61    0.87
   6   6  -9   11.43    1.14
  -5   6   9    5.88    1.34
   5   6  -9    7.27    1.11
   4  -6  -9   10.89    1.42
   4  -6  -9   13.92    2.40
  -4   6   9   11.09    1.54
   4   6  -9   11.57    1.31
   3  -6  -9   25.10    1.90
   3   6  -9   26.63    1.95
   2  -6  -9   25.39    3.00
   2  -6  -9   23.28    1.84
   2   6  -9   23.65    1.90
   1   6  -9    9.80    1.48
   1  -6  -9    8.30    2.27
   1  -6  -9    7.98    1.42
   0  -6  -9    1.98    1.40
   0  -6  -9    2.86    1.16
   0   6  -9    3.45    1.26
  -1  -6  -9    3.77    1.25
  -1   6  -9    4.73    1.34
  -2  -6  -9    1.83    1.24
  -2   6  -9    2.32    1.34
  -3  -6  -9   -0.27    1.25
  -3   6  -9   -0.05    1.27
   4   7  -9   26.02    1.80
   3  -7  -9   13.75    1.55
   2  -7  -9   30.28    2.07
   2   7  -9   29.87    1.97
   1  -7  -9   32.10    2.15
   1   7  -9   30.16    2.12
   0  -7  -9    4.65    1.31
   0   7  -9    4.60    1.32
  -1  -7  -9    0.14    1.14
  -1   7  -9    0.53    1.21
  -2  -7  -9    2.15    1.25
  -2   7  -9    3.15    1.32
  -3   7  -9    5.45    1.51
 -15   0  10    2.29    1.18
 -14   0  10    1.15    1.13
  14   0 -10    0.46    1.15
 -13   0  10    7.89    1.46
  13   0 -10    9.32    1.47
  12   0 -10   37.49    2.35
  11   0 -10   22.84    1.93
  10   0 -10   14.69    1.73
   9   0 -10   58.49    3.06
   8   0 -10  154.81    4.45
   8   0 -10  180.59    5.63
   7   0 -10  142.98    4.33
   7   0 -10  165.46    5.52
   6   0 -10   64.36    2.77
   6   0 -10   68.75    3.15
   6   0 -10   71.70    3.62
   5   0 -10  106.42    3.85
   5   0 -10  108.76    4.71
   5   0 -10  101.34    3.70
   4   0 -10  226.54    6.47
   4   0 -10  258.98    6.83
   4   0 -10  247.04    7.68
   4   0 -10  228.52    6.17
   3   0 -10  165.93    5.41
   3   0 -10  172.60    6.51
   3   0 -10  172.17    5.02
   2   0 -10   40.50    2.61
   2   0 -10   45.96    2.68
   2   0 -10   42.57    2.24
   1   0 -10   21.43    2.05
   1   0 -10   26.20    2.17
   1   0 -10   22.38    1.66
   0   0 -10   60.28    2.66
   0   0 -10   59.13    3.39
   0   0 -10   67.47    3.30
  -1   0 -10   42.26    2.25
  -1   0 -10   41.17    2.95
  -1   0 -10   49.40    2.89
  -2   0 -10    0.96    0.97
  -2   0 -10    1.60    1.44
  -2   0 -10    1.17    1.21
  -3   0 -10    2.44    1.52
  -4   0 -10    3.14    1.71
 -15   1  10    2.45    1.31
 -14   1  10    2.86    1.33
  14   1 -10    1.70    1.16
  14  -1 -10    1.24    1.21
 -13   1  10    2.41    1.28
  13   1 -10    1.77    1.15
  13  -1 -10    2.92    1.34
 -12   1  10    9.06    1.59
  12  -1 -10    8.97    1.54
  12   1 -10    8.78    1.40
  11  -1 -10   27.15    2.17
 -11   1  10   23.04    2.01
  11   1 -10   25.65    2.00
  10  -1 -10   17.09    1.81
 -10   1  10   17.18    1.78
  10   1 -10   19.68    1.85
   9   1 -10    6.36    1.40
   9  -1 -10    6.54    1.44
   8   1 -10    8.53    1.55
   8  -1 -10   10.40    1.67
   7  -1 -10   15.23    1.41
   7   1 -10   16.10    1.96
   7  -1 -10   17.55    1.99
   6  -1 -10    3.89    1.01
   6   1 -10    3.46    1.48
   6   1 -10    3.26    0.88
   6  -1 -10    4.66    1.50
   6  -1 -10    6.28    1.28
   5   1 -10    2.27    0.84
   5  -1 -10    2.52    0.91
   5   1 -10    3.18    0.98
   5  -1 -10    2.16    1.32
   5  -1 -10    3.68    1.19
   4  -1 -10    7.36    1.29
   4  -1 -10    7.38    1.25
   4  -1 -10    8.68    1.74
   4   1 -10    7.44    1.30
   4  -1 -10    8.09    1.36
   4   1 -10    8.50    1.12
   3  -1 -10    2.39    1.00
   3   1 -10    3.42    0.95
   3  -1 -10    3.90    1.13
   3   1 -10    2.23    1.16
   3  -1 -10    5.12    1.32
   2  -1 -10    8.99    1.47
   2   1 -10    8.29    1.57
   2  -1 -10   10.37    1.58
   2  -1 -10    9.34    1.34
   2   1 -10    9.10    1.11
   1   1 -10   29.55    1.76
   1  -1 -10   31.84    2.32
   1   1 -10   33.10    2.54
   1  -1 -10   35.39    2.43
   1  -1 -10   29.24    2.77
   1  -1 -10   33.92    2.11
   0  -1 -10   28.37    2.32
   0   1 -10   31.79    2.61
   0  -1 -10   33.74    2.39
   0  -1 -10   26.69    2.74
   0  -1 -10   32.24    2.06
  -1  -1 -10    9.24    2.02
  -1  -1 -10    8.85    1.60
  -1  -1 -10   13.44    1.77
  -2  -1 -10    3.83    1.76
  -2  -1 -10    5.40    1.49
  -2  -1 -10    5.07    1.46
  -3  -1 -10    8.80    1.90
  -4  -1 -10    5.78    1.78
  -5  -1 -10    0.95    1.46
  13   2 -10   33.08    1.99
  13  -2 -10   37.21    2.55
 -13   2  10   29.49    2.43
  12  -2 -10   49.72    2.89
 -12   2  10   47.54    2.93
  12   2 -10   47.92    2.45
  11  -2 -10   26.55    2.27
  11   2 -10   23.20    1.88
 -11   2  10   23.10    2.08
  10  -2 -10   13.52    1.84
  10   2 -10   12.30    1.36
  10   2 -10   11.47    1.60
 -10   2  10   11.16    1.57
   9  -2 -10   13.27    1.84
   9   2 -10   14.68    1.36
   9   2 -10   16.63    1.86
  -9   2  10   14.40    1.73
   8   2 -10   29.90    2.42
   8  -2 -10   29.37    2.41
   7  -2 -10   13.79    1.89
   6  -2 -10    0.34    1.27
   6  -2 -10    1.10    1.03
   6   2 -10    1.36    1.07
   5  -2 -10    2.00    0.99
   5  -2 -10    2.20    1.38
   5  -2 -10    2.12    1.17
   5   2 -10    2.44    1.12
   4  -2 -10   16.38    1.64
   4  -2 -10   18.76    1.78
   4   2 -10   18.47    1.85
   4  -2 -10   16.12    2.17
   3  -2 -10   13.00    1.58
   3  -2 -10   14.30    1.63
   3   2 -10   13.29    1.69
   2  -2 -10    1.81    1.03
   2  -2 -10    2.40    1.53
   2  -2 -10    2.69    1.20
   2   2 -10    1.83    1.23
   1  -2 -10    4.57    1.33
   1  -2 -10    4.17    1.64
   1  -2 -10    5.17    1.31
   1   2 -10    5.34    1.42
   0  -2 -10   32.40    2.43
   0  -2 -10   35.10    2.44
   0  -2 -10   30.20    2.92
  -1  -2 -10   40.96    2.80
  -1  -2 -10   44.72    2.77
  -1   2 -10   47.69    2.93
  -1  -2 -10   38.83    3.29
  -2  -2 -10   17.88    2.06
  -2  -2 -10   20.57    2.12
  -2   2 -10   22.48    2.24
  -2  -2 -10   17.63    2.50
  -3  -2 -10   16.37    2.04
  -4  -2 -10   33.23    2.89
  13   3 -10    5.48    1.20
  12   3 -10    2.28    1.13
  12  -3 -10    2.64    1.51
 -11   3  10    0.87    1.30
  11   3 -10    0.90    1.16
  11  -3 -10    2.27    1.42
 -10   3  10    4.08    1.39
  10   3 -10    2.78    1.30
  10   3 -10    2.50    0.96
  10  -3 -10    4.40    1.64
   9  -3 -10   26.83    2.36
   9   3 -10   27.55    1.69
  -9   3  10   24.63    2.11
   8   3 -10    8.35    1.19
  -8   3  10    8.29    1.48
   8  -3 -10    9.84    1.82
   7   3 -10    0.33    0.94
   7  -3 -10    1.83    1.42
   6  -3 -10   -0.07    1.33
   6  -3 -10    0.24    1.06
   5  -3 -10   14.34    1.63
   5   3 -10   17.03    1.76
   5  -3 -10   13.57    2.04
   4  -3 -10    3.29    1.20
   4  -3 -10    4.19    1.23
   4   3 -10    5.28    1.41
   3  -3 -10   10.67    1.52
   3  -3 -10   12.23    1.63
   3   3 -10   11.61    1.62
   2  -3 -10   10.22    1.56
   2  -3 -10   12.04    2.02
   2  -3 -10   10.44    1.56
   2   3 -10   13.66    1.75
   1  -3 -10   -0.24    1.06
   1  -3 -10   -0.54    1.46
   1  -3 -10    0.42    1.14
   1   3 -10   -0.28    1.22
   0  -3 -10   -0.65    1.27
   0  -3 -10   -0.37    1.45
   0  -3 -10   -1.05    1.24
   0   3 -10    0.47    1.25
  -1  -3 -10   12.02    1.84
  -1  -3 -10   11.25    2.14
  -1  -3 -10   12.90    1.79
  -1   3 -10   15.11    1.94
  -2  -3 -10   12.42    1.87
  12   4 -10    5.47    1.31
  11   4 -10    8.08    1.47
  11  -4 -10   10.11    1.86
  10   4 -10   16.44    1.32
  10  -4 -10   19.86    2.34
   9   4 -10   17.27    1.40
   9  -4 -10   19.29    2.26
  -9   4  10   19.63    1.99
   8   4 -10   16.53    1.39
   8  -4 -10   18.82    2.33
  -8   4  10   16.50    1.75
   7   4 -10   21.86    1.54
   7  -4 -10   21.76    2.42
  -7   4  10   23.12    2.00
   6  -4 -10   36.85    2.97
   5  -4 -10   48.34    2.66
   5   4 -10   47.73    2.65
   4  -4 -10   42.60    2.58
   4   4 -10   42.47    2.61
   3  -4 -10   37.52    3.14
   3  -4 -10   35.51    2.49
   3  -4 -10   37.82    2.38
   3   4 -10   40.47    2.50
   2  -4 -10   43.73    2.79
   2  -4 -10   46.19    2.64
   2   4 -10   46.74    2.81
   2  -4 -10   47.81    3.56
   1  -4 -10   43.06    2.87
   1  -4 -10   49.67    2.75
   1   4 -10   49.62    2.87
   1  -4 -10   44.88    3.53
   0  -4 -10   27.01    2.39
   0  -4 -10   32.60    2.37
   0   4 -10   35.44    2.51
  -1  -4 -10   19.53    2.16
  -1  -4 -10   20.04    2.02
  -1   4 -10   25.80    2.27
   7   5 -10    6.61    1.09
   4  -5 -10    1.88    1.20
   4   5 -10    1.55    1.22
   3  -5 -10   15.75    1.73
   3   5 -10   14.12    1.78
   2  -5 -10    7.55    1.73
   2  -5 -10    7.08    1.52
   2   5 -10    9.02    1.52
   1  -5 -10   -0.69    1.27
   1  -5 -10    0.42    1.17
   1   5 -10    0.42    1.20
   0  -5 -10    0.16    1.23
   0   5 -10   -0.16    1.26
  -1   5 -10    1.99    1.50
   4  -6 -10   22.65    1.96
   3  -6 -10   16.54    1.79
   3   6 -10   18.15    1.88
   2  -6 -10   27.24    2.16
   2   6 -10   31.51    2.33
   1  -6 -10   21.17    2.01
   1   6 -10   19.82    1.96
   0   6 -10    2.65    1.37
   3  -7 -10    7.11    1.46
   2   7 -10    8.79    1.54
   1   7 -10    7.72    1.60
  14   0 -11   -0.43    1.38
  13   0 -11    0.29    1.33
  12   0 -11    0.31    1.34
  11   0 -11   -0.27    1.37
  10   0 -11   -0.52    1.36
   9   0 -11   -0.56    1.30
   8   0 -11   -0.32    1.38
   7   0 -11   -0.48    1.44
   6   0 -11    0.44    1.36
   6   0 -11    1.37    1.17
   5   0 -11   -0.08    1.39
   5   0 -11    0.68    1.16
   4   0 -11   -0.74    1.63
   4   0 -11   -0.06    1.10
   3   0 -11   -0.79    1.63
   3   0 -11   -0.06    1.13
   3   0 -11    0.94    1.25
   2   0 -11    0.34    1.20
   1   0 -11    0.51    1.33
   0   0 -11    0.31    1.37
  -1   0 -11   -0.47    1.48
  -2   0 -11    0.24    1.47
  14  -1 -11    7.68    1.74
  13   1 -11   24.00    2.04
  13  -1 -11   24.37    2.29
  12  -1 -11   49.59    2.93
  12   1 -11   44.98    2.63
  11  -1 -11   19.49    2.10
  11   1 -11   19.82    1.99
  10  -1 -11   11.31    1.78
  10   1 -11    8.68    1.64
   9   1 -11   38.16    2.70
   9  -1 -11   37.76    2.68
   8   1 -11   56.58    3.31
   8  -1 -11   55.22    3.29
   7   1 -11   21.65    2.36
   7  -1 -11   20.77    2.29
   6   1 -11    5.46    1.63
   6  -1 -11    5.11    1.61
   6  -1 -11    5.00    1.38
   5  -1 -11   14.37    1.66
   5   1 -11   16.49    2.31
   5  -1 -11   18.16    1.90
   5  -1 -11   14.74    2.15
   4  -1 -11   34.03    2.37
   4  -1 -11   34.48    2.44
   4  -1 -11   35.34    2.96
   3  -1 -11   13.97    1.73
   3  -1 -11   15.97    1.90
   2  -1 -11    1.21    1.17
   1  -1 -11    7.81    1.62
   0  -1 -11   23.90    2.31
  -1  -1 -11   13.18    2.09
  -2  -1 -11    2.39    1.59
  13   2 -11    0.68    1.23
  13  -2 -11    1.32    1.57
  12   2 -11    0.14    1.27
  12  -2 -11   -0.50    1.52
  11   2 -11   -0.10    1.23
  11  -2 -11   -0.75    1.41
  10   2 -11    4.92    1.47
  10  -2 -11    4.72    1.68
   9  -2 -11   15.95    2.11
   9   2 -11   14.42    1.93
   8   2 -11    5.13    1.68
   8  -2 -11    5.11    1.72
   7  -2 -11    1.74    1.07
   7   2 -11   -0.50    1.55
   7  -2 -11    1.07    1.60
   6  -2 -11    6.37    1.27
   6  -2 -11    7.36    1.87
   6  -2 -11    7.98    1.50
   6   2 -11    7.23    1.56
   5  -2 -11   13.51    1.64
   5  -2 -11   18.51    1.90
   5   2 -11   19.33    2.01
   5  -2 -11   17.68    2.30
   4  -2 -11    2.54    1.20
   4  -2 -11    3.58    1.37
   4   2 -11    2.69    1.45
   3  -2 -11    2.64    1.27
   3   2 -11    2.71    1.44
   2  -2 -11    0.91    1.25
   1  -2 -11    0.47    1.30
   0  -2 -11   -0.07    1.21
  -1  -2 -11    9.65    1.84
  12   3 -11    2.64    1.28
  11   3 -11    0.51    1.31
  10   3 -11    3.41    1.47
   9   3 -11   11.71    1.92
   6  -3 -11   31.91    2.36
   5  -3 -11   48.17    2.90
   5   3 -11   59.53    3.13
   4  -3 -11   57.93    3.20
   3  -3 -11   55.53    3.15
   2  -3 -11   50.93    3.08
   1  -3 -11   48.66    3.11
   0  -3 -11   44.21    3.06
  11   4 -11    5.35    1.49
  10   4 -11    2.39    1.55
   5  -4 -11    1.60    1.30
   4  -4 -11    5.28    1.45
   3  -4 -11   11.01    1.79
   2  -4 -11    0.62    1.36
   0   0   0    0.00    0.00
;
_shelx_hkl_checksum              87895
_shelx_res_file
;
    p21c.res created by SHELXL-2014/7
TITL p21c in P2(1)/c
CELL 0.71073  13.6842   8.5302   8.9518  90.000 107.996  90.000
ZERR    2.00   0.0005   0.0003   0.0003   0.000   0.004   0.000
LATT 1
SYMM -X, 0.5+Y, 0.5-Z
SFAC C  H  N  F  I  Pb
UNIT 16 36 4 4 8 2
OMIT -13 1 4
OMIT 2 4 1
L.S. 15
HTAB N1 I1
HTAB N1 I3_$1
HTAB N1 I3_$2
EQIV $1  x, y, z+1
EQIV $2  x, -y+3/2, z+1/2
ACTA
BOND $H
FMAP 2
PLAN 5
CONF
isor 0.01 C3 c1 c4 F1
SIZE 0.15 0.16 0.16
TEMP 20
WGHT    0.043500    2.381800
FVAR       0.15817
PB1   6    0.000000    0.500000    0.000000    10.50000    0.05092    0.03570 =
         0.03248    0.00018    0.01549   -0.00137
I1    5    0.044896    0.307462    0.323971    11.00000    0.07021    0.04454 =
         0.04184    0.01497    0.01929    0.00003
I3    5    0.239358    0.573585    0.086701    11.00000    0.05585    0.06798 =
         0.05688   -0.00585    0.01481   -0.00573
N1    3    0.204741    0.520710    0.673156    11.00000    0.05789    0.07435 =
         0.06722   -0.00994    0.02188    0.00508
AFIX  33
H1A   2    0.148182    0.486186    0.601270    11.00000   -1.50000
H1B   2    0.195563    0.518866    0.767327    11.00000   -1.50000
H1C   2    0.217719    0.618448    0.650054    11.00000   -1.50000
AFIX   0
F1    4    0.483846    0.301426    0.646189    11.00000    0.09633    0.13748 =
         0.24761   -0.03519    0.03490    0.04711
C1    1    0.292652    0.418450    0.674517    11.00000    0.07253    0.07788 =
         0.08129   -0.00499    0.01961   -0.00079
AFIX  13
H1D   2    0.276731    0.306884    0.679123    11.00000   -1.50000
AFIX   0
C2    1    0.393360    0.461621    0.789562    11.00000    0.07807    0.15374 =
         0.07309   -0.00604    0.02619   -0.02124
AFIX  23
H2A   2    0.417190    0.387999    0.875780    11.00000   -1.50000
H2B   2    0.395897    0.568272    0.828172    11.00000   -1.50000
AFIX   0
C3    1    0.444078    0.441084    0.663196    11.00000    0.10446    0.10979 =
         0.11409   -0.01715    0.04258   -0.00472
AFIX  13
H3A   2    0.489149    0.528778    0.657872    11.00000   -1.20000
AFIX   0
C4    1    0.340635    0.454040    0.547532    11.00000    0.10179    0.14707 =
         0.08071    0.00377    0.04203    0.02888
AFIX  23
H4A   2    0.326666    0.375188    0.465548    11.00000   -1.20000
H4B   2    0.324820    0.558108    0.502929    11.00000   -1.20000
AFIX   0
HKLF 4
REM  p21c in P2(1)/c
REM R1 =  0.0321 for    2191 Fo > 4sig(Fo)  and  0.0379 for all    2537 data
REM     79 parameters refined using     24 restraints
END
WGHT      0.0430      0.6209
REM Highest difference peak  1.405,  deepest hole -1.626,  1-sigma level  0.177
Q1    1  -0.0037  0.5041  0.1084  11.00000  0.05    1.41
Q2    1   0.0678  0.4960  0.0616  11.00000  0.05    1.31
Q3    1   0.0157  0.4347 -0.0516  11.00000  0.05    1.28
Q4    1   0.2446  0.6363  0.0236  11.00000  0.05    1.15
Q5    1   0.0238  0.3797  0.3623  11.00000  0.05    1.10
;
_shelx_res_checksum              16932
loop_
_space_group_symop_operation_xyz
'x, y, z'
'-x, y+1/2, -z+1/2'
'-x, -y, -z'
'x, -y-1/2, z-1/2'
loop_
_atom_site_type_symbol
_atom_site_label
_atom_site_fract_x
_atom_site_fract_y
_atom_site_fract_z
_atom_site_U_iso_or_equiv
_atom_site_adp_type
_atom_site_calc_flag
_atom_site_occupancy
_atom_site_disorder_assembly
_atom_site_disorder_group
Pb Pb1 0.0000 0.5000 0.0000 0.03910(10) Uani d 1 . .
I I1 0.04490(4) 0.30746(5) 0.32397(4) 0.05175(13) Uani d 1 . .
I I3 0.23936(4) 0.57359(6) 0.08670(5) 0.06083(15) Uani d 1 . .
N N1 0.2047(5) 0.5207(8) 0.6732(8) 0.0659(17) Uani d 1 . .
H H1A 0.1482 0.4862 0.6013 0.099 Uiso calc 1 . .
H H1B 0.1956 0.5189 0.7673 0.099 Uiso calc 1 . .
H H1C 0.2177 0.6184 0.6501 0.099 Uiso calc 1 . .
F F1 0.4838(6) 0.3014(11) 0.6462(13) 0.165(4) Uani d 1 . .
C C1 0.2927(7) 0.4184(11) 0.6745(11) 0.078(2) Uani d 1 . .
H H1D 0.2767 0.3069 0.6791 0.117 Uiso calc 1 . .
C C2 0.3934(9) 0.4616(16) 0.7896(12) 0.101(3) Uani d 1 . .
H H2A 0.4172 0.3880 0.8758 0.151 Uiso calc 1 . .
H H2B 0.3959 0.5683 0.8282 0.151 Uiso calc 1 . .
C C3 0.4441(10) 0.4411(17) 0.6632(15) 0.107(3) Uani d 1 . .
H H3A 0.4891 0.5288 0.6579 0.129 Uiso calc 1 . .
C C4 0.3406(9) 0.4540(17) 0.5475(13) 0.107(3) Uani d 1 . .
H H4A 0.3267 0.3752 0.4655 0.128 Uiso calc 1 . .
H H4B 0.3248 0.5581 0.5029 0.128 Uiso calc 1 . .
loop_
_atom_site_aniso_label
_atom_site_aniso_U_11
_atom_site_aniso_U_22
_atom_site_aniso_U_33
_atom_site_aniso_U_12
_atom_site_aniso_U_13
_atom_site_aniso_U_23
Pb1 0.0509(2) 0.03570(16) 0.03248(15) -0.00137(11) 0.01549(12) 0.00018(10)
I1 0.0702(3) 0.0445(2) 0.0418(2) 0.00003(18) 0.01929(18) 0.01497(15)
I3 0.0558(3) 0.0680(3) 0.0569(3) -0.0057(2) 0.0148(2) -0.0059(2)
N1 0.058(4) 0.074(4) 0.067(4) 0.005(3) 0.022(3) -0.010(3)
F1 0.096(5) 0.137(6) 0.248(9) 0.047(5) 0.035(5) -0.035(6)
C1 0.073(5) 0.078(5) 0.081(5) -0.001(4) 0.020(4) -0.005(4)
C2 0.078(7) 0.154(10) 0.073(6) -0.021(7) 0.026(5) -0.006(6)
C3 0.104(7) 0.110(7) 0.114(7) -0.005(6) 0.043(6) -0.017(6)
C4 0.102(7) 0.147(7) 0.081(5) 0.029(6) 0.042(5) 0.004(5)
loop_
_atom_type_symbol
_atom_type_description
_atom_type_scat_dispersion_real
_atom_type_scat_dispersion_imag
_atom_type_scat_source
C C 0.0033 0.0016 'International Tables Vol C Tables 4.2.6.8 and 6.1.1.4'
H H 0.0000 0.0000 'International Tables Vol C Tables 4.2.6.8 and 6.1.1.4'
N N 0.0061 0.0033 'International Tables Vol C Tables 4.2.6.8 and 6.1.1.4'
F F 0.0171 0.0103 'International Tables Vol C Tables 4.2.6.8 and 6.1.1.4'
I I -0.4742 1.8119 'International Tables Vol C Tables 4.2.6.8 and 6.1.1.4'
Pb Pb -3.3944 10.1111 'International Tables Vol C Tables 4.2.6.8 and 6.1.1.4'
loop_
_geom_angle_atom_site_label_1
_geom_angle_atom_site_label_2
_geom_angle_atom_site_label_3
_geom_angle_site_symmetry_1
_geom_angle_site_symmetry_3
_geom_angle
_geom_angle_publ_flag
I3 Pb1 I3 3_565 . 180.0 ?
I3 Pb1 I1 3_565 4_565 93.302(12) ?
I3 Pb1 I1 . 4_565 86.698(12) y
I3 Pb1 I1 3_565 2 86.698(12) ?
I3 Pb1 I1 . 2 93.302(12) ?
I1 Pb1 I1 4_565 2 180.000(16) ?
I3 Pb1 I1 3_565 . 90.838(12) ?
I3 Pb1 I1 . . 89.162(13) y
I1 Pb1 I1 4_565 . 90.753(5) ?
I1 Pb1 I1 2 . 89.247(5) y
I3 Pb1 I1 3_565 3_565 89.163(13) ?
I3 Pb1 I1 . 3_565 90.837(12) ?
I1 Pb1 I1 4_565 3_565 89.246(5) ?
I1 Pb1 I1 2 3_565 90.754(5) ?
I1 Pb1 I1 . 3_565 180.0 y
Pb1 I1 Pb1 2_545 . 147.634(15) y
C1 N1 H1A . . 109.5 ?
C1 N1 H1B . . 109.5 ?
H1A N1 H1B . . 109.5 ?
C1 N1 H1C . . 109.5 ?
H1A N1 H1C . . 109.5 ?
H1B N1 H1C . . 109.5 ?
N1 C1 C2 . . 115.8(9) ?
N1 C1 C4 . . 114.6(9) ?
C2 C1 C4 . . 86.9(8) ?
N1 C1 H1D . . 112.4 ?
C2 C1 H1D . . 112.4 ?
C4 C1 H1D . . 112.4 ?
C1 C2 C3 . . 89.7(8) ?
C1 C2 H2A . . 113.7 ?
C3 C2 H2A . . 113.7 ?
C1 C2 H2B . . 113.7 ?
C3 C2 H2B . . 113.7 ?
H2A C2 H2B . . 110.9 ?
F1 C3 C4 . . 108.8(11) ?
F1 C3 C2 . . 119.1(13) ?
C4 C3 C2 . . 87.3(9) ?
F1 C3 H3A . . 113.0 ?
C4 C3 H3A . . 113.0 ?
C2 C3 H3A . . 113.0 ?
C3 C4 C1 . . 90.2(9) ?
C3 C4 H4A . . 113.6 ?
C1 C4 H4A . . 113.6 ?
C3 C4 H4B . . 113.6 ?
C1 C4 H4B . . 113.6 ?
H4A C4 H4B . . 110.9 ?
loop_
_geom_bond_atom_site_label_1
_geom_bond_atom_site_label_2
_geom_bond_site_symmetry_2
_geom_bond_distance
_geom_bond_publ_flag
Pb1 I3 3_565 3.1865(5) ?
Pb1 I3 . 3.1865(5) y
Pb1 I1 4_565 3.2151(4) ?
Pb1 I1 2 3.2151(4) y
Pb1 I1 . 3.2225(3) y
Pb1 I1 3_565 3.2225(3) ?
I1 Pb1 2_545 3.2152(4) ?
N1 C1 . 1.483(11) ?
N1 H1A . 0.8900 ?
N1 H1B . 0.8900 ?
N1 H1C . 0.8900 ?
F1 C3 . 1.338(14) ?
C1 C2 . 1.489(14) ?
C1 C4 . 1.509(13) ?
C1 H1D . 0.9800 ?
C2 C3 . 1.509(16) ?
C2 H2A . 0.9700 ?
C2 H2B . 0.9700 ?
C3 C4 . 1.477(16) ?
C3 H3A . 0.9800 ?
C4 H4A . 0.9700 ?
C4 H4B . 0.9700 ?
loop_
_geom_hbond_atom_site_label_D
_geom_hbond_atom_site_label_H
_geom_hbond_atom_site_label_A
_geom_hbond_site_symmetry_A
_geom_hbond_distance_DH
_geom_hbond_distance_HA
_geom_hbond_distance_DA
_geom_hbond_angle_DHA
C2 H2B F1 2_656 0.97 2.55 3.308(13) 135.3
N1 H1A I1 . 0.89 2.88 3.693(7) 152.0
N1 H1B I3 1_556 0.89 2.77 3.612(7) 157.6
N1 H1C I3 4_576 0.89 2.72 3.609(7) 174.0
loop_
_geom_torsion_atom_site_label_1
_geom_torsion_atom_site_label_2
_geom_torsion_atom_site_label_3
_geom_torsion_atom_site_label_4
_geom_torsion_site_symmetry_1
_geom_torsion_site_symmetry_2
_geom_torsion_site_symmetry_3
_geom_torsion_site_symmetry_4
_geom_torsion
_geom_torsion_publ_flag
N1 C1 C2 C3 . . . . -133.9(10) ?
C4 C1 C2 C3 . . . . -18.0(10) ?
C1 C2 C3 F1 . . . . -91.7(13) ?
C1 C2 C3 C4 . . . . 18.4(10) ?
F1 C3 C4 C1 . . . . 101.7(11) ?
C2 C3 C4 C1 . . . . -18.1(10) ?
N1 C1 C4 C3 . . . . 135.4(9) ?
C2 C1 C4 C3 . . . . 18.4(10) ?

_cod_database_fobs_code 2022285
