#------------------------------------------------------------------------------
#$Date: 2021-09-11 04:56:19 +0300 (Sat, 11 Sep 2021) $
#$Revision: 269097 $
#$URL: file:///home/coder/svn-repositories/cod/cif/2/02/24/2022440.cif $
#------------------------------------------------------------------------------
#
# This file is available in the Crystallography Open Database (COD),
# http://www.crystallography.net/. The original data for this entry
# were provided by IUCr Journals, http://journals.iucr.org/.
#
# The file may be used within the scientific community so long as
# proper attribution is given to the journal article from which the
# data were obtained.
#
data_2022440
loop_
_publ_author_name
'Peloquin, Andrew J.'
'Ragusa, Arianna C.'
'McMillen, Colin D.'
'Pennington, William T.'
_publ_section_title
;
 The reaction of thiourea and 1,3-dimethylthiourea towards organoiodines:
 oxidative bond formation and halogen bonding
;
_journal_coeditor_code           VP3021
_journal_issue                   10
_journal_name_full               'Acta Crystallographica Section C'
_journal_page_first
;
;
_journal_paper_doi               10.1107/S205322962100869X
_journal_volume                  77
_journal_year                    2021
_chemical_formula_iupac          'C6 F4 I2, C3 H8 N2 S'
_chemical_formula_moiety         'C6 F4 I2, C3 H8 N2 S'
_chemical_formula_sum            'C9 H8 F4 I2 N2 S'
_chemical_formula_weight         506.03
_chemical_name_systematic
;
1,3-Dimethylthiourea--1,3-diiodo-2,4,5,6-tetrafluorobenzene (1/1)
;
_space_group_crystal_system      triclinic
_space_group_IT_number           2
_space_group_name_Hall           '-P 1'
_space_group_name_H-M_alt        'P -1'
_atom_sites_solution_hydrogens   mixed
_atom_sites_solution_primary     dual
_atom_sites_solution_secondary   difmap
_audit_creation_method
;
Olex2 1.3
(compiled 2020.11.12 svn.r5f609507 for OlexSys, GUI svn.r6272)
;
_cell_angle_alpha                83.922(3)
_cell_angle_beta                 76.598(3)
_cell_angle_gamma                69.092(3)
_cell_formula_units_Z            2
_cell_length_a                   7.1432(6)
_cell_length_b                   7.8452(6)
_cell_length_c                   13.7688(12)
_cell_measurement_reflns_used    9938
_cell_measurement_temperature    100(2)
_cell_measurement_theta_max      28.357
_cell_measurement_theta_min      2.780
_cell_volume                     700.94(10)
_computing_cell_refinement
;
SAINT (Bruker, 2017)
;
_computing_data_collection
;
APEX3 (Bruker, 2017)
;
_computing_data_reduction
;
SAINT (Bruker, 2017)
;
_computing_molecular_graphics
;
Mercury (Macrae <i>et al.</i>, 2020)
;
_computing_publication_material
;
publCIF (Westrip, 2010) and OLEX2 (Dolomanov <i>et al.</i>,
2009)
;
_computing_structure_refinement
;
SHELXL2018 (Sheldrick, 2015<i>b</i>)
;
_computing_structure_solution
;
SHELXT2018 (Sheldrick, 2015<i>a</i>)
;
_diffrn_ambient_temperature      100.0
_diffrn_measured_fraction_theta_full 0.998
_diffrn_measured_fraction_theta_max 0.993
_diffrn_measurement_device_type  'Bruker D8 Venture Photon 2'
_diffrn_measurement_method       '\f and \w scans'
_diffrn_radiation_type           MoK\a
_diffrn_radiation_wavelength     0.71073
_diffrn_reflns_av_R_equivalents  0.0283
_diffrn_reflns_av_unetI/netI     0.0250
_diffrn_reflns_limit_h_max       9
_diffrn_reflns_limit_h_min       -9
_diffrn_reflns_limit_k_max       10
_diffrn_reflns_limit_k_min       -10
_diffrn_reflns_limit_l_max       18
_diffrn_reflns_limit_l_min       -18
_diffrn_reflns_number            13521
_diffrn_reflns_theta_full        25.242
_diffrn_reflns_theta_max         28.373
_diffrn_reflns_theta_min         2.780
_diffrn_source                   'Incoatec I\mS'
_diffrn_source_current           1.0
_diffrn_source_power             0.05
_diffrn_source_voltage           50.0
_exptl_absorpt_coefficient_mu    4.664
_exptl_absorpt_correction_T_max  0.7457
_exptl_absorpt_correction_T_min  0.5846
_exptl_absorpt_correction_type   multi-scan
_exptl_absorpt_process_details
;
(SADABS; Bruker, 2017)
;
_exptl_crystal_colour            colourless
_exptl_crystal_density_diffrn    2.398
_exptl_crystal_density_method    'not measured'
_exptl_crystal_description       plate
_exptl_crystal_F_000             468
_exptl_crystal_size_max          0.207
_exptl_crystal_size_mid          0.133
_exptl_crystal_size_min          0.021
_refine_diff_density_max         0.816
_refine_diff_density_min         -0.765
_refine_ls_extinction_method     none
_refine_ls_goodness_of_fit_ref   1.272
_refine_ls_hydrogen_treatment    mixed
_refine_ls_matrix_type           full
_refine_ls_number_parameters     173
_refine_ls_number_reflns         3503
_refine_ls_number_restraints     0
_refine_ls_restrained_S_all      1.272
_refine_ls_R_factor_all          0.0274
_refine_ls_R_factor_gt           0.0205
_refine_ls_shift/su_max          0.001
_refine_ls_shift/su_mean         0.000
_refine_ls_structure_factor_coef Fsqd
_refine_ls_weighting_details
'w=1/[\s^2^(Fo^2^)+0.9448P] where P=(Fo^2^+2Fc^2^)/3'
_refine_ls_weighting_scheme      calc
_refine_ls_wR_factor_gt          0.0419
_refine_ls_wR_factor_ref         0.0469
_reflns_number_gt                3065
_reflns_number_total             3503
_reflns_threshold_expression     'I > 2\s(I)'
_cod_data_source_file            vp3021sup1.cif
_cod_data_source_block           3
_cod_database_code               2022440
_shelx_space_group_comment
;
The symmetry employed for this shelxl refinement is uniquely defined
by the following loop, which should always be used as a source of
symmetry information in preference to the above space-group names.
They are only intended as comments.
;
_shelx_estimated_absorpt_t_min   0.445
_shelx_estimated_absorpt_t_max   0.908
_shelx_hkl_file
;
  -1   0   0 627.564 19.5629   5
  -1   0   0 663.819 17.6998   7
  -1   0   0 668.216 19.3274   2
  -1   0   0 687.035 19.0793   3
  -1   0   0 677.830 19.8759   4
   1   0   0 632.175 19.5521   5
   1   0   0 662.653 17.7602   7
   1   0   0 678.023 19.0629   3
   1   0   0 664.871 19.8507   4
   1   0   0 678.990 19.4050   2
  -2   0   0 4903.31 126.637   2
  -2   0   0 4940.10 126.144   3
  -2   0   0 4754.65 127.495   4
  -2   0   0 4743.98 127.416   5
  -2   0   0 4834.54 123.065   7
   2   0   0 4830.13 126.806   2
   2   0   0 4898.08 125.957   3
   2   0   0 4700.24 127.176   5
   2   0   0 5191.11 123.718   7
  -3   0   0 159.328 10.8416   4
  -3   0   0 187.327 11.2487   5
  -3   0   0 186.301 10.1484   3
   3   0   0 178.027 10.5849   2
   3   0   0 200.221 10.3067   3
   3   0   0 181.435 10.8171   5
  -4   0   0 1.66537 1.63555   5
  -4   0   0 0.35347 1.24093   4
   4   0   0 -0.4418 0.85663   3
   4   0   0 0.55754 0.89955   5
   4   0   0 1.45342 1.20761   2
  -5   0   0 1843.90 58.8793   3
  -5   0   0 1837.87 61.2999   4
  -5   0   0 1745.55 60.8992   5
   5   0   0 1850.85 57.6357   3
   5   0   0 1718.82 59.7624   5
   5   0   0 1808.87 59.7289   2
  -6   0   0 778.994 44.6815   5
  -6   0   0 761.932 35.3503   4
  -6   0   0 736.685 33.0746   3
   6   0   0 723.659 31.6115   3
   6   0   0 757.716 35.0230   5
   6   0   0 790.096 41.6279   2
  -7   0   0 30.9673 7.85776   4
   7   0   0 36.0027 7.53889   3
   7   0   0 20.6269 6.31267   5
   7   0   0 33.0833 8.30100   2
  -8   0   0 21.0852 6.71247   4
  -8   0   0 21.8020 6.41930   3
   8   0   0 37.6595 8.82839   3
   8   0   0 35.5208 10.7482   2
   8  -1   0 7.82000 3.48310   6
   8  -1   0 3.25638 5.13269   2
   8  -1   0 6.79312 3.34064   3
  -8   1   0 4.87314 3.91083   3
   7  -1   0 439.531 28.6544   1
   7  -1   0 373.857 21.9787   6
   7  -1   0 402.981 25.8840   2
   7  -1   0 425.206 23.5603   3
   7  -1   0 383.635 30.5100   5
  -7   1   0 426.062 27.2955   4
   6  -1   0 1671.31 55.3504   3
   6  -1   0 1666.15 59.1716   2
   6  -1   0 1508.93 60.1106   1
   6  -1   0 1648.05 54.7338   6
  -6   1   0 1626.40 60.8687   4
  -6   1   0 1551.07 54.7184   3
   5  -1   0 4.11948 2.42579   2
   5  -1   0 11.0891 3.85790   5
   5  -1   0 2.34165 1.97685   3
  -5   1   0 7.33978 2.72636   4
  -5   1   0 5.82694 2.63035   3
   4  -1   0 548.537 24.5248   2
   4  -1   0 601.995 23.4474   3
   4  -1   0 591.420 26.5757   4
   4  -1   0 570.014 26.3028   5
   4  -1   0 604.561 21.7251   7
  -4   1   0 589.796 26.7512   5
  -4   1   0 545.101 25.1807   4
  -4   1   0 525.765 23.1466   3
  -4   1   0 572.997 20.7530   7
   3  -1   0 16.0359 3.61041   5
   3  -1   0 18.7137 3.33378   3
   3  -1   0 16.5332 3.38081   2
   3  -1   0 14.2601 3.53093   4
   3  -1   0 21.7680 3.02311   7
  -3   1   0 21.8783 3.77086   3
  -3   1   0 19.8983 4.04717   5
  -3   1   0 20.0972 4.00232   4
  -3   1   0 18.4288 2.83306   7
   2  -1   0 2797.39 74.3913   2
   2  -1   0 2688.73 75.5304   5
   2  -1   0 2602.35 75.0274   4
   2  -1   0 2775.19 72.3010   7
   2  -1   0 2857.77 73.4963   3
  -2   1   0 2752.23 75.2751   4
  -2   1   0 2559.65 75.2069   5
  -2   1   0 2685.07 72.4084   7
   1  -1   0 4639.58 120.971   6
   1  -1   0 5082.67 122.230   5
   1  -1   0 4428.09 120.002   3
   1  -1   0 4831.49 121.808   1
   1  -1   0 4679.41 120.407   7
   1  -1   0 4703.67 120.408   2
  -1   1   0 4905.48 120.803   7
  -1   1   0 4406.00 121.490   5
   0  -1   0 292.236 9.90538   7
   0  -1   0 310.472 10.2361   6
   0   1   0 297.285 10.1279   6
   0   1   0 302.954 9.99058   7
   0   1   0 298.372 9.81992   1
  -1  -1   0 364.911 12.5714   3
  -1  -1   0 349.245 10.8990   2
  -1  -1   0 335.206 10.6383   5
   1   1   0 365.331 10.7736   5
   1   1   0 342.212 10.8979   2
   1   1   0 356.200 11.8525   3
  -2  -1   0 18.2979 2.85069   5
  -2  -1   0 21.1605 2.68891   2
  -2  -1   0 18.6031 2.70623   3
   2   1   0 17.3339 2.58917   5
   2   1   0 22.7987 3.04885   3
   2   1   0 21.8364 2.90090   2
  -3  -1   0 110.653 7.39993   3
  -3  -1   0 99.1378 7.03300   2
  -3  -1   0 99.2399 7.54315   5
   3   1   0 98.4280 7.11292   3
   3   1   0 100.137 7.27962   5
  -4  -1   0 5579.78 148.516   3
  -4  -1   0 5669.69 150.726   5
  -4  -1   0 5590.46 152.018   4
   4   1   0 5401.35 149.311   5
   4   1   0 5510.78 148.657   3
   4   1   0 5563.01 149.694   2
  -5  -1   0 591.978 25.0891   3
  -5  -1   0 537.911 25.7692   5
  -5  -1   0 560.390 27.0924   4
   5   1   0 557.373 35.9304   5
   5   1   0 532.701 24.1787   3
   5   1   0 540.468 25.2178   2
  -6  -1   0 242.433 18.2254   4
  -6  -1   0 270.238 17.0586   3
  -6  -1   0 259.572 18.0848   5
   6   1   0 253.993 17.4222   2
   6   1   0 209.037 16.3061   5
   6   1   0 235.380 15.9063   3
  -7  -1   0 55.9976 10.5510   4
   7   1   0 47.8142 11.1847   5
   7   1   0 51.4437 9.39143   2
   7   1   0 67.3682 9.36311   3
  -8  -1   0 0.59855 4.47623   4
  -8  -1   0 -2.1411 3.65618   3
   8   1   0 2.78780 3.04589   3
   8   1   0 -3.4106 3.11220   2
   7  -2   0 674.233 35.7780   2
   7  -2   0 659.833 31.4372   3
   7  -2   0 685.539 31.8529   6
  -7   2   0 688.544 37.3549   4
   6  -2   0 53.3867 7.27593   3
   6  -2   0 41.8327 7.19967   6
   6  -2   0 46.1047 8.29011   2
  -6   2   0 46.2898 6.94190   3
  -6   2   0 46.7633 8.70059   4
   5  -2   0 397.815 20.6245   6
   5  -2   0 390.796 23.5907   4
   5  -2   0 412.665 20.0849   3
   5  -2   0 397.827 19.5368   7
   5  -2   0 391.680 22.0895   2
   5  -2   0 371.908 22.9096   1
  -5   2   0 399.448 19.3637   3
  -5   2   0 388.945 22.8049   4
   4  -2   0 160.420 10.5401   3
   4  -2   0 152.179 12.8528   5
   4  -2   0 154.333 10.0604   7
   4  -2   0 142.600 11.2413   2
   4  -2   0 133.207 11.6488   4
   4  -2   0 138.697 11.9464   1
   4  -2   0 145.426 10.8044   6
  -4   2   0 134.481 11.7529   4
  -4   2   0 139.095 9.74552   7
  -4   2   0 136.818 9.55947   3
   3  -2   0 374.500 18.9441   4
   3  -2   0 388.292 17.5867   6
   3  -2   0 378.840 17.5754   2
   3  -2   0 380.261 18.9845   3
   3  -2   0 395.750 19.3810   1
   3  -2   0 357.768 19.0196   5
   3  -2   0 367.688 16.0328   7
  -3   2   0 382.060 16.6473   7
  -3   2   0 380.844 18.8282   4
   2  -2   0 6872.76 175.253   2
   2  -2   0 6753.86 177.922   5
   2  -2   0 6982.88 177.819   1
   2  -2   0 6690.11 177.230   4
   2  -2   0 5972.80 174.146   3
   2  -2   0 6696.05 175.950   6
   2  -2   0 6845.53 174.976   7
  -2   2   0 7070.94 175.770   7
  -2   2   0 6867.10 177.878   4
   1  -2   0 303.715 12.7944   7
   1  -2   0 328.510 13.5385   6
   1  -2   0 296.288 13.1387   5
   1  -2   0 301.771 13.3541   1
   1  -2   0 325.710 13.9278   4
   1  -2   0 319.297 11.6464   2
  -1   2   0 322.081 13.4181   6
  -1   2   0 324.841 13.2344   1
  -1   2   0 299.526 12.9793   7
   0  -2   0 3304.95 86.9934   7
   0  -2   0 3364.16 87.6080   6
   0  -2   0 3119.89 89.3740   1
   0   2   0 3302.94 86.9481   7
   0   2   0 3330.67 86.4582   1
   0   2   0 3268.27 87.4311   6
  -1  -2   0 679.508 21.7248   3
  -1  -2   0 685.003 21.3198   7
   1   2   0 700.292 22.5687   6
  -2  -2   0 1090.21 33.0871   3
  -2  -2   0 1066.72 30.7951   5
  -2  -2   0 1038.22 30.9608   2
   2   2   0 1064.23 31.2673   2
   2   2   0 1127.45 33.5495   3
  -3  -2   0 2973.27 84.9682   2
  -3  -2   0 3243.71 85.7537   5
  -3  -2   0 3181.11 86.7083   3
   3   2   0 3206.40 87.3022   3
   3   2   0 3122.94 85.7734   2
   3   2   0 3133.99 85.0747   5
  -4  -2   0 225.565 13.0041   3
  -4  -2   0 226.198 13.0920   5
   4   2   0 239.906 13.6012   3
   4   2   0 221.234 12.5641   5
   4   2   0 228.102 12.9415   2
  -5  -2   0 213.639 14.2298   5
   5   2   0 209.597 13.7395   5
   5   2   0 224.693 14.5329   3
   5   2   0 222.651 14.5098   2
  -6  -2   0 70.8188 8.65467   5
  -6  -2   0 49.5602 9.37681   4
  -6  -2   0 48.1989 7.77826   3
   6   2   0 48.9036 7.93812   3
   6   2   0 70.9792 8.53306   2
   6   2   0 39.6544 6.84714   5
  -7  -2   0 72.1125 10.6774   5
  -7  -2   0 82.6766 12.5437   4
   7   2   0 73.4305 9.91987   3
   7   2   0 81.2980 10.6382   2
  -8  -2   0 1392.27 59.6388   4
  -8  -2   0 1315.90 54.4129   3
   8   2   0 1387.50 56.2285   2
   8   2   0 1330.31 54.6287   3
   8   2   0 1413.12 56.5346   5
  -9  -2   0 212.095 22.5735   4
   9   2   0 237.521 21.6378   2
   7  -3   0 13.8131 4.24509   6
   7  -3   0 6.11651 4.49008   2
   7  -3   0 1.62000 3.41969   3
  -7   3   0 3.16315 5.35093   4
   6  -3   0 349.926 26.2159   5
   6  -3   0 367.881 20.6730   3
   6  -3   0 390.810 26.4824   1
   6  -3   0 390.138 22.4910   6
   6  -3   0 384.889 24.1421   2
  -6   3   0 408.639 26.2019   4
   5  -3   0 29.1274 7.11337   1
   5  -3   0 24.4804 6.64215   4
   5  -3   0 23.5014 5.55320   3
   5  -3   0 34.8924 7.62872   5
   5  -3   0 21.7306 5.58513   7
   5  -3   0 25.2335 6.18465   6
   5  -3   0 30.3793 6.75792   2
  -5   3   0 37.0110 7.73232   4
   4  -3   0 535.152 22.3726   3
   4  -3   0 507.945 24.0611   2
   4  -3   0 512.960 24.0924   6
   4  -3   0 482.442 26.0708   5
   4  -3   0 495.325 26.0956   4
   4  -3   0 481.484 22.2373   7
   4  -3   0 501.964 26.1076   1
  -4   3   0 474.584 25.4901   4
   3  -3   0 834.167 33.2470   1
   3  -3   0 681.625 40.4003   5
   3  -3   0 839.679 33.1389   4
   3  -3   0 778.414 30.6863   6
   3  -3   0 819.999 29.3756   3
   3  -3   0 763.120 29.3079   7
   3  -3   0 832.273 30.1680   2
  -3   3   0 808.346 32.9225   4
   2  -3   0 1.55648 1.15200   2
   2  -3   0 4.68036 1.97039   5
   2  -3   0 2.65153 1.69253   4
   2  -3   0 3.51360 1.57310   6
   2  -3   0 4.22166 1.84546   7
   2  -3   0 4.53792 1.84214   1
   2  -3   0 4.49055 1.85659   3
  -2   3   0 2.21000 1.61727   7
   1  -3   0 632.776 25.3975   1
   1  -3   0 662.922 21.5752   2
   1  -3   0 728.809 26.7604   4
   1  -3   0 701.108 25.0903   5
   1  -3   0 701.844 25.0746   7
   1  -3   0 705.645 25.6896   6
  -1   3   0 663.141 25.4743   6
  -1   3   0 698.043 25.3312   7
  -1   3   0 702.680 24.6105   1
   0  -3   0 83.5277 6.58262   1
   0  -3   0 75.3517 6.50217   6
   0  -3   0 75.1029 6.16839   7
   0   3   0 82.2822 6.95976   6
   0   3   0 83.3250 6.03897   1
  -1  -3   0 274.753 12.1676   3
  -1  -3   0 288.427 12.6965   7
   1   3   0 274.334 13.3644   6
  -2  -3   0 8049.14 204.225   3
  -2  -3   0 7839.74 201.933   7
   2   3   0 7790.06 204.223   3
   2   3   0 7886.79 199.675   2
  -3  -3   0 195.944 11.4078   3
  -3  -3   0 194.418 9.48563   5
  -3  -3   0 189.276 8.78750   7
   3   3   0 201.238 11.8948   3
   3   3   0 203.066 10.1355   2
  -4  -3   0 1086.50 37.4635   3
   4   3   0 1061.24 37.9795   3
   4   3   0 1061.28 35.9055   2
  -5  -3   0 197.569 12.9548   5
  -5  -3   0 199.218 13.5310   3
   5   3   0 176.251 12.7784   2
   5   3   0 210.067 14.3200   3
   5   3   0 189.067 12.3348   5
  -6  -3   0 223.954 15.7582   3
  -6  -3   0 241.983 16.3419   5
   6   3   0 224.708 15.2068   5
   6   3   0 243.728 16.9679   3
   6   3   0 228.239 16.0401   2
  -7  -3   0 1111.22 44.5732   5
  -7  -3   0 1076.05 48.6796   4
   7   3   0 1037.74 43.7196   2
   7   3   0 1060.92 44.8158   3
   7   3   0 1082.75 43.3242   5
  -8  -3   0 144.711 18.5814   4
  -8  -3   0 170.611 16.0063   3
   8   3   0 191.734 17.5756   3
   8   3   0 180.823 16.7211   5
   8   3   0 192.688 17.7586   2
  -9  -3   0 73.6962 15.8530   4
   9   3   0 90.4991 16.2910   3
   9   3   0 97.7168 14.5643   2
   6  -4   0 5.61434 3.26600   6
   6  -4   0 3.43952 3.39197   2
   6  -4   0 1.72466 2.69302   3
   5  -4   0 251.336 20.1681   5
   5  -4   0 236.950 22.6928   1
   5  -4   0 262.311 15.9748   3
   5  -4   0 252.415 16.8711   7
   5  -4   0 233.546 17.1172   6
   5  -4   0 268.354 18.1199   2
   5  -4   0 242.403 24.3907   4
   4  -4   0 1869.46 66.0732   5
   4  -4   0 1837.00 62.2468   6
   4  -4   0 1816.08 60.4647   2
   4  -4   0 1844.57 65.4510   4
   4  -4   0 1919.08 58.7334   3
   4  -4   0 1753.88 59.5852   7
   4  -4   0 1820.47 65.6591   1
   3  -4   0 -0.8733 2.06068   4
   3  -4   0 3.90392 2.42807   1
   3  -4   0 1.97491 2.09854   6
   3  -4   0 3.43777 2.38101   7
   3  -4   0 4.53433 1.71265   2
   3  -4   0 4.21788 2.42783   3
   3  -4   0 0.41001 2.26306   5
   2  -4   0 1194.33 41.8028   7
   2  -4   0 1221.56 38.5902   2
   2  -4   0 1140.25 43.8602   1
   2  -4   0 1189.66 39.0912   3
   2  -4   0 1298.25 43.5790   6
   2  -4   0 1226.97 43.3515   5
   2  -4   0 1282.85 44.8444   4
  -2   4   0 1218.36 43.1926   6
   1  -4   0 40.3560 5.47981   7
   1  -4   0 43.5026 6.39894   1
   1  -4   0 51.6160 6.83250   4
   1  -4   0 37.7685 5.79973   6
   1  -4   0 33.3248 3.44680   2
   1  -4   0 30.4235 4.87648   5
  -1   4   0 34.5504 4.93400   1
  -1   4   0 30.0970 4.97982   6
   0  -4   0 1702.80 54.4557   6
   0  -4   0 1717.65 53.3981   7
   0  -4   0 1778.91 53.4884   1
   0  -4   0 1740.36 50.9165   5
   0   4   0 1767.77 51.7659   1
   0   4   0 1730.86 54.7833   6
  -1  -4   0 3124.10 85.9071   3
  -1  -4   0 3103.36 87.0984   7
   1   4   0 3140.28 87.2552   1
   1   4   0 3052.12 88.6172   6
  -2  -4   0 102.737 7.92753   3
  -2  -4   0 87.2629 7.07534   7
   2   4   0 107.491 8.71882   6
  -3  -4   0 2465.26 69.9713   7
  -3  -4   0 2528.20 73.7344   3
  -3  -4   0 2496.43 67.7533   5
   3   4   0 2564.27 74.4441   3
   3   4   0 2490.44 68.5597   2
  -4  -4   0 22.3005 3.12597   7
  -4  -4   0 26.8632 5.31406   3
  -4  -4   0 26.3343 3.86801   5
   4   4   0 17.3474 3.30279   2
   4   4   0 17.9054 4.45240   3
  -5  -4   0 17.8532 4.54543   5
  -5  -4   0 12.2120 3.75102   3
   5   4   0 7.32979 2.50273   2
   5   4   0 10.5243 3.40935   3
  -6  -4   0 2540.39 79.7192   3
  -6  -4   0 2486.76 76.7876   5
   6   4   0 2504.26 81.2866   3
   6   4   0 2462.46 77.6068   2
  -7  -4   0 60.1288 9.25752   3
  -7  -4   0 62.2913 8.91309   5
   7   4   0 62.2062 9.90966   3
   7   4   0 55.3375 7.98008   2
  -8  -4   0 480.319 27.9089   5
  -8  -4   0 507.258 34.0373   4
   8   4   0 472.459 29.1560   3
   8   4   0 464.264 28.2578   2
  -9  -4   0 12.0491 7.30819   4
   9   4   0 41.2023 11.4401   3
   9   4   0 21.6311 6.33696   2
   6  -5   0 297.766 21.8730   2
   6  -5   0 336.027 22.1300   6
   6  -5   0 274.252 21.4227   7
   5  -5   0 465.145 30.9083   7
   5  -5   0 435.980 25.0488   2
   5  -5   0 446.308 22.3054   3
   5  -5   0 451.122 26.2160   6
   5  -5   0 384.416 28.6824   4
   5  -5   0 447.458 30.1470   1
   4  -5   0 405.661 21.5166   2
   4  -5   0 399.527 26.8186   1
   4  -5   0 478.624 26.9303   5
   4  -5   0 391.460 22.5416   7
   4  -5   0 437.420 24.4845   6
   4  -5   0 397.777 25.6706   4
   4  -5   0 425.085 21.0676   3
   3  -5   0 315.109 19.3890   6
   3  -5   0 305.937 17.3511   3
   3  -5   0 293.757 20.9086   1
   3  -5   0 324.979 20.7461   5
   3  -5   0 325.942 21.0734   4
   3  -5   0 312.610 16.5165   2
   3  -5   0 290.885 18.5169   7
   2  -5   0 25.3181 5.67704   7
   2  -5   0 39.1111 5.38829   3
   2  -5   0 25.1756 5.52439   5
   2  -5   0 21.3946 5.79406   4
   2  -5   0 37.4774 6.91379   6
   2  -5   0 28.8627 4.26586   2
   2  -5   0 22.0478 6.14793   1
  -2   5   0 32.6515 6.28907   6
   1  -5   0 616.943 27.6759   6
   1  -5   0 611.367 28.7507   4
   1  -5   0 570.748 25.1807   5
   1  -5   0 612.997 26.9913   7
   1  -5   0 640.269 28.9062   1
  -1   5   0 581.968 24.5753   1
  -1   5   0 638.339 28.2517   6
   0  -5   0 3239.23 89.9436   5
   0  -5   0 3182.16 95.1121   6
   0   5   0 3364.63 91.0162   1
   0   5   0 3136.47 94.9745   6
  -1  -5   0 47.7481 6.14988   7
  -1  -5   0 48.4541 5.81571   3
   1   5   0 46.0155 6.13403   1
   1   5   0 47.2217 6.68879   6
  -2  -5   0 2905.79 82.8840   3
  -2  -5   0 2802.17 82.2873   7
   2   5   0 2765.29 85.3418   6
   2   5   0 2946.70 88.1261   1
  -3  -5   0 1.31366 1.16670   7
  -3  -5   0 0.96049 1.34490   3
   3   5   0 -0.8597 0.75951   2
   3   5   0 1.46213 1.38157   6
  -4  -5   0 240.702 11.6027   5
  -4  -5   0 269.470 13.4728   7
  -4  -5   0 252.022 15.7200   3
   4   5   0 245.900 16.3543   6
   4   5   0 264.440 12.7879   2
  -5  -5   0 1412.70 51.1549   3
  -5  -5   0 1453.01 43.9565   7
  -5  -5   0 1489.75 46.2584   5
   5   5   0 1488.00 53.1956   3
   5   5   0 1454.62 47.4556   2
  -6  -5   0 4.69398 2.45018   5
   6   5   0 3.88881 2.14309   3
   6   5   0 4.55972 2.26892   2
  -7  -5   0 784.371 33.5160   5
   7   5   0 783.728 38.2859   3
   7   5   0 782.236 34.9964   2
  -8  -5   0 5.82101 3.71191   5
   8   5   0 12.8122 4.52293   2
   8   5   0 11.5810 4.98903   3
  -9  -5   0 1.27889 4.52652   4
   9   5   0 -7.3007 4.43365   3
   9   5   0 -2.9352 3.98656   2
   5  -6   0 5.67010 3.38217   2
   5  -6   0 9.94590 5.51247   6
   4  -6   0 511.364 23.6712   3
   4  -6   0 441.149 29.3986   4
   4  -6   0 488.133 23.7352   2
   4  -6   0 449.906 30.7697   1
   4  -6   0 450.817 28.4192   5
   4  -6   0 453.224 39.2448   6
   4  -6   0 435.996 25.7116   7
   3  -6   0 271.116 18.5373   7
   3  -6   0 291.393 17.8631   3
   3  -6   0 299.941 22.6704   1
   3  -6   0 314.157 20.9553   6
   3  -6   0 284.094 20.8650   4
   3  -6   0 282.941 15.9000   2
   3  -6   0 287.889 20.5181   5
   2  -6   0 386.758 22.7777   6
   2  -6   0 379.932 16.6992   2
   2  -6   0 356.258 21.6882   7
   2  -6   0 384.453 22.2901   5
   2  -6   0 407.859 25.4188   1
   2  -6   0 373.846 19.0439   3
   2  -6   0 393.641 24.2444   4
  -2   6   0 386.188 23.3070   6
   1  -6   0 632.451 29.9233   6
   1  -6   0 630.648 29.8380   1
   1  -6   0 604.871 28.7022   7
   1  -6   0 593.082 30.6684   4
   1  -6   0 582.141 26.7649   5
  -1   6   0 594.877 29.4466   6
   0  -6   0 484.763 24.0868   7
   0  -6   0 460.037 24.5784   6
   0  -6   0 475.565 20.9336   5
   0   6   0 497.198 25.5126   6
   0   6   0 456.304 20.7652   1
  -1  -6   0 1508.57 49.2746   3
  -1  -6   0 1369.09 61.3056   7
  -1  -6   0 1503.94 45.6482   5
   1   6   0 1550.51 54.4384   6
   1   6   0 1550.61 48.9198   1
  -2  -6   0 23.3141 5.15670   3
  -2  -6   0 33.4325 5.92796   7
   2   6   0 33.3444 6.51442   6
   2   6   0 46.1937 5.97152   1
  -3  -6   0 16.7713 4.60989   3
  -3  -6   0 18.2923 5.24117   7
   3   6   0 32.0573 6.75721   6
  -4  -6   0 1424.60 50.2574   3
  -4  -6   0 1392.71 46.0599   7
   4   6   0 1429.65 42.4905   2
   4   6   0 1408.53 52.2367   6
  -5  -6   0 0.05416 2.21301   3
  -5  -6   0 0.67383 2.01940   7
   5   6   0 -2.8758 1.71100   2
  -6  -6   0 846.295 30.9025   5
  -6  -6   0 795.701 28.2965   7
   6   6   0 794.934 32.5683   2
  -7  -6   0 54.4332 7.98312   5
  -7  -6   0 62.6063 9.60660   3
   7   6   0 51.1314 10.1363   3
   7   6   0 62.7571 14.2069   2
  -8  -6   0 37.7911 8.49467   5
   8   6   0 53.2719 10.3399   2
   8   6   0 24.0356 7.12842   3
   4  -7   0 -1.8137 3.43279   2
   3  -7   0 28.1738 6.28745   2
   3  -7   0 19.3168 5.11479   6
   3  -7   0 27.3392 7.38571   3
   3  -7   0 39.7264 10.7029   1
   3  -7   0 50.1226 10.0070   5
   2  -7   0 609.651 30.5182   5
   2  -7   0 629.189 33.7004   1
   2  -7   0 614.292 31.3894   7
   2  -7   0 588.800 33.4907   4
   2  -7   0 677.780 47.2972   6
   2  -7   0 596.522 27.0746   3
   1  -7   0 87.6882 12.4506   4
   1  -7   0 111.716 12.5856   7
   1  -7   0 120.576 12.5434   1
   1  -7   0 109.019 12.6165   6
   1  -7   0 104.910 10.8174   5
  -1   7   0 108.077 12.7849   6
   0  -7   0 1092.32 45.0439   6
   0  -7   0 1040.35 38.2753   5
   0   7   0 1093.85 39.0045   1
   0   7   0 1058.60 44.7429   6
  -1  -7   0 36.1818 6.45859   3
  -1  -7   0 28.2453 4.90511   5
  -1  -7   0 32.5296 6.39758   7
   1   7   0 26.9528 5.88590   1
   1   7   0 17.8022 7.03581   6
  -2  -7   0 119.420 11.4638   7
  -2  -7   0 108.217 10.3507   3
   2   7   0 98.1709 10.2867   1
   2   7   0 109.977 12.4287   6
  -3  -7   0 727.663 31.5378   7
  -3  -7   0 730.406 32.1285   3
   3   7   0 743.632 42.8909   6
   3   7   0 795.241 33.2397   1
  -4  -7   0 -1.8134 1.93636   3
  -4  -7   0 1.38562 2.28360   7
   4   7   0 -1.6978 1.58490   6
  -5  -7   0 1272.03 44.0192   7
  -5  -7   0 1263.87 49.5909   3
   5   7   0 1321.92 52.5683   6
  -6  -7   0 104.159 13.2061   3
   6   7   0 115.233 10.3326   2
   6   7   0 97.7042 12.7209   6
   7   7   0 -1.1071 2.95087   2
   7   7   0 12.5042 4.70757   6
   8   7   0 372.127 23.8570   2
   8   7   0 373.551 27.0101   6
   3  -8   0 101.675 14.6358   1
   2  -8   0 432.563 23.3094   3
   2  -8   0 461.905 28.4806   1
   2  -8   0 474.820 26.5789   5
   1  -8   0 637.966 30.5380   5
   1  -8   0 619.685 35.7429   4
   1  -8   0 683.348 35.7564   6
  -1   8   0 646.103 35.3959   6
   0  -8   0 -0.6166 2.40145   3
   0  -8   0 3.51867 2.96853   7
   0  -8   0 -3.7445 3.54009   4
   0  -8   0 -0.3246 2.90937   5
   0   8   0 0.35304 2.86400   6
   0   8   0 1.55553 2.02999   1
  -1  -8   0 1.11740 2.49862   5
  -1  -8   0 4.08692 2.73371   7
  -1  -8   0 -3.5263 2.35083   3
   1   8   0 -0.6939 2.61923   6
   1   8   0 3.08003 2.27142   1
  -2  -8   0 566.876 27.6129   3
  -2  -8   0 527.843 31.1128   7
   2   8   0 581.732 32.5303   6
   2   8   0 602.865 26.6090   1
  -3  -8   0 37.2003 8.08356   3
   3   8   0 46.6661 9.66130   6
   3   8   0 46.2189 8.69471   1
  -4  -8   0 900.156 39.0630   3
   4   8   0 867.643 42.1519   6
   4   8   0 948.939 39.6356   1
  -5  -8   0 5.75284 4.73075   3
   5   8   0 9.00959 3.71376   6
  -6  -8   0 96.8314 10.8124   7
   6   8   0 120.596 15.0506   6
  -7  -8   0 128.353 11.7037   7
   7   8   0 125.227 16.0094   6
   7   8   0 107.494 12.3030   2
   8   8   0 48.6729 10.9747   2
   8   8   0 51.1902 12.5579   6
   1  -9   0 10.7378 4.46883   3
   1  -9   0 3.19049 4.18603   5
  -1   9   0 10.4650 5.52569   6
   0  -9   0 70.1055 8.96107   5
   0  -9   0 64.7311 9.68704   3
   0   9   0 65.0818 13.4259   6
  -1  -9   0 226.694 15.8750   3
   1   9   0 210.122 20.4564   6
   1   9   0 200.035 14.8592   1
  -2  -9   0 386.902 23.2290   3
   2   9   0 393.427 27.9076   6
   2   9   0 427.432 21.7825   1
  -3  -9   0 954.882 41.9102   7
   3   9   0 954.435 38.2490   1
   3   9   0 925.830 46.0238   6
  -4  -9   0 -7.4551 3.58621   7
  -4  -9   0 -6.2205 3.21021   3
   4   9   0 -1.6670 2.82123   1
   4   9   0 -2.9142 3.08808   6
  -5  -9   0 3.80437 3.93804   7
   5   9   0 2.66847 3.18530   1
   5   9   0 -0.3498 3.65036   6
  -6  -9   0 269.897 20.7095   7
   6   9   0 295.311 38.6120   6
  -7  -9   0 6.52129 5.06785   7
   7   9   0 11.4334 4.82810   6
  -1 -10   0 206.560 17.6512   3
   1  10   0 205.496 22.5311   6
  -2 -10   0 263.858 19.2310   3
   2  10   0 245.910 23.2282   6
   2  10   0 215.803 16.4734   1
   3  10   0 -2.6130 3.52016   1
   3  10   0 0.08740 4.72605   6
   4  10   0 8.36856 4.89822   6
   4  10   0 7.27634 4.43637   1
   5  10   0 106.959 17.0686   6
   5  10   0 100.220 24.9017   1
   5  10  -1 82.0565 19.9859   6
   5  10  -1 96.7201 14.6908   1
   4  10  -1 398.245 29.3498   6
   4  10  -1 405.730 22.3151   1
   3  10  -1 6.80199 4.90627   6
   3  10  -1 -0.1115 3.19652   1
  -3 -10   1 4.55728 6.38349   3
   2  10  -1 12.7788 6.26319   6
   2  10  -1 9.21561 3.72806   1
  -2 -10   1 7.82943 5.03214   3
   1  10  -1 164.147 19.2424   6
  -1 -10   1 155.278 18.8426   3
   6   9  -1 205.467 20.8874   6
   5   9  -1 611.990 37.1099   6
   5   9  -1 622.786 31.6151   1
   4   9  -1 6.13161 3.58335   1
   4   9  -1 -2.3778 3.40718   6
  -4  -9   1 -2.5899 3.65696   3
  -4  -9   1 1.25257 4.06313   7
   3   9  -1 87.0374 13.5934   6
   3   9  -1 76.2812 10.0657   1
  -3  -9   1 93.8159 12.4966   7
  -3  -9   1 80.3105 13.3487   3
   2   9  -1 0.78270 2.25416   1
   2   9  -1 0.64010 3.69871   6
  -2  -9   1 0.16867 3.53123   3
   1   9  -1 81.4140 14.0910   6
   1   9  -1 80.7687 9.24719   1
  -1  -9   1 60.9249 8.17677   5
  -1  -9   1 82.9707 10.3029   3
   0   9  -1 296.228 24.8896   6
   0  -9   1 335.291 18.6621   5
   0  -9   1 292.203 18.0895   3
  -1   9  -1 4.97138 4.73413   6
   1  -9   1 3.94078 3.34069   3
   1  -9   1 3.87798 4.01436   3
   1  -9   1 -0.0125 4.47723   5
   7   8  -1 91.2095 14.2246   6
   7   8  -1 106.967 11.7708   2
   6   8  -1 860.259 43.8046   6
   6   8  -1 876.551 32.0984   2
  -6  -8   1 846.255 33.9501   7
   5   8  -1 1.86797 2.94640   6
  -5  -8   1 4.33450 3.33301   3
  -5  -8   1 1.91823 2.91013   7
   4   8  -1 97.8830 13.1887   6
   4   8  -1 117.158 12.3560   1
  -4  -8   1 115.905 12.1884   3
   3   8  -1 165.549 13.4275   1
   3   8  -1 168.558 16.4641   6
  -3  -8   1 179.726 14.7687   3
   2   8  -1 423.403 26.8200   6
   2   8  -1 425.910 20.0763   1
  -2  -8   1 440.235 22.7425   3
  -2  -8   1 398.921 24.4662   7
   1   8  -1 1326.62 54.9161   6
   1   8  -1 1323.12 44.3687   1
  -1  -8   1 1390.32 52.7946   7
  -1  -8   1 1312.50 44.6473   5
  -1  -8   1 1372.91 47.6693   3
   0   8  -1 8.81692 3.95043   6
   0  -8   1 0.15814 2.94770   5
   0  -8   1 8.44324 2.74892   3
   0  -8   1 3.72353 3.85383   4
   0  -8   1 5.46424 2.96128   7
  -1   8  -1 326.451 23.5951   6
   1  -8   1 338.998 18.6488   3
   1  -8   1 318.762 28.3453   4
   1  -8   1 331.574 19.7961   5
  -2   8  -1 0.45973 3.55522   6
   2  -8   1 9.12694 2.74562   1
   2  -8   1 0.12462 4.53656   5
   3  -8   1 42.8402 11.4133   1
   8   7  -1 357.778 27.6825   6
   8   7  -1 363.329 24.0111   2
  -8  -7   1 379.028 21.1245   5
   7   7  -1 580.389 34.2961   6
   7   7  -1 612.870 29.1500   2
  -7  -7   1 615.086 27.0247   5
   6   7  -1 15.1988 4.27903   2
   6   7  -1 14.8645 5.29078   6
  -6  -7   1 31.7221 6.58286   7
  -6  -7   1 39.2972 8.80814   3
  -6  -7   1 16.9496 4.00088   5
   5   7  -1 63.7638 10.4948   6
   5   7  -1 57.1550 6.53011   2
  -5  -7   1 48.9760 7.27081   7
  -5  -7   1 77.0494 9.56902   3
   4   7  -1 94.3358 11.8001   6
  -4  -7   1 97.4092 10.5396   3
  -4  -7   1 76.3609 8.92504   7
   3   7  -1 540.984 31.3602   6
   3   7  -1 535.902 24.8215   1
  -3  -7   1 492.056 24.7933   3
  -3  -7   1 521.291 25.0842   7
   2   7  -1 799.151 48.6698   6
   2   7  -1 826.305 30.7470   1
  -2  -7   1 778.569 32.2784   3
  -2  -7   1 805.857 34.3108   7
   1   7  -1 71.7909 7.27216   1
  -1  -7   1 78.5542 7.52606   5
  -1  -7   1 71.5638 8.59013   3
  -1  -7   1 87.1089 10.1083   7
   0   7  -1 275.849 20.0842   6
   0   7  -1 281.830 15.0248   1
   0  -7   1 288.012 15.6729   3
   0  -7   1 267.418 16.2578   5
  -1   7  -1 200.058 17.1879   6
   1  -7   1 192.725 17.7392   4
   1  -7   1 217.274 17.3859   6
   1  -7   1 225.826 16.0394   5
  -2   7  -1 134.375 14.0215   6
   2  -7   1 139.060 14.6403   1
   2  -7   1 111.933 15.1088   4
   2  -7   1 132.711 14.0982   6
   2  -7   1 130.989 13.3978   7
   2  -7   1 117.188 12.9066   5
   3  -7   1 966.942 45.4411   1
   3  -7   1 920.847 43.2063   5
   3  -7   1 958.773 34.2197   2
   3  -7   1 934.480 42.8751   6
   4  -7   1 41.6404 7.65000   2
   4  -7   1 11.2087 5.82106   1
   8   6  -1 275.736 26.4354   3
   8   6  -1 267.195 20.2137   2
  -8  -6   1 241.772 18.4118   5
   7   6  -1 298.303 22.2509   3
   7   6  -1 252.713 17.8646   2
  -7  -6   1 243.015 16.3386   5
  -7  -6   1 205.563 20.0612   3
   6   6  -1 186.634 13.7475   2
   6   6  -1 215.788 17.5855   3
  -6  -6   1 188.240 13.2035   5
   5   6  -1 144.493 14.1088   6
   5   6  -1 143.756 9.80879   2
  -5  -6   1 119.143 11.8751   3
  -5  -6   1 130.029 9.40092   7
  -5  -6   1 132.638 9.59178   5
   4   6  -1 1338.70 40.9353   2
   4   6  -1 1383.60 51.7364   6
  -4  -6   1 1358.00 44.4013   7
  -4  -6   1 1352.60 41.6900   5
  -4  -6   1 1339.34 48.5988   3
  -3  -6   1 3186.11 93.5400   7
  -3  -6   1 3022.39 91.4384   3
   2   6  -1 528.926 27.5861   1
   2   6  -1 452.203 24.8285   6
  -2  -6   1 491.329 23.0611   7
  -2  -6   1 500.193 22.7014   3
   1   6  -1 852.351 35.8456   6
   1   6  -1 789.289 31.8196   1
  -1  -6   1 812.965 30.9405   3
  -1  -6   1 847.894 33.9117   7
   0   6  -1 17.7314 5.03645   6
   0   6  -1 16.5875 4.03674   1
   0  -6   1 21.9085 4.47838   3
   0  -6   1 11.4632 3.15014   5
   0  -6   1 7.46025 2.79371   7
  -1   6  -1 255.577 17.7883   6
   1  -6   1 237.241 16.5980   7
   1  -6   1 252.016 19.0837   5
   1  -6   1 253.488 16.6855   1
   1  -6   1 219.602 18.3118   4
   1  -6   1 245.171 17.2311   6
  -2   6  -1 926.930 39.3754   6
   2  -6   1 924.715 39.2763   6
   2  -6   1 950.942 41.1204   1
   2  -6   1 890.912 32.9301   3
   2  -6   1 906.886 38.5939   7
   2  -6   1 922.916 41.8673   4
   2  -6   1 990.398 39.7168   5
   2  -6   1 901.351 30.7408   2
   3  -6   1 -1.5961 2.05446   6
   3  -6   1 -3.3750 2.42390   5
   3  -6   1 0.81358 2.05747   7
   3  -6   1 -1.7830 2.60195   1
   4  -6   1 196.774 18.3496   5
   4  -6   1 169.382 15.3814   7
   4  -6   1 188.175 25.3765   4
   4  -6   1 185.190 16.3685   6
   4  -6   1 170.452 17.7251   1
   4  -6   1 182.275 13.9576   2
   5  -6   1 -7.6373 2.81098   2
   5  -6   1 -1.4353 3.10722   6
   9   5  -1 107.332 16.5708   2
   9   5  -1 159.437 24.3957   3
  -9  -5   1 118.738 15.5249   5
  -9  -5   1 127.140 19.9706   4
   8   5  -1 240.948 21.7215   3
   8   5  -1 217.903 18.8674   2
  -8  -5   1 240.320 18.7797   5
   7   5  -1 238.199 17.5843   2
   7   5  -1 285.558 21.4952   3
  -7  -5   1 243.926 17.0611   5
   6   5  -1 70.1960 9.88803   3
   6   5  -1 64.5288 7.96910   2
  -6  -5   1 71.3899 8.14534   5
   5   5  -1 911.278 33.3125   2
   5   5  -1 889.644 38.2179   3
  -5  -5   1 936.654 37.2757   3
  -5  -5   1 906.277 29.5788   7
  -5  -5   1 925.945 33.2621   5
   4   5  -1 779.833 27.7560   2
   4   5  -1 816.306 33.6847   3
  -4  -5   1 807.405 28.0183   7
  -4  -5   1 839.874 33.0052   3
  -4  -5   1 792.049 28.4638   5
   3   5  -1 744.580 31.2386   6
   3   5  -1 684.548 22.6133   2
  -3  -5   1 723.346 26.6708   7
  -3  -5   1 719.779 28.8053   3
   2   5  -1 489.319 23.7121   6
   2   5  -1 497.657 20.6921   1
  -2  -5   1 456.035 20.7218   3
  -2  -5   1 508.749 21.4908   7
   1   5  -1 155.314 12.0382   6
   1   5  -1 154.867 9.58376   1
  -1  -5   1 158.854 11.2322   7
  -1  -5   1 145.897 10.0148   3
   0   5  -1 918.309 30.9010   1
   0   5  -1 985.621 37.0782   6
   0  -5   1 867.154 44.3725   7
   0  -5   1 964.217 36.4283   6
  -1   5  -1 2699.57 81.7812   6
   1  -5   1 2725.05 79.9501   5
   1  -5   1 2578.59 84.0267   4
   1  -5   1 2786.71 82.0684   1
   1  -5   1 2607.56 80.6994   7
  -2   5  -1 1.05583 1.55477   6
   2  -5   1 0.35976 1.52620   6
   2  -5   1 0.87542 1.48667   7
   2  -5   1 0.94557 1.24259   2
   2  -5   1 2.98834 2.02490   1
   2  -5   1 0.86557 2.06388   5
   2  -5   1 1.77141 1.70232   4
   2  -5   1 -2.7396 1.10805   3
   3  -5   1 680.242 26.6918   2
   3  -5   1 627.811 29.9325   6
   3  -5   1 609.372 31.8964   1
   3  -5   1 727.440 27.2929   3
   3  -5   1 687.812 33.6022   4
   3  -5   1 703.659 33.0250   5
   3  -5   1 681.000 30.3156   7
   4  -5   1 11.5064 3.97241   7
   4  -5   1 11.5908 5.11534   5
   4  -5   1 22.8723 5.57286   2
   4  -5   1 33.6235 7.66754   1
   4  -5   1 15.5690 3.52633   3
   4  -5   1 6.77540 4.32018   4
   4  -5   1 22.3663 6.38252   6
   5  -5   1 267.835 18.8973   6
   5  -5   1 256.689 21.2460   1
   5  -5   1 249.675 14.8514   3
   5  -5   1 277.697 18.4896   2
   5  -5   1 213.878 19.4840   7
   6  -5   1 413.719 26.0085   2
   6  -5   1 413.199 24.6147   6
   9   4  -1 440.353 30.1059   2
   9   4  -1 454.993 31.4777   3
  -9  -4   1 432.206 34.0991   4
   8   4  -1 372.544 24.8570   2
   8   4  -1 449.644 28.6478   3
  -8  -4   1 393.876 25.3622   5
  -8  -4   1 384.482 29.8408   4
   7   4  -1 155.983 15.5188   3
   7   4  -1 161.989 14.4410   2
  -7  -4   1 160.574 16.4731   3
  -7  -4   1 152.556 14.1053   5
   6   4  -1 491.137 24.6677   2
  -6  -4   1 507.860 24.7906   5
   5   4  -1 1919.74 59.8397   2
   5   4  -1 1894.15 63.6996   3
  -5  -4   1 1870.38 61.8101   3
  -5  -4   1 1907.71 59.4387   5
   4   4  -1 414.694 20.9474   3
   4   4  -1 388.362 17.3357   2
  -4  -4   1 407.539 15.1579   7
  -4  -4   1 379.106 17.0945   5
   3   4  -1 2155.80 62.0738   2
   3   4  -1 2290.79 68.0981   3
  -3  -4   1 2238.29 62.8429   5
  -3  -4   1 2267.67 63.2378   7
  -3  -4   1 2284.58 67.1289   3
   2   4  -1 910.182 33.7607   6
  -2  -4   1 933.144 31.8287   3
  -2  -4   1 926.831 30.9026   7
   1   4  -1 660.271 23.5230   1
   1   4  -1 655.404 26.2840   6
  -1  -4   1 666.385 24.7231   7
  -1  -4   1 634.371 23.4188   3
   0   4  -1 2497.28 75.1091   7
   0   4  -1 2687.70 76.6441   6
   0   4  -1 2637.01 71.3984   1
   0  -4   1 2524.43 75.0702   7
   0  -4   1 2554.47 76.0138   6
   0  -4   1 2680.75 73.1245   1
  -1   4  -1 457.226 21.0705   7
  -1   4  -1 457.783 20.9579   6
   1  -4   1 473.721 21.1397   1
   1  -4   1 445.673 20.5881   7
   1  -4   1 457.240 20.5696   5
   1  -4   1 475.459 21.2760   6
   1  -4   1 486.118 23.1987   4
  -2   4  -1 1768.09 55.2540   6
  -2   4  -1 1727.79 55.4772   7
   2  -4   1 1615.29 55.2382   1
   2  -4   1 1717.23 55.6500   7
   2  -4   1 1827.84 56.9615   5
   2  -4   1 1729.63 55.0829   6
   2  -4   1 1545.61 49.5842   3
  -3   4  -1 5.95824 2.16925   7
   3  -4   1 10.2647 3.36526   4
   3  -4   1 6.57394 2.33734   2
   3  -4   1 7.71592 2.92467   7
   3  -4   1 10.9819 2.87046   3
   3  -4   1 10.4749 4.09820   5
   3  -4   1 9.44848 3.28471   6
   4  -4   1 240.099 16.0082   6
   4  -4   1 240.636 18.6452   5
   4  -4   1 229.074 17.7706   4
   4  -4   1 234.084 17.8631   1
   4  -4   1 244.808 13.3067   3
   4  -4   1 234.977 15.3808   2
   4  -4   1 219.842 14.9943   7
   5  -4   1 858.514 42.2118   2
   5  -4   1 777.471 55.1701   4
   5  -4   1 758.625 39.0458   5
   5  -4   1 772.480 34.2584   7
   5  -4   1 795.542 38.7412   1
   5  -4   1 757.118 29.8302   3
   5  -4   1 764.133 33.7855   6
   6  -4   1 5.60587 3.22004   3
   6  -4   1 3.62204 3.08526   6
   6  -4   1 1.84577 3.77982   2
   9   3  -1 131.099 16.4927   2
   9   3  -1 150.518 17.2931   3
  -9  -3   1 109.185 19.2740   4
   8   3  -1 -1.3725 3.37525   3
   8   3  -1 -1.1782 2.16043   2
  -8  -3   1 2.71714 4.03542   5
  -8  -3   1 -0.6691 3.10053   4
   7   3  -1 521.624 28.0990   2
   7   3  -1 517.246 28.7261   3
  -7  -3   1 460.171 36.6459   5
  -7  -3   1 497.979 27.9652   3
  -7  -3   1 513.087 31.5911   4
   6   3  -1 353.906 21.2689   3
   6   3  -1 344.474 20.1830   2
  -6  -3   1 338.743 19.8038   3
  -6  -3   1 311.590 19.3856   5
   5   3  -1 1307.88 46.7750   3
   5   3  -1 1291.30 44.4844   2
  -5  -3   1 1271.05 44.4787   5
  -5  -3   1 1250.62 44.9957   3
   4   3  -1 2995.84 85.9502   3
   4   3  -1 2819.23 82.4356   2
  -4  -3   1 2901.05 82.7676   5
  -4  -3   1 2931.77 84.4444   3
   3   3  -1 211.033 12.4573   3
   3   3  -1 202.692 10.4978   2
  -3  -3   1 225.179 12.3061   3
  -3  -3   1 212.749 10.7323   5
  -3  -3   1 219.488 9.19594   7
   2   3  -1 1049.45 34.1035   3
   2   3  -1 983.656 29.4295   2
  -2  -3   1 1036.45 31.0887   7
   1   3  -1 5228.70 138.144   6
   1   3  -1 5041.42 135.941   7
  -1  -3   1 5277.39 136.161   7
  -1  -3   1 5235.91 135.462   3
   0   3  -1 1764.65 48.8378   1
   0   3  -1 1790.55 55.7194   7
   0   3  -1 1725.40 52.3126   6
   0  -3   1 1791.23 52.5269   6
   0  -3   1 1811.36 50.2580   1
   0  -3   1 1712.61 51.5046   7
  -1   3  -1 4299.92 108.484   6
  -1   3  -1 3760.53 103.164   7
   1  -3   1 3755.80 102.734   7
   1  -3   1 3828.31 105.448   4
   1  -3   1 3665.74 98.0100   2
   1  -3   1 3352.50 101.417   1
   1  -3   1 3753.31 102.864   6
  -2   3  -1 456.370 19.9839   7
  -2   3  -1 426.078 19.1384   6
   2  -3   1 446.051 17.6922   2
   2  -3   1 422.697 17.0291   3
   2  -3   1 481.642 19.9236   7
   2  -3   1 489.384 19.9489   6
   2  -3   1 486.394 20.7650   1
   2  -3   1 458.380 21.6133   4
   2  -3   1 465.509 21.2598   5
  -3   3  -1 95.5139 8.71113   7
  -3   3  -1 116.814 10.6473   4
   3  -3   1 97.7930 8.65490   6
   3  -3   1 126.960 14.4727   4
   3  -3   1 105.888 8.73932   7
   3  -3   1 103.193 8.47302   2
   3  -3   1 104.302 7.49413   3
   3  -3   1 102.358 13.4582   5
   3  -3   1 97.2688 9.47193   1
  -4   3  -1 1105.24 43.5102   4
  -4   3  -1 1064.22 39.3440   7
   4  -3   1 1140.61 40.0462   6
   4  -3   1 1041.93 43.3463   4
   4  -3   1 1072.48 42.7442   1
   4  -3   1 1181.80 45.2165   5
   4  -3   1 1146.97 36.9055   3
   4  -3   1 1151.55 40.8365   2
   4  -3   1 1056.95 43.2374   7
  -5   3  -1 21.4220 6.24144   4
   5  -3   1 16.6480 3.98509   6
   5  -3   1 8.44966 3.55265   1
   5  -3   1 9.79761 3.41718   2
   5  -3   1 8.47705 3.78343   5
   5  -3   1 18.3270 4.60183   7
   5  -3   1 11.1875 4.27957   4
   5  -3   1 16.6793 4.30319   3
  -6   3  -1 816.819 39.6103   4
   6  -3   1 758.574 38.3426   1
   6  -3   1 746.562 30.8632   3
   6  -3   1 804.870 33.8586   6
   6  -3   1 724.067 39.2974   4
   6  -3   1 772.768 39.8338   5
   6  -3   1 756.723 36.3587   2
  -7   3  -1 16.4463 6.79509   4
   7  -3   1 7.59658 3.33079   6
   7  -3   1 2.05518 4.13174   2
   7  -3   1 8.86448 4.76570   3
  -9  -2   1 0.05695 5.36456   4
   8   2  -1 186.740 18.0672   5
   8   2  -1 176.638 17.4178   2
   8   2  -1 180.610 17.2530   3
  -8  -2   1 152.258 17.3388   3
  -8  -2   1 152.479 17.8937   4
  -8  -2   1 162.301 17.3822   5
   7   2  -1 193.891 16.3987   2
   7   2  -1 190.330 16.4810   3
  -7  -2   1 199.788 18.5254   4
  -7  -2   1 176.273 16.3692   5
   6   2  -1 950.897 39.1817   3
   6   2  -1 899.219 38.1091   5
   6   2  -1 928.870 38.3611   2
  -6  -2   1 924.690 37.9781   3
  -6  -2   1 909.654 38.6775   5
  -6  -2   1 1039.45 43.0090   4
   5   2  -1 1232.93 43.5810   5
   5   2  -1 1238.94 43.5628   2
   5   2  -1 1240.27 44.2929   3
  -5  -2   1 1172.74 42.5730   3
  -5  -2   1 1205.53 43.9272   5
   4   2  -1 113.913 8.89355   5
   4   2  -1 107.737 8.60797   2
   4   2  -1 110.664 9.25599   3
  -4  -2   1 109.315 8.90071   3
  -4  -2   1 112.336 9.01863   5
   3   2  -1 1805.08 53.4887   3
   3   2  -1 1745.17 52.2802   2
  -3  -2   1 1764.06 52.6342   3
  -3  -2   1 1759.00 51.9686   5
   2   2  -1 115.858 7.54946   3
   2   2  -1 122.696 6.62599   2
  -2  -2   1 136.636 5.97641   7
  -2  -2   1 135.156 7.77634   3
  -2  -2   1 129.521 7.01290   5
   1   2  -1 7372.95 189.159   7
   1   2  -1 7458.71 189.932   3
  -1  -2   1 7411.94 189.596   3
  -1  -2   1 7575.49 189.156   7
   0   2  -1 5295.47 139.750   7
   0   2  -1 5552.46 137.326   1
   0   2  -1 5383.95 140.305   6
   0  -2   1 5256.40 140.128   6
   0  -2   1 5499.70 138.320   1
   0  -2   1 5501.06 139.889   7
  -1   2  -1 407.858 15.0950   6
  -1   2  -1 386.076 15.1061   7
  -1   2  -1 374.744 13.0174   2
   1  -2   1 362.233 14.7366   7
   1  -2   1 381.490 14.8290   6
   1  -2   1 409.600 16.6318   4
   1  -2   1 369.550 13.0458   2
   1  -2   1 376.864 14.5250   1
  -2   2  -1 385.948 17.3683   4
  -2   2  -1 365.968 15.7009   7
  -2   2  -1 368.649 14.9218   2
   2  -2   1 379.599 15.3119   2
   2  -2   1 383.797 14.2994   3
   2  -2   1 374.939 16.5833   1
   2  -2   1 366.703 15.4228   6
   2  -2   1 405.709 17.8196   5
   2  -2   1 368.756 15.4517   7
   2  -2   1 381.630 17.4820   4
  -3   2  -1 2201.42 63.7286   7
  -3   2  -1 2210.37 67.2456   4
   3  -2   1 2130.91 64.3673   2
   3  -2   1 2171.93 66.5198   1
   3  -2   1 2194.77 63.4719   7
   3  -2   1 2245.75 61.6469   3
   3  -2   1 2297.62 68.4635   5
   3  -2   1 2189.29 67.7807   4
   3  -2   1 2090.98 63.0622   6
  -4   2  -1 282.206 17.5192   4
  -4   2  -1 294.977 13.8638   3
  -4   2  -1 296.504 15.0663   7
   4  -2   1 289.585 16.6103   2
   4  -2   1 298.306 18.1145   1
   4  -2   1 286.020 14.1635   3
   4  -2   1 313.269 15.6335   7
   4  -2   1 286.283 15.1756   6
   4  -2   1 296.256 18.4169   5
   4  -2   1 290.943 18.2406   4
  -5   2  -1 1161.72 39.5716   7
  -5   2  -1 1143.64 38.6906   3
  -5   2  -1 1179.69 45.6117   4
   5  -2   1 1117.12 40.3633   6
   5  -2   1 1157.85 46.8148   4
   5  -2   1 1084.98 44.7216   1
   5  -2   1 1113.09 38.8870   3
   5  -2   1 1204.28 44.3849   2
  -6   2  -1 161.090 15.4849   4
  -6   2  -1 141.772 11.2617   3
   6  -2   1 158.136 14.5210   2
   6  -2   1 159.119 12.2845   6
   6  -2   1 147.239 14.4031   1
   6  -2   1 147.020 11.5067   3
  -7   2  -1 136.962 16.0798   4
   7  -2   1 149.905 12.6343   6
   7  -2   1 161.657 13.1361   3
   7  -2   1 169.237 16.8507   2
  -8   2  -1 251.813 22.3210   4
   8  -2   1 201.825 19.9404   2
   8  -2   1 198.267 16.4808   3
   8  -2   1 206.312 15.5041   6
   8   1  -1 13.1216 4.99157   3
   8   1  -1 8.45210 4.50414   2
  -8  -1   1 11.6897 6.07997   4
  -8  -1   1 15.1154 5.63558   3
   7   1  -1 1460.28 55.5362   3
   7   1  -1 1479.32 56.8480   2
   7   1  -1 1548.57 74.8228   5
  -7  -1   1 1442.57 58.3812   4
  -7  -1   1 1422.83 57.5099   5
   6   1  -1 887.423 38.8213   2
   6   1  -1 858.133 37.5982   5
   6   1  -1 892.592 37.1013   3
  -6  -1   1 934.412 38.0366   3
  -6  -1   1 904.289 39.6443   4
  -6  -1   1 890.008 38.9280   5
   5   1  -1 164.889 12.7764   5
   5   1  -1 172.443 12.8377   2
   5   1  -1 173.563 12.8777   3
  -5  -1   1 175.952 13.5406   5
  -5  -1   1 164.963 12.4862   3
  -5  -1   1 185.143 14.4497   4
   4   1  -1 179.797 11.9471   5
   4   1  -1 161.560 11.2413   3
   4   1  -1 176.451 11.7798   2
  -4  -1   1 190.839 11.9465   3
  -4  -1   1 179.078 12.7531   4
  -4  -1   1 185.079 12.5150   5
   3   1  -1 447.278 18.5656   5
   3   1  -1 438.972 18.4229   3
   3   1  -1 456.115 18.3119   2
  -3  -1   1 449.957 18.2073   3
   2   1  -1 1695.00 47.9739   3
   2   1  -1 1670.19 47.1293   2
   2   1  -1 1664.00 47.6577   5
  -2  -1   1 1655.30 47.5835   3
  -2  -1   1 1706.65 47.8361   5
   1   1  -1 2630.25 67.5316   7
   1   1  -1 2681.09 69.8059   3
  -1  -1   1 2648.31 67.5169   7
  -1  -1   1 2667.52 69.5860   3
   0   1  -1 782.155 22.7690   7
   0   1  -1 797.998 21.5245   3
   0  -1   1 845.375 21.2250   2
   0  -1   1 791.903 22.7678   7
   0  -1   1 805.866 21.5097   3
  -1   1  -1 920.312 27.5701   4
  -1   1  -1 907.826 26.4349   7
  -1   1  -1 872.225 27.1087   2
  -1   1  -1 921.610 25.8540   6
   1  -1   1 897.009 25.7226   6
   1  -1   1 934.862 27.7871   4
   1  -1   1 887.287 26.3002   7
   1  -1   1 870.203 25.7123   2
  -2   1  -1 1646.51 46.6014   2
  -2   1  -1 1576.55 45.5632   7
  -2   1  -1 1611.88 48.1240   4
  -2   1  -1 1588.96 44.8447   3
   2  -1   1 1610.04 45.7435   7
   2  -1   1 1649.96 45.3877   6
   2  -1   1 1618.48 48.5497   4
   2  -1   1 1635.36 44.5198   3
   2  -1   1 1670.06 48.7464   5
   2  -1   1 1641.93 46.8167   2
  -3   1  -1 2136.69 62.7021   3
  -3   1  -1 2241.37 61.9910   7
  -3   1  -1 2240.74 64.4235   2
  -3   1  -1 2233.76 66.3001   4
   3  -1   1 2250.70 67.1468   4
   3  -1   1 2299.72 62.8081   7
   3  -1   1 2233.76 61.9671   3
   3  -1   1 2237.27 65.0276   2
   3  -1   1 2194.63 66.6955   5
   3  -1   1 2236.39 62.4719   6
  -4   1  -1 3794.58 108.633   7
  -4   1  -1 3912.54 111.410   4
  -4   1  -1 3681.15 106.937   3
   4  -1   1 4053.23 106.737   6
   4  -1   1 3911.91 112.442   5
   4  -1   1 3907.44 106.090   3
   4  -1   1 3976.74 112.989   4
   4  -1   1 3996.30 110.392   2
  -5   1  -1 4.70509 2.56133   4
  -5   1  -1 8.98133 2.31411   7
  -5   1  -1 6.28010 2.57526   3
   5  -1   1 4.25803 2.33303   2
   5  -1   1 6.23982 2.48202   3
   5  -1   1 3.80627 1.86592   6
   5  -1   1 3.56544 1.60679   5
  -6   1  -1 73.0246 9.15786   3
  -6   1  -1 83.6224 7.45522   7
  -6   1  -1 87.2200 11.2773   4
   6  -1   1 80.2186 9.95538   2
   6  -1   1 85.7840 8.94207   3
   6  -1   1 82.4045 8.77138   6
  -7   1  -1 504.918 25.7402   3
  -7   1  -1 535.698 31.0389   4
   7  -1   1 520.928 24.8201   6
   7  -1   1 494.091 30.0688   1
   7  -1   1 562.502 32.1460   5
   7  -1   1 504.966 25.6551   3
   7  -1   1 495.910 29.3732   2
  -8   1  -1 25.0219 7.42887   3
   8  -1   1 49.3706 11.3905   2
   8  -1   1 49.8751 8.41036   6
   8  -1   1 47.4021 8.63682   3
   8   0  -1 530.114 33.4928   2
   8   0  -1 537.385 30.4082   3
  -8   0   1 525.122 29.4640   3
  -8   0   1 519.417 33.1095   4
   7   0  -1 501.338 29.6728   5
   7   0  -1 488.964 28.9848   1
   7   0  -1 507.756 27.4734   3
   7   0  -1 491.264 28.6450   2
  -7   0   1 511.444 29.5807   4
  -7   0   1 513.175 30.4115   5
   6   0  -1 2.73844 2.95939   5
   6   0  -1 5.53588 3.03693   3
   6   0  -1 4.45268 2.70446   2
  -6   0   1 2.27117 2.65001   3
  -6   0   1 4.39529 3.09524   4
  -6   0   1 3.64193 3.12760   5
   5   0  -1 262.499 16.1019   3
   5   0  -1 246.834 17.2270   5
   5   0  -1 255.904 16.5410   2
  -5   0   1 282.026 18.0109   4
  -5   0   1 258.909 17.6979   5
  -5   0   1 271.080 17.3122   3
   4   0  -1 140.479 10.1584   3
   4   0  -1 135.004 10.3762   2
   4   0  -1 117.489 10.0937   5
  -4   0   1 131.576 10.9297   5
  -4   0   1 135.007 10.3380   3
  -4   0   1 140.582 11.0387   4
   3   0  -1 2999.71 82.0738   2
   3   0  -1 2688.04 81.9499   5
   3   0  -1 3048.34 82.4799   3
  -3   0   1 2919.47 87.1691   4
  -3   0   1 2973.90 82.0577   3
  -3   0   1 2871.87 83.1566   5
   2   0  -1 5043.97 133.121   2
   2   0  -1 4950.16 133.863   5
   2   0  -1 5127.29 133.278   3
  -2   0   1 5303.78 133.985   4
  -2   0   1 5151.35 133.565   3
  -2   0   1 5097.42 134.374   5
   1   0  -1 1304.14 36.6941   3
   1   0  -1 1254.81 36.9142   5
  -1   0   1 1344.88 36.9499   5
  -1   0   1 1389.64 38.6629   3
  -1   0  -1 570.498 16.9034   2
  -1   0  -1 565.779 15.7660   3
  -1   0  -1 548.142 17.2284   4
   1   0   1 572.752 16.9263   2
   1   0   1 533.258 17.2611   4
   1   0   1 581.278 15.8104   3
  -2   0  -1 5938.21 149.272   2
  -2   0  -1 5679.57 150.044   4
   2   0   1 5876.97 147.436   3
   2   0   1 5556.01 149.456   5
   2   0   1 5799.69 150.561   4
   2   0   1 5793.38 149.253   2
  -3   0  -1 2282.60 66.4787   4
  -3   0  -1 2371.40 63.6956   3
  -3   0  -1 2281.01 64.9567   2
  -3   0  -1 2191.80 65.9715   5
  -3   0  -1 2278.02 60.9657   7
   3   0   1 2248.61 62.9906   3
   3   0   1 2310.86 65.5545   2
   3   0   1 2223.89 65.7603   5
  -4   0  -1 236.982 10.3179   7
  -4   0  -1 226.377 12.5527   3
  -4   0  -1 230.112 14.5707   4
  -4   0  -1 253.234 13.9473   2
   4   0   1 233.912 12.3799   3
   4   0   1 244.511 14.6362   5
   4   0   1 238.916 13.9357   2
  -5   0  -1 97.6432 9.12973   3
  -5   0  -1 98.9585 6.54965   7
  -5   0  -1 111.264 10.8915   4
   5   0   1 101.797 10.3009   5
   5   0   1 105.991 10.2519   2
   5   0   1 103.044 8.82209   3
  -6   0  -1 231.002 17.6249   4
  -6   0  -1 225.188 15.8161   3
   6   0   1 252.467 18.8762   2
   6   0   1 231.961 17.2867   5
   6   0   1 224.115 14.9499   3
  -7   0  -1 453.474 27.9212   4
  -7   0  -1 491.721 26.3510   3
   7   0   1 459.551 27.2328   2
   7   0   1 482.078 28.4640   5
   7   0   1 465.203 24.6645   3
  -8   0  -1 919.055 45.5375   4
  -8   0  -1 896.789 58.1229   3
   8   0   1 989.728 45.4994   2
   8   0   1 921.779 37.0267   6
   8   0   1 912.803 40.2155   3
   8  -1  -1 298.155 21.9878   3
   8  -1  -1 280.885 23.8186   2
   8  -1  -1 323.349 25.9123   6
   7  -1  -1 100.963 11.9147   3
   7  -1  -1 78.0583 9.65842   6
   7  -1  -1 76.8572 11.5708   2
  -7   1   1 78.8364 12.2405   4
   6  -1  -1 17.6514 4.91164   3
   6  -1  -1 7.60940 3.39329   2
  -6   1   1 14.6674 5.03159   4
  -6   1   1 13.6843 3.67365   3
  -6   1   1 12.6904 4.91707   5
   5  -1  -1 339.909 20.7860   1
   5  -1  -1 329.399 19.6046   2
   5  -1  -1 323.177 20.3640   5
   5  -1  -1 354.284 19.0285   3
  -5   1   1 347.255 20.4470   4
  -5   1   1 323.010 18.3163   3
  -5   1   1 338.430 21.1286   5
   4  -1  -1 2397.86 69.7329   3
   4  -1  -1 2291.65 70.4560   2
   4  -1  -1 2325.61 64.3195   7
   4  -1  -1 2223.53 77.1544   5
  -4   1   1 2221.88 68.9979   3
  -4   1   1 2398.03 73.1423   5
  -4   1   1 2263.96 70.7907   4
   3  -1  -1 2393.74 71.4730   5
   3  -1  -1 2501.81 71.6176   4
   3  -1  -1 2402.57 65.7555   7
   3  -1  -1 2417.82 70.1131   2
   3  -1  -1 2415.27 71.7236   1
   3  -1  -1 2497.48 70.0052   3
  -3   1   1 2288.67 69.1902   3
  -3   1   1 2443.41 70.7738   4
  -3   1   1 2423.15 72.1902   5
   2  -1  -1 13.0832 2.85963   3
   2  -1  -1 14.5881 2.26353   7
   2  -1  -1 17.4931 2.96587   4
   2  -1  -1 17.0685 3.32273   1
   2  -1  -1 17.3015 2.92131   2
   2  -1  -1 13.1294 2.88249   5
  -2   1   1 13.1461 2.58563   3
  -2   1   1 13.3238 3.23105   5
  -2   1   1 16.4662 2.98507   4
   1  -1  -1 261.772 10.9356   1
   1  -1  -1 243.835 9.89819   3
   1  -1  -1 237.985 9.27598   7
   1  -1  -1 244.190 9.63784   4
   1  -1  -1 235.376 10.2287   5
  -1   1   1 252.752 10.8268   1
  -1   1   1 261.701 9.98484   4
  -1   1   1 211.167 9.95884   5
   0  -1  -1 1442.76 36.6561   5
   0  -1  -1 1282.45 38.7988   1
   0  -1  -1 1474.50 38.1629   6
   0   1   1 1405.06 36.6069   5
   0   1   1 1422.99 38.0560   6
   0   1   1 1319.77 38.7244   1
  -1  -1  -1 3371.21 86.0507   3
  -1  -1  -1 3363.42 85.0388   2
   1   1   1 3108.53 83.5726   5
   1   1   1 3398.81 85.1521   6
   1   1   1 3358.16 84.9815   2
  -3  -1  -1 487.281 19.1608   2
  -3  -1  -1 530.880 19.2302   3
  -3  -1  -1 528.309 19.8971   5
   3   1   1 517.458 19.5752   5
   3   1   1 503.190 21.9702   2
   3   1   1 501.277 19.0393   3
  -4  -1  -1 1001.80 37.1831   4
  -4  -1  -1 1069.33 36.2593   5
  -4  -1  -1 1011.26 34.1251   3
  -4  -1  -1 1010.50 34.9147   2
   4   1   1 1015.31 34.2688   3
   4   1   1 998.236 35.4641   2
   4   1   1 949.660 34.7272   5
  -5  -1  -1 657.918 28.6226   5
  -5  -1  -1 647.736 26.3043   3
  -5  -1  -1 651.113 29.5435   4
   5   1   1 628.993 26.1872   3
   5   1   1 621.578 27.4504   5
   5   1   1 595.947 27.2281   2
  -6  -1  -1 464.116 25.7999   4
  -6  -1  -1 435.665 22.2966   3
   6   1   1 400.617 22.9684   2
   6   1   1 444.016 22.3150   3
   6   1   1 415.380 23.1709   5
  -7  -1  -1 1447.86 53.0440   3
  -7  -1  -1 1368.55 56.4987   4
   7   1   1 1401.57 52.2225   3
   7   1   1 1488.00 55.7339   2
  -8  -1  -1 132.615 15.0493   3
  -8  -1  -1 110.439 15.0471   4
   8   1   1 115.872 12.8361   3
   8   1   1 124.169 15.1290   2
  -9  -1  -1 -0.4424 4.11318   4
   9   1   1 1.98054 7.85099   2
   9   1   1 -0.9688 3.54362   3
   7  -2  -1 123.501 12.8695   6
   7  -2  -1 121.664 12.5299   3
   7  -2  -1 119.480 14.8141   2
  -7   2   1 111.169 14.5794   4
   6  -2  -1 15.9636 4.61373   6
   6  -2  -1 14.2832 4.45256   1
   6  -2  -1 16.6213 4.86471   2
   6  -2  -1 14.4932 4.11088   3
  -6   2   1 17.0725 5.36012   4
  -6   2   1 25.8524 6.38938   3
   5  -2  -1 2955.02 90.7446   6
   5  -2  -1 3043.44 86.5344   7
   5  -2  -1 3080.48 90.4752   3
   5  -2  -1 3022.63 95.1005   1
   5  -2  -1 2989.52 92.4389   2
  -5   2   1 2998.31 88.5061   3
  -5   2   1 2983.26 93.5982   4
   4  -2  -1 1487.54 52.9934   1
   4  -2  -1 1511.66 51.2598   2
   4  -2  -1 1542.55 49.9546   3
   4  -2  -1 1474.91 53.0317   5
   4  -2  -1 1588.66 51.1498   6
   4  -2  -1 1463.44 46.6551   7
  -4   2   1 1488.12 48.2894   3
  -4   2   1 1543.98 52.4243   4
  -4   2   1 1543.44 54.1251   5
   3  -2  -1 242.640 14.9115   1
   3  -2  -1 236.658 13.4106   3
   3  -2  -1 245.125 14.0570   6
   3  -2  -1 252.571 15.2449   5
   3  -2  -1 250.510 14.6305   4
   3  -2  -1 247.376 12.1840   7
   3  -2  -1 272.300 14.2644   2
  -3   2   1 259.197 14.8025   4
  -3   2   1 242.890 15.0088   5
   2  -2  -1 1.49342 1.00302   4
   2  -2  -1 -0.1720 1.03498   3
   2  -2  -1 2.04418 1.18008   6
   2  -2  -1 1.55654 1.06083   1
   2  -2  -1 -0.1582 0.92192   5
   2  -2  -1 0.40014 1.00022   2
   2  -2  -1 1.40640 0.92608   7
  -2   2   1 0.72320 1.52909   4
  -2   2   1 1.69032 1.56855   5
   1  -2  -1 186.565 9.72365   5
   1  -2  -1 196.598 9.65560   7
   1  -2  -1 201.869 10.3425   6
   1  -2  -1 209.503 11.0196   1
   1  -2  -1 194.049 9.72173   4
  -1   2   1 180.427 9.58476   5
  -1   2   1 191.221 10.2442   6
  -1   2   1 203.408 10.4720   1
   0  -2  -1 6559.71 165.101   6
   0  -2  -1 6011.22 165.746   1
   0  -2  -1 6455.27 162.156   5
   0   2   1 6359.43 165.257   1
   0   2   1 6582.44 165.073   6
  -1  -2  -1 1986.68 54.2551   6
  -1  -2  -1 1956.87 50.8697   2
   1   2   1 1993.93 50.8150   2
   1   2   1 1887.92 54.0664   6
  -2  -2  -1 1000.69 30.8946   3
  -2  -2  -1 993.885 27.8032   5
  -2  -2  -1 985.633 29.0834   2
   2   2   1 965.904 27.5936   5
   2   2   1 980.015 29.1788   2
   2   2   1 1015.96 31.1046   3
  -3  -2  -1 92.4413 6.58443   2
  -3  -2  -1 99.4619 6.59117   5
  -3  -2  -1 99.6417 7.22211   3
   3   2   1 100.624 6.96177   2
   3   2   1 95.7554 6.39638   5
  -4  -2  -1 227.496 12.5936   2
  -4  -2  -1 235.435 12.9793   3
  -4  -2  -1 242.706 13.1295   5
   4   2   1 222.109 13.0730   3
   4   2   1 239.063 13.2472   2
   4   2   1 225.533 12.4141   5
  -5  -2  -1 1489.41 47.9161   3
  -5  -2  -1 1470.25 48.7134   5
  -5  -2  -1 1315.32 58.4263   2
  -5  -2  -1 1432.72 51.5757   4
   5   2   1 1414.89 47.8762   3
   5   2   1 1407.47 48.2913   2
   5   2   1 1391.15 47.3563   5
  -6  -2  -1 2490.76 81.8600   4
  -6  -2  -1 2536.08 78.7006   5
  -6  -2  -1 2450.74 76.0922   3
   6   2   1 2440.71 77.6243   2
   6   2   1 2368.77 76.3075   3
   6   2   1 2379.71 76.7757   5
  -7  -2  -1 2.87859 3.51737   4
  -7  -2  -1 -1.5164 2.17215   3
   7   2   1 2.77383 2.39185   5
   7   2   1 2.44805 2.81166   2
  -8  -2  -1 61.6218 10.6253   3
  -8  -2  -1 63.2482 12.9258   4
   8   2   1 43.3343 9.35468   5
   8   2   1 62.0175 10.9273   2
   8   2   1 72.0369 10.3853   3
  -9  -2  -1 88.2701 15.4057   4
   9   2   1 62.2904 12.3225   2
   9   2   1 69.4266 12.1651   3
   7  -3  -1 68.0168 10.2605   3
   7  -3  -1 47.2879 14.3427   2
   7  -3  -1 53.9315 10.6967   6
  -7   3   1 58.6327 13.1413   4
   6  -3  -1 745.827 34.9409   6
   6  -3  -1 781.780 34.5119   3
   6  -3  -1 751.137 39.1506   1
   6  -3  -1 729.337 36.1455   2
  -6   3   1 750.099 38.0546   4
   5  -3  -1 497.660 28.1074   1
   5  -3  -1 480.958 23.6271   3
   5  -3  -1 426.546 26.0451   5
   5  -3  -1 436.829 21.3893   7
   5  -3  -1 422.608 26.0449   4
   5  -3  -1 450.957 23.9882   6
   4  -3  -1 40.0457 6.14901   3
   4  -3  -1 39.8979 7.72539   1
   4  -3  -1 45.0599 6.76241   2
   4  -3  -1 42.7819 6.92798   6
   4  -3  -1 41.2649 7.48988   4
   4  -3  -1 42.4973 5.65340   7
   4  -3  -1 26.9201 6.69493   5
  -4   3   1 37.8457 7.31349   4
   3  -3  -1 6.85836 2.79032   4
   3  -3  -1 3.69463 2.25171   3
   3  -3  -1 0.33874 1.66903   2
   3  -3  -1 5.99635 4.04337   5
   3  -3  -1 1.74576 1.81374   1
   3  -3  -1 2.73155 1.73892   7
   3  -3  -1 4.11569 2.28299   6
  -3   3   1 3.06926 1.94282   4
   2  -3  -1 -0.1723 1.08754   5
   2  -3  -1 0.90182 1.06541   3
   2  -3  -1 -0.5872 0.84245   7
   2  -3  -1 1.55316 1.47284   1
   2  -3  -1 1.62575 1.46871   4
   2  -3  -1 0.81090 0.91421   6
   2  -3  -1 0.17830 0.72703   2
   1  -3  -1 3451.86 92.5554   4
   1  -3  -1 3316.24 91.5165   7
   1  -3  -1 3134.00 93.4078   1
   1  -3  -1 3274.48 92.6856   6
   1  -3  -1 3418.30 87.9791   2
   1  -3  -1 3263.92 90.9271   5
  -1   3   1 3318.78 92.6776   6
   0  -3  -1 4538.94 125.512   1
   0  -3  -1 4686.17 121.171   5
   0  -3  -1 4530.21 123.906   7
   0  -3  -1 4630.84 124.986   6
   0   3   1 4687.12 124.715   1
   0   3   1 4898.65 125.629   6
  -1  -3  -1 444.441 17.9958   6
   1   3   1 438.815 17.9634   1
   1   3   1 421.811 17.7348   6
  -2  -3  -1 146.389 6.85749   2
  -2  -3  -1 156.352 9.29690   3
   2   3   1 149.708 9.29538   6
   2   3   1 162.352 7.24122   2
  -3  -3  -1 127.543 6.85628   5
  -3  -3  -1 122.723 8.80277   3
  -3  -3  -1 115.492 7.18546   2
   3   3   1 131.143 9.22574   3
   3   3   1 117.415 7.49990   2
  -4  -3  -1 1383.33 42.6740   5
  -4  -3  -1 1352.46 43.0496   2
   4   3   1 1426.35 46.2519   3
   4   3   1 1347.98 41.9811   5
   4   3   1 1392.13 43.9973   2
  -5  -3  -1 1707.73 53.6683   2
  -5  -3  -1 1727.38 55.1472   3
  -5  -3  -1 1727.85 53.7235   5
   5   3   1 1683.05 55.7766   3
   5   3   1 1634.42 54.0699   2
   5   3   1 1603.21 52.1990   5
  -6  -3  -1 -0.6090 1.93753   5
  -6  -3  -1 1.36716 1.83299   3
   6   3   1 0.78211 1.70632   3
   6   3   1 1.42633 2.31404   5
   6   3   1 -0.9793 1.43453   2
  -7  -3  -1 41.6846 9.07118   4
   7   3   1 32.7201 7.52303   2
   7   3   1 26.7959 6.72751   5
   7   3   1 27.1150 6.13918   3
  -8  -3  -1 -6.8485 3.77983   4
  -8  -3  -1 0.62028 3.14738   3
   8   3   1 7.29310 3.23345   5
   8   3   1 3.16163 3.23415   2
   8   3   1 3.97725 3.61547   3
  -9  -3  -1 356.581 29.1375   4
   9   3   1 376.194 27.0103   3
   9   3   1 376.107 26.4914   2
   6  -4  -1 352.978 20.7402   3
   6  -4  -1 293.651 20.2639   7
   6  -4  -1 296.143 21.5516   2
   5  -4  -1 271.083 21.4116   1
   5  -4  -1 248.425 18.4984   6
   5  -4  -1 229.016 19.5326   4
   5  -4  -1 256.285 16.7000   3
   5  -4  -1 264.860 18.3363   2
   5  -4  -1 243.612 19.3954   5
   5  -4  -1 247.523 16.7942   7
   4  -4  -1 281.190 20.5668   1
   4  -4  -1 261.661 16.3980   3
   4  -4  -1 225.428 17.0818   6
   4  -4  -1 278.116 17.1728   2
   4  -4  -1 285.714 19.8253   5
   4  -4  -1 263.321 18.5576   4
   4  -4  -1 264.423 16.2469   7
   3  -4  -1 16.9668 4.71727   4
   3  -4  -1 29.6145 6.61214   1
   3  -4  -1 28.6796 5.20636   7
   3  -4  -1 15.8980 4.83664   5
   3  -4  -1 20.6632 4.58336   2
   3  -4  -1 18.0644 4.31440   3
   3  -4  -1 23.6748 5.56668   6
   2  -4  -1 2417.48 68.2951   2
   2  -4  -1 2356.81 72.9244   4
   2  -4  -1 2322.17 72.4201   5
   2  -4  -1 2372.55 71.1217   7
   2  -4  -1 2421.91 73.5966   6
   2  -4  -1 2277.00 74.9222   1
   2  -4  -1 2366.23 69.3544   3
   1  -4  -1 475.485 16.9819   2
   1  -4  -1 459.011 20.0598   5
   1  -4  -1 411.545 22.2117   1
   1  -4  -1 481.917 21.8974   4
   1  -4  -1 485.755 20.9843   7
   1  -4  -1 443.544 21.3369   6
  -1   4   1 469.243 21.8681   6
  -1   4   1 474.441 20.8565   1
   0  -4  -1 167.273 11.4573   1
   0  -4  -1 161.622 10.7560   7
   0  -4  -1 146.236 8.75984   5
   0  -4  -1 154.766 10.9954   6
   0   4   1 162.921 11.3253   6
  -1  -4  -1 84.0178 7.27870   7
  -1  -4  -1 79.1457 7.71445   6
   1   4   1 95.9346 8.40712   1
   1   4   1 83.7568 7.91481   6
  -2  -4  -1 38.2003 4.95468   3
  -2  -4  -1 38.3260 4.84792   7
   2   4   1 41.5346 5.58494   6
  -3  -4  -1 2119.12 62.3573   3
  -3  -4  -1 1925.57 56.2621   2
   3   4   1 2062.00 62.3063   6
   3   4   1 2054.38 57.0898   2
  -4  -4  -1 3865.11 100.837   5
  -4  -4  -1 3792.08 106.822   3
  -4  -4  -1 3580.78 101.725   2
   4   4   1 3744.39 102.868   2
   4   4   1 3814.39 107.558   3
  -5  -4  -1 228.307 13.0130   5
  -5  -4  -1 225.639 15.0259   3
   5   4   1 210.821 14.9291   3
   5   4   1 217.762 13.5157   2
  -6  -4  -1 269.053 17.4556   3
  -6  -4  -1 264.284 16.0212   5
   6   4   1 277.729 17.1680   2
   6   4   1 261.113 18.1354   3
  -7  -4  -1 5.71877 3.11012   5
   7   4   1 5.54132 2.71487   2
   7   4   1 1.59699 2.89546   5
   7   4   1 1.39899 2.20414   3
  -8  -4  -1 339.067 21.9492   3
  -8  -4  -1 341.011 27.0902   4
   8   4   1 353.009 24.4154   3
   8   4   1 353.721 23.6059   2
  -9  -4  -1 325.797 30.0027   4
   9   4   1 361.235 25.3801   2
   9   4   1 328.281 29.2341   3
   6  -5  -1 295.371 19.4666   3
   6  -5  -1 304.440 22.0608   7
   6  -5  -1 321.739 23.2720   2
   5  -5  -1 28.9594 6.26516   3
   5  -5  -1 6.28130 3.08672   7
   5  -5  -1 42.1879 10.3315   6
   5  -5  -1 9.24309 4.08941   4
   5  -5  -1 11.8591 3.73479   2
   5  -5  -1 11.5228 9.04810   1
   4  -5  -1 3.63861 2.65918   6
   4  -5  -1 -1.7105 1.86117   3
   4  -5  -1 -3.3127 1.90457   7
   4  -5  -1 1.30537 2.83915   4
   4  -5  -1 6.93601 3.36904   1
   4  -5  -1 0.33809 2.56632   5
   4  -5  -1 2.22318 2.13013   2
   3  -5  -1 1784.62 60.0775   3
   3  -5  -1 1816.86 63.6710   5
   3  -5  -1 1863.87 63.6000   6
   3  -5  -1 1828.72 63.6371   4
   3  -5  -1 1884.15 58.3098   2
   3  -5  -1 1765.25 60.3234   7
   3  -5  -1 1726.36 65.8719   1
   2  -5  -1 1248.26 42.6066   3
   2  -5  -1 1150.55 48.4707   1
   2  -5  -1 1276.68 47.5051   6
   2  -5  -1 1232.71 46.8822   4
   2  -5  -1 1307.41 40.8689   2
   2  -5  -1 1253.95 45.4438   7
   2  -5  -1 1330.95 46.6655   5
   1  -5  -1 334.163 19.7199   6
   1  -5  -1 344.671 20.9423   1
   1  -5  -1 357.519 17.9896   5
   1  -5  -1 348.048 19.1053   7
   1  -5  -1 343.040 13.9838   2
  -1   5   1 332.663 19.5699   6
  -1   5   1 370.176 18.5927   1
   0  -5  -1 935.972 38.1157   6
   0  -5  -1 995.583 37.0518   1
   0  -5  -1 991.551 32.8734   5
   0   5   1 1002.04 35.3822   1
   0   5   1 951.605 37.4613   6
  -1  -5  -1 -0.3855 0.82970   6
  -1  -5  -1 1.75688 1.52880   7
   1   5   1 1.37307 1.35068   6
   1   5   1 2.45145 1.61843   1
  -2  -5  -1 2895.08 84.0367   3
  -2  -5  -1 2882.36 83.6708   7
   2   5   1 2886.76 85.2891   1
   2   5   1 2903.54 86.3640   6
  -3  -5  -1 1379.56 46.1116   3
  -3  -5  -1 1384.89 44.1243   7
  -3  -5  -1 1309.81 38.3784   2
   3   5   1 1327.95 46.8695   6
  -4  -5  -1 439.430 21.9763   3
  -4  -5  -1 443.575 18.9880   7
   4   5   1 437.632 17.9837   2
   4   5   1 428.125 22.0166   6
  -5  -5  -1 103.057 10.4904   3
  -5  -5  -1 91.6152 7.47387   7
  -5  -5  -1 106.281 7.97104   5
   5   5   1 97.2087 10.2518   6
   5   5   1 89.1488 8.24965   2
  -6  -5  -1 3.94046 1.96354   5
   6   5   1 2.82015 2.03363   2
   6   5   1 3.23287 2.95659   3
  -7  -5  -1 653.859 34.5162   3
   7   5   1 693.161 33.8679   2
   7   5   1 676.069 34.3192   3
   8   5   1 774.782 37.8942   2
   8   5   1 911.392 42.9513   3
  -9  -5  -1 121.518 19.3775   4
   9   5   1 103.505 16.3096   3
   9   5   1 120.047 24.9933   2
   5  -6  -1 31.3089 7.05344   3
   5  -6  -1 20.5422 5.31443   2
   4  -6  -1 539.364 29.0528   7
   4  -6  -1 585.413 32.4841   6
   4  -6  -1 591.284 32.7803   5
   4  -6  -1 554.195 35.0316   1
   4  -6  -1 588.923 27.5773   2
   4  -6  -1 538.045 32.3994   4
   4  -6  -1 624.223 28.4647   3
   3  -6  -1 192.885 14.7701   3
   3  -6  -1 180.003 12.6199   2
   3  -6  -1 177.436 14.7711   7
   3  -6  -1 189.328 15.8473   5
   3  -6  -1 179.189 16.3410   4
   3  -6  -1 172.051 16.0153   6
   3  -6  -1 179.295 18.0239   1
   2  -6  -1 1126.43 45.4312   4
   2  -6  -1 1023.95 42.1591   5
   2  -6  -1 1131.68 45.5237   6
   2  -6  -1 1082.61 36.3622   2
   2  -6  -1 1056.49 39.5339   3
   2  -6  -1 1085.73 48.1701   1
   2  -6  -1 1115.13 43.3652   7
   1  -6  -1 137.646 13.3558   4
   1  -6  -1 137.203 13.7199   1
   1  -6  -1 127.321 11.7820   7
   1  -6  -1 122.273 10.6231   5
   1  -6  -1 127.183 12.6316   6
  -1   6   1 130.038 12.5398   6
  -1   6   1 127.116 11.5136   1
   0  -6  -1 5.49996 2.79576   6
   0  -6  -1 8.88073 2.57857   5
   0  -6  -1 7.13639 2.59774   7
   0   6   1 8.04603 2.23782   1
   0   6   1 10.0754 3.73403   6
  -1  -6  -1 2250.14 63.9055   5
  -1  -6  -1 2199.75 73.3363   6
  -1  -6  -1 2313.66 71.8677   7
   1   6   1 2327.12 70.7694   1
   1   6   1 2275.02 73.9545   6
  -2  -6  -1 1245.37 45.5307   7
   2   6   1 1371.58 48.0294   1
   2   6   1 1302.71 48.3310   6
  -3  -6  -1 762.732 31.6655   3
  -3  -6  -1 771.562 34.0506   7
   3   6   1 773.264 33.6567   6
  -4  -6  -1 553.044 26.8647   3
  -4  -6  -1 583.603 24.7754   7
   4   6   1 613.521 28.8833   6
   4   6   1 573.298 21.0734   2
  -5  -6  -1 29.8315 5.55658   7
  -5  -6  -1 38.4680 6.97287   3
   5   6   1 20.1026 5.78582   6
   5   6   1 21.4553 4.64181   2
  -6  -6  -1 566.497 22.6622   7
  -6  -6  -1 545.364 22.5149   5
   6   6   1 560.698 25.4931   2
   6   6   1 568.295 29.0881   6
  -7  -6  -1 453.977 28.1105   3
   7   6   1 658.680 31.8547   6
   7   6   1 597.540 29.1239   2
   8   6   1 47.4231 10.1127   6
   8   6   1 44.9028 9.61107   2
   9   6   1 125.941 17.6171   2
   9   6   1 79.8177 14.1828   6
   4  -7  -1 45.9731 11.3714   3
   4  -7  -1 59.4244 9.34803   2
   3  -7  -1 181.407 18.1771   4
   3  -7  -1 214.760 21.0303   1
   3  -7  -1 205.344 17.6576   5
   3  -7  -1 211.077 16.7295   3
   3  -7  -1 202.179 13.5817   2
   3  -7  -1 205.694 19.2020   6
   2  -7  -1 302.539 22.4174   6
   2  -7  -1 292.134 22.5353   1
   2  -7  -1 278.952 19.8580   7
   2  -7  -1 292.734 14.4193   2
   2  -7  -1 292.704 19.4000   5
   2  -7  -1 257.853 17.2773   3
   1  -7  -1 290.209 20.5356   6
   1  -7  -1 289.744 20.8139   1
   1  -7  -1 259.061 19.4425   7
   1  -7  -1 266.087 19.9070   4
   1  -7  -1 275.850 16.7646   5
  -1   7   1 264.148 20.1494   6
   0  -7  -1 703.918 35.7556   4
   0  -7  -1 804.779 36.7064   6
   0  -7  -1 757.452 29.6039   5
   0   7   1 743.963 36.0934   6
   0   7   1 738.087 31.3639   1
  -1  -7  -1 3.83188 1.86294   5
  -1  -7  -1 4.09294 2.73482   7
   1   7   1 6.02684 2.75158   1
  -2  -7  -1 925.134 38.1283   7
  -2  -7  -1 961.603 37.7628   3
   2   7   1 898.297 40.5246   6
   2   7   1 1007.27 38.9594   1
  -3  -7  -1 144.709 12.3963   7
  -3  -7  -1 149.241 12.8058   3
   3   7   1 137.513 13.0517   1
   3   7   1 140.767 13.9027   6
  -4  -7  -1 56.4078 8.67982   3
  -4  -7  -1 59.0614 7.84633   7
  -5  -7  -1 873.372 33.5750   7
  -5  -7  -1 875.811 38.0564   3
   5   7   1 842.119 30.0029   2
   5   7   1 842.353 38.5254   6
  -6  -7  -1 1160.50 40.2416   7
  -6  -7  -1 1202.82 48.6068   3
   6   7   1 1105.31 47.7937   6
   6   7   1 1171.47 41.2699   2
   7   7   1 347.188 20.3708   2
   7   7   1 316.128 22.5683   6
   8   7   1 379.537 26.4481   6
   8   7   1 412.806 24.6447   2
   3  -8  -1 60.4460 9.68311   3
   2  -8  -1 -2.5035 2.87200   3
   2  -8  -1 2.44992 4.07624   5
   1  -8  -1 238.608 16.9452   5
   1  -8  -1 214.033 19.8808   6
   1  -8  -1 213.774 20.1576   4
  -1   8   1 206.926 18.8444   6
   0  -8  -1 200.793 13.3129   5
   0  -8  -1 182.218 17.6367   6
   0  -8  -1 185.500 21.5691   4
   0  -8  -1 186.025 16.2167   7
   0   8   1 213.945 15.6415   1
   0   8   1 166.294 17.1808   6
  -1  -8  -1 457.154 23.9977   3
   1   8   1 466.259 23.7201   1
   1   8   1 447.948 28.1420   6
  -2  -8  -1 461.225 26.5375   7
  -2  -8  -1 480.211 25.0581   3
   2   8   1 479.735 24.8972   1
   2   8   1 481.890 29.0035   6
  -3  -8  -1 -0.7710 2.43106   3
   3   8   1 3.00370 2.76772   1
   3   8   1 -3.3222 1.81751   6
  -4  -8  -1 453.428 25.9360   3
   4   8   1 456.361 28.0197   6
   4   8   1 507.108 27.7763   1
  -5  -8  -1 235.507 18.3715   3
  -5  -8  -1 218.733 15.8892   7
   5   8   1 237.653 19.6098   6
  -6  -8  -1 144.840 11.8884   7
   6   8   1 146.592 11.0547   2
   6   8   1 130.037 15.3054   6
  -7  -8  -1 257.661 16.4762   7
   7   8   1 238.852 16.8597   2
   7   8   1 263.793 22.3730   6
   8   8   1 12.7560 5.31197   2
   8   8   1 5.23211 5.70858   6
   1  -9  -1 -2.2390 3.54959   3
   1  -9  -1 6.93700 3.44711   5
  -1   9   1 7.77119 4.30858   6
   0  -9  -1 768.831 33.9832   3
   0  -9  -1 726.386 30.6979   5
   0   9   1 746.943 40.9665   6
  -1  -9  -1 85.4537 11.5104   3
   1   9   1 85.9691 14.0085   6
   1   9   1 74.2589 10.6635   1
  -2  -9  -1 18.0518 5.20851   3
   2   9   1 6.00412 3.60875   1
   2   9   1 17.0128 5.76994   6
  -3  -9  -1 263.229 19.7688   7
  -3  -9  -1 288.785 20.6142   3
   3   9   1 248.519 18.6000   1
   3   9   1 254.079 22.2826   6
  -4  -9  -1 173.915 16.8475   3
  -4  -9  -1 204.897 17.3831   7
   4   9   1 200.266 18.3175   1
   4   9   1 178.475 18.3983   6
  -5  -9  -1 393.866 23.4458   7
   5   9   1 381.292 27.3103   6
   5   9   1 340.766 28.5162   1
  -6  -9  -1 408.231 24.1722   7
   6   9   1 393.281 28.3304   6
   7   9   1 -2.4221 3.34408   6
  -1 -10  -1 -1.2822 4.67163   3
   1  10   1 0.87095 3.53928   1
   1  10   1 -0.3563 4.64814   6
  -2 -10  -1 77.7471 13.5691   3
   2  10   1 31.7823 8.20123   6
   3  10   1 4.41345 4.64854   6
   3  10   1 -1.6425 3.78343   1
   4  10   1 413.783 30.3656   6
   4  10   1 558.042 41.6615   1
   5  10   1 106.793 16.8908   6
   5  10   1 106.634 17.3739   1
   4  10  -2 59.3716 15.2673   6
   3  10  -2 13.3261 6.70296   6
  -3 -10   2 -1.0552 4.59608   3
   2  10  -2 522.405 35.7203   6
  -2 -10   2 579.804 28.5415   3
   1  10  -2 120.684 18.3421   6
   6   9  -2 113.908 17.5520   6
   5   9  -2 49.4922 10.9977   1
   4   9  -2 45.5570 11.9341   6
   4   9  -2 56.3868 9.96025   1
  -4  -9   2 69.8703 11.5232   7
  -4  -9   2 66.2237 11.3835   3
   3   9  -2 441.725 30.4497   6
  -3  -9   2 467.452 25.6483   3
  -3  -9   2 508.650 27.9676   7
   2   9  -2 332.993 26.1214   6
   2   9  -2 315.570 15.7990   1
  -2  -9   2 333.470 16.7447   5
  -2  -9   2 342.170 19.6848   3
   1   9  -2 7.55025 5.41782   6
  -1  -9   2 13.5968 3.66880   3
  -1  -9   2 9.22800 3.35396   5
   0   9  -2 50.4337 11.6767   6
   0  -9   2 61.9154 8.27048   5
   0  -9   2 89.9090 8.88128   3
  -1   9  -2 85.7645 21.8051   6
   1  -9   2 123.668 12.3481   5
   7   8  -2 30.1575 10.4401   6
   7   8  -2 11.6884 4.80767   2
  -7  -8   2 19.0584 4.84935   5
   6   8  -2 97.9265 9.98193   2
   6   8  -2 96.6115 15.0199   6
  -6  -8   2 108.437 11.1163   7
   5   8  -2 1.47883 2.27812   6
  -5  -8   2 0.12628 3.29351   3
  -5  -8   2 -0.6804 3.14110   7
   4   8  -2 1705.51 67.7490   6
   4   8  -2 1782.86 58.8036   1
  -4  -8   2 1795.26 62.6340   3
   3   8  -2 278.044 15.6017   1
   3   8  -2 309.185 22.9153   6
  -3  -8   2 286.112 18.3976   3
   2   8  -2 97.6599 8.05507   1
   2   8  -2 98.3705 13.0087   6
  -2  -8   2 102.860 10.4237   3
  -2  -8   2 103.997 11.5632   7
   1   8  -2 22.6112 6.60651   6
   1   8  -2 29.2084 5.25790   1
  -1  -8   2 18.9230 4.30808   3
  -1  -8   2 14.3132 4.07951   5
  -1  -8   2 21.6248 5.81073   7
   0   8  -2 15.2014 5.63658   6
   0  -8   2 18.2290 5.35470   7
   0  -8   2 19.2036 4.94002   5
   0  -8   2 9.86054 4.91267   4
   0  -8   2 15.1755 4.08714   3
  -1   8  -2 385.144 26.4632   6
   1  -8   2 401.378 22.5671   5
  -2   8  -2 326.449 24.2462   6
   2  -8   2 262.924 21.4118   5
   3  -8   2 -2.8583 2.98564   1
   8   7  -2 144.006 17.4781   3
   8   7  -2 135.412 16.0028   2
  -8  -7   2 136.596 14.1454   5
   7   7  -2 -0.6880 3.43701   3
  -7  -7   2 6.47252 3.94532   5
   6   7  -2 -1.6678 2.33555   6
   6   7  -2 0.96783 2.39902   2
  -6  -7   2 3.46344 2.51918   7
  -6  -7   2 -0.7488 3.08036   3
  -6  -7   2 -2.1887 2.65821   5
   5   7  -2 515.412 30.5363   6
   5   7  -2 510.179 21.3807   2
  -5  -7   2 509.090 22.2406   5
  -5  -7   2 549.277 27.9773   3
  -5  -7   2 552.250 23.9145   7
   4   7  -2 820.358 39.4644   6
  -4  -7   2 825.587 32.5427   7
  -4  -7   2 822.722 35.0949   3
  -4  -7   2 813.575 29.6387   5
   3   7  -2 2.43233 2.88104   6
   3   7  -2 0.49283 1.69094   1
  -3  -7   2 -1.4125 2.28309   7
  -3  -7   2 1.41207 2.01795   3
   2   7  -2 26.2136 6.59166   6
  -2  -7   2 30.3065 7.59382   7
  -2  -7   2 39.2405 6.38131   3
   1   7  -2 6.03913 4.60479   6
   1   7  -2 12.5148 3.77317   1
  -1  -7   2 9.19744 3.26344   3
   0   7  -2 1558.64 58.2138   6
   0  -7   2 1514.70 57.8372   5
   0  -7   2 1579.28 49.9423   3
  -1   7  -2 673.385 33.9636   6
   1  -7   2 736.647 32.3186   5
   1  -7   2 673.544 37.9437   4
   1  -7   2 704.976 26.8815   3
  -2   7  -2 34.8930 9.25140   6
   2  -7   2 53.5597 10.8338   4
   2  -7   2 43.7158 8.58014   1
   2  -7   2 54.3867 9.31005   7
   2  -7   2 58.5801 9.63233   5
   3  -7   2 3.48148 4.79617   5
   3  -7   2 3.60768 3.50260   6
   3  -7   2 7.04610 3.59665   1
   4  -7   2 -2.6968 3.52206   1
   4  -7   2 -4.1426 3.61997   6
   8   6  -2 11.3048 6.60752   2
   8   6  -2 13.6937 6.95608   3
  -8  -6   2 25.2919 6.53163   5
   7   6  -2 11.0073 4.60908   2
   7   6  -2 2.66508 4.17821   3
  -7  -6   2 4.72920 3.96450   5
   6   6  -2 1963.04 63.1541   2
   6   6  -2 1883.86 70.3283   3
  -6  -6   2 1966.20 62.8052   5
  -6  -6   2 1942.23 70.6121   3
   5   6  -2 390.550 18.3533   2
   5   6  -2 365.146 23.1599   3
  -5  -6   2 372.612 21.9743   3
  -5  -6   2 389.000 18.9627   5
  -5  -6   2 391.939 17.4854   7
   4   6  -2 843.934 38.2794   6
  -4  -6   2 847.832 30.4762   5
  -4  -6   2 825.682 34.7120   3
  -4  -6   2 894.774 31.7974   7
   3   6  -2 5.73418 3.21743   6
  -3  -6   2 4.73280 2.42103   3
  -3  -6   2 -0.0104 1.51012   7
   2   6  -2 215.066 12.2567   1
   2   6  -2 200.614 15.7309   6
  -2  -6   2 182.186 13.4333   7
  -2  -6   2 210.621 13.1830   3
   1   6  -2 1849.25 61.9234   6
   1   6  -2 1691.45 51.0365   1
  -1  -6   2 1756.49 54.7895   3
  -1  -6   2 1799.95 58.7645   7
   0   6  -2 204.386 15.7909   6
   0  -6   2 203.302 11.9530   3
   0  -6   2 192.175 14.5453   7
  -1   6  -2 105.832 11.4484   6
   1  -6   2 122.421 10.7729   1
   1  -6   2 84.1884 11.2764   4
   1  -6   2 98.3987 9.89867   5
  -2   6  -2 1.37826 1.94146   6
   2  -6   2 -0.8190 2.49275   5
   2  -6   2 2.89276 2.59092   6
   2  -6   2 6.91032 2.27822   1
   2  -6   2 1.10256 2.52640   4
   2  -6   2 4.87792 2.27465   7
   3  -6   2 51.4503 9.62864   4
   3  -6   2 51.3347 13.3927   7
   3  -6   2 40.2804 7.69446   6
   3  -6   2 59.4608 10.0793   1
   3  -6   2 46.2842 6.56369   2
   3  -6   2 68.3294 10.0140   5
   4  -6   2 795.156 32.1835   2
   4  -6   2 785.404 39.9719   5
   4  -6   2 770.463 35.9802   6
   4  -6   2 821.173 40.1073   1
   4  -6   2 752.908 36.2139   7
   5  -6   2 599.677 29.1379   2
   5  -6   2 566.792 41.6853   1
   5  -6   2 578.069 30.6244   6
   8   5  -2 67.0114 17.3450   3
   8   5  -2 73.9148 12.0622   2
  -8  -5   2 77.1513 11.4697   5
   7   5  -2 889.023 43.0698   3
   7   5  -2 883.031 38.4394   2
  -7  -5   2 843.437 39.3580   3
  -7  -5   2 896.425 38.3786   5
   6   5  -2 28.4348 6.65769   2
   6   5  -2 19.6142 6.08732   3
  -6  -5   2 19.4416 5.30283   5
   5   5  -2 528.879 23.3843   2
   5   5  -2 558.247 28.3385   3
  -5  -5   2 554.670 26.7683   3
  -5  -5   2 528.981 23.6535   5
   4   5  -2 0.55107 1.19892   2
   4   5  -2 -1.9466 1.70467   3
  -4  -5   2 -0.6390 1.18394   7
  -4  -5   2 1.29383 2.06744   3
  -4  -5   2 4.52345 1.99603   5
   3   5  -2 -0.0637 1.14466   2
   3   5  -2 -1.7732 1.78827   3
  -3  -5   2 0.37212 1.29264   7
  -3  -5   2 0.27877 1.44186   3
   2   5  -2 3736.11 109.303   6
  -2  -5   2 3768.54 104.594   3
  -2  -5   2 3772.76 104.837   7
   1   5  -2 1186.01 42.4663   6
   1   5  -2 1121.67 34.5140   1
   1   5  -2 1085.24 39.6635   7
  -1  -5   2 1139.70 39.8330   7
  -1  -5   2 1176.01 37.5391   3
   0   5  -2 1349.95 46.8051   7
   0   5  -2 1327.55 47.2534   6
   0   5  -2 1357.48 40.3257   1
   0  -5   2 1383.70 41.8117   3
  -1   5  -2 139.508 11.8156   7
  -1   5  -2 154.137 12.3274   6
   1  -5   2 152.576 14.4030   6
   1  -5   2 158.437 14.0044   4
   1  -5   2 177.018 12.1005   1
   1  -5   2 161.365 12.3088   7
  -2   5  -2 8.25731 3.00140   6
  -2   5  -2 5.79910 3.06008   7
   2  -5   2 9.28691 3.26986   5
   2  -5   2 8.16494 3.19614   4
   2  -5   2 4.07011 1.60223   6
   2  -5   2 6.52079 2.21474   2
   2  -5   2 3.84912 2.36843   1
   2  -5   2 4.40084 2.19869   7
  -3   5  -2 1204.70 46.1341   7
   3  -5   2 1168.82 46.3960   1
   3  -5   2 1211.97 45.2933   7
   3  -5   2 1200.53 47.8131   5
   3  -5   2 1221.70 49.7188   4
   3  -5   2 1161.21 39.9023   2
   3  -5   2 1164.93 44.1263   6
   4  -5   2 758.033 46.5455   4
   4  -5   2 704.194 35.4858   5
   4  -5   2 620.316 32.7146   1
   4  -5   2 669.544 28.9136   2
   4  -5   2 611.896 30.2839   7
   4  -5   2 637.103 30.1970   6
   5  -5   2 21.1908 5.47727   2
   5  -5   2 22.0097 5.32018   6
   5  -5   2 31.1682 9.00512   1
   5  -5   2 14.8072 5.42817   7
   6  -5   2 2.58343 3.79345   6
   6  -5   2 7.51162 5.18795   2
   8   4  -2 972.111 44.0966   2
   8   4  -2 979.160 46.7675   3
  -8  -4   2 900.676 42.4720   5
  -8  -4   2 899.687 48.8167   4
   7   4  -2 3.06938 3.37486   3
   7   4  -2 8.34109 3.52431   2
  -7  -4   2 0.57106 3.18286   3
   6   4  -2 850.953 35.1457   2
   6   4  -2 831.130 37.9241   3
  -6  -4   2 819.315 34.7474   5
   5   4  -2 3.62686 2.38938   3
   5   4  -2 -0.5340 1.40591   2
  -5  -4   2 -0.1267 1.69785   5
  -5  -4   2 3.46843 2.26409   3
   4   4  -2 237.508 12.9746   2
   4   4  -2 236.153 15.3507   3
  -4  -4   2 235.128 14.6064   3
  -4  -4   2 236.840 13.4817   5
  -4  -4   2 247.100 10.6447   7
   3   4  -2 2073.98 60.7918   2
   3   4  -2 2186.73 66.6768   3
  -3  -4   2 2207.91 61.3990   7
  -3  -4   2 2121.17 65.1579   3
  -3  -4   2 2297.54 63.5760   5
   2   4  -2 35.4493 4.80785   3
  -2  -4   2 34.3267 4.41461   3
  -2  -4   2 32.9621 4.44465   7
   1   4  -2 1897.51 58.4091   6
   1   4  -2 1883.35 52.0164   1
   1   4  -2 1817.93 55.9612   7
  -1  -4   2 1805.67 53.6962   3
  -1  -4   2 1892.04 55.8934   7
   0   4  -2 10.5909 2.22203   1
   0   4  -2 14.2509 3.58509   7
   0   4  -2 8.49819 3.03316   6
   0  -4   2 10.1999 2.70811   3
   0  -4   2 5.78322 1.91015   7
  -1   4  -2 42.2600 5.85381   7
  -1   4  -2 39.9739 5.59665   6
   1  -4   2 40.5362 3.60111   2
   1  -4   2 43.1388 5.90787   7
   1  -4   2 44.3858 5.47977   1
   1  -4   2 37.0598 5.39208   6
   1  -4   2 49.4494 7.14389   4
  -2   4  -2 4414.98 123.077   7
  -2   4  -2 4517.09 121.871   6
   2  -4   2 4142.34 121.203   1
   2  -4   2 4404.42 126.425   4
   2  -4   2 4369.35 124.054   5
   2  -4   2 4147.46 120.802   6
   2  -4   2 4709.50 127.162   7
   2  -4   2 4320.53 120.117   2
  -3   4  -2 1239.10 43.9800   7
   3  -4   2 1215.29 40.1632   2
   3  -4   2 1181.93 44.0660   1
   3  -4   2 1175.60 45.7397   5
   3  -4   2 1171.10 41.8730   6
   3  -4   2 1217.97 47.1786   4
   3  -4   2 1171.02 42.7797   7
  -4   4  -2 548.743 26.5560   7
   4  -4   2 529.808 24.6041   2
   4  -4   2 538.732 29.4651   5
   4  -4   2 555.116 30.1910   4
   4  -4   2 538.083 25.5296   6
   4  -4   2 537.696 25.8933   7
   4  -4   2 541.025 27.9792   1
  -5   4  -2 355.799 32.0461   7
   5  -4   2 345.745 20.0892   6
   5  -4   2 346.435 24.5809   5
   5  -4   2 354.978 23.7939   1
   5  -4   2 356.724 25.8439   2
   5  -4   2 338.461 21.0646   7
   5  -4   2 335.356 24.2403   4
   6  -4   2 -1.4124 2.53221   6
   6  -4   2 -1.7090 2.19716   1
   6  -4   2 5.01746 3.24951   2
   8   3  -2 0.34426 3.72612   3
   8   3  -2 -3.5200 2.63823   2
  -8  -3   2 -2.6877 3.11452   5
  -8  -3   2 -1.5257 3.45476   4
   7   3  -2 455.200 27.6113   3
   7   3  -2 450.747 26.5242   2
  -7  -3   2 490.376 30.8319   4
  -7  -3   2 490.377 27.1958   5
  -7  -3   2 465.322 27.3167   3
   6   3  -2 25.4272 8.73621   3
   6   3  -2 25.4576 6.40454   2
  -6  -3   2 24.1876 6.10895   5
  -6  -3   2 30.5555 6.55445   3
   5   3  -2 3.38570 2.16181   3
   5   3  -2 2.05026 2.13871   2
  -5  -3   2 0.74066 2.20279   5
  -5  -3   2 5.09226 2.05285   3
   4   3  -2 3039.94 88.1091   3
   4   3  -2 2856.98 84.2253   2
  -4  -3   2 2950.35 85.1481   5
  -4  -3   2 3020.61 86.6033   3
   3   3  -2 1241.65 41.5280   3
   3   3  -2 1229.12 38.2184   2
  -3  -3   2 1243.48 39.2599   5
  -3  -3   2 1248.05 40.5051   3
  -3  -3   2 1246.87 35.2683   7
   2   3  -2 2816.78 86.3852   3
   2   3  -2 2648.89 71.9752   7
   2   3  -2 2513.24 70.3469   2
  -2  -3   2 2657.43 71.7081   7
  -2  -3   2 2635.89 73.8841   3
   1   3  -2 587.781 20.6756   3
   1   3  -2 604.704 21.4146   7
  -1  -3   2 601.327 20.4419   3
  -1  -3   2 578.464 20.9120   7
   0   3  -2 1003.39 33.2945   7
   0   3  -2 1001.13 28.5427   1
   0   3  -2 1037.53 33.7856   6
   0  -3   2 1027.27 29.5427   1
   0  -3   2 1010.30 32.9224   7
   0  -3   2 1022.96 29.9151   3
  -1   3  -2 1854.81 55.8072   6
  -1   3  -2 1909.73 56.4044   7
  -1   3  -2 1885.92 51.4208   2
   1  -3   2 1750.21 53.6511   1
   1  -3   2 1926.65 59.1878   4
   1  -3   2 1963.87 55.9806   6
   1  -3   2 1895.36 56.0406   7
   1  -3   2 1919.13 51.6836   2
  -2   3  -2 305.046 13.2034   2
  -2   3  -2 277.066 15.0083   7
  -2   3  -2 278.899 14.2309   6
   2  -3   2 304.666 15.0534   1
   2  -3   2 302.476 16.5432   5
   2  -3   2 313.701 17.4311   4
   2  -3   2 294.367 13.2373   2
   2  -3   2 311.538 14.7111   6
   2  -3   2 294.695 15.0475   7
  -3   3  -2 1207.57 41.1467   7
  -3   3  -2 1196.52 43.8893   4
   3  -3   2 1162.35 40.3884   7
   3  -3   2 1137.25 38.8971   2
   3  -3   2 1220.44 44.5384   4
   3  -3   2 1186.63 41.8771   1
   3  -3   2 1168.65 39.2536   6
  -4   3  -2 510.107 23.8222   7
  -4   3  -2 553.752 27.3207   4
   4  -3   2 519.786 23.9654   7
   4  -3   2 527.044 27.6737   5
   4  -3   2 531.218 26.1737   1
   4  -3   2 498.541 23.5011   2
   4  -3   2 509.432 27.1513   4
   4  -3   2 486.466 22.1872   6
  -5   3  -2 0.42202 1.95199   4
  -5   3  -2 -1.1723 1.75729   7
   5  -3   2 0.17288 1.59064   3
   5  -3   2 0.28113 1.51105   1
   5  -3   2 -1.5390 1.74076   2
   5  -3   2 1.37538 2.38331   5
   5  -3   2 -0.8112 1.40192   6
   5  -3   2 2.01851 1.92105   4
  -6   3  -2 851.144 41.6669   4
   6  -3   2 885.986 39.2401   2
   6  -3   2 923.171 44.3780   5
   6  -3   2 894.970 42.0861   1
   6  -3   2 898.481 35.2446   6
   6  -3   2 852.996 32.6589   3
   6  -3   2 840.858 43.1152   4
   7  -3   2 301.970 17.6916   3
   7  -3   2 323.295 19.2663   6
   7  -3   2 342.320 24.4984   2
   8   2  -2 622.303 34.6346   3
   8   2  -2 607.518 34.2845   2
  -8  -2   2 618.203 35.1885   5
  -8  -2   2 607.660 36.4092   4
   7   2  -2 119.027 12.9020   2
   7   2  -2 108.937 13.0592   5
   7   2  -2 157.830 15.1772   3
  -7  -2   2 116.831 14.7085   4
  -7  -2   2 141.581 14.9879   5
   6   2  -2 158.774 14.1885   3
   6   2  -2 139.214 12.7462   5
   6   2  -2 134.322 12.4257   2
  -6  -2   2 138.707 13.1326   5
  -6  -2   2 148.446 14.5451   4
  -6  -2   2 150.790 13.0664   3
   5   2  -2 2288.84 72.2516   5
   5   2  -2 2272.18 71.8303   2
   5   2  -2 2350.73 73.6683   3
  -5  -2   2 2297.27 72.4011   3
  -5  -2   2 2354.69 73.2806   5
   4   2  -2 2.11664 1.58556   3
  -4  -2   2 2.26903 1.66835   3
  -4  -2   2 2.04858 1.61581   5
   3   2  -2 3017.43 83.9298   3
   3   2  -2 2880.71 81.2634   2
  -3  -2   2 2915.49 88.5967   5
  -3  -2   2 2949.13 82.7304   3
   2   2  -2 686.969 24.2111   3
   2   2  -2 698.643 20.5758   7
  -2  -2   2 694.306 23.7554   3
   1   2  -2 460.237 15.8668   7
   1   2  -2 489.714 16.6109   3
  -1  -2   2 474.136 15.7944   7
  -1  -2   2 459.096 16.0686   3
   0   2  -2 2423.59 68.6587   7
   0   2  -2 2687.22 65.3960   2
   0   2  -2 2545.70 69.2964   6
   0  -2   2 2424.94 68.3639   7
   0  -2   2 2586.10 65.3300   2
  -1   2  -2 2548.69 71.1977   6
  -1   2  -2 2624.13 72.4898   7
  -1   2  -2 2639.29 69.6363   2
   1  -2   2 2729.42 74.7912   4
   1  -2   2 2526.13 71.9488   7
   1  -2   2 2649.66 70.3947   1
   1  -2   2 2653.65 69.7036   2
   1  -2   2 2664.01 71.4232   6
  -2   2  -2 3342.44 90.9712   2
  -2   2  -2 3486.88 92.7268   7
  -2   2  -2 3366.87 90.7329   6
  -2   2  -2 3392.35 94.6577   4
   2  -2   2 3260.25 90.5218   6
   2  -2   2 3447.66 92.5936   7
   2  -2   2 3419.50 95.5109   4
   2  -2   2 3363.29 90.9971   2
  -3   2  -2 1306.50 44.6422   4
  -3   2  -2 1349.16 42.0511   7
  -3   2  -2 1327.65 41.7832   2
   3  -2   2 1320.32 45.7315   4
   3  -2   2 1276.96 40.1417   6
   3  -2   2 1292.65 42.0139   2
   3  -2   2 1312.04 45.5963   5
   3  -2   2 1281.58 41.7262   7
  -4   2  -2 127.732 9.47219   7
  -4   2  -2 124.022 9.87501   2
  -4   2  -2 134.775 7.95444   3
  -4   2  -2 122.327 11.2950   4
   4  -2   2 131.814 10.6280   2
   4  -2   2 116.928 11.4433   4
   4  -2   2 132.177 9.13074   6
   4  -2   2 107.905 11.1780   5
   4  -2   2 117.286 7.99893   3
   4  -2   2 135.453 10.0893   7
  -5   2  -2 410.273 19.8273   7
  -5   2  -2 409.142 23.6888   4
  -5   2  -2 424.372 18.2421   3
   5  -2   2 431.001 22.8841   2
   5  -2   2 421.809 19.5309   6
   5  -2   2 421.835 25.1558   4
   5  -2   2 430.400 18.6894   3
  -6   2  -2 139.205 14.7107   4
  -6   2  -2 135.520 11.2871   7
   6  -2   2 142.266 14.4039   1
   6  -2   2 139.814 10.8702   3
   6  -2   2 152.736 11.6896   6
   6  -2   2 142.207 13.8761   2
  -7   2  -2 124.176 15.0104   4
   7  -2   2 144.222 12.0400   3
   7  -2   2 156.735 15.5703   2
   7  -2   2 156.629 12.2933   6
  -8   2  -2 135.921 17.5236   4
   8  -2   2 140.219 13.4669   3
   8  -2   2 147.908 17.5952   2
   8  -2   2 137.008 12.9624   6
   8   1  -2 -2.8634 2.75851   3
  -8  -1   2 0.59609 4.09736   5
  -8  -1   2 -1.9998 3.28776   4
   7   1  -2 182.885 16.3434   2
   7   1  -2 189.774 16.7403   3
   7   1  -2 190.028 17.1314   5
  -7  -1   2 205.039 18.1570   3
  -7  -1   2 209.720 18.8523   4
  -7  -1   2 208.486 18.6721   5
   6   1  -2 1639.02 59.1885   5
   6   1  -2 1629.20 58.3734   2
   6   1  -2 1703.53 59.3853   3
  -6  -1   2 1750.92 61.3220   4
  -6  -1   2 1554.61 60.1029   5
  -6  -1   2 1563.33 58.1063   3
   5   1  -2 3.37524 2.18530   5
   5   1  -2 1.12119 1.29931   3
   5   1  -2 0.82029 1.27006   2
  -5  -1   2 1.45466 1.93705   3
  -5  -1   2 1.39838 2.47867   5
  -5  -1   2 0.29300 2.05532   4
   4   1  -2 3303.77 95.8401   5
   4   1  -2 3305.18 95.6270   3
   4   1  -2 3234.27 94.6062   2
  -4  -1   2 3466.81 97.4907   4
  -4  -1   2 3358.55 96.5532   5
  -4  -1   2 3300.46 94.9789   3
   3   1  -2 781.983 28.9279   3
   3   1  -2 791.980 28.0888   2
   3   1  -2 807.157 28.9813   5
  -3  -1   2 827.777 28.8681   3
  -3  -1   2 821.360 29.2390   5
   2   1  -2 152.527 8.78388   3
  -2  -1   2 157.463 8.61010   3
  -2  -1   2 140.677 8.41435   5
   1   1  -2 3728.07 97.1597   3
   1   1  -2 3771.65 94.9634   7
  -1  -1   2 3667.95 96.7407   3
   0   1  -2 1.35956 0.67454   2
   0   1  -2 1.18972 0.52208   3
   0   1  -2 0.47253 0.48360   7
   0  -1   2 0.04655 0.48565   7
   0  -1   2 1.55635 0.50815   3
  -1   1  -2 5772.05 145.170   7
  -1   1  -2 5732.39 145.786   4
  -1   1  -2 5547.20 143.003   6
   1  -1   2 5529.44 145.971   4
   1  -1   2 5796.24 145.341   7
   1  -1   2 5478.28 142.975   6
  -2   1  -2 206.186 10.8211   4
  -2   1  -2 209.030 9.80125   7
  -2   1  -2 187.741 9.59505   2
   2  -1   2 201.541 11.1073   4
   2  -1   2 205.920 9.90524   2
   2  -1   2 213.905 10.2053   7
   2  -1   2 185.896 9.22850   6
  -3   1  -2 119.543 8.34074   2
  -3   1  -2 114.031 7.50873   7
  -3   1  -2 111.164 8.99166   4
  -3   1  -2 111.332 6.95314   3
   3  -1   2 119.260 9.49236   5
   3  -1   2 107.949 6.32344   3
   3  -1   2 107.818 9.13893   4
   3  -1   2 116.832 6.76987   6
   3  -1   2 110.623 8.24530   2
  -4   1  -2 2282.82 70.7691   4
  -4   1  -2 2263.45 68.3325   2
  -4   1  -2 2229.98 65.5597   3
  -4   1  -2 2192.86 64.9276   7
   4  -1   2 2361.24 72.7175   4
   4  -1   2 2312.65 69.2035   2
   4  -1   2 2380.96 72.1274   5
   4  -1   2 2172.71 64.7734   3
   4  -1   2 2307.67 64.4175   6
  -5   1  -2 459.528 24.2466   4
  -5   1  -2 465.574 20.9243   3
  -5   1  -2 474.298 19.4653   7
   5  -1   2 428.209 24.4478   5
   5  -1   2 478.341 23.6530   2
   5  -1   2 427.826 19.3193   3
   5  -1   2 464.187 19.4176   6
  -6   1  -2 1461.72 46.0321   7
  -6   1  -2 1422.45 54.5099   4
   6  -1   2 1380.57 46.2496   6
   6  -1   2 1472.26 53.7951   2
   6  -1   2 1352.12 47.1193   3
  -7   1  -2 483.255 29.6181   4
  -7   1  -2 484.583 21.4947   7
  -7   1  -2 500.441 24.4597   3
   7  -1   2 496.123 30.4151   5
   7  -1   2 494.284 28.4479   2
   7  -1   2 476.646 23.9649   3
   7  -1   2 495.112 23.0004   6
  -8   1  -2 2.32261 5.62011   4
   8  -1   2 -1.8233 2.43791   6
   8  -1   2 3.62962 4.24663   2
   8  -1   2 8.05738 3.61568   3
   8   0  -2 91.1257 13.0361   3
   8   0  -2 96.5654 14.0662   2
  -8   0   2 91.0240 15.3626   4
   7   0  -2 458.995 27.4086   2
   7   0  -2 453.735 28.0812   5
   7   0  -2 454.796 26.5890   3
   7   0  -2 422.371 27.1769   1
  -7   0   2 381.526 36.2303   3
  -7   0   2 437.331 28.5971   5
  -7   0   2 440.410 27.2632   4
   6   0  -2 392.119 22.5924   3
   6   0  -2 317.873 20.8965   2
  -6   0   2 338.130 22.7094   5
  -6   0   2 364.140 21.8889   3
  -6   0   2 332.726 22.1075   4
   5   0  -2 3093.44 95.2166   2
   5   0  -2 3118.74 96.5915   1
   5   0  -2 3137.07 96.5363   5
   5   0  -2 3340.39 96.1910   3
  -5   0   2 3243.78 96.8745   4
  -5   0   2 3160.73 97.7844   5
  -5   0   2 3215.09 96.3394   3
   4   0  -2 300.628 16.4998   3
   4   0  -2 292.635 16.0856   2
   4   0  -2 274.875 16.2944   5
  -4   0   2 276.026 16.3599   3
  -4   0   2 263.366 15.7883   4
  -4   0   2 287.586 17.1893   5
   3   0  -2 121.374 9.17124   5
   3   0  -2 124.471 8.71983   2
   3   0  -2 111.478 8.59891   3
  -3   0   2 128.287 9.72654   5
  -3   0   2 106.337 8.65332   3
   2   0  -2 2761.31 73.8509   5
   2   0  -2 2626.22 73.2278   1
   2   0  -2 2586.46 73.3643   3
  -2   0   2 2640.98 72.3644   4
  -2   0   2 2608.39 73.6180   3
  -2   0   2 2626.61 73.7039   5
   1   0  -2 102.816 6.20065   3
   1   0  -2 113.339 6.04541   1
  -1   0   2 99.7407 6.02890   5
  -1   0   2 103.508 6.18432   3
   0   0  -2 2221.56 54.8906   3
   0   0  -2 2082.24 55.7151   1
   0   0   2 2029.54 55.7250   1
  -1   0  -2 102.498 5.43020   4
  -1   0  -2 118.020 5.66759   2
   1   0   2 121.886 6.86342   4
   1   0   2 110.211 5.51694   2
  -2   0  -2 2231.60 57.5348   3
  -2   0  -2 2129.96 59.6450   2
  -2   0  -2 2133.73 60.5169   4
   2   0   2 2133.23 57.2266   3
   2   0   2 2192.46 59.7669   2
   2   0   2 2124.08 60.9237   4
  -3   0  -2 1909.31 52.3732   3
  -3   0  -2 1873.66 51.9474   7
  -3   0  -2 1821.76 56.0658   4
  -3   0  -2 1864.69 54.9027   2
   3   0   2 1853.12 52.0715   3
   3   0   2 1860.09 54.9840   2
   3   0   2 1874.01 55.8008   5
   3   0   2 1803.59 56.6142   4
  -4   0  -2 4.94081 2.34218   4
  -4   0  -2 4.59519 1.74099   3
  -4   0  -2 4.95089 1.68387   7
  -4   0  -2 9.10512 2.56992   2
   4   0   2 5.96925 2.29861   5
   4   0   2 5.84475 2.11042   2
   4   0   2 7.29401 2.56841   3
  -5   0  -2 2030.60 59.1014   7
  -5   0  -2 1993.94 61.2275   3
  -5   0  -2 1942.88 65.7742   4
  -5   0  -2 2011.36 63.9508   2
   5   0   2 2132.63 66.7783   5
   5   0   2 1980.45 60.7172   3
   5   0   2 2005.83 64.8586   2
  -6   0  -2 555.118 29.0240   4
  -6   0  -2 562.995 21.4098   7
  -6   0  -2 586.054 27.0068   3
   6   0   2 546.107 28.1730   2
   6   0   2 564.681 25.1164   3
   6   0   2 593.824 29.7873   5
  -7   0  -2 8.58326 3.71997   4
  -7   0  -2 8.07781 4.07264   3
   7   0   2 15.8011 4.27422   6
   7   0   2 7.11475 3.85740   2
   7   0   2 9.48490 4.61493   5
   7   0   2 14.5738 4.16018   3
  -8   0  -2 358.035 26.2498   4
   8   0   2 290.347 20.0142   3
   8   0   2 317.009 23.9627   2
   8   0   2 337.869 18.0351   6
   8  -1  -2 88.4448 13.6897   2
   8  -1  -2 103.866 13.9664   3
   8  -1  -2 92.1991 11.9642   6
  -8   1   2 82.8784 24.2431   4
   7  -1  -2 38.1393 8.63923   3
   7  -1  -2 18.1785 5.41803   2
  -7   1   2 34.5165 8.83790   4
  -7   1   2 32.8906 7.75668   3
   6  -1  -2 1372.93 50.9788   3
   6  -1  -2 1329.28 51.7216   2
  -6   1   2 1338.92 54.4121   5
  -6   1   2 1294.29 49.2096   3
   5  -1  -2 362.046 20.8759   2
   5  -1  -2 324.669 30.0490   1
   5  -1  -2 353.734 20.2921   3
   5  -1  -2 368.581 24.3145   5
  -5   1   2 386.860 21.3574   4
  -5   1   2 330.550 19.4110   3
  -5   1   2 350.945 22.0292   5
   4  -1  -2 243.572 15.8395   5
   4  -1  -2 233.560 14.5964   3
   4  -1  -2 221.029 15.1443   1
   4  -1  -2 239.448 10.8961   7
   4  -1  -2 237.777 14.7575   2
  -4   1   2 256.739 16.5775   5
  -4   1   2 218.315 14.0174   3
  -4   1   2 217.896 14.3362   4
   3  -1  -2 1257.03 42.7043   3
   3  -1  -2 1329.04 37.9126   7
   3  -1  -2 1424.40 44.9102   5
   3  -1  -2 1323.76 42.3981   2
   3  -1  -2 1315.36 44.1006   1
  -3   1   2 1238.57 41.9919   3
  -3   1   2 1235.64 43.8918   5
  -3   1   2 1309.33 42.2510   4
   2  -1  -2 1389.64 42.2307   5
   2  -1  -2 1377.88 42.1922   1
   2  -1  -2 1350.77 37.8111   7
   2  -1  -2 1320.70 40.2215   4
   2  -1  -2 1240.37 41.2727   3
  -2   1   2 1355.78 40.1735   4
  -2   1   2 1262.85 40.2115   3
   1  -1  -2 5366.28 145.080   4
   1  -1  -2 5745.10 145.464   3
   1  -1  -2 5701.99 146.775   1
   1  -1  -2 5752.07 145.788   5
  -1   1   2 5709.18 143.597   4
  -1   1   2 5666.23 146.766   1
  -1   1   2 5422.35 145.369   5
   0  -1  -2 686.213 20.8983   6
   0  -1  -2 632.445 22.1216   1
   0   1   2 659.047 22.2042   1
   0   1   2 696.803 19.7433   5
  -1  -1  -2 263.403 8.98359   6
  -1  -1  -2 237.429 12.2172   2
   1   1   2 277.088 9.57879   2
   1   1   2 249.581 8.90435   6
  -2  -1  -2 7391.38 189.520   2
   2   1   2 7492.58 189.050   3
   2   1   2 7446.84 188.667   5
   2   1   2 7319.79 189.475   2
  -3  -1  -2 531.880 19.4820   3
  -3  -1  -2 548.356 20.5846   2
   3   1   2 553.061 19.7990   3
   3   1   2 534.182 20.2023   5
   3   1   2 536.443 27.4238   2
  -4  -1  -2 8195.57 210.657   3
  -4  -1  -2 7868.96 214.860   4
  -4  -1  -2 8099.53 212.553   2
   4   1   2 8202.62 210.934   3
   4   1   2 8209.82 213.221   2
   4   1   2 8078.52 212.669   5
  -5  -1  -2 615.464 24.8509   3
  -5  -1  -2 600.464 20.5017   7
  -5  -1  -2 603.741 26.2061   2
  -5  -1  -2 609.926 28.4810   4
   5   1   2 601.990 26.7184   5
   5   1   2 609.522 26.9116   2
   5   1   2 585.722 24.6651   3
  -6  -1  -2 9.76694 4.02904   4
  -6  -1  -2 12.2655 4.41670   2
  -6  -1  -2 22.7682 5.27466   3
   6   1   2 17.9672 4.76617   3
   6   1   2 12.0971 3.63683   2
   6   1   2 22.2859 6.07142   5
  -7  -1  -2 171.522 16.7970   4
  -7  -1  -2 180.550 14.4819   3
   7   1   2 164.809 13.5854   3
   7   1   2 179.979 15.9408   2
  -8  -1  -2 11.5973 4.36887   3
  -8  -1  -2 14.2948 5.60615   4
   8   1   2 7.66774 3.71722   5
   8   1   2 8.60731 4.81966   2
   8   1   2 7.60324 3.62057   3
  -9  -1  -2 354.525 27.8556   4
   9   1   2 361.495 19.8916   6
   9   1   2 311.945 24.8810   2
   9   1   2 336.826 23.5393   3
   7  -2  -2 1175.37 52.1167   2
   7  -2  -2 1238.62 50.1558   3
  -7   2   2 1247.26 53.6966   4
   6  -2  -2 25.2788 6.55889   2
   6  -2  -2 15.0861 4.64407   6
   6  -2  -2 41.1283 7.70631   3
   6  -2  -2 22.9341 6.00462   1
   6  -2  -2 37.4127 7.90768   5
  -6   2   2 18.5529 5.32319   4
   5  -2  -2 52.7702 6.21780   7
   5  -2  -2 46.5073 7.33153   3
   5  -2  -2 45.8326 8.15955   2
   5  -2  -2 46.0645 8.49176   1
   5  -2  -2 41.5580 7.48874   6
  -5   2   2 56.7392 8.57884   4
  -5   2   2 54.3656 9.02635   5
  -5   2   2 49.8790 7.25278   3
   4  -2  -2 209.403 14.2094   2
   4  -2  -2 211.691 16.0383   4
   4  -2  -2 206.396 14.3181   3
   4  -2  -2 218.457 15.2156   6
   4  -2  -2 206.865 11.7072   7
   4  -2  -2 208.990 15.4287   1
   4  -2  -2 206.526 15.2840   5
  -4   2   2 220.492 14.7227   4
  -4   2   2 208.825 15.6577   5
  -4   2   2 204.750 13.4389   3
   3  -2  -2 20.4795 4.28678   5
   3  -2  -2 17.5188 4.08385   6
   3  -2  -2 15.4014 3.78577   4
   3  -2  -2 17.7390 3.20441   7
   3  -2  -2 16.1191 4.25197   1
   3  -2  -2 15.4756 3.72340   2
  -3   2   2 22.7019 4.76126   5
  -3   2   2 16.6092 3.96770   4
   2  -2  -2 5037.53 138.338   6
   2  -2  -2 5222.88 138.891   3
   2  -2  -2 5086.08 135.241   7
   2  -2  -2 5265.10 140.236   1
   2  -2  -2 5113.21 136.826   4
   2  -2  -2 5064.21 138.332   5
  -2   2   2 5034.99 138.611   5
  -2   2   2 5344.53 137.628   4
   1  -2  -2 1905.97 53.9773   7
   1  -2  -2 1935.77 57.3679   1
   1  -2  -2 1981.63 53.9364   3
   1  -2  -2 1918.06 55.8652   6
   1  -2  -2 1862.43 54.3965   5
   1  -2  -2 1836.93 53.2095   4
  -1   2   2 1951.37 56.5242   1
  -1   2   2 1863.93 54.5390   5
   0  -2  -2 43.2629 4.94903   1
   0  -2  -2 40.9107 4.19497   6
   0  -2  -2 44.4675 3.48474   5
   0   2   2 39.2794 3.29645   5
   0   2   2 38.8979 4.85534   1
   0   2   2 46.0251 4.57687   6
  -1  -2  -2 1994.63 57.7141   6
   1   2   2 2087.35 58.0267   6
   1   2   2 2231.41 56.0049   2
  -2  -2  -2 241.099 10.0613   2
  -2  -2  -2 215.697 10.6403   3
   2   2   2 228.053 10.0713   6
   2   2   2 241.276 10.0888   2
  -3  -2  -2 4545.29 120.128   2
  -3  -2  -2 4653.24 120.870   3
   3   2   2 4516.23 121.865   3
   3   2   2 4330.30 118.013   5
   3   2   2 4574.02 120.465   2
  -4  -2  -2 2045.66 59.8623   3
  -4  -2  -2 1930.41 59.5478   2
   4   2   2 1994.55 60.1260   3
   4   2   2 2049.14 60.4767   2
   4   2   2 1968.10 58.5901   5
  -5  -2  -2 160.795 11.3539   3
  -5  -2  -2 171.395 13.8194   4
   5   2   2 167.770 11.6722   5
   5   2   2 158.130 11.8100   2
   5   2   2 168.833 11.8930   3
  -6  -2  -2 78.6905 9.12907   2
  -6  -2  -2 83.2143 8.98651   3
  -6  -2  -2 70.1602 9.97021   4
   6   2   2 77.4524 8.73729   3
   6   2   2 79.9154 9.28861   5
   6   2   2 80.9374 9.38102   2
  -7  -2  -2 232.479 19.4379   4
  -7  -2  -2 235.392 16.9141   3
   7   2   2 229.707 16.6684   3
   7   2   2 259.918 18.7898   2
   7   2   2 235.881 17.2121   5
  -8  -2  -2 740.424 39.6891   4
   8   2   2 697.016 36.0113   2
   8   2   2 732.486 36.5391   5
   8   2   2 725.490 34.8713   3
  -9  -2  -2 380.677 29.6528   4
   9   2   2 390.255 27.4863   2
   9   2   2 374.032 25.6984   3
   7  -3  -2 18.3536 6.80896   2
   7  -3  -2 13.6410 5.83602   3
   7  -3  -2 15.8535 5.52269   6
  -7   3   2 7.02758 5.50535   4
   6  -3  -2 49.7440 9.80918   2
   6  -3  -2 55.1633 9.58037   6
   6  -3  -2 65.9781 9.00024   7
   6  -3  -2 61.1907 9.42902   3
  -6   3   2 44.0031 10.6890   4
   5  -3  -2 274.610 18.7253   2
   5  -3  -2 284.362 20.3030   4
   5  -3  -2 276.101 20.6319   5
   5  -3  -2 301.360 18.8039   3
   5  -3  -2 289.723 16.8522   7
   5  -3  -2 282.884 19.3997   6
   5  -3  -2 295.430 21.3322   1
  -5   3   2 277.153 21.6700   4
   4  -3  -2 1080.99 40.6562   2
   4  -3  -2 1106.11 42.4072   4
   4  -3  -2 1102.27 44.5152   1
   4  -3  -2 991.014 42.2941   5
   4  -3  -2 1073.70 37.4804   7
   4  -3  -2 1011.68 41.0009   6
   4  -3  -2 1087.67 40.8995   3
  -4   3   2 1066.81 43.6696   5
  -4   3   2 1051.42 41.9592   4
   3  -3  -2 6652.42 171.316   5
   3  -3  -2 6358.22 170.126   6
   3  -3  -2 5309.15 166.716   3
   3  -3  -2 6088.89 165.010   7
   3  -3  -2 6131.80 168.367   4
   3  -3  -2 6271.40 172.254   1
   3  -3  -2 6368.31 166.920   2
  -3   3   2 6268.24 170.728   5
  -3   3   2 6345.25 169.762   4
   2  -3  -2 28.2198 5.54372   1
   2  -3  -2 31.7191 4.97814   4
   2  -3  -2 36.8344 5.14448   3
   2  -3  -2 30.8382 5.41565   6
   2  -3  -2 33.3625 5.27209   5
   2  -3  -2 35.0389 4.42530   2
   2  -3  -2 37.2511 5.14872   7
  -2   3   2 33.0245 5.21222   5
   1  -3  -2 1700.61 51.0423   5
   1  -3  -2 1714.00 51.2294   4
   1  -3  -2 1686.04 53.1341   6
   1  -3  -2 1567.88 54.3134   1
   1  -3  -2 1753.34 51.8033   7
  -1   3   2 1736.52 51.2523   5
  -1   3   2 1804.58 53.7496   1
   0  -3  -2 659.840 21.3466   5
   0  -3  -2 655.729 25.9634   1
   0  -3  -2 631.655 24.3649   6
   0   3   2 653.260 21.2016   5
   0   3   2 642.130 25.2176   6
   0   3   2 654.525 25.2112   1
  -1  -3  -2 8.71842 1.92731   2
  -1  -3  -2 4.14647 1.45435   6
   1   3   2 8.27037 2.24410   6
   1   3   2 5.00478 1.90885   1
  -2  -3  -2 7634.38 196.508   2
  -2  -3  -2 7712.55 200.580   3
   2   3   2 7863.94 196.628   2
   2   3   2 7713.15 200.364   6
  -3  -3  -2 1269.29 40.2826   3
  -3  -3  -2 1220.65 37.5935   2
   3   3   2 1255.17 37.9939   2
   3   3   2 1210.52 34.8202   5
   3   3   2 1246.30 39.0230   6
  -4  -3  -2 122.021 9.48931   3
  -4  -3  -2 111.407 8.32443   2
   4   3   2 117.060 7.70236   5
   4   3   2 128.980 9.88628   3
   4   3   2 121.270 8.90207   2
  -5  -3  -2 361.695 18.1061   2
   5   3   2 329.816 16.6442   5
   5   3   2 356.134 19.0613   3
   5   3   2 358.873 18.4683   2
  -6  -3  -2 5.09863 2.22222   2
  -6  -3  -2 5.34012 2.75946   3
   6   3   2 3.59489 2.34045   2
   6   3   2 1.89897 1.66364   3
   6   3   2 2.28194 2.05810   5
  -7  -3  -2 1319.23 56.1612   4
   7   3   2 1348.03 50.3378   5
   7   3   2 1448.08 54.7096   3
   7   3   2 1408.18 52.5474   2
  -8  -3  -2 237.093 21.5560   4
  -8  -3  -2 228.883 18.4448   3
   8   3   2 234.941 19.5859   2
   8   3   2 281.559 23.5818   5
   8   3   2 264.153 19.6855   3
  -9  -3  -2 16.5186 6.51128   4
   9   3   2 25.0177 6.94904   2
   9   3   2 29.9768 7.93486   3
   6  -4  -2 -3.7783 2.26582   2
   6  -4  -2 9.13122 2.80953   7
   6  -4  -2 7.66510 3.77360   6
   6  -4  -2 1.09476 2.83680   3
   5  -4  -2 288.589 21.4051   4
   5  -4  -2 306.804 20.9962   6
   5  -4  -2 301.229 19.6412   3
   5  -4  -2 297.356 18.1596   7
   5  -4  -2 289.727 22.2477   5
   5  -4  -2 311.012 20.6160   2
   5  -4  -2 310.401 23.8088   1
   4  -4  -2 1222.81 44.0627   2
   4  -4  -2 1143.43 43.6427   3
   4  -4  -2 1165.11 46.0734   6
   4  -4  -2 1138.68 48.8557   1
   4  -4  -2 1118.25 46.7224   5
   4  -4  -2 1076.98 45.3236   4
   4  -4  -2 1175.23 42.2332   7
   3  -4  -2 4.18631 2.95678   6
   3  -4  -2 0.81742 2.06450   5
   3  -4  -2 -1.3853 0.89944   7
   3  -4  -2 0.55551 1.83774   1
   3  -4  -2 -2.1572 1.85328   3
   3  -4  -2 2.71142 1.75221   2
   3  -4  -2 2.00925 1.73142   4
   2  -4  -2 35.1882 5.54896   7
   2  -4  -2 26.2494 4.27308   2
   2  -4  -2 29.3810 5.54674   4
   2  -4  -2 26.5560 4.88032   3
   2  -4  -2 25.8129 8.27662   6
   2  -4  -2 27.6046 5.57043   5
   2  -4  -2 27.7493 7.26849   1
   1  -4  -2 77.2071 8.14948   6
   1  -4  -2 92.7692 8.27408   7
   1  -4  -2 86.7002 9.80597   1
   1  -4  -2 100.961 8.63775   4
   1  -4  -2 77.1745 7.31982   5
  -1   4   2 91.8909 8.71758   6
  -1   4   2 95.8173 8.98940   1
   0  -4  -2 927.639 33.8788   7
   0  -4  -2 945.503 36.1412   1
   0  -4  -2 970.057 30.8460   5
   0   4   2 997.881 35.3756   1
   0   4   2 983.015 35.6770   6
  -1  -4  -2 3500.86 98.9753   6
   1   4   2 3574.30 99.3548   6
   1   4   2 3460.49 101.809   1
  -2  -4  -2 785.445 24.0534   2
  -2  -4  -2 779.667 29.4592   6
   2   4   2 816.857 24.2259   2
   2   4   2 814.409 30.0315   6
  -3  -4  -2 235.387 13.7387   3
  -3  -4  -2 227.692 10.8050   2
   3   4   2 232.633 13.5549   6
   3   4   2 260.192 11.3949   2
  -4  -4  -2 263.843 15.3838   3
  -4  -4  -2 255.254 13.2010   2
   4   4   2 261.599 13.5465   2
   4   4   2 276.769 15.0807   6
  -5  -4  -2 3.48098 2.29638   3
  -5  -4  -2 0.25658 1.34182   2
   5   4   2 4.72450 2.27652   3
   5   4   2 5.21903 1.85656   5
   5   4   2 2.76668 2.01987   2
  -6  -4  -2 2328.91 75.7165   3
  -6  -4  -2 2366.43 74.0249   2
   6   4   2 2443.14 75.6431   2
   6   4   2 2410.62 77.4595   3
   6   4   2 2442.56 72.4166   5
   7   4   2 482.134 26.8322   3
   7   4   2 456.080 25.3093   2
   7   4   2 466.537 23.8125   5
  -8  -4  -2 2.66123 3.27142   4
  -8  -4  -2 1.53941 3.53220   3
   8   4   2 -0.6464 2.63043   5
   8   4   2 -2.7307 3.07110   3
   8   4   2 -0.3316 2.94262   2
  -9  -4  -2 5.86048 5.74263   4
   9   4   2 4.37442 5.01146   5
   9   4   2 3.20894 4.74355   3
   9   4   2 6.17426 5.13382   2
   5  -5  -2 936.691 40.5350   7
   5  -5  -2 978.857 42.0831   2
   5  -5  -2 973.223 46.0048   4
   5  -5  -2 1038.65 45.7113   6
   5  -5  -2 968.940 40.5512   3
   4  -5  -2 2.03556 1.71389   2
   4  -5  -2 2.29491 3.00180   5
   4  -5  -2 -2.0103 2.09777   6
   4  -5  -2 -0.9535 1.78872   7
   4  -5  -2 4.75137 2.69055   4
   4  -5  -2 -0.4658 1.98700   3
   3  -5  -2 308.078 20.0342   4
   3  -5  -2 336.412 21.0373   6
   3  -5  -2 329.255 17.8843   2
   3  -5  -2 304.097 19.4718   3
   3  -5  -2 316.522 20.5487   5
   3  -5  -2 317.474 22.7990   1
   3  -5  -2 319.500 19.1504   7
   2  -5  -2 21.8588 5.51523   3
   2  -5  -2 30.8002 6.33893   5
   2  -5  -2 25.4699 7.52397   1
   2  -5  -2 30.7385 4.75698   2
   2  -5  -2 30.3815 6.03476   4
   2  -5  -2 25.2433 6.31409   6
   2  -5  -2 16.5933 4.04950   7
   1  -5  -2 51.3740 6.31232   5
   1  -5  -2 50.3855 7.49118   6
   1  -5  -2 48.5711 8.50092   1
   1  -5  -2 55.9437 5.22319   2
   1  -5  -2 53.8105 7.55299   4
   1  -5  -2 53.7684 7.13818   7
  -1   5   2 61.2683 7.85402   1
  -1   5   2 53.9318 7.98962   6
   0  -5  -2 2301.87 83.4810   6
   0  -5  -2 2611.17 81.7612   7
   0  -5  -2 2471.08 78.2679   1
   0  -5  -2 2561.16 71.6483   5
   0   5   2 2606.15 76.9866   1
   0   5   2 2545.59 78.4151   6
  -1  -5  -2 86.7658 9.03334   6
  -1  -5  -2 91.7194 8.64328   7
   1   5   2 80.5689 8.52440   6
   1   5   2 77.8897 9.06352   1
  -2  -5  -2 134.719 10.6905   7
  -2  -5  -2 153.563 11.7062   6
   2   5   2 144.656 11.9907   1
   2   5   2 159.478 12.0492   6
  -3  -5  -2 248.448 15.2109   3
  -3  -5  -2 247.500 10.7892   2
   3   5   2 258.349 15.8241   6
   3   5   2 258.295 11.1854   2
  -4  -5  -2 759.392 26.7228   2
  -4  -5  -2 808.649 32.3663   3
   4   5   2 812.335 27.6931   2
   4   5   2 748.381 31.4560   6
  -5  -5  -2 2732.36 80.0564   2
   5   5   2 2809.83 81.2362   2
   5   5   2 2821.67 84.8370   6
  -6  -5  -2 309.468 19.7546   3
   6   5   2 326.402 18.5362   2
   6   5   2 328.127 19.2240   6
  -7  -5  -2 325.883 26.7017   3
   7   5   2 330.684 24.5042   2
   7   5   2 303.525 19.1166   6
   8   5   2 -2.9790 2.95118   2
   8   5   2 4.62859 3.42679   3
  -9  -5  -2 -1.2115 4.79087   4
   9   5   2 10.0469 6.89023   2
   5  -6  -2 -4.3863 2.48026   3
   5  -6  -2 -3.3047 3.20215   2
   4  -6  -2 119.156 14.4478   5
   4  -6  -2 71.9583 12.1452   4
   4  -6  -2 83.3144 10.8216   7
   4  -6  -2 116.638 10.8986   2
   4  -6  -2 119.274 15.7347   1
   4  -6  -2 150.646 16.0836   6
   3  -6  -2 170.209 15.5729   4
   3  -6  -2 147.016 11.8168   2
   3  -6  -2 156.635 13.7686   7
   3  -6  -2 195.472 14.7046   5
   3  -6  -2 164.229 15.9270   6
   3  -6  -2 153.662 17.7980   1
   3  -6  -2 150.404 13.8804   3
   2  -6  -2 328.942 18.6907   3
   2  -6  -2 333.331 16.4287   2
   2  -6  -2 316.943 23.7761   1
   2  -6  -2 307.773 19.7224   7
   2  -6  -2 320.509 21.4592   6
   2  -6  -2 305.586 19.4909   5
   2  -6  -2 311.302 20.7320   4
   1  -6  -2 2618.36 85.8975   6
   1  -6  -2 2630.88 82.0538   2
   1  -6  -2 2610.42 84.1084   4
   1  -6  -2 2671.89 80.2521   5
   1  -6  -2 2663.21 83.6166   7
   1  -6  -2 2695.18 88.5349   1
  -1   6   2 2796.23 83.8611   1
  -1   6   2 2624.49 85.7256   6
   0  -6  -2 0.50882 1.87375   7
   0  -6  -2 1.05940 1.50553   6
   0  -6  -2 0.15277 1.61330   5
   0   6   2 2.01263 1.49104   1
   0   6   2 2.38050 2.04384   6
  -1  -6  -2 483.257 24.3764   7
  -1  -6  -2 506.623 25.9613   6
   1   6   2 470.643 25.2631   6
   1   6   2 564.244 25.9647   1
  -2  -6  -2 25.8262 5.09843   3
  -2  -6  -2 22.9386 5.02156   7
   2   6   2 11.4605 3.48739   1
   2   6   2 10.7512 3.52199   6
  -3  -6  -2 156.369 12.6012   3
  -3  -6  -2 159.370 12.3126   7
   3   6   2 169.112 13.3932   6
  -4  -6  -2 2477.40 76.9565   3
  -4  -6  -2 2474.60 79.7369   7
  -4  -6  -2 2283.63 66.9207   2
   4   6   2 2417.68 72.6572   2
   4   6   2 2437.57 77.5798   6
  -5  -6  -2 153.509 11.1655   7
   5   6   2 154.030 13.3119   6
   5   6   2 155.185 10.4498   2
  -6  -6  -2 355.912 17.7400   7
   6   6   2 369.033 21.7615   6
   6   6   2 365.341 19.4946   2
  -7  -6  -2 0.85395 3.64677   3
  -7  -6  -2 3.05723 2.32474   7
   7   6   2 7.51848 5.33991   6
   7   6   2 1.11194 2.62833   2
   8   6   2 37.1153 9.39101   2
   8   6   2 57.9845 9.91619   6
   9   6   2 718.294 37.6186   2
   9   6   2 686.198 35.0164   6
   4  -7  -2 7.49596 4.22669   2
   4  -7  -2 10.0173 4.38505   3
   3  -7  -2 206.511 21.0044   1
   3  -7  -2 204.830 14.1827   2
   3  -7  -2 217.480 17.9505   5
   3  -7  -2 173.596 18.5858   4
   2  -7  -2 522.935 29.2555   7
   2  -7  -2 615.364 32.9217   6
   2  -7  -2 574.744 33.7566   1
   2  -7  -2 612.667 28.5108   3
   2  -7  -2 558.227 31.4175   4
   2  -7  -2 588.214 29.2250   5
   2  -7  -2 561.658 23.3614   2
   1  -7  -2 -3.8856 1.72857   6
   1  -7  -2 1.05471 2.91321   1
   1  -7  -2 -0.0600 2.32667   4
   1  -7  -2 -1.7329 1.96094   7
   1  -7  -2 1.86580 2.29548   5
  -1   7   2 3.40640 2.30613   1
  -1   7   2 -0.1642 2.14135   6
   0  -7  -2 451.122 26.3190   4
   0  -7  -2 467.438 27.0602   6
   0  -7  -2 463.484 21.0136   5
   0   7   2 485.972 24.7246   1
   0   7   2 449.967 26.7970   6
   1   7   2 2.12027 2.99460   6
   1   7   2 -0.4556 2.20478   1
  -2  -7  -2 127.453 12.3327   7
  -2  -7  -2 139.066 12.2205   3
   2   7   2 131.261 13.2342   6
   2   7   2 131.426 13.1963   1
  -3  -7  -2 1891.32 64.1840   7
  -3  -7  -2 1920.04 65.1188   3
   3   7   2 1992.06 67.9622   1
   3   7   2 1943.56 67.7699   6
  -4  -7  -2 -0.2894 2.21328   7
  -4  -7  -2 8.27722 3.80600   3
   4   7   2 7.08074 3.11127   6
  -5  -7  -2 823.125 33.3273   7
  -5  -7  -2 821.547 37.2043   3
   5   7   2 856.926 41.3436   6
   5   7   2 829.803 29.6411   2
  -6  -7  -2 1.94289 3.75512   3
  -6  -7  -2 -0.6961 2.63599   7
   6   7   2 1.73936 1.99192   2
   6   7   2 -0.7832 1.80826   6
  -7  -7  -2 1.74326 3.03090   7
   7   7   2 0.20833 2.61735   6
   7   7   2 5.81913 3.78160   2
   8   7   2 642.388 33.8651   6
   8   7   2 624.992 31.4779   2
   2  -8  -2 4.77569 3.93891   1
   2  -8  -2 25.3800 6.90288   5
   2  -8  -2 9.44023 4.06174   3
   1  -8  -2 326.071 23.7391   4
   1  -8  -2 318.333 19.8795   5
  -1   8   2 339.257 24.9319   6
   0  -8  -2 5.16478 2.92748   5
   0  -8  -2 -0.4331 3.32452   7
   0  -8  -2 4.95155 3.24849   6
   0   8   2 0.21359 2.30045   1
   0   8   2 5.93834 3.63895   6
  -1  -8  -2 165.930 18.1586   6
   1   8   2 143.707 13.5448   1
   1   8   2 138.275 14.6991   6
  -2  -8  -2 883.798 37.7602   3
  -2  -8  -2 863.824 38.5847   7
   2   8   2 839.780 40.6922   6
   2   8   2 903.683 38.5124   1
  -3  -8  -2 37.8479 7.84248   3
   3   8   2 36.6018 8.16566   6
   3   8   2 28.6556 8.61745   1
  -4  -8  -2 426.078 25.0239   3
   4   8   2 393.620 25.8118   6
   4   8   2 440.916 26.9081   1
  -5  -8  -2 5.23174 4.04313   3
  -5  -8  -2 1.10730 2.89847   7
   5   8   2 1.65703 2.27426   6
  -6  -8  -2 39.5993 7.54945   7
   6   8   2 35.7236 6.65424   2
   6   8   2 31.8646 9.38853   6
  -7  -8  -2 782.799 31.6646   7
   7   8   2 789.677 39.8879   6
   7   8   2 758.644 32.7381   2
  -8  -8  -2 121.710 10.8119   7
   8   8   2 90.4635 12.4648   2
   8   8   2 103.456 15.1789   6
   1  -9  -2 -6.0175 2.96735   3
   1  -9  -2 4.72634 3.40132   5
   0  -9  -2 57.1399 8.43585   5
   0   9   2 75.3180 16.1497   6
   0   9   2 88.2469 11.5887   1
  -1  -9  -2 535.535 29.8197   3
   1   9   2 537.625 33.6770   6
   1   9   2 530.686 32.2205   1
   2   9   2 -4.9960 2.27124   1
   2   9   2 1.94126 3.39434   6
  -3  -9  -2 336.359 22.6901   7
  -3  -9  -2 351.616 22.7341   3
   3   9   2 349.593 26.0356   6
   3   9   2 346.557 23.4003   1
  -4  -9  -2 24.5352 6.80634   3
  -4  -9  -2 38.5380 9.69892   7
   4   9   2 18.4197 6.65383   6
   4   9   2 16.8074 5.52955   1
  -5  -9  -2 7.69825 4.62584   7
   5   9   2 2.06978 3.91916   6
   5   9   2 8.26624 3.75048   1
  -6  -9  -2 357.664 29.2881   7
   6   9   2 386.876 27.4848   6
  -7  -9  -2 -1.1841 4.25500   7
   7   9   2 1.94201 3.32760   2
   1  10   2 8.03693 5.47042   6
   1  10   2 11.1307 5.06676   1
   2  10   2 367.574 23.2282   1
   2  10   2 333.944 27.7385   6
   3  10   2 -3.1579 3.36685   1
   3  10   2 1.77058 4.50606   6
   4  10   2 12.4668 5.31810   1
   4  10   2 2.27020 5.03492   6
   5  10   2 383.105 29.2539   6
   5  10   2 448.438 30.3172   1
   3  10  -3 -3.6971 4.61700   6
  -3 -10   3 2.24392 4.63263   3
   2  10  -3 4.16393 5.31387   6
   6   9  -3 58.4613 13.6298   6
   5   9  -3 582.142 27.3266   1
  -5  -9   3 628.060 41.7363   7
   4   9  -3 9.66653 6.02914   6
  -4  -9   3 10.5089 4.49030   7
  -4  -9   3 13.7105 5.46015   3
   3   9  -3 8.93245 4.98335   6
  -3  -9   3 16.8664 5.37525   7
  -3  -9   3 4.66086 3.88760   3
   2   9  -3 186.707 19.4683   6
  -2  -9   3 195.589 15.1053   3
   1   9  -3 62.8207 12.8161   6
  -1  -9   3 39.5321 8.24288   5
  -1  -9   3 57.6772 8.19275   3
   0   9  -3 667.888 38.7882   6
   0  -9   3 700.602 31.1506   5
  -1   9  -3 15.0691 7.64052   6
   1  -9   3 9.53047 4.98451   5
   7   8  -3 257.212 18.0115   2
   7   8  -3 265.326 24.9545   6
  -7  -8   3 305.224 18.7130   5
   6   8  -3 813.016 31.0270   2
   6   8  -3 788.051 43.6566   6
  -6  -8   3 784.448 32.4518   5
  -6  -8   3 860.161 32.7823   7
   5   8  -3 59.3437 11.5879   6
  -5  -8   3 55.0628 11.4694   3
  -5  -8   3 78.3538 9.04188   7
  -5  -8   3 49.4883 8.06990   5
   4   8  -3 53.0640 11.4207   6
   4   8  -3 44.1471 8.19339   1
  -4  -8   3 56.8264 8.08334   5
  -4  -8   3 70.9768 10.2186   3
   3   8  -3 390.478 26.7883   6
  -3  -8   3 399.195 22.0521   3
   2   8  -3 1.76869 3.42008   6
  -2  -8   3 -0.2470 2.80582   3
   1   8  -3 817.341 41.3817   6
  -1  -8   3 926.703 40.0965   7
  -1  -8   3 880.032 33.4984   3
   0   8  -3 193.426 17.7365   6
   0  -8   3 165.824 18.7034   4
   0  -8   3 166.576 14.3369   5
  -1   8  -3 -1.6738 2.91906   6
   1  -8   3 -3.0506 3.31744   5
  -2   8  -3 118.206 15.1387   6
   2  -8   3 96.8705 13.3186   5
   3  -8   3 -1.5499 3.11102   1
   7   7  -3 396.411 23.2452   2
  -7  -7   3 399.142 23.0569   5
   6   7  -3 -0.1773 2.27292   2
   6   7  -3 -0.7080 2.86735   3
  -6  -7   3 2.24281 2.22532   7
  -6  -7   3 -1.9182 2.68418   5
  -6  -7   3 -5.2633 2.55183   3
   5   7  -3 4.91810 2.36396   2
   5   7  -3 5.03777 3.98503   6
  -5  -7   3 10.5449 2.89650   7
  -5  -7   3 2.46988 3.28339   3
  -5  -7   3 8.19581 3.53446   5
   4   7  -3 405.787 26.4162   6
  -4  -7   3 402.898 22.5885   3
  -4  -7   3 414.015 20.3036   5
  -4  -7   3 399.731 20.6155   7
   3   7  -3 254.745 14.0270   1
   3   7  -3 268.112 20.4926   6
  -3  -7   3 258.911 16.4409   7
  -3  -7   3 254.436 16.4345   3
   2   7  -3 2932.35 95.2272   6
  -2  -7   3 2913.52 89.2631   7
  -2  -7   3 2889.71 86.1723   3
   1   7  -3 -1.6590 1.84624   6
  -1  -7   3 -1.0709 1.89885   7
  -1  -7   3 1.52783 1.84516   3
   0   7  -3 124.411 13.0982   6
   0  -7   3 115.101 9.04781   3
  -1   7  -3 331.408 22.0992   6
   1  -7   3 314.230 19.8720   5
   1  -7   3 320.449 24.5743   4
  -2   7  -3 60.8532 10.0687   6
   2  -7   3 83.4756 10.2451   5
   2  -7   3 61.7642 9.59498   1
   2  -7   3 53.8069 12.2865   4
   2  -7   3 67.8587 10.9403   7
   3  -7   3 880.519 40.7175   1
   3  -7   3 811.661 40.5005   5
   4  -7   3 123.910 11.7933   2
   4  -7   3 194.214 27.5391   1
   8   6  -3 613.419 33.1402   2
   8   6  -3 569.451 36.8807   3
  -8  -6   3 586.026 31.8431   5
   7   6  -3 2.80371 4.11580   3
   7   6  -3 3.72790 3.51525   2
  -7  -6   3 -0.3480 4.82341   5
   6   6  -3 69.5068 12.2363   3
   6   6  -3 88.3568 9.86252   2
  -6  -6   3 84.6725 9.86711   5
  -6  -6   3 76.7217 10.8573   3
   5   6  -3 158.850 11.4474   2
   5   6  -3 174.330 15.3256   3
  -5  -6   3 151.878 10.5008   7
  -5  -6   3 173.818 12.6390   5
  -5  -6   3 179.515 14.7618   3
   4   6  -3 278.121 18.3819   3
   4   6  -3 250.243 12.9565   2
  -4  -6   3 264.728 14.7237   7
  -4  -6   3 269.397 15.5818   5
  -4  -6   3 275.009 17.2655   3
   3   6  -3 791.007 36.3234   6
  -3  -6   3 808.367 32.2404   3
   2   6  -3 170.040 14.6085   6
  -2  -6   3 176.965 11.8579   3
  -2  -6   3 183.140 13.0933   7
   1   6  -3 135.018 11.9350   7
   1   6  -3 151.786 13.4862   6
  -1  -6   3 131.965 11.5761   7
  -1  -6   3 133.670 9.76960   3
   0   6  -3 11.5875 3.74710   6
   0   6  -3 12.3479 3.97721   7
   0  -6   3 17.1552 3.87106   3
   0  -6   3 8.37890 3.01739   7
  -1   6  -3 446.471 24.4709   6
   1  -6   3 474.542 21.0399   1
  -2   6  -3 1495.56 56.0498   7
  -2   6  -3 1448.06 54.1426   6
   2  -6   3 1465.65 59.5326   4
   2  -6   3 1561.05 53.7616   1
   2  -6   3 1525.86 55.4397   5
   2  -6   3 1493.47 55.0544   7
  -3   6  -3 9.08607 3.71645   7
   3  -6   3 8.51330 3.69187   6
   3  -6   3 8.27484 4.59045   4
   3  -6   3 11.2668 3.41437   7
   3  -6   3 10.1862 2.89269   2
   3  -6   3 4.80806 3.53226   1
   3  -6   3 8.34189 4.45075   5
   4  -6   3 87.4368 11.7686   7
   4  -6   3 91.1300 12.0038   1
   4  -6   3 83.9360 9.10230   2
   4  -6   3 80.8246 9.86334   6
   4  -6   3 64.4031 12.5408   5
   5  -6   3 81.7210 10.6208   2
   5  -6   3 74.7696 13.4695   1
   5  -6   3 100.750 12.7988   6
   8   5  -3 6.23777 4.78638   3
   8   5  -3 5.72486 4.18430   2
  -8  -5   3 8.91782 4.93119   5
   7   5  -3 2.28773 3.30375   3
   7   5  -3 -2.0552 2.65261   2
  -7  -5   3 -1.0709 3.16283   5
   6   5  -3 80.9221 10.8827   3
   6   5  -3 81.0178 9.66833   2
  -6  -5   3 94.0924 10.4495   5
   5   5  -3 968.729 41.2178   3
   5   5  -3 952.991 35.4950   2
  -5  -5   3 971.380 36.8748   5
  -5  -5   3 944.448 38.7710   3
   4   5  -3 3104.50 93.4091   3
   4   5  -3 2900.86 84.9805   2
  -4  -5   3 3019.25 90.4307   3
  -4  -5   3 3058.91 88.1224   5
  -4  -5   3 3092.87 84.3073   7
   3   5  -3 4.82442 2.34526   3
   3   5  -3 5.09091 1.54474   2
  -3  -5   3 5.67315 2.12608   7
  -3  -5   3 1.37986 1.66960   3
   2   5  -3 1031.85 31.0351   1
   2   5  -3 936.941 34.7505   7
   2   5  -3 973.598 38.7622   6
  -2  -5   3 929.541 34.2789   7
  -2  -5   3 982.602 34.3768   3
   1   5  -3 302.045 18.0868   6
   1   5  -3 290.085 16.5716   7
  -1  -5   3 302.150 14.4065   3
  -1  -5   3 324.727 17.1427   7
   0   5  -3 331.492 18.5941   7
   0   5  -3 359.447 19.6629   6
   0  -5   3 362.637 18.8146   7
   0  -5   3 349.713 14.7498   3
  -1   5  -3 2354.89 74.4353   7
  -1   5  -3 2386.10 73.9197   6
   1  -5   3 2421.49 69.8787   1
   1  -5   3 2296.95 73.2600   7
  -2   5  -3 -0.2201 1.66926   6
  -2   5  -3 1.36084 1.64454   7
   2  -5   3 0.70748 1.59818   1
   2  -5   3 1.99058 1.99890   4
   2  -5   3 1.76269 2.12328   5
   2  -5   3 1.14340 1.49665   7
   2  -5   3 -1.2671 1.51759   6
   2  -5   3 -1.0800 0.83606   2
  -3   5  -3 62.3227 13.5611   7
  -3   5  -3 59.0781 8.08197   6
   3  -5   3 67.7928 6.96819   2
   3  -5   3 66.6240 8.53105   6
   3  -5   3 75.3677 10.8151   1
   3  -5   3 74.4077 10.4409   5
   3  -5   3 55.3685 7.68779   7
   3  -5   3 57.4239 10.2823   4
  -4   5  -3 20.4084 5.51174   7
   4  -5   3 36.1890 7.90623   1
   4  -5   3 38.6623 7.31164   7
   4  -5   3 37.9841 9.26936   4
   4  -5   3 27.6254 6.22228   6
   4  -5   3 16.4169 4.53568   2
   4  -5   3 22.4680 6.63355   5
   5  -5   3 96.6477 13.0011   1
   5  -5   3 77.8804 10.4163   6
   5  -5   3 81.5769 11.3108   7
   5  -5   3 101.962 10.9948   2
   6  -5   3 663.666 31.7128   6
   6  -5   3 678.706 33.9587   2
   8   4  -3 131.638 22.0455   3
   8   4  -3 87.0505 13.6120   2
  -8  -4   3 93.3986 17.2071   4
  -8  -4   3 99.7661 13.3126   5
   7   4  -3 2.23335 1.96326   2
   7   4  -3 -0.7215 2.78034   3
  -7  -4   3 -0.5402 2.75678   3
  -7  -4   3 5.59227 3.46763   5
   6   4  -3 818.391 38.3143   3
   6   4  -3 814.062 34.8335   2
  -6  -4   3 827.362 35.6182   5
   5   4  -3 1097.32 43.6176   3
   5   4  -3 1112.85 39.9907   2
  -5  -4   3 1022.54 40.7828   3
  -5  -4   3 1109.73 40.8282   5
   4   4  -3 92.4940 7.93930   2
   4   4  -3 110.107 10.4748   3
  -4  -4   3 88.6672 8.62700   5
  -4  -4   3 105.561 9.75819   3
   3   4  -3 26.1192 4.83456   3
   3   4  -3 17.8240 3.15741   2
  -3  -4   3 23.4363 4.42203   3
  -3  -4   3 26.5035 3.72896   7
   2   4  -3 433.310 18.5180   7
   2   4  -3 447.570 19.6660   3
  -2  -4   3 446.999 18.8811   3
  -2  -4   3 454.793 18.3951   7
   1   4  -3 1032.35 35.7819   7
   1   4  -3 1069.25 38.1083   6
  -1  -4   3 1057.06 35.3889   7
  -1  -4   3 1053.96 33.3982   3
   0   4  -3 4927.52 136.908   7
   0   4  -3 5235.99 138.093   6
   0  -4   3 4958.61 136.164   7
   0  -4   3 5011.85 130.892   3
  -1   4  -3 1.75479 0.93098   2
  -1   4  -3 0.21675 1.39400   7
  -1   4  -3 2.69068 1.54892   6
   1  -4   3 2.48171 2.01390   4
   1  -4   3 0.66859 1.23727   7
   1  -4   3 2.05147 1.33791   1
   1  -4   3 2.01187 0.85863   2
  -2   4  -3 682.920 24.0781   2
  -2   4  -3 703.050 27.7889   6
  -2   4  -3 662.469 28.8597   7
   2  -4   3 724.319 32.2576   4
   2  -4   3 711.217 27.6732   6
   2  -4   3 684.144 27.0806   1
   2  -4   3 678.858 28.5126   7
  -3   4  -3 50.4657 5.98502   6
  -3   4  -3 48.4079 7.59736   7
   3  -4   3 50.3843 8.71444   4
   3  -4   3 48.2987 6.07286   2
   3  -4   3 59.3695 7.08368   6
   3  -4   3 55.4175 7.49202   7
   3  -4   3 58.2296 7.45280   1
   3  -4   3 51.5632 8.47570   5
  -4   4  -3 80.2974 9.63719   7
   4  -4   3 85.0335 9.66175   7
   4  -4   3 83.3361 10.9080   5
   4  -4   3 86.6192 10.7946   1
   4  -4   3 88.7307 9.12574   2
   4  -4   3 89.6836 11.5368   4
   4  -4   3 97.6899 9.20388   6
  -5   4  -3 1144.77 44.7011   7
   5  -4   3 1157.63 50.3743   5
   5  -4   3 1172.00 45.4901   2
   5  -4   3 1102.91 41.2806   6
   5  -4   3 1083.86 50.3252   4
   5  -4   3 1095.85 46.9718   1
  -6   4  -3 110.248 12.5294   7
   6  -4   3 102.225 9.95139   6
   6  -4   3 93.6009 13.6861   1
   6  -4   3 108.725 12.5088   2
   8   3  -3 0.15780 3.49860   2
   8   3  -3 -4.4951 3.48335   3
  -8  -3   3 -2.4721 3.88826   4
  -8  -3   3 0.51009 3.45049   5
   7   3  -3 1157.19 49.9607   3
   7   3  -3 1134.02 47.1638   2
  -7  -3   3 1129.49 47.8779   5
  -7  -3   3 1160.13 51.7770   4
  -7  -3   3 1133.63 47.6098   3
   6   3  -3 1683.74 60.2264   2
   6   3  -3 1769.17 63.7547   3
  -6  -3   3 1769.65 61.7131   5
   5   3  -3 443.552 24.1712   3
   5   3  -3 447.863 22.3124   2
  -5  -3   3 455.069 23.1153   3
  -5  -3   3 463.139 23.4138   5
   4   3  -3 1344.32 46.4699   3
   4   3  -3 1246.76 42.5146   2
  -4  -3   3 1241.01 46.7132   3
  -4  -3   3 1346.25 44.7711   5
   3   3  -3 613.668 24.8214   3
  -3  -3   3 556.364 23.0834   3
  -3  -3   3 589.464 23.4559   5
  -3  -3   3 547.149 18.6728   7
   2   3  -3 1679.22 50.0880   3
   2   3  -3 1621.01 47.0953   7
  -2  -3   3 1600.86 48.6537   3
  -2  -3   3 1638.22 46.7581   7
   1   3  -3 4574.90 120.578   7
   1   3  -3 4621.75 119.772   3
  -1  -3   3 4472.95 118.809   3
  -1  -3   3 4469.56 119.935   7
   0   3  -3 6.10028 3.26368   6
   0  -3   3 12.6893 1.96750   3
   0  -3   3 12.0611 2.81062   7
  -1   3  -3 368.014 16.2318   6
  -1   3  -3 349.501 16.6286   7
  -1   3  -3 376.889 13.5099   2
   1  -3   3 376.173 18.8680   4
   1  -3   3 359.732 16.5421   7
   1  -3   3 317.607 13.5196   1
   1  -3   3 356.594 13.3667   2
  -2   3  -3 25.1689 4.59897   7
  -2   3  -3 21.0327 3.16135   2
   2  -3   3 28.1083 3.98335   6
   2  -3   3 32.6323 4.88647   7
   2  -3   3 31.4858 4.11229   2
   2  -3   3 31.2388 4.32030   1
   2  -3   3 29.3258 5.28635   4
  -3   3  -3 414.283 22.1265   4
  -3   3  -3 431.288 20.6622   7
  -3   3  -3 432.770 18.8810   2
   3  -3   3 427.668 18.9558   2
   3  -3   3 401.046 20.0179   7
   3  -3   3 446.739 18.8013   6
   3  -3   3 433.352 22.7637   5
   3  -3   3 443.291 23.2191   4
   3  -3   3 424.726 20.5798   1
  -4   3  -3 3162.79 92.9016   7
  -4   3  -3 3158.58 97.1925   4
  -4   3  -3 3130.34 91.4915   2
   4  -3   3 3081.26 89.2055   6
   4  -3   3 3165.12 92.2928   2
   4  -3   3 3225.67 99.6884   4
   4  -3   3 3095.51 94.8239   1
   4  -3   3 3113.93 98.0447   5
   4  -3   3 3244.06 94.1407   7
  -5   3  -3 1.23972 2.32536   4
  -5   3  -3 0.57811 1.38594   7
   5  -3   3 -0.2514 1.86227   2
   5  -3   3 -1.0447 1.55048   6
   5  -3   3 -0.9655 1.79794   4
   5  -3   3 -0.6868 1.73321   1
  -6   3  -3 548.219 31.8807   4
  -6   3  -3 580.570 27.8532   7
   6  -3   3 566.852 29.6201   2
   6  -3   3 516.315 28.5681   6
   6  -3   3 607.605 34.3049   5
   6  -3   3 550.815 41.4234   1
   6  -3   3 530.124 33.2002   4
  -7   3  -3 2.93971 4.66854   4
   7  -3   3 -1.2569 3.43889   2
   7  -3   3 1.16572 2.45543   6
   8   2  -3 314.096 24.8491   3
   8   2  -3 262.625 26.8363   2
  -8  -2   3 303.750 25.1754   4
  -8  -2   3 236.315 21.7342   5
   7   2  -3 367.761 24.1152   2
   7   2  -3 384.051 25.2511   3
  -7  -2   3 387.623 26.3849   4
  -7  -2   3 324.716 23.3298   3
  -7  -2   3 353.068 24.4643   5
   6   2  -3 426.089 25.4026   3
   6   2  -3 441.081 25.2000   2
  -6  -2   3 479.771 27.6015   4
  -6  -2   3 439.662 25.0218   5
   5   2  -3 123.492 12.2264   3
   5   2  -3 112.277 10.3807   2
  -5  -2   3 127.829 11.6392   5
  -5  -2   3 104.788 10.1968   3
   4   2  -3 4.59185 2.52384   3
   4   2  -3 1.86175 1.50205   2
  -4  -2   3 4.31713 1.93664   3
  -4  -2   3 3.02422 2.18432   5
   3   2  -3 2240.57 66.0756   3
  -3  -2   3 2204.36 65.2141   5
  -3  -2   3 2137.54 64.3432   3
   2   2  -3 5994.30 157.421   3
   2   2  -3 5731.08 148.437   7
  -2  -2   3 5755.99 152.285   3
   1   2  -3 106.985 6.55822   3
   1   2  -3 99.9826 6.10099   7
  -1  -2   3 102.176 6.12037   3
  -1  -2   3 93.1188 5.87034   7
   0   2  -3 3550.06 88.7966   2
   0   2  -3 3427.28 88.0895   3
   0   2  -3 3375.39 91.5721   7
   0  -2   3 3301.71 91.0753   7
  -1   2  -3 3.11229 1.28933   7
  -1   2  -3 5.11000 1.48833   2
  -1   2  -3 4.91968 1.48585   6
   1  -2   3 3.05008 1.28079   7
   1  -2   3 4.16974 1.18628   2
   1  -2   3 9.28841 2.53886   4
  -2   2  -3 1670.52 52.2005   4
  -2   2  -3 1728.66 49.1520   2
  -2   2  -3 1655.21 50.5453   7
  -2   2  -3 1655.19 47.7396   6
   2  -2   3 1674.40 50.7576   7
   2  -2   3 1669.55 47.8459   6
   2  -2   3 1709.57 53.4212   4
   2  -2   3 1654.12 48.7970   2
  -3   2  -3 2833.41 81.0950   2
  -3   2  -3 2864.71 84.6063   4
  -3   2  -3 2908.24 81.8552   7
   3  -2   3 2910.43 82.5509   7
   3  -2   3 2710.34 80.8120   2
   3  -2   3 2905.40 86.0701   4
   3  -2   3 3003.37 86.3050   5
   3  -2   3 2765.76 77.9180   6
  -4   2  -3 34.7194 5.05149   7
  -4   2  -3 32.5229 6.17346   4
  -4   2  -3 41.9454 5.89292   2
   4  -2   3 30.5944 6.53002   5
   4  -2   3 21.2000 4.88408   2
   4  -2   3 31.5225 6.16934   4
   4  -2   3 29.0291 4.08995   6
  -5   2  -3 423.298 17.4438   3
  -5   2  -3 448.687 24.7910   4
  -5   2  -3 431.704 20.7660   7
  -5   2  -3 438.656 22.5326   2
   5  -2   3 407.890 18.3885   6
   5  -2   3 444.786 23.0998   2
   5  -2   3 470.726 26.7173   4
  -6   2  -3 7.53451 3.51238   7
  -6   2  -3 8.51686 2.85266   3
  -6   2  -3 12.7620 4.16544   4
   6  -2   3 10.2828 3.19612   3
   6  -2   3 5.43682 2.63583   2
   6  -2   3 20.9883 4.50473   6
   6  -2   3 9.56688 4.11213   4
  -7   2  -3 57.5695 8.60867   7
  -7   2  -3 50.3008 11.0567   4
   7  -2   3 48.3925 9.19230   2
   7  -2   3 70.5224 7.43002   6
   7  -2   3 57.7144 7.73120   3
   7  -2   3 67.2959 15.4028   1
  -8   2  -3 613.621 37.1467   4
   8  -2   3 618.095 27.1083   6
   8  -2   3 696.794 37.3329   2
   8   1  -3 359.660 26.0799   3
   8   1  -3 329.678 24.9451   2
  -8  -1   3 338.904 26.5739   4
   7   1  -3 131.103 14.4475   2
   7   1  -3 151.280 15.4753   3
   7   1  -3 130.325 14.0802   5
   7   1  -3 139.432 14.8225   1
  -7  -1   3 171.030 16.5121   3
  -7  -1   3 136.140 15.3729   4
  -7  -1   3 149.341 15.6123   5
   6   1  -3 992.245 41.5685   2
   6   1  -3 1017.03 46.8683   3
  -6  -1   3 958.900 42.5506   5
  -6  -1   3 1019.73 43.0593   4
   5   1  -3 282.485 17.6834   2
   5   1  -3 289.478 18.3039   5
   5   1  -3 286.033 18.3217   3
  -5  -1   3 312.050 18.8095   3
  -5  -1   3 303.250 19.1740   4
  -5  -1   3 273.110 18.3822   5
   4   1  -3 730.424 30.1570   5
   4   1  -3 750.859 30.6798   3
   4   1  -3 754.403 29.4304   2
  -4  -1   3 736.428 29.9547   3
  -4  -1   3 729.846 30.4555   5
   3   1  -3 2065.14 62.5016   3
  -3  -1   3 2052.04 61.6294   3
   2   1  -3 903.539 30.8305   3
  -2  -1   3 943.210 30.5034   3
   1   1  -3 2079.83 59.2653   3
  -1  -1   3 2234.89 59.2873   3
   0   1  -3 150.852 7.74714   7
   0   1  -3 148.647 6.35372   3
   0   1  -3 145.763 7.00668   2
   0  -1   3 147.912 6.37551   3
  -1   1  -3 2354.01 65.2257   4
  -1   1  -3 2345.48 63.8391   2
  -1   1  -3 2357.04 65.4847   7
   1  -1   3 2416.70 63.8220   2
   1  -1   3 2417.41 65.9531   4
  -2   1  -3 4115.59 107.013   6
  -2   1  -3 4346.82 111.239   2
  -2   1  -3 4146.24 111.444   7
  -2   1  -3 4117.08 112.396   4
   2  -1   3 4252.33 113.563   4
   2  -1   3 4251.04 107.209   6
   2  -1   3 4067.78 110.747   2
  -3   1  -3 11.8184 3.00935   2
  -3   1  -3 7.57938 2.34465   4
  -3   1  -3 9.30725 2.50929   7
   3  -1   3 5.12733 2.23422   4
   3  -1   3 7.40668 2.47665   5
   3  -1   3 9.21956 1.86488   6
   3  -1   3 12.5530 3.03464   2
  -4   1  -3 1929.96 62.2344   4
  -4   1  -3 1882.50 55.8337   3
  -4   1  -3 1995.97 60.5549   2
  -4   1  -3 2005.49 57.9711   7
   4  -1   3 1923.02 55.1680   3
   4  -1   3 1950.06 60.5854   2
   4  -1   3 1953.56 63.2844   5
   4  -1   3 1911.67 63.8489   4
   4  -1   3 1920.12 54.2380   6
  -5   1  -3 10.5294 3.13816   2
  -5   1  -3 8.05981 2.67520   7
  -5   1  -3 10.1301 2.65421   3
  -5   1  -3 11.1924 4.01777   4
   5  -1   3 8.69956 3.05001   2
   5  -1   3 9.53433 2.66695   3
   5  -1   3 17.6710 5.17486   4
   5  -1   3 14.7535 3.28129   6
   5  -1   3 15.0078 4.40607   5
  -6   1  -3 82.6208 8.11474   7
  -6   1  -3 77.7522 8.26744   3
  -6   1  -3 91.4776 11.5065   4
   6  -1   3 84.9495 7.30905   6
   6  -1   3 90.2187 10.7431   2
   6  -1   3 94.6338 8.54945   3
  -7   1  -3 540.354 24.0919   7
  -7   1  -3 550.701 24.8864   3
  -7   1  -3 546.925 31.6682   4
   7  -1   3 574.069 33.0126   5
   7  -1   3 533.520 30.1570   2
   7  -1   3 544.195 23.0864   6
   7  -1   3 504.984 24.6661   3
  -8   1  -3 8.53176 4.81488   4
   8  -1   3 8.88236 3.46362   6
   8  -1   3 7.27322 4.75340   2
   8  -1   3 7.16158 3.43594   3
   8   0  -3 453.219 29.9901   2
   8   0  -3 514.643 31.5576   3
  -8   0   3 453.625 31.0499   4
  -8   0   3 462.907 32.3414   5
   7   0  -3 173.872 16.5722   3
   7   0  -3 153.525 16.0484   2
  -7   0   3 155.523 17.4534   5
  -7   0   3 174.135 15.6260   3
  -7   0   3 188.205 17.4380   4
   6   0  -3 69.7729 9.81282   2
   6   0  -3 68.3943 9.46258   3
  -6   0   3 68.8300 10.0445   4
  -6   0   3 73.1836 10.9959   5
   5   0  -3 1395.29 50.8933   3
   5   0  -3 1412.45 51.4314   1
   5   0  -3 1412.81 51.7504   5
   5   0  -3 1389.25 50.0103   2
  -5   0   3 1363.02 50.6086   3
  -5   0   3 1402.40 50.7980   4
  -5   0   3 1441.28 52.9680   5
   4   0  -3 2102.77 66.8493   3
   4   0  -3 2150.91 69.7992   5
   4   0  -3 2100.79 65.6230   2
  -4   0   3 2135.87 67.2729   3
  -4   0   3 2110.64 65.7478   4
  -4   0   3 2087.11 67.8533   5
   3   0  -3 2456.32 73.4720   1
   3   0  -3 2426.33 73.8437   3
   3   0  -3 2446.62 73.9646   5
  -3   0   3 2662.98 86.2052   4
  -3   0   3 2562.54 74.7167   3
  -3   0   3 2523.19 74.7645   5
   2   0  -3 5077.92 130.423   5
   2   0  -3 4509.03 130.137   3
   2   0  -3 4853.75 129.203   1
  -2   0   3 4903.62 134.784   5
  -2   0   3 4871.41 127.644   4
  -2   0   3 4981.62 130.594   3
   1   0  -3 10.9800 2.67102   3
   1   0  -3 14.0767 2.50667   1
  -1   0   3 9.01745 2.56449   1
  -1   0   3 9.52479 2.24012   3
   0   0  -3 1677.98 46.9503   1
   0   0  -3 1724.06 45.4508   3
   0   0   3 1640.15 46.6411   1
  -1   0  -3 3747.02 96.4827   2
  -1   0  -3 3735.55 95.7917   4
   1   0   3 3518.03 96.2196   4
   1   0   3 3791.31 96.4574   2
  -2   0  -3 295.743 12.5896   2
  -2   0  -3 291.750 12.8752   4
   2   0   3 284.119 13.1237   4
   2   0   3 292.919 12.5987   2
  -3   0  -3 2295.86 67.3054   2
  -3   0  -3 2283.03 68.2808   4
  -3   0  -3 2311.39 63.6533   3
  -3   0  -3 2442.16 66.3886   7
   3   0   3 2344.93 67.5711   2
   3   0   3 2353.05 63.9596   3
   3   0   3 2326.44 69.4923   4
   3   0   3 2433.29 69.0285   5
  -4   0  -3 38.7305 4.90010   7
  -4   0  -3 34.1855 4.34972   3
  -4   0  -3 37.8917 5.23502   2
  -4   0  -3 32.7408 5.51847   4
   4   0   3 39.8981 5.67439   2
   4   0   3 35.5445 5.70829   5
   4   0   3 46.4175 4.86148   3
  -5   0  -3 316.337 19.2477   4
  -5   0  -3 313.766 18.0997   2
  -5   0  -3 319.548 16.1118   3
  -5   0  -3 334.000 15.3058   7
   5   0   3 346.452 20.0119   5
   5   0   3 350.017 16.3642   3
   5   0   3 327.428 18.7669   2
  -6   0  -3 2141.56 67.4718   3
  -6   0  -3 2166.12 63.7927   7
  -6   0  -3 2221.59 71.5096   2
  -6   0  -3 2112.77 73.3888   4
   6   0   3 2162.74 62.8658   6
   6   0   3 2111.84 66.6122   3
   6   0   3 2249.60 72.7569   2
   6   0   3 2255.42 74.5539   5
  -7   0  -3 3.49392 2.99425   4
  -7   0  -3 3.99797 2.61751   3
  -7   0  -3 2.12541 2.07406   7
   7   0   3 2.24363 1.97629   6
   7   0   3 0.48692 2.28795   2
   7   0   3 3.11890 2.01165   3
  -8   0  -3 778.264 41.5775   4
   8   0   3 850.104 41.7889   2
   8   0   3 834.170 31.0076   6
   8   0   3 765.718 34.8424   3
   7  -1  -3 118.494 13.5555   3
   7  -1  -3 103.932 13.5025   2
  -7   1   3 95.9701 12.3781   3
  -7   1   3 110.175 14.9848   5
  -7   1   3 103.051 14.4221   4
   6  -1  -3 483.513 26.7646   3
   6  -1  -3 449.565 26.4287   2
  -6   1   3 459.926 28.1178   5
   5  -1  -3 109.152 11.1956   3
   5  -1  -3 105.607 10.9100   2
  -5   1   3 112.598 11.1480   4
  -5   1   3 101.516 11.7893   5
  -5   1   3 95.5797 10.5216   3
   4  -1  -3 2331.45 71.9765   2
   4  -1  -3 2265.64 72.7560   3
   4  -1  -3 2216.51 73.1253   5
   4  -1  -3 2363.41 74.0574   1
  -4   1   3 2343.15 71.6117   4
  -4   1   3 2504.48 76.0378   5
   3  -1  -3 1073.21 38.6026   1
   3  -1  -3 1097.08 32.3944   7
   3  -1  -3 1190.52 39.5897   5
   3  -1  -3 983.828 37.5463   3
  -3   1   3 1106.06 36.5485   4
  -3   1   3 1030.52 37.1023   3
  -3   1   3 1084.02 39.3496   5
   2  -1  -3 124.610 8.82217   5
   2  -1  -3 108.774 8.66020   3
   2  -1  -3 118.977 8.83414   1
  -2   1   3 119.660 8.27783   3
  -2   1   3 117.190 7.42260   4
  -2   1   3 106.807 8.43184   5
   1  -1  -3 590.432 18.6835   4
   1  -1  -3 637.168 22.9301   1
   1  -1  -3 624.327 21.6237   5
   1  -1  -3 607.856 21.4234   3
  -1   1   3 603.872 21.6107   5
  -1   1   3 600.563 22.5133   1
  -1   1   3 623.863 18.8444   4
   0  -1  -3 4467.85 118.531   1
   0   1   3 4448.89 118.411   1
  -1  -1  -3 1153.14 33.1165   2
  -1  -1  -3 1124.83 32.0849   6
   1   1   3 1183.59 33.1805   2
  -2  -1  -3 5150.60 132.467   3
  -2  -1  -3 5142.35 133.547   2
  -2  -1  -3 5104.72 134.109   4
   2   1   3 5102.77 129.382   6
  -3  -1  -3 13.1052 4.03228   4
  -3  -1  -3 13.4832 2.93490   2
  -3  -1  -3 13.1262 2.68526   3
   3   1   3 16.4687 2.91852   3
   3   1   3 13.3384 3.02549   5
   3   1   3 16.5413 3.15781   2
  -4  -1  -3 2398.65 72.8909   4
  -4  -1  -3 2419.55 68.3000   3
  -4  -1  -3 2355.70 70.6819   2
   4   1   3 2439.47 68.9219   3
   4   1   3 2433.28 71.3809   2
   4   1   3 2350.87 70.6983   5
  -5  -1  -3 1125.71 41.3170   2
  -5  -1  -3 1193.72 36.7424   7
  -5  -1  -3 1202.96 39.6058   3
  -5  -1  -3 1127.63 43.3436   4
   5   1   3 1183.78 39.6764   3
   5   1   3 1144.46 42.1244   5
   5   1   3 1154.93 42.1037   2
  -6  -1  -3 515.803 26.8223   2
  -6  -1  -3 459.466 18.7606   7
  -6  -1  -3 533.503 28.5533   3
  -6  -1  -3 484.560 26.7039   4
   6   1   3 469.605 22.5635   3
   6   1   3 474.410 24.9971   2
   6   1   3 463.569 24.9338   5
  -7  -1  -3 478.990 28.2241   4
  -7  -1  -3 451.546 24.0224   3
  -7  -1  -3 447.005 18.4982   7
   7   1   3 459.706 23.7092   3
   7   1   3 478.109 26.8119   2
  -8  -1  -3 2.52565 3.74127   4
   8   1   3 6.22649 3.73987   2
   8   1   3 1.91744 3.37424   5
   8   1   3 11.8438 4.44167   3
  -9  -1  -3 51.9814 12.4338   3
  -9  -1  -3 86.4139 15.1746   4
   9   1   3 92.9765 14.1537   2
   9   1   3 73.1704 12.2902   3
   7  -2  -3 233.508 19.6959   3
   7  -2  -3 226.302 19.0548   6
  -7   2   3 266.274 22.0306   4
   6  -2  -3 197.302 16.3628   6
   6  -2  -3 194.765 16.5676   2
   6  -2  -3 194.772 18.1580   1
   6  -2  -3 212.876 18.3861   5
   6  -2  -3 241.799 18.5447   3
  -6   2   3 214.050 19.2129   5
  -6   2   3 214.605 18.1524   4
   5  -2  -3 589.171 29.0623   2
   5  -2  -3 570.023 22.8211   7
   5  -2  -3 563.736 28.4531   6
   5  -2  -3 544.983 27.8885   3
  -5   2   3 573.125 28.6389   4
  -5   2   3 549.357 30.2074   5
   4  -2  -3 1168.51 44.9146   3
   4  -2  -3 1238.76 44.4576   2
   4  -2  -3 1226.44 46.5265   5
   4  -2  -3 1234.33 39.4080   7
   4  -2  -3 1251.45 47.4157   1
  -4   2   3 1246.18 47.3416   5
  -4   2   3 1263.99 44.8330   4
   3  -2  -3 22.7298 4.94380   3
   3  -2  -3 32.7076 5.13806   4
   3  -2  -3 22.3299 3.42870   7
   3  -2  -3 28.5417 5.17674   5
   3  -2  -3 26.3078 4.35254   2
   3  -2  -3 30.8406 6.63062   1
  -3   2   3 32.7144 5.07722   4
  -3   2   3 29.9278 5.61210   5
   2  -2  -3 520.176 22.4435   3
   2  -2  -3 551.045 22.7167   5
   2  -2  -3 519.778 23.5673   1
   2  -2  -3 542.103 20.0795   7
   2  -2  -3 525.192 20.4378   4
  -2   2   3 561.614 21.2362   4
  -2   2   3 518.117 22.4341   5
   1  -2  -3 1778.58 54.1839   6
   1  -2  -3 1853.86 56.3588   1
   1  -2  -3 1788.15 50.3581   4
   1  -2  -3 1754.84 52.5403   5
   1  -2  -3 1825.07 52.4465   3
  -1   2   3 1906.92 60.1483   1
  -1   2   3 1757.67 52.8213   5
   0  -2  -3 4259.02 121.651   1
   0  -2  -3 4703.31 119.632   6
   0   2   3 4647.30 116.654   5
   0   2   3 4346.17 121.303   1
  -1  -2  -3 4188.10 112.587   6
  -1  -2  -3 4236.53 111.066   2
   1   2   3 4254.03 112.702   6
   1   2   3 4474.56 111.650   2
  -2  -2  -3 71.3835 5.24605   2
  -2  -2  -3 79.0177 5.17754   6
   2   2   3 68.1003 4.97448   6
   2   2   3 76.9903 5.40878   2
  -3  -2  -3 411.371 16.8490   2
  -3  -2  -3 400.003 16.8199   3
   3   2   3 404.936 14.7975   6
   3   2   3 426.576 19.4005   2
   3   2   3 389.410 15.1696   5
  -4  -2  -3 2568.59 72.9131   3
  -4  -2  -3 2579.77 73.7691   2
   4   2   3 2428.93 71.6291   5
   4   2   3 2547.08 73.2568   3
   4   2   3 2511.28 73.7124   2
  -5  -2  -3 280.315 18.1290   4
  -5  -2  -3 289.688 19.2185   2
  -5  -2  -3 301.271 16.0094   3
   5   2   3 286.354 16.7070   2
   5   2   3 302.625 16.3582   5
   5   2   3 290.618 16.1441   3
  -6  -2  -3 4382.34 129.131   4
  -6  -2  -3 4409.67 115.996   7
  -6  -2  -3 4382.99 122.929   3
  -6  -2  -3 4319.79 124.514   2
   6   2   3 4236.28 124.081   5
   6   2   3 4289.93 123.231   3
   6   2   3 4354.95 125.717   2
  -7  -2  -3 45.1434 7.42288   3
  -7  -2  -3 43.3569 9.70633   4
   7   2   3 41.7674 7.64676   2
   7   2   3 53.8362 8.30356   5
   7   2   3 39.0765 7.23149   3
  -8  -2  -3 -2.0268 3.38365   3
  -8  -2  -3 -0.6442 2.63422   4
   8   2   3 -0.7189 2.23258   2
   8   2   3 -3.9995 3.10332   5
   8   2   3 -1.0874 2.36714   3
  -9  -2  -3 214.088 23.0678   4
   9   2   3 275.907 22.9331   2
   9   2   3 260.012 20.5706   3
   7  -3  -3 15.8041 6.24162   2
   7  -3  -3 6.65635 4.43576   3
  -7   3   3 8.43891 6.05333   4
   6  -3  -3 513.845 30.9407   6
   6  -3  -3 549.612 29.9770   3
   6  -3  -3 549.964 30.7673   2
   6  -3  -3 560.952 25.6929   7
  -6   3   3 548.927 31.5034   4
   5  -3  -3 840.524 37.7762   3
   5  -3  -3 841.968 38.5015   6
   5  -3  -3 914.657 39.8741   7
   5  -3  -3 879.247 38.4224   2
   5  -3  -3 986.239 52.9445   1
  -5   3   3 818.241 40.4639   5
  -5   3   3 874.279 39.2487   4
   4  -3  -3 38.6119 6.84348   3
   4  -3  -3 44.6645 6.86267   2
   4  -3  -3 40.9112 7.47483   6
   4  -3  -3 34.2876 5.47527   7
   4  -3  -3 49.0990 7.86907   4
   4  -3  -3 58.5682 8.75154   1
   4  -3  -3 40.8512 7.48563   5
  -4   3   3 39.5082 7.95888   5
  -4   3   3 55.4074 8.07462   4
   3  -3  -3 267.735 14.6622   7
   3  -3  -3 276.554 17.5978   5
   3  -3  -3 259.640 16.9556   3
   3  -3  -3 278.391 15.8928   2
   3  -3  -3 279.805 16.2414   4
   3  -3  -3 308.764 19.3843   1
   3  -3  -3 270.619 17.1975   6
  -3   3   3 264.833 16.3396   4
  -3   3   3 283.409 17.8431   5
   2  -3  -3 510.130 25.0104   1
   2  -3  -3 498.085 21.9401   3
   2  -3  -3 475.001 20.6146   7
   2  -3  -3 506.185 23.4164   6
   2  -3  -3 506.832 22.7347   5
   2  -3  -3 483.586 20.7296   4
  -2   3   3 532.838 24.5859   1
  -2   3   3 493.109 22.4947   5
   1  -3  -3 1400.08 46.9805   6
   1  -3  -3 1476.06 45.1852   5
   1  -3  -3 1375.16 43.2440   4
   1  -3  -3 1420.38 44.9270   7
   1  -3  -3 1421.12 49.8049   1
  -1   3   3 1497.12 48.9362   5
  -1   3   3 1496.06 48.3094   1
   0  -3  -3 3223.94 87.6595   6
   0  -3  -3 3115.84 82.8461   5
   0  -3  -3 2849.22 89.1843   1
   0   3   3 3254.25 87.8345   6
   0   3   3 3088.93 82.9192   5
   0   3   3 3033.10 88.9393   1
  -1  -3  -3 162.229 7.64191   2
  -1  -3  -3 147.298 9.37148   6
   1   3   3 162.621 11.1168   1
   1   3   3 168.300 10.0961   6
  -2  -3  -3 225.686 11.6770   6
  -2  -3  -3 229.073 10.2901   2
   2   3   3 238.512 10.2891   2
   2   3   3 234.334 11.9249   6
  -3  -3  -3 501.225 19.5712   2
  -3  -3  -3 525.853 21.5072   3
   3   3   3 540.494 19.9611   2
   3   3   3 531.194 20.2347   6
  -4  -3  -3 2341.49 69.8138   3
  -4  -3  -3 2336.43 68.5109   2
   4   3   3 2405.98 67.1214   6
   4   3   3 2437.17 69.1010   2
   4   3   3 2215.25 65.1859   5
  -5  -3  -3 1823.91 58.9073   2
  -5  -3  -3 1959.09 61.2454   3
   5   3   3 1878.80 60.1258   3
   5   3   3 1824.07 56.6209   5
   5   3   3 1886.15 59.6865   2
  -6  -3  -3 6.46013 2.87677   2
  -6  -3  -3 5.75116 3.22154   4
  -6  -3  -3 6.26981 2.77495   3
   6   3   3 6.35216 2.66473   3
   6   3   3 22.8106 5.35395   2
  -7  -3  -3 55.2556 8.08943   2
  -7  -3  -3 45.2777 7.98971   3
  -7  -3  -3 36.5661 9.13640   4
   7   3   3 52.6190 8.53700   2
   7   3   3 51.9984 7.64602   5
   7   3   3 33.3062 8.64336   3
  -8  -3  -3 521.578 32.6402   4
  -8  -3  -3 474.918 38.3778   3
   8   3   3 512.232 29.8109   2
   8   3   3 499.740 27.9636   3
  -9  -3  -3 1.10855 4.32096   4
   9   3   3 5.89338 4.03690   3
   9   3   3 3.62336 3.67945   2
   6  -4  -3 280.375 18.6755   7
   6  -4  -3 310.192 32.3768   6
   6  -4  -3 332.207 22.3421   3
   6  -4  -3 302.233 21.8377   2
   5  -4  -3 41.6873 9.21216   5
   5  -4  -3 18.9994 5.29566   6
   5  -4  -3 31.7140 9.63029   1
   5  -4  -3 18.4454 5.06564   3
   5  -4  -3 18.9704 5.22747   2
   5  -4  -3 23.0999 6.88461   4
   5  -4  -3 31.8823 5.67154   7
   4  -4  -3 288.231 20.3704   5
   4  -4  -3 314.814 22.9081   1
   4  -4  -3 320.442 19.3163   2
   4  -4  -3 287.863 19.1246   3
   4  -4  -3 273.380 19.2047   4
   4  -4  -3 309.953 20.7131   6
   4  -4  -3 280.946 17.0787   7
   3  -4  -3 75.9848 8.16813   7
   3  -4  -3 69.5912 7.81404   2
   3  -4  -3 82.7833 8.83735   4
   3  -4  -3 64.8764 10.0272   1
   3  -4  -3 66.7606 9.35049   3
   3  -4  -3 82.0621 10.0642   6
   3  -4  -3 71.4078 9.24674   5
  -3   4   3 80.4409 9.59070   5
   2  -4  -3 2515.96 75.0978   3
   2  -4  -3 2519.81 76.5391   5
   2  -4  -3 2386.40 74.7424   7
   2  -4  -3 2494.93 78.3840   6
   2  -4  -3 2544.55 72.8125   2
   2  -4  -3 2385.68 74.2970   4
   2  -4  -3 2521.60 81.9136   1
  -2   4   3 2481.86 76.2499   5
  -2   4   3 2574.58 79.3113   1
   1  -4  -3 2961.52 84.7524   5
   1  -4  -3 3003.16 84.8397   4
   1  -4  -3 2975.10 86.0974   7
   1  -4  -3 2729.44 91.3714   1
   1  -4  -3 3036.71 88.6817   6
  -1   4   3 2966.80 84.4957   5
  -1   4   3 3045.60 88.7131   1
   0  -4  -3 218.847 15.0142   1
   0  -4  -3 192.706 13.0431   6
   0  -4  -3 204.874 10.5816   5
   0   4   3 220.032 13.9355   6
   0   4   3 214.260 14.1479   1
  -1  -4  -3 147.814 10.5996   6
  -1  -4  -3 144.528 7.14727   2
   1   4   3 124.715 11.1694   1
   1   4   3 135.196 10.2470   6
  -2  -4  -3 1001.67 36.1121   6
  -2  -4  -3 1036.94 31.4539   2
   2   4   3 1106.74 32.0335   2
   2   4   3 1063.50 36.8668   6
  -3  -4  -3 746.272 29.2865   3
  -3  -4  -3 766.465 25.8306   2
   3   4   3 770.401 25.8305   2
   3   4   3 782.934 28.9826   6
  -4  -4  -3 3910.59 107.725   2
  -4  -4  -3 3896.12 111.344   3
   4   4   3 4005.54 108.175   2
   4   4   3 3947.64 109.484   6
  -5  -4  -3 32.1568 5.26938   2
  -5  -4  -3 23.6049 5.38775   3
   5   4   3 30.8937 5.20373   2
   5   4   3 26.8367 3.87133   5
   5   4   3 26.0718 4.60653   6
  -6  -4  -3 -1.1457 2.30414   2
  -6  -4  -3 1.21334 2.56214   3
   6   4   3 0.19371 1.84564   5
   6   4   3 1.86550 2.05906   6
   6   4   3 -0.1032 1.83323   2
  -7  -4  -3 145.986 12.9416   2
   7   4   3 154.503 13.8283   3
   7   4   3 140.840 13.2057   2
   7   4   3 156.560 12.4806   5
  -8  -4  -3 283.521 20.8069   3
  -8  -4  -3 248.600 23.0487   4
   8   4   3 309.646 21.6646   2
   8   4   3 321.517 21.9509   3
  -9  -4  -3 548.058 37.0004   4
   9   4   3 612.510 34.2332   3
   9   4   3 607.928 40.9891   2
   9   4   3 598.781 32.2872   5
   5  -5  -3 13.7396 4.39378   2
   5  -5  -3 13.0872 4.78445   3
   5  -5  -3 13.9627 5.11011   4
   5  -5  -3 5.22413 4.35458   6
   5  -5  -3 26.5086 6.35753   7
   4  -5  -3 -0.0558 2.04914   7
   4  -5  -3 1.84347 3.02366   1
   4  -5  -3 1.15755 2.99563   2
   4  -5  -3 -0.5598 3.42878   5
   4  -5  -3 -2.6715 2.94137   6
   4  -5  -3 0.92300 2.68354   4
   4  -5  -3 -1.8657 1.93587   3
   3  -5  -3 883.872 34.2696   2
   3  -5  -3 826.731 36.1949   4
   3  -5  -3 842.799 37.0076   3
   3  -5  -3 826.505 35.0746   7
   3  -5  -3 866.938 38.9289   6
   3  -5  -3 860.767 42.3554   1
   3  -5  -3 836.571 37.5185   5
   2  -5  -3 878.118 32.1876   2
   2  -5  -3 966.438 35.7872   3
   2  -5  -3 903.328 38.6171   6
   2  -5  -3 847.235 35.1391   4
   2  -5  -3 892.889 35.5571   7
   2  -5  -3 898.304 36.2238   5
   2  -5  -3 796.429 40.3802   1
   1  -5  -3 41.5606 7.49068   1
   1  -5  -3 50.9539 6.38284   5
   1  -5  -3 53.9432 7.47910   7
   1  -5  -3 45.4871 7.41824   6
   1  -5  -3 54.0995 7.05227   4
  -1   5   3 54.0684 8.17332   1
   0  -5  -3 190.836 14.9407   1
   0  -5  -3 202.021 13.7916   7
   0  -5  -3 190.909 10.9482   5
   0  -5  -3 189.090 14.1981   6
   0   5   3 199.279 14.5310   6
   0   5   3 201.301 14.7210   1
  -1  -5  -3 308.766 17.1200   7
  -1  -5  -3 306.271 17.7426   6
   1   5   3 290.180 17.4272   6
   1   5   3 303.116 18.9539   1
  -2  -5  -3 2848.37 85.2094   6
  -2  -5  -3 2813.25 76.2707   2
   2   5   3 2895.20 85.8805   6
   2   5   3 2885.85 87.7424   1
  -3  -5  -3 1188.91 36.4720   2
  -3  -5  -3 1191.99 43.4420   3
   3   5   3 1191.55 36.5242   2
   3   5   3 1237.17 43.0906   6
  -4  -5  -3 35.3412 6.12465   3
  -4  -5  -3 45.0144 5.03743   2
   4   5   3 40.2587 5.11540   2
   4   5   3 36.3358 5.89035   6
  -5  -5  -3 -1.2073 1.50664   2
  -5  -5  -3 6.63281 2.68665   3
   5   5   3 2.76309 1.78471   2
   5   5   3 -0.7188 1.65787   6
  -6  -5  -3 309.184 17.4665   2
  -6  -5  -3 274.499 18.5059   3
   6   5   3 280.636 17.1165   2
   6   5   3 318.042 18.2063   6
  -7  -5  -3 258.733 19.0085   3
  -7  -5  -3 295.094 18.2837   2
   7   5   3 278.525 21.6003   2
   7   5   3 274.053 17.3405   6
  -8  -5  -3 1248.37 51.9875   3
   8   5   3 1281.73 47.4475   6
   8   5   3 1216.70 50.3075   2
  -9  -5  -3 25.7814 9.07905   4
   9   5   3 52.5637 13.6656   2
   9   5   3 15.9147 5.64611   6
   4  -6  -3 999.270 48.8554   5
   4  -6  -3 1053.98 42.3176   2
   4  -6  -3 1049.41 46.4771   4
   4  -6  -3 1052.88 43.6475   7
   4  -6  -3 993.448 43.9800   3
   3  -6  -3 483.874 27.1592   5
   3  -6  -3 480.587 28.9283   6
   3  -6  -3 461.499 26.3923   4
   3  -6  -3 470.357 25.8447   7
   3  -6  -3 475.317 23.5759   2
   3  -6  -3 452.100 26.6469   3
   2  -6  -3 192.335 18.8557   1
   2  -6  -3 211.072 14.9174   5
   2  -6  -3 188.527 15.5747   4
   2  -6  -3 199.832 14.8270   3
   2  -6  -3 211.920 17.4735   6
   2  -6  -3 202.373 15.4902   7
   2  -6  -3 201.455 12.9029   2
   1  -6  -3 54.0438 8.12127   6
   1  -6  -3 61.4036 8.58779   7
   1  -6  -3 40.5645 7.41728   4
   1  -6  -3 47.8297 7.05554   5
   1  -6  -3 56.4674 10.0575   1
   1  -6  -3 48.2236 5.35896   2
  -1   6   3 63.8551 8.93194   1
   0  -6  -3 25.0568 4.25803   5
   0  -6  -3 32.0527 6.61443   6
   0  -6  -3 29.8789 5.91780   7
   0   6   3 30.4231 6.45395   1
   0   6   3 38.7941 7.05355   6
  -1  -6  -3 825.772 34.7333   7
  -1  -6  -3 822.934 35.9310   6
   1   6   3 859.682 36.6900   6
   1   6   3 875.856 36.5762   1
  -2  -6  -3 1849.75 60.7487   7
   2   6   3 1843.52 62.4742   6
   2   6   3 1812.03 64.3247   1
  -3  -6  -3 3.61889 2.48360   3
   3   6   3 3.13497 2.47257   6
  -4  -6  -3 7.16169 2.08271   2
  -4  -6  -3 12.3357 4.06680   3
   4   6   3 9.33272 2.97681   6
   4   6   3 19.1912 3.87515   2
  -5  -6  -3 56.8679 6.42247   2
   5   6   3 65.8150 6.95445   2
   5   6   3 82.8245 9.66872   6
  -6  -6  -3 1091.38 39.5800   2
   6   6   3 1102.46 40.5413   2
   6   6   3 1124.92 43.6283   6
  -7  -6  -3 770.037 28.9583   7
  -7  -6  -3 750.963 36.3324   3
   7   6   3 780.329 34.3924   6
   7   6   3 765.552 35.0452   2
   8   6   3 39.1885 7.79275   6
   8   6   3 19.8216 5.70334   2
  -9  -6  -3 12.9466 5.77375   4
   9   6   3 23.7262 5.92766   6
   9   6   3 17.2671 7.32425   2
   3  -7  -3 15.5349 4.53988   4
   3  -7  -3 13.8692 4.50120   5
   3  -7  -3 11.5199 3.67916   2
   3  -7  -3 15.4763 5.83761   3
   3  -7  -3 13.4965 6.66008   1
   2  -7  -3 4.54295 3.08853   7
   2  -7  -3 -3.3372 2.38945   5
   2  -7  -3 1.95232 2.05005   2
   2  -7  -3 -1.0395 2.31256   4
   2  -7  -3 3.37149 4.43447   6
   2  -7  -3 -0.4637 2.63005   1
   1  -7  -3 30.6516 8.24199   1
   1  -7  -3 33.5013 6.43525   5
   1  -7  -3 34.9726 7.62420   4
   0  -7  -3 1437.44 47.3068   5
   0  -7  -3 1255.81 61.1866   6
   0  -7  -3 1503.81 55.3451   4
   0   7   3 1535.42 54.5522   1
   0   7   3 1509.63 57.3167   6
   1   7   3 1966.14 67.3281   1
   1   7   3 1945.22 69.5428   6
  -2  -7  -3 315.672 21.0464   6
  -2  -7  -3 318.710 19.7386   7
   2   7   3 297.435 21.6396   6
   2   7   3 369.550 22.9463   1
  -3  -7  -3 84.2522 10.1055   7
  -3  -7  -3 92.6002 10.3212   3
   3   7   3 94.4349 11.5382   1
   3   7   3 82.4808 10.7644   6
  -4  -7  -3 97.5330 10.8489   3
  -4  -7  -3 110.424 10.9473   7
   4   7   3 97.3621 11.8022   6
  -5  -7  -3 478.531 19.9377   2
  -5  -7  -3 492.515 24.2285   7
   5   7   3 483.606 20.6709   2
   5   7   3 492.062 35.7813   6
  -6  -7  -3 986.867 37.4797   7
   6   7   3 981.192 36.6800   2
   6   7   3 939.383 41.4087   6
  -7  -7  -3 2.20452 2.99124   7
   7   7   3 -4.1844 2.50291   6
   7   7   3 3.54177 3.34669   2
   8   7   3 19.4209 5.62897   2
   8   7   3 36.5568 7.96363   6
   2  -8  -3 4.63797 6.29474   4
   2  -8  -3 5.75191 3.39487   3
   2  -8  -3 5.65731 4.86283   1
   1  -8  -3 518.241 30.4267   4
   1  -8  -3 528.258 27.1966   3
   1  -8  -3 519.018 25.6182   5
  -1   8   3 523.347 29.5219   1
   0  -8  -3 397.938 25.3258   7
   0  -8  -3 411.440 27.1917   6
   0  -8  -3 362.331 24.8994   4
   0  -8  -3 403.958 19.7450   5
   0   8   3 411.755 27.2287   6
   0   8   3 414.300 24.8001   1
   1   8   3 42.2022 9.33655   6
   1   8   3 44.0675 9.20943   1
  -2  -8  -3 23.1276 5.89292   3
  -2  -8  -3 21.3079 8.15180   7
   2   8   3 44.2119 9.00805   6
   2   8   3 47.0147 9.66179   1
  -3  -8  -3 15.3184 4.88739   3
   3   8   3 10.5569 4.28552   6
   3   8   3 8.43113 3.71428   1
  -4  -8  -3 802.594 38.2776   3
   4   8   3 837.242 40.5744   1
   4   8   3 811.030 39.3991   6
  -5  -8  -3 485.387 28.2334   3
   5   8   3 504.909 29.3635   6
   6   8   3 182.197 12.2297   2
   6   8   3 169.961 15.9192   6
  -7  -8  -3 66.1027 10.7273   7
   7   8   3 65.3297 10.0541   2
   7   8   3 93.0440 12.8359   6
  -8  -8  -3 99.1198 12.4509   7
   8   8   3 132.012 15.8371   6
   8   8   3 129.567 14.1596   2
   1  -9  -3 248.381 19.6423   3
   1  -9  -3 231.349 15.8292   5
   0  -9  -3 225.815 16.2265   5
   0   9   3 249.165 19.3327   1
   0   9   3 196.664 29.0383   6
   1   9   3 98.1936 14.0175   6
   1   9   3 76.7570 12.7933   1
  -2  -9  -3 2.05144 3.94261   3
   2   9   3 2.94418 3.45311   1
   2   9   3 -1.9355 3.42672   6
  -3  -9  -3 338.237 23.1721   7
  -3  -9  -3 320.688 22.4653   3
   3   9   3 343.305 25.2946   6
   3   9   3 357.428 26.9493   1
  -4  -9  -3 478.043 27.6481   7
  -4  -9  -3 441.514 27.3722   3
   4   9   3 487.486 31.3117   1
   4   9   3 460.573 29.9706   6
  -5  -9  -3 28.3021 7.13413   7
   5   9   3 44.5368 11.3913   6
   5   9   3 57.6777 13.5865   1
  -6  -9  -3 15.2851 5.72090   7
   6   9   3 20.8158 6.34314   6
  -7  -9  -3 1.41910 5.25309   7
   7   9   3 -2.4632 3.72838   6
   7   9   3 2.89529 3.94456   2
   1  10   3 1.05588 4.89863   1
   1  10   3 -11.853 7.22892   6
   2  10   3 479.346 28.9225   1
   2  10   3 448.455 32.0296   6
   3  10   3 278.023 22.3989   1
   3  10   3 240.824 23.4444   6
   4  10   3 267.805 22.6950   1
   4  10   3 240.714 23.2786   6
   5  10   3 112.560 19.0381   1
   5  10   3 110.196 17.3799   6
   5   9  -4 266.331 24.9993   6
  -5  -9   4 280.259 18.5644   7
   4   9  -4 13.7973 5.62738   6
  -4  -9   4 11.7476 5.89767   3
  -4  -9   4 -1.5565 4.52513   7
   3   9  -4 280.978 26.8916   6
  -3  -9   4 321.131 20.0301   3
  -3  -9   4 418.741 37.0334   7
   2   9  -4 110.599 16.8425   6
  -2  -9   4 126.772 11.8865   3
   1   9  -4 2.40176 4.12036   6
   0   9  -4 128.269 18.4787   6
   0  -9   4 115.879 12.6543   5
  -1   9  -4 211.811 24.1401   6
   1  -9   4 198.869 17.2596   5
   7   8  -4 0.82412 4.90404   2
   7   8  -4 -1.7967 5.12569   6
  -7  -8   4 7.79274 5.51198   5
   6   8  -4 239.215 24.3538   6
   6   8  -4 199.976 14.2572   2
  -6  -8   4 243.739 16.6459   5
  -6  -8   4 196.578 15.3665   7
   5   8  -4 248.528 22.9394   6
  -5  -8   4 249.971 16.8091   5
  -5  -8   4 236.266 16.4986   7
  -5  -8   4 243.376 19.2025   3
   3   8  -4 426.280 28.6760   6
  -3  -8   4 427.958 22.6899   3
   2   8  -4 -1.8248 2.98826   6
  -2  -8   4 -4.2852 2.73915   3
  -2  -8   4 3.91360 3.32011   7
   1   8  -4 180.018 18.1821   6
  -1  -8   4 166.411 12.0075   3
  -1  -8   4 172.641 15.0745   7
   0   8  -4 138.514 15.4977   6
  -1   8  -4 304.580 23.5817   6
   1  -8   4 323.906 21.4090   5
  -2   8  -4 261.420 21.9835   6
   2  -8   4 254.199 20.5138   5
   7   7  -4 145.715 18.1995   3
   7   7  -4 111.772 13.2927   2
  -7  -7   4 112.521 12.8915   5
   6   7  -4 4.49000 2.98865   2
   6   7  -4 0.27679 3.92838   3
  -6  -7   4 1.68575 2.97265   5
   5   7  -4 957.714 43.8790   3
   5   7  -4 975.553 34.4171   2
  -5  -7   4 926.911 42.1136   3
  -5  -7   4 950.149 38.1278   5
  -5  -7   4 955.745 35.3063   7
   4   7  -4 331.747 23.8276   6
  -4  -7   4 291.424 17.5216   7
  -4  -7   4 306.932 18.4647   5
  -4  -7   4 322.018 19.6222   3
   3   7  -4 215.615 18.8749   6
  -3  -7   4 205.403 14.7900   3
  -3  -7   4 215.975 14.8750   7
   2   7  -4 367.109 24.3065   6
  -2  -7   4 360.404 20.6122   7
  -2  -7   4 369.092 19.1226   3
   1   7  -4 637.437 32.6439   6
  -1  -7   4 600.685 24.9622   3
   0   7  -4 672.928 33.0744   6
   0   7  -4 682.834 32.9052   7
   0  -7   4 509.556 29.6809   7
  -1   7  -4 553.848 30.3944   7
  -1   7  -4 542.171 29.7992   6
   1  -7   4 544.356 47.3299   4
  -2   7  -4 6.11360 3.99839   7
  -2   7  -4 5.58066 3.71821   6
   2  -7   4 2.88986 4.39822   4
   2  -7   4 3.92735 3.51223   5
   2  -7   4 4.73965 2.42710   1
   2  -7   4 8.62913 4.01376   7
  -3   7  -4 33.8151 9.56951   6
   3  -7   4 36.9976 8.77546   1
   3  -7   4 16.4873 6.62611   5
   4  -7   4 55.2549 8.74511   2
   4  -7   4 56.3515 11.4612   1
   8   6  -4 167.985 22.0998   3
   8   6  -4 132.372 16.3185   2
  -8  -6   4 120.147 17.0078   5
   7   6  -4 17.8966 5.56802   2
   7   6  -4 15.0560 6.07396   3
  -7  -6   4 21.5603 6.08792   5
   6   6  -4 1050.09 41.4607   2
   6   6  -4 1086.22 48.8837   3
  -6  -6   4 1136.94 43.5559   5
  -6  -6   4 1053.75 44.8473   3
   5   6  -4 381.865 19.3248   2
   5   6  -4 386.684 24.7546   3
  -5  -6   4 382.444 17.8981   7
  -5  -6   4 408.150 22.0627   5
  -5  -6   4 379.271 22.3705   3
   4   6  -4 12.1821 4.33629   3
   4   6  -4 5.09075 2.05020   2
  -4  -6   4 7.92416 3.63263   3
  -4  -6   4 4.64316 3.12458   5
  -4  -6   4 5.93629 2.23609   7
   3   6  -4 576.026 30.3475   6
  -3  -6   4 580.740 25.8937   3
  -3  -6   4 575.222 25.0190   7
   2   6  -4 175.353 13.3133   7
   2   6  -4 191.079 15.7728   6
  -2  -6   4 167.167 11.8650   3
  -2  -6   4 215.352 14.0733   7
   1   6  -4 1143.70 43.3484   7
   1   6  -4 1097.33 44.6444   6
  -1  -6   4 1117.09 41.9484   7
  -1  -6   4 1123.53 37.6971   3
   0   6  -4 1979.45 67.5229   7
   0   6  -4 2038.42 68.3233   6
   0  -6   4 1998.91 66.4699   7
  -1   6  -4 38.3704 7.64321   7
  -1   6  -4 55.4006 8.39620   6
  -2   6  -4 5.05942 2.47442   6
  -2   6  -4 6.96457 2.87153   7
   2  -6   4 0.92332 2.08070   1
   2  -6   4 -2.3275 2.33909   7
   2  -6   4 -5.9676 2.71977   5
  -3   6  -4 342.704 21.6307   6
  -3   6  -4 360.906 24.0068   7
   3  -6   4 373.309 22.1304   1
   3  -6   4 385.751 18.2380   2
   3  -6   4 358.111 23.0984   7
   3  -6   4 387.202 24.7235   5
   3  -6   4 369.727 27.1283   4
  -4   6  -4 288.110 21.7963   7
   4  -6   4 298.987 36.5485   5
   4  -6   4 290.718 17.1035   2
   4  -6   4 307.392 21.1318   1
   5  -6   4 489.369 25.2879   2
   5  -6   4 483.774 29.7659   1
   8   5  -4 73.7870 14.7238   3
   8   5  -4 74.2110 14.1381   2
  -8  -5   4 65.3174 13.4459   5
   7   5  -4 1325.59 51.2203   2
   7   5  -4 1168.05 54.3363   3
  -7  -5   4 1258.49 51.2097   5
   6   5  -4 166.730 16.1206   3
   6   5  -4 159.341 13.8482   2
  -6  -5   4 180.770 15.2988   5
  -6  -5   4 142.839 13.7129   3
   5   5  -4 65.8187 8.48218   2
   5   5  -4 99.2215 11.8275   3
  -5  -5   4 71.7958 9.43683   3
   4   5  -4 165.637 14.1449   3
   4   5  -4 159.393 10.8114   2
  -4  -5   4 176.811 13.0099   5
  -4  -5   4 169.141 10.4255   7
  -4  -5   4 145.491 12.4120   3
   3   5  -4 129.619 8.40831   2
   3   5  -4 136.781 11.3804   3
  -3  -5   4 123.414 9.15846   7
  -3  -5   4 102.500 9.64502   3
   2   5  -4 2415.41 72.7842   3
   2   5  -4 2455.14 73.4096   7
  -2  -5   4 2438.06 72.3209   7
  -2  -5   4 2435.56 71.4771   3
   1   5  -4 1192.83 44.4424   6
   1   5  -4 1166.02 42.1835   7
  -1  -5   4 1190.34 37.9078   3
   0   5  -4 2.44825 2.13010   7
   0   5  -4 0.18011 1.53988   6
   0  -5   4 0.29658 0.89595   3
   0  -5   4 1.35176 1.49070   7
  -1   5  -4 566.549 27.0359   7
  -1   5  -4 573.338 26.0986   6
   1  -5   4 535.911 28.8647   4
   1  -5   4 581.064 26.5915   7
   1  -5   4 561.384 21.3177   1
  -2   5  -4 29.6671 6.77301   7
  -2   5  -4 34.0247 6.34831   6
   2  -5   4 42.6895 7.23491   7
   2  -5   4 41.2641 5.01777   2
   2  -5   4 31.4575 6.02830   1
  -3   5  -4 977.923 41.2985   7
  -3   5  -4 1043.72 39.1395   6
   3  -5   4 1035.64 39.2723   1
   3  -5   4 952.312 40.3708   7
   3  -5   4 964.480 34.8658   2
   3  -5   4 993.513 42.8819   5
  -4   5  -4 253.367 18.7251   7
   4  -5   4 228.401 17.6422   1
   4  -5   4 253.764 15.7554   2
   4  -5   4 227.648 18.4188   7
   4  -5   4 268.493 22.3577   4
   4  -5   4 229.719 23.3488   5
   4  -5   4 254.220 16.5355   6
  -5   5  -4 5.16020 4.03257   7
   5  -5   4 11.4490 4.11323   6
   5  -5   4 13.3812 3.55138   2
   5  -5   4 11.0374 4.06810   1
   6  -5   4 17.0093 5.98001   2
   6  -5   4 12.2950 3.77701   6
   8   4  -4 552.389 35.4768   3
   8   4  -4 628.286 35.2272   2
  -8  -4   4 569.901 38.4648   4
  -8  -4   4 605.939 33.8195   5
   7   4  -4 279.016 23.0015   3
   7   4  -4 334.552 21.8775   2
  -7  -4   4 327.785 22.6317   5
   6   4  -4 25.4774 6.69070   2
   6   4  -4 18.7157 5.68205   3
  -6  -4   4 35.6949 7.81775   5
   5   4  -4 65.5682 9.13462   3
   5   4  -4 50.9593 7.25208   2
  -5  -4   4 62.8693 8.34184   5
  -5  -4   4 57.2346 8.14235   3
   4   4  -4 33.2115 6.36109   3
   4   4  -4 28.1933 4.72285   2
  -4  -4   4 32.9581 5.91105   5
  -4  -4   4 39.6647 6.11730   3
   3   4  -4 3906.48 109.884   3
  -3  -4   4 3784.50 103.397   7
  -3  -4   4 3829.60 107.759   3
   2   4  -4 2065.94 60.1262   3
   2   4  -4 1957.30 58.4739   7
  -2  -4   4 1894.43 58.0362   3
  -2  -4   4 1903.69 57.4003   7
   1   4  -4 250.428 12.8811   3
   1   4  -4 253.840 13.9755   7
  -1  -4   4 254.272 13.7283   7
  -1  -4   4 251.480 12.0696   3
   0   4  -4 23.6726 4.65272   6
   0   4  -4 27.6259 4.93154   7
   0  -4   4 17.0322 3.95097   7
  -1   4  -4 184.813 12.9899   7
  -1   4  -4 177.476 11.9600   6
  -1   4  -4 182.824 8.99445   2
   1  -4   4 199.435 15.1216   7
   1  -4   4 187.231 9.48029   1
   1  -4   4 184.566 15.3251   4
   1  -4   4 198.222 9.13683   2
  -2   4  -4 1389.99 43.0422   2
  -2   4  -4 1323.34 45.8312   6
  -2   4  -4 1446.07 49.2946   7
   2  -4   4 1471.00 43.6097   2
   2  -4   4 1415.69 44.9748   1
   2  -4   4 1444.69 48.7459   7
   2  -4   4 1391.75 52.3306   4
  -3   4  -4 1418.45 45.9474   2
  -3   4  -4 1470.34 51.2202   7
  -3   4  -4 1400.29 47.1463   6
   3  -4   4 1406.54 48.7219   1
   3  -4   4 1394.07 52.9584   5
   3  -4   4 1497.10 47.5532   6
   3  -4   4 1478.02 55.5961   4
   3  -4   4 1399.50 46.0632   2
   3  -4   4 1443.09 50.8513   7
  -4   4  -4 5.51778 3.26190   7
   4  -4   4 8.16949 2.97846   7
   4  -4   4 5.42605 2.60618   1
   4  -4   4 9.38491 4.32188   5
   4  -4   4 8.04112 3.01209   6
   4  -4   4 11.6934 3.23553   2
  -5   4  -4 15.1656 4.42439   7
   5  -4   4 7.85321 3.03378   2
   5  -4   4 34.2647 10.0434   6
   5  -4   4 20.4582 6.21797   4
   5  -4   4 24.7199 7.24799   5
   5  -4   4 20.6033 6.23557   1
  -6   4  -4 39.2408 8.84052   7
   6  -4   4 35.5858 5.81363   6
   6  -4   4 19.8278 5.45681   2
   8   3  -4 119.094 16.5822   3
  -8  -3   4 89.8968 17.1016   4
  -8  -3   4 118.106 15.7221   5
   7   3  -4 421.897 27.7158   3
   7   3  -4 411.414 25.6283   2
  -7  -3   4 422.645 26.5376   5
  -7  -3   4 363.472 24.7524   3
  -7  -3   4 406.414 28.3597   4
   6   3  -4 1.90154 2.65779   3
   6   3  -4 1.95401 2.03540   2
  -6  -3   4 5.35309 3.76310   5
   5   3  -4 7.50034 3.27492   3
   5   3  -4 2.79505 2.09872   2
  -5  -3   4 7.50820 3.42314   5
  -5  -3   4 3.33044 2.27325   3
   4   3  -4 2710.07 83.5889   3
   4   3  -4 2778.38 80.1583   2
  -4  -3   4 2662.04 81.3570   3
  -4  -3   4 2715.14 82.0535   5
   3   3  -4 370.328 18.9127   3
   3   3  -4 361.594 14.0425   7
  -3  -3   4 356.474 17.5840   3
  -3  -3   4 407.574 19.3925   5
   2   3  -4 519.788 21.3127   3
   2   3  -4 518.714 19.2522   7
  -2  -3   4 509.745 20.3220   3
  -2  -3   4 510.966 19.0480   7
   1   3  -4 417.708 18.0279   7
   1   3  -4 401.749 16.1309   3
  -1  -3   4 382.495 16.3471   7
  -1  -3   4 378.663 15.2217   3
   0   3  -4 15.3837 3.64545   7
   0   3  -4 17.7562 2.50511   2
   0  -3   4 16.6254 3.31863   7
  -1   3  -4 4781.92 126.123   7
  -1   3  -4 4195.12 134.372   6
  -1   3  -4 4777.66 120.452   2
   1  -3   4 4330.78 127.771   4
   1  -3   4 4991.71 120.492   2
   1  -3   4 4700.99 125.322   7
   1  -3   4 4381.30 118.795   1
  -2   3  -4 2330.77 68.5802   7
  -2   3  -4 1858.00 72.9003   6
  -2   3  -4 2244.71 63.8603   2
   2  -3   4 2319.29 68.2016   7
   2  -3   4 2317.36 71.6738   4
   2  -3   4 2481.41 75.0764   2
   2  -3   4 2141.28 64.0004   1
  -3   3  -4 425.526 19.4613   2
  -3   3  -4 463.174 21.9172   7
  -3   3  -4 439.470 18.6126   6
   3  -3   4 448.304 18.7509   6
   3  -3   4 460.389 21.0412   1
   3  -3   4 451.345 19.8201   2
   3  -3   4 454.202 24.2243   4
   3  -3   4 443.920 22.3137   7
  -4   3  -4 2.76604 2.16851   4
  -4   3  -4 -0.2357 1.66642   7
  -4   3  -4 0.47370 1.99604   2
   4  -3   4 1.34448 1.37062   2
   4  -3   4 1.81138 3.14475   5
   4  -3   4 6.03759 2.90177   4
   4  -3   4 1.10107 1.31721   6
   4  -3   4 2.31204 2.25237   1
  -5   3  -4 308.157 21.0418   4
  -5   3  -4 293.169 18.0453   2
  -5   3  -4 299.388 18.5994   7
   5  -3   4 293.770 19.7617   1
   5  -3   4 296.318 15.4097   6
   5  -3   4 291.124 18.4038   2
  -6   3  -4 691.501 31.2136   7
  -6   3  -4 580.824 32.9961   4
   6  -3   4 597.631 35.2830   5
   6  -3   4 656.776 36.7186   1
   6  -3   4 606.002 31.0139   2
   6  -3   4 627.848 25.6419   6
   6  -3   4 598.717 35.9506   4
  -7   3  -4 815.212 36.2384   7
  -7   3  -4 750.016 41.2854   4
   7  -3   4 820.643 39.6004   2
   7  -3   4 792.096 32.9802   6
   8   2  -4 91.3607 14.2765   2
   8   2  -4 89.5174 17.5680   3
  -8  -2   4 101.310 16.0695   4
  -8  -2   4 115.598 22.6366   5
   7   2  -4 66.8642 11.2694   1
   7   2  -4 55.3445 10.8533   3
   7   2  -4 50.7265 9.69864   2
  -7  -2   4 72.2355 12.3633   4
  -7  -2   4 48.5724 10.4362   5
  -7  -2   4 47.5546 9.75833   3
   6   2  -4 88.0112 11.8445   3
   6   2  -4 112.655 11.9063   2
  -6  -2   4 109.556 11.8689   5
  -6  -2   4 100.028 12.4647   4
   5   2  -4 2901.15 91.6442   3
   5   2  -4 2965.54 89.1380   2
  -5  -2   4 2966.12 90.3130   3
  -5  -2   4 2891.32 90.7139   5
   4   2  -4 468.030 21.3333   2
   4   2  -4 431.738 22.4326   3
  -4  -2   4 423.485 21.1581   3
  -4  -2   4 435.121 22.1061   5
   3   2  -4 1162.84 40.7206   3
  -3  -2   4 1138.35 39.4888   3
  -3  -2   4 1228.13 41.1544   5
   2   2  -4 365.472 16.4896   3
   2   2  -4 342.270 13.7036   1
   2   2  -4 364.542 13.3439   7
  -2  -2   4 330.561 15.3161   3
   1   2  -4 320.796 13.4810   3
   1   2  -4 317.235 13.2275   7
  -1  -2   4 297.829 12.7273   3
   0   2  -4 6736.93 169.686   2
   0   2  -4 6484.01 172.041   7
  -1   2  -4 3361.55 89.6451   2
  -1   2  -4 3416.53 90.3226   6
  -1   2  -4 3479.30 93.0574   7
   1  -2   4 3388.14 89.3229   2
   1  -2   4 3172.92 93.7962   4
  -2   2  -4 564.378 19.4726   6
  -2   2  -4 578.225 21.0631   2
  -2   2  -4 545.287 22.4842   7
  -2   2  -4 551.347 23.2723   4
   2  -2   4 563.482 20.9243   2
   2  -2   4 561.134 24.3637   4
  -3   2  -4 0.39399 1.23615   7
  -3   2  -4 0.53581 1.52291   4
  -3   2  -4 -0.7864 1.17670   2
   3  -2   4 -0.0029 0.83359   2
   3  -2   4 -0.6355 0.78102   6
   3  -2   4 4.32086 1.89986   4
  -4   2  -4 91.8565 8.60448   7
  -4   2  -4 94.3658 9.87225   4
  -4   2  -4 85.1042 9.16405   2
   4  -2   4 92.6268 10.4696   5
   4  -2   4 95.2158 10.6062   4
   4  -2   4 93.4138 6.61718   6
   4  -2   4 91.4005 8.87210   2
  -5   2  -4 1656.28 56.1677   2
  -5   2  -4 1742.38 55.1476   7
  -5   2  -4 1640.00 59.5741   4
   5  -2   4 1617.23 56.4098   2
   5  -2   4 1630.53 49.2354   6
  -6   2  -4 964.950 38.0078   7
  -6   2  -4 994.232 44.1485   4
   6  -2   4 1023.49 57.0473   4
   6  -2   4 969.030 41.5685   2
   6  -2   4 1027.01 33.7916   6
  -7   2  -4 136.370 12.2384   7
  -7   2  -4 123.321 14.8936   4
   7  -2   4 122.649 9.43335   6
   7  -2   4 130.247 14.6280   2
  -8   2  -4 57.7400 12.7286   4
  -8   2  -4 51.3757 9.87708   7
   8  -2   4 76.6520 13.1772   2
   8  -2   4 32.3411 7.45232   6
   8   1  -4 57.6926 12.3626   3
   8   1  -4 18.4011 6.87975   2
  -8  -1   4 24.2361 8.16958   5
  -8  -1   4 47.6384 13.3154   4
   7   1  -4 93.1820 13.3382   3
   7   1  -4 84.0644 11.9665   1
   7   1  -4 99.4158 12.5176   2
  -7  -1   4 98.1379 12.3451   3
  -7  -1   4 95.8871 14.0935   5
  -7  -1   4 116.182 14.2844   4
   6   1  -4 616.778 31.2525   2
   6   1  -4 638.885 32.8388   3
  -6  -1   4 660.307 32.6479   4
  -6  -1   4 598.781 32.0720   5
   5   1  -4 159.374 12.9603   2
   5   1  -4 158.283 13.7084   3
   5   1  -4 169.748 13.7820   1
  -5  -1   4 177.289 14.6187   5
  -5  -1   4 166.690 13.9145   3
  -5  -1   4 174.556 14.3690   4
   4   1  -4 609.298 26.6474   1
   4   1  -4 606.758 27.9237   3
  -4  -1   4 645.929 28.3219   5
  -4  -1   4 638.087 28.0466   3
   3   1  -4 190.088 12.6947   3
   3   1  -4 212.883 12.3121   1
  -3  -1   4 204.450 13.1344   5
  -3  -1   4 203.647 12.9621   3
   2   1  -4 90.8706 7.50597   3
   2   1  -4 103.201 6.93027   1
  -2  -1   4 89.7348 7.77450   5
  -2  -1   4 99.7100 7.77767   3
   1   1  -4 9805.83 248.133   1
   1   1  -4 9600.71 250.121   3
  -1  -1   4 9999.99 250.525   3
   0   1  -4 1502.96 43.8043   3
   0   1  -4 1595.68 45.4997   2
   0  -1   4 1638.34 44.1745   3
   0  -1   4 1630.90 43.2824   1
  -1   1  -4 2373.25 67.9941   7
  -1   1  -4 2524.74 66.1542   2
   1  -1   4 2448.50 65.7060   2
   1  -1   4 2309.84 67.1283   4
  -2   1  -4 1838.91 48.8529   6
  -2   1  -4 1786.57 53.1914   2
   2  -1   4 1861.10 55.6207   4
   2  -1   4 1872.40 53.3839   2
  -3   1  -4 32.9261 5.24892   4
  -3   1  -4 42.5336 5.30842   7
  -3   1  -4 31.2575 4.59320   2
   3  -1   4 42.5563 5.10394   2
   3  -1   4 39.1297 5.66852   4
   3  -1   4 36.6256 2.83030   6
  -4   1  -4 1722.24 57.6400   4
  -4   1  -4 1678.97 53.6970   7
  -4   1  -4 1871.63 56.6164   2
   4  -1   4 1731.08 48.0768   6
   4  -1   4 1733.87 55.8442   2
   4  -1   4 1811.24 66.4386   5
  -5   1  -4 1593.53 56.5138   4
  -5   1  -4 1676.57 51.4878   7
  -5   1  -4 1531.92 53.5534   2
   5  -1   4 1602.57 57.6356   5
   5  -1   4 1600.62 54.7076   2
   5  -1   4 1574.90 58.5696   4
   5  -1   4 1598.46 48.1571   3
   5  -1   4 1553.95 45.3386   6
  -6   1  -4 44.3790 6.56411   3
  -6   1  -4 44.2680 6.37427   7
  -6   1  -4 42.2773 8.36392   4
   6  -1   4 41.7671 4.79830   6
   6  -1   4 45.6417 6.42283   3
   6  -1   4 48.1376 8.29878   2
  -7   1  -4 51.8346 7.24216   7
  -7   1  -4 50.1028 6.44798   3
  -7   1  -4 43.2261 10.2205   4
   7  -1   4 45.5953 6.77270   3
   7  -1   4 40.5725 5.42115   6
   7  -1   4 30.2006 8.11230   5
   7  -1   4 27.6722 7.32178   2
  -8   1  -4 46.5410 8.18513   7
  -8   1  -4 42.7859 7.92832   3
  -8   1  -4 55.0178 12.4406   4
   8  -1   4 45.1437 6.76973   6
   8  -1   4 47.1070 13.9709   2
   8  -1   4 53.6330 8.68574   3
   8   0  -4 105.000 15.8532   3
   8   0  -4 97.6264 15.5635   2
  -8   0   4 93.2148 15.5889   5
  -8   0   4 73.9378 16.0095   4
   7   0  -4 1211.50 51.0766   2
   7   0  -4 1177.31 51.5222   3
  -7   0   4 1169.90 50.0522   4
  -7   0   4 1107.30 52.2356   5
  -7   0   4 1180.09 49.4727   3
   6   0  -4 81.0561 11.2846   3
   6   0  -4 90.0255 13.1922   1
   6   0  -4 84.0219 10.5743   2
  -6   0   4 82.9532 11.5314   5
  -6   0   4 79.9128 11.1567   4
   5   0  -4 512.949 25.7568   2
   5   0  -4 480.107 26.3528   3
   5   0  -4 507.344 26.8266   5
   5   0  -4 507.091 26.3300   1
  -5   0   4 534.414 27.9395   5
  -5   0   4 496.107 26.0918   3
  -5   0   4 515.327 26.0001   4
   4   0  -4 121.818 10.7814   1
   4   0  -4 116.311 10.9811   5
   4   0  -4 113.258 10.7577   3
  -4   0   4 147.246 11.3054   4
  -4   0   4 112.286 10.5770   3
  -4   0   4 152.671 12.7883   5
   3   0  -4 787.519 30.0773   1
   3   0  -4 717.550 30.0793   3
  -3   0   4 864.509 31.9097   5
  -3   0   4 773.117 31.7319   4
  -3   0   4 804.140 31.0751   3
   2   0  -4 2821.12 80.1917   1
   2   0  -4 2715.01 80.9634   3
  -2   0   4 2900.08 81.4020   3
  -2   0   4 2985.69 81.9493   5
   1   0  -4 250.793 12.0703   3
   1   0  -4 225.576 11.2260   1
  -1   0   4 229.066 11.2136   3
  -1   0   4 212.104 11.0324   1
   0   0  -4 2918.32 76.7660   3
   0   0  -4 2818.52 78.1615   1
   0   0   4 2943.75 78.4705   1
  -1   0  -4 550.269 18.6460   2
  -1   0  -4 495.329 16.9175   4
   1   0   4 541.791 17.7298   4
   1   0   4 535.534 18.3175   2
  -2   0  -4 66.9872 5.66481   4
  -2   0  -4 77.0999 5.95611   2
  -2   0  -4 85.7638 5.76582   3
   2   0   4 75.2158 5.90439   2
   2   0   4 69.7262 5.98773   4
  -3   0  -4 3697.12 103.640   4
  -3   0  -4 3822.19 103.156   2
  -3   0  -4 3731.41 98.3821   3
   3   0   4 3785.40 105.421   4
   3   0   4 3740.52 103.003   2
  -4   0  -4 987.160 31.1130   3
  -4   0  -4 939.043 35.8347   4
  -4   0  -4 1037.02 33.7088   7
  -4   0  -4 955.104 34.9254   2
   4   0   4 961.981 36.4670   5
   4   0   4 974.980 31.2220   3
   4   0   4 916.754 37.0574   4
   4   0   4 978.614 35.2565   2
  -5   0  -4 955.472 37.4054   2
  -5   0  -4 997.558 39.3021   4
  -5   0  -4 989.101 33.7145   3
  -5   0  -4 1004.43 34.1959   7
   5   0   4 992.944 33.8785   3
   5   0   4 986.125 38.1746   2
   5   0   4 1005.43 39.7306   5
  -6   0  -4 370.780 18.9024   3
  -6   0  -4 363.020 21.5960   2
  -6   0  -4 388.419 29.0756   4
  -6   0  -4 393.341 18.3088   7
   6   0   4 391.140 15.2612   6
   6   0   4 389.620 19.1091   3
   6   0   4 425.124 23.6746   2
   6   0   4 385.720 23.7941   5
  -7   0  -4 1.30502 2.14796   4
  -7   0  -4 3.10815 3.00293   2
  -7   0  -4 5.07586 2.92774   3
  -7   0  -4 3.28164 2.18134   7
   7   0   4 2.61298 1.74444   6
   7   0   4 4.27823 3.22846   2
   7   0   4 8.54074 3.03289   3
  -8   0  -4 439.644 29.1005   4
  -8   0  -4 332.521 21.9543   3
  -8   0  -4 412.792 19.9153   7
   8   0   4 433.784 27.7138   2
   8   0   4 410.655 24.1088   3
   7  -1  -4 4.01057 4.02833   3
   7  -1  -4 -1.6558 2.44339   2
  -7   1   4 3.28127 3.81614   4
   6  -1  -4 717.918 35.6707   3
   6  -1  -4 706.107 35.1213   2
  -6   1   4 673.652 34.4613   3
  -6   1   4 759.993 38.2285   5
  -6   1   4 766.832 44.0425   4
   5  -1  -4 -0.9925 1.61596   3
   5  -1  -4 2.54755 2.70167   2
  -5   1   4 2.54640 2.73562   3
  -5   1   4 -0.7194 1.83213   4
  -5   1   4 2.77212 3.23583   5
   4  -1  -4 16.5334 4.20265   2
   4  -1  -4 10.6703 3.96828   5
   4  -1  -4 18.7775 5.28672   1
   4  -1  -4 14.6307 4.50085   3
  -4   1   4 21.1308 5.35878   3
  -4   1   4 14.8997 4.19492   4
  -4   1   4 18.5844 5.21810   5
   3  -1  -4 4344.84 123.644   3
   3  -1  -4 4464.32 124.074   1
   3  -1  -4 4486.83 115.775   7
   3  -1  -4 4408.29 123.816   5
  -3   1   4 4559.29 120.191   4
  -3   1   4 4307.28 124.088   5
  -3   1   4 4262.13 121.877   3
   2  -1  -4 1092.95 37.9626   1
   2  -1  -4 1108.88 37.6357   5
   2  -1  -4 1120.18 38.3371   3
  -2   1   4 1055.99 36.5188   3
  -2   1   4 1119.86 37.7459   5
  -2   1   4 1090.73 33.6728   4
   1  -1  -4 5120.97 132.946   3
  -1   1   4 4607.84 133.906   1
  -1   1   4 5328.32 133.459   5
   0  -1  -4 1918.38 57.0836   1
   0   1   4 1944.04 56.9780   1
  -1  -1  -4 264.545 9.73252   4
  -1  -1  -4 256.286 10.4715   6
  -1  -1  -4 285.296 11.8436   2
   1   1   4 283.482 11.6896   2
  -2  -1  -4 2089.35 58.9907   2
  -2  -1  -4 1996.92 58.4346   4
  -2  -1  -4 2084.20 54.4780   6
   2   1   4 2198.62 59.2976   2
  -3  -1  -4 614.578 23.0932   2
  -3  -1  -4 604.413 21.2286   3
  -3  -1  -4 574.688 23.4362   4
   3   1   4 616.613 23.2056   2
  -4  -1  -4 555.751 23.3994   2
  -4  -1  -4 548.231 24.2975   4
  -4  -1  -4 556.294 21.0650   3
   4   1   4 515.431 23.5785   3
   4   1   4 523.410 23.0507   2
   4   1   4 576.655 23.6515   5
  -5  -1  -4 165.159 10.6613   7
  -5  -1  -4 176.839 11.1801   3
  -5  -1  -4 166.030 12.5004   2
  -5  -1  -4 168.954 13.5556   4
   5   1   4 171.242 11.2533   3
   5   1   4 170.089 12.5920   2
   5   1   4 163.934 12.7182   5
  -6  -1  -4 278.781 19.3838   4
  -6  -1  -4 273.746 15.9076   3
  -6  -1  -4 276.553 14.2253   7
  -6  -1  -4 298.396 23.8592   2
   6   1   4 291.994 16.4966   3
   6   1   4 284.218 18.9938   5
   6   1   4 274.021 18.2728   2
  -7  -1  -4 1212.21 51.5101   4
  -7  -1  -4 1268.61 40.9141   7
  -7  -1  -4 1232.41 45.7467   3
   7   1   4 1305.10 50.8834   2
   7   1   4 1257.30 45.9433   3
  -8  -1  -4 423.081 28.7176   4
   8   1   4 444.041 24.6640   3
   8   1   4 475.963 18.9705   6
   8   1   4 434.001 28.0306   5
   8   1   4 484.105 29.0821   2
  -9  -1  -4 266.961 23.7828   4
  -9  -1  -4 243.093 19.9398   3
   9   1   4 268.222 19.8729   3
   9   1   4 262.593 21.4826   2
   7  -2  -4 567.212 32.4958   3
   7  -2  -4 526.250 32.2680   2
  -7   2   4 514.391 31.8039   4
  -7   2   4 489.830 33.7150   5
   6  -2  -4 98.4558 12.0601   2
   6  -2  -4 70.0146 13.2687   6
   6  -2  -4 79.1499 11.6721   3
  -6   2   4 83.5188 12.7090   5
  -6   2   4 93.4237 12.2831   4
   5  -2  -4 308.593 23.6108   5
   5  -2  -4 273.149 23.2934   3
   5  -2  -4 313.537 15.2743   7
   5  -2  -4 310.192 19.9486   2
  -5   2   4 332.379 20.7796   4
  -5   2   4 308.809 21.9471   5
   4  -2  -4 1026.46 42.3239   5
   4  -2  -4 1101.53 35.7898   7
   4  -2  -4 1124.37 44.5275   1
   4  -2  -4 1013.82 41.8906   3
   4  -2  -4 1109.35 41.2168   2
  -4   2   4 1054.71 43.4662   5
  -4   2   4 1119.72 40.6603   4
   3  -2  -4 0.67846 1.01290   1
   3  -2  -4 0.28300 1.45732   4
   3  -2  -4 1.07708 1.83674   3
   3  -2  -4 -0.3978 1.43107   5
   3  -2  -4 0.43925 0.91880   7
  -3   2   4 0.03612 1.18726   4
  -3   2   4 2.55558 2.43372   5
   2  -2  -4 2813.76 78.1464   4
   2  -2  -4 2761.64 81.9983   5
   2  -2  -4 2841.07 84.4559   1
   2  -2  -4 2883.77 82.7908   3
  -2   2   4 2792.38 78.4229   4
  -2   2   4 2735.41 82.0721   5
  -2   2   4 2854.81 84.6184   1
   1  -2  -4 6.56207 2.33292   1
   1  -2  -4 7.54259 2.17715   5
   1  -2  -4 6.04668 1.93347   3
   1  -2  -4 7.04050 1.94719   4
  -1   2   4 14.3655 4.13996   1
  -1   2   4 7.02407 2.31462   5
   0  -2  -4 118.980 8.16952   6
   0  -2  -4 129.203 9.92735   1
   0   2   4 114.039 9.34765   1
   0   2   4 123.014 7.15853   5
  -1  -2  -4 5013.24 138.006   6
  -1  -2  -4 5332.80 137.684   2
   1   2   4 5364.55 138.766   6
   1   2   4 5475.23 142.073   1
  -2  -2  -4 252.355 10.6518   6
  -2  -2  -4 245.525 11.3832   2
   2   2   4 257.693 11.5991   2
   2   2   4 239.138 10.5741   6
  -3  -2  -4 2925.79 79.7526   3
  -3  -2  -4 2812.00 79.6794   2
   3   2   4 2901.65 79.9810   2
   3   2   4 2771.99 75.6556   6
  -4  -2  -4 909.515 32.1626   3
  -4  -2  -4 954.212 35.5479   4
  -4  -2  -4 1000.46 34.1633   2
   4   2   4 910.865 31.7682   5
   4   2   4 901.976 33.1819   2
   4   2   4 924.668 28.2489   6
  -5  -2  -4 75.4408 7.96427   2
  -5  -2  -4 83.9834 9.70185   4
  -5  -2  -4 72.2935 7.74783   3
   5   2   4 67.8987 7.77215   2
   5   2   4 75.5716 7.86466   5
   5   2   4 68.2245 7.45168   3
  -6  -2  -4 1628.88 57.1905   2
  -6  -2  -4 1678.13 55.0432   3
  -6  -2  -4 1734.26 61.3726   4
   6   2   4 1668.82 55.6492   3
   6   2   4 1719.38 58.4690   2
   6   2   4 1625.31 56.7412   5
  -7  -2  -4 308.749 22.1983   4
  -7  -2  -4 304.367 18.7075   3
  -7  -2  -4 316.556 15.1492   7
   7   2   4 311.209 20.7654   2
   7   2   4 324.350 19.1705   3
   7   2   4 306.333 20.3239   5
  -8  -2  -4 753.217 40.2711   4
   8   2   4 742.744 37.8841   2
   8   2   4 773.147 35.3795   3
   8   2   4 821.319 40.6558   5
  -9  -2  -4 55.4177 12.7853   4
  -9  -2  -4 57.0292 11.9136   3
   9   2   4 65.2994 11.7326   3
   9   2   4 72.9535 12.7878   2
   6  -3  -4 9.53817 5.09587   2
   6  -3  -4 10.0357 4.03903   3
   6  -3  -4 31.9378 8.61703   6
  -6   3   4 17.0962 5.49484   4
  -6   3   4 17.2391 7.42448   5
   5  -3  -4 1024.71 44.3901   6
   5  -3  -4 991.033 43.3886   3
   5  -3  -4 979.601 42.5471   2
   5  -3  -4 1126.24 50.3587   7
   5  -3  -4 984.300 46.5840   1
   5  -3  -4 1049.43 46.0375   5
  -5   3   4 1089.37 47.4341   5
  -5   3   4 1026.25 43.2527   4
   4  -3  -4 31.0131 6.89395   3
   4  -3  -4 34.2664 6.99166   4
   4  -3  -4 37.8321 5.60869   7
   4  -3  -4 32.9284 7.43863   6
   4  -3  -4 32.5626 6.99936   5
   4  -3  -4 45.5231 7.21650   2
   4  -3  -4 39.6736 8.36710   1
  -4   3   4 56.0253 11.8282   5
  -4   3   4 46.0988 7.44022   4
   3  -3  -4 1632.65 53.6658   4
   3  -3  -4 1667.78 59.6851   1
   3  -3  -4 1642.47 57.0148   3
   3  -3  -4 1813.31 57.8638   5
   3  -3  -4 1673.03 57.2371   6
   3  -3  -4 1615.96 51.6363   7
  -3   3   4 1567.56 53.9567   4
  -3   3   4 1538.30 56.1701   5
   2  -3  -4 569.746 25.6907   5
   2  -3  -4 626.267 24.7435   7
   2  -3  -4 634.842 24.2935   4
   2  -3  -4 667.821 27.0173   3
   2  -3  -4 648.501 34.4587   1
   2  -3  -4 603.906 27.4283   6
  -2   3   4 635.721 28.9367   1
  -2   3   4 613.879 26.6814   5
   1  -3  -4 622.671 23.8138   5
   1  -3  -4 577.159 21.2260   4
   1  -3  -4 567.930 24.9966   6
   1  -3  -4 603.714 28.2088   1
   1  -3  -4 616.742 23.4607   3
  -1   3   4 577.759 26.0254   1
  -1   3   4 582.704 23.3859   5
   0  -3  -4 1658.57 50.6102   6
   0  -3  -4 1516.77 53.0542   1
   0   3   4 1599.07 46.5025   5
   0   3   4 1591.62 52.5146   1
  -1  -3  -4 333.577 13.4812   2
  -1  -3  -4 312.414 15.1657   6
   1   3   4 305.565 11.4189   5
   1   3   4 341.903 16.1761   6
   1   3   4 318.680 17.2477   1
  -2  -3  -4 3137.43 88.9792   6
  -2  -3  -4 3233.99 87.4188   2
   2   3   4 3248.49 89.1702   6
   2   3   4 3371.20 87.7354   2
  -3  -3  -4 398.863 18.1395   3
  -3  -3  -4 394.491 17.0034   2
   3   3   4 412.251 17.1372   2
   3   3   4 411.936 16.7325   6
  -4  -3  -4 16.0719 3.85049   2
  -4  -3  -4 17.6605 4.17311   3
   4   3   4 7.91857 2.38310   2
   4   3   4 11.8647 3.04226   6
   4   3   4 12.9922 3.25230   5
  -5  -3  -4 1631.80 67.3874   2
  -5  -3  -4 1679.71 54.1808   3
   5   3   4 1667.67 49.7143   6
   5   3   4 1622.92 51.3159   5
   5   3   4 1672.80 54.3335   2
  -6  -3  -4 313.356 18.8312   2
  -6  -3  -4 315.877 21.5289   4
  -6  -3  -4 312.290 18.4081   3
   6   3   4 330.792 19.4996   2
   6   3   4 320.910 15.2698   6
   6   3   4 305.754 17.2469   5
  -7  -3  -4 978.695 39.3792   3
  -7  -3  -4 1005.15 40.8365   2
  -7  -3  -4 991.820 44.8986   4
   7   3   4 966.353 40.0187   3
   7   3   4 958.715 41.0674   2
   7   3   4 923.224 38.6228   5
  -8  -3  -4 1002.88 42.5114   3
  -8  -3  -4 996.006 43.6642   2
  -8  -3  -4 993.725 48.0450   4
   8   3   4 991.389 44.6432   2
   8   3   4 1000.13 42.9067   3
  -9  -3  -4 3.17901 3.69094   4
   9   3   4 -0.3828 3.52034   2
   6  -4  -4 23.1443 6.47043   3
   6  -4  -4 19.4544 6.38272   2
   6  -4  -4 33.1264 6.20050   7
   5  -4  -4 129.509 13.2941   2
   5  -4  -4 143.593 14.3702   6
   5  -4  -4 121.886 18.4864   5
   5  -4  -4 149.279 12.7532   7
   5  -4  -4 138.300 14.6977   3
   4  -4  -4 652.205 33.1405   3
   4  -4  -4 745.410 35.5290   6
   4  -4  -4 752.611 35.7468   5
   4  -4  -4 718.025 33.4512   4
   4  -4  -4 700.494 30.2792   7
   4  -4  -4 784.252 40.1499   1
   4  -4  -4 732.951 44.9378   2
  -4   4   4 735.854 36.1763   5
   3  -4  -4 217.779 16.6918   6
   3  -4  -4 222.770 17.2486   4
   3  -4  -4 220.499 14.5563   2
   3  -4  -4 230.133 16.9105   3
   3  -4  -4 202.338 17.3980   1
   3  -4  -4 233.023 14.6827   7
   3  -4  -4 201.827 15.7735   5
  -3   4   4 200.987 15.9067   5
   2  -4  -4 76.0676 9.25552   6
   2  -4  -4 109.636 12.5595   1
   2  -4  -4 104.735 10.0246   3
   2  -4  -4 102.826 10.7446   5
   2  -4  -4 99.9757 8.72859   4
  -2   4   4 98.7017 10.9415   1
  -2   4   4 101.550 9.51751   5
   1  -4  -4 2255.77 65.4778   4
   1  -4  -4 2182.61 75.1068   1
   1  -4  -4 2020.66 85.2817   6
   1  -4  -4 2272.26 68.1446   7
   1  -4  -4 2279.61 66.8282   5
  -1   4   4 2302.13 71.9578   1
  -1   4   4 2234.45 66.7222   5
   0  -4  -4 4.14011 2.05475   1
   0  -4  -4 2.58092 1.36465   5
   0  -4  -4 3.04505 1.86363   6
   0   4   4 2.26753 1.85080   6
   0   4   4 2.27135 1.37564   5
   0   4   4 1.86879 1.84473   1
  -1  -4  -4 6042.58 155.440   2
   1   4   4 6121.46 161.982   6
   1   4   4 5805.45 165.746   1
  -2  -4  -4 911.023 33.3018   6
  -2  -4  -4 928.782 29.4832   2
   2   4   4 913.693 33.3421   6
   2   4   4 980.319 30.4523   2
  -3  -4  -4 115.159 9.59501   3
  -3  -4  -4 130.361 8.43707   2
   3   4   4 128.803 9.54280   6
   3   4   4 143.782 10.2457   2
  -4  -4  -4 782.596 31.2634   3
  -4  -4  -4 802.047 29.3486   2
   4   4   4 803.172 29.0908   2
   4   4   4 799.413 29.5329   6
  -5  -4  -4 181.527 12.4897   2
  -5  -4  -4 199.128 13.9148   3
   5   4   4 199.445 12.2304   6
   5   4   4 183.086 10.3295   5
   5   4   4 183.025 12.5790   2
  -6  -4  -4 1303.20 48.2763   3
  -6  -4  -4 1352.51 47.9612   2
   6   4   4 1353.64 48.1427   2
   6   4   4 1336.46 44.4042   5
   6   4   4 1327.69 44.3926   6
  -7  -4  -4 213.959 19.5249   4
  -7  -4  -4 251.022 17.4455   2
   7   4   4 261.317 15.1892   6
   7   4   4 251.317 17.7105   2
   7   4   4 242.331 16.0144   5
  -8  -4  -4 1.58876 3.18196   3
  -8  -4  -4 0.52549 3.34770   4
  -8  -4  -4 2.31626 3.04507   2
   8   4   4 0.63334 2.75657   2
   8   4   4 -0.8507 2.23781   6
   8   4   4 0.44104 3.12299   5
  -9  -4  -4 240.090 23.8108   4
   9   4   4 216.353 18.7433   5
   9   4   4 211.006 14.7433   6
   9   4   4 230.521 26.6787   2
   5  -5  -4 598.501 33.7889   4
   5  -5  -4 596.969 33.0508   3
   5  -5  -4 651.301 31.1176   7
   5  -5  -4 596.577 31.8316   2
   4  -5  -4 231.663 18.6486   5
   4  -5  -4 190.134 16.9412   4
   4  -5  -4 233.189 19.1185   6
   4  -5  -4 206.341 15.6176   7
   4  -5  -4 202.941 16.0467   2
   4  -5  -4 214.126 21.6972   1
   4  -5  -4 179.645 16.8224   3
   3  -5  -4 98.6030 10.7925   5
   3  -5  -4 74.2208 9.56549   4
   3  -5  -4 77.1047 10.7163   6
   3  -5  -4 77.1724 8.79780   2
   3  -5  -4 74.2925 12.0672   1
   3  -5  -4 68.8379 9.84139   3
   3  -5  -4 68.7986 8.48252   7
   2  -5  -4 375.896 20.1710   4
   2  -5  -4 385.211 18.9951   2
   2  -5  -4 396.504 21.5123   7
   2  -5  -4 378.367 21.1294   5
   2  -5  -4 364.977 22.9043   6
   2  -5  -4 404.021 21.2250   3
   2  -5  -4 368.376 26.0027   1
  -2   5   4 420.612 24.6304   1
   1  -5  -4 251.983 17.4738   6
   1  -5  -4 256.325 15.0299   5
   1  -5  -4 252.717 15.8595   7
   1  -5  -4 239.484 19.1912   1
   1  -5  -4 233.235 14.5066   4
  -1   5   4 258.264 17.7804   1
   0  -5  -4 3540.16 127.938   1
   0  -5  -4 3411.18 102.639   6
   0  -5  -4 3469.47 95.2576   5
   0  -5  -4 3391.53 100.545   7
   0   5   4 3440.22 102.971   6
   0   5   4 3489.91 103.970   1
  -1  -5  -4 279.423 12.1892   2
   1   5   4 282.538 18.9702   1
   1   5   4 276.763 17.2236   6
  -2  -5  -4 5.45435 2.38013   6
  -2  -5  -4 13.8577 2.73993   2
   2   5   4 3.06415 2.45950   6
   2   5   4 4.15097 2.33965   1
  -3  -5  -4 741.109 25.8457   2
  -3  -5  -4 729.669 33.3935   3
  -3  -5  -4 732.354 30.1147   6
   3   5   4 764.366 30.9204   6
   3   5   4 783.095 27.2661   2
  -4  -5  -4 155.432 10.1804   2
  -4  -5  -4 171.742 12.9887   3
   4   5   4 187.445 12.9308   6
   4   5   4 161.693 10.3672   2
  -5  -5  -4 1340.19 49.2345   3
  -5  -5  -4 1386.14 45.9754   2
   5   5   4 1431.54 47.9446   6
   5   5   4 1358.83 45.8940   2
  -6  -5  -4 1031.45 38.5918   2
  -6  -5  -4 994.205 40.6223   3
   6   5   4 995.981 33.5497   5
   6   5   4 1005.93 38.6416   2
   6   5   4 996.719 37.9407   6
  -7  -5  -4 0.97327 2.64695   3
  -7  -5  -4 -1.6790 1.98293   2
   7   5   4 1.38610 1.97150   2
   7   5   4 3.21104 2.36769   5
   7   5   4 -2.5118 1.76557   6
  -8  -5  -4 87.8465 12.2612   3
  -8  -5  -4 97.4362 12.0368   2
  -8  -5  -4 103.313 15.7864   4
   8   5   4 123.021 13.5303   2
   8   5   4 110.099 11.3482   5
   8   5   4 102.553 10.3710   6
  -9  -5  -4 9.24214 5.79392   4
   9   5   4 14.5739 4.13595   6
   9   5   4 12.1475 5.95999   2
   4  -6  -4 30.3563 6.95498   2
   4  -6  -4 15.1472 5.37169   4
   4  -6  -4 34.5881 8.41362   3
   4  -6  -4 15.7235 4.95116   7
   3  -6  -4 230.086 18.1842   4
   3  -6  -4 251.073 19.7885   3
   3  -6  -4 219.256 19.6300   6
   3  -6  -4 258.690 16.9588   2
   3  -6  -4 288.946 28.3687   7
   3  -6  -4 270.528 19.1178   5
   3  -6  -4 258.814 24.0754   1
   2  -6  -4 167.722 14.1529   7
   2  -6  -4 164.768 13.8463   3
   2  -6  -4 185.013 14.7036   5
   2  -6  -4 168.619 12.0896   2
   2  -6  -4 195.508 16.5990   6
   2  -6  -4 181.777 18.4234   1
   2  -6  -4 174.340 14.2927   4
   1  -6  -4 1688.52 56.5206   5
   1  -6  -4 1765.59 60.7696   7
   1  -6  -4 1704.44 58.2049   4
   1  -6  -4 1791.27 63.4062   6
   1  -6  -4 1642.69 65.9505   1
  -1   6   4 1780.46 62.4841   1
   0  -6  -4 296.352 18.9188   4
   0  -6  -4 330.823 20.0675   7
   0  -6  -4 329.052 14.8864   2
   0  -6  -4 339.706 16.2270   5
   0  -6  -4 333.690 22.1479   6
   0   6   4 321.453 20.9259   6
   0   6   4 339.321 21.2873   1
  -1  -6  -4 3.26595 1.98975   7
  -1  -6  -4 7.72138 2.99617   6
   1   6   4 4.71809 2.83216   1
   1   6   4 7.01463 3.25885   6
  -2  -6  -4 203.805 15.1976   6
   2   6   4 211.518 17.5715   1
   2   6   4 208.476 15.5633   6
  -3  -6  -4 2.36041 2.06065   3
  -3  -6  -4 -0.4023 1.03380   2
   3   6   4 -1.2881 1.48607   1
   3   6   4 -2.6742 1.18242   6
  -4  -6  -4 2208.69 72.6236   3
  -4  -6  -4 2216.92 64.7635   2
   4   6   4 2234.07 64.8717   2
   4   6   4 2280.46 72.5763   6
  -5  -6  -4 116.597 9.11961   2
   5   6   4 115.774 9.39288   2
   5   6   4 127.684 11.4735   6
  -6  -6  -4 -2.1331 1.69321   2
   6   6   4 1.98435 2.12311   6
   6   6   4 3.72916 2.92572   2
  -7  -6  -4 421.329 26.0894   3
  -7  -6  -4 451.329 23.6758   2
   7   6   4 446.466 23.9503   6
   8   6   4 11.4569 4.58409   2
   8   6   4 12.6657 4.22413   6
  -9  -6  -4 461.977 34.7295   4
   9   6   4 468.564 25.6774   6
   9   6   4 479.847 29.5927   2
   3  -7  -4 201.879 17.2195   5
   3  -7  -4 183.756 14.3488   2
   3  -7  -4 174.057 17.3169   3
   3  -7  -4 178.102 17.3462   4
   2  -7  -4 927.235 39.4034   5
   2  -7  -4 828.493 39.6321   7
   2  -7  -4 948.167 40.4698   3
   2  -7  -4 927.731 35.1453   2
   2  -7  -4 997.356 46.2243   6
   2  -7  -4 896.186 47.4512   1
   2  -7  -4 966.434 41.2470   4
   1  -7  -4 32.0721 6.32427   5
   1  -7  -4 26.0911 7.19807   4
   1  -7  -4 42.6802 9.94892   1
   1  -7  -4 36.5342 7.24746   7
   1  -7  -4 34.0090 8.94995   6
   1  -7  -4 38.8362 5.00556   2
  -1   7   4 44.7148 9.58697   1
   0  -7  -4 146.628 13.5997   4
   0  -7  -4 125.483 13.0186   7
   0  -7  -4 132.485 10.4585   5
   0   7   4 130.206 14.3631   6
   0   7   4 133.117 13.0544   1
   1   7   4 511.138 28.5622   1
   1   7   4 507.715 28.3703   6
  -2  -7  -4 79.2862 10.3531   6
  -2  -7  -4 84.4163 10.2491   7
   2   7   4 98.8824 12.1950   1
  -3  -7  -4 2173.68 71.4497   7
  -3  -7  -4 2119.85 71.4004   3
   3   7   4 2194.13 73.8546   6
   3   7   4 2140.58 75.9761   1
  -4  -7  -4 450.882 17.7127   2
  -4  -7  -4 410.443 24.0101   3
   4   7   4 460.933 25.6728   6
  -5  -7  -4 0.24927 1.48142   2
   5   7   4 1.09393 1.55364   2
   5   7   4 0.02824 2.12906   6
  -6  -7  -4 25.7480 5.76198   2
   6   7   4 40.3514 9.94970   6
   6   7   4 45.3994 7.21744   2
  -7  -7  -4 8.14756 4.15112   7
  -7  -7  -4 10.5457 2.86632   2
   7   7   4 7.73648 3.87344   2
   7   7   4 6.07463 3.68488   6
  -8  -7  -4 769.488 31.1541   7
   8   7   4 741.634 35.1630   6
   8   7   4 778.966 35.6189   2
   2  -8  -4 16.8013 4.11448   2
   2  -8  -4 29.2710 7.71043   5
   2  -8  -4 12.1445 4.41114   4
   2  -8  -4 17.3038 4.79386   3
   1  -8  -4 3.94406 3.40674   5
   1  -8  -4 7.77972 3.64346   3
   1  -8  -4 10.1630 5.48724   4
  -1   8   4 3.32334 4.12473   1
   0  -8  -4 17.7146 5.44439   7
   0  -8  -4 12.9636 3.48665   5
   0  -8  -4 9.67530 4.04843   4
   0  -8  -4 13.4514 4.66671   6
   0   8   4 14.8404 5.65644   6
   0   8   4 10.1849 4.06673   1
  -1  -8  -4 151.796 22.4597   6
   1   8   4 144.370 15.8587   6
   1   8   4 186.638 17.4188   1
  -2  -8  -4 1388.42 54.6099   7
   2   8   4 1410.89 56.2140   1
   2   8   4 1365.20 56.5038   6
  -3  -8  -4 179.086 15.2303   7
  -3  -8  -4 191.486 16.4332   3
   3   8   4 161.794 17.4823   1
   3   8   4 179.451 16.6379   6
   4   8   4 312.373 21.9772   6
   4   8   4 251.517 27.0874   1
  -5  -8  -4 58.1041 9.74350   3
   6   8   4 8.52130 4.57895   6
   6   8   4 6.21428 2.85053   2
   7   8   4 700.603 30.6329   2
   7   8   4 696.493 35.3792   6
   8   8   4 260.702 20.6078   6
   8   8   4 250.930 19.0678   2
   1  -9  -4 7.74254 5.01986   3
   1  -9  -4 -2.1659 4.08534   5
   0  -9  -4 41.6448 12.0506   4
  -1  -9  -4 716.489 38.0785   4
   1   9   4 688.627 39.4835   6
   1   9   4 773.944 37.8493   1
  -2  -9  -4 12.0430 5.35758   3
   2   9   4 40.4212 10.9188   6
   2   9   4 12.6218 4.84806   1
  -3  -9  -4 87.5361 13.0027   3
   3   9   4 92.2514 15.2323   1
   3   9   4 86.5485 13.9623   6
  -4  -9  -4 5.97888 4.43009   7
   4   9   4 3.57674 3.31244   6
   4   9   4 2.52883 4.50024   1
  -5  -9  -4 111.897 12.9356   7
   5   9   4 64.5119 14.0926   1
   5   9   4 101.597 14.1970   6
  -6  -9  -4 889.085 39.1715   7
   6   9   4 758.404 40.8025   6
  -7  -9  -4 21.7711 6.31973   7
   7   9   4 17.7130 5.45560   2
   7   9   4 15.7918 6.31866   6
   2  10   4 206.673 21.1489   6
   2  10   4 216.188 20.5332   1
   3  10   4 10.4661 5.09388   1
   3  10   4 -2.0433 4.68178   6
   4  10   4 3.11713 4.24323   1
   4  10   4 -0.9913 4.84002   6
   5  10   4 357.532 27.5783   6
   5  10   4 330.904 28.9432   1
   5   9  -5 94.8117 16.4438   6
  -5  -9   5 102.419 12.5282   5
  -5  -9   5 85.9740 13.5424   7
   4   9  -5 2.57960 4.29878   6
  -4  -9   5 0.33403 4.21491   3
  -4  -9   5 7.20812 5.53722   7
   3   9  -5 53.5923 13.4737   6
  -3  -9   5 42.1236 9.08917   3
   2   9  -5 714.636 55.6262   6
  -2  -9   5 759.347 31.4014   3
   1   9  -5 48.0013 13.7733   6
   0   9  -5 359.771 42.7629   6
   0  -9   5 451.234 29.9698   5
   6   8  -5 395.765 21.1607   2
   6   8  -5 336.251 30.1135   6
  -6  -8   5 509.249 35.3672   5
   5   8  -5 13.9380 5.59615   6
  -5  -8   5 13.7488 4.66077   5
  -5  -8   5 11.0628 4.43146   7
   4   8  -5 82.3904 14.0917   6
   3   8  -5 758.501 40.3657   6
  -3  -8   5 734.705 32.4758   3
  -3  -8   5 731.586 33.4101   7
   2   8  -5 41.5462 10.5112   6
  -2  -8   5 25.8925 7.22719   3
  -2  -8   5 38.1985 8.20669   7
   1   8  -5 494.195 30.9563   6
  -1  -8   5 508.450 22.7302   3
  -1  -8   5 522.612 28.4577   7
   0   8  -5 0.71113 3.66873   6
  -1   8  -5 12.2991 5.17266   6
   1  -8   5 7.92892 5.72548   5
  -2   8  -5 558.119 32.5877   6
   2  -8   5 465.385 34.7490   5
   7   7  -5 360.812 28.3914   3
   7   7  -5 411.545 25.0441   2
  -7  -7   5 377.785 25.5064   5
   6   7  -5 -3.2823 3.63118   3
   6   7  -5 1.99292 3.16582   2
  -6  -7   5 7.86634 3.82155   5
   5   7  -5 14.3553 5.43380   3
   5   7  -5 35.1865 6.83547   2
  -5  -7   5 28.3680 7.77924   5
  -5  -7   5 23.3560 6.25552   3
   4   7  -5 867.104 43.2837   6
  -4  -7   5 883.148 35.2940   7
  -4  -7   5 895.267 37.6649   3
   3   7  -5 1.71434 2.73284   6
  -3  -7   5 2.85369 3.20447   3
  -3  -7   5 1.44798 3.08553   7
   2   7  -5 1182.46 50.9486   6
  -2  -7   5 1248.37 42.8736   3
   1   7  -5 78.3317 10.7807   7
   1   7  -5 68.4073 11.0038   6
  -1  -7   5 63.9577 7.48412   3
   0   7  -5 2.12415 3.00322   7
   0   7  -5 2.40570 2.97864   6
  -1   7  -5 455.817 27.7853   7
  -1   7  -5 464.177 26.8958   6
   1  -7   5 373.921 27.8877   4
  -2   7  -5 47.2781 10.0457   7
  -2   7  -5 42.8820 9.86215   6
   2  -7   5 39.6322 6.06025   1
   2  -7   5 44.2541 11.7227   5
  -3   7  -5 231.207 19.0171   6
  -3   7  -5 211.513 21.0683   7
   3  -7   5 196.706 16.4547   1
   4  -7   5 39.5806 8.75420   2
   4  -7   5 49.3083 10.8674   1
   7   6  -5 45.0040 10.4862   2
   7   6  -5 29.9105 10.4091   3
  -7  -6   5 20.3674 6.95625   5
   6   6  -5 63.6250 9.20751   2
   6   6  -5 59.4367 12.0282   3
  -6  -6   5 40.7722 9.27010   3
   5   6  -5 340.271 23.3106   3
   5   6  -5 305.094 17.9391   2
  -5  -6   5 357.051 21.4452   5
  -5  -6   5 338.098 21.2153   3
   4   6  -5 380.438 17.9482   2
   4   6  -5 365.693 22.8965   3
  -4  -6   5 396.636 19.6564   7
  -4  -6   5 424.140 23.0753   5
  -4  -6   5 376.468 21.3849   3
   3   6  -5 1198.90 37.8860   2
   3   6  -5 1224.46 46.1755   3
  -3  -6   5 1260.72 43.7940   7
  -3  -6   5 1301.53 44.9642   3
   2   6  -5 0.38262 1.91535   7
   2   6  -5 0.39781 2.01196   6
  -2  -6   5 1.08592 1.83866   3
  -2  -6   5 0.64891 1.77068   7
   1   6  -5 -0.1914 1.78616   6
   1   6  -5 0.99552 2.05942   7
  -1  -6   5 2.16231 2.09145   7
  -1  -6   5 1.12946 1.87552   3
   0   6  -5 1666.43 59.0324   6
   0   6  -5 1594.88 58.4434   7
  -1   6  -5 73.1771 10.2354   7
  -1   6  -5 77.1763 10.1884   6
  -2   6  -5 1986.07 69.5554   7
  -2   6  -5 1803.38 64.8068   6
   2  -6   5 1981.32 60.4264   1
  -3   6  -5 154.997 14.2762   6
  -3   6  -5 187.879 16.9493   7
   3  -6   5 159.893 19.8228   5
   3  -6   5 164.949 13.7728   1
   3  -6   5 165.403 11.4331   2
   3  -6   5 166.026 15.6244   7
   3  -6   5 133.956 17.2041   4
  -4   6  -5 -5.0420 2.78014   7
   4  -6   5 2.82255 2.36739   2
   4  -6   5 -4.4389 2.75386   1
  -5   6  -5 201.958 19.8503   7
   5  -6   5 202.677 19.6292   1
   5  -6   5 179.689 15.2579   2
   8   5  -5 38.8294 16.6655   2
   8   5  -5 22.4151 7.90175   3
  -8  -5   5 24.7044 7.16591   5
   7   5  -5 6.05501 4.06235   2
   7   5  -5 8.75651 4.32891   3
  -7  -5   5 2.74746 4.72272   5
   6   5  -5 558.685 32.6175   3
   6   5  -5 580.558 30.9939   2
  -6  -5   5 565.525 30.1753   3
  -6  -5   5 569.717 35.0483   5
   5   5  -5 41.6270 7.72499   2
   5   5  -5 40.8451 9.20261   3
  -5  -5   5 43.9845 7.85020   3
  -5  -5   5 45.0666 7.79973   5
   4   5  -5 2022.04 68.5156   3
   4   5  -5 1984.23 61.7695   2
  -4  -5   5 1997.82 65.5502   3
  -4  -5   5 2091.66 67.5611   5
   3   5  -5 190.310 14.1087   3
   3   5  -5 181.786 12.0565   7
  -3  -5   5 174.010 11.6837   7
  -3  -5   5 191.747 13.0513   3
   2   5  -5 0.67439 1.61689   3
   2   5  -5 1.38798 2.02982   7
  -2  -5   5 0.93598 1.55017   7
  -2  -5   5 -1.0892 1.04973   3
   1   5  -5 868.628 34.8510   7
   1   5  -5 878.576 36.6802   6
  -1  -5   5 863.311 30.0177   3
  -1  -5   5 904.434 34.0395   7
   0   5  -5 247.960 16.4139   6
   0   5  -5 221.506 15.2791   7
   0  -5   5 221.213 14.8977   7
  -1   5  -5 1230.23 44.6841   6
  -1   5  -5 1284.83 46.8152   7
   1  -5   5 1220.33 49.2070   4
   1  -5   5 1158.82 44.5899   7
  -2   5  -5 383.609 23.0963   7
  -2   5  -5 396.556 17.2441   2
  -2   5  -5 423.198 21.8405   6
   2  -5   5 425.648 33.6572   7
   2  -5   5 417.604 17.4698   2
   2  -5   5 425.856 18.7339   1
  -3   5  -5 83.6943 9.49614   6
  -3   5  -5 84.3146 11.2602   7
  -3   5  -5 86.4027 8.23666   2
   3  -5   5 99.0107 8.68128   2
   3  -5   5 99.6254 9.74494   1
   3  -5   5 96.4839 11.2560   7
   3  -5   5 77.7867 10.8331   5
  -4   5  -5 265.316 20.0404   7
   4  -5   5 255.987 22.5586   4
   4  -5   5 254.549 18.0043   1
   4  -5   5 243.411 20.5342   5
   4  -5   5 262.539 16.1282   2
  -5   5  -5 13.8978 4.94605   7
   5  -5   5 27.2718 6.96533   2
   5  -5   5 11.1124 3.30885   1
  -6   5  -5 574.858 34.3931   7
   6  -5   5 581.365 30.6242   2
   8   4  -5 87.9014 15.6080   2
   8   4  -5 128.021 17.0924   3
  -8  -4   5 113.064 16.1795   5
  -8  -4   5 97.8167 18.1145   4
   7   4  -5 199.380 17.4698   2
   7   4  -5 170.493 18.5035   1
   7   4  -5 176.856 18.8342   3
  -7  -4   5 167.534 16.6966   5
   6   4  -5 699.439 32.8961   2
   6   4  -5 686.358 35.9250   3
  -6  -4   5 670.961 33.7518   5
   5   4  -5 1927.47 63.0061   2
   5   4  -5 1858.04 69.8868   3
  -5  -4   5 1921.06 64.8432   3
  -5  -4   5 1915.57 65.6727   5
   4   4  -5 57.9852 7.00345   2
   4   4  -5 58.1268 8.00291   3
  -4  -4   5 51.9215 7.38495   3
  -4  -4   5 68.7043 8.84554   5
   3   4  -5 1.67248 1.32442   7
   3   4  -5 4.83832 2.30100   3
  -3  -4   5 0.79746 1.86112   3
   2   4  -5 1034.84 36.3575   3
   2   4  -5 1030.09 35.2114   7
  -2  -4   5 1011.94 34.7376   3
  -2  -4   5 999.760 34.7974   7
   1   4  -5 370.352 16.9477   3
   1   4  -5 364.623 14.5772   2
   1   4  -5 372.966 18.2464   7
  -1  -4   5 354.048 15.3791   3
  -1  -4   5 360.693 17.6882   7
   0   4  -5 4418.56 124.139   7
   0   4  -5 4605.50 116.747   2
   0   4  -5 4411.84 124.397   6
   0  -4   5 4349.89 123.201   7
  -1   4  -5 259.790 11.7300   2
  -1   4  -5 237.913 14.4120   6
  -1   4  -5 243.980 15.5747   7
   1  -4   5 233.347 16.7815   4
   1  -4   5 266.178 11.4919   2
   1  -4   5 252.555 15.3871   7
  -2   4  -5 76.1109 8.62265   7
  -2   4  -5 71.4185 6.40280   2
  -2   4  -5 62.2756 7.02413   6
   2  -4   5 55.0737 7.57405   7
   2  -4   5 68.8165 6.62981   1
   2  -4   5 62.2219 8.90782   4
   2  -4   5 77.0366 6.52317   2
  -3   4  -5 559.621 27.1870   7
  -3   4  -5 539.573 22.9836   2
  -3   4  -5 539.183 23.3980   6
   3  -4   5 538.915 22.9658   2
   3  -4   5 523.232 23.6871   1
   3  -4   5 561.310 27.2446   7
  -4   4  -5 234.138 17.0996   7
  -4   4  -5 189.217 13.1606   2
   4  -4   5 191.996 13.3929   2
   4  -4   5 173.302 16.3346   5
   4  -4   5 205.569 15.3133   1
  -5   4  -5 947.244 40.9525   7
   5  -4   5 950.381 44.9188   5
   5  -4   5 911.602 40.3553   1
   5  -4   5 956.744 47.3105   4
  -6   4  -5 30.0184 8.04426   7
   6  -4   5 8.45354 4.05680   2
   6  -4   5 7.61330 4.06635   1
   8   3  -5 168.256 20.4500   3
   8   3  -5 200.278 19.5778   2
  -8  -3   5 121.852 20.0458   4
   7   3  -5 191.244 17.6827   1
   7   3  -5 198.022 19.2347   3
   7   3  -5 170.720 16.3376   2
  -7  -3   5 157.765 16.5028   5
  -7  -3   5 173.277 19.0152   4
   6   3  -5 1161.82 50.3062   3
   6   3  -5 1178.96 46.6273   1
   6   3  -5 1276.37 48.7017   2
  -6  -3   5 1211.76 49.7167   5
   5   3  -5 161.642 14.7033   3
   5   3  -5 144.024 12.3738   1
   5   3  -5 142.033 12.5150   2
  -5  -3   5 165.700 14.1123   5
   4   3  -5 46.2682 6.28196   1
   4   3  -5 39.8169 6.94208   3
  -4  -3   5 52.1751 7.07882   3
  -4  -3   5 53.6480 8.05401   5
   3   3  -5 80.2122 8.71086   3
   3   3  -5 98.9864 6.49962   7
   3   3  -5 89.5110 6.82771   1
  -3  -3   5 98.9436 8.66315   3
   2   3  -5 1512.71 45.1285   7
   2   3  -5 1410.26 41.5316   1
   2   3  -5 1524.79 47.7841   3
  -2  -3   5 1479.64 46.2489   3
   1   3  -5 2779.19 76.6779   3
   1   3  -5 2812.57 75.8823   2
   1   3  -5 2842.45 78.4273   7
  -1  -3   5 2561.25 75.1111   3
   0   3  -5 3.00984 1.17956   2
   0   3  -5 2.45029 1.94275   7
   0   3  -5 0.87547 1.00908   3
   0  -3   5 2.55200 1.34839   7
  -1   3  -5 69.1497 5.59167   2
  -1   3  -5 81.2078 7.87465   7
  -1   3  -5 73.9977 6.80084   6
   1  -3   5 66.7048 5.43159   2
   1  -3   5 67.4055 7.95374   4
   1  -3   5 69.3761 7.33660   7
  -2   3  -5 645.631 27.2765   7
  -2   3  -5 646.903 23.9644   2
   2  -3   5 634.361 29.1844   4
   2  -3   5 655.770 23.9701   2
  -3   3  -5 43.7043 5.53030   2
  -3   3  -5 40.3647 6.59794   7
   3  -3   5 44.3674 5.79710   2
   3  -3   5 40.2611 7.61123   4
  -4   3  -5 2571.77 80.1490   7
  -4   3  -5 2613.39 78.2986   2
  -4   3  -5 2540.26 83.2276   4
   4  -3   5 2673.47 85.3357   5
   4  -3   5 2517.88 77.7484   2
  -5   3  -5 520.667 25.4863   2
  -5   3  -5 526.551 26.1230   7
  -5   3  -5 514.351 28.7821   4
   5  -3   5 478.798 24.8384   2
   5  -3   5 477.737 26.4303   1
  -6   3  -5 4.17524 3.06433   4
  -6   3  -5 2.01229 2.76517   7
   6  -3   5 14.4001 3.93005   6
   6  -3   5 1.82876 2.60341   2
   6  -3   5 1.57263 2.15559   1
   6  -3   5 5.06498 4.50598   4
   6  -3   5 -2.7291 4.90529   5
  -7   3  -5 16.8438 4.95068   7
  -7   3  -5 37.6618 9.33240   4
   7  -3   5 18.3004 4.48252   2
   8   2  -5 587.700 34.9766   2
   8   2  -5 498.298 33.7961   3
  -8  -2   5 467.210 32.4971   5
  -8  -2   5 511.804 34.2336   4
   7   2  -5 1249.60 53.3200   2
   7   2  -5 1263.99 55.4748   3
   7   2  -5 1262.76 52.8681   1
  -7  -2   5 1289.98 55.2653   5
  -7  -2   5 1291.82 55.1147   4
   6   2  -5 13.3659 4.26802   3
   6   2  -5 14.3924 4.55686   2
  -6  -2   5 10.7752 4.65600   4
  -6  -2   5 9.06006 3.82506   5
   5   2  -5 72.1343 9.48927   3
   5   2  -5 86.8835 9.95440   2
   5   2  -5 85.9007 9.39206   1
  -5  -2   5 90.1354 10.7159   5
   4   2  -5 219.257 15.4991   3
   4   2  -5 235.557 14.4762   1
  -4  -2   5 218.922 15.5619   5
  -4  -2   5 221.073 15.1198   3
   3   2  -5 419.436 21.1600   3
   3   2  -5 448.769 19.0717   1
  -3  -2   5 464.507 22.2023   5
  -3  -2   5 424.193 20.4098   3
   2   2  -5 4988.78 134.582   3
   2   2  -5 5072.71 130.074   7
   2   2  -5 4925.57 130.140   1
  -2  -2   5 4890.02 133.300   3
   1   2  -5 29.0004 4.02906   3
   1   2  -5 25.3308 3.78746   7
  -1  -2   5 24.9435 3.43015   3
   0   2  -5 570.261 22.1891   7
   0   2  -5 566.153 18.6698   3
   0   2  -5 561.286 20.3256   2
   0  -2   5 550.572 18.7279   3
  -1   2  -5 1577.47 50.1564   7
  -1   2  -5 1751.76 47.8284   2
   1  -2   5 1644.21 46.9837   2
   1  -2   5 1492.84 50.5159   4
  -2   2  -5 836.144 31.0002   7
  -2   2  -5 832.762 26.5452   6
  -2   2  -5 796.136 28.4383   2
   2  -2   5 819.583 32.3268   4
   2  -2   5 864.913 28.7802   2
  -3   2  -5 3481.14 96.0325   6
  -3   2  -5 3535.19 104.396   4
  -3   2  -5 3579.44 101.640   2
  -3   2  -5 3712.80 103.690   7
   3  -2   5 3777.90 107.699   4
   3  -2   5 3770.04 101.765   2
  -4   2  -5 139.604 11.1556   7
  -4   2  -5 137.833 11.1869   2
  -4   2  -5 129.640 11.7821   4
   4  -2   5 132.577 12.6591   4
   4  -2   5 142.694 13.0571   5
   4  -2   5 128.922 10.6268   2
  -5   2  -5 171.731 12.9304   7
  -5   2  -5 162.716 13.1086   2
   5  -2   5 156.904 12.9394   2
   5  -2   5 160.380 8.94802   6
  -6   2  -5 186.285 14.2041   7
  -6   2  -5 156.389 15.6047   4
   6  -2   5 150.905 9.04828   6
   6  -2   5 155.204 14.4669   2
  -7   2  -5 -2.0147 2.12929   7
  -7   2  -5 -1.7382 2.57332   4
   7  -2   5 -2.2418 2.74071   2
  -8   2  -5 1212.84 78.1808   4
  -8   2  -5 994.595 41.8174   7
   8  -2   5 979.564 47.7180   2
   8   1  -5 345.578 27.3728   3
   8   1  -5 373.108 29.1245   2
  -8  -1   5 334.255 27.4613   5
  -8  -1   5 366.900 27.6423   4
   7   1  -5 5.40409 2.70935   3
  -7  -1   5 1.28426 4.36737   5
  -7  -1   5 -1.1838 3.17786   4
   6   1  -5 6.87562 2.93962   2
   6   1  -5 10.8322 4.44258   3
  -6  -1   5 11.2362 4.45608   5
  -6  -1   5 12.4804 4.91370   4
  -6  -1   5 30.7132 7.67368   3
   5   1  -5 126.210 12.9604   3
   5   1  -5 150.415 13.0764   1
   5   1  -5 138.481 12.5774   2
  -5  -1   5 143.427 13.2769   4
  -5  -1   5 150.357 13.2273   3
  -5  -1   5 142.844 13.7802   5
   4   1  -5 1504.17 59.4134   1
   4   1  -5 1488.38 53.6040   3
  -4  -1   5 1547.10 53.5213   3
  -4  -1   5 1559.73 54.0333   5
   3   1  -5 4738.17 129.516   1
   3   1  -5 4541.26 132.089   3
  -3  -1   5 4764.86 132.283   3
  -3  -1   5 4973.58 133.571   5
   2   1  -5 193.810 12.1250   3
   2   1  -5 216.216 11.3733   1
  -2  -1   5 208.667 12.4325   3
   1   1  -5 76.8039 5.78865   1
   1   1  -5 77.6633 6.38124   3
  -1  -1   5 82.9731 6.54510   3
  -1  -1   5 72.8438 5.67002   1
   0   1  -5 416.706 15.3885   3
   0   1  -5 421.556 16.8263   2
   0  -1   5 422.848 14.9384   1
   0  -1   5 421.026 15.2399   3
  -1   1  -5 207.105 10.3035   2
   1  -1   5 188.971 10.4461   4
   1  -1   5 187.046 9.68662   2
  -2   1  -5 6172.38 162.572   2
  -2   1  -5 6335.22 157.377   6
  -2   1  -5 6028.84 163.070   4
  -2   1  -5 6110.76 164.744   7
   2  -1   5 6339.85 163.454   2
   2  -1   5 6184.46 164.822   4
  -3   1  -5 588.789 24.0468   7
  -3   1  -5 574.498 24.3130   4
  -3   1  -5 567.549 23.3566   2
   3  -1   5 616.195 26.3079   4
   3  -1   5 586.165 23.4170   2
  -4   1  -5 487.051 23.5903   4
  -4   1  -5 511.843 22.3082   7
  -4   1  -5 484.642 22.4737   2
   4  -1   5 481.502 22.3333   2
   4  -1   5 469.095 24.8159   4
  -5   1  -5 74.5099 9.51652   4
  -5   1  -5 61.6340 7.44857   7
  -5   1  -5 73.1192 8.79091   2
   5  -1   5 55.5304 8.76319   4
   5  -1   5 72.4821 8.47438   2
   5  -1   5 61.4820 9.12999   5
  -6   1  -5 539.725 24.5157   7
  -6   1  -5 508.983 28.2795   4
   6  -1   5 517.415 21.5226   3
   6  -1   5 485.004 26.3308   2
  -7   1  -5 1384.84 53.5593   2
  -7   1  -5 1284.45 44.1739   3
  -7   1  -5 1383.57 56.0876   4
  -7   1  -5 1347.50 47.7539   7
   7  -1   5 1293.36 53.3183   2
   7  -1   5 1363.95 57.5667   5
  -8   1  -5 8.39917 4.45991   4
  -8   1  -5 29.8922 7.35369   7
   8  -1   5 10.8531 4.06684   3
   8  -1   5 25.2652 9.12038   2
   7   0  -5 107.834 14.4510   2
   7   0  -5 137.229 15.6211   3
  -7   0   5 127.907 16.0959   5
  -7   0   5 119.847 14.5609   4
   6   0  -5 2.68524 2.52193   1
   6   0  -5 -0.9311 2.26699   3
   6   0  -5 -0.7114 2.11641   2
  -6   0   5 1.62492 2.92377   4
  -6   0   5 -2.7833 3.08143   3
  -6   0   5 0.78606 3.05211   5
   5   0  -5 752.037 37.1927   3
   5   0  -5 821.286 36.4784   1
   5   0  -5 862.902 38.0344   2
  -5   0   5 870.189 36.7434   3
  -5   0   5 826.170 42.1814   5
  -5   0   5 871.093 35.9489   4
   4   0  -5 1536.89 54.1767   1
   4   0  -5 1475.07 54.6232   3
  -4   0   5 1674.92 58.9139   3
  -4   0   5 1635.08 52.6519   4
  -4   0   5 1594.25 56.2086   5
   3   0  -5 144.729 11.9163   3
   3   0  -5 151.061 11.3176   1
  -3   0   5 182.520 12.9285   5
  -3   0   5 166.496 12.0437   3
  -3   0   5 165.491 10.8433   4
   2   0  -5 205.147 12.1676   1
   2   0  -5 208.760 12.7148   3
  -2   0   5 210.567 12.9531   5
  -2   0   5 207.393 12.4050   3
   1   0  -5 1.60243 1.16080   3
   1   0  -5 2.59196 1.26052   1
  -1   0   5 0.53636 1.01623   1
  -1   0   5 0.20018 0.79387   3
   0   0  -5 1879.96 53.6055   1
   0   0  -5 1794.09 51.5258   3
   0   0   5 1841.78 53.3618   1
  -1   0  -5 7442.19 188.335   2
  -1   0  -5 7047.50 184.986   4
   1   0   5 7200.74 187.511   2
   1   0   5 7415.26 186.048   4
  -2   0  -5 61.0661 5.60729   2
  -2   0  -5 53.8108 5.13986   4
   2   0   5 55.6687 5.52198   4
  -3   0  -5 792.498 24.4233   3
  -3   0  -5 773.138 28.7463   4
  -3   0  -5 791.322 28.6477   2
   3   0   5 754.518 29.8996   4
   3   0   5 796.887 28.7552   2
  -4   0  -5 64.5692 6.93107   7
  -4   0  -5 56.0671 4.94896   3
  -4   0  -5 56.7996 6.99178   4
  -4   0  -5 58.7706 6.60984   2
   4   0   5 62.6055 7.93794   4
   4   0   5 51.6681 6.36458   2
  -5   0  -5 82.4890 13.0449   2
  -5   0  -5 71.4839 7.45077   7
  -5   0  -5 83.6620 9.38158   4
  -5   0  -5 80.3995 6.87237   3
   5   0   5 71.5152 9.19157   5
   5   0   5 72.9002 8.56152   2
  -6   0  -5 1664.96 52.9435   3
  -6   0  -5 1641.64 53.5748   7
  -6   0  -5 1688.73 58.9377   2
  -6   0  -5 1592.72 71.2305   4
   6   0   5 1747.70 62.1161   5
   6   0   5 1697.38 53.0844   3
   6   0   5 1687.86 73.1991   2
  -7   0  -5 216.322 17.5122   2
  -7   0  -5 218.696 18.9477   4
  -7   0  -5 214.487 14.3780   7
  -7   0  -5 237.624 15.4220   3
   7   0   5 229.022 14.7728   3
   7   0   5 212.777 17.7272   2
  -8   0  -5 84.0939 13.4751   4
  -8   0  -5 70.8524 8.83285   7
  -8   0  -5 56.2051 9.78399   3
   8   0   5 65.2455 9.55863   3
   8   0   5 85.2031 12.5398   2
   7  -1  -5 0.06259 3.16169   2
   7  -1  -5 2.79628 3.34267   3
  -7   1   5 -5.9923 4.09141   5
  -7   1   5 -1.8490 3.93406   4
   6  -1  -5 867.510 42.3845   1
   6  -1  -5 853.997 41.7384   3
   6  -1  -5 954.912 42.1613   2
  -6   1   5 901.442 42.5170   4
  -6   1   5 867.509 39.7738   3
  -6   1   5 973.867 44.9271   5
   5  -1  -5 1435.76 58.1935   3
   5  -1  -5 1606.32 57.4527   2
  -5   1   5 1621.12 56.0326   4
  -5   1   5 1666.67 61.1954   5
   4  -1  -5 186.636 15.1045   3
   4  -1  -5 213.037 15.7477   1
   4  -1  -5 244.326 16.8727   5
  -4   1   5 229.452 16.7394   5
  -4   1   5 221.544 15.5194   3
  -4   1   5 211.297 13.8382   4
   3  -1  -5 611.771 27.4684   3
  -3   1   5 636.246 28.6314   4
  -3   1   5 578.801 27.1766   5
   2  -1  -5 1.17081 1.73971   3
   2  -1  -5 0.18781 0.86917   1
  -2   1   5 -1.6403 1.04771   5
  -2   1   5 1.14692 1.06473   3
  -2   1   5 0.06143 0.90975   4
  -2   1   5 1.91843 1.55789   1
   1  -1  -5 3921.77 107.623   1
   1  -1  -5 3942.54 105.066   3
  -1   1   5 4046.89 105.767   5
  -1   1   5 3417.82 105.412   1
   0  -1  -5 5598.45 147.938   3
   0  -1  -5 5821.48 152.608   1
   0   1   5 5667.16 151.912   1
  -1  -1  -5 230.094 11.4482   2
   1   1   5 243.992 11.5999   2
  -2  -1  -5 912.804 29.4897   4
  -2  -1  -5 972.209 31.0789   2
  -2  -1  -5 927.633 26.6167   6
  -3  -1  -5 81.7772 7.14138   4
  -3  -1  -5 82.5212 6.24612   3
  -3  -1  -5 80.9828 7.14338   2
   3   1   5 87.0265 7.36104   2
  -4  -1  -5 721.561 28.0882   2
  -4  -1  -5 728.436 25.2616   3
  -4  -1  -5 684.612 28.4585   4
   4   1   5 669.539 27.6448   2
  -5  -1  -5 2757.00 85.5723   4
  -5  -1  -5 2757.82 83.7418   2
  -5  -1  -5 2770.73 79.1785   3
   5   1   5 2767.75 83.8978   2
   5   1   5 2798.89 84.4366   5
  -6  -1  -5 26.3624 5.17805   7
  -6  -1  -5 34.1488 7.22144   4
  -6  -1  -5 20.8485 5.31343   3
   6   1   5 24.0189 6.74252   5
   6   1   5 13.9645 3.84462   2
  -7  -1  -5 607.244 24.8824   7
  -7  -1  -5 571.467 31.5644   4
  -7  -1  -5 574.414 26.9694   3
   7   1   5 601.546 27.0852   3
   7   1   5 616.788 31.4166   2
  -8  -1  -5 6.42255 2.98106   7
  -8  -1  -5 13.9099 4.37776   4
  -8  -1  -5 31.0651 5.96882   3
   8   1   5 14.1900 5.57881   5
   8   1   5 4.76313 4.14704   3
   8   1   5 12.4458 4.53318   2
  -9  -1  -5 -3.3616 3.49656   4
  -9  -1  -5 -7.6358 3.66295   3
   9   1   5 -3.9910 3.46809   2
   7  -2  -5 276.020 23.1723   2
  -7   2   5 249.006 21.7437   4
  -7   2   5 254.535 24.0908   5
   6  -2  -5 190.616 16.9415   2
   6  -2  -5 163.951 16.8686   3
   6  -2  -5 167.159 16.5109   6
  -6   2   5 182.672 16.7273   4
  -6   2   5 192.918 19.1008   5
   5  -2  -5 94.2225 7.54214   7
   5  -2  -5 113.534 19.8731   5
   5  -2  -5 82.2325 10.4116   2
   5  -2  -5 91.2676 11.8369   3
  -5   2   5 86.0752 11.8384   5
  -5   2   5 70.6060 9.90134   4
   4  -2  -5 505.061 26.9453   5
   4  -2  -5 493.734 26.6697   3
   4  -2  -5 515.005 20.7460   7
   4  -2  -5 512.091 25.3389   2
  -4   2   5 472.301 26.7390   5
  -4   2   5 508.566 23.7614   4
   3  -2  -5 37.5825 6.81930   3
   3  -2  -5 31.3700 5.72151   5
   3  -2  -5 29.3490 4.49362   7
   3  -2  -5 33.5515 6.76306   1
  -3   2   5 33.0519 6.51981   5
  -3   2   5 38.5151 5.06953   4
   2  -2  -5 1931.19 54.4788   4
   2  -2  -5 1898.26 60.0018   3
   2  -2  -5 1833.96 61.5358   1
  -2   2   5 1774.78 61.0995   1
  -2   2   5 1936.79 59.8580   5
  -2   2   5 1817.44 54.2037   4
   1  -2  -5 4109.03 113.338   1
   1  -2  -5 3946.39 106.897   3
  -1   2   5 3929.64 107.595   5
  -1   2   5 3630.47 109.956   1
   0  -2  -5 719.237 27.0859   6
   0  -2  -5 732.189 29.9919   1
   0   2   5 775.578 29.8498   1
   0   2   5 773.800 25.8877   5
  -1  -2  -5 2371.83 67.4046   6
  -1  -2  -5 2437.52 67.7543   2
  -2  -2  -5 16.3664 2.71070   6
  -2  -2  -5 11.7070 2.50307   2
   2   2   5 12.4905 3.02432   2
  -3  -2  -5 77.8212 6.89479   2
  -3  -2  -5 87.4866 6.92248   3
   3   2   5 87.0956 7.15591   2
   3   2   5 78.9818 5.17370   6
  -4  -2  -5 3594.31 99.0826   3
  -4  -2  -5 3497.87 100.456   2
  -4  -2  -5 3541.02 102.259   4
   4   2   5 3477.28 92.8094   6
   4   2   5 3588.96 99.0421   5
   4   2   5 3693.66 101.057   2
  -5  -2  -5 105.414 10.6921   4
  -5  -2  -5 115.135 9.44531   3
  -5  -2  -5 108.868 9.81809   2
   5   2   5 113.128 6.08546   6
   5   2   5 107.918 9.98982   2
   5   2   5 98.5228 9.18355   5
  -6  -2  -5 301.672 17.2378   3
  -6  -2  -5 292.476 18.6485   2
  -6  -2  -5 272.812 19.4701   4
   6   2   5 313.420 18.7681   5
   6   2   5 300.626 18.8977   2
  -7  -2  -5 -0.1444 2.18286   4
  -7  -2  -5 -3.6691 2.20643   3
  -7  -2  -5 1.70430 1.78386   7
   7   2   5 0.13132 2.27971   2
   7   2   5 -0.2038 2.41432   5
  -8  -2  -5 531.991 22.5642   7
  -8  -2  -5 479.885 31.2384   4
   8   2   5 520.247 30.1599   2
   8   2   5 550.787 33.7298   5
  -9  -2  -5 614.555 32.9029   3
  -9  -2  -5 643.311 38.6963   4
   9   2   5 672.206 37.6027   2
   6  -3  -5 574.804 32.5201   2
   6  -3  -5 561.294 25.1378   7
   6  -3  -5 556.464 31.4593   3
  -6   3   5 611.633 53.1218   5
  -6   3   5 550.820 31.4786   4
   5  -3  -5 561.511 41.7301   6
   5  -3  -5 527.839 32.1045   1
   5  -3  -5 528.648 28.4161   2
   5  -3  -5 521.991 30.4448   5
   5  -3  -5 505.553 25.1183   7
   5  -3  -5 449.386 27.4533   3
  -5   3   5 495.229 30.3826   5
  -5   3   5 508.182 27.7175   4
   4  -3  -5 11.4586 3.80329   6
   4  -3  -5 12.8273 4.84803   2
   4  -3  -5 14.7701 4.91406   3
   4  -3  -5 19.5750 4.25420   7
   4  -3  -5 9.63891 3.66435   5
  -4   3   5 18.2999 5.53544   4
  -4   3   5 14.2432 4.45311   5
   3  -3  -5 1149.23 39.2165   7
   3  -3  -5 1061.32 43.4396   6
   3  -3  -5 1056.47 42.8445   5
   3  -3  -5 1106.36 46.3100   1
   3  -3  -5 1192.65 40.6624   4
   3  -3  -5 1157.95 44.6419   3
  -3   3   5 1134.86 44.2269   5
   2  -3  -5 1165.71 41.0890   5
   2  -3  -5 1075.73 44.0897   1
   2  -3  -5 1129.25 42.1832   6
   2  -3  -5 1115.52 36.5835   4
   2  -3  -5 1111.76 40.6931   3
  -2   3   5 1060.47 40.1920   5
  -2   3   5 1077.19 43.1531   1
   1  -3  -5 459.077 17.4031   4
   1  -3  -5 432.309 21.7585   6
   1  -3  -5 479.228 25.5821   1
   1  -3  -5 487.064 20.7053   3
  -1   3   5 478.473 20.8125   5
  -1   3   5 460.966 23.3523   1
   0  -3  -5 1861.64 62.8263   1
   0  -3  -5 1972.42 59.8269   6
   0   3   5 1877.25 61.8310   1
   0   3   5 1949.25 55.6860   5
  -1  -3  -5 47.6578 5.61280   6
  -1  -3  -5 43.0239 4.92386   2
   1   3   5 46.3714 4.12415   5
   1   3   5 44.7869 6.64936   1
  -2  -3  -5 1977.89 56.2094   2
  -2  -3  -5 1837.81 56.3836   6
   2   3   5 1942.35 57.0325   6
   2   3   5 1985.32 59.9451   2
  -3  -3  -5 5792.95 154.316   2
  -3  -3  -5 5865.20 152.736   6
   3   3   5 5930.29 154.394   2
   3   3   5 5723.59 152.476   6
  -4  -3  -5 365.573 17.7870   2
  -4  -3  -5 351.376 17.7687   3
   4   3   5 359.877 17.4512   2
   4   3   5 350.956 14.8227   6
   4   3   5 341.132 14.9026   5
  -5  -3  -5 1702.04 55.6258   2
  -5  -3  -5 1698.72 54.9462   3
   5   3   5 1678.64 49.4500   6
   5   3   5 1640.13 52.2987   5
   5   3   5 1717.59 55.6189   2
  -6  -3  -5 21.6344 5.65565   2
  -6  -3  -5 30.3860 6.17252   3
  -6  -3  -5 10.3713 3.77405   4
   6   3   5 9.36185 2.98488   5
   6   3   5 14.8608 3.90560   2
   6   3   5 12.4987 3.35068   6
  -7  -3  -5 14.3902 4.06467   2
  -7  -3  -5 15.7524 5.20465   4
  -7  -3  -5 20.9996 5.29336   3
   7   3   5 22.8010 5.51008   6
   7   3   5 23.9038 6.30670   5
   7   3   5 14.9455 5.33960   2
  -8  -3  -5 1015.86 48.2941   4
  -8  -3  -5 1008.09 48.0461   3
  -8  -3  -5 1031.15 45.0130   2
   8   3   5 1021.98 34.3710   6
   8   3   5 1033.07 45.4880   2
  -9  -3  -5 0.72350 4.78502   4
  -9  -3  -5 4.14092 5.00934   3
   9   3   5 4.10640 5.09031   2
   9   3   5 2.60991 4.70435   5
   6  -4  -5 155.364 14.7401   2
   6  -4  -5 108.369 15.3344   3
   6  -4  -5 106.379 10.4283   7
   5  -4  -5 5.47516 3.93944   3
   5  -4  -5 -2.7414 3.24299   6
   5  -4  -5 0.86199 2.41932   7
   5  -4  -5 6.57656 4.13602   2
  -5   4   5 5.36222 4.70541   5
   4  -4  -5 144.634 14.2948   3
   4  -4  -5 155.722 15.4800   6
   4  -4  -5 172.695 17.8655   1
   4  -4  -5 150.866 12.0824   7
   4  -4  -5 156.649 15.3143   5
   4  -4  -5 140.355 12.7641   2
   4  -4  -5 157.083 13.6031   4
  -4   4   5 144.368 15.4092   5
   3  -4  -5 1178.39 46.4721   3
   3  -4  -5 1199.78 50.4382   1
   3  -4  -5 1090.74 44.7439   5
   3  -4  -5 1112.98 41.7163   4
   3  -4  -5 1135.06 41.2253   7
   3  -4  -5 1087.65 45.8987   6
  -3   4   5 1085.76 44.6380   5
   2  -4  -5 362.182 19.9499   5
   2  -4  -5 381.352 24.7785   1
   2  -4  -5 338.145 21.0325   6
   2  -4  -5 362.215 17.8922   4
   2  -4  -5 345.638 18.7406   7
   2  -4  -5 366.312 20.0741   3
  -2   4   5 373.256 22.9924   1
  -2   4   5 343.840 19.6445   5
   1  -4  -5 2074.80 73.7664   1
   1  -4  -5 2130.22 69.0333   6
   1  -4  -5 2203.01 65.5141   5
   1  -4  -5 2172.88 65.5150   3
   1  -4  -5 2158.03 62.5292   4
  -1   4   5 2121.83 65.1725   5
  -1   4   5 2064.54 70.1071   1
   0  -4  -5 58.3199 7.30617   6
   0  -4  -5 55.3791 8.27767   1
   0   4   5 68.4508 6.21231   5
   0   4   5 61.6150 8.24899   1
  -1  -4  -5 1151.93 41.6007   6
  -1  -4  -5 1236.41 38.2301   2
   1   4   5 1229.36 42.3536   6
   1   4   5 1249.39 46.6934   1
   1   4   5 1167.95 35.3803   5
  -2  -4  -5 1050.12 34.0972   2
  -2  -4  -5 1035.42 37.0939   6
   2   4   5 1122.98 41.5697   1
   2   4   5 1088.16 37.6709   6
  -3  -4  -5 206.743 12.3563   6
  -3  -4  -5 221.679 11.9039   2
   3   4   5 217.068 11.7087   2
   3   4   5 209.859 12.5180   6
  -4  -4  -5 1069.65 41.1041   3
  -4  -4  -5 1083.72 37.5569   2
   4   4   5 1116.34 37.5724   2
   4   4   5 1095.80 37.1737   6
  -5  -4  -5 35.8766 7.00483   2
  -5  -4  -5 37.6156 6.13589   3
   5   4   5 39.7580 4.82838   5
   5   4   5 41.7839 6.00895   2
   5   4   5 35.9080 5.16388   6
  -6  -4  -5 668.343 29.9367   2
  -6  -4  -5 646.007 30.0318   3
   6   4   5 696.856 30.4973   2
   6   4   5 675.367 26.4123   6
   6   4   5 691.221 27.0127   5
  -7  -4  -5 1270.09 54.2179   4
  -7  -4  -5 1301.23 49.4281   2
   7   4   5 1323.74 43.6058   6
   7   4   5 1370.47 50.8087   2
   7   4   5 1269.17 46.1351   5
  -8  -4  -5 57.7865 9.83268   3
  -8  -4  -5 56.0334 10.2829   2
  -8  -4  -5 45.7926 11.2008   4
   8   4   5 52.3460 8.55424   5
   8   4   5 57.7273 7.72652   6
   8   4   5 58.6922 10.1662   2
  -9  -4  -5 525.884 34.8772   4
   9   4   5 519.367 36.2499   2
   9   4   5 494.926 28.8839   5
   9   4   5 478.232 22.1697   6
   5  -5  -5 206.233 18.2822   2
   5  -5  -5 175.598 18.4607   3
   4  -5  -5 88.8102 10.6407   7
   4  -5  -5 100.206 12.1894   5
   4  -5  -5 98.1906 11.3180   2
   4  -5  -5 100.004 12.0176   4
   4  -5  -5 62.5309 10.9375   3
   4  -5  -5 93.3124 13.2102   6
   3  -5  -5 549.491 30.2349   3
   3  -5  -5 475.807 38.8529   1
   3  -5  -5 494.140 25.4074   7
   3  -5  -5 546.317 26.1025   2
   3  -5  -5 528.421 26.2431   4
   3  -5  -5 536.754 28.8258   5
   3  -5  -5 534.428 30.1393   6
  -3   5   5 524.213 28.6502   5
   2  -5  -5 530.099 26.0942   3
   2  -5  -5 498.948 25.7312   5
   2  -5  -5 513.667 27.9816   6
   2  -5  -5 505.931 24.8027   4
   2  -5  -5 481.500 24.9602   7
   2  -5  -5 504.818 31.6533   1
  -2   5   5 498.942 25.5900   5
  -2   5   5 544.487 41.4373   1
   1  -5  -5 13.6844 3.78798   7
   1  -5  -5 29.3899 5.22176   5
   1  -5  -5 24.8242 4.89098   4
   1  -5  -5 12.6226 4.38552   1
  -1   5   5 22.6527 4.60184   5
  -1   5   5 27.2550 7.13646   1
   0  -5  -5 742.331 27.9007   4
   0  -5  -5 620.670 32.7340   1
   0  -5  -5 731.407 32.0841   6
   0   5   5 689.323 32.7558   1
   0   5   5 686.366 25.9427   5
  -1  -5  -5 1214.64 45.1848   6
  -1  -5  -5 1276.35 39.2158   2
   1   5   5 1294.31 46.2156   6
   1   5   5 1205.69 48.5303   1
  -2  -5  -5 982.669 36.8710   6
  -2  -5  -5 902.233 30.4758   2
   2   5   5 920.073 36.3973   6
   2   5   5 964.551 40.3337   1
  -3  -5  -5 3787.19 103.541   2
  -3  -5  -5 3707.11 108.128   6
   3   5   5 3890.96 104.038   2
   3   5   5 3795.26 108.657   6
  -4  -5  -5 61.3456 7.97930   3
  -4  -5  -5 61.8050 6.27108   2
   4   5   5 68.4052 6.68329   2
   4   5   5 68.4608 7.92548   6
  -5  -5  -5 3.47298 2.60004   3
  -5  -5  -5 2.42385 1.84417   2
   5   5   5 -0.4514 1.49060   2
   5   5   5 0.03543 1.41087   6
  -6  -5  -5 794.326 32.5230   2
  -6  -5  -5 726.721 33.4959   3
   6   5   5 748.076 31.7920   2
   6   5   5 746.445 30.5620   6
  -7  -5  -5 1.68173 1.82771   2
  -7  -5  -5 3.62285 3.24733   3
   7   5   5 3.87526 2.64771   6
   7   5   5 6.45804 3.15390   2
   7   5   5 0.90077 2.15417   5
  -8  -5  -5 570.085 35.4308   4
  -8  -5  -5 585.816 30.7441   2
  -8  -5  -5 502.601 28.9915   3
   8   5   5 577.426 26.8165   5
   8   5   5 560.304 30.5561   2
   8   5   5 572.402 26.0715   6
  -9  -5  -5 1.27415 5.20928   4
   9   5   5 23.8753 12.1820   2
   9   5   5 9.84752 4.01616   6
   4  -6  -5 248.218 21.2395   3
   4  -6  -5 236.824 17.9586   2
   4  -6  -5 265.806 20.2060   4
   4  -6  -5 263.816 19.3644   7
   3  -6  -5 525.419 30.3783   5
   3  -6  -5 569.634 37.9585   2
   3  -6  -5 532.676 29.6790   7
   3  -6  -5 569.863 33.5885   6
   3  -6  -5 551.867 28.6015   4
   3  -6  -5 570.482 37.5661   1
   3  -6  -5 522.054 30.2555   3
   2  -6  -5 57.1833 8.81308   3
   2  -6  -5 49.9946 11.4292   1
   2  -6  -5 54.5241 7.21805   2
   2  -6  -5 50.3302 8.16151   7
   2  -6  -5 46.5897 7.20425   4
   2  -6  -5 56.6850 10.7937   6
   2  -6  -5 52.7885 8.48861   5
  -2   6   5 53.7138 10.2923   1
   1  -6  -5 171.347 17.2709   1
   1  -6  -5 164.498 14.0843   7
   1  -6  -5 180.858 13.9140   3
   1  -6  -5 178.822 15.2250   5
   1  -6  -5 189.123 13.3052   4
   1  -6  -5 140.924 18.0112   6
   0  -6  -5 74.5666 9.36148   7
   0  -6  -5 61.5773 8.12814   4
   0  -6  -5 69.8540 7.12394   2
   0   6   5 71.7871 10.6728   1
  -1  -6  -5 770.470 26.7631   2
  -1  -6  -5 746.445 34.4338   6
   1   6   5 774.919 36.8667   1
   1   6   5 817.467 35.8471   6
  -2  -6  -5 1179.36 44.9476   6
  -2  -6  -5 1119.86 35.9667   2
   2   6   5 1198.06 45.5053   6
   2   6   5 1142.02 48.8893   1
  -3  -6  -5 47.0420 7.57740   6
  -3  -6  -5 52.6750 5.76468   2
   3   6   5 55.9110 8.20866   6
   3   6   5 62.5816 9.68707   1
  -4  -6  -5 305.819 15.5488   2
  -4  -6  -5 322.791 20.1220   3
   4   6   5 322.109 15.9364   2
   4   6   5 325.499 19.4136   6
  -5  -6  -5 1198.87 41.2151   2
   5   6   5 1183.71 44.6219   6
   5   6   5 1164.83 40.9170   2
  -6  -6  -5 284.408 17.2234   2
   6   6   5 292.787 17.6938   2
   6   6   5 299.265 18.6713   6
  -7  -6  -5 1193.90 49.3379   3
  -7  -6  -5 1251.51 46.5490   2
   7   6   5 1211.86 46.6521   2
   7   6   5 1192.82 45.6059   6
  -8  -6  -5 87.5945 12.5862   2
   8   6   5 120.085 11.5570   6
   8   6   5 120.112 13.8019   2
  -9  -6  -5 5.71404 5.72193   4
   9   6   5 -3.9758 4.43517   6
   9   6   5 -4.2639 3.72343   2
   3  -7  -5 -6.4517 4.40762   3
   3  -7  -5 -5.0533 2.78094   4
   3  -7  -5 -3.6135 3.14409   5
   2  -7  -5 57.4008 7.67021   2
   2  -7  -5 49.4658 13.1522   1
   2  -7  -5 54.7219 9.15030   5
   2  -7  -5 51.5249 8.44203   4
   2  -7  -5 58.1925 10.2250   3
   1  -7  -5 260.332 14.8819   2
   1  -7  -5 279.009 18.6746   3
   1  -7  -5 253.934 22.3571   1
   1  -7  -5 333.024 23.3220   6
   1  -7  -5 260.183 16.4948   5
   1  -7  -5 244.615 18.9818   7
   1  -7  -5 276.642 17.9176   4
  -1   7   5 289.704 21.8971   1
   0  -7  -5 783.162 34.3665   4
   0  -7  -5 767.230 28.2348   2
   0  -7  -5 802.696 36.9153   7
   0   7   5 786.744 38.0756   1
   1   7   5 970.605 42.9323   6
   1   7   5 927.022 42.8874   1
  -2  -7  -5 5.46608 2.86469   6
  -2  -7  -5 -1.5663 2.65627   7
   2   7   5 3.21375 3.61462   1
   2   7   5 -0.7263 2.13592   6
  -3  -7  -5 103.166 12.1797   6
  -3  -7  -5 114.751 7.86829   2
   3   7   5 117.300 12.8385   6
   3   7   5 127.230 15.0750   1
  -4  -7  -5 98.7873 14.0568   3
  -4  -7  -5 112.342 8.04105   2
   4   7   5 109.983 12.2070   6
   4   7   5 116.016 14.1039   1
  -5  -7  -5 363.450 17.8235   2
   5   7   5 356.420 17.9528   2
   5   7   5 384.252 23.0319   6
  -6  -7  -5 847.700 33.6751   2
   6   7   5 919.539 50.0352   6
   6   7   5 860.523 34.2833   2
  -7  -7  -5 1.94211 2.22012   2
   7   7   5 -1.9008 5.00753   2
  -8  -7  -5 34.3595 8.86940   2
   8   7   5 18.9613 5.07717   2
   8   7   5 26.3211 6.27044   6
   2  -8  -5 -2.9107 3.27829   3
   2  -8  -5 -4.1433 3.09809   4
   2  -8  -5 0.20128 2.85636   2
   1  -8  -5 504.065 30.2072   4
   1  -8  -5 531.721 26.2632   5
   1  -8  -5 556.031 29.3269   3
   1  -8  -5 547.083 23.6696   2
  -1   8   5 526.812 32.4802   1
   0  -8  -5 247.444 19.3570   4
   0   8   5 300.277 22.1317   1
  -1  -8  -5 9.35094 3.18848   7
  -1  -8  -5 5.59674 3.54927   6
   1   8   5 9.84546 4.12526   6
   1   8   5 7.34699 3.81251   1
  -2  -8  -5 24.6922 7.05183   6
   2   8   5 46.1830 11.6124   1
   2   8   5 51.3927 9.99838   6
  -3  -8  -5 572.053 36.7865   7
  -3  -8  -5 614.759 42.9499   3
   3   8   5 572.751 31.8655   6
   3   8   5 551.015 34.0843   1
  -4  -8  -5 453.796 26.1124   7
  -4  -8  -5 445.821 26.8067   3
   4   8   5 448.840 30.3089   1
   4   8   5 473.575 28.0096   6
  -5  -8  -5 1425.76 57.3458   7
  -5  -8  -5 1445.10 45.4626   2
  -5  -8  -5 1379.55 55.9213   3
   5   8   5 1465.23 56.9263   6
  -6  -8  -5 -0.3410 2.75514   2
   6   8   5 -0.6105 2.75882   2
   6   8   5 0.12187 2.99915   6
  -7  -8  -5 -0.1982 1.87938   2
   7   8   5 0.06973 2.99753   6
   7   8   5 1.74275 2.98865   2
   8   8   5 17.1866 5.62582   6
   8   8   5 14.9242 5.62197   2
   0  -9  -5 1.01623 3.93172   4
   0   9   5 0.86263 4.29593   1
  -1  -9  -5 -3.3370 3.57914   4
   1   9   5 6.62792 4.34176   1
   1   9   5 -1.9182 3.41187   6
   2   9   5 3.14724 4.25786   1
   2   9   5 5.07291 3.70098   6
  -3  -9  -5 362.849 29.1009   3
   3   9   5 383.575 27.6222   6
   3   9   5 412.646 29.0376   1
   4   9   5 462.814 29.4895   6
   4   9   5 397.350 30.1962   1
  -5  -9  -5 8.46941 5.12698   7
   5   9   5 3.36727 4.03093   1
   5   9   5 1.15679 3.44237   6
  -6  -9  -5 12.9007 5.66721   7
   6   9   5 1.93603 4.02559   6
  -7  -9  -5 36.7134 8.70273   7
   7   9   5 40.0187 9.62435   2
   2  10   5 262.378 24.4696   6
   2  10   5 273.965 23.8630   1
   3  10   5 537.436 34.4918   1
   3  10   5 488.114 33.8989   6
   4  10   5 3.66096 6.13455   1
   4  10   5 -2.1422 4.23210   6
   5  10   5 -0.8745 5.59157   1
   5  10   5 -5.1062 4.95074   6
  -4  -9   6 218.733 26.7872   7
   3   9  -6 18.0992 7.38846   6
   2   9  -6 94.6298 13.7842   6
  -2  -9   6 88.4990 10.7276   3
   1   9  -6 10.6200 5.69012   6
   0   9  -6 202.551 21.5435   6
   6   8  -6 153.638 21.8590   6
   6   8  -6 188.207 15.2334   2
  -6  -8   6 204.014 18.1258   5
   5   8  -6 236.145 23.8530   6
  -5  -8   6 277.228 23.5788   5
   4   8  -6 165.330 19.7458   6
  -4  -8   6 193.356 15.8897   3
  -3  -8   6 55.7687 8.92963   3
  -3  -8   6 34.2303 8.93711   7
   2   8  -6 10.0379 4.58256   6
  -2  -8   6 9.42300 3.64239   7
  -2  -8   6 1.37732 3.84461   3
   1   8  -6 606.578 34.4996   7
   1   8  -6 602.756 35.5781   6
  -1  -8   6 691.951 43.4862   7
   0   8  -6 464.208 30.0469   7
   0   8  -6 419.258 28.9082   6
  -1   8  -6 66.7962 12.5471   6
  -1   8  -6 34.6330 9.45147   7
  -2   8  -6 180.761 19.5030   6
  -2   8  -6 198.422 20.4179   7
   6   7  -6 410.984 24.6057   2
   6   7  -6 411.139 21.1065   1
   6   7  -6 344.293 27.4099   3
  -6  -7   6 449.300 27.2105   5
   5   7  -6 527.867 23.9098   2
   5   7  -6 451.525 29.3271   3
   5   7  -6 516.580 21.1598   1
  -5  -7   6 436.843 27.7734   5
  -5  -7   6 517.285 28.0283   3
   4   7  -6 270.011 19.9973   3
   4   7  -6 289.263 14.9353   2
  -4  -7   6 301.608 18.9307   3
   3   7  -6 4.82167 3.78597   6
  -3  -7   6 0.76844 2.71742   3
  -3  -7   6 5.51979 3.25042   7
   2   7  -6 317.531 23.8794   6
   2   7  -6 388.576 23.2980   7
  -2  -7   6 368.757 19.1346   3
   1   7  -6 573.157 30.6266   7
   1   7  -6 538.406 30.9873   6
  -1  -7   6 508.930 33.0370   7
  -1  -7   6 562.816 23.0423   3
   0   7  -6 230.398 19.2378   7
   0   7  -6 220.846 18.8177   6
   0  -7   6 221.738 18.1312   7
   0  -7   6 198.530 19.1935   4
  -1   7  -6 247.197 19.6213   6
  -1   7  -6 234.967 20.0412   7
   1  -7   6 177.695 18.6401   4
   1  -7   6 203.213 17.6302   7
  -2   7  -6 -0.2830 3.04830   6
  -2   7  -6 -5.2454 3.41162   7
  -3   7  -6 365.995 23.9799   6
  -3   7  -6 346.372 27.3960   7
   3  -7   6 363.366 20.1057   1
   7   6  -6 59.9862 12.9562   2
   7   6  -6 70.1830 14.9187   3
   7   6  -6 67.3260 12.8860   1
  -7  -6   6 106.320 15.2925   5
   6   6  -6 306.312 19.5599   2
   6   6  -6 283.861 22.7780   3
   6   6  -6 255.783 17.4116   1
  -6  -6   6 303.614 21.7788   5
   5   6  -6 179.030 12.2596   1
   5   6  -6 183.163 14.0055   2
   5   6  -6 170.633 16.7366   3
  -5  -6   6 177.548 15.3965   5
  -5  -6   6 155.728 15.4529   3
   4   6  -6 1.38156 1.98630   2
   4   6  -6 1.91570 2.33635   3
  -4  -6   6 0.69744 2.32116   3
   3   6  -6 564.920 27.6674   3
   3   6  -6 580.414 26.8142   7
   3   6  -6 556.700 21.7066   2
   3   6  -6 549.197 21.5528   2
  -3  -6   6 577.011 26.0748   3
  -3  -6   6 538.917 25.5375   7
   2   6  -6 535.169 26.6613   7
  -2  -6   6 654.034 34.3152   3
  -2  -6   6 498.125 25.5037   7
   1   6  -6 616.399 31.5370   6
   1   6  -6 605.693 29.8017   7
  -1  -6   6 620.336 24.1410   3
  -1  -6   6 588.054 28.8075   7
   0   6  -6 606.226 30.7317   6
   0   6  -6 593.964 30.8243   7
  -1   6  -6 67.0861 9.60886   6
  -1   6  -6 65.1510 9.84807   7
  -2   6  -6 316.428 22.3153   7
  -2   6  -6 310.297 20.2527   6
   2  -6   6 321.271 14.8506   2
  -3   6  -6 552.866 28.0949   6
  -3   6  -6 518.562 31.1433   7
   3  -6   6 514.801 30.8441   5
   3  -6   6 546.522 23.3635   2
   3  -6   6 569.119 25.4842   1
  -4   6  -6 40.3346 10.3751   7
   4  -6   6 61.4116 8.77388   1
   4  -6   6 43.2250 7.71233   2
  -5   6  -6 113.181 16.4813   7
   5  -6   6 137.746 13.0036   2
   5  -6   6 159.353 14.9644   1
   7   5  -6 516.814 29.7520   2
   7   5  -6 407.524 38.0744   3
  -7  -5   6 451.760 28.2361   5
   6   5  -6 442.376 23.7762   1
   6   5  -6 426.152 28.2023   3
   6   5  -6 436.033 25.1131   2
  -6  -5   6 402.977 25.9715   5
  -6  -5   6 392.863 24.9525   3
   5   5  -6 -1.4587 2.53477   1
   5   5  -6 4.69398 3.03962   2
   5   5  -6 7.03367 4.13418   3
  -5  -5   6 2.92970 3.38512   3
  -5  -5   6 1.02437 3.22971   5
   4   5  -6 440.675 18.9177   1
   4   5  -6 428.161 20.9377   2
   4   5  -6 424.391 24.7749   3
  -4  -5   6 439.443 24.7605   5
  -4  -5   6 421.324 23.0402   3
   3   5  -6 469.199 24.0805   3
   3   5  -6 484.962 22.1007   7
  -3  -5   6 449.738 21.8802   3
   2   5  -6 1147.93 41.4864   3
   2   5  -6 1166.11 37.1368   2
   2   5  -6 1197.76 42.8285   7
  -2  -5   6 1180.86 40.0615   3
   1   5  -6 319.700 20.0107   6
   1   5  -6 341.251 19.1221   7
  -1  -5   6 323.790 15.0192   3
  -1  -5   6 297.606 17.9593   7
   0   5  -6 50.4110 7.79813   6
   0   5  -6 52.0483 8.00695   7
   0  -5   6 57.7848 7.76517   7
  -1   5  -6 716.185 32.7445   7
  -1   5  -6 700.101 24.6299   2
  -1   5  -6 754.839 31.5787   6
   1  -5   6 641.716 31.1542   7
   1  -5   6 729.251 35.2820   4
  -2   5  -6 1216.69 40.2154   2
  -2   5  -6 1310.80 49.5107   7
  -2   5  -6 1201.49 45.0012   6
   2  -5   6 1228.82 39.8487   2
   2  -5   6 1292.63 39.9005   1
  -3   5  -6 209.216 17.2963   7
  -3   5  -6 240.042 14.2423   2
  -3   5  -6 241.493 15.8300   6
   3  -5   6 255.190 14.5663   2
   3  -5   6 239.022 14.8639   1
  -4   5  -6 1894.05 61.5894   2
  -4   5  -6 1905.69 69.2162   7
   4  -5   6 1955.85 64.0882   1
   4  -5   6 1846.44 74.3566   4
   4  -5   6 1798.24 70.4859   5
   4  -5   6 1942.40 61.7585   2
  -5   5  -6 2.22138 4.05300   7
   5  -5   6 5.00670 3.07799   1
   5  -5   6 4.82051 2.97214   2
   8   4  -6 308.959 25.5643   2
  -8  -4   6 308.780 39.9606   4
   7   4  -6 159.985 16.5274   1
   7   4  -6 187.208 17.5574   2
   7   4  -6 128.377 16.7938   3
  -7  -4   6 182.606 17.6670   5
   6   4  -6 5.58212 3.19753   2
   6   4  -6 9.24386 4.24419   3
   6   4  -6 5.59589 2.70310   1
  -6  -4   6 8.51599 4.76486   5
  -6  -4   6 -0.1377 3.23629   3
   5   4  -6 896.266 34.7691   1
   5   4  -6 876.300 36.3827   2
   5   4  -6 828.812 39.3758   3
  -5  -4   6 886.520 39.2245   5
  -5  -4   6 786.820 35.9781   3
   4   4  -6 367.122 17.8745   1
   4   4  -6 372.919 22.1883   3
  -4  -4   6 362.085 20.5472   3
  -4  -4   6 409.447 23.2860   5
   3   4  -6 1303.34 47.3920   3
   3   4  -6 1283.71 39.8896   1
   3   4  -6 1359.06 42.8662   7
  -3  -4   6 1351.35 45.7544   3
   2   4  -6 1003.50 35.4396   7
   2   4  -6 1009.34 36.2688   3
  -2  -4   6 964.116 34.4859   3
   1   4  -6 8.93708 2.41010   3
   1   4  -6 8.19295 2.28462   2
   1   4  -6 5.04108 2.09678   7
  -1  -4   6 11.0467 2.84443   3
   0   4  -6 451.847 21.9404   6
   0   4  -6 380.014 16.3748   2
   0   4  -6 446.014 21.9789   7
  -1   4  -6 791.053 30.9836   6
  -1   4  -6 778.519 32.8488   7
  -1   4  -6 755.722 26.8104   2
   1  -4   6 849.432 31.5429   2
   1  -4   6 745.605 31.9020   7
   1  -4   6 758.466 34.3006   4
  -2   4  -6 992.587 35.0740   6
  -2   4  -6 925.372 38.2469   7
  -2   4  -6 936.520 32.7337   2
   2  -4   6 816.577 39.1054   4
   2  -4   6 977.518 31.2080   1
   2  -4   6 1004.17 32.8961   2
  -3   4  -6 464.971 24.9971   7
  -3   4  -6 466.620 21.3629   6
  -3   4  -6 474.341 21.5950   2
   3  -4   6 470.112 21.4778   1
   3  -4   6 457.827 27.5993   4
   3  -4   6 510.387 21.8522   2
  -4   4  -6 9.53965 3.24430   2
  -4   4  -6 11.7689 3.72925   7
   4  -4   6 4.98261 1.71287   1
   4  -4   6 9.87576 3.35364   2
   4  -4   6 8.95343 3.94564   5
  -5   4  -6 460.281 26.4278   7
   5  -4   6 454.071 25.0346   2
   5  -4   6 408.820 24.3983   1
   5  -4   6 460.865 31.0655   4
   5  -4   6 426.911 28.4297   5
  -6   4  -6 119.785 14.0238   7
   6  -4   6 108.979 12.3187   2
   6  -4   6 121.671 14.2083   1
   8   3  -6 41.6044 9.20796   2
  -8  -3   6 73.1549 14.7993   5
  -8  -3   6 42.2748 10.7825   4
   7   3  -6 3.05384 5.00281   2
   7   3  -6 10.6640 3.82408   1
   7   3  -6 8.39190 5.08886   3
  -7  -3   6 11.5860 4.04944   5
  -7  -3   6 7.09254 5.25418   4
   6   3  -6 650.326 32.4256   2
   6   3  -6 542.972 32.2052   3
  -6  -3   6 648.193 34.2223   5
   5   3  -6 6.16192 2.67591   2
   5   3  -6 7.53223 3.08530   1
   5   3  -6 10.7481 3.93269   3
  -5  -3   6 23.3082 6.56613   5
   4   3  -6 2217.67 74.9016   3
   4   3  -6 2271.67 69.3264   1
  -4  -3   6 2299.18 73.0022   3
  -4  -3   6 2397.22 75.8132   5
   3   3  -6 1321.74 41.1286   1
   3   3  -6 1386.55 40.3672   7
   3   3  -6 1253.97 46.1939   3
  -3  -3   6 1249.07 47.6273   3
   2   3  -6 82.4337 7.87060   3
   2   3  -6 86.5846 7.27245   7
   2   3  -6 80.9483 5.57179   1
  -2  -3   6 77.5166 7.19134   3
   1   3  -6 869.509 31.5478   7
   1   3  -6 836.975 29.7025   3
   1   3  -6 905.675 29.9026   2
  -1  -3   6 862.269 29.0482   3
   0   3  -6 1116.21 39.6497   7
   0   3  -6 1176.22 36.6901   2
  -1   3  -6 1964.03 57.3631   6
  -1   3  -6 1829.20 59.4141   7
  -1   3  -6 1929.38 55.1554   2
   1  -3   6 1727.65 60.1789   4
  -2   3  -6 2567.13 73.9656   2
  -2   3  -6 2614.20 79.0363   7
  -2   3  -6 2494.77 74.2716   6
   2  -3   6 2621.62 73.6970   2
  -3   3  -6 3.28297 1.85234   6
  -3   3  -6 3.55843 2.47603   7
  -3   3  -6 1.21655 1.72538   2
   3  -3   6 -0.0015 1.53871   4
  -4   3  -6 11.6244 3.52575   7
  -4   3  -6 11.6997 3.63931   2
   4  -3   6 14.3259 3.68369   2
   4  -3   6 9.66960 3.90892   4
  -5   3  -6 178.936 15.8939   4
  -5   3  -6 170.777 13.7106   2
  -5   3  -6 161.067 14.2189   7
   5  -3   6 156.596 13.1746   2
  -6   3  -6 359.262 23.8548   2
  -6   3  -6 379.734 26.0462   4
  -6   3  -6 379.008 23.0470   7
   6  -3   6 373.254 22.9779   2
   6  -3   6 358.625 23.5769   1
  -7   3  -6 207.382 20.5079   4
  -7   3  -6 221.546 18.6362   7
   7  -3   6 252.045 19.6474   2
  -8  -2   6 15.3950 6.86695   4
   7   2  -6 168.570 18.7708   3
   7   2  -6 191.515 18.7970   2
  -7  -2   6 198.584 19.7808   5
  -7  -2   6 189.426 19.0504   4
   6   2  -6 34.1894 8.72404   3
   6   2  -6 16.5795 4.81750   2
  -6  -2   6 41.1641 9.65459   4
  -6  -2   6 40.7605 9.53862   5
   5   2  -6 1819.91 67.6426   3
   5   2  -6 2040.32 69.7372   2
   5   2  -6 1909.13 64.6230   1
  -5  -2   6 1997.97 74.4113   5
   4   2  -6 1340.54 51.0345   3
   4   2  -6 1404.28 47.7325   1
  -4  -2   6 1407.82 50.4121   3
  -4  -2   6 1437.12 52.0532   5
   3   2  -6 -0.1564 1.24536   3
   3   2  -6 -1.0913 1.03920   1
  -3  -2   6 0.18071 1.81884   5
   2   2  -6 356.825 17.9314   3
   2   2  -6 334.324 14.9744   7
   2   2  -6 367.928 15.2440   1
  -2  -2   6 365.451 17.5882   3
   1   2  -6 16.6996 3.89271   7
   1   2  -6 18.5490 4.36325   3
   1   2  -6 13.4038 2.53901   1
  -1  -2   6 14.4795 3.25134   3
   0   2  -6 3496.85 95.5219   3
   0   2  -6 3702.87 98.4745   2
   0   2  -6 3408.21 99.5388   7
   0  -2   6 3781.39 95.9277   3
  -1   2  -6 483.292 21.7128   7
  -1   2  -6 542.262 20.4023   2
   1  -2   6 541.876 26.0013   2
   1  -2   6 450.446 21.3746   4
  -2   2  -6 43.4309 5.23876   2
  -2   2  -6 48.3793 6.39644   7
  -2   2  -6 46.2234 4.42644   6
   2  -2   6 44.4698 6.55186   4
   2  -2   6 50.6146 5.41936   2
  -3   2  -6 1014.25 35.6721   2
  -3   2  -6 977.706 37.5120   4
  -3   2  -6 981.583 30.1461   6
  -3   2  -6 1001.70 37.4637   7
   3  -2   6 1010.05 35.5664   2
  -4   2  -6 637.254 28.2243   7
  -4   2  -6 607.093 29.0013   4
  -4   2  -6 627.929 27.2042   2
   4  -2   6 616.455 26.7955   2
   4  -2   6 635.942 31.3718   4
  -5   2  -6 866.238 35.6246   2
  -5   2  -6 839.721 37.5237   4
  -5   2  -6 818.903 34.5848   7
   5  -2   6 814.640 34.7173   2
  -6   2  -6 1354.27 55.1261   4
  -6   2  -6 1361.43 52.0572   7
   6  -2   6 1396.94 52.6040   2
  -7   2  -6 1.03290 3.29781   4
  -7   2  -6 -0.1740 3.16788   7
   7  -2   6 10.5275 4.30472   2
   8  -2   6 5.19523 5.11997   2
   7   1  -6 20.0596 7.52605   3
   7   1  -6 40.7720 9.31461   2
  -7  -1   6 41.9596 10.9261   4
  -7  -1   6 27.9451 8.40471   5
   6   1  -6 1781.51 63.9683   2
   6   1  -6 1558.43 63.4689   3
  -6  -1   6 1730.05 62.3994   4
  -6  -1   6 1734.40 63.4275   3
  -6  -1   6 1601.10 64.4140   5
   5   1  -6 601.999 31.9259   3
   5   1  -6 697.950 32.1236   2
   5   1  -6 665.943 31.3543   1
  -5  -1   6 658.586 30.9516   4
  -5  -1   6 676.837 33.6463   5
   4   1  -6 442.555 22.4799   1
   4   1  -6 423.608 23.8453   3
  -4  -1   6 474.878 25.3349   5
  -4  -1   6 456.067 23.7720   3
   3   1  -6 176.736 13.1313   3
   3   1  -6 178.687 12.0459   1
  -3  -1   6 163.248 13.2061   5
   2   1  -6 62.2196 6.62320   3
   2   1  -6 61.0388 5.97724   1
  -2  -1   6 69.9998 7.31031   3
   1   1  -6 3286.91 88.3385   1
   1   1  -6 3320.55 89.4805   3
  -1  -1   6 2889.35 86.6901   1
  -1  -1   6 3302.03 88.8091   3
   0   1  -6 4290.59 113.021   3
   0   1  -6 4280.59 115.294   2
   0  -1   6 4190.96 112.479   3
   0  -1   6 4304.86 112.237   1
  -1   1  -6 2.96691 1.01537   3
  -1   1  -6 2.65152 1.43103   2
   1  -1   6 2.75792 1.33213   4
   1  -1   6 4.42231 2.05478   2
  -2   1  -6 4.94403 1.79104   4
  -2   1  -6 7.90842 2.56627   7
  -2   1  -6 4.97767 2.02259   2
   2  -1   6 6.67754 2.22869   2
   2  -1   6 5.40216 2.19989   4
  -3   1  -6 778.419 31.0629   7
  -3   1  -6 820.894 30.3202   2
  -3   1  -6 806.056 30.8792   4
   3  -1   6 795.151 30.0109   2
   3  -1   6 832.237 32.9906   4
  -4   1  -6 2327.78 74.8555   2
  -4   1  -6 2079.88 68.6475   4
  -4   1  -6 2239.87 68.3537   7
   4  -1   6 2244.59 72.7374   4
   4  -1   6 2065.93 66.9574   2
  -5   1  -6 1343.16 48.3879   2
  -5   1  -6 1354.12 46.9841   7
  -5   1  -6 1299.30 49.6601   4
   5  -1   6 1273.14 47.6942   2
   5  -1   6 1387.36 53.8301   4
   5  -1   6 1374.14 51.9083   5
  -6   1  -6 46.2258 7.55197   7
  -6   1  -6 39.9336 8.28292   4
   6  -1   6 63.3893 8.86181   2
  -7   1  -6 21.6003 5.81369   4
  -7   1  -6 24.5365 6.44567   7
  -7   1  -6 14.0653 4.58516   2
   7  -1   6 34.4317 9.56809   5
   7  -1   6 10.1902 3.98315   2
  -8   1  -6 172.503 14.2221   7
  -8   1  -6 171.841 18.7823   4
   8  -1   6 189.768 19.5966   2
   7   0  -6 665.666 40.2942   3
   7   0  -6 804.917 40.7407   2
  -7   0   6 763.247 37.9764   4
  -7   0   6 775.326 42.4088   5
   6   0  -6 231.722 19.0529   1
   6   0  -6 221.190 18.8136   3
   6   0  -6 211.355 18.3335   2
  -6   0   6 232.083 18.8214   3
  -6   0   6 203.554 19.5170   5
  -6   0   6 245.498 18.4324   4
   5   0  -6 24.9760 6.51241   3
   5   0  -6 25.9061 5.84294   2
  -5   0   6 11.7901 4.39599   5
  -5   0   6 30.5423 7.01302   4
   4   0  -6 6.92588 3.23159   3
   4   0  -6 2.79108 1.97564   1
  -4   0   6 4.02665 1.98583   4
  -4   0   6 4.83695 2.34815   3
  -4   0   6 6.98343 2.91290   5
   3   0  -6 31.5605 5.65383   1
   3   0  -6 32.5634 5.69862   3
  -3   0   6 25.0770 4.51908   4
  -3   0   6 45.1885 6.51541   3
  -3   0   6 40.6511 6.63090   5
   2   0  -6 3725.77 104.241   3
   2   0  -6 3463.33 102.756   1
  -2   0   6 3688.45 103.242   3
  -2   0   6 3799.38 105.832   5
   1   0  -6 2493.13 70.6530   3
   1   0  -6 2475.55 71.1501   1
  -1   0   6 2315.46 69.7766   1
  -1   0   6 2345.57 69.1572   3
   0   0  -6 1234.62 38.9261   2
   0   0  -6 1115.02 36.1817   3
   0   0   6 1199.46 37.9866   1
  -1   0  -6 1259.90 40.7405   2
   1   0   6 1305.38 38.1539   4
   1   0   6 1324.53 41.5379   2
  -2   0  -6 538.178 20.0666   4
  -2   0  -6 552.937 21.5281   2
   2   0   6 512.223 20.8861   4
  -3   0  -6 4644.94 128.659   4
  -3   0  -6 4781.42 129.286   2
   3   0   6 4631.97 130.812   4
   3   0   6 4906.71 129.418   2
  -4   0  -6 3821.60 109.600   2
  -4   0  -6 3756.69 110.056   4
   4   0   6 3998.69 113.799   4
   4   0   6 3914.70 109.981   2
  -5   0  -6 1.36564 1.90948   4
  -5   0  -6 0.91798 1.31637   2
  -5   0  -6 -0.8363 1.31304   7
   5   0   6 -2.5573 2.14632   5
   5   0   6 1.09828 1.56067   2
  -6   0  -6 70.2098 9.99137   4
  -6   0  -6 78.2936 7.63923   3
  -6   0  -6 83.8357 9.16879   7
  -6   0  -6 69.0016 9.18060   2
   6   0   6 68.4099 9.64383   2
   6   0   6 79.0966 9.89875   5
  -7   0  -6 58.8723 8.40108   3
  -7   0  -6 62.4051 8.45782   7
  -7   0  -6 59.4920 10.4315   4
  -7   0  -6 47.1924 9.06718   2
   7   0   6 63.7013 10.7676   5
   7   0   6 68.4650 9.77382   2
  -8   0  -6 448.358 22.1152   7
  -8   0  -6 372.439 21.3315   3
  -8   0  -6 405.443 28.3020   4
   8   0   6 364.863 26.4759   2
   7  -1  -6 66.0246 13.1617   3
   7  -1  -6 61.8156 12.6565   2
  -7   1   6 94.5251 15.4545   5
  -7   1   6 70.0296 14.6533   4
   6  -1  -6 155.912 16.8049   3
   6  -1  -6 191.474 17.4690   2
  -6   1   6 178.054 16.1854   4
  -6   1   6 186.996 16.4043   3
  -6   1   6 219.226 20.2047   5
   5  -1  -6 2.87180 2.23863   2
   5  -1  -6 2.80143 3.03315   1
   5  -1  -6 2.31345 2.60664   3
  -5   1   6 0.16023 2.50804   4
  -5   1   6 1.25698 2.35764   5
   4  -1  -6 1.63354 2.23900   1
   4  -1  -6 2.21274 2.59214   3
  -4   1   6 5.18236 2.73923   4
  -4   1   6 1.00282 1.91364   5
  -4   1   6 1.03247 2.34409   3
   3  -1  -6 2843.07 83.8812   3
   3  -1  -6 2678.02 83.1727   1
  -3   1   6 2639.44 81.3481   3
  -3   1   6 2651.65 77.8876   4
  -3   1   6 2616.38 83.0725   5
   2  -1  -6 806.760 32.2826   1
   2  -1  -6 802.937 31.8829   3
  -2   1   6 878.109 32.5621   5
  -2   1   6 665.834 30.8399   1
   1  -1  -6 3.24503 1.88634   1
   1  -1  -6 1.59446 1.52028   3
  -1   1   6 1.54728 1.43525   1
  -1   1   6 1.65294 1.33637   5
   0  -1  -6 2.65233 1.30735   3
   0  -1  -6 3.18772 1.44371   1
  -1  -1  -6 1450.04 44.8708   2
   1   1   6 1441.95 45.8004   1
  -2  -1  -6 4922.73 131.285   6
  -2  -1  -6 5017.04 133.567   4
  -2  -1  -6 5344.32 136.998   2
   2   1   6 5172.59 136.056   2
  -3  -1  -6 1386.91 44.8927   4
  -3  -1  -6 1421.72 45.7043   2
  -3  -1  -6 1457.64 42.9011   3
   3   1   6 1422.48 45.5508   2
  -4  -1  -6 566.402 21.3158   3
  -4  -1  -6 540.847 24.2979   4
  -4  -1  -6 528.388 23.7796   2
   4   1   6 550.287 23.9892   2
  -5  -1  -6 3.78141 1.62973   3
  -5  -1  -6 2.15689 1.82663   2
  -5  -1  -6 2.18907 1.86997   4
   5   1   6 1.54386 2.09940   2
  -6  -1  -6 177.958 15.0514   4
  -6  -1  -6 175.368 12.8935   7
  -6  -1  -6 179.849 12.4505   3
   6   1   6 186.028 15.1859   5
   6   1   6 168.709 13.9447   2
  -7  -1  -6 736.486 29.9663   7
  -7  -1  -6 705.135 29.8792   3
  -7  -1  -6 700.199 35.6482   4
   7   1   6 699.610 34.7724   2
  -8  -1  -6 901.386 44.3874   4
  -8  -1  -6 959.422 35.4913   7
  -8  -1  -6 933.943 37.9449   3
   8   1   6 856.660 43.0967   5
   8   1   6 858.191 42.7718   2
  -9  -1  -6 4.50306 3.87170   3
  -9  -1  -6 1.71040 3.81039   4
  -9  -1  -6 0.10062 2.95768   7
   9   1   6 0.58640 5.32826   2
   6  -2  -6 6.94214 3.39982   2
   6  -2  -6 3.44500 4.03904   3
  -6   2   6 7.38773 4.87700   5
  -6   2   6 1.89134 3.01009   4
   5  -2  -6 188.026 16.2994   2
   5  -2  -6 195.855 11.5613   7
   5  -2  -6 170.557 16.1428   3
  -5   2   6 203.596 18.3213   5
  -5   2   6 177.641 14.6322   4
   4  -2  -6 2426.50 70.3731   7
   4  -2  -6 2430.27 81.3310   3
  -4   2   6 2294.69 73.8206   4
  -4   2   6 2534.59 84.9998   5
   3  -2  -6 405.475 23.7605   1
   3  -2  -6 444.905 23.7982   3
  -3   2   6 387.247 18.3861   4
  -3   2   6 405.935 22.8879   5
   2  -2  -6 1582.72 52.1130   3
  -2   2   6 1474.60 50.6854   5
  -2   2   6 1430.02 52.7021   1
   1  -2  -6 6.33406 2.64874   1
   1  -2  -6 16.6833 3.63357   3
  -1   2   6 9.92472 2.90248   5
  -1   2   6 20.5930 5.30188   1
   0  -2  -6 73.2012 8.30756   1
   0   2   6 66.9088 7.53907   5
   0   2   6 70.4503 8.05625   1
  -1  -2  -6 4767.89 125.268   2
  -1  -2  -6 4375.78 123.533   6
   1   2   6 4753.92 128.881   1
  -2  -2  -6 3338.45 93.0594   6
  -2  -2  -6 3528.50 96.0340   2
   2   2   6 3575.17 95.8761   2
  -3  -2  -6 491.037 21.5512   4
  -3  -2  -6 523.216 17.5233   6
  -3  -2  -6 517.028 21.5432   2
   3   2   6 524.917 21.5604   2
  -4  -2  -6 342.396 16.6017   3
  -4  -2  -6 340.961 18.2263   4
  -4  -2  -6 361.608 17.9552   2
   4   2   6 330.118 17.3966   2
   4   2   6 331.499 11.8412   6
  -5  -2  -6 3.99904 2.39612   4
  -5  -2  -6 8.17982 2.93228   3
  -5  -2  -6 13.0110 4.06685   2
   5   2   6 16.9016 3.77878   2
   5   2   6 5.14850 2.57672   5
  -6  -2  -6 1521.79 56.7775   4
  -6  -2  -6 1503.21 54.6489   2
  -6  -2  -6 1584.63 56.3847   3
   6   2   6 1553.40 55.3781   2
   6   2   6 1574.48 54.5933   5
  -7  -2  -6 694.799 28.8878   7
  -7  -2  -6 651.218 34.3885   4
  -7  -2  -6 656.868 29.4592   3
   7   2   6 652.776 32.0926   5
   7   2   6 670.346 33.0579   2
  -8  -2  -6 15.7764 4.23289   7
  -8  -2  -6 13.1702 4.80781   4
   8   2   6 12.1092 5.51596   2
   8   2   6 12.3477 5.71625   5
  -9  -2  -6 -6.0275 4.95447   3
  -9  -2  -6 3.95843 4.63517   4
   9   2   6 5.30388 4.99219   2
   6  -3  -6 127.532 16.4441   3
   6  -3  -6 167.136 20.2260   2
  -6   3   6 136.355 18.3281   5
  -6   3   6 136.080 15.0848   4
   5  -3  -6 1056.80 47.1264   6
   5  -3  -6 1065.31 38.1635   7
   5  -3  -6 993.893 46.1073   3
   5  -3  -6 1060.34 44.9917   2
  -5   3   6 1013.77 42.6151   4
  -5   3   6 992.316 47.5648   5
   4  -3  -6 5.30503 2.64039   3
   4  -3  -6 3.89171 2.33823   5
   4  -3  -6 4.23878 3.18049   7
   4  -3  -6 8.07654 4.01561   6
   4  -3  -6 4.27494 2.51768   2
  -4   3   6 3.01958 2.88237   5
   3  -3  -6 207.521 16.2666   6
   3  -3  -6 200.752 13.0222   7
   3  -3  -6 215.777 16.4744   3
  -3   3   6 214.524 16.3274   5
   2  -3  -6 36.4479 6.61756   6
   2  -3  -6 26.7670 6.09683   3
   2  -3  -6 29.8861 4.56822   4
   2  -3  -6 34.7879 7.61591   1
  -2   3   6 27.7024 6.46118   1
  -2   3   6 28.7620 5.79586   5
   1  -3  -6 226.787 18.3609   1
   1  -3  -6 210.922 13.1124   3
   1  -3  -6 206.739 14.8931   6
  -1   3   6 200.889 15.2574   1
  -1   3   6 202.371 12.9893   5
   0  -3  -6 3094.55 90.4905   6
   0  -3  -6 3212.36 95.6473   1
   0   3   6 2997.93 87.6436   5
   0   3   6 3156.03 93.9829   1
  -1  -3  -6 862.560 30.2509   2
  -1  -3  -6 788.002 30.2301   6
   1   3   6 849.970 35.0545   1
   1   3   6 858.996 27.7221   5
  -2  -3  -6 2549.43 75.3349   6
  -2  -3  -6 2661.10 75.4783   2
   2   3   6 2775.67 76.1712   2
  -3  -3  -6 57.3202 5.33152   6
  -3  -3  -6 53.5634 5.96481   2
   3   3   6 57.2572 5.51638   6
   3   3   6 57.3103 6.11841   2
  -4  -3  -6 24.0139 4.76395   3
  -4  -3  -6 38.7025 5.34189   2
   4   3   6 26.3062 4.84023   2
   4   3   6 26.9040 3.58978   6
  -5  -3  -6 1571.31 52.8796   2
  -5  -3  -6 1544.03 53.4423   3
  -5  -3  -6 1549.44 54.9301   4
   5   3   6 1524.74 45.3264   6
   5   3   6 1589.54 49.8786   5
   5   3   6 1592.28 52.8494   2
  -6  -3  -6 1480.78 55.5210   4
  -6  -3  -6 1462.58 50.7656   3
  -6  -3  -6 1453.49 52.4599   2
   6   3   6 1460.13 43.1501   6
   6   3   6 1460.47 52.6428   2
   6   3   6 1491.34 50.3083   5
  -7  -3  -6 47.5894 8.23267   3
  -7  -3  -6 47.9644 7.01075   2
  -7  -3  -6 42.2739 9.37218   4
   7   3   6 38.3166 8.10227   2
   7   3   6 43.2174 7.74431   5
  -8  -3  -6 87.1690 9.59897   7
  -8  -3  -6 82.0927 12.4907   4
  -8  -3  -6 86.8185 12.3966   2
   8   3   6 82.9452 12.2315   2
  -9  -3  -6 -3.2384 3.55557   4
  -9  -3  -6 1.84952 4.22993   3
   9   3   6 2.74092 4.20032   5
   9   3   6 -2.5774 4.75556   2
   5  -4  -6 118.077 14.7713   3
   5  -4  -6 102.919 12.9621   2
   5  -4  -6 82.1375 9.45974   7
  -5   4   6 73.5448 13.4950   5
   4  -4  -6 1146.90 43.4679   7
   4  -4  -6 1202.38 50.4337   5
   4  -4  -6 1226.43 47.5491   2
   4  -4  -6 1180.15 49.8202   3
   4  -4  -6 1193.40 54.6230   1
   4  -4  -6 1195.74 51.1846   6
  -4   4   6 1186.12 50.5082   5
   3  -4  -6 99.6990 12.1115   6
   3  -4  -6 118.062 10.5839   4
   3  -4  -6 110.751 11.8146   5
   3  -4  -6 115.204 10.4916   7
  -3   4   6 99.3196 11.8256   5
   2  -4  -6 185.929 11.9596   4
   2  -4  -6 185.747 17.6252   1
   2  -4  -6 184.538 13.2656   7
   2  -4  -6 207.095 15.1547   3
   2  -4  -6 192.012 15.8164   6
  -2   4   6 217.951 17.4179   1
  -2   4   6 187.174 14.4392   5
   1  -4  -6 2469.25 73.1480   3
   1  -4  -6 2373.00 67.9798   4
   1  -4  -6 2522.60 83.0523   1
   1  -4  -6 2317.24 76.3665   6
  -1   4   6 2421.51 72.7680   5
  -1   4   6 2227.61 77.3493   1
   0  -4  -6 672.333 32.0852   6
   0  -4  -6 560.701 34.3915   1
   0  -4  -6 657.621 22.6812   4
   0   4   6 650.543 24.7443   5
   0   4   6 628.692 30.3792   1
  -1  -4  -6 462.727 22.6067   6
  -1  -4  -6 525.749 21.3308   2
   1   4   6 471.790 18.0867   5
   1   4   6 518.440 26.9968   1
  -2  -4  -6 180.178 10.7465   2
  -2  -4  -6 190.167 12.3383   6
   2   4   6 186.676 12.3525   6
   2   4   6 208.539 15.4141   1
  -3  -4  -6 191.729 11.6656   2
  -3  -4  -6 196.143 12.2962   6
   3   4   6 210.857 12.6482   6
   3   4   6 213.430 12.2691   2
  -4  -4  -6 2817.70 81.9214   2
  -4  -4  -6 2755.65 85.5251   3
   4   4   6 2740.69 79.7675   6
   4   4   6 2896.99 82.0349   2
  -5  -4  -6 878.467 34.2376   2
  -5  -4  -6 853.870 34.9113   3
   5   4   6 864.283 29.7839   5
   5   4   6 877.973 34.2650   2
   5   4   6 901.127 31.2647   6
  -6  -4  -6 1330.17 48.3362   2
  -6  -4  -6 1320.96 48.4656   3
   6   4   6 1339.38 44.2547   5
   6   4   6 1317.64 48.0710   2
   6   4   6 1278.98 42.1855   6
  -7  -4  -6 263.991 18.6584   2
  -7  -4  -6 252.689 20.8218   4
   7   4   6 266.449 18.8971   2
   7   4   6 266.069 16.5177   5
   7   4   6 275.163 14.2809   6
  -8  -4  -6 6.11597 4.08308   3
  -8  -4  -6 2.94077 3.86197   4
  -8  -4  -6 11.4762 4.41297   2
   8   4   6 8.33675 2.74454   6
   8   4   6 12.1314 4.32287   5
   8   4   6 14.9483 5.25521   2
   9   4   6 308.552 24.1379   2
   9   4   6 299.792 22.6776   5
   5  -5  -6 183.072 17.1916   7
   5  -5  -6 223.987 19.3652   2
   5  -5  -6 181.647 19.7938   3
   4  -5  -6 29.8239 6.22024   7
   4  -5  -6 11.9167 3.96476   4
   4  -5  -6 11.0834 4.72911   3
   4  -5  -6 15.6381 4.40298   2
   4  -5  -6 6.18308 4.21178   5
  -4   5   6 33.8054 8.78925   5
   3  -5  -6 226.636 16.0435   4
   3  -5  -6 269.349 26.1355   2
   3  -5  -6 237.697 19.6348   6
   3  -5  -6 278.316 19.8251   5
   3  -5  -6 221.928 16.4052   7
   3  -5  -6 217.277 18.5198   3
   3  -5  -6 248.342 23.2550   1
  -3   5   6 272.684 19.7534   5
   2  -5  -6 872.128 41.2938   6
   2  -5  -6 956.052 39.1028   7
   2  -5  -6 1015.58 42.6159   3
   2  -5  -6 1008.46 40.2872   5
   2  -5  -6 989.066 36.8639   4
   2  -5  -6 976.511 47.9552   1
  -2   5   6 1006.01 39.8071   5
  -2   5   6 964.712 44.4571   1
   1  -5  -6 164.259 13.0930   7
   1  -5  -6 151.375 16.0897   1
   1  -5  -6 130.428 9.99065   4
   1  -5  -6 136.756 11.7038   3
  -1   5   6 126.223 13.8888   1
  -1   5   6 141.575 11.2700   5
   0  -5  -6 749.048 27.8121   4
   0  -5  -6 778.563 33.7815   6
   0   5   6 709.712 27.6111   5
   0   5   6 738.527 35.1836   1
  -1  -5  -6 329.800 15.9213   2
  -1  -5  -6 312.404 18.9359   6
   1   5   6 317.310 21.5890   1
  -2  -5  -6 4.67404 3.09469   6
  -2  -5  -6 7.36235 1.97793   2
   2   5   6 4.15316 2.24881   1
   2   5   6 5.61678 2.25170   6
  -3  -5  -6 1886.13 57.3142   2
  -3  -5  -6 1897.07 61.0815   6
   3   5   6 1932.79 61.6647   6
   3   5   6 1915.25 58.1154   2
  -4  -5  -6 247.106 16.3671   3
  -4  -5  -6 261.158 14.6097   2
   4   5   6 267.257 15.6629   6
   4   5   6 265.088 14.4645   2
  -5  -5  -6 862.946 36.4905   3
  -5  -5  -6 889.204 34.4639   2
   5   5   6 925.026 34.3104   6
   5   5   6 865.961 33.7220   2
  -6  -5  -6 115.709 12.1755   3
  -6  -5  -6 144.272 12.3403   2
   6   5   6 136.589 11.9466   2
   6   5   6 153.531 11.1824   6
  -7  -5  -6 1.20202 2.41457   3
  -7  -5  -6 0.89705 2.16552   2
   7   5   6 3.54977 2.67146   2
   7   5   6 2.70690 2.50881   5
   7   5   6 0.24494 2.06428   6
  -8  -5  -6 762.936 42.5173   4
  -8  -5  -6 883.016 39.4598   2
  -8  -5  -6 813.034 38.3204   3
   8   5   6 765.826 37.8272   2
   8   5   6 807.404 34.0520   5
   8   5   6 868.487 32.7896   6
  -9  -5  -6 261.830 25.0558   4
   9   5   6 283.788 25.9963   2
   9   5   6 279.305 16.6849   6
   4  -6  -6 41.6346 9.54562   2
   4  -6  -6 55.2075 11.6575   4
   4  -6  -6 49.2062 12.1755   3
   3  -6  -6 380.317 22.2948   2
   3  -6  -6 406.357 23.3951   4
   3  -6  -6 414.612 25.7685   5
   3  -6  -6 420.377 27.1890   3
   3  -6  -6 367.787 23.7884   7
   2  -6  -6 16.3756 5.40351   6
   2  -6  -6 12.4504 4.32527   3
   2  -6  -6 18.3058 5.26089   1
   2  -6  -6 19.6542 5.19304   7
   2  -6  -6 14.5928 4.22678   4
   2  -6  -6 16.7179 4.84029   5
  -2   6   6 33.2263 8.50968   1
   1  -6  -6 505.266 26.7074   7
   1  -6  -6 448.415 30.6264   1
   1  -6  -6 517.201 26.5697   3
   1  -6  -6 483.523 23.8770   4
  -1   6   6 534.655 30.2909   1
   0  -6  -6 191.603 12.8975   2
   0  -6  -6 183.879 12.5953   4
   0  -6  -6 176.815 14.6799   7
   0   6   6 178.928 17.2150   1
  -1  -6  -6 215.903 12.0982   2
  -1  -6  -6 198.548 15.9402   6
   1   6   6 194.045 17.6060   1
   1   6   6 181.629 15.7918   6
  -2  -6  -6 1583.35 48.9448   2
  -2  -6  -6 1648.97 57.4354   6
   2   6   6 1534.32 61.9185   1
   2   6   6 1662.41 58.0235   6
  -3  -6  -6 131.554 12.3606   6
  -3  -6  -6 119.632 8.98794   2
   3   6   6 148.872 12.8533   6
   3   6   6 121.099 13.9949   1
  -4  -6  -6 1556.96 49.8845   2
   4   6   6 1609.14 54.9906   6
   4   6   6 1521.18 49.8924   2
  -5  -6  -6 563.659 24.6872   2
   5   6   6 520.666 24.0223   2
   5   6   6 552.863 26.4510   6
  -6  -6  -6 -1.7344 1.78748   2
   6   6   6 2.84544 1.65156   6
   6   6   6 0.78231 1.58365   2
  -7  -6  -6 121.415 13.7734   3
  -7  -6  -6 149.157 12.9712   2
   7   6   6 133.946 12.8316   2
   7   6   6 142.173 12.3762   6
  -8  -6  -6 192.138 16.7863   2
   8   6   6 151.942 15.9374   2
   8   6   6 199.689 14.7280   6
  -9  -6  -6 32.2903 9.22480   4
   9   6   6 66.5395 10.1200   6
   3  -7  -6 10.4772 5.01464   3
   3  -7  -6 -0.3178 3.28698   2
   2  -7  -6 923.857 36.6206   2
   2  -7  -6 869.462 38.3839   4
   2  -7  -6 945.880 42.0511   3
   1  -7  -6 161.876 13.4271   4
   1  -7  -6 130.417 17.4608   1
   1  -7  -6 151.300 15.1711   7
   1  -7  -6 177.444 17.6566   6
   1  -7  -6 153.718 13.9089   3
  -1   7   6 166.053 17.7967   1
   0  -7  -6 0.60025 3.09341   7
   0  -7  -6 -3.9552 1.94140   2
   0  -7  -6 -0.9282 1.95122   4
   0   7   6 -1.4147 2.28847   1
  -1  -7  -6 604.025 23.8443   2
   1   7   6 646.668 33.9733   6
   1   7   6 641.597 34.8378   1
  -2  -7  -6 2.16519 1.92800   2
   2   7   6 7.84147 4.02978   1
   2   7   6 6.61042 3.53131   6
  -3  -7  -6 588.051 22.3884   2
  -3  -7  -6 503.718 28.0601   6
   3   7   6 622.492 42.4757   6
   3   7   6 566.854 33.2773   1
  -4  -7  -6 189.257 11.7136   2
   4   7   6 181.896 15.7132   6
   5   7   6 -0.0496 2.31427   6
   5   7   6 -1.0051 1.88962   2
  -6  -7  -6 593.377 26.5749   2
   6   7   6 575.554 26.7566   2
   6   7   6 559.925 29.6363   6
  -7  -7  -6 233.706 16.5212   2
   7   7   6 216.753 16.7150   2
   7   7   6 266.858 23.2681   6
  -8  -7  -6 470.796 26.7877   2
   8   7   6 464.030 27.1341   2
   8   7   6 528.497 27.4892   6
   2  -8  -6 5.15653 3.47556   4
   2  -8  -6 -4.3323 3.82364   3
   2  -8  -6 -4.9572 2.65183   2
   1  -8  -6 21.9167 5.56956   4
   1  -8  -6 26.7361 6.73786   2
   1  -8  -6 20.9338 5.19298   2
   1  -8  -6 38.4796 9.10706   3
  -1   8   6 43.2771 11.8467   1
   0  -8  -6 359.686 22.1309   4
   0   8   6 374.213 27.0628   1
  -1  -8  -6 6.09593 3.76424   7
  -1  -8  -6 1.51744 3.69759   6
   1   8   6 5.84430 3.60760   1
  -2  -8  -6 1154.42 50.6191   6
   2   8   6 1217.78 51.8450   6
   2   8   6 1181.39 52.9380   1
  -3  -8  -6 227.902 19.5989   6
  -3  -8  -6 253.030 19.5860   7
   3   8   6 238.875 22.3252   1
   3   8   6 307.951 22.6286   6
   4   8   6 6.45022 3.99793   1
   4   8   6 11.8805 4.37690   6
  -5  -8  -6 523.191 21.5850   2
  -5  -8  -6 477.083 28.5833   3
   5   8   6 480.715 27.9653   6
   5   8   6 429.418 30.4766   1
  -6  -8  -6 5.69337 3.28105   2
   6   8   6 -3.2703 2.72146   6
   6   8   6 3.13250 2.88658   2
  -7  -8  -6 505.252 24.6809   2
   7   8   6 456.666 25.5902   2
   7   8   6 503.350 28.9733   6
  -8  -8  -6 96.9034 11.7139   2
  -8  -8  -6 87.5546 18.1171   7
   8   8   6 80.1391 13.1556   2
   8   8   6 94.4634 13.6351   6
   0  -9  -6 10.0771 4.08225   4
   0   9   6 3.15151 4.33265   1
  -1  -9  -6 466.012 28.3314   4
   1   9   6 504.130 32.4384   1
   2   9   6 53.8379 11.7123   6
   2   9   6 55.0564 13.8136   1
   3   9   6 4.46890 5.57642   1
   3   9   6 5.98778 5.44815   6
   4   9   6 301.032 27.5388   1
   4   9   6 393.725 27.7556   6
   5   9   6 13.7473 5.46898   6
   5   9   6 2.02425 5.41547   1
  -6  -9  -6 694.627 27.6129   2
   6   9   6 722.099 36.8621   6
   6   9   6 639.654 40.6785   1
   7   9   6 235.517 17.3039   2
   7   9   6 261.783 22.0717   6
   2  10   6 -1.1358 5.28723   1
   3  10   6 7.38657 5.31430   6
   3  10   6 5.75549 5.92289   1
   4  10   6 63.2463 15.1867   6
   5  10   6 345.044 33.5677   1
   5  10   6 424.818 30.4403   6
   3   9  -7 10.7826 5.05544   6
  -3  -9   7 21.7672 5.98299   3
   2   9  -7 389.297 31.0210   6
  -2  -9   7 436.139 22.0170   3
   1   9  -7 184.472 21.5927   6
   5   8  -7 40.6747 11.7475   6
  -5  -8   7 15.1047 6.52669   5
   4   8  -7 19.3492 7.73760   6
  -4  -8   7 20.0829 6.09356   3
   3   8  -7 763.105 43.9526   6
  -3  -8   7 918.995 36.4580   3
   2   8  -7 -2.1143 4.30480   6
  -2  -8   7 7.27362 3.82897   3
  -2  -8   7 9.92247 4.77335   7
   1   8  -7 72.2223 12.8838   7
   1   8  -7 48.1131 13.7042   6
   0   8  -7 7.62174 5.78004   7
   0   8  -7 5.32969 4.04314   6
  -1   8  -7 1.19343 4.04884   6
  -1   8  -7 -2.6012 4.09939   7
  -2   8  -7 500.634 31.2159   6
   6   7  -7 13.2163 5.52764   2
   6   7  -7 8.69639 3.63795   1
   6   7  -7 12.5694 6.95212   3
  -6  -7   7 3.62747 5.40129   5
   5   7  -7 18.0418 5.94223   3
   5   7  -7 24.4823 5.41061   2
  -5  -7   7 23.9748 6.80977   5
  -5  -7   7 24.9997 7.41420   3
   4   7  -7 781.213 29.3415   2
   4   7  -7 790.653 38.1262   3
   4   7  -7 840.929 30.9830   2
  -4  -7   7 814.488 36.8618   3
   3   7  -7 143.322 15.8873   7
   3   7  -7 126.240 16.1351   6
  -3  -7   7 148.218 12.6598   3
   2   7  -7 142.875 16.0809   6
   2   7  -7 165.386 15.4415   7
  -2  -7   7 154.198 11.2878   3
   1   7  -7 2.46390 3.03532   6
   1   7  -7 4.67568 3.43066   7
  -1  -7   7 10.4717 4.48407   7
   0   7  -7 49.2149 9.41638   6
   0   7  -7 56.1161 9.77932   7
   0  -7   7 88.5265 11.8327   7
   0  -7   7 59.3972 12.6067   4
  -1   7  -7 1136.22 48.5435   6
  -1   7  -7 1116.58 50.4965   7
  -2   7  -7 6.95599 4.42416   7
  -2   7  -7 7.96065 4.55903   6
  -3   7  -7 295.697 25.1324   7
  -3   7  -7 308.260 21.5663   6
   7   6  -7 -2.0797 4.23162   1
   7   6  -7 -1.0658 5.06336   3
   7   6  -7 9.70380 5.38877   2
  -7  -6   7 2.24300 4.94867   5
   6   6  -7 96.1729 11.3654   1
   6   6  -7 96.4033 14.3296   3
   6   6  -7 73.7565 12.1504   2
  -6  -6   7 93.1230 13.6121   5
   5   6  -7 1418.86 59.4282   3
   5   6  -7 1526.91 49.1899   1
   5   6  -7 1608.08 54.3752   2
  -5  -6   7 1505.97 59.2203   5
  -5  -6   7 1535.58 57.4710   3
   4   6  -7 18.0850 5.61738   3
   4   6  -7 12.8895 3.88470   2
  -4  -6   7 18.2099 4.72916   3
   3   6  -7 943.897 39.7266   3
   3   6  -7 956.811 33.5245   2
   3   6  -7 995.687 39.4019   7
  -3  -6   7 991.472 38.2777   3
   2   6  -7 -4.8262 1.93089   7
   2   6  -7 4.49847 2.41984   3
  -2  -6   7 1.05186 1.80656   3
   1   6  -7 0.09300 2.22639   7
  -1  -6   7 0.31183 1.99507   7
  -1  -6   7 1.03515 1.91703   3
   0   6  -7 1240.48 49.9340   6
   0   6  -7 1287.66 50.9146   7
  -1   6  -7 220.169 18.2255   7
  -1   6  -7 187.529 15.7343   6
   1  -6   7 207.568 19.3177   4
  -2   6  -7 241.802 17.5756   6
  -2   6  -7 222.852 19.3224   7
   2  -6   7 234.414 12.7511   2
   2  -6   7 249.531 21.9691   4
  -3   6  -7 2.64304 3.24407   7
  -3   6  -7 1.87710 3.54461   6
   3  -6   7 1.64894 2.05711   1
   3  -6   7 0.06613 2.39122   2
  -4   6  -7 24.9077 9.39287   7
   4  -6   7 35.6450 8.87309   1
   4  -6   7 16.9570 5.05830   2
   7   5  -7 115.828 17.4003   3
   7   5  -7 144.384 15.7841   1
   7   5  -7 111.073 16.2466   2
  -7  -5   7 171.043 18.5983   5
   6   5  -7 493.732 25.6814   1
   6   5  -7 424.646 29.8618   3
   6   5  -7 505.576 28.1033   2
  -6  -5   7 516.938 30.6654   5
   5   5  -7 3.89467 3.37280   3
   5   5  -7 5.85775 2.72214   2
  -5  -5   7 6.65495 3.94502   3
  -5  -5   7 5.18616 3.83130   5
   4   5  -7 525.299 21.1354   1
   4   5  -7 543.682 23.0768   7
  -4  -5   7 530.215 29.0454   5
  -4  -5   7 499.388 25.8669   3
   3   5  -7 5.08008 2.59434   7
   3   5  -7 4.08802 3.17072   3
  -3  -5   7 6.43841 2.72051   3
   2   5  -7 379.614 16.8214   2
   2   5  -7 338.165 18.6007   3
   2   5  -7 342.416 19.3504   7
  -2  -5   7 334.996 17.7843   3
   1   5  -7 1934.09 65.4148   7
   1   5  -7 2017.33 58.1197   2
   1   5  -7 1938.31 59.8467   3
  -1  -5   7 2007.17 58.8338   3
   0   5  -7 -1.2562 1.74165   7
   0   5  -7 0.82988 1.40162   2
   0   5  -7 -0.8724 1.50566   6
  -1   5  -7 952.235 41.0526   7
  -1   5  -7 928.755 31.7127   2
  -1   5  -7 953.735 38.3828   6
   1  -5   7 904.004 41.5204   4
  -2   5  -7 13.8099 4.12217   7
  -2   5  -7 12.1422 4.36691   6
  -2   5  -7 8.23270 2.67396   2
   2  -5   7 16.0406 4.13353   2
  -3   5  -7 47.5751 10.0778   2
  -3   5  -7 38.7656 7.71239   6
  -3   5  -7 50.3644 9.41302   7
   3  -5   7 45.3559 6.69714   1
   3  -5   7 42.0353 6.51619   2
  -4   5  -7 774.742 32.2943   2
  -4   5  -7 804.583 38.9462   7
   4  -5   7 765.569 32.1411   2
   4  -5   7 728.752 39.2285   5
   4  -5   7 792.856 32.9577   1
  -5   5  -7 277.853 22.6791   7
   5  -5   7 263.654 18.1253   2
   5  -5   7 302.229 19.4712   1
   7   4  -7 561.343 36.0940   3
   7   4  -7 613.902 32.3512   1
   7   4  -7 636.649 35.1099   2
  -7  -4   7 587.498 35.8456   5
   6   4  -7 18.8337 5.82745   2
   6   4  -7 15.1893 5.44206   3
  -6  -4   7 22.1976 7.04735   3
  -6  -4   7 32.2709 8.28938   5
   5   4  -7 1282.45 46.0560   1
   5   4  -7 1328.21 52.3678   2
   5   4  -7 1224.28 52.0999   3
  -5  -4   7 1286.14 50.3615   3
  -5  -4   7 1305.47 52.7678   5
   4   4  -7 9.08079 3.51383   7
   4   4  -7 14.1906 4.56224   3
  -4  -4   7 9.91431 3.58790   3
  -4  -4   7 37.1531 8.30617   5
   3   4  -7 43.5702 6.79166   3
   3   4  -7 49.9528 5.35069   1
   3   4  -7 61.3469 6.78878   7
  -3  -4   7 58.9612 7.43861   3
   2   4  -7 1309.43 45.0623   7
   2   4  -7 1301.49 45.4172   3
  -2  -4   7 1342.08 43.9413   3
   1   4  -7 293.330 15.0312   3
   1   4  -7 310.828 17.6954   7
   1   4  -7 306.533 14.9496   2
  -1  -4   7 287.617 14.2865   3
   0   4  -7 1331.91 48.3169   7
   0   4  -7 1400.43 43.3114   2
  -1   4  -7 171.595 10.7464   2
  -1   4  -7 180.278 12.8620   6
  -1   4  -7 195.413 15.0537   7
   1  -4   7 194.432 15.7097   4
  -2   4  -7 139.238 10.1671   2
  -2   4  -7 150.502 13.3424   7
  -2   4  -7 138.652 10.6831   6
   2  -4   7 130.200 13.6049   4
   2  -4   7 139.544 9.83611   2
  -3   4  -7 1607.16 53.8169   2
  -3   4  -7 1706.01 60.3833   7
  -3   4  -7 1564.08 51.0174   6
   3  -4   7 1547.15 61.5671   4
   3  -4   7 1612.87 52.1764   2
   3  -4   7 1578.47 50.5864   1
  -4   4  -7 79.3694 11.0516   7
  -4   4  -7 80.6315 8.89899   2
   4  -4   7 88.2343 9.06664   2
  -5   4  -7 392.473 24.8567   7
   5  -4   7 367.763 21.7982   2
   5  -4   7 426.088 23.5293   1
  -6   4  -7 334.180 23.7875   7
  -6   4  -7 319.954 21.5111   2
   6  -4   7 263.515 22.8052   1
   6  -4   7 334.270 21.8774   2
   7   3  -7 176.771 23.1237   3
   7   3  -7 267.847 22.8595   2
   7   3  -7 245.779 21.5047   1
  -7  -3   7 250.847 22.9559   5
  -7  -3   7 222.164 22.2898   4
   6   3  -7 239.451 20.6275   3
   6   3  -7 275.036 20.1819   2
  -6  -3   7 242.279 20.6142   5
  -6  -3   7 229.068 19.3913   3
   5   3  -7 3.17231 2.53999   3
   5   3  -7 -0.6142 1.86174   1
  -5  -3   7 1.62326 1.72242   3
  -5  -3   7 3.43967 2.36109   5
   4   3  -7 224.252 14.1119   1
   4   3  -7 208.328 16.4349   3
  -4  -3   7 210.594 17.0096   5
  -4  -3   7 198.397 15.3797   3
   3   3  -7 2434.96 69.4410   1
   3   3  -7 2354.21 75.4938   3
   3   3  -7 2379.83 74.5709   7
  -3  -3   7 2409.42 74.4504   3
   2   3  -7 99.8627 6.59158   1
   2   3  -7 87.9075 8.54719   3
   2   3  -7 97.6009 8.43652   7
  -2  -3   7 106.687 8.90737   3
   1   3  -7 4067.77 116.744   7
   1   3  -7 4526.65 116.062   2
   1   3  -7 4175.53 115.138   3
  -1  -3   7 4089.33 114.211   3
   0   3  -7 96.4392 6.59715   3
   0   3  -7 100.040 9.27586   7
   0   3  -7 101.863 8.06522   2
   0  -3   7 93.9708 6.60332   3
  -1   3  -7 76.2832 8.45376   7
  -1   3  -7 69.5444 6.63011   2
   1  -3   7 69.1629 6.55912   2
   1  -3   7 70.5342 8.47138   4
  -2   3  -7 1655.88 49.8981   6
  -2   3  -7 1709.72 51.2649   2
  -2   3  -7 1549.46 54.5582   7
   2  -3   7 1609.72 49.8334   2
   2  -3   7 1437.57 55.3050   4
  -3   3  -7 72.0359 8.36638   6
  -3   3  -7 90.7126 10.1730   7
  -3   3  -7 113.366 9.43505   2
   3  -3   7 86.4720 10.8473   4
   3  -3   7 98.7295 8.75452   2
  -4   3  -7 1128.98 41.8513   2
  -4   3  -7 1160.07 45.0658   7
   4  -3   7 1098.83 41.0941   2
   4  -3   7 1106.07 48.7959   4
  -5   3  -7 72.3011 9.57489   7
  -5   3  -7 61.1129 9.56469   4
  -5   3  -7 42.6320 7.19063   2
   5  -3   7 85.2174 14.5878   2
  -6   3  -7 17.7209 5.67574   2
  -6   3  -7 14.4300 5.28993   7
  -6   3  -7 10.2557 4.21014   4
   6  -3   7 29.3084 7.03811   2
  -7   3  -7 697.590 34.8517   7
  -7   3  -7 589.003 36.0323   4
   7  -3   7 620.800 33.8837   2
   7   2  -7 933.988 64.4672   2
   7   2  -7 817.162 47.0510   3
  -7  -2   7 870.471 43.1043   4
  -7  -2   7 923.825 48.0161   5
   6   2  -7 -2.2050 3.15499   3
   6   2  -7 -3.8508 2.56733   1
   6   2  -7 -2.1920 2.23445   2
  -6  -2   7 0.42982 3.28449   4
  -6  -2   7 1.36503 4.37921   3
  -6  -2   7 -0.1147 3.85957   5
   5   2  -7 51.6520 9.75210   3
   5   2  -7 39.7348 7.83742   1
  -5  -2   7 41.9414 9.13105   5
   4   2  -7 975.875 41.6168   3
   4   2  -7 1057.37 39.5620   1
  -4  -2   7 1096.63 44.3923   5
  -4  -2   7 996.529 41.0872   3
   3   2  -7 223.067 15.6207   3
   3   2  -7 251.061 14.0870   1
  -3  -2   7 243.325 15.6838   3
  -3  -2   7 251.517 17.6103   5
   2   2  -7 2396.42 72.7474   3
   2   2  -7 2516.18 73.4677   7
   2   2  -7 2347.82 68.4401   1
  -2  -2   7 2327.21 71.8785   3
   1   2  -7 354.005 16.7156   3
   1   2  -7 343.895 16.7675   7
   1   2  -7 347.194 14.4985   1
  -1  -2   7 360.391 16.5416   3
   0   2  -7 420.535 17.2264   3
   0   2  -7 449.938 20.6756   7
   0   2  -7 482.315 20.0130   2
   0  -2   7 478.376 17.5873   3
  -1   2  -7 1680.53 50.6142   2
  -1   2  -7 1585.12 52.4686   7
   1  -2   7 1488.01 51.5887   4
   1  -2   7 1708.04 49.7745   2
  -2   2  -7 143.739 11.5297   7
  -2   2  -7 163.927 10.8358   2
  -2   2  -7 162.173 9.20916   6
   2  -2   7 153.059 12.4015   4
   2  -2   7 163.887 10.3828   2
  -3   2  -7 2853.99 78.6956   6
  -3   2  -7 2975.39 89.0358   7
  -3   2  -7 2882.47 88.1380   4
  -3   2  -7 3041.83 86.4335   2
   3  -2   7 2965.55 91.4827   4
   3  -2   7 2955.64 85.5484   2
  -4   2  -7 399.104 20.7494   2
  -4   2  -7 367.523 21.0655   7
  -4   2  -7 365.014 21.3647   4
   4  -2   7 389.643 20.2805   2
   4  -2   7 380.087 23.8902   4
  -5   2  -7 1.89096 2.14706   4
  -5   2  -7 1.50309 1.98944   2
  -5   2  -7 1.11889 1.84748   7
   5  -2   7 0.70718 1.83767   2
  -6   2  -7 383.623 23.8292   2
  -6   2  -7 402.334 23.3053   7
  -6   2  -7 395.980 25.6306   4
   6  -2   7 391.513 23.1154   2
   6  -2   7 372.680 27.7538   4
  -7   2  -7 54.5696 11.5175   4
  -7   2  -7 74.1767 9.90395   7
   7  -2   7 68.8934 11.0763   2
   7   1  -7 0.63584 4.25124   3
   7   1  -7 -4.6702 2.74657   2
  -7  -1   7 -1.1205 4.24293   5
  -7  -1   7 -2.0664 3.73267   4
   6   1  -7 34.3578 8.62828   3
   6   1  -7 37.0642 9.59349   2
   6   1  -7 45.2893 10.0155   1
  -6  -1   7 47.9042 10.8384   5
  -6  -1   7 48.9936 10.0283   4
  -6  -1   7 45.2264 9.31111   3
   5   1  -7 741.894 36.5763   3
   5   1  -7 628.827 32.6309   1
  -5  -1   7 803.434 38.1695   5
  -5  -1   7 826.347 34.5877   4
   4   1  -7 397.675 23.3499   3
   4   1  -7 374.664 21.1365   1
  -4  -1   7 381.934 27.0156   3
  -4  -1   7 412.784 24.4612   5
  -4  -1   7 390.984 20.8383   4
   3   1  -7 3417.85 100.762   3
   3   1  -7 3382.37 98.0535   1
  -3  -1   7 3414.90 99.8834   3
  -3  -1   7 3354.47 102.574   5
   2   1  -7 143.197 10.2732   1
   2   1  -7 166.918 12.0126   3
  -2  -1   7 155.369 11.1207   3
   1   1  -7 5.40251 2.07750   3
   1   1  -7 10.5799 2.53748   1
  -1  -1   7 5.03243 1.97685   3
  -1  -1   7 3.66221 1.49530   1
   0   1  -7 495.691 21.1197   2
   0   1  -7 502.537 19.3989   3
   0  -1   7 497.219 18.8232   1
   0  -1   7 491.675 18.9041   4
  -1   1  -7 159.027 10.5082   2
  -1   1  -7 145.925 7.88792   3
   1  -1   7 144.025 9.59196   4
   1  -1   7 164.538 10.2514   2
  -2   1  -7 3770.10 103.486   2
  -2   1  -7 3666.75 102.466   4
   2  -1   7 3710.24 104.539   4
   2  -1   7 3671.38 102.297   2
  -3   1  -7 17.7698 4.40902   4
  -3   1  -7 21.1534 4.75150   2
  -3   1  -7 11.3502 3.34573   7
   3  -1   7 20.3326 4.02991   2
   3  -1   7 15.2854 4.63148   4
  -4   1  -7 34.5895 6.02237   4
  -4   1  -7 34.1387 6.31825   7
  -4   1  -7 34.4501 5.54078   2
   4  -1   7 30.5464 5.56696   2
   4  -1   7 27.5344 6.08704   4
  -5   1  -7 1741.11 59.0566   7
  -5   1  -7 1720.95 61.0526   4
  -5   1  -7 1726.41 59.7074   2
   5  -1   7 1808.55 66.0048   4
   5  -1   7 1784.21 59.7836   2
  -6   1  -7 -1.6712 1.49416   4
  -6   1  -7 0.80670 1.80871   7
   6  -1   7 1.61316 2.64423   5
   6  -1   7 1.97102 2.07065   2
   6  -1   7 -1.6301 1.59865   4
  -7   1  -7 1132.61 49.9044   4
  -7   1  -7 1158.20 44.5444   7
  -7   1  -7 1047.59 45.9377   2
   7  -1   7 1056.47 46.7007   2
   7  -1   7 1208.25 75.3822   5
  -8   1  -7 241.959 22.3992   4
  -8   1  -7 304.810 19.6914   7
   8  -1   7 286.155 23.1698   2
   7   0  -7 16.3667 6.31690   2
   7   0  -7 9.39171 6.42999   3
  -7   0   7 25.0677 8.05913   5
  -7   0   7 13.6088 5.13981   4
   6   0  -7 42.0382 10.6785   3
   6   0  -7 69.8086 10.1827   2
   6   0  -7 71.7818 10.0349   1
  -6   0   7 39.9435 11.6062   5
  -6   0   7 47.4970 9.70711   4
   5   0  -7 525.993 29.7078   3
  -5   0   7 548.459 26.5542   4
  -5   0   7 498.765 29.7497   5
   4   0  -7 1416.16 52.9179   3
   4   0  -7 1391.39 51.7704   1
  -4   0   7 1405.90 47.4047   4
  -4   0   7 1391.28 57.0602   3
  -4   0   7 1393.86 53.6049   5
   3   0  -7 21.2370 5.43865   3
   3   0  -7 27.5437 6.05484   1
  -3   0   7 30.2902 5.94265   3
  -3   0   7 21.7321 6.20330   5
  -3   0   7 33.4782 4.13398   4
   2   0  -7 78.5042 8.02907   3
   2   0  -7 69.2086 7.67497   1
  -2   0   7 63.5733 7.67113   1
  -2   0   7 84.5935 8.96713   5
  -2   0   7 61.7618 7.14048   3
   1   0  -7 2220.24 69.2712   1
   1   0  -7 2322.56 68.5557   3
  -1   0   7 2289.32 67.6753   3
  -1   0   7 2309.52 68.1950   1
   0   0  -7 281.114 14.9524   2
   0   0  -7 277.091 13.6217   3
   0   0   7 285.549 14.4801   1
  -1   0  -7 6804.31 173.692   3
  -1   0  -7 6709.37 178.685   2
   1   0   7 6738.41 177.102   1
   1   0   7 6743.65 174.086   4
  -2   0  -7 655.931 23.6178   4
  -2   0  -7 662.362 25.8602   2
   2   0   7 642.403 24.8797   4
   2   0   7 686.502 25.5437   2
  -3   0  -7 5.68260 2.15445   2
  -3   0  -7 6.53281 1.65394   3
  -3   0  -7 4.40562 1.56836   4
   3   0   7 6.84671 2.54524   2
   3   0   7 4.88410 2.11945   4
  -4   0  -7 86.6027 8.77946   2
  -4   0  -7 98.3193 9.30316   4
   4   0   7 105.416 9.59738   2
   4   0   7 93.4663 10.2331   4
  -5   0  -7 0.56733 2.02445   4
  -5   0  -7 -2.0747 1.42154   7
  -5   0  -7 1.50347 1.88045   2
   5   0   7 3.52767 2.38912   2
  -6   0  -7 1562.56 58.0047   4
  -6   0  -7 1584.02 54.1229   7
   6   0   7 1520.13 56.2630   2
  -7   0  -7 285.734 21.7856   4
  -7   0  -7 258.681 20.1716   2
  -7   0  -7 263.615 15.4467   3
  -7   0  -7 303.601 18.7364   7
   7   0   7 305.697 21.0892   2
   7   0   7 284.591 22.3118   5
  -8   0  -7 -3.0020 2.72868   7
  -8   0  -7 -2.4182 5.45297   4
   8   0   7 0.19991 3.98377   2
   7  -1  -7 23.6831 6.93033   3
  -7   1   7 21.9947 6.99977   4
   6  -1  -7 240.917 20.5599   2
   6  -1  -7 217.965 20.4579   3
  -6   1   7 225.255 21.3936   5
  -6   1   7 266.001 18.7256   4
   5  -1  -7 1663.40 63.9885   1
   5  -1  -7 1651.98 61.2546   2
   5  -1  -7 1549.94 61.4210   3
  -5   1   7 1678.61 64.3488   5
  -5   1   7 1636.87 56.5858   4
  -5   1   7 1621.16 60.5699   3
   4  -1  -7 2.25773 2.65312   3
   4  -1  -7 2.65801 1.45591   7
   4  -1  -7 4.09201 2.05025   1
  -4   1   7 2.86845 1.84338   4
  -4   1   7 6.14502 2.56796   3
  -4   1   7 1.08106 2.80318   5
   3  -1  -7 1.88778 1.86796   1
   3  -1  -7 2.60037 2.04237   3
  -3   1   7 0.73845 1.33880   4
  -3   1   7 0.74826 2.08800   5
  -3   1   7 2.52054 1.71189   3
   2  -1  -7 464.154 23.1912   3
   2  -1  -7 485.631 24.2371   1
  -2   1   7 490.787 23.8359   5
  -2   1   7 423.009 22.8535   1
   1  -1  -7 571.160 24.5879   3
   1  -1  -7 574.192 26.9317   1
  -1   1   7 619.023 26.3131   1
  -1   1   7 606.025 26.0888   5
   0  -1  -7 3280.12 92.5088   1
   0  -1  -7 3035.00 87.1582   3
   0   1   7 3181.04 91.3031   1
  -1  -1  -7 464.453 20.5270   2
   1   1   7 481.832 21.3632   1
  -2  -1  -7 258.266 11.8402   4
  -2  -1  -7 265.703 14.2502   2
   2   1   7 277.216 14.1291   2
  -3  -1  -7 1127.85 37.7699   4
  -3  -1  -7 1158.50 39.6583   2
   3   1   7 1157.39 39.3979   2
  -4  -1  -7 73.8312 6.37260   3
  -4  -1  -7 70.5770 7.52847   4
  -4  -1  -7 73.5029 10.8511   2
   4   1   7 73.2878 7.91146   2
  -5  -1  -7 4180.14 122.519   2
  -5  -1  -7 4237.30 116.604   3
  -5  -1  -7 4317.43 123.570   4
   5   1   7 4374.35 123.077   2
  -6  -1  -7 562.735 23.8867   3
  -6  -1  -7 540.354 29.0833   4
  -6  -1  -7 548.647 26.6389   7
   6   1   7 558.771 30.4120   2
   6   1   7 583.214 29.3042   5
  -7  -1  -7 64.1896 8.84628   7
  -7  -1  -7 52.5846 7.80488   3
  -7  -1  -7 56.7941 9.36933   4
   7   1   7 44.7690 9.10522   2
  -8  -1  -7 10.7082 3.98709   7
  -8  -1  -7 13.7008 4.93769   4
  -8  -1  -7 7.78243 4.51039   3
   8   1   7 40.6901 10.1392   2
   8   1   7 13.7830 5.85220   5
   9   1   7 4.22273 7.34815   2
   6  -2  -7 530.438 33.4987   3
   6  -2  -7 565.651 48.6077   2
  -6   2   7 596.768 30.5676   4
   5  -2  -7 0.45797 2.87405   2
   5  -2  -7 2.59994 3.20507   1
   5  -2  -7 -5.5523 2.57239   3
  -5   2   7 8.32422 3.28843   4
  -5   2   7 8.94181 4.84692   5
   4  -2  -7 -0.8660 1.31071   7
   4  -2  -7 1.15324 2.48226   3
  -4   2   7 1.23676 1.55057   4
  -4   2   7 1.87700 3.24745   5
   3  -2  -7 329.466 21.6684   1
   3  -2  -7 329.793 20.8200   3
  -3   2   7 339.936 21.1752   5
   2  -2  -7 691.410 32.5326   1
   2  -2  -7 705.991 30.6971   3
  -2   2   7 679.422 29.9006   5
  -2   2   7 634.466 31.1401   1
   1  -2  -7 4633.53 133.801   1
   1  -2  -7 4608.32 127.215   3
  -1   2   7 4560.83 131.068   1
  -1   2   7 4632.34 128.205   5
   0  -2  -7 113.806 8.53235   3
   0  -2  -7 117.690 10.9906   1
   0   2   7 125.215 10.9139   1
  -1  -2  -7 3.05431 1.85201   2
  -1  -2  -7 1.69993 1.01143   6
   1   2   7 5.53690 2.21634   1
  -2  -2  -7 172.637 8.96132   4
  -2  -2  -7 157.865 9.25420   6
  -2  -2  -7 162.185 10.8187   2
   2   2   7 168.615 10.7968   2
  -3  -2  -7 2327.31 69.2554   2
  -3  -2  -7 2281.29 63.1141   6
  -3  -2  -7 2345.62 67.6953   4
   3   2   7 2303.04 68.9652   2
  -4  -2  -7 3041.62 94.2383   2
  -4  -2  -7 3052.91 87.0018   3
  -4  -2  -7 3086.32 89.5953   4
   4   2   7 3020.41 89.1212   2
  -5  -2  -7 36.3408 6.68319   4
  -5  -2  -7 42.2775 6.23201   3
  -5  -2  -7 50.0292 6.72053   2
   5   2   7 45.8318 6.82161   2
   5   2   7 44.5112 6.56421   5
  -6  -2  -7 179.696 20.3001   3
  -6  -2  -7 176.273 15.2891   4
   6   2   7 194.758 15.3176   2
   6   2   7 196.617 15.1087   5
  -7  -2  -7 350.309 19.9640   3
  -7  -2  -7 349.339 23.7387   4
  -7  -2  -7 340.319 20.2276   7
   7   2   7 356.590 22.9249   2
   7   2   7 343.638 22.0501   5
  -8  -2  -7 -1.1961 3.53359   4
  -8  -2  -7 5.39272 2.90971   3
  -8  -2  -7 5.34742 3.22151   7
   8   2   7 4.58181 3.87682   2
   8   2   7 5.11262 4.64103   5
  -9  -2  -7 939.933 48.0316   4
  -9  -2  -7 964.038 37.1144   7
  -9  -2  -7 928.662 41.7565   3
   9   2   7 1019.32 48.0954   2
   6  -3  -7 8.23375 5.48970   3
   6  -3  -7 -2.6076 4.01665   2
  -6   3   7 -0.9767 4.30162   5
   5  -3  -7 0.04584 1.97220   7
   5  -3  -7 -1.6092 2.11895   2
   5  -3  -7 -1.7134 3.08868   3
  -5   3   7 0.84754 4.43051   5
   4  -3  -7 35.2630 7.73299   3
   4  -3  -7 25.1125 5.49941   7
   4  -3  -7 10.8202 7.06959   6
  -4   3   7 17.5876 6.35565   5
   3  -3  -7 1102.51 45.5243   6
   3  -3  -7 1106.96 54.5581   3
   3  -3  -7 1011.02 43.0212   7
  -3   3   7 1090.55 44.5400   5
   2  -3  -7 1779.83 62.2780   6
   2  -3  -7 1869.34 66.8643   1
   2  -3  -7 1866.99 61.3863   3
  -2   3   7 1717.95 59.7917   5
  -2   3   7 1665.95 63.1082   1
   1  -3  -7 29.4145 7.03149   1
   1  -3  -7 19.3524 4.92876   3
   1  -3  -7 19.9338 5.12940   6
  -1   3   7 20.6864 4.92252   5
  -1   3   7 29.4983 6.77300   1
   0  -3  -7 334.863 18.7346   6
   0  -3  -7 384.210 22.3183   1
   0   3   7 363.321 17.4452   5
   0   3   7 380.149 21.6215   1
  -1  -3  -7 316.715 16.8718   6
  -1  -3  -7 325.866 16.8326   2
   1   3   7 339.294 20.4757   1
  -2  -3  -7 365.433 17.3353   6
  -2  -3  -7 399.280 18.3613   2
   2   3   7 422.403 21.8477   1
  -3  -3  -7 3468.55 96.5676   6
  -3  -3  -7 3530.89 99.7474   2
   3   3   7 3637.90 99.8506   2
  -4  -3  -7 240.906 15.2902   4
  -4  -3  -7 242.161 14.4975   3
  -4  -3  -7 243.776 14.8262   2
   4   3   7 241.211 14.6633   2
   4   3   7 248.482 11.6093   6
  -5  -3  -7 170.637 13.7643   4
  -5  -3  -7 172.200 13.1085   2
   5   3   7 161.847 11.4498   5
   5   3   7 170.266 12.9608   2
   5   3   7 168.423 8.69202   6
  -6  -3  -7 -0.5365 1.58091   2
  -6  -3  -7 0.65156 2.06387   3
  -6  -3  -7 3.56396 2.75690   4
   6   3   7 -3.1797 2.20589   5
   6   3   7 -2.8015 1.29258   2
  -7  -3  -7 131.093 14.9072   4
  -7  -3  -7 113.853 11.9512   2
  -7  -3  -7 148.133 13.1380   3
   7   3   7 144.612 12.9033   5
   7   3   7 146.486 14.1914   2
  -8  -3  -7 948.303 46.2273   4
  -8  -3  -7 957.694 38.3355   7
   8   3   7 961.462 44.1557   2
  -9  -3  -7 24.7134 7.03582   3
  -9  -3  -7 20.3111 5.38374   7
  -9  -3  -7 25.1831 7.81498   4
   9   3   7 19.4267 9.50810   5
   9   3   7 23.8538 8.01256   2
   5  -4  -7 -8.3313 3.04335   2
   5  -4  -7 0.32147 2.30843   7
   5  -4  -7 -4.6597 3.59814   3
  -5   4   7 -3.4171 8.55999   5
   4  -4  -7 601.412 31.1602   2
   4  -4  -7 675.360 34.7399   3
   4  -4  -7 640.313 28.4588   7
   4  -4  -7 608.600 34.4591   6
  -4   4   7 572.796 33.3917   5
   3  -4  -7 1836.33 61.1042   7
   3  -4  -7 1915.46 68.4194   6
   3  -4  -7 1837.51 67.0950   3
  -3   4   7 1751.73 65.1543   5
   2  -4  -7 221.626 12.8732   4
   2  -4  -7 257.699 17.5202   3
  -2   4   7 227.396 15.9408   5
   1  -4  -7 94.5437 9.53477   3
   1  -4  -7 92.1999 10.4957   6
   1  -4  -7 89.1930 12.1973   1
  -1   4   7 87.8705 11.2162   1
  -1   4   7 102.924 9.64592   5
   0  -4  -7 63.4963 9.83549   1
   0  -4  -7 52.8095 7.63820   6
   0   4   7 82.1021 10.6051   1
   0   4   7 69.9595 7.30324   5
  -1  -4  -7 1628.81 52.9721   2
  -1  -4  -7 1641.77 55.0938   6
   1   4   7 1657.93 49.6899   5
   1   4   7 1718.72 61.0064   1
  -2  -4  -7 2841.62 81.3173   2
  -2  -4  -7 2793.18 83.1069   6
   2   4   7 2924.26 90.0857   1
   2   4   7 2751.92 76.5924   5
  -3  -4  -7 1.15966 1.63002   2
  -3  -4  -7 0.03495 1.07744   6
   3   4   7 0.24585 1.29361   2
   3   4   7 1.10198 1.16093   6
  -4  -4  -7 901.984 33.9531   2
  -4  -4  -7 894.128 35.2786   3
   4   4   7 880.911 31.7640   6
   4   4   7 945.607 34.3635   2
  -5  -4  -7 267.542 17.0226   3
  -5  -4  -7 242.147 15.7396   2
   5   4   7 240.097 15.5511   2
   5   4   7 237.443 12.9402   6
   5   4   7 263.870 13.2563   5
  -6  -4  -7 23.2309 6.07028   3
  -6  -4  -7 9.62251 3.77000   4
  -6  -4  -7 12.3288 3.32495   2
   6   4   7 32.4569 6.54347   2
   6   4   7 24.8410 5.56245   5
   6   4   7 19.1579 4.05898   6
  -7  -4  -7 1533.51 56.7370   2
  -7  -4  -7 1543.06 60.8598   4
   7   4   7 1491.86 54.2740   6
   7   4   7 1549.82 53.1604   5
   7   4   7 1560.67 57.1235   2
  -8  -4  -7 168.346 15.9129   3
  -8  -4  -7 177.778 19.6998   2
  -8  -4  -7 168.283 18.6693   4
   8   4   7 172.192 13.6919   5
   8   4   7 176.015 16.9699   2
  -9  -4  -7 67.5316 11.2756   7
  -9  -4  -7 96.9021 15.9747   4
   9   4   7 94.9319 13.2181   5
   9   4   7 63.8604 12.9071   2
   4  -5  -7 349.913 21.5480   7
   4  -5  -7 385.770 27.0177   3
   4  -5  -7 345.687 22.9306   2
  -4   5   7 362.378 26.2218   5
   3  -5  -7 114.526 14.3002   6
   3  -5  -7 129.832 17.3295   1
   3  -5  -7 147.806 15.0996   3
   3  -5  -7 119.310 11.9270   7
   3  -5  -7 113.905 11.4671   4
  -3   5   7 132.005 14.4233   5
   2  -5  -7 526.572 33.4694   1
   2  -5  -7 506.098 23.3211   4
   2  -5  -7 518.052 31.6814   6
   2  -5  -7 494.497 25.8669   7
   2  -5  -7 532.969 27.9165   3
  -2   5   7 499.063 26.4991   5
  -2   5   7 490.720 30.5470   1
   1  -5  -7 14.8084 3.63840   4
   1  -5  -7 3.52891 3.29781   1
   1  -5  -7 5.69051 2.60730   3
  -1   5   7 9.10989 3.43655   5
   0  -5  -7 47.4184 7.18329   2
   0  -5  -7 45.2661 5.17383   4
   0  -5  -7 49.2389 8.22579   6
   0   5   7 36.6252 5.98837   5
   0   5   7 38.2856 8.40792   1
  -1  -5  -7 3885.92 107.551   2
  -1  -5  -7 3738.49 112.528   6
   1   5   7 3832.66 118.033   1
   1   5   7 3804.51 103.640   5
  -2  -5  -7 141.235 9.99295   2
  -2  -5  -7 135.641 11.8544   6
   2   5   7 131.031 11.6852   6
   2   5   7 143.699 14.5722   1
  -3  -5  -7 482.565 23.8559   6
  -3  -5  -7 465.893 20.7971   2
   3   5   7 504.962 27.7013   1
   3   5   7 463.112 23.0315   6
  -4  -5  -7 1.87681 1.78806   6
  -4  -5  -7 2.76528 1.34419   2
   4   5   7 0.65939 1.19565   2
   4   5   7 -0.2667 1.33035   6
  -5  -5  -7 695.588 29.5839   2
  -5  -5  -7 648.850 30.9513   3
   5   5   7 699.068 29.2398   2
   5   5   7 718.246 28.4483   6
  -6  -5  -7 1544.84 54.3014   2
   6   5   7 1565.30 50.4042   6
   6   5   7 1529.90 46.6876   5
   6   5   7 1472.20 53.2739   2
  -7  -5  -7 -0.6177 2.00899   2
  -7  -5  -7 3.23330 3.49185   3
  -7  -5  -7 2.31805 2.88116   4
   7   5   7 2.57368 1.83463   5
   7   5   7 1.14821 2.82503   2
   7   5   7 -0.6547 1.84346   6
  -8  -5  -7 322.108 22.5398   2
  -8  -5  -7 337.150 26.3994   4
  -8  -5  -7 366.693 24.2130   3
   8   5   7 375.816 21.0734   5
   8   5   7 370.658 18.2862   6
   8   5   7 350.251 23.6372   2
  -9  -5  -7 1.72004 5.82985   4
   9   5   7 0.17103 3.95517   2
   9   5   7 2.30541 2.82552   6
   4  -6  -7 62.7352 11.1832   2
   3  -6  -7 119.558 12.4282   2
   3  -6  -7 122.145 11.4216   4
   3  -6  -7 122.461 12.8418   7
   3  -6  -7 153.411 16.6788   3
   2  -6  -7 4.74288 4.10507   6
   2  -6  -7 2.50405 2.05745   4
   2  -6  -7 6.23526 3.19307   3
   2  -6  -7 1.21537 3.41961   1
  -2   6   7 3.00001 3.14445   1
  -2   6   7 1.20830 3.61986   5
   1  -6  -7 1032.52 50.5960   1
   1  -6  -7 1029.65 37.8963   4
   1  -6  -7 1045.54 43.3300   7
   1  -6  -7 1021.47 41.8452   3
  -1   6   7 1064.70 40.5929   5
  -1   6   7 1008.90 46.8954   1
   0  -6  -7 1207.00 40.9608   4
   0   6   7 1213.63 41.2381   5
   0   6   7 1100.20 49.3987   1
  -1  -6  -7 237.971 17.7484   6
  -1  -6  -7 232.671 13.5223   2
   1   6   7 219.644 16.0258   5
   1   6   7 233.796 19.6134   1
  -2  -6  -7 681.437 26.6912   2
  -2  -6  -7 706.508 32.5570   6
   2   6   7 701.076 37.3947   1
   2   6   7 687.955 32.4581   6
  -3  -6  -7 0.69821 1.53502   2
  -3  -6  -7 3.20249 2.14891   6
   3   6   7 0.49443 2.46284   1
   3   6   7 1.24951 1.88953   6
  -4  -6  -7 305.536 16.5543   2
  -4  -6  -7 293.914 18.4911   6
   4   6   7 303.799 16.7448   2
   4   6   7 286.527 18.1298   6
  -5  -6  -7 1514.17 51.2020   2
   5   6   7 1517.76 52.8738   6
   5   6   7 1485.39 50.8841   2
  -6  -6  -7 1.30745 2.48569   3
  -6  -6  -7 3.32470 2.71750   2
   6   6   7 1.64437 2.13545   2
  -7  -6  -7 390.134 22.5082   2
  -7  -6  -7 372.415 24.0059   3
   7   6   7 362.679 22.2876   2
   7   6   7 381.036 20.6677   6
  -8  -6  -7 0.23098 2.67747   2
  -8  -6  -7 -1.2943 4.05028   4
   8   6   7 -1.5359 3.28327   2
   8   6   7 1.29613 2.55736   6
  -9  -6  -7 13.8470 6.92771   4
   9   6   7 15.6987 5.92746   2
   9   6   7 16.5186 4.72636   6
   9   6   7 23.1503 5.90028   5
   3  -7  -7 7.43599 4.28134   4
   3  -7  -7 8.44527 4.57024   2
   2  -7  -7 64.7998 8.98972   2
   2  -7  -7 103.263 14.2061   3
   2  -7  -7 74.3817 9.99104   4
  -2   7   7 86.8785 14.6578   1
   1  -7  -7 400.974 25.3097   7
   1  -7  -7 375.797 21.1275   4
   1  -7  -7 373.727 23.6660   3
  -1   7   7 397.424 28.2269   1
   0  -7  -7 29.3308 6.28401   2
   0  -7  -7 21.5758 6.52458   4
   0  -7  -7 20.4719 6.13618   7
   0   7   7 33.8368 9.92939   1
  -1  -7  -7 269.692 15.2976   2
   1   7   7 286.365 23.4537   1
  -2  -7  -7 163.959 10.9128   2
   2   7   7 165.828 17.4324   1
   2   7   7 180.787 16.1571   6
  -3  -7  -7 733.276 27.6065   2
   3   7   7 725.686 34.5915   6
   3   7   7 705.546 39.4122   1
  -4  -7  -7 703.612 28.2089   2
   4   7   7 696.138 38.5645   1
   4   7   7 796.363 48.6986   6
  -5  -7  -7 93.4960 9.34357   2
   5   7   7 105.433 9.94236   2
   5   7   7 104.669 11.5268   6
  -6  -7  -7 561.687 30.7626   3
  -6  -7  -7 569.030 26.7661   2
   6   7   7 563.052 26.6011   2
   6   7   7 552.786 28.4161   6
  -7  -7  -7 -0.5418 2.57744   2
   7   7   7 0.60351 2.68751   2
   7   7   7 -5.8758 3.07203   6
  -8  -7  -7 57.3521 10.7382   2
   8   7   7 44.1782 10.5913   2
   8   7   7 42.4268 9.79657   6
   1  -8  -7 218.438 15.1234   2
   1  -8  -7 255.663 19.9776   3
   1  -8  -7 265.312 16.1930   2
   1  -8  -7 245.102 17.1510   4
  -1   8   7 245.155 24.0195   1
   0  -8  -7 632.586 25.4690   2
   0  -8  -7 570.095 28.5771   4
   0   8   7 560.425 35.5090   1
  -1  -8  -7 3.51940 3.07423   4
  -1  -8  -7 8.10480 2.96840   2
   1   8   7 2.38700 3.88753   1
  -2  -8  -7 35.1289 8.76737   7
  -2  -8  -7 13.0021 5.57223   6
   2   8   7 6.98917 4.06236   6
   2   8   7 5.66789 4.55861   1
  -3  -8  -7 461.716 20.1282   2
  -3  -8  -7 450.326 28.0372   6
   3   8   7 489.300 32.6111   1
   3   8   7 484.434 29.1175   6
  -4  -8  -7 56.7980 11.0504   3
  -4  -8  -7 80.7046 8.30291   2
   4   8   7 60.7218 12.4485   1
   4   8   7 77.4614 11.2963   6
  -5  -8  -7 281.009 15.8200   2
   5   8   7 243.330 23.2761   1
   5   8   7 282.511 20.9522   6
  -6  -8  -7 11.1718 3.83795   2
   6   8   7 3.62276 3.61400   2
   6   8   7 8.20968 4.18753   6
  -7  -8  -7 170.655 13.4872   2
   7   8   7 167.944 14.9217   2
   7   8   7 184.489 16.5684   6
  -8  -8  -7 329.764 21.7260   2
   8   8   7 286.323 21.8985   2
   8   8   7 329.908 23.2287   6
   0  -9  -7 6.65703 4.39676   4
   0   9   7 0.46409 4.18948   1
  -1  -9  -7 362.640 31.4464   4
   1   9   7 279.516 25.8205   1
   2   9   7 335.416 33.2117   6
   2   9   7 319.132 27.3602   1
   3   9   7 287.970 23.9983   6
   3   9   7 241.443 24.8946   1
   4   9   7 650.150 41.2116   1
   4   9   7 693.067 37.3362   6
   5   9   7 -2.9350 3.48347   6
   5   9   7 -0.4993 3.97450   1
  -6  -9  -7 -1.8474 3.03099   2
   6   9   7 7.97335 4.53533   6
   6   9   7 0.40152 6.98745   1
  -7  -9  -7 402.356 21.6584   2
   7   9   7 389.863 22.3145   2
   7   9   7 402.080 27.0691   6
   3  10   7 194.239 25.5172   6
   4  10   7 -1.1558 4.35046   6
   4  10   7 -3.4660 9.82969   1
   4   8  -8 12.2617 5.86851   6
  -4  -8   8 18.8280 6.04332   3
   3   8  -8 -0.0957 3.77823   6
  -3  -8   8 -4.5440 2.93658   3
   2   8  -8 86.7749 12.9994   7
   2   8  -8 89.6097 15.4378   6
   1   8  -8 136.379 17.7490   6
   1   8  -8 127.953 16.5035   7
   0   8  -8 625.427 39.1125   7
   0   8  -8 515.719 33.4396   6
  -1   8  -8 18.7158 6.28734   7
  -1   8  -8 22.6068 7.22475   6
   6   7  -8 236.890 23.5600   3
   6   7  -8 302.930 21.1543   2
   6   7  -8 272.894 17.2689   1
  -6  -7   8 294.353 25.0462   5
   5   7  -8 3.69991 5.30960   3
   5   7  -8 8.72578 4.92271   2
  -5  -7   8 13.7305 6.58964   5
   4   7  -8 2.84414 2.49810   2
   4   7  -8 2.44881 4.68575   2
   4   7  -8 5.59125 4.22003   3
  -4  -7   8 7.71633 4.22927   3
   3   7  -8 17.1997 5.17197   6
   3   7  -8 34.6930 8.51171   7
  -3  -7   8 22.6171 5.35736   3
   2   7  -8 371.645 27.3275   6
   2   7  -8 438.410 26.4533   7
  -2  -7   8 443.519 21.0790   3
   1   7  -8 944.742 45.2129   6
   1   7  -8 981.306 44.6470   7
   0   7  -8 36.6982 9.07449   6
   0   7  -8 18.0390 5.22685   7
   0  -7   8 22.0445 6.54409   4
  -1   7  -8 -3.8745 2.45508   6
  -1   7  -8 -1.6113 4.42054   7
  -2   7  -8 107.096 13.6850   6
  -2   7  -8 103.462 19.3028   7
  -3   7  -8 86.0228 13.6357   6
  -3   7  -8 88.4732 14.9941   7
   6   6  -8 201.545 18.7883   2
   6   6  -8 193.486 15.4066   1
  -6  -6   8 174.320 19.8676   5
   5   6  -8 5.33923 3.40846   1
   5   6  -8 0.22682 3.75213   2
   5   6  -8 7.25983 4.23836   3
  -5  -6   8 4.46962 4.70113   5
  -5  -6   8 5.47250 4.04673   3
   4   6  -8 236.579 15.6540   7
   4   6  -8 222.642 15.6566   2
   4   6  -8 205.266 17.7910   3
  -4  -6   8 212.424 15.9842   3
   3   6  -8 944.932 34.3067   2
   3   6  -8 980.909 39.8819   7
   3   6  -8 956.994 40.6118   3
  -3  -6   8 989.783 38.6495   3
   2   6  -8 1615.52 50.0919   2
   2   6  -8 1600.95 58.5699   7
   2   6  -8 1571.95 54.8762   3
  -2  -6   8 1660.72 53.3410   3
   1   6  -8 43.1030 8.68681   6
  -1  -6   8 36.8554 6.16610   3
   0   6  -8 142.271 14.6447   7
  -1   6  -8 2.51210 3.23451   7
  -1   6  -8 3.01332 2.88000   6
   1  -6   8 -1.5189 2.42880   4
  -2   6  -8 387.891 18.2891   2
  -2   6  -8 343.867 24.9926   7
  -2   6  -8 406.291 23.7568   6
   2  -6   8 401.472 28.7045   4
  -3   6  -8 720.842 33.4171   6
  -3   6  -8 712.158 38.6821   7
  -3   6  -8 728.090 29.4392   2
   3  -6   8 725.971 29.0650   2
  -4   6  -8 8.48215 5.44518   7
   4  -6   8 11.3792 3.56469   1
   4  -6   8 14.6021 4.03381   2
   7   5  -8 79.6508 15.4252   2
   7   5  -8 106.823 13.8176   1
   6   5  -8 3.68673 5.13031   3
   6   5  -8 7.74164 4.12270   1
   6   5  -8 16.7354 5.72360   2
  -6  -5   8 20.7313 6.67255   5
   5   5  -8 0.20174 3.13701   2
   5   5  -8 -2.7667 3.22741   1
   5   5  -8 -1.7852 3.04556   3
  -5  -5   8 3.58304 3.29603   5
  -5  -5   8 -2.8516 2.67901   3
   4   5  -8 892.368 32.9742   7
   4   5  -8 840.290 29.8783   1
   4   5  -8 840.090 38.6581   3
  -4  -5   8 796.582 39.6807   5
  -4  -5   8 830.395 36.6014   3
   3   5  -8 1015.13 38.5478   7
   3   5  -8 971.593 40.4967   3
  -3  -5   8 1026.48 39.4147   3
   2   5  -8 327.351 19.2048   7
   2   5  -8 299.419 17.8203   3
   2   5  -8 327.541 16.3527   2
  -2  -5   8 310.180 16.8357   3
   1   5  -8 426.352 19.6272   3
   1   5  -8 401.123 18.5273   2
   1   5  -8 405.651 22.9065   7
  -1  -5   8 413.714 18.6231   3
   0   5  -8 34.3125 7.03255   6
   0   5  -8 42.1246 5.92399   2
   0   5  -8 48.6757 8.18662   7
   0  -5   8 55.8071 9.73178   4
  -1   5  -8 375.398 21.7928   6
  -1   5  -8 383.670 23.4451   7
  -1   5  -8 372.723 17.2469   2
   1  -5   8 318.116 22.5259   4
  -2   5  -8 1399.25 54.5287   7
  -2   5  -8 1438.94 50.2639   6
  -2   5  -8 1347.67 45.7207   2
   2  -5   8 1355.23 44.8588   2
  -3   5  -8 -0.4403 1.53443   2
  -3   5  -8 3.34077 2.33173   6
  -3   5  -8 1.26593 2.98243   7
   3  -5   8 -0.5010 2.24469   2
   3  -5   8 -0.3150 1.53475   1
   3  -5   8 0.16422 3.55582   4
  -4   5  -8 87.0636 9.86586   2
  -4   5  -8 77.3807 9.51099   6
  -4   5  -8 73.9064 12.6593   7
   4  -5   8 59.9301 8.62107   2
  -5   5  -8 3.79527 3.82486   2
  -5   5  -8 16.9332 7.80674   7
   5  -5   8 8.31587 3.10194   1
   5  -5   8 10.2866 3.74602   2
   7   4  -8 85.8728 15.0888   1
   7   4  -8 90.4958 15.6165   3
  -7  -4   8 40.0259 15.8343   5
   6   4  -8 18.2008 6.65007   3
   6   4  -8 17.3537 5.66029   2
  -6  -4   8 41.4799 10.9379   5
   5   4  -8 749.447 31.9173   1
   5   4  -8 726.326 37.4846   3
  -5  -4   8 700.118 34.9560   3
  -5  -4   8 762.668 38.5266   5
   4   4  -8 688.777 27.5268   1
   4   4  -8 676.437 25.8665   7
   4   4  -8 668.118 33.1506   3
  -4  -4   8 676.857 31.9230   3
   3   4  -8 218.038 13.4847   7
   3   4  -8 218.334 11.6646   1
   3   4  -8 235.725 16.4685   3
  -3  -4   8 209.417 14.8155   3
   2   4  -8 308.913 17.7720   3
   2   4  -8 316.044 17.9268   7
  -2  -4   8 316.505 20.4251   3
   1   4  -8 4.78616 2.55795   2
   1   4  -8 1.81881 2.19476   7
   1   4  -8 7.28513 2.50778   3
  -1  -4   8 2.62913 1.48090   3
   0   4  -8 1419.92 45.2132   2
   0   4  -8 1328.50 49.3996   7
  -1   4  -8 1289.55 42.5043   2
  -1   4  -8 1225.74 47.6061   7
  -1   4  -8 1251.89 45.2858   6
   1  -4   8 1290.00 49.5947   4
  -2   4  -8 726.540 29.4138   6
  -2   4  -8 750.586 28.8981   2
  -2   4  -8 712.291 33.4445   7
   2  -4   8 679.391 27.1784   2
   2  -4   8 675.586 34.5430   4
  -3   4  -8 243.486 14.5411   6
  -3   4  -8 253.873 19.1449   7
  -3   4  -8 252.293 15.6880   2
   3  -4   8 262.649 15.5343   2
   3  -4   8 261.645 13.7950   1
  -4   4  -8 72.1372 8.91009   2
  -4   4  -8 78.3982 7.69143   6
  -4   4  -8 69.4830 10.8398   7
   4  -4   8 88.5699 13.2447   4
   4  -4   8 67.2573 8.54550   2
   4  -4   8 70.0327 8.32137   1
  -5   4  -8 110.035 14.2064   7
   5  -4   8 113.967 11.5303   2
   5  -4   8 107.125 12.5721   1
  -6   4  -8 879.176 41.0251   2
  -6   4  -8 966.615 44.6879   7
   6  -4   8 880.211 39.8788   2
   7   3  -8 71.1924 14.4642   3
   7   3  -8 60.9909 12.6727   2
  -7  -3   8 63.7038 13.9972   4
  -7  -3   8 70.8893 14.5459   5
   6   3  -8 283.231 24.1509   3
   6   3  -8 354.889 24.7291   2
   6   3  -8 356.624 29.6403   1
  -6  -3   8 312.159 25.3388   5
   5   3  -8 382.522 25.3152   3
   5   3  -8 423.209 23.3823   1
  -5  -3   8 440.712 26.2185   3
  -5  -3   8 412.051 26.9405   5
   4   3  -8 328.714 18.4246   1
   4   3  -8 312.475 31.0676   3
  -4  -3   8 385.528 31.6781   5
  -4  -3   8 343.159 21.3120   3
   3   3  -8 563.443 27.6005   3
   3   3  -8 586.604 23.5939   1
   3   3  -8 551.277 22.6488   7
  -3  -3   8 559.722 26.7696   3
   2   3  -8 68.5401 6.27863   1
   2   3  -8 60.1494 7.46146   3
   2   3  -8 75.7641 7.58506   7
  -2  -3   8 79.5300 8.20759   3
   1   3  -8 973.137 33.7188   2
   1   3  -8 895.106 34.4231   7
   1   3  -8 876.321 32.4509   3
  -1  -3   8 903.276 32.2193   3
   0   3  -8 1216.46 44.2483   7
   0   3  -8 1226.28 38.7157   3
   0   3  -8 1260.23 42.0125   2
   0  -3   8 1285.08 38.3127   3
  -1   3  -8 53.7503 6.27106   2
  -1   3  -8 50.1072 7.53281   7
   1  -3   8 64.9314 8.31525   4
  -2   3  -8 665.998 25.3251   6
  -2   3  -8 645.476 26.3945   2
  -2   3  -8 603.984 28.7314   7
   2  -3   8 565.842 29.4164   4
   2  -3   8 607.391 24.9192   2
  -3   3  -8 99.2118 11.3664   7
  -3   3  -8 120.055 10.5290   2
   3  -3   8 112.518 12.5260   4
   3  -3   8 130.700 10.5464   2
  -4   3  -8 692.517 33.2949   7
  -4   3  -8 727.280 31.4314   2
   4  -3   8 725.975 30.6293   2
  -5   3  -8 856.737 39.0133   7
   5  -3   8 874.423 44.8185   4
   5  -3   8 881.887 58.3690   5
   5  -3   8 842.860 36.2709   2
  -6   3  -8 68.8316 10.3878   2
  -6   3  -8 65.5892 10.8214   7
   6  -3   8 93.9463 11.3040   2
  -7   3  -8 225.556 21.7168   4
  -7   3  -8 141.465 17.0281   7
   7  -3   8 184.564 18.2406   2
   7   2  -8 396.674 29.6749   3
   7   2  -8 390.984 27.9764   2
  -7  -2   8 411.316 30.7961   5
  -7  -2   8 439.653 29.4627   4
   6   2  -8 98.1456 12.9820   1
   6   2  -8 92.5986 13.7426   3
   6   2  -8 119.881 15.1090   2
  -6  -2   8 96.2075 14.5068   5
  -6  -2   8 75.8672 14.0052   4
   5   2  -8 651.483 34.4470   3
   5   2  -8 685.062 32.2652   1
  -5  -2   8 701.680 36.7075   5
   4   2  -8 5.06788 2.73656   1
  -4  -2   8 14.5789 7.36167   5
  -4  -2   8 9.25362 3.65168   3
   3   2  -8 6.70438 3.25304   3
   3   2  -8 14.7509 4.20848   1
  -3  -2   8 7.00727 2.65606   3
  -3  -2   8 1.35155 2.66190   5
   2   2  -8 2689.54 76.7440   7
   2   2  -8 2628.96 80.0766   3
   2   2  -8 2633.61 76.7863   1
  -2  -2   8 2671.93 79.4636   3
   1   2  -8 1926.93 59.0239   3
   1   2  -8 1929.34 59.6715   7
  -1  -2   8 1914.40 58.0600   3
   0   2  -8 2121.89 65.5579   3
   0   2  -8 2203.37 66.0258   2
   0   2  -8 2151.98 67.1512   7
   0  -2   8 2270.48 66.0172   4
   0  -2   8 2146.24 61.9411   3
  -1   2  -8 3088.01 86.7836   2
  -1   2  -8 3077.67 89.2411   7
   1  -2   8 2866.94 87.2509   4
   1  -2   8 2938.89 80.4643   1
  -2   2  -8 200.156 13.0093   2
  -2   2  -8 198.302 13.8387   7
   2  -2   8 157.143 13.1211   4
   2  -2   8 193.604 12.1034   2
  -3   2  -8 118.352 11.4497   7
  -3   2  -8 114.593 6.91359   6
   3  -2   8 115.147 11.8887   4
   3  -2   8 107.295 9.61375   2
  -4   2  -8 1282.37 48.5996   4
  -4   2  -8 1288.92 46.6709   2
  -4   2  -8 1258.68 48.1566   7
   4  -2   8 1324.24 52.5499   4
   4  -2   8 1310.64 46.3582   2
  -5   2  -8 13.1051 4.03901   4
  -5   2  -8 24.1896 6.33620   7
  -5   2  -8 12.9395 4.19651   2
   5  -2   8 7.84921 3.66937   2
  -6   2  -8 637.460 31.5893   7
  -6   2  -8 587.732 31.6530   2
  -6   2  -8 649.703 34.2354   4
   6  -2   8 593.248 36.8745   4
   6  -2   8 607.380 34.4928   5
   6  -2   8 567.386 30.0189   2
  -7   2  -8 23.8030 8.56522   4
  -7   2  -8 51.9973 9.66308   7
   7  -2   8 40.8908 10.1145   2
   7   1  -8 48.0181 11.4138   2
   7   1  -8 55.9711 13.3698   3
  -7  -1   8 27.6602 8.77734   5
  -7  -1   8 16.2160 6.02100   4
   6   1  -8 710.399 37.1934   2
   6   1  -8 650.020 34.9170   1
   6   1  -8 603.525 35.8499   3
  -6  -1   8 665.901 32.9316   4
  -6  -1   8 629.975 37.5853   5
   5   1  -8 510.620 29.4136   3
  -5  -1   8 468.219 25.4081   4
  -5  -1   8 494.426 30.1533   5
   4   1  -8 -0.0430 1.93735   3
   4   1  -8 0.93115 1.64762   1
  -4  -1   8 0.09431 1.32692   4
  -4  -1   8 -0.4660 2.45124   5
   3   1  -8 1125.41 42.0597   1
   3   1  -8 1142.11 43.7795   3
  -3  -1   8 1176.60 43.0170   3
   2   1  -8 1006.21 37.4132   1
   2   1  -8 1080.77 39.2516   3
   1   1  -8 1460.09 47.1514   1
   1   1  -8 1491.47 47.9976   3
  -1  -1   8 1470.25 47.1325   3
   0   1  -8 1130.20 37.0181   3
   0   1  -8 1176.29 39.8678   2
   0  -1   8 1127.02 36.3277   1
   0  -1   8 1127.92 36.0287   4
  -1   1  -8 0.72335 1.34273   2
  -1   1  -8 -1.6834 0.76553   3
   1  -1   8 0.23449 1.10601   4
   1  -1   8 1.90763 0.88127   1
  -2   1  -8 1831.31 57.4568   2
   2  -1   8 1821.38 56.2334   2
   2  -1   8 1789.14 57.5352   4
  -3   1  -8 896.552 34.3940   4
  -3   1  -8 912.464 36.7653   7
  -3   1  -8 917.589 35.2555   2
   3  -1   8 921.071 37.1130   4
   3  -1   8 963.633 34.9557   2
  -4   1  -8 1499.67 52.2672   2
  -4   1  -8 1521.88 52.8769   4
  -4   1  -8 1510.03 53.3069   7
   4  -1   8 1511.93 51.8147   2
   4  -1   8 1534.67 56.6640   4
  -5   1  -8 893.901 37.3761   2
  -5   1  -8 888.045 38.2854   4
  -5   1  -8 890.255 37.2466   7
   5  -1   8 917.752 42.4244   4
   5  -1   8 843.129 36.3844   2
  -6   1  -8 1.09303 2.03026   2
  -6   1  -8 1.07128 4.05602   7
  -6   1  -8 1.32056 1.92605   4
   6  -1   8 -2.9039 1.93789   2
  -7   1  -8 149.744 16.3302   4
  -7   1  -8 130.315 13.4931   7
   7  -1   8 125.618 14.5222   2
  -8   1  -8 370.778 28.0343   4
  -8   1  -8 388.882 24.5448   7
   8  -1   8 382.405 27.0689   2
   7   0  -8 563.787 38.3759   3
  -7   0   8 567.978 31.8929   4
   6   0  -8 138.813 16.1094   3
   6   0  -8 189.466 18.9885   2
  -6   0   8 142.248 13.8844   4
  -6   0   8 154.198 18.5430   5
   5   0  -8 30.8231 8.04451   3
   5   0  -8 9.49015 3.81931   1
  -5   0   8 15.7388 6.04058   5
  -5   0   8 15.4879 4.51372   4
   4   0  -8 836.246 37.9859   3
   4   0  -8 855.407 37.7521   1
  -4   0   8 853.771 32.6650   4
  -4   0   8 847.376 39.5118   5
   3   0  -8 596.814 28.4247   3
   3   0  -8 519.347 26.7699   1
  -3   0   8 586.762 27.2678   3
  -3   0   8 591.759 29.8189   5
   2   0  -8 3138.56 90.0804   3
   2   0  -8 2918.03 89.7457   1
  -2   0   8 2912.57 92.1491   5
  -2   0   8 2985.62 89.8122   1
  -2   0   8 3023.86 88.6143   3
   1   0  -8 2850.75 83.7744   1
   1   0  -8 2777.26 82.3442   3
  -1   0   8 2763.05 81.9162   1
   0   0  -8 80.1750 7.23976   3
   0   0  -8 78.8126 7.85834   2
   0   0   8 93.5001 7.98572   1
  -1   0  -8 379.169 19.0357   2
   1   0   8 410.112 16.0531   4
  -2   0  -8 403.061 16.8535   4
  -2   0  -8 392.966 19.3096   2
   2   0   8 383.244 17.8258   4
   2   0   8 380.766 18.3775   2
  -3   0  -8 390.487 18.3239   4
  -3   0  -8 377.558 19.3625   2
   3   0   8 385.076 20.0312   4
  -4   0  -8 836.440 33.7132   4
  -4   0  -8 853.126 34.4260   2
   4   0   8 903.841 34.6970   2
  -5   0  -8 0.46023 2.16473   7
  -5   0  -8 1.39742 1.99803   4
   5   0   8 1.99142 1.94605   2
  -6   0  -8 463.726 24.7260   7
  -6   0  -8 478.205 27.0708   4
   6   0   8 475.421 26.1842   2
  -7   0  -8 743.483 37.6347   4
  -7   0  -8 714.389 36.0037   2
  -7   0  -8 744.690 37.5435   7
   7   0   8 763.855 38.3241   5
   7   0   8 742.179 36.4912   2
  -8   0  -8 477.763 32.3272   4
  -8   0  -8 450.273 24.7503   7
   8   0   8 371.583 37.2276   2
   6  -1  -8 2.65253 3.21156   2
   6  -1  -8 1.81819 4.25738   3
  -6   1   8 -1.3097 3.44170   4
  -6   1   8 -6.7352 5.46104   5
   5  -1  -8 98.7447 13.6199   1
   5  -1  -8 133.126 14.8328   3
  -5   1   8 125.412 11.7773   4
  -5   1   8 120.793 14.4992   5
   4  -1  -8 19.1803 5.42893   3
  -4   1   8 27.0977 5.39711   4
  -4   1   8 14.3212 5.02179   5
   3  -1  -8 1633.60 59.6826   1
   3  -1  -8 1720.36 59.3558   3
  -3   1   8 1662.52 60.3586   5
   2  -1  -8 673.698 29.6066   3
   2  -1  -8 596.440 29.6744   1
  -2   1   8 619.211 29.5221   1
  -2   1   8 682.282 30.4330   5
   1  -1  -8 113.756 9.95322   3
   1  -1  -8 123.664 11.5350   1
  -1   1   8 118.454 10.6879   1
   0  -1  -8 676.575 26.1532   3
   0  -1  -8 749.528 29.2040   2
   0   1   8 693.721 28.8917   1
  -1  -1  -8 1407.18 47.7017   2
   1   1   8 1480.03 48.8496   1
  -2  -1  -8 1805.57 52.0323   4
   2   1   8 1840.97 56.6855   2
  -3  -1  -8 3655.40 102.281   4
  -3  -1  -8 3765.69 105.818   2
   3   1   8 3696.31 104.985   2
  -4  -1  -8 14.8526 4.27369   4
  -4  -1  -8 19.0876 3.69414   3
  -4  -1  -8 18.5056 4.49740   2
   4   1   8 7.64588 2.56977   2
  -5  -1  -8 168.098 13.1377   4
  -5  -1  -8 159.911 13.0013   2
  -5  -1  -8 172.294 11.0862   3
   5   1   8 149.229 12.8297   2
  -6  -1  -8 264.912 14.8919   3
  -6  -1  -8 246.484 17.6495   7
   6   1   8 236.731 17.5321   2
   6   1   8 267.154 18.9110   5
  -7  -1  -8 224.837 18.6347   4
  -7  -1  -8 208.274 14.4637   3
  -7  -1  -8 233.711 16.8557   7
   7   1   8 259.164 24.9624   5
   7   1   8 219.052 18.0201   2
  -8  -1  -8 590.255 27.5118   3
  -8  -1  -8 608.569 29.1476   7
  -8  -1  -8 570.777 34.1862   4
   8   1   8 565.646 33.2995   2
   6  -2  -8 89.4990 13.4879   3
   6  -2  -8 87.8855 14.5009   2
  -6   2   8 102.899 17.4752   5
  -6   2   8 124.521 21.1828   4
   5  -2  -8 1.05210 2.85152   3
   5  -2  -8 1.43167 2.67626   2
  -5   2   8 -3.1940 3.60729   5
  -5   2   8 -3.1397 2.44928   4
   4  -2  -8 1337.24 53.0135   3
   4  -2  -8 1274.22 43.0678   7
  -4   2   8 1288.62 53.2809   5
  -4   2   8 1257.40 43.7191   4
   3  -2  -8 1394.36 55.6185   1
  -3   2   8 1441.34 54.2245   5
   2  -2  -8 21.6261 6.42290   1
   2  -2  -8 14.0072 3.99970   3
  -2   2   8 8.89690 4.02817   5
  -2   2   8 11.5826 3.67880   1
   1  -2  -8 96.3020 9.35118   3
   1  -2  -8 120.519 14.3207   1
  -1   2   8 133.612 11.4346   5
  -1   2   8 120.155 11.5964   1
   0  -2  -8 197.871 15.0574   1
   0  -2  -8 203.961 12.3543   3
   0   2   8 210.546 14.9911   1
  -1  -2  -8 2339.03 69.8376   6
  -1  -2  -8 2242.02 70.7537   2
   1   2   8 2429.33 74.8475   1
  -2  -2  -8 1383.72 45.6059   2
  -2  -2  -8 1297.21 41.8171   6
   2   2   8 1368.27 45.0458   2
  -3  -2  -8 85.8718 6.14132   6
  -3  -2  -8 86.9993 7.35695   4
  -3  -2  -8 91.5189 8.50397   2
  -4  -2  -8 412.247 20.2635   4
  -4  -2  -8 420.344 19.3521   3
  -4  -2  -8 394.644 20.5728   2
   4   2   8 419.818 20.9860   2
  -5  -2  -8 443.820 21.0582   3
  -5  -2  -8 461.530 23.7006   2
  -5  -2  -8 437.198 23.4456   4
   5   2   8 465.466 23.5233   2
  -6  -2  -8 829.773 37.2188   4
  -6  -2  -8 842.034 36.7448   3
   6   2   8 814.472 36.1667   2
   6   2   8 836.445 35.5933   5
  -7  -2  -8 1511.90 52.2456   3
  -7  -2  -8 1494.25 58.7251   4
   7   2   8 1494.74 57.2856   2
  -8  -2  -8 -1.9677 2.72367   3
  -8  -2  -8 -0.5924 3.21200   4
  -8  -2  -8 -0.9458 2.08139   7
   8   2   8 1.25177 2.78846   2
   8   2   8 0.67876 4.14965   5
  -9  -2  -8 0.15541 3.92956   4
  -9  -2  -8 -1.0095 3.57299   7
   9   2   8 -2.9705 3.82567   2
   5  -3  -8 711.340 38.2659   3
   5  -3  -8 663.386 28.5180   7
   5  -3  -8 702.190 36.9199   2
  -5   3   8 629.520 37.5953   5
   4  -3  -8 162.268 16.0157   3
   4  -3  -8 149.656 16.6137   1
   4  -3  -8 143.165 15.5776   6
   4  -3  -8 155.297 12.1337   7
  -4   3   8 160.566 16.6320   5
   3  -3  -8 1.67377 2.35828   3
  -3   3   8 3.95647 3.09784   5
   2  -3  -8 489.742 29.2344   1
   2  -3  -8 441.176 24.6881   3
  -2   3   8 459.498 24.6870   5
  -2   3   8 440.827 26.7640   1
   1  -3  -8 46.0847 6.78212   3
   1  -3  -8 69.8982 10.1129   1
   1  -3  -8 45.8973 7.56588   6
  -1   3   8 56.0554 7.61170   5
  -1   3   8 37.7020 7.96001   1
   0  -3  -8 5109.19 144.001   1
   0  -3  -8 4851.78 155.493   6
   0   3   8 4920.20 141.941   1
   0   3   8 4817.77 134.841   5
  -1  -3  -8 3153.32 92.7877   6
  -1  -3  -8 3068.06 92.7760   2
   1   3   8 3365.69 99.8736   1
  -2  -3  -8 218.932 13.7224   2
  -2  -3  -8 218.102 12.9895   6
   2   3   8 225.816 16.1860   1
  -3  -3  -8 77.5542 6.58132   6
  -3  -3  -8 79.1179 7.12688   4
  -3  -3  -8 87.4583 8.42500   2
   3   3   8 90.0348 8.44843   2
  -4  -3  -8 194.514 13.2245   2
  -4  -3  -8 182.162 12.8053   4
  -4  -3  -8 174.401 9.67603   6
   4   3   8 170.293 12.5678   2
  -5  -3  -8 1767.92 58.6239   3
  -5  -3  -8 1782.23 59.9667   2
  -5  -3  -8 1855.41 61.4316   4
   5   3   8 1797.98 60.0688   2
  -6  -3  -8 1200.42 46.3552   2
  -6  -3  -8 1191.32 44.1728   3
  -6  -3  -8 1221.09 48.2899   4
   6   3   8 1141.99 53.0460   2
   6   3   8 1207.83 44.0693   5
  -7  -3  -8 36.8679 8.06019   2
  -7  -3  -8 47.1041 9.36362   4
  -7  -3  -8 39.0896 8.02961   3
   7   3   8 53.8025 9.26059   5
   7   3   8 71.3514 9.64451   2
  -8  -3  -8 7.18506 4.61567   4
   8   3   8 11.8240 4.45101   2
  -9  -3  -8 146.086 16.1673   3
  -9  -3  -8 187.184 22.7079   7
  -9  -3  -8 222.286 21.9009   4
   9   3   8 167.289 18.5853   2
   5  -4  -8 271.789 22.3234   2
   5  -4  -8 314.764 18.9036   7
   5  -4  -8 281.062 24.2057   3
  -5   4   8 321.639 26.9220   5
   4  -4  -8 0.67163 2.29046   7
   4  -4  -8 1.07359 2.95887   3
  -4   4   8 -2.4398 3.86308   5
   3  -4  -8 8.18457 4.98139   3
   3  -4  -8 9.03302 3.32635   7
   3  -4  -8 8.26440 4.46111   6
  -3   4   8 16.2599 5.54393   5
   2  -4  -8 426.936 24.5045   3
  -2   4   8 375.956 25.7472   1
  -2   4   8 440.139 24.1890   5
   1  -4  -8 2243.44 73.9450   6
   1  -4  -8 2149.91 69.2989   3
  -1   4   8 2078.90 74.5627   1
  -1   4   8 2194.70 69.4904   5
   0  -4  -8 91.4565 10.1029   6
   0   4   8 111.850 9.50782   5
   0   4   8 104.342 12.2822   1
  -1  -4  -8 35.6563 6.14492   2
  -1  -4  -8 29.9335 5.95092   6
   1   4   8 37.4755 8.05826   1
   1   4   8 38.4472 5.17419   5
  -2  -4  -8 86.1817 8.85958   6
  -2  -4  -8 80.3846 8.10484   2
   2   4   8 82.9099 10.4557   1
  -3  -4  -8 90.5914 8.45783   2
  -3  -4  -8 82.4487 7.76022   6
   3   4   8 74.3625 7.88757   2
  -4  -4  -8 2012.91 59.9605   6
  -4  -4  -8 1930.28 62.5975   2
   4   4   8 1988.34 60.0653   6
   4   4   8 1991.26 62.7684   2
  -5  -4  -8 1736.68 58.3792   2
  -5  -4  -8 1786.28 60.6506   4
  -5  -4  -8 1768.18 59.2638   3
   5   4   8 1703.40 58.1450   2
   5   4   8 1752.99 53.4420   5
   5   4   8 1709.91 52.4933   6
  -6  -4  -8 8.70379 3.56017   3
  -6  -4  -8 8.71490 3.81980   4
  -6  -4  -8 9.24072 3.15482   2
   6   4   8 5.62909 2.40094   6
   6   4   8 12.0242 4.99306   2
   6   4   8 12.8155 4.01000   5
  -7  -4  -8 8.44749 6.39967   2
  -7  -4  -8 6.36676 3.32116   4
   7   4   8 5.86629 3.60670   2
   7   4   8 6.40586 2.00769   6
   7   4   8 0.57365 3.23634   5
  -8  -4  -8 16.7221 6.17460   4
  -8  -4  -8 20.2951 6.42137   3
   8   4   8 17.8802 5.85323   2
   8   4   8 31.6649 7.86289   5
  -9  -4  -8 287.896 25.3678   4
  -9  -4  -8 218.392 22.6423   7
   9   4   8 291.745 20.4826   5
   9   4   8 301.049 23.6977   2
   4  -5  -8 13.5691 6.25102   3
   4  -5  -8 7.34662 3.46168   2
  -4   5   8 4.37218 6.65916   5
   3  -5  -8 2.46420 2.68899   7
   3  -5  -8 0.08823 3.74844   3
  -3   5   8 -2.0150 3.44288   5
   2  -5  -8 1369.81 62.9234   6
   2  -5  -8 1304.14 51.8019   3
   2  -5  -8 1276.79 49.5029   7
   2  -5  -8 1397.49 60.6649   1
  -2   5   8 1310.58 52.2393   5
  -2   5   8 1203.88 54.9956   1
   1  -5  -8 1349.80 48.8964   3
  -1   5   8 1358.52 48.1000   5
  -1   5   8 1188.98 52.8910   1
   0  -5  -8 739.065 34.6488   6
   0  -5  -8 731.564 31.6518   2
   0   5   8 758.379 29.8942   5
   0   5   8 721.633 36.6302   1
  -1  -5  -8 78.1050 9.88046   6
  -1  -5  -8 89.6601 9.20519   2
   1   5   8 78.0875 7.14542   5
   1   5   8 70.3803 11.1646   1
  -2  -5  -8 41.8150 5.86743   2
  -2  -5  -8 34.2300 6.45913   6
   2   5   8 41.1594 9.21000   1
  -3  -5  -8 2220.73 67.1936   2
  -3  -5  -8 2116.94 68.7424   6
  -4  -5  -8 873.281 33.4900   6
  -4  -5  -8 844.491 33.2946   2
   4   5   8 863.529 33.6102   2
   4   5   8 847.774 33.2472   6
  -5  -5  -8 34.8244 6.63126   2
  -5  -5  -8 37.4160 7.52816   3
   5   5   8 48.4536 6.22198   6
   5   5   8 49.6160 6.19287   2
  -6  -5  -8 -5.2264 2.65103   3
  -6  -5  -8 1.76721 2.43380   2
   6   5   8 2.31785 2.09856   5
   6   5   8 -0.3529 2.13647   2
   6   5   8 4.74430 2.36954   6
  -7  -5  -8 18.7977 5.76496   2
  -7  -5  -8 14.3650 5.49352   4
  -7  -5  -8 21.9589 7.56189   3
   7   5   8 17.4417 4.29771   5
   7   5   8 34.7133 6.61027   2
   7   5   8 21.3358 5.27208   6
  -8  -5  -8 524.672 33.6691   4
  -8  -5  -8 546.867 30.5088   3
   8   5   8 563.921 22.2413   6
   8   5   8 526.330 25.7435   5
   8   5   8 494.597 29.4972   2
  -9  -5  -8 576.990 37.7561   4
   9   5   8 571.427 33.8016   2
   3  -6  -8 811.700 37.8236   7
   3  -6  -8 836.157 42.6974   3
   3  -6  -8 778.064 34.4802   4
   3  -6  -8 755.779 36.4095   2
  -3   6   8 816.875 40.3583   5
   2  -6  -8 32.6525 8.11913   7
   2  -6  -8 38.6258 7.43080   4
   2  -6  -8 38.2835 9.32288   3
  -2   6   8 39.9537 9.52180   5
  -2   6   8 41.0482 12.4353   1
   1  -6  -8 292.298 33.3450   6
   1  -6  -8 348.039 17.4472   4
   1  -6  -8 361.986 22.5190   7
   1  -6  -8 338.894 21.4844   3
   1  -6  -8 314.595 26.3339   1
  -1   6   8 346.391 20.4743   5
  -1   6   8 333.298 25.1537   1
   0  -6  -8 2.80823 1.91735   2
   0  -6  -8 -1.2038 1.79540   6
   0  -6  -8 0.49077 1.74830   4
   0   6   8 -3.7755 1.47853   5
   0   6   8 1.59535 2.58178   1
  -1  -6  -8 2.44698 2.09571   2
  -1  -6  -8 -0.9433 1.77139   6
   1   6   8 3.03578 2.93857   1
   1   6   8 4.70016 1.99910   5
  -2  -6  -8 790.737 32.0425   2
  -2  -6  -8 812.154 36.7264   6
   2   6   8 1021.94 63.7631   1
  -3  -6  -8 1547.17 55.3340   6
  -3  -6  -8 1437.07 55.5674   2
   3   6   8 1576.56 55.8085   6
   3   6   8 1638.69 71.4212   1
  -4  -6  -8 40.2048 7.14182   6
  -4  -6  -8 50.3177 7.16167   2
   4   6   8 41.1919 7.01009   2
   4   6   8 37.7763 6.81797   6
  -5  -6  -8 170.204 13.1106   2
   5   6   8 163.926 13.2584   6
   5   6   8 153.149 12.5738   2
  -6  -6  -8 -0.5197 2.49711   2
   6   6   8 1.31603 2.20105   6
   6   6   8 5.83918 2.69915   2
  -7  -6  -8 785.870 38.3322   3
  -7  -6  -8 860.622 38.0579   2
   7   6   8 855.518 33.9132   6
   7   6   8 829.711 37.0689   2
  -8  -6  -8 440.177 31.0488   4
   8   6   8 468.829 27.9193   2
   8   6   8 506.498 23.3901   6
  -9  -6  -8 31.6679 9.24296   4
   9   6   8 23.1800 4.82490   6
   9   6   8 42.1512 11.1364   5
   2  -7  -8 88.8363 9.92699   4
   2  -7  -8 78.7205 13.5625   3
  -2   7   8 99.1112 15.7834   1
   1  -7  -8 41.3093 7.93652   2
   1  -7  -8 19.6611 5.65697   4
   1  -7  -8 29.8080 7.59511   3
  -1   7   8 10.5183 4.36911   1
   0  -7  -8 85.3779 9.15774   2
   0  -7  -8 64.3712 11.3556   6
   0  -7  -8 88.4607 11.6458   7
   0  -7  -8 77.9606 8.81472   4
   0   7   8 63.7780 13.5571   1
  -1  -7  -8 1285.36 53.0226   6
  -1  -7  -8 1228.05 45.4140   4
  -1  -7  -8 1249.31 44.1294   2
   1   7   8 1277.51 56.0278   1
  -2  -7  -8 195.202 17.5597   2
  -2  -7  -8 190.973 19.4438   6
   2   7   8 182.267 19.7995   1
   3   7   8 634.103 31.9933   6
   3   7   8 544.430 35.5000   1
  -4  -7  -8 38.8007 6.40421   2
   4   7   8 45.1702 8.66621   6
   4   7   8 47.1880 11.3508   1
  -5  -7  -8 -0.7222 2.26422   3
   5   7   8 6.34461 3.27322   2
   5   7   8 5.60927 3.11424   6
  -6  -7  -8 721.359 36.6838   3
  -6  -7  -8 805.443 33.6830   2
   6   7   8 695.887 33.0856   2
   6   7   8 794.098 35.3490   6
  -7  -7  -8 552.005 28.5716   2
   7   7   8 502.992 27.6798   2
   7   7   8 584.440 28.2798   6
   8   7   8 105.552 13.6526   2
   8   7   8 114.733 12.5058   6
   1  -8  -8 57.9538 9.21517   4
   1  -8  -8 35.5900 9.12134   2
  -1   8   8 51.7763 15.5278   1
   0  -8  -8 395.711 19.5784   2
   0  -8  -8 331.219 19.6193   4
   0   8   8 331.392 27.3976   1
  -1  -8  -8 133.773 12.8801   4
  -1  -8  -8 150.409 10.7593   2
   1   8   8 139.926 18.5229   1
  -2  -8  -8 207.466 20.4391   6
  -2  -8  -8 191.988 17.7206   2
   2   8   8 185.571 20.9274   1
  -3  -8  -8 15.9294 5.34615   6
  -3  -8  -8 15.9903 4.66622   2
   3   8   8 45.3814 11.7487   1
   3   8   8 12.3736 4.34071   6
  -4  -8  -8 34.0459 8.57040   6
  -4  -8  -8 43.7753 6.74231   2
   4   8   8 47.5354 9.58619   6
  -5  -8  -8 777.747 31.5625   2
   5   8   8 802.656 38.1906   6
   5   8   8 687.242 41.9793   1
  -6  -8  -8 108.375 10.4989   2
   6   8   8 83.7699 12.3445   6
   6   8   8 77.5521 10.1622   2
  -7  -8  -8 209.813 15.0496   2
   7   8   8 165.820 14.9872   2
   7   8   8 222.787 17.8588   6
  -1  -9  -8 381.121 22.3519   4
   1   9   8 359.374 35.4988   1
   2   9   8 12.9349 5.95217   1
   3   9   8 -2.3328 3.90155   6
   3   9   8 -0.0406 4.95716   1
   4   9   8 159.530 21.9451   1
   4   9   8 186.806 18.6201   6
  -5  -9  -8 162.586 12.3330   2
   5   9   8 165.456 18.0934   6
   5   9   8 120.852 20.5510   1
  -6  -9  -8 144.639 12.2614   2
   6   9   8 108.236 25.9749   1
   6   9   8 102.609 15.8797   6
   4   8  -9 -1.3566 5.01887   6
   3   8  -9 738.926 43.5610   6
  -3  -8   9 807.670 40.6487   3
   2   8  -9 203.024 25.8152   6
   2   8  -9 185.584 20.2738   7
  -2  -8   9 230.557 15.4915   3
   1   8  -9 87.6695 15.9235   6
   1   8  -9 82.6887 20.5355   7
   0   8  -9 1.55208 5.25700   7
   0   8  -9 1.89836 4.75759   6
  -1   8  -9 87.3356 16.0350   6
   5   7  -9 15.5964 5.17775   2
   5   7  -9 18.8748 7.42081   3
  -5  -7   9 12.1757 6.68894   5
   4   7  -9 527.239 23.7573   2
   4   7  -9 515.512 30.6672   3
   4   7  -9 547.989 25.6922   2
  -4  -7   9 522.576 28.8638   3
   3   7  -9 23.6933 5.69288   7
   3   7  -9 32.1319 8.66375   3
  -3  -7   9 43.5566 8.24175   3
   2   7  -9 60.3900 11.8071   6
  -2  -7   9 63.0671 8.82653   3
   1   7  -9 318.803 24.3250   7
   1   7  -9 353.048 25.8481   6
   0   7  -9 8.22020 4.59367   7
   0   7  -9 2.45244 3.52817   6
  -1   7  -9 864.533 44.3553   7
  -1   7  -9 807.444 40.4432   6
  -2   7  -9 246.118 20.7489   6
  -2   7  -9 275.288 24.0182   7
  -3   7  -9 1.11802 3.97275   6
   6   6  -9 -2.9422 5.39483   2
   6   6  -9 -3.7071 3.79961   1
   6   6  -9 -3.7562 4.28738   3
  -6  -6   9 2.97003 5.84796   5
   5   6  -9 933.545 45.7034   3
   5   6  -9 1015.70 42.1076   2
  -5  -6   9 960.709 46.0892   5
   4   6  -9 142.103 12.2000   7
   4   6  -9 126.040 14.7574   3
  -4  -6   9 114.661 14.5480   3
   3   6  -9 55.5049 7.51445   2
   3   6  -9 45.5886 8.87175   7
  -3  -6   9 56.1540 9.41099   3
   2   6  -9 41.2896 6.34606   2
   2   6  -9 44.5766 8.17584   7
   2   6  -9 27.9693 7.38007   3
  -2  -6   9 20.2014 4.81137   3
   1   6  -9 34.5949 7.57433   7
   1   6  -9 32.4314 8.81560   6
   1   6  -9 14.3431 3.68906   2
  -1  -6   9 19.4478 4.81265   3
   0   6  -9 591.011 24.1357   2
   0   6  -9 619.273 32.8030   6
   0   6  -9 613.697 32.7997   7
  -1   6  -9 209.109 22.7282   6
  -1   6  -9 178.135 17.7002   7
  -1   6  -9 194.200 11.7519   2
   1  -6   9 153.181 17.1092   4
  -2   6  -9 12.9303 5.33524   7
  -2   6  -9 18.6342 5.35129   6
  -2   6  -9 25.9765 6.51261   2
  -3   6  -9 90.9981 11.0104   6
  -3   6  -9 104.471 16.5940   7
  -3   6  -9 108.465 10.2196   2
   3  -6   9 126.676 10.6526   2
  -4   6  -9 7.18321 2.75104   2
  -4   6  -9 0.40003 3.96823   6
  -4   6  -9 9.10700 5.28238   7
   4  -6   9 4.23786 5.17661   2
   6   5  -9 864.952 41.6392   2
   6   5  -9 785.820 44.7468   3
  -6  -5   9 831.743 44.1679   5
   5   5  -9 19.6023 6.05072   3
   5   5  -9 37.8781 9.12620   2
   5   5  -9 32.8502 8.79585   1
  -5  -5   9 24.0810 7.16469   3
  -5  -5   9 43.2718 11.2870   5
   4   5  -9 144.666 10.6924   1
   4   5  -9 152.702 12.0810   7
   4   5  -9 145.988 14.8452   3
  -4  -5   9 141.507 15.7517   5
  -4  -5   9 143.600 14.0728   3
   3   5  -9 213.505 16.6410   3
   3   5  -9 223.874 15.3596   7
  -3  -5   9 206.146 15.6589   3
   2   5  -9 47.9050 7.56885   3
   2   5  -9 46.9434 6.91630   2
   2   5  -9 40.2002 6.99611   7
  -2  -5   9 32.3305 6.62921   3
   1   5  -9 2503.20 75.9025   3
   1   5  -9 2627.75 76.3016   2
   1   5  -9 2509.54 82.4842   7
  -1  -5   9 2576.06 75.2340   3
   0   5  -9 850.072 32.1694   2
   0   5  -9 827.067 38.0961   7
   0   5  -9 888.745 39.1790   6
   0  -5   9 885.174 39.1593   4
  -1   5  -9 444.798 26.5528   7
  -1   5  -9 453.403 21.1228   2
  -1   5  -9 441.824 24.9615   6
  -2   5  -9 11.0695 5.55612   2
  -2   5  -9 10.0005 3.89370   7
  -2   5  -9 11.1512 3.48109   6
   2  -5   9 13.4502 5.04972   4
  -3   5  -9 -4.8937 1.94353   2
  -3   5  -9 -2.8329 1.93599   6
  -3   5  -9 -2.4841 2.66154   7
   3  -5   9 -3.4783 2.06060   2
   3  -5   9 -0.1319 4.11245   4
  -4   5  -9 556.069 33.4405   7
  -4   5  -9 546.736 25.4828   6
   4  -5   9 579.280 24.9422   1
   4  -5   9 579.368 30.0364   2
  -5   5  -9 163.219 14.8874   2
  -5   5  -9 205.319 20.0863   7
   5  -5   9 191.286 15.1047   1
   5  -5   9 214.629 16.0828   2
   6   4  -9 59.8828 16.2338   3
  -6  -4   9 74.1866 14.2732   5
   5   4  -9 104.931 11.4227   1
   5   4  -9 84.8750 13.1481   3
  -5  -4   9 72.5205 13.0719   5
  -5  -4   9 88.0833 12.7351   3
   4   4  -9 0.12949 2.03037   1
   4   4  -9 0.29176 2.71143   3
   4   4  -9 1.60081 1.99941   7
  -4  -4   9 5.43484 4.07301   5
  -4  -4   9 -3.3465 2.26236   3
   3   4  -9 258.187 15.8704   7
   3   4  -9 275.965 14.1355   1
   3   4  -9 311.776 19.4106   3
  -3  -4   9 266.728 17.7767   3
   2   4  -9 1814.71 58.2526   2
   2   4  -9 1726.95 58.0823   3
   2   4  -9 1661.32 57.4192   7
  -2  -4   9 1774.00 57.4975   3
   1   4  -9 43.7114 6.39185   3
   1   4  -9 35.1192 6.89838   7
   1   4  -9 41.0265 6.46174   2
  -1  -4   9 39.1550 6.08937   3
   0   4  -9 554.755 28.0651   7
   0   4  -9 569.509 24.9081   2
   0  -4   9 602.166 28.8771   4
  -1   4  -9 159.854 14.2206   7
  -1   4  -9 179.107 13.8459   6
  -1   4  -9 168.325 12.3928   2
   1  -4   9 171.240 15.0665   4
  -2   4  -9 29.8365 5.78459   6
  -2   4  -9 24.9621 6.79508   7
  -2   4  -9 19.3500 7.40391   2
   2  -4   9 13.2471 4.10512   4
   2  -4   9 13.3986 3.32857   2
  -3   4  -9 1369.76 55.0643   7
  -3   4  -9 1393.12 47.1197   6
  -3   4  -9 1467.81 50.2809   2
   3  -4   9 1422.04 44.6923   1
   3  -4   9 1467.46 49.5074   2
  -4   4  -9 580.797 31.8992   7
  -4   4  -9 519.393 22.6275   6
  -4   4  -9 572.687 27.8373   2
   4  -4   9 585.247 25.3841   1
   4  -4   9 503.474 33.3277   4
   4  -4   9 583.226 27.2680   2
  -5   4  -9 110.530 15.0335   7
  -5   4  -9 135.834 13.1265   2
   5  -4   9 116.207 12.0229   1
   5  -4   9 107.929 11.8328   2
  -6   4  -9 5.43690 5.35950   7
   6  -4   9 14.4265 5.51646   2
   6  -4   9 37.5378 9.69664   1
   7   3  -9 0.53223 5.88219   2
  -7  -3   9 -0.1226 6.56251   4
   6   3  -9 351.462 26.1395   2
   6   3  -9 369.080 27.6845   3
  -6  -3   9 356.766 28.4291   5
   5   3  -9 1.05030 3.08287   3
   5   3  -9 -2.8036 2.32992   1
  -5  -3   9 -2.5775 3.66365   5
  -5  -3   9 0.03207 2.94951   3
   4   3  -9 2.44757 3.24359   3
   4   3  -9 2.23859 2.11058   1
  -4  -3   9 7.70538 3.16137   3
  -4  -3   9 0.70165 3.85495   5
   3   3  -9 2688.01 78.6657   1
   3   3  -9 2737.50 84.8168   3
   3   3  -9 2525.11 77.2136   7
  -3  -3   9 2708.92 83.4504   3
   2   3  -9 262.197 15.4049   7
   2   3  -9 277.446 13.5703   1
   2   3  -9 270.812 16.5582   3
  -2  -3   9 246.284 15.5769   3
   1   3  -9 481.700 21.6119   3
   1   3  -9 475.739 23.1499   7
   1   3  -9 487.190 22.3090   2
  -1  -3   9 482.155 20.8122   3
   0   3  -9 1.16864 1.74227   2
   0   3  -9 1.40048 1.43248   7
   0   3  -9 -0.1916 1.35543   3
   0  -3   9 1.34845 1.39085   4
   0  -3   9 1.98309 1.31751   3
  -1   3  -9 156.278 13.2691   7
  -1   3  -9 156.649 11.7323   2
   1  -3   9 141.936 16.4950   4
  -2   3  -9 1713.41 61.1935   2
  -2   3  -9 1819.42 55.3318   6
  -2   3  -9 1709.78 60.4486   7
   2  -3   9 1744.05 55.4936   2
   2  -3   9 1656.42 61.0427   4
  -3   3  -9 262.732 23.8003   7
  -3   3  -9 278.237 13.8447   6
  -3   3  -9 281.658 17.3067   2
   3  -3   9 300.767 16.8278   2
   3  -3   9 217.025 18.8316   4
  -4   3  -9 539.653 19.8702   6
  -4   3  -9 532.596 29.0658   7
  -4   3  -9 532.091 26.6423   2
   4  -3   9 545.826 25.8967   2
  -5   3  -9 0.93691 3.55444   7
   5  -3   9 11.8031 4.84714   4
   5  -3   9 -0.1977 2.60330   2
  -6   3  -9 5.40568 2.93591   7
  -6   3  -9 5.13635 3.71750   2
   6  -3   9 5.18216 3.56929   2
   7  -3   9 473.614 31.9930   2
   7   2  -9 163.572 22.6767   2
   6   2  -9 1.60217 3.54458   2
   6   2  -9 8.07601 3.90129   1
   6   2  -9 16.1638 6.04089   3
  -6  -2   9 19.5364 7.34148   4
  -6  -2   9 8.58254 6.04134   5
   5   2  -9 706.689 36.4174   3
  -5  -2   9 688.996 33.6136   3
  -5  -2   9 660.849 37.1907   5
   4   2  -9 790.575 34.8073   1
   4   2  -9 804.825 37.7023   3
  -4  -2   9 856.463 36.6246   3
  -4  -2   9 854.382 40.8287   5
   3   2  -9 27.8022 6.50294   3
   3   2  -9 32.5063 6.45543   1
   3   2  -9 20.1111 4.31231   7
  -3  -2   9 38.9069 6.90974   3
  -3  -2   9 32.6849 7.15864   5
   2   2  -9 361.776 18.3330   1
   2   2  -9 394.677 20.5660   3
   2   2  -9 369.444 18.0038   7
  -2  -2   9 336.924 18.5121   3
   1   2  -9 2.06179 1.72890   7
   1   2  -9 6.57603 2.32130   3
   1   2  -9 0.96784 1.40634   2
  -1  -2   9 3.45121 1.50725   3
   0   2  -9 7.06243 2.18590   3
   0   2  -9 12.0775 3.50475   2
   0   2  -9 6.13409 2.59540   7
   0  -2   9 3.56759 1.90970   4
   0  -2   9 13.1135 2.97860   1
  -1   2  -9 3176.69 93.8782   2
  -1   2  -9 3373.21 96.7258   7
   1  -2   9 3174.92 87.6325   1
   1  -2   9 3180.35 94.0023   4
  -2   2  -9 642.672 27.3291   2
  -2   2  -9 598.638 28.1499   7
   2  -2   9 607.533 25.6978   2
   2  -2   9 562.159 27.4848   4
  -3   2  -9 365.283 14.7246   6
  -3   2  -9 344.717 20.9272   7
  -3   2  -9 348.974 19.7365   2
   3  -2   9 357.876 19.0446   2
   3  -2   9 342.898 21.8561   4
  -4   2  -9 41.5816 7.09209   4
  -4   2  -9 44.6294 7.42986   2
  -4   2  -9 43.2045 8.33987   7
   4  -2   9 48.3955 7.35173   2
   4  -2   9 38.3934 8.79037   4
  -5   2  -9 153.454 14.7306   7
  -5   2  -9 135.002 14.0226   4
   5  -2   9 133.342 12.3743   2
   5  -2   9 141.063 21.5972   4
  -6   2  -9 787.649 36.9111   2
  -6   2  -9 806.554 37.5923   7
  -6   2  -9 831.818 40.0086   4
   6  -2   9 684.404 34.6126   2
   6  -2   9 786.020 46.7862   4
  -7   2  -9 61.2934 12.4406   7
  -7   2  -9 94.1040 14.0456   4
   7  -2   9 69.8361 11.5588   2
   6   1  -9 22.7243 8.37884   3
   6   1  -9 19.1691 6.24806   2
  -6  -1   9 39.8584 9.86481   4
  -6  -1   9 18.9204 7.40171   5
   5   1  -9 1158.24 50.3283   3
   5   1  -9 1228.98 61.2768   1
  -5  -1   9 1140.52 52.2435   5
  -5  -1   9 1138.44 47.2642   3
  -5  -1   9 1108.60 43.9924   4
   4   1  -9 27.4322 7.08693   1
   4   1  -9 25.0481 6.55517   3
  -4  -1   9 29.8596 6.10151   4
  -4  -1   9 31.7909 8.33367   5
   3   1  -9 1347.22 49.4507   3
   3   1  -9 1280.45 47.5796   1
  -3  -1   9 1317.74 47.7359   3
  -3  -1   9 1308.38 52.8970   5
   2   1  -9 24.3161 5.50779   1
   2   1  -9 34.5930 6.06024   3
  -2  -1   9 30.2266 5.35322   3
   1   1  -9 511.227 23.1461   3
   1   1  -9 510.694 22.6869   1
  -1  -1   9 516.701 21.9774   1
  -1  -1   9 528.857 22.7062   3
   0   1  -9 4358.85 119.918   3
   0   1  -9 4503.15 123.840   2
   0  -1   9 4351.57 119.219   1
   0  -1   9 4424.03 118.212   4
  -1   1  -9 121.703 10.2899   2
  -1   1  -9 126.192 8.54814   3
   1  -1   9 125.514 9.07580   1
   1  -1   9 118.939 8.74690   4
  -2   1  -9 2142.99 65.8914   2
   2  -1   9 2138.83 64.4514   2
   2  -1   9 1942.32 64.2385   4
  -3   1  -9 300.209 17.0115   4
  -3   1  -9 294.724 17.4843   2
  -3   1  -9 307.885 18.9835   7
   3  -1   9 301.237 17.0500   2
   3  -1   9 287.144 18.4920   4
  -4   1  -9 1.87146 2.63220   7
  -4   1  -9 4.61244 2.55529   4
  -4   1  -9 0.81275 1.79976   2
   4  -1   9 1.27539 2.04792   2
   4  -1   9 3.52755 2.45215   4
  -5   1  -9 666.496 32.7263   2
  -5   1  -9 822.470 36.5244   7
   5  -1   9 705.337 37.5383   4
   5  -1   9 856.187 47.6349   2
  -6   1  -9 423.860 24.6093   7
  -6   1  -9 384.137 27.9720   2
  -6   1  -9 401.920 25.4382   4
   6  -1   9 353.714 22.6826   2
   6  -1   9 369.616 25.8908   5
   6  -1   9 437.991 29.8865   4
  -7   1  -9 145.707 14.6166   7
  -7   1  -9 130.674 15.8832   4
   7  -1   9 137.271 15.1507   2
  -8   1  -9 136.616 16.1186   7
  -8   1  -9 144.686 18.5411   4
   8  -1   9 112.664 14.9399   2
   6   0  -9 620.936 35.8566   2
   6   0  -9 594.637 35.6186   3
  -6   0   9 513.138 27.8213   4
  -6   0   9 507.240 34.0604   5
   5   0  -9 160.191 16.3857   1
   5   0  -9 173.350 17.2466   3
  -5   0   9 169.597 13.2495   4
  -5   0   9 139.537 16.8178   5
  -5   0   9 174.530 16.4406   3
   4   0  -9 1365.12 52.8054   3
  -4   0   9 1258.39 53.9929   5
   3   0  -9 10.0305 3.70003   3
   3   0  -9 11.8499 3.18633   1
  -3   0   9 32.5432 6.49399   3
  -3   0   9 9.19153 3.35424   5
   2   0  -9 56.2134 8.43988   1
   2   0  -9 69.9773 8.73606   3
  -2   0   9 68.5571 9.58505   5
  -2   0   9 65.7665 8.45935   1
   1   0  -9 3105.03 91.7119   3
   1   0  -9 3116.50 92.8001   1
  -1   0   9 3140.66 91.3315   1
   0   0  -9 7.75629 2.47866   3
   0   0  -9 6.11169 2.28430   2
   0   0   9 7.05944 2.39870   1
  -1   0  -9 2376.22 73.0047   2
  -1   0  -9 2440.10 67.8550   3
   1   0   9 2298.77 71.1421   1
  -2   0  -9 191.740 13.3183   2
  -2   0  -9 187.355 10.8792   3
   2   0   9 199.016 11.9771   4
   2   0   9 192.446 12.7856   2
  -3   0  -9 152.003 11.9904   2
  -3   0  -9 148.142 10.6240   4
   3   0   9 140.969 11.1827   2
   3   0   9 141.771 11.6250   4
  -4   0  -9 2446.46 79.0720   2
  -4   0  -9 2533.17 77.7622   4
   4   0   9 2637.11 82.5323   4
  -5   0  -9 133.535 13.2461   7
  -5   0  -9 141.997 12.9571   2
  -5   0  -9 150.766 13.0377   4
  -6   0  -9 1308.38 51.6227   2
  -6   0  -9 1348.22 52.1709   4
   6   0   9 1297.86 50.9047   2
  -7   0  -9 24.9480 7.92518   2
  -7   0  -9 45.4166 9.24568   7
  -7   0  -9 26.7275 6.78445   4
   7   0   9 38.5497 10.0148   5
   7   0   9 27.5532 7.62442   2
  -8   0  -9 9.40470 4.67216   7
  -8   0  -9 5.69503 5.22069   4
   8   0   9 4.04229 4.37070   2
   6  -1  -9 15.5110 7.50422   3
   6  -1  -9 15.2530 6.39840   2
  -6   1   9 8.16083 6.19349   5
  -6   1   9 3.71839 4.05415   4
   5  -1  -9 696.886 43.8257   1
   5  -1  -9 704.752 37.2858   3
  -5   1   9 631.111 37.5714   5
  -5   1   9 681.499 29.4194   4
   4  -1  -9 51.6302 14.1233   1
   4  -1  -9 48.4325 9.21150   3
  -4   1   9 68.8685 11.3202   5
   3  -1  -9 615.676 32.1504   1
   3  -1  -9 641.903 32.0109   3
   2  -1  -9 1003.54 40.3867   3
   2  -1  -9 994.087 42.3926   1
  -2   1   9 1025.23 41.4210   1
  -2   1   9 1008.47 41.7347   5
   1  -1  -9 336.119 20.5775   1
   1  -1  -9 349.416 19.4606   3
  -1   1   9 377.622 20.5354   1
   0  -1  -9 3469.79 100.322   3
   0   1   9 3682.02 104.357   1
  -1  -1  -9 242.258 15.2771   2
  -1  -1  -9 258.437 13.2383   3
   1   1   9 256.646 16.1400   1
  -2  -1  -9 38.5353 5.99628   2
  -2  -1  -9 42.3456 4.31469   4
   2   1   9 31.6378 5.50565   2
  -3  -1  -9 2539.41 72.8466   4
  -3  -1  -9 2419.62 67.7099   6
  -3  -1  -9 2489.47 76.8577   2
   3   1   9 2585.94 76.6802   2
  -4  -1  -9 81.3241 8.93217   2
  -4  -1  -9 56.2880 6.15396   3
  -4  -1  -9 63.6838 7.64375   4
   4   1   9 71.6369 8.31710   2
  -5  -1  -9 1124.02 42.4689   4
  -5  -1  -9 1122.61 37.2794   3
  -5  -1  -9 1013.71 41.9029   2
   5   1   9 1068.75 42.2196   2
  -6  -1  -9 207.426 13.0399   3
  -6  -1  -9 186.173 15.7087   4
   6   1   9 194.062 16.1583   5
   6   1   9 206.753 16.3204   2
  -7  -1  -9 53.2767 9.66124   2
  -7  -1  -9 38.5160 9.17969   7
  -7  -1  -9 58.8020 9.84157   4
   7   1   9 50.6490 10.1482   2
  -8  -1  -9 542.235 28.7239   7
  -8  -1  -9 543.399 25.7647   3
  -8  -1  -9 555.409 33.6854   4
   8   1   9 518.894 44.3333   2
   5  -2  -9 121.140 15.3732   3
  -5   2   9 115.961 11.7932   4
  -5   2   9 100.781 16.4737   5
   4  -2  -9 -3.1556 1.94720   7
   4  -2  -9 7.82947 4.01173   3
   4  -2  -9 -3.4021 2.67754   1
  -4   2   9 -4.3698 3.20577   5
   3  -2  -9 319.167 21.4819   3
  -3   2   9 297.703 21.0210   5
   2  -2  -9 24.5544 5.99171   3
   2  -2  -9 25.3603 7.39500   1
  -2   2   9 29.1188 7.41818   5
   1  -2  -9 1984.95 68.8370   1
   1  -2  -9 1892.34 63.5493   3
  -1   2   9 2039.84 67.2927   1
  -1   2   9 1995.94 65.7838   5
   0  -2  -9 25.5791 5.09781   3
   0  -2  -9 18.0710 4.71794   2
   0   2   9 19.8252 5.77015   1
  -1  -2  -9 411.938 22.0305   2
   1   2   9 410.576 22.8746   1
  -2  -2  -9 1609.84 50.8178   6
  -2  -2  -9 1691.36 57.3129   2
   2   2   9 1640.23 56.3395   1
  -3  -2  -9 2.84799 1.47533   4
  -3  -2  -9 -1.4172 0.91896   2
  -3  -2  -9 -0.7740 0.78636   6
   3   2   9 0.63282 1.39075   2
  -4  -2  -9 2367.07 75.8706   2
  -4  -2  -9 2494.67 74.0245   4
   4   2   9 2467.61 76.1955   2
  -5  -2  -9 932.508 38.6818   2
  -5  -2  -9 942.116 35.5833   3
  -5  -2  -9 1005.44 38.8894   4
   5   2   9 978.903 39.1399   2
  -6  -2  -9 -2.1532 1.77283   4
  -6  -2  -9 -3.0894 1.65921   3
   6   2   9 0.45161 2.95134   5
   6   2   9 -0.7130 2.01911   2
  -7  -2  -9 423.209 22.5145   3
  -7  -2  -9 445.657 26.4427   2
  -7  -2  -9 467.782 27.5219   4
   7   2   9 410.231 25.5973   2
  -8  -2  -9 43.7947 11.3032   4
  -8  -2  -9 15.4251 5.31169   7
  -8  -2  -9 25.7885 6.22246   3
   8   2   9 18.8701 6.06774   2
   8   2   9 26.3006 7.43031   5
  -9  -2  -9 307.891 21.3479   3
  -9  -2  -9 326.518 28.2105   4
  -9  -2  -9 338.792 21.7310   7
   5  -3  -9 118.129 16.4085   3
   5  -3  -9 109.211 14.7286   2
   5  -3  -9 99.1667 10.2169   7
  -5   3   9 119.032 16.3115   5
   4  -3  -9 495.956 30.2451   3
   4  -3  -9 492.833 24.6179   7
  -4   3   9 552.152 31.7671   5
   3  -3  -9 308.549 22.0078   3
  -3   3   9 298.569 21.9974   5
   2  -3  -9 2111.52 78.0862   1
   2  -3  -9 2127.16 72.6309   3
  -2   3   9 2188.31 72.4144   5
  -2   3   9 2123.17 76.0266   1
   1  -3  -9 213.216 15.1017   3
   1  -3  -9 221.296 16.8754   6
   1  -3  -9 221.807 18.5208   1
  -1   3   9 221.328 17.5607   1
  -1   3   9 221.303 15.8916   5
   0  -3  -9 21.0314 5.47348   6
   0  -3  -9 19.0235 4.83679   2
   0  -3  -9 19.4011 4.65294   3
   0   3   9 21.1724 6.21889   1
   0   3   9 22.2208 4.47696   5
  -1  -3  -9 458.174 23.7061   2
  -1  -3  -9 452.519 22.6880   6
   1   3   9 480.100 26.4017   1
  -2  -3  -9 31.5373 6.92424   2
  -2  -3  -9 22.6042 4.54168   6
   2   3   9 22.4485 6.21909   1
  -3  -3  -9 2229.80 71.3811   2
  -3  -3  -9 2265.88 67.4636   6
  -3  -3  -9 2387.34 68.5628   4
   3   3   9 2363.28 71.7706   2
  -4  -3  -9 310.761 14.0314   6
  -4  -3  -9 297.977 17.8337   2
  -4  -3  -9 316.952 17.1683   4
   4   3   9 289.441 17.4462   2
  -5  -3  -9 143.238 12.6774   4
  -5  -3  -9 149.309 12.7930   2
  -5  -3  -9 142.705 11.9398   3
   5   3   9 153.263 12.8835   2
  -6  -3  -9 582.092 29.4052   2
  -6  -3  -9 611.891 30.4091   4
  -6  -3  -9 597.435 27.9929   3
   6   3   9 600.995 29.6226   2
   6   3   9 600.480 27.9723   5
  -7  -3  -9 23.7944 7.01841   2
  -7  -3  -9 32.2020 9.29838   4
  -7  -3  -9 20.7068 5.57307   3
   7   3   9 15.4484 4.48512   2
   7   3   9 32.3587 8.01560   5
  -8  -3  -9 978.566 47.0788   4
   8   3   9 1014.33 43.8971   5
   8   3   9 967.532 45.1977   2
  -9  -3  -9 134.912 14.1077   7
  -9  -3  -9 121.293 14.4940   3
  -9  -3  -9 111.475 17.0458   4
   9   3   9 125.252 16.3303   2
   4  -4  -9 266.561 22.4075   3
   4  -4  -9 226.170 16.2912   7
  -4   4   9 214.852 20.5824   5
   3  -4  -9 864.383 42.5561   6
   3  -4  -9 813.857 45.2875   1
   3  -4  -9 829.830 35.7103   7
   3  -4  -9 872.409 41.2402   3
  -3   4   9 798.858 39.6064   5
   2  -4  -9 24.4968 6.81543   3
  -2   4   9 14.4613 4.59951   1
  -2   4   9 8.17022 4.62095   5
   1  -4  -9 111.705 12.1510   3
  -1   4   9 119.540 11.6842   5
  -1   4   9 126.502 14.2405   1
   0  -4  -9 664.715 31.7792   6
   0  -4  -9 602.770 28.0107   3
   0  -4  -9 648.187 29.6412   2
   0   4   9 678.496 33.8485   1
   0   4   9 657.949 27.8855   5
  -1  -4  -9 228.765 15.9486   6
  -1  -4  -9 205.493 14.6803   2
   1   4   9 218.591 18.1648   1
   1   4   9 220.129 13.0353   5
  -2  -4  -9 3927.59 112.402   2
  -2  -4  -9 3854.40 113.639   6
   2   4   9 3933.60 120.199   1
  -3  -4  -9 421.029 20.5822   6
  -3  -4  -9 440.940 21.8074   2
   3   4   9 445.278 25.9088   1
  -4  -4  -9 184.555 13.3620   4
  -4  -4  -9 190.569 14.0226   2
  -4  -4  -9 210.052 12.6380   6
   4   4   9 200.335 14.2287   2
  -5  -4  -9 305.525 18.9527   3
  -5  -4  -9 287.372 18.7332   4
  -5  -4  -9 272.477 17.9105   2
   5   4   9 314.952 18.9479   2
  -6  -4  -9 7.24540 2.98382   2
  -6  -4  -9 6.28058 3.54097   4
  -6  -4  -9 3.54967 2.82054   3
   6   4   9 4.19178 3.20501   5
   6   4   9 4.72123 2.80534   2
  -7  -4  -9 1240.05 50.4172   2
  -7  -4  -9 1287.92 53.1466   4
   7   4   9 1303.62 46.8647   5
   7   4   9 1227.18 50.0825   2
  -8  -4  -9 238.097 21.3825   4
  -8  -4  -9 247.159 19.1862   3
   8   4   9 216.280 19.4576   2
  -9  -4  -9 -6.2311 4.08324   4
   9   4   9 -2.4843 3.33964   2
   9   4   9 4.92214 4.36346   5
   4  -5  -9 644.695 39.6592   2
   4  -5  -9 712.784 33.8104   7
   4  -5  -9 760.292 40.2060   3
  -4   5   9 710.759 46.4527   5
   3  -5  -9 156.756 15.3728   7
   3  -5  -9 173.470 18.7630   3
  -3   5   9 138.006 16.4626   5
   2  -5  -9 -0.2372 3.19374   6
   2  -5  -9 0.31257 3.76571   3
   2  -5  -9 0.39739 2.45740   7
   2  -5  -9 2.25324 3.38612   1
  -2   5   9 -1.0265 3.28318   5
  -2   5   9 -3.7996 2.78324   1
   1  -5  -9 47.4747 8.18818   3
  -1   5   9 52.2859 10.7851   1
  -1   5   9 57.9247 9.11613   5
   0  -5  -9 894.588 37.0166   2
   0   5   9 914.392 34.9963   5
   0   5   9 846.194 41.5860   1
  -1  -5  -9 1575.11 55.5980   2
  -1  -5  -9 1675.55 59.3961   6
   1   5   9 1703.46 64.7214   1
   1   5   9 1636.50 51.8104   5
  -2  -5  -9 298.690 17.5276   2
  -2  -5  -9 283.261 18.3501   6
   2   5   9 290.830 22.5354   1
  -3  -5  -9 38.8001 6.64032   6
  -3  -5  -9 31.6655 5.86916   2
   3   5   9 54.9706 9.83358   1
  -4  -5  -9 779.556 32.7750   2
  -4  -5  -9 852.771 37.7400   6
   4   5   9 815.583 33.4426   2
  -5  -5  -9 197.870 14.7635   2
  -5  -5  -9 196.672 15.5383   3
   5   5   9 207.182 13.3409   6
   5   5   9 206.587 15.0051   2
  -6  -5  -9 2039.98 68.0743   2
  -6  -5  -9 2034.30 72.8371   4
   6   5   9 2005.71 61.4089   6
   6   5   9 1921.17 67.0937   2
  -7  -5  -9 139.487 17.9127   3
  -7  -5  -9 158.338 16.9339   4
  -7  -5  -9 173.274 15.8678   2
   7   5   9 167.253 10.8552   6
   7   5   9 155.460 14.7234   2
   7   5   9 165.099 12.3179   5
  -8  -5  -9 96.4979 13.5001   3
  -8  -5  -9 60.6113 14.1466   4
   8   5   9 120.216 11.5811   5
   8   5   9 94.1560 13.2574   2
  -9  -5  -9 59.6147 14.5949   4
   9   5   9 61.5060 13.0137   2
   3  -6  -9 -4.3631 4.53161   3
  -3   6   9 -0.2920 4.58517   5
   2  -6  -9 51.3401 11.7931   3
   2  -6  -9 70.0942 10.8087   7
  -2   6   9 69.7938 13.9889   1
  -2   6   9 68.8344 11.8471   5
   1  -6  -9 376.559 25.9748   6
   1  -6  -9 399.783 24.0796   3
   1  -6  -9 354.910 28.1456   1
  -1   6   9 356.924 21.7463   5
  -1   6   9 330.161 25.6507   1
   0  -6  -9 1172.96 45.5898   2
   0   6   9 1255.74 44.3452   5
   0   6   9 1211.44 53.7071   1
  -1  -6  -9 240.438 15.8846   2
  -1  -6  -9 234.278 13.1000   4
   1   6   9 248.968 21.2885   1
   1   6   9 244.669 13.8919   5
  -2  -6  -9 167.714 14.6000   6
  -2  -6  -9 186.412 13.2914   2
   2   6   9 172.996 18.3668   1
  -3  -6  -9 30.5352 5.97041   2
  -3  -6  -9 18.5983 4.89125   6
   3   6   9 33.6417 8.58165   1
  -4  -6  -9 2.08983 2.82609   2
  -4  -6  -9 -0.2437 2.45856   6
   4   6   9 2.38498 2.96358   1
   4   6   9 6.50061 2.72246   6
  -5  -6  -9 1439.64 58.7812   3
  -5  -6  -9 1574.69 53.8358   2
   5   6   9 1502.36 53.3314   2
   5   6   9 1564.64 53.4117   6
  -6  -6  -9 89.5941 12.1392   3
  -6  -6  -9 86.1355 10.3569   2
   6   6   9 97.1472 9.94370   6
   6   6   9 103.492 11.0361   2
  -7  -6  -9 40.8771 8.47165   2
  -7  -6  -9 15.3143 5.10361   4
  -7  -6  -9 10.2577 4.65634   3
   7   6   9 31.8549 6.95648   6
   7   6   9 14.1727 4.61980   2
  -8  -6  -9 21.3654 7.02148   4
   8   6   9 31.1861 7.87812   2
   8   6   9 37.8086 7.97629   6
   2  -7  -9 339.779 26.4512   3
  -2   7   9 309.297 27.3104   1
   1  -7  -9 674.079 34.2852   3
   1  -7  -9 630.051 31.4502   2
  -1   7   9 628.090 38.8722   1
   0  -7  -9 16.6681 4.27934   2
   0  -7  -9 5.82640 2.70816   4
   0  -7  -9 7.92613 4.68148   7
   0   7   9 6.51802 3.71224   5
   0   7   9 5.23033 4.24192   1
  -1  -7  -9 49.6314 8.29513   2
  -1  -7  -9 69.4600 11.3961   6
  -1  -7  -9 59.5593 7.45984   4
   1   7   9 43.7779 12.8820   1
  -2  -7  -9 222.145 14.9165   2
  -2  -7  -9 244.398 23.6894   6
   2   7   9 242.645 23.1348   1
  -3  -7  -9 135.435 11.3362   2
   3   7   9 124.530 17.3541   1
  -4  -7  -9 1471.15 49.6166   2
   4   7   9 1439.44 54.6475   6
   4   7   9 1348.45 61.4119   1
  -5  -7  -9 175.785 16.2276   3
  -5  -7  -9 185.540 14.4020   2
   5   7   9 213.341 21.0408   6
  -6  -7  -9 81.8685 11.1165   2
   6   7   9 89.8300 10.9070   2
   6   7   9 78.3924 10.9144   6
  -7  -7  -9 6.33607 4.00787   2
   7   7   9 -5.1617 3.02345   6
   7   7   9 2.18429 3.19311   2
   8   7   9 9.94785 5.62201   2
   8   7   9 18.8703 5.36915   6
   1  -8  -9 13.4611 5.91184   2
   0  -8  -9 99.6764 10.6682   4
   0  -8  -9 140.977 12.5176   2
   0   8   9 98.6538 18.2104   1
  -1  -8  -9 26.2091 6.10772   2
  -1  -8  -9 2.14582 2.57659   4
  -2  -8  -9 273.354 16.2959   2
   2   8   9 240.260 23.7681   1
  -3  -8  -9 933.531 35.6361   2
  -3  -8  -9 969.857 44.1521   6
   3   8   9 900.806 49.3370   1
  -4  -8  -9 0.65022 3.62819   6
  -4  -8  -9 -7.1390 2.62753   2
   4   8   9 -4.4228 2.87718   6
   4   8   9 -4.9783 4.45167   1
  -5  -8  -9 131.503 11.7482   2
   5   8   9 105.302 13.4023   6
   5   8   9 65.9427 15.7505   1
  -6  -8  -9 2.83438 3.15394   2
   6   8   9 13.1762 4.13626   2
   6   8   9 16.2004 5.05223   6
   7   8   9 20.8712 6.11147   6
   7   8   9 23.6421 6.59403   2
  -1  -9  -9 291.651 17.0270   2
  -1  -9  -9 275.537 18.3060   4
   1   9   9 286.432 27.8375   1
  -2  -9  -9 412.536 19.8297   2
   2   9   9 354.056 30.5748   1
   3   9   9 -2.8657 6.88515   1
  -4  -9  -9 121.769 11.5866   2
   4   9   9 104.165 15.6743   6
   4   9   9 87.1116 20.9479   1
  -5  -9  -9 -6.2666 3.18780   2
   5   9   9 -4.4934 5.11993   1
   5   9   9 -9.0526 3.95458   6
  -6  -9  -9 64.7190 10.8556   2
   6   9   9 95.3245 18.4353   1
   6   9   9 96.2484 15.2353   6
   2   8 -10 200.727 23.3463   7
   2   8 -10 248.189 23.6526   6
  -2  -8  10 240.674 15.8118   3
   1   8 -10 -3.6908 3.65114   6
   1   8 -10 -3.4500 6.29168   7
   4   7 -10 78.4643 10.6891   2
   4   7 -10 60.0606 11.3994   2
   4   7 -10 74.1870 14.1406   3
  -4  -7  10 62.5374 16.9947   3
   3   7 -10 349.860 17.8243   2
   3   7 -10 322.878 22.6965   7
   3   7 -10 297.529 20.9460   3
  -3  -7  10 334.283 20.1249   3
   2   7 -10 198.746 21.1446   6
   2   7 -10 231.176 18.6127   7
  -2  -7  10 258.327 14.9819   3
   1   7 -10 733.832 38.8425   7
   1   7 -10 709.765 39.5001   6
   0   7 -10 -2.5798 5.44583   7
   0   7 -10 1.47910 3.83822   6
  -1   7 -10 -7.0478 3.93340   7
  -1   7 -10 2.82937 4.33053   6
  -2   7 -10 96.9926 15.8411   6
  -2   7 -10 104.874 17.4217   7
   5   6 -10 7.63272 4.95846   2
   5   6 -10 8.94020 6.10345   3
  -5  -6  10 -3.0589 5.43245   5
   4   6 -10 128.698 13.1449   7
   4   6 -10 129.685 15.4693   3
  -4  -6  10 145.285 16.1484   3
   3   6 -10 299.414 20.7853   3
   3   6 -10 306.792 17.8845   2
   3   6 -10 274.969 29.6476   7
  -3  -6  10 295.254 19.8156   3
   2   6 -10 344.828 19.4083   2
   2   6 -10 310.436 21.5456   7
   2   6 -10 365.451 20.9778   3
  -2  -6  10 328.318 19.1147   3
   1   6 -10 -1.1892 2.42043   7
   1   6 -10 -2.1352 2.19086   2
   1   6 -10 -0.0704 2.73725   6
   0   6 -10 84.1599 9.12042   2
   0   6 -10 71.0243 12.0241   7
   0   6 -10 83.1674 12.3057   6
   0  -6  10 76.6682 12.9168   4
  -1   6 -10 712.386 35.5888   6
  -1   6 -10 646.008 27.5740   2
  -1   6 -10 683.098 37.6247   7
   1  -6  10 692.553 37.2196   4
  -2   6 -10 132.756 17.0196   7
  -2   6 -10 128.191 11.5434   2
  -2   6 -10 149.585 18.0280   6
  -3   6 -10 1048.53 39.2542   2
  -3   6 -10 993.703 41.8198   6
  -3   6 -10 976.203 48.2889   7
   6   5 -10 24.4929 7.49706   3
   6   5 -10 24.6281 8.66340   2
  -6  -5  10 58.9534 13.3280   5
   5   5 -10 82.0533 11.0701   1
   5   5 -10 76.9804 13.3094   3
  -5  -5  10 74.9691 14.4012   5
   4   5 -10 478.618 24.0225   7
   4   5 -10 487.331 28.8292   3
  -4  -5  10 553.576 28.6191   3
  -4  -5  10 458.891 30.7094   5
   3   5 -10 1273.19 49.8954   3
   3   5 -10 1199.17 44.3082   2
   3   5 -10 1187.73 45.6166   7
  -3  -5  10 1228.21 46.8188   3
   2   5 -10 1.06383 2.69065   2
   2   5 -10 6.89594 3.32495   3
   2   5 -10 -0.0911 2.39000   7
  -2  -5  10 -1.3770 1.92051   3
   1   5 -10 -0.2648 2.92539   7
   1   5 -10 4.59912 2.59175   3
   1   5 -10 4.25848 5.19427   2
  -1  -5  10 -1.3575 2.22370   3
   0   5 -10 305.041 18.0288   2
   0   5 -10 318.812 21.8885   7
  -1   5 -10 418.164 26.6580   7
  -1   5 -10 527.126 33.5337   2
  -1   5 -10 449.240 25.6567   6
  -2   5 -10 745.762 33.4357   6
  -2   5 -10 739.022 31.0681   2
  -2   5 -10 717.333 37.5029   7
   2  -5  10 754.105 38.8453   4
  -3   5 -10 -2.6057 3.56317   7
  -3   5 -10 0.76028 2.67492   2
  -3   5 -10 -4.2187 2.64363   6
   3  -5  10 2.50373 2.94985   2
   3  -5  10 9.41187 4.10460   4
  -4   5 -10 4.71880 2.75209   6
  -4   5 -10 5.65475 5.84452   7
   4  -5  10 -4.5464 2.10386   1
   4  -5  10 -0.6963 2.74605   2
  -5   5 -10 150.489 15.2221   2
  -5   5 -10 117.814 17.2781   7
   5  -5  10 172.617 15.2084   2
   5  -5  10 145.715 13.5706   1
   6   4 -10 13.7512 5.08398   1
   6   4 -10 14.5317 6.50654   3
   6   4 -10 9.02558 6.20381   2
  -6  -4  10 13.2905 7.48190   5
   5   4 -10 521.965 32.0373   3
   5   4 -10 528.080 27.1072   1
  -5  -4  10 502.126 32.9706   5
   4   4 -10 820.981 37.5945   3
   4   4 -10 681.276 28.3161   7
   4   4 -10 719.390 30.4107   1
  -4  -4  10 854.320 47.0005   3
  -4  -4  10 652.610 37.8514   5
   3   4 -10 8.61692 1.78845   1
   3   4 -10 8.80617 2.84289   7
  -3  -4  10 8.40191 4.10538   3
   2   4 -10 0.10748 1.89480   2
   2   4 -10 -2.1300 2.18082   3
   2   4 -10 -1.0290 1.86310   7
  -2  -4  10 -1.2305 1.78749   3
   1   4 -10 450.626 21.0883   3
   1   4 -10 404.338 23.1352   7
   1   4 -10 460.115 21.9855   2
  -1  -4  10 437.998 19.6387   3
   0   4 -10 400.664 23.5010   7
   0   4 -10 452.119 31.7776   2
   0  -4  10 422.565 23.5237   4
  -1   4 -10 2850.02 93.0580   7
  -1   4 -10 2798.84 87.4716   2
  -1   4 -10 2993.09 90.8437   6
   1  -4  10 3090.62 94.6114   4
  -2   4 -10 138.944 14.2875   7
  -2   4 -10 139.433 12.1586   2
  -2   4 -10 139.890 12.1061   6
  -3   4 -10 152.999 11.8893   6
  -3   4 -10 156.684 15.5865   7
  -3   4 -10 149.003 13.1975   2
   3  -4  10 169.781 16.8081   4
   3  -4  10 163.142 12.7367   2
  -4   4 -10 8.51533 2.67969   6
  -4   4 -10 0.93327 1.97636   2
  -4   4 -10 5.29265 4.53865   7
   4  -4  10 14.0053 5.78675   4
   4  -4  10 7.69129 3.80537   2
   4  -4  10 7.05592 2.44629   1
  -5   4 -10 18.3652 5.33506   7
  -5   4 -10 13.8583 4.96257   2
  -6   4 -10 340.014 26.0533   7
   6  -4  10 276.094 20.3180   1
   6  -4  10 296.774 21.3897   2
   6   3 -10 707.957 36.5889   1
   6   3 -10 670.512 39.2884   3
   6   3 -10 623.443 44.6909   2
  -6  -3  10 634.124 35.7155   4
  -6  -3  10 727.495 42.4087   5
   5   3 -10 1336.56 56.4345   3
  -5  -3  10 1334.32 59.6327   5
   4   3 -10 167.721 15.7451   3
   4   3 -10 160.047 13.8026   1
  -4  -3  10 136.019 17.2407   5
   3   3 -10 136.476 11.5732   1
   3   3 -10 131.939 13.7381   3
   3   3 -10 130.961 10.6276   7
  -3  -3  10 136.711 12.1828   3
   2   3 -10 54.3747 7.68392   7
   2   3 -10 56.3848 6.36517   1
   2   3 -10 62.4502 8.03018   3
  -2  -3  10 63.6978 7.16041   3
   1   3 -10 1403.91 47.2903   3
   1   3 -10 1426.32 49.9004   7
   1   3 -10 1399.78 48.7061   2
  -1  -3  10 1424.16 46.2169   3
   0   3 -10 1534.39 52.4537   2
   0   3 -10 1507.39 53.9344   7
   0   3 -10 1535.90 48.0150   3
   0  -3  10 1577.94 52.9426   4
  -1   3 -10 62.0066 7.94227   2
  -1   3 -10 55.2459 8.33129   7
   1  -3  10 46.9018 8.19861   4
  -2   3 -10 42.0591 11.2306   7
  -2   3 -10 54.8453 8.20431   2
  -2   3 -10 51.2316 7.17116   6
   2  -3  10 48.5503 7.03641   2
   2  -3  10 47.4653 8.16676   4
  -3   3 -10 386.662 24.2042   7
  -3   3 -10 435.698 18.9458   6
  -3   3 -10 393.241 22.2032   2
   3  -3  10 376.811 24.6333   4
   3  -3  10 451.778 22.3046   2
  -4   3 -10 283.695 18.6402   2
  -4   3 -10 258.228 19.8196   7
   4  -3  10 272.225 19.2345   2
   4  -3  10 289.947 25.4389   4
  -5   3 -10 1438.07 57.2673   2
  -5   3 -10 1502.11 58.6221   7
   5  -3  10 1379.87 62.8433   4
   5  -3  10 1487.33 54.1843   2
  -6   3 -10 5.51941 5.30344   7
   6  -3  10 0.54680 3.31503   2
   6   2 -10 259.253 32.5192   1
   6   2 -10 289.163 23.8688   3
   6   2 -10 239.202 22.4222   2
  -6  -2  10 326.593 31.9030   4
  -6  -2  10 221.484 24.4952   5
   5   2 -10 116.508 14.8863   3
  -5  -2  10 118.391 13.0679   4
  -5  -2  10 100.754 15.4134   5
   4   2 -10 41.5529 8.62167   3
   4   2 -10 44.7484 9.20339   1
  -4  -2  10 44.9308 10.0321   5
   3   2 -10 1.63241 2.51145   1
   3   2 -10 5.65003 4.72069   3
   3   2 -10 2.05622 1.94555   7
  -3  -2  10 5.29089 3.27257   5
  -3  -2  10 2.96764 2.19611   3
   2   2 -10 340.267 18.2152   1
   2   2 -10 407.432 21.5905   3
   2   2 -10 381.669 19.1527   7
  -2  -2  10 396.279 20.1788   3
   1   2 -10 2739.50 84.6022   2
   1   2 -10 2840.04 83.5166   3
   1   2 -10 2890.72 85.0577   7
  -1  -2  10 2788.04 82.0996   3
   0   2 -10 3.32082 2.41726   7
   0   2 -10 1.52681 2.15030   2
   0   2 -10 -2.0289 1.23273   3
   0  -2  10 4.09991 1.98636   4
   0  -2  10 0.67217 1.30484   1
  -1   2 -10 254.365 16.1766   2
  -1   2 -10 266.127 17.1543   7
   1  -2  10 250.978 15.6571   4
   1  -2  10 247.823 12.2671   1
  -2   2 -10 12.4963 3.86400   2
  -2   2 -10 12.1799 3.70768   7
   2  -2  10 8.85520 3.64004   4
   2  -2  10 12.5472 3.57542   2
  -3   2 -10 1179.95 44.4228   2
  -3   2 -10 1164.66 45.9441   7
  -3   2 -10 1188.79 36.8431   6
   3  -2  10 1060.28 45.8441   4
   3  -2  10 1233.52 43.6785   2
  -4   2 -10 1361.60 52.0075   7
  -4   2 -10 1319.82 49.5207   2
   4  -2  10 1317.66 48.4341   2
   4  -2  10 1264.91 53.5779   4
  -5   2 -10 0.25912 2.30607   7
  -5   2 -10 3.20385 2.84595   4
   5  -2  10 2.65495 2.86324   2
   5  -2  10 -2.8235 3.78585   4
  -6   2 -10 64.4372 11.3025   7
  -6   2 -10 34.9644 8.88892   2
  -6   2 -10 55.7725 10.4032   4
   6  -2  10 43.2160 9.29470   2
  -7   2 -10 79.1013 13.5909   7
  -7   2 -10 71.6833 12.8111   4
   7  -2  10 78.5898 17.8416   2
   6   1 -10 43.2598 10.3063   3
  -6  -1  10 58.5405 13.5953   5
   5   1 -10 144.790 16.4691   1
   5   1 -10 131.726 15.2232   3
  -5  -1  10 129.619 17.0698   5
  -5  -1  10 139.121 13.0524   4
   4   1 -10 14.9054 4.75933   3
   4   1 -10 8.30586 3.27470   1
  -4  -1  10 13.5202 5.51105   5
  -4  -1  10 11.6414 3.82131   4
  -4  -1  10 9.93131 4.38215   3
   3   1 -10 1490.58 54.8727   1
   3   1 -10 1524.36 57.2667   3
  -3  -1  10 1599.44 54.5696   3
  -3  -1  10 1412.52 58.8619   5
   2   1 -10 359.304 20.5326   1
   2   1 -10 415.743 22.0110   3
  -2  -1  10 378.809 20.3137   3
   1   1 -10 865.208 35.2142   2
   1   1 -10 860.301 33.8354   3
  -1  -1  10 899.532 32.8042   1
   0   1 -10 16.9873 4.30435   2
   0   1 -10 11.6497 2.86533   3
   0  -1  10 24.3925 4.47598   1
   0  -1  10 15.0429 3.48511   4
  -1   1 -10 76.8966 8.69093   2
  -1   1 -10 82.2203 7.28315   3
   1  -1  10 77.6678 7.65520   1
   1  -1  10 83.0424 7.49068   4
  -2   1 -10 1539.38 53.7440   2
   2  -1  10 1651.83 53.0454   2
   2  -1  10 1488.46 51.8896   4
  -3   1 -10 3267.48 98.9337   2
  -3   1 -10 3301.42 100.725   7
   3  -1  10 3240.07 97.2491   2
   3  -1  10 3390.22 121.430   4
  -4   1 -10 9.16443 3.11343   2
  -4   1 -10 7.21329 2.96925   4
  -4   1 -10 8.15660 3.38464   7
   4  -1  10 4.25109 2.90030   2
   4  -1  10 6.78225 3.08520   4
  -5   1 -10 527.205 28.0686   7
  -5   1 -10 534.328 27.9534   4
   5  -1  10 476.559 26.0269   2
  -6   1 -10 0.79091 3.03944   7
  -6   1 -10 0.42216 2.22865   4
  -6   1 -10 -0.6582 2.12596   2
   6  -1  10 -0.1197 2.33294   2
   6  -1  10 -0.6490 3.02135   4
  -7   1 -10 158.121 16.5443   7
  -7   1 -10 168.205 17.6634   4
   7  -1  10 180.873 17.6403   2
   6   0 -10 54.2704 11.7790   2
   6   0 -10 70.8146 13.2898   3
  -6   0  10 62.8956 14.4071   5
  -6   0  10 41.3934 11.1268   4
   5   0 -10 -3.1104 2.81852   1
   5   0 -10 5.38479 4.40564   3
  -5   0  10 -1.1835 5.03457   5
   4   0 -10 501.210 28.7124   3
  -4   0  10 524.453 32.1200   5
   3   0 -10 1202.44 48.9873   1
   3   0 -10 1266.47 48.6222   3
  -3   0  10 1169.19 50.7609   5
   2   0 -10 49.7771 7.77935   3
   2   0 -10 46.5488 8.09761   1
  -2   0  10 37.4957 7.88575   5
  -2   0  10 46.8079 7.82388   1
   1   0 -10 627.945 28.5639   1
   1   0 -10 617.922 27.8179   3
  -1   0  10 642.932 27.5788   1
   0   0 -10 56.2758 7.30309   2
   0   0 -10 52.6842 6.79619   3
   0   0  10 58.5560 7.27570   1
  -1   0 -10 1780.43 54.4344   3
  -1   0 -10 1777.37 59.5027   2
   1   0  10 1796.08 58.0174   1
  -2   0 -10 1855.94 53.9850   3
  -2   0 -10 1856.45 61.6009   2
   2   0  10 1832.23 57.5077   4
   2   0  10 1887.40 60.6824   2
  -3   0 -10 452.042 20.9620   4
  -3   0 -10 479.451 24.1899   2
   3   0  10 453.734 22.6569   2
   3   0  10 457.514 23.2649   4
  -4   0 -10 756.288 31.6137   4
  -4   0 -10 719.198 32.9936   2
   4   0  10 775.588 32.9550   2
   4   0  10 764.274 34.9272   4
  -5   0 -10 1.82797 2.84669   7
  -5   0 -10 2.99672 1.96960   4
   5   0  10 4.03814 2.23920   2
  -6   0 -10 360.286 23.1216   4
  -6   0 -10 303.040 21.1283   2
  -6   0 -10 331.240 22.0539   7
   6   0  10 300.408 20.6197   2
  -7   0 -10 856.567 39.4133   7
  -7   0 -10 881.961 41.9571   4
   7   0  10 824.222 53.2496   5
   7   0  10 803.757 39.6277   2
  -8   0 -10 -5.6532 2.95592   4
  -8   0 -10 -2.4097 3.94643   7
   8   0  10 1.55483 3.82035   2
   5  -1 -10 1324.65 56.4480   3
  -5   1  10 1291.88 59.0369   5
   4  -1 -10 327.535 23.5685   1
   4  -1 -10 330.950 23.2707   3
  -4   1  10 314.401 24.3605   5
   3  -1 -10 1161.48 47.7331   3
  -3   1  10 1227.14 51.6786   5
   2  -1 -10 468.963 25.3900   3
   2  -1 -10 459.642 26.9575   1
  -2   1  10 476.518 25.9347   1
  -2   1  10 511.826 28.0239   5
   1  -1 -10 143.606 13.2294   1
   1  -1 -10 145.228 12.3742   3
  -1   1  10 141.275 12.3142   1
   0  -1 -10 628.868 28.5326   2
   0  -1 -10 649.674 27.1730   3
   0   1  10 625.746 28.5222   1
  -1  -1 -10 3236.70 91.5312   3
  -1  -1 -10 3207.56 96.6492   2
   1   1  10 3307.72 97.8134   1
  -2  -1 -10 440.708 22.9660   2
   2   1  10 476.299 23.5708   1
  -3  -1 -10 1546.51 48.1210   4
  -3  -1 -10 1484.49 53.1158   2
  -3  -1 -10 1551.53 44.9985   6
   3   1  10 1519.24 52.2381   2
  -4  -1 -10 9.84118 3.77113   2
  -4  -1 -10 3.45230 1.84036   4
   4   1  10 2.46108 2.67584   2
  -5  -1 -10 481.431 24.5924   4
  -5  -1 -10 525.756 21.8915   3
   5   1  10 432.606 28.3683   2
  -6  -1 -10 808.993 30.7436   3
  -6  -1 -10 806.463 36.7448   4
   6   1  10 770.417 36.2430   2
  -7  -1 -10 19.7899 5.90411   4
  -7  -1 -10 34.7153 9.36405   7
   7   1  10 46.8598 9.48798   2
   7   1  10 17.6030 5.70063   5
  -8  -1 -10 271.258 35.1527   4
  -8  -1 -10 315.889 22.6744   7
   8   1  10 349.749 24.6048   2
   5  -2 -10 194.376 19.2869   3
  -5   2  10 192.049 21.0283   5
   4  -2 -10 245.000 16.1012   7
   4  -2 -10 274.083 21.5420   3
   4  -2 -10 253.920 22.7114   1
  -4   2  10 248.953 22.1642   5
   3  -2 -10 599.584 36.3828   1
   3  -2 -10 589.033 31.1279   3
  -3   2  10 565.855 32.3612   5
   2  -2 -10 12.6063 4.17052   3
   2  -2 -10 9.87771 3.22368   1
  -2   2  10 11.0658 3.88264   1
  -2   2  10 10.4632 5.02429   5
   1  -2 -10 1955.76 65.7932   3
   1  -2 -10 2026.92 70.6003   1
  -1   2  10 1963.05 67.8843   5
  -1   2  10 2019.24 68.3785   1
   0  -2 -10 699.452 30.3419   2
   0  -2 -10 632.149 27.4105   3
   0   2  10 642.043 30.6681   1
  -1  -2 -10 1650.63 57.7307   2
  -1  -2 -10 1738.29 54.6400   3
   1   2  10 1761.82 60.8106   1
  -2  -2 -10 707.935 27.9463   6
   2   2  10 726.666 32.6721   1
  -3  -2 -10 24.7498 4.36035   6
  -3  -2 -10 34.8229 6.16374   2
  -3  -2 -10 31.6319 4.93152   4
   3   2  10 41.9047 6.32820   2
  -4  -2 -10 232.014 16.4618   2
  -4  -2 -10 255.360 15.0081   4
   4   2  10 270.125 17.0174   2
  -5  -2 -10 1907.49 62.7850   4
  -5  -2 -10 1930.63 60.7512   3
   5   2  10 1792.79 80.4159   2
  -6  -2 -10 157.600 12.6551   3
  -6  -2 -10 144.589 17.8198   4
   6   2  10 177.764 15.2722   2
  -7  -2 -10 920.270 41.4360   4
  -7  -2 -10 861.322 35.1198   3
  -7  -2 -10 840.476 40.2058   2
   7   2  10 861.374 40.3461   2
  -8  -2 -10 8.01752 4.55838   3
  -8  -2 -10 8.13745 4.45829   4
  -8  -2 -10 9.79294 4.75557   7
   8   2  10 10.0498 5.62212   5
   5  -3 -10 580.552 27.0963   7
   5  -3 -10 652.354 37.1322   2
   5  -3 -10 646.178 37.6434   3
  -5   3  10 541.571 36.5893   5
   4  -3 -10 414.736 28.0001   3
   4  -3 -10 399.596 21.0745   7
  -4   3  10 400.498 28.4436   5
   3  -3 -10 1.53921 3.67962   3
   3  -3 -10 2.21124 3.70358   1
   3  -3 -10 2.87531 3.11788   6
  -3   3  10 5.18289 3.76138   5
   2  -3 -10 241.118 18.9070   3
  -2   3  10 235.759 19.9790   1
  -2   3  10 258.319 22.9445   5
   1  -3 -10 340.017 22.4888   6
   1  -3 -10 354.394 24.2028   1
  -1   3  10 346.116 21.2240   5
  -1   3  10 360.203 23.3976   1
   0  -3 -10 130.365 11.2888   3
   0  -3 -10 134.477 12.4187   2
   0  -3 -10 144.522 13.4796   6
   0   3  10 136.442 12.2511   5
   0   3  10 148.170 14.1880   1
  -1  -3 -10 861.716 36.3300   2
  -1  -3 -10 921.503 36.5458   6
   1   3  10 871.503 39.2884   1
  -2  -3 -10 49.1518 7.32777   2
  -2  -3 -10 36.2426 6.09067   6
   2   3  10 41.3333 7.52139   1
  -3  -3 -10 1241.95 47.8681   4
  -3  -3 -10 1165.59 44.2939   2
  -3  -3 -10 1182.79 40.2233   6
   3   3  10 1185.01 43.8957   2
  -4  -3 -10 646.360 29.6875   2
  -4  -3 -10 650.888 26.9140   4
  -4  -3 -10 641.433 23.6919   6
   4   3  10 638.726 29.2188   2
  -5  -3 -10 671.656 30.2723   4
  -5  -3 -10 700.284 30.3020   3
  -5  -3 -10 667.071 31.5592   2
   5   3  10 682.082 35.1823   2
  -6  -3 -10 654.912 31.3052   4
  -6  -3 -10 537.365 29.2081   2
  -6  -3 -10 601.457 28.4080   3
  -7  -3 -10 0.68075 3.53542   4
  -7  -3 -10 7.97139 3.48632   2
  -7  -3 -10 10.6950 3.96883   3
   7   3  10 4.57066 3.43307   2
   7   3  10 12.6704 4.10598   5
  -8  -3 -10 86.9458 14.0554   4
   8   3  10 98.7000 17.4609   5
   8   3  10 96.8018 13.6454   2
   4  -4 -10 43.6046 8.20948   7
   4  -4 -10 40.1640 11.1219   3
  -4   4  10 51.1756 14.3061   5
   3  -4 -10 490.478 25.7261   7
   3  -4 -10 463.069 29.4894   3
  -3   4  10 430.294 28.5400   5
  -2   4  10 139.937 16.3280   1
   1  -4 -10 1116.41 44.6876   3
  -1   4  10 1123.56 44.3382   5
  -1   4  10 1137.14 49.3178   1
   0  -4 -10 1265.61 50.6166   6
   0  -4 -10 1381.69 49.8417   2
   0   4  10 1264.94 46.8767   5
  -1  -4 -10 19.6311 5.14895   2
  -1  -4 -10 13.1751 3.86168   6
   1   4  10 12.1985 4.24735   1
   1   4  10 16.3684 4.24357   5
  -2  -4 -10 333.249 19.1542   6
  -2  -4 -10 334.853 19.9275   2
   2   4  10 323.256 23.3135   1
  -3  -4 -10 662.745 28.0079   6
  -3  -4 -10 671.724 30.0687   2
  -3  -4 -10 663.717 25.4641   4
   3   4  10 674.559 34.3833   1
  -4  -4 -10 566.693 24.9961   4
  -4  -4 -10 530.951 23.0779   6
  -4  -4 -10 549.139 26.4379   2
   4   4  10 540.841 26.2318   2
  -5  -4 -10 1009.51 40.9367   3
  -5  -4 -10 984.459 40.6929   2
  -5  -4 -10 1082.89 41.1590   4
   5   4  10 1027.12 45.6772   2
  -6  -4 -10 4.67268 2.63713   3
  -6  -4 -10 0.27291 2.56907   4
  -6  -4 -10 3.40543 3.14707   2
   6   4  10 -1.5427 3.97835   5
   6   4  10 2.35248 2.91723   2
  -7  -4 -10 204.735 17.3187   2
  -7  -4 -10 209.278 17.7828   4
   7   4  10 206.623 15.0879   5
   7   4  10 191.996 16.9377   2
  -8  -4 -10 199.286 20.3035   4
  -8  -4 -10 192.010 17.5739   3
   8   4  10 190.547 18.0896   2
  -3   5  10 29.0159 7.35613   5
   2  -5 -10 552.779 31.4519   3
  -2   5  10 545.574 30.0578   5
  -2   5  10 479.492 32.6247   1
   1  -5 -10 643.023 31.6831   3
  -1   5  10 618.153 35.5254   1
  -1   5  10 613.491 30.2555   5
   0  -5 -10 27.2049 6.06869   3
   0  -5 -10 30.7132 6.85562   2
   0   5  10 17.2439 5.08163   1
   0   5  10 23.8380 6.50196   5
  -1  -5 -10 763.377 34.1618   2
  -1  -5 -10 814.968 36.9868   6
   1   5  10 839.927 40.7201   1
   1   5  10 809.837 31.2526   5
  -2  -5 -10 85.7770 10.2063   6
  -2  -5 -10 83.2184 9.66282   2
   2   5  10 76.3977 7.44549   5
   2   5  10 73.4059 11.9241   1
  -3  -5 -10 1395.70 49.6642   2
  -3  -5 -10 1354.03 49.3662   6
   3   5  10 1379.52 59.1519   1
  -4  -5 -10 976.527 36.8789   6
  -4  -5 -10 943.086 37.9428   2
   4   5  10 905.756 37.8223   2
  -5  -5 -10 -0.9502 2.34627   4
  -5  -5 -10 -1.4750 1.86567   2
  -5  -5 -10 -2.7103 2.12935   3
   5   5  10 1.07761 4.20668   2
  -6  -5 -10 9.94278 3.89329   2
  -6  -5 -10 14.5632 5.30278   4
   6   5  10 11.3714 4.52818   2
   6   5  10 13.9526 3.63875   5
  -7  -5 -10 338.765 23.8009   4
  -7  -5 -10 337.906 23.2219   3
  -7  -5 -10 322.802 21.8842   2
   7   5  10 349.534 26.8289   5
   7   5  10 316.675 21.7985   2
  -8  -5 -10 78.4587 14.4278   4
   8   5  10 88.9130 11.8486   5
   8   5  10 93.1496 13.2392   2
   2  -6 -10 331.847 26.9980   3
  -2   6  10 314.380 26.8816   1
  -2   6  10 333.175 23.8020   5
   1  -6 -10 3.97516 3.04104   3
   1  -6 -10 -0.8925 2.84037   2
  -1   6  10 -2.5609 5.40709   5
  -1   6  10 -1.6149 3.26415   1
   0  -6 -10 35.0210 8.57872   2
   0  -6 -10 42.8179 8.54636   3
   0  -6 -10 51.2580 10.7856   6
   0   6  10 41.1328 8.22538   5
   0   6  10 75.8644 13.2251   1
  -1  -6 -10 25.6863 6.40601   2
  -1  -6 -10 18.4608 4.99272   6
   1   6  10 33.1764 9.15278   1
   1   6  10 28.0985 6.00306   5
  -2  -6 -10 1247.55 45.2388   2
   2   6  10 1133.69 38.3921   5
   2   6  10 1204.22 54.6140   1
  -3  -6 -10 1069.43 41.1563   2
  -3  -6 -10 1094.79 44.1697   6
  -4  -6 -10 181.534 15.3065   6
  -4  -6 -10 188.553 14.5156   2
   4   6  10 194.506 19.4031   1
  -5  -6 -10 252.394 21.8918   3
  -5  -6 -10 276.976 18.0735   2
   5   6  10 280.710 25.5117   2
  -6  -6 -10 459.213 24.9323   2
  -6  -6 -10 433.714 26.5448   3
   6   6  10 435.147 24.9761   2
  -7  -6 -10 646.891 35.3482   4
  -7  -6 -10 691.882 33.4541   2
   7   6  10 556.456 30.6062   2
  -8  -6 -10 628.538 37.3885   4
   8   6  10 558.666 32.2966   2
   1  -7 -10 63.1149 14.5510   3
   1  -7 -10 57.9972 10.9111   2
  -1   7  10 80.3500 11.9535   5
  -1   7  10 48.4478 14.3315   1
   0  -7 -10 -1.2314 3.15611   3
   0  -7 -10 5.10772 2.84825   2
   0   7  10 -0.5776 2.86614   5
   0   7  10 0.65690 3.68279   1
  -1  -7 -10 1094.67 42.7087   2
  -1  -7 -10 1026.72 51.4673   6
   1   7  10 1055.18 51.6995   1
   1   7  10 1083.69 38.0172   5
  -2  -7 -10 536.391 26.1142   2
  -2  -7 -10 544.227 30.9787   6
   2   7  10 513.177 34.6720   1
  -3  -7 -10 0.80886 2.48495   6
  -3  -7 -10 -1.2606 2.64522   2
   3   7  10 3.76667 4.47473   1
   4   7  10 15.4008 7.04117   1
  -5  -7 -10 15.8141 5.97847   3
  -5  -7 -10 10.3623 3.96518   2
   5   7  10 8.94866 4.66154   1
  -6  -7 -10 260.227 17.9971   2
   6   7  10 219.359 17.3319   2
   6   7  10 305.821 27.6425   6
  -7  -7 -10 631.258 32.1299   2
   7   7  10 671.470 30.4396   6
   7   7  10 580.188 31.5283   2
  -8  -7 -10 3.30793 5.37478   4
   8   7  10 5.14449 4.33570   2
   8   7  10 -0.7689 3.29342   6
   0  -8 -10 366.507 25.8676   3
   0  -8 -10 425.750 23.1370   2
   0   8  10 349.409 28.9582   1
  -1  -8 -10 287.127 17.8444   2
  -1  -8 -10 308.502 17.4917   4
   1   8  10 252.505 36.4097   1
  -2  -8 -10 9.60429 3.61602   2
   2   8  10 12.9916 5.76882   1
  -3  -8 -10 3.08865 3.40499   2
   3   8  10 -8.0608 3.45804   1
  -4  -8 -10 1.80669 2.70668   2
  -4  -8 -10 8.86949 4.24992   6
   4   8  10 0.70464 4.94806   1
  -5  -8 -10 717.948 30.9995   2
   5   8  10 644.385 41.7612   1
  -6  -8 -10 571.118 27.4150   2
   6   8  10 526.987 44.9932   1
   6   8  10 549.175 30.1373   6
  -7  -8 -10 6.13660 4.37970   2
   7   8  10 -3.0722 4.58834   2
   7   8  10 -7.9306 3.72001   6
  -2  -9 -10 12.1105 4.66840   4
  -2  -9 -10 23.2233 5.27806   2
   2   9  10 11.5940 5.69180   1
  -3  -9 -10 16.1337 4.42239   2
   3   9  10 7.58377 6.34378   1
  -4  -9 -10 346.345 19.0887   2
   4   9  10 302.789 30.3231   1
  -5  -9 -10 263.390 17.7176   2
   5   9  10 259.350 27.6831   1
   3   7 -11 91.8840 15.0231   7
   3   7 -11 66.9892 13.3026   3
   3   7 -11 122.135 11.8138   2
  -3  -7  11 115.726 12.7961   3
   2   7 -11 4.59825 2.66176   2
   2   7 -11 -1.4009 4.70237   7
   2   7 -11 0.40476 5.10259   6
  -2  -7  11 0.38993 3.39892   3
   1   7 -11 176.452 20.3835   6
   1   7 -11 231.320 21.9641   7
   0   7 -11 193.575 20.7256   7
   0   7 -11 146.755 19.3116   6
  -1   7 -11 113.359 16.5371   6
  -1   7 -11 131.236 17.7683   7
   4   6 -11 51.1826 10.0869   7
   4   6 -11 65.6687 12.9449   3
   3   6 -11 17.6104 4.96193   2
   3   6 -11 -0.6895 4.66027   7
   3   6 -11 7.52084 4.04533   3
  -3  -6  11 3.20888 3.99389   3
   2   6 -11 446.931 22.8453   2
   2   6 -11 427.573 26.6466   7
   2   6 -11 434.867 23.9538   3
  -2  -6  11 472.267 23.5153   3
   1   6 -11 44.4413 8.38887   2
   1   6 -11 45.8725 10.4382   7
  -1  -6  11 52.4010 11.4542   4
   0   6 -11 827.843 41.2599   7
   0   6 -11 845.908 41.7271   6
   0   6 -11 854.803 33.7922   2
   0  -6  11 866.887 41.8282   4
  -1   6 -11 330.809 19.0343   2
  -1   6 -11 348.848 25.9527   7
  -1   6 -11 344.389 24.3868   6
  -2   6 -11 56.9452 9.46395   2
  -2   6 -11 70.5560 12.4130   7
  -3   6 -11 78.3307 11.1015   2
  -3   6 -11 80.9290 17.7391   6
  -3   6 -11 119.455 17.0885   7
   5   5 -11 42.5172 11.3549   1
   5   5 -11 43.0950 13.5586   3
  -5  -5  11 32.9609 15.0740   5
   4   5 -11 78.8786 13.6129   3
   4   5 -11 72.3593 9.77513   7
  -4  -5  11 71.0181 13.8561   5
  -4  -5  11 63.8672 12.7342   3
   3   5 -11 214.885 18.0331   3
   3   5 -11 207.089 15.9885   7
  -3  -5  11 203.243 16.0588   3
   2   5 -11 137.839 14.5306   7
   2   5 -11 119.305 11.0627   2
   2   5 -11 138.365 12.6276   3
  -2  -5  11 104.459 10.7353   3
   1   5 -11 874.131 34.4918   3
   1   5 -11 890.835 40.2311   7
   1   5 -11 893.472 35.8822   2
  -1  -5  11 952.315 41.0959   3
   0   5 -11 165.250 13.1856   2
   0   5 -11 153.068 15.6714   7
  -1   5 -11 3.32799 3.38888   2
  -1   5 -11 2.56444 2.72887   6
  -1   5 -11 2.70597 3.81065   7
   1  -5  11 0.94840 3.14799   4
  -2   5 -11 462.284 24.1919   2
  -2   5 -11 476.412 30.2140   7
  -2   5 -11 506.553 26.7347   6
   2  -5  11 484.768 30.4203   4
  -3   5 -11 61.0798 10.2815   2
  -3   5 -11 82.4531 10.4177   6
  -3   5 -11 74.1468 13.4634   7
  -4   5 -11 511.465 24.2441   6
  -4   5 -11 514.617 33.4144   7
  -4   5 -11 543.385 28.5810   2
   4  -5  11 531.525 26.7523   2
   5   4 -11 1.93751 3.82120   3
  -5  -4  11 -0.8354 4.59232   5
   4   4 -11 551.683 24.9054   7
   4   4 -11 616.154 27.8538   1
   4   4 -11 548.418 31.6484   3
  -4  -4  11 572.214 30.0554   3
  -4  -4  11 543.848 35.1565   5
   3   4 -11 0.72245 2.87054   3
   3   4 -11 -0.3906 2.32298   7
  -3  -4  11 3.66454 2.13599   3
   2   4 -11 1819.25 61.4318   7
   2   4 -11 1799.84 61.2059   3
   2   4 -11 1719.92 59.5532   2
  -2  -4  11 1843.17 59.3071   3
   1   4 -11 470.991 22.6137   3
   1   4 -11 460.567 23.3057   2
   1   4 -11 445.255 24.6718   7
  -1  -4  11 456.679 23.5361   3
   0   4 -11 96.7906 10.5865   2
   0   4 -11 105.476 11.5699   7
   0  -4  11 97.5391 11.6291   4
  -1   4 -11 212.763 17.3253   7
  -1   4 -11 182.383 14.7055   2
   1  -4  11 219.785 17.4455   4
  -2   4 -11 110.008 11.3307   2
  -2   4 -11 112.975 11.9026   6
  -2   4 -11 102.705 12.7341   7
  -3   4 -11 1102.37 49.2867   7
  -3   4 -11 1172.66 41.3840   6
  -3   4 -11 1134.71 44.8430   2
   3  -4  11 1197.09 53.0427   4
   3  -4  11 1142.15 43.5898   2
  -4   4 -11 430.843 28.5509   7
  -4   4 -11 381.149 18.6112   6
   4  -4  11 432.430 23.9011   2
   4  -4  11 442.241 19.8717   1
  -5   4 -11 -8.3889 3.21167   7
  -5   4 -11 -6.2717 2.87757   2
   5  -4  11 7.28597 4.34481   2
   5  -4  11 6.77089 3.16683   1
   6   3 -11 23.2768 8.67182   3
   6   3 -11 16.7218 5.48162   1
   6   3 -11 9.33911 6.43768   2
  -6  -3  11 27.5105 6.70350   4
  -6  -3  11 20.7940 8.32135   5
   5   3 -11 51.6980 12.3407   3
  -5  -3  11 25.7167 8.84673   5
   4   3 -11 1.09179 2.79183   1
   4   3 -11 -3.4577 2.62914   3
  -4  -3  11 -1.1623 3.50774   5
   3   3 -11 989.021 40.8662   3
   3   3 -11 901.859 35.7796   1
   3   3 -11 912.936 35.1118   7
  -3  -3  11 937.652 38.5428   3
   2   3 -11 221.021 15.7654   3
   2   3 -11 197.120 14.7173   2
   2   3 -11 220.471 14.8690   7
  -2  -3  11 224.180 15.0035   3
   1   3 -11 1.00544 1.84815   3
   1   3 -11 2.88780 1.85320   7
   1   3 -11 3.27880 2.23460   2
  -1  -3  11 5.03607 1.90536   3
   0   3 -11 292.734 18.9451   7
   0   3 -11 305.892 15.2649   3
   0   3 -11 286.814 17.8943   2
   0  -3  11 270.843 20.3494   4
  -1   3 -11 1.90716 2.03215   2
  -1   3 -11 0.97852 3.97683   7
   1  -3  11 2.93995 2.84679   4
  -2   3 -11 1737.46 62.9232   7
  -2   3 -11 1698.77 59.8166   2
  -2   3 -11 1758.84 57.3393   6
   2  -3  11 1770.91 63.0308   4
  -3   3 -11 720.254 33.1051   2
  -3   3 -11 707.007 27.3893   6
  -3   3 -11 661.698 34.4193   7
   3  -3  11 727.345 31.6134   2
  -4   3 -11 51.0573 10.0408   7
   4  -3  11 33.3084 7.30709   2
  -5   3 -11 10.7586 5.10187   7
  -5   3 -11 9.77403 4.43705   2
   5  -3  11 5.09176 3.73646   2
  -6   3 -11 14.8663 8.31380   7
   6  -3  11 24.1371 7.04055   2
   6   2 -11 225.103 27.1195   3
   6   2 -11 153.806 17.9596   2
  -6  -2  11 158.695 22.5060   5
   5   2 -11 33.7858 11.4746   1
   5   2 -11 16.5492 6.40486   3
  -5  -2  11 21.1264 7.14014   5
  -5  -2  11 21.0311 5.90773   4
   4   2 -11 2082.62 72.1274   3
   4   2 -11 1983.01 69.2480   1
  -4  -2  11 1828.07 74.9336   5
  -4  -2  11 1952.48 68.1069   3
   3   2 -11 826.204 36.2050   1
   3   2 -11 873.777 32.2861   7
   3   2 -11 871.608 38.5145   3
  -3  -2  11 792.072 41.5329   5
  -3  -2  11 905.123 36.9394   3
   2   2 -11 593.646 26.1798   1
   2   2 -11 578.838 26.0321   7
   2   2 -11 575.851 27.5231   3
  -2  -2  11 574.859 26.6355   3
   1   2 -11 0.93689 1.99194   3
   1   2 -11 1.27199 1.41264   7
   1   2 -11 0.85830 1.72202   2
   0   2 -11 111.752 11.2275   7
   0   2 -11 121.399 11.0696   2
   0   2 -11 104.935 9.20855   3
   0  -2  11 130.740 9.83611   4
   0  -2  11 123.822 8.32772   1
  -1   2 -11 2209.72 63.3082   3
  -1   2 -11 2190.57 72.1543   7
  -1   2 -11 2201.59 71.2817   2
   1  -2  11 2122.83 62.8038   1
   1  -2  11 2237.07 69.5256   4
  -2   2 -11 471.285 25.5644   7
  -2   2 -11 455.442 24.2562   2
   2  -2  11 421.258 22.7447   1
   2  -2  11 460.883 24.1289   4
  -3   2 -11 102.449 8.24693   6
  -3   2 -11 108.985 11.7456   7
  -3   2 -11 98.9801 10.7492   2
   3  -2  11 91.3984 9.90705   2
   3  -2  11 94.6521 11.6207   4
  -4   2 -11 57.8593 9.74389   7
   4  -2  11 56.5291 8.61798   2
  -5   2 -11 17.9563 8.59413   2
  -5   2 -11 18.1420 6.01872   7
   5  -2  11 18.9296 6.17711   4
   5  -2  11 16.6453 4.90628   2
  -6   2 -11 733.536 38.7385   4
  -6   2 -11 705.500 37.5673   7
   6  -2  11 736.217 35.7106   2
  -7   2 -11 461.602 36.0072   7
  -7   2 -11 512.481 32.9968   4
   7  -2  11 488.407 30.0175   2
   6   1 -11 130.765 26.2626   2
  -6  -1  11 125.482 14.6630   4
   5   1 -11 939.185 45.2231   1
   5   1 -11 990.495 46.8699   3
  -5  -1  11 936.551 49.9486   5
   4   1 -11 7.66350 4.62054   3
  -4  -1  11 12.3479 4.55430   3
  -4  -1  11 13.4206 5.82690   5
   3   1 -11 72.3715 10.4818   3
   3   1 -11 71.1715 10.2708   1
  -3  -1  11 66.0447 8.83047   3
  -3  -1  11 58.9821 10.6143   5
   2   1 -11 390.342 25.2272   1
   2   1 -11 420.285 22.8106   3
   1   1 -11 174.352 13.7155   2
   1   1 -11 194.876 13.8061   3
  -1  -1  11 191.209 13.1238   1
   0   1 -11 1969.98 64.5188   2
   0   1 -11 1911.81 59.8441   3
   0  -1  11 1899.71 58.9193   1
  -1   1 -11 765.107 27.6105   3
  -1   1 -11 704.333 31.9997   2
   1  -1  11 738.817 28.6738   1
   1  -1  11 720.078 28.1657   4
  -2   1 -11 106.797 7.92240   3
  -2   1 -11 93.2031 10.3498   2
   2  -1  11 91.7329 9.84389   4
   2  -1  11 106.396 9.44531   1
  -3   1 -11 3.98163 2.20050   7
  -3   1 -11 0.89320 2.18745   2
   3  -1  11 1.16177 1.99151   2
   3  -1  11 -3.1313 1.74811   4
  -4   1 -11 9.81628 3.33456   4
  -4   1 -11 7.76308 2.97099   7
   4  -1  11 8.70791 3.48350   4
  -5   1 -11 1261.23 49.1989   4
  -5   1 -11 1242.58 50.2766   7
  -5   1 -11 1237.80 50.4784   2
   5  -1  11 1203.78 48.1671   2
  -6   1 -11 414.826 25.9708   7
  -6   1 -11 370.459 24.0056   2
  -6   1 -11 384.059 25.4386   4
  -7   1 -11 17.5666 5.78374   7
  -7   1 -11 10.5457 9.73643   4
   7  -1  11 13.8266 6.09678   2
   5   0 -11 100.800 17.3425   3
  -5   0  11 67.6752 17.5623   5
   4   0 -11 141.401 14.2830   3
   4   0 -11 92.9075 18.0909   1
  -4   0  11 123.784 16.6584   5
   3   0 -11 5.41808 2.63635   1
   3   0 -11 6.09546 2.81211   3
  -3   0  11 2.45860 4.08686   5
   2   0 -11 168.340 14.9780   3
   2   0 -11 156.208 14.2399   1
  -2   0  11 156.725 15.5013   5
  -2   0  11 165.653 13.7180   1
   1   0 -11 2536.65 79.1049   3
  -1   0  11 2543.45 78.4341   1
   0   0 -11 144.029 12.5541   2
   0   0 -11 165.678 12.1469   3
   0   0  11 154.903 11.9516   1
  -1   0 -11 485.541 21.7648   3
  -1   0 -11 492.581 25.3067   2
   1   0  11 540.546 24.6878   1
  -2   0 -11 432.330 23.5138   2
  -2   0 -11 434.699 18.3048   3
   2   0  11 441.808 22.0806   1
   2   0  11 412.072 20.0187   4
  -3   0 -11 5.28240 3.33936   2
  -3   0 -11 6.46492 1.95506   3
  -3   0 -11 7.06641 2.51453   4
   3   0  11 9.07864 3.22874   2
   3   0  11 5.56688 2.98760   4
  -4   0 -11 2862.43 89.4359   2
  -4   0 -11 2838.17 85.2529   4
   4   0  11 2727.65 87.7891   2
   4   0  11 2742.11 89.6585   4
  -5   0 -11 613.776 29.5966   4
  -5   0 -11 626.639 32.1944   7
   5   0  11 586.833 29.8951   2
  -6   0 -11 297.585 21.5823   7
  -6   0 -11 282.595 21.3603   2
  -6   0 -11 309.075 21.3001   4
   6   0  11 282.474 20.1532   2
  -7   0 -11 60.2067 11.9169   7
  -7   0 -11 46.0371 10.1708   4
  -8   0 -11 3.23380 4.99854   7
  -8   0 -11 -5.6949 3.40784   4
   8   0  11 -0.3462 3.74217   2
  -5   1  11 79.7587 14.6320   5
   4  -1 -11 9.08225 4.57897   1
   4  -1 -11 5.91338 4.03423   3
  -4   1  11 15.4551 6.01777   5
   3  -1 -11 190.011 16.3832   3
  -3   1  11 176.876 17.5047   5
   2  -1 -11 2092.02 70.9045   3
   2  -1 -11 2130.44 73.8046   1
  -2   1  11 2200.30 72.7345   1
  -2   1  11 1926.86 73.3024   5
   1  -1 -11 605.475 30.2781   1
   1  -1 -11 562.626 28.0629   3
  -1   1  11 618.929 29.3091   1
   0  -1 -11 326.689 18.6722   3
   0  -1 -11 332.576 19.9895   2
   0   1  11 360.203 20.6387   1
  -1  -1 -11 66.2073 8.54011   2
  -1  -1 -11 78.3369 7.70001   3
   1   1  11 78.1052 9.58946   1
  -2  -1 -11 205.717 15.5374   2
  -2  -1 -11 245.602 13.3366   3
   2   1  11 226.380 16.1468   1
  -3  -1 -11 2334.28 67.2602   6
  -3  -1 -11 2406.19 69.4966   4
   3   1  11 2340.93 74.9364   2
  -4  -1 -11 177.312 15.2208   2
  -4  -1 -11 185.760 12.7938   4
   4   1  11 174.814 14.4812   2
  -5  -1 -11 356.132 20.5120   4
  -5  -1 -11 362.189 18.0266   3
   5   1  11 331.843 21.4389   2
  -6  -1 -11 2.57820 2.00491   4
  -6  -1 -11 -2.3751 2.85897   2
   6   1  11 0.73131 2.14496   2
  -7  -1 -11 5.79511 4.37389   7
  -7  -1 -11 -4.9224 2.71014   4
   7   1  11 1.71473 3.87370   2
   7   1  11 -5.6339 4.01102   5
  -8  -1 -11 782.190 40.9731   4
  -8  -1 -11 721.957 37.7165   7
   8   1  11 699.399 38.2643   2
   5  -2 -11 42.2581 11.0009   3
  -5   2  11 45.5840 13.1261   5
   4  -2 -11 161.602 17.4387   3
  -4   2  11 161.579 19.2580   5
   3  -2 -11 1601.26 65.8120   1
   3  -2 -11 1616.04 61.2599   3
  -3   2  11 1593.97 63.8056   5
   2  -2 -11 4.84623 3.26109   3
  -2   2  11 6.94947 3.57102   1
  -2   2  11 6.14162 3.64057   5
   1  -2 -11 1431.22 55.5156   1
   1  -2 -11 1316.81 65.2172   3
  -1   2  11 1353.59 53.4720   5
  -1   2  11 1418.42 53.2709   1
   0  -2 -11 9.91579 3.28790   3
   0  -2 -11 10.6911 3.85524   2
   0   2  11 7.65483 2.87420   1
  -1  -2 -11 99.2129 10.7570   2
  -1  -2 -11 106.991 9.55049   3
   1   2  11 128.535 12.4026   1
  -2  -2 -11 1872.70 65.8897   2
  -2  -2 -11 2084.40 63.0245   6
   2   2  11 1957.08 67.6291   1
  -3  -2 -11 804.243 28.3369   4
  -3  -2 -11 796.212 35.0887   2
  -3  -2 -11 823.969 29.3968   6
   3   2  11 773.340 33.7223   2
  -4  -2 -11 757.872 29.6445   4
  -4  -2 -11 711.220 24.1761   6
   4   2  11 736.449 32.6869   2
  -5  -2 -11 158.803 13.1084   4
  -5  -2 -11 156.742 14.6341   3
   5   2  11 147.523 13.6422   2
  -6  -2 -11 -1.4355 2.93179   3
  -6  -2 -11 1.15788 3.00111   4
   6   2  11 1.42695 2.07139   2
  -7  -2 -11 680.699 30.4560   3
  -7  -2 -11 709.081 35.4684   4
   7   2  11 713.139 36.6261   5
   7   2  11 669.671 35.2369   2
  -8  -2 -11 153.165 13.7387   3
  -8  -2 -11 180.323 18.7096   4
  -8  -2 -11 172.482 18.0833   7
   8   2  11 190.038 18.4624   2
   4  -3 -11 786.878 40.3036   3
   4  -3 -11 703.897 32.0845   7
  -4   3  11 672.334 50.0988   5
   3  -3 -11 3.42322 3.89463   3
  -3   3  11 2.43682 4.38584   5
   2  -3 -11 567.743 37.2546   1
   2  -3 -11 530.554 29.9161   3
  -2   3  11 527.787 30.2955   5
  -2   3  11 568.979 32.3251   1
   1  -3 -11 262.050 18.7441   3
  -1   3  11 273.366 20.6435   1
  -1   3  11 253.456 18.9421   5
   0  -3 -11 172.898 14.6013   2
   0  -3 -11 203.733 16.6513   6
   0  -3 -11 198.665 14.8410   3
   0   3  11 191.563 15.3598   5
   0   3  11 203.327 16.9962   1
  -1  -3 -11 2221.92 74.1711   2
  -1  -3 -11 2243.93 71.0853   3
  -1  -3 -11 2267.90 73.9863   6
   1   3  11 2336.27 78.1579   1
  -2  -3 -11 40.5314 7.00528   6
  -2  -3 -11 42.5222 7.79263   2
   2   3  11 33.1318 7.81104   1
  -3  -3 -11 1536.00 55.9307   2
  -3  -3 -11 1541.74 50.7841   6
   3   3  11 1627.81 59.4960   1
  -4  -3 -11 -1.2669 1.10313   6
  -4  -3 -11 1.60908 1.50981   4
  -4  -3 -11 -1.3151 1.29196   2
   4   3  11 1.40366 2.05949   2
  -5  -3 -11 0.28728 2.22910   4
  -5  -3 -11 0.18860 2.31738   3
  -5  -3 -11 6.80168 3.40366   2
   5   3  11 2.58729 2.82882   2
  -6  -3 -11 1205.71 48.2007   4
  -6  -3 -11 1184.91 49.0146   2
  -6  -3 -11 1268.44 46.7583   3
   6   3  11 1192.85 48.6948   2
  -7  -3 -11 619.489 32.0876   4
  -7  -3 -11 508.851 26.9868   3
  -8  -3 -11 256.958 21.3645   4
   8   3  11 260.285 21.3482   5
   8   3  11 246.963 20.6463   2
   4  -4 -11 119.757 12.1342   7
   4  -4 -11 98.4742 15.9399   3
   3  -4 -11 488.530 31.5466   3
   3  -4 -11 496.398 26.8488   7
  -3   4  11 506.831 31.7891   5
   2  -4 -11 0.03935 3.14970   1
   2  -4 -11 10.5714 4.94448   3
   2  -4 -11 1.86313 4.01235   6
  -2   4  11 6.81745 4.21166   5
  -2   4  11 7.24804 3.38476   1
   1  -4 -11 53.5676 8.06632   3
   1  -4 -11 63.2433 13.3389   6
   1  -4 -11 68.6764 12.2652   1
  -1   4  11 57.7211 11.0870   1
  -1   4  11 63.3963 9.51952   5
   0  -4 -11 1181.48 46.4913   2
   0  -4 -11 1102.23 44.4081   3
   0   4  11 1186.86 45.3763   5
   0   4  11 1197.32 50.5662   1
  -1  -4 -11 6.04016 2.50569   6
  -1  -4 -11 5.49233 3.23993   2
   1   4  11 9.96102 4.68279   1
   1   4  11 7.56155 3.24291   5
  -2  -4 -11 739.659 34.6199   2
  -2  -4 -11 824.712 34.7685   6
   2   4  11 833.466 41.5490   1
  -3  -4 -11 302.083 19.5435   2
   3   4  11 319.493 23.8845   1
  -4  -4 -11 160.996 13.7153   2
  -4  -4 -11 180.212 12.2907   6
  -4  -4 -11 166.565 11.8780   4
   4   4  11 167.266 14.5164   2
  -5  -4 -11 1127.20 45.1737   3
  -5  -4 -11 1129.38 45.6453   2
  -5  -4 -11 1226.21 44.0635   4
   5   4  11 1113.57 45.0848   2
  -6  -4 -11 41.9356 8.20284   4
  -6  -4 -11 40.1463 8.06888   2
   6   4  11 37.1419 8.31741   2
  -7  -4 -11 518.319 29.7828   4
   7   4  11 500.574 26.2675   5
   7   4  11 505.300 29.4001   2
  -8  -4 -11 5.40268 4.27776   4
  -8  -4 -11 6.37169 6.08439   3
   8   4  11 16.5985 7.17631   2
   3  -5 -11 12.1594 4.79549   7
   3  -5 -11 19.5239 6.50988   3
  -3   5  11 11.8656 6.96817   5
   2  -5 -11 168.858 17.9196   3
  -2   5  11 198.732 18.3003   5
  -2   5  11 144.216 18.9010   1
   1  -5 -11 743.987 39.3988   6
   1  -5 -11 755.100 36.6423   3
  -1   5  11 754.690 35.7063   5
   0  -5 -11 54.4894 8.88518   2
   0  -5 -11 59.2687 12.5574   6
   0  -5 -11 52.4793 9.03049   3
   0   5  11 54.4260 11.7615   1
   0   5  11 63.6727 8.96188   5
  -1  -5 -11 1199.04 48.9974   2
   1   5  11 1356.62 56.7223   1
   1   5  11 1366.27 46.8293   5
  -2  -5 -11 265.263 18.1463   6
  -2  -5 -11 238.859 17.3423   2
   2   5  11 226.422 13.9563   5
   2   5  11 227.027 21.0481   1
  -3  -5 -11 69.2755 9.05912   2
  -3  -5 -11 56.0254 8.24970   6
   3   5  11 85.2922 12.5704   1
  -4  -5 -11 586.901 28.9189   2
  -4  -5 -11 587.331 27.0085   6
  -4  -5 -11 610.022 26.4095   4
   4   5  11 534.102 32.7761   1
  -5  -5 -11 62.0583 8.91014   6
  -5  -5 -11 74.9191 9.82215   2
  -5  -5 -11 57.9969 9.23717   4
   5   5  11 79.3126 10.3371   2
  -6  -5 -11 726.594 42.2695   4
  -6  -5 -11 662.624 33.5610   2
  -6  -5 -11 701.663 42.3041   3
   6   5  11 672.193 33.5016   2
   6   5  11 713.417 28.3662   5
  -7  -5 -11 358.822 23.5437   4
  -7  -5 -11 316.291 22.4761   3
   7   5  11 325.181 22.4818   2
   7   5  11 305.430 18.4166   5
  -8  -5 -11 36.3224 10.3204   4
   8   5  11 13.2322 5.34474   5
   8   5  11 21.0619 8.43417   2
   2  -6 -11 213.190 21.0650   3
  -2   6  11 213.225 18.9064   5
  -2   6  11 204.115 22.3733   1
   1  -6 -11 -2.3322 3.51063   3
   1  -6 -11 3.14374 4.31307   2
  -1   6  11 -5.5513 4.07988   5
  -1   6  11 -0.8169 3.74516   1
   0  -6 -11 627.188 31.9536   3
   0  -6 -11 589.800 30.6629   2
   0   6  11 584.786 28.5141   5
   0   6  11 574.630 35.5428   1
  -1  -6 -11 268.832 18.7060   2
  -1  -6 -11 291.993 22.8708   6
   1   6  11 296.255 24.4023   1
   1   6  11 299.657 17.6843   5
  -2  -6 -11 51.9634 8.15529   2
   2   6  11 55.4847 12.3205   1
   2   6  11 55.0678 6.79376   5
  -3  -6 -11 559.344 27.7403   2
   3   6  11 577.378 36.5371   1
  -4  -6 -11 178.791 15.2755   6
  -4  -6 -11 182.717 14.5872   2
   4   6  11 169.105 19.0219   1
  -5  -6 -11 1196.40 45.0132   6
  -5  -6 -11 1167.55 45.7906   2
   5   6  11 1134.67 46.3173   2
  -6  -6 -11 2.86328 2.37701   2
  -6  -6 -11 3.31420 2.73319   4
  -6  -6 -11 -6.0638 3.25910   3
   6   6  11 -5.3501 2.02641   2
  -7  -6 -11 4.41957 4.21766   4
   7   6  11 0.41977 3.39445   2
  -8  -6 -11 423.388 29.9528   4
   8   6  11 387.233 32.5027   2
   1  -7 -11 852.694 42.2641   2
   1  -7 -11 833.604 42.3585   3
  -1   7  11 887.301 39.6601   5
  -1   7  11 813.872 47.1068   1
   0  -7 -11 13.1889 5.15301   2
   0   7  11 19.1719 5.70012   5
   0   7  11 10.5767 5.55941   1
  -1  -7 -11 6.86075 3.35023   2
   1   7  11 -3.9037 2.41793   1
   1   7  11 -0.2326 2.80788   5
  -2  -7 -11 216.652 19.1825   6
  -2  -7 -11 252.329 17.5248   2
   2   7  11 210.999 22.1092   1
  -3  -7 -11 29.4253 7.53338   2
  -3  -7 -11 17.8447 5.49851   6
   3   7  11 10.6234 5.11920   1
  -4  -7 -11 820.043 35.2742   2
  -4  -7 -11 773.345 37.1917   6
   4   7  11 775.161 44.8308   1
  -5  -7 -11 245.196 17.4584   2
   5   7  11 212.304 23.7436   1
  -6  -7 -11 12.9691 4.82751   2
   6   7  11 11.0274 5.00872   2
  -7  -7 -11 216.876 21.4211   4
   7   7  11 198.342 18.6629   2
  -1  -8 -11 174.249 15.1482   2
   1   8  11 143.430 19.6190   1
  -2  -8 -11 136.408 12.8877   2
   2   8  11 119.145 18.4803   1
  -3  -8 -11 908.372 37.0057   2
   3   8  11 854.794 60.6666   1
  -4  -8 -11 3.03614 3.36268   2
   4   8  11 -6.2812 6.71967   1
  -5  -8 -11 5.72029 3.57371   2
   5   8  11 13.6411 6.33279   1
  -6  -8 -11 117.421 13.7976   2
   6   8  11 144.932 22.3810   1
  -4  -9 -11 -1.0919 3.74042   2
   4   9  11 -6.7929 5.13788   1
   2   7 -12 -3.1311 5.41496   6
   2   7 -12 4.17611 5.58219   7
   2   7 -12 -0.1554 4.46089   2
   1   7 -12 206.844 15.5757   2
   1   7 -12 252.377 26.1896   7
   0   7 -12 12.7856 6.19424   6
   0   7 -12 3.37701 6.27530   7
   4   6 -12 317.707 19.7453   7
   4   6 -12 233.584 18.2622   2
   4   6 -12 305.332 23.8438   3
  -4  -6  12 240.695 22.7490   5
   3   6 -12 82.5985 14.3051   3
   3   6 -12 70.6903 11.9314   7
  -3  -6  12 55.7015 11.3277   3
   2   6 -12 355.101 24.2324   7
   2   6 -12 361.628 20.8940   2
   2   6 -12 361.746 33.4096   3
  -2  -6  12 355.621 19.3206   3
   1   6 -12 6.29630 4.12740   7
   1   6 -12 -2.4963 2.89438   2
   0   6 -12 5.10482 3.82624   6
   0   6 -12 13.5983 5.20639   7
   0   6 -12 3.75983 4.36090   2
   0  -6  12 4.28961 6.18370   4
  -1   6 -12 442.638 23.1174   2
  -1   6 -12 411.904 27.2793   6
  -2   6 -12 -6.4345 4.11269   2
  -2   6 -12 3.69700 5.03127   7
   4   5 -12 -0.3954 5.35310   3
   4   5 -12 -2.1449 4.36600   2
   4   5 -12 1.41029 3.50813   7
  -4  -5  12 2.57625 7.18775   5
   3   5 -12 480.836 29.4439   7
   3   5 -12 521.929 28.9073   3
  -3  -5  12 502.669 29.1839   3
   2   5 -12 1.74795 2.07051   2
   2   5 -12 3.00534 3.76355   7
   2   5 -12 -2.1107 3.17450   3
  -2  -5  12 -2.3080 2.86760   3
   1   5 -12 125.203 11.8061   3
   1   5 -12 145.951 12.6357   2
   1   5 -12 134.842 14.2251   7
  -1  -5  12 141.645 11.3400   3
   0   5 -12 542.556 30.4673   7
   0   5 -12 508.812 25.9018   2
   0  -5  12 509.528 30.4529   4
  -1   5 -12 98.3238 11.7404   2
  -1   5 -12 91.2765 13.0892   7
  -1   5 -12 83.8168 12.6410   6
   1  -5  12 96.4171 13.9139   4
  -2   5 -12 483.263 26.7118   6
  -2   5 -12 449.803 30.0951   7
  -2   5 -12 466.640 25.2105   2
   2  -5  12 491.150 31.2703   4
  -3   5 -12 3.23082 3.15299   6
  -3   5 -12 -8.3513 3.56662   7
  -4   5 -12 -0.8433 4.44075   2
  -4   5 -12 -6.3780 3.24795   6
   4  -5  12 -6.0047 4.12592   2
   5   4 -12 381.990 24.2707   1
   5   4 -12 460.688 30.5131   3
  -5  -4  12 381.107 31.8015   5
   4   4 -12 706.533 35.9043   1
   4   4 -12 575.709 26.5899   7
   4   4 -12 643.656 34.9431   3
  -4  -4  12 585.318 37.7581   5
   3   4 -12 37.0858 7.31234   2
   3   4 -12 14.9077 5.18108   3
   3   4 -12 10.7307 3.75061   7
   2   4 -12 14.2568 4.41833   7
   2   4 -12 22.5865 5.42250   3
  -2  -4  12 13.8383 4.01134   3
   1   4 -12 690.098 31.2948   2
   1   4 -12 706.632 33.5089   7
   1   4 -12 701.797 29.8185   3
  -1  -4  12 633.610 27.2131   3
  -1  -4  12 726.204 32.4806   4
   0   4 -12 3.08499 3.09070   2
   0   4 -12 6.18404 4.22847   7
   0  -4  12 7.53969 3.27943   4
  -1   4 -12 871.143 40.6949   7
  -1   4 -12 895.954 37.7257   2
  -2   4 -12 -0.0374 3.49871   7
  -2   4 -12 11.2390 3.65820   2
  -2   4 -12 -0.5584 2.36579   6
  -3   4 -12 60.0249 12.1552   7
  -3   4 -12 56.1692 8.34336   6
   3  -4  12 51.6981 13.2259   4
  -4   4 -12 498.241 38.2678   7
  -4   4 -12 487.294 31.9687   2
   4  -4  12 548.002 27.7767   2
  -5   4 -12 13.3065 6.28633   7
   5  -4  12 60.2309 9.04756   1
   5  -4  12 35.9438 9.32211   2
   5   3 -12 366.620 26.7975   3
  -5  -3  12 324.774 29.4589   5
   4   3 -12 1.07425 4.30845   3
   4   3 -12 -0.7908 3.32461   1
  -4  -3  12 -5.3835 5.04640   5
   3   3 -12 313.193 19.0782   1
   3   3 -12 352.803 22.2713   3
   3   3 -12 365.884 19.1489   7
  -3  -3  12 358.023 26.9546   3
   2   3 -12 878.131 37.3805   3
   2   3 -12 877.687 35.4814   7
  -2  -3  12 827.707 34.3974   3
   1   3 -12 642.122 28.0793   3
   1   3 -12 591.693 28.7809   2
   1   3 -12 623.957 29.5597   7
   0   3 -12 1923.81 58.8540   3
   0   3 -12 1855.48 74.2913   7
   0   3 -12 1804.43 63.6367   2
   0  -3  12 1964.36 62.9026   4
  -1   3 -12 1.12939 2.86558   7
  -1   3 -12 2.92507 2.23523   2
   1  -3  12 0.31135 2.65570   4
  -2   3 -12 1.04408 2.54941   7
  -2   3 -12 1.22183 2.69766   2
   2  -3  12 -2.1874 3.21314   4
  -3   3 -12 709.791 35.4653   7
  -3   3 -12 725.244 28.7433   6
   3  -3  12 728.863 32.9647   2
  -4   3 -12 -3.0240 2.92767   7
  -4   3 -12 -3.5572 2.79162   2
   4  -3  12 1.99885 4.30574   4
   4  -3  12 -4.8303 2.08087   2
  -5   3 -12 916.511 44.6779   7
  -5   3 -12 836.237 40.8104   2
   5  -3  12 956.850 41.3069   2
  -6   3 -12 79.5706 15.3464   7
   6  -3  12 114.229 14.4520   2
   5   2 -12 11.0027 6.31667   3
   5   2 -12 -2.2147 4.31089   1
  -5  -2  12 -4.2347 6.53758   5
  -5  -2  12 1.56599 3.93377   4
   4   2 -12 11.3651 4.24116   3
  -4  -2  12 10.2948 5.11770   5
   3   2 -12 189.569 15.1013   1
   3   2 -12 195.848 16.4672   3
  -3  -2  12 153.970 18.0308   5
   2   2 -12 450.398 22.7050   7
  -2  -2  12 442.519 23.2669   3
   1   2 -12 1531.26 55.7724   2
   1   2 -12 1621.64 54.6946   3
   1   2 -12 1615.73 55.9449   7
  -1  -2  12 1641.07 50.9041   4
   0   2 -12 -0.6636 2.14573   7
   0   2 -12 -1.1330 1.94640   2
   0  -2  12 -0.2261 1.31706   1
   0  -2  12 2.03331 1.88751   4
  -1   2 -12 184.648 14.9836   2
  -1   2 -12 179.213 19.6428   7
  -1   2 -12 196.988 11.4423   3
   1  -2  12 197.662 14.0417   4
   1  -2  12 212.318 16.4093   1
  -2   2 -12 614.217 30.8694   7
  -2   2 -12 610.114 29.8855   2
   2  -2  12 609.947 29.6905   4
   2  -2  12 593.024 24.8121   1
  -3   2 -12 410.125 18.7448   6
  -3   2 -12 440.159 25.2454   7
   3  -2  12 401.086 25.1518   4
   3  -2  12 396.813 28.2641   2
  -4   2 -12 1108.85 47.6879   7
   4  -2  12 1108.46 44.6571   2
  -5   2 -12 7.61661 4.13905   2
  -5   2 -12 -0.1111 4.36994   7
   5  -2  12 -0.3242 2.55654   2
   5  -2  12 0.62281 4.05614   4
  -6   2 -12 1.00453 3.77815   7
   6  -2  12 5.04611 4.77068   2
   5   1 -12 31.2898 8.11867   3
  -5  -1  12 33.3228 9.32559   5
   4   1 -12 224.094 19.7506   3
   4   1 -12 240.599 21.7181   1
  -4  -1  12 250.945 23.6043   5
   3   1 -12 1078.92 43.7818   3
   3   1 -12 989.159 43.0560   1
  -3  -1  12 876.480 46.4835   5
   2   1 -12 2365.60 76.0050   3
   2   1 -12 2276.66 75.1396   1
   1   1 -12 112.809 10.9280   3
   1   1 -12 85.9984 9.88474   2
  -1  -1  12 113.515 10.2044   1
   0   1 -12 239.512 17.1435   2
   0   1 -12 256.799 15.4157   3
   0  -1  12 267.096 15.1503   1
  -1   1 -12 56.7819 6.67747   3
  -1   1 -12 58.9768 8.57318   2
   1  -1  12 40.8074 6.61267   4
   1  -1  12 52.1781 6.79989   1
  -2   1 -12 4.45177 2.01360   3
  -2   1 -12 6.65322 2.97591   2
   2  -1  12 2.72555 2.28926   4
   2  -1  12 0.92226 1.60041   1
  -3   1 -12 1533.41 58.1103   2
  -3   1 -12 1629.02 59.3139   7
   3  -1  12 1520.20 57.2225   4
   3  -1  12 1713.28 70.6996   2
  -4   1 -12 223.483 18.1119   7
   4  -1  12 181.268 17.1996   4
   4  -1  12 169.066 14.7565   2
  -5   1 -12 6.79490 4.03029   2
  -5   1 -12 10.9696 4.63765   7
  -5   1 -12 9.30175 3.67208   4
   5  -1  12 11.3480 3.92474   2
  -6   1 -12 148.799 15.4401   4
  -6   1 -12 137.312 15.6060   7
   6  -1  12 155.211 15.8988   2
  -7   1 -12 127.991 18.4000   7
  -7   1 -12 111.918 15.2268   4
   7  -1  12 121.698 14.6462   2
   5   0 -12 -4.0604 3.59784   3
  -5   0  12 -10.479 4.67495   5
   4   0 -12 549.020 30.9942   3
   4   0 -12 512.142 32.2876   1
  -4   0  12 501.624 34.6382   5
   3   0 -12 869.881 39.8834   3
  -3   0  12 879.275 44.4659   5
   2   0 -12 27.1236 7.96554   1
   2   0 -12 35.4361 7.93104   3
  -2   0  12 19.7049 6.90042   5
   1   0 -12 3.05603 2.32774   3
   1   0 -12 -0.5410 1.62825   2
  -1   0  12 -0.8190 1.57732   1
   0   0 -12 496.324 23.9798   3
   0   0 -12 471.303 25.1943   2
   0   0  12 487.022 23.5547   1
  -1   0 -12 1573.02 52.7970   3
   1   0  12 1667.70 55.3495   1
  -2   0 -12 1955.99 58.4017   3
  -2   0 -12 1794.47 65.0904   2
   2   0  12 1972.70 63.6509   1
   2   0  12 1891.81 59.6803   4
  -3   0 -12 -2.2150 1.32927   3
  -3   0 -12 -0.7967 1.91539   2
   3   0  12 -0.7230 1.92101   4
   3   0  12 1.89772 2.53774   2
  -4   0 -12 6.65964 2.58986   4
   4   0  12 3.05693 2.24350   2
  -5   0 -12 203.873 18.0651   7
  -5   0 -12 235.782 22.2220   4
  -5   0 -12 212.993 18.7076   2
   5   0  12 200.648 16.3784   2
  -6   0 -12 63.3249 11.8549   2
  -6   0 -12 64.6050 10.4072   4
  -6   0 -12 62.9513 12.2440   7
   6   0  12 63.2409 10.9082   2
  -7   0 -12 926.226 44.6187   7
  -7   0 -12 951.928 44.7637   4
  -5   1  12 445.258 52.7467   5
   4  -1 -12 844.411 43.7148   3
  -4   1  12 777.064 44.6989   5
   3  -1 -12 -0.9599 4.03852   1
   3  -1 -12 5.86650 3.70815   3
  -3   1  12 3.99272 4.08166   5
   2  -1 -12 66.1394 9.53394   3
  -2   1  12 64.7804 10.7220   1
   1  -1 -12 -0.2320 4.59214   3
  -1   1  12 -0.1680 1.84635   1
   0  -1 -12 844.337 35.9698   3
   0   1  12 947.672 37.9592   1
  -1  -1 -12 1807.29 66.7886   2
  -1  -1 -12 1766.21 57.2862   3
   1   1  12 1771.10 61.3319   1
  -2  -1 -12 -1.8368 1.82301   2
  -2  -1 -12 0.88639 1.87525   3
   2   1  12 0.56995 2.25215   1
  -3  -1 -12 3.73113 2.36327   4
  -3  -1 -12 7.11428 4.25016   2
  -3  -1 -12 6.14522 1.81345   6
   3   1  12 5.43533 3.44737   2
  -4  -1 -12 306.888 17.2429   4
   4   1  12 294.374 19.4902   2
  -5  -1 -12 811.956 31.6514   3
  -5  -1 -12 827.538 35.0764   4
  -6  -1 -12 1912.79 71.1101   2
  -6  -1 -12 2085.11 69.7659   4
   6   1  12 1855.69 69.4727   2
  -7  -1 -12 3.56085 3.43329   7
  -7  -1 -12 4.22043 3.55474   4
   7   1  12 4.36680 3.52809   2
   7   1  12 0.23743 6.04842   5
  -8  -1 -12 70.8206 15.0314   4
  -8  -1 -12 103.387 16.5600   7
   8   1  12 121.828 16.6079   2
   4  -2 -12 22.0187 6.16127   3
  -4   2  12 18.1685 7.78335   5
   3  -2 -12 1.58378 3.74156   3
   3  -2 -12 4.78221 3.85974   1
  -3   2  12 5.80558 5.32595   5
   2  -2 -12 40.9701 9.34454   3
   2  -2 -12 40.9916 9.14961   1
  -2   2  12 59.6943 10.7094   1
  -2   2  12 46.1988 9.75522   5
   1  -2 -12 1793.95 64.2458   3
  -1   2  12 1746.79 66.5535   5
  -1   2  12 1862.35 70.2538   1
   0  -2 -12 1782.10 60.7070   3
   0   2  12 1770.05 63.1043   1
  -1  -2 -12 77.0684 8.89263   3
   1   2  12 87.7156 10.8961   1
  -2  -2 -12 366.290 20.0078   6
   2   2  12 372.440 23.3899   1
  -3  -2 -12 6.76884 2.68805   6
   3   2  12 9.49873 3.34343   1
  -4  -2 -12 466.709 18.2847   6
  -4  -2 -12 470.646 21.6467   4
   4   2  12 456.454 25.1117   2
  -5  -2 -12 1761.28 58.0213   3
  -5  -2 -12 1777.54 58.8628   4
   5   2  12 1599.11 61.1621   2
  -6  -2 -12 0.64359 2.41755   4
  -6  -2 -12 2.49279 3.04023   3
  -6  -2 -12 -1.1405 2.33225   2
   6   2  12 3.47615 2.48928   2
  -7  -2 -12 31.8000 8.71306   4
  -7  -2 -12 25.0550 5.76846   3
   7   2  12 44.0671 9.80245   2
   7   2  12 24.8678 7.04873   5
  -8  -2 -12 16.1201 7.35864   7
  -8  -2 -12 12.8401 10.4764   4
  -8  -2 -12 18.4281 6.48639   3
   8   2  12 11.7465 4.72028   2
   4  -3 -12 66.0710 13.7590   3
   4  -3 -12 41.4656 8.99320   7
  -4   3  12 29.4827 8.56750   5
   3  -3 -12 78.0730 12.7636   3
  -3   3  12 100.725 15.4146   5
   2  -3 -12 568.828 34.6972   6
   2  -3 -12 577.855 34.9339   1
   2  -3 -12 576.354 32.1892   3
  -2   3  12 607.473 33.4562   5
  -2   3  12 618.562 34.7802   1
   1  -3 -12 844.765 43.2291   6
   1  -3 -12 846.886 40.4507   2
   1  -3 -12 861.303 38.8368   3
  -1   3  12 788.780 39.4489   1
  -1   3  12 870.498 39.8557   5
   0  -3 -12 159.475 14.1385   2
   0  -3 -12 146.630 13.4663   3
   0   3  12 157.680 14.7503   5
   0   3  12 160.425 14.6158   1
  -1  -3 -12 463.915 24.8507   3
  -1  -3 -12 447.745 25.4408   2
  -1  -3 -12 430.483 24.8546   6
   1   3  12 477.331 28.2683   1
  -2  -3 -12 81.7467 9.48755   6
  -2  -3 -12 87.1670 10.3906   2
   2   3  12 77.3498 11.7101   1
  -3  -3 -12 1018.61 38.0830   6
   3   3  12 1052.17 45.8218   1
  -4  -3 -12 1618.04 50.7396   4
  -4  -3 -12 1608.44 49.5372   6
  -4  -3 -12 1567.09 57.9026   2
   4   3  12 1419.59 55.2090   2
  -5  -3 -12 3.31540 2.96561   2
  -5  -3 -12 5.19096 2.17592   4
  -5  -3 -12 6.84078 3.52535   3
   5   3  12 9.75817 4.26216   2
  -6  -3 -12 418.197 23.3535   3
  -6  -3 -12 360.290 24.0725   2
  -6  -3 -12 451.051 35.1629   4
   6   3  12 344.926 23.3439   2
  -7  -3 -12 2.64171 4.31393   4
  -7  -3 -12 1.57991 3.13356   3
   7   3  12 -1.4502 3.45554   2
  -8  -3 -12 57.7809 12.5713   3
  -8  -3 -12 44.2502 12.8339   4
   8   3  12 77.5007 13.8277   5
   3  -4 -12 407.288 29.2044   3
  -3   4  12 457.110 31.8353   5
   2  -4 -12 891.620 44.3133   3
  -2   4  12 992.527 48.3390   1
  -2   4  12 997.337 45.6987   5
   1  -4 -12 221.982 17.5773   2
   1  -4 -12 206.565 17.8459   3
   1  -4 -12 220.953 19.8767   6
  -1   4  12 231.516 20.1637   1
  -1   4  12 195.401 17.7043   5
   0  -4 -12 426.296 25.3012   2
   0  -4 -12 441.181 24.7291   3
   0  -4 -12 477.154 31.7355   6
   0   4  12 424.126 24.7899   5
   0   4  12 444.766 28.1217   1
  -1  -4 -12 7.54759 3.55200   3
  -1  -4 -12 10.2786 3.85715   2
  -1  -4 -12 5.66988 3.62020   6
   1   4  12 9.77900 4.18490   1
   1   4  12 23.7742 6.82265   5
  -2  -4 -12 301.514 20.9343   2
  -2  -4 -12 336.127 20.6718   6
   2   4  12 340.101 24.3131   1
  -3  -4 -12 807.750 37.4200   2
  -3  -4 -12 857.177 35.2103   6
   3   4  12 868.038 41.8139   1
  -4  -4 -12 23.6232 5.40056   4
  -4  -4 -12 14.1297 3.90537   6
  -4  -4 -12 31.0921 7.21029   2
   4   4  12 10.2085 4.26040   1
  -5  -4 -12 305.070 15.9856   6
  -5  -4 -12 312.388 18.5928   4
   5   4  12 297.228 20.4698   2
  -6  -4 -12 2.29660 1.94842   2
  -6  -4 -12 9.47706 3.93428   4
   6   4  12 6.44303 3.58598   2
  -7  -4 -12 442.942 30.6048   3
  -7  -4 -12 431.093 26.5279   4
   7   4  12 370.793 25.5159   2
   7   4  12 397.290 22.9441   5
  -8  -4 -12 824.980 39.0282   3
  -8  -4 -12 841.543 41.9001   4
   8   4  12 726.845 36.6171   5
   2  -5 -12 337.009 25.6063   3
  -2   5  12 310.532 27.3309   1
  -2   5  12 314.289 24.6599   5
   1  -5 -12 68.9008 10.5392   2
   1  -5 -12 58.4732 11.6277   3
  -1   5  12 66.1737 11.3278   5
  -1   5  12 61.6557 12.5122   1
   0  -5 -12 2.44984 3.08416   6
   0  -5 -12 1.25357 2.17858   3
   0   5  12 7.22461 3.52580   5
   0   5  12 0.72137 3.28823   1
  -1  -5 -12 649.080 32.3642   2
  -1  -5 -12 661.380 34.4980   6
   1   5  12 628.618 29.3866   5
   1   5  12 681.306 37.6011   1
  -2  -5 -12 964.984 42.2498   2
   2   5  12 992.187 48.2881   1
   2   5  12 1028.86 38.0581   5
  -3  -5 -12 150.954 14.3057   2
  -3  -5 -12 146.799 14.0169   6
   3   5  12 168.245 18.2699   1
  -4  -5 -12 602.648 25.5210   4
  -4  -5 -12 591.031 28.0845   6
  -4  -5 -12 607.559 30.2133   2
   4   5  12 546.471 34.2090   1
  -5  -5 -12 13.0144 3.87977   4
  -5  -5 -12 12.4351 7.46242   2
  -5  -5 -12 29.4185 6.65910   6
   5   5  12 32.9905 8.07996   2
  -6  -5 -12 221.419 17.9741   2
  -6  -5 -12 284.803 28.7851   4
  -6  -5 -12 207.186 18.4466   3
   6   5  12 186.587 17.2292   2
  -7  -5 -12 422.097 27.2137   3
  -7  -5 -12 460.838 27.4023   4
   7   5  12 401.533 26.5763   2
   7   5  12 461.728 23.0666   5
  -8  -5 -12 70.7966 14.2179   4
   8   5  12 30.8010 8.24119   2
   1  -6 -12 67.5997 12.1404   3
  -1   6  12 57.9477 12.4328   5
  -1   6  12 64.7837 14.1028   1
   0  -6 -12 415.279 26.3963   3
   0  -6 -12 410.914 25.6790   2
   0   6  12 446.150 25.5559   5
   0   6  12 410.481 30.4253   1
  -1  -6 -12 332.108 23.0096   2
  -1  -6 -12 356.657 24.7279   6
   1   6  12 369.841 20.2392   5
  -2  -6 -12 266.087 19.1147   2
  -2  -6 -12 304.773 22.3674   6
   2   6  12 284.591 16.2177   5
   2   6  12 278.116 25.1986   1
  -3  -6 -12 341.229 20.9205   2
   3   6  12 274.578 25.0793   1
   3   6  12 301.193 16.0398   5
  -4  -6 -12 0.70639 3.09645   6
  -4  -6 -12 -2.6556 2.22848   2
  -5  -6 -12 447.268 26.3036   2
  -5  -6 -12 474.529 24.9525   4
  -5  -6 -12 431.162 23.8892   6
   5   6  12 408.683 30.5791   1
  -6  -6 -12 373.740 23.6365   2
  -6  -6 -12 399.934 24.1894   4
   6   6  12 316.264 22.7300   2
  -7  -6 -12 70.5936 12.9734   4
   7   6  12 52.7230 11.2173   2
   0  -7 -12 185.595 18.4875   3
   0  -7 -12 176.320 17.2358   2
   0   7  12 134.936 19.5638   1
   0   7  12 164.425 15.6011   5
  -1  -7 -12 255.038 20.0084   2
   1   7  12 261.274 16.9770   5
   1   7  12 255.359 25.5869   1
  -2  -7 -12 365.215 24.3064   2
   2   7  12 344.035 28.8508   1
  -3  -7 -12 55.7536 9.91121   2
  -3  -7 -12 68.8138 11.5458   6
   3   7  12 51.8928 14.5595   1
  -4  -7 -12 194.177 17.6197   6
  -4  -7 -12 199.222 16.8651   2
   4   7  12 146.238 20.3469   1
  -5  -7 -12 228.449 17.5994   2
   5   7  12 213.526 24.1503   1
  -6  -7 -12 321.171 22.8842   4
  -6  -7 -12 277.380 20.8900   2
   6   7  12 278.166 26.4898   1
  -7  -7 -12 297.567 24.5270   4
   7   7  12 303.037 23.0285   2
   2   8  12 -3.8419 4.82508   1
   3   8  12 103.224 19.7805   1
  -4  -8 -12 273.409 20.2381   2
   4   8  12 227.340 26.2427   1
  -5  -8 -12 145.036 14.3286   2
   5   8  12 144.265 21.9252   1
   6   8  12 267.292 29.9053   1
   2   6 -13 540.380 31.6985   7
   2   6 -13 564.153 29.1183   3
  -2  -6  13 567.060 26.5731   3
   0   6 -13 89.8451 15.5707   6
   0   6 -13 67.2161 11.3973   2
  -1   6 -13 74.0596 14.7402   6
  -1   6 -13 71.8099 15.0294   7
  -4  -5  13 30.2682 9.43236   5
   3   5 -13 511.572 27.1593   7
   3   5 -13 478.287 26.6635   2
   3   5 -13 490.919 29.2552   3
  -3  -5  13 501.930 26.6491   3
   2   5 -13 110.566 11.7979   7
   2   5 -13 88.2828 13.5280   2
   2   5 -13 83.4720 11.8141   3
  -2  -5  13 86.5469 9.96528   3
   1   5 -13 375.723 24.8554   7
   1   5 -13 353.006 20.3097   3
  -1  -5  13 369.499 23.3170   4
   0   5 -13 -3.0827 3.00857   2
   0   5 -13 3.54372 4.02628   7
   0  -5  13 -5.9868 4.35359   4
  -1   5 -13 -5.0184 3.55302   6
  -1   5 -13 2.75991 3.31362   2
  -1   5 -13 9.10764 4.94190   7
   1  -5  13 3.58330 5.22515   4
  -2   5 -13 473.510 33.5874   7
  -2   5 -13 375.511 36.6236   6
  -3   5 -13 447.054 37.0246   2
  -3   5 -13 401.423 23.8592   6
  -3   5 -13 405.712 28.9324   7
   4   4 -13 460.186 29.5957   3
   4   4 -13 425.033 21.8830   7
   4   4 -13 429.974 23.6847   1
  -4  -4  13 421.404 32.4003   5
   3   4 -13 128.025 14.8708   3
   3   4 -13 107.149 12.9310   2
   3   4 -13 121.422 13.0282   7
  -3  -4  13 97.0387 11.8001   3
   2   4 -13 284.139 19.8358   3
   2   4 -13 281.841 19.2311   7
   2   4 -13 300.838 19.6520   2
  -2  -4  13 266.621 17.2918   3
   1   4 -13 319.453 21.6350   7
   1   4 -13 312.753 18.8079   3
  -1  -4  13 334.203 20.4038   4
   0   4 -13 5.33149 3.16293   3
   0   4 -13 0.81527 2.59851   7
   0   4 -13 -1.1897 2.46434   2
   0  -4  13 0.68208 3.48515   4
  -2   4 -13 334.943 24.5682   7
  -2   4 -13 345.679 21.3487   6
   2  -4  13 383.692 36.3457   4
  -3   4 -13 179.452 14.6896   6
  -3   4 -13 215.792 18.4947   2
  -3   4 -13 227.617 20.5460   7
   3  -4  13 227.753 20.7568   4
  -4   4 -13 21.6537 6.80929   7
  -4   4 -13 25.4426 7.54344   2
   4  -4  13 44.5143 9.87384   2
   4   3 -13 13.3019 4.24914   1
   4   3 -13 -4.0419 2.95998   7
   4   3 -13 16.9673 6.36282   3
  -4  -3  13 4.03129 5.67771   5
   3   3 -13 1177.04 42.6863   7
   3   3 -13 1055.30 46.2120   2
   3   3 -13 1193.48 48.1472   3
  -3  -3  13 1127.12 45.4036   3
   2   3 -13 134.456 11.7460   7
   2   3 -13 96.8540 16.7308   2
   2   3 -13 135.010 13.3852   3
  -2  -3  13 131.922 12.3721   3
   1   3 -13 66.3776 9.05214   3
   1   3 -13 76.2634 9.97426   7
  -1  -3  13 64.0016 8.21453   4
   0   3 -13 869.128 38.2551   7
   0   3 -13 862.796 32.7955   3
   0  -3  13 857.675 35.3304   4
  -1   3 -13 579.401 30.9121   7
   1  -3  13 615.026 29.7822   4
  -2   3 -13 471.163 27.9446   7
   2  -3  13 482.093 26.9757   4
  -3   3 -13 539.337 24.5774   6
  -3   3 -13 550.055 31.7796   7
  -3   3 -13 571.966 31.9400   2
  -4   3 -13 1.50443 3.55934   2
  -4   3 -13 3.33561 3.66076   7
   4  -3  13 -2.3879 2.84880   2
   4  -3  13 -1.2833 4.58705   4
  -5   3 -13 235.965 22.2313   7
   5  -3  13 228.627 19.7398   2
   5   2 -13 46.6847 14.0878   1
   4   2 -13 506.194 30.4749   3
   4   2 -13 485.095 21.6927   7
  -4  -2  13 454.973 33.2194   5
   3   2 -13 239.407 19.4913   3
   3   2 -13 238.240 18.4771   1
   3   2 -13 279.549 15.6083   7
  -3  -2  13 212.329 22.1661   5
   2   2 -13 4.61222 2.88459   7
   2   2 -13 8.18710 3.55623   2
   2   2 -13 14.4434 4.56735   3
   1   2 -13 797.424 34.7102   7
   1   2 -13 776.512 33.4589   3
   0   2 -13 87.3434 11.1523   7
   0   2 -13 93.2277 9.71809   3
   0  -2  13 96.3900 9.57002   4
   0  -2  13 81.5509 7.90341   1
  -1   2 -13 1466.24 47.1865   3
  -1   2 -13 1480.75 55.5945   7
   1  -2  13 1448.13 46.2116   1
   1  -2  13 1523.54 52.0179   4
  -2   2 -13 451.468 26.3945   7
   2  -2  13 454.063 25.0504   4
   2  -2  13 435.010 20.5183   1
  -3   2 -13 -3.6771 2.33233   7
  -3   2 -13 0.59418 2.09725   6
   3  -2  13 -0.4763 3.17827   4
   3  -2  13 -0.6999 1.86897   1
  -4   2 -13 414.250 26.5656   7
  -4   2 -13 387.638 25.2169   2
   4  -2  13 380.721 23.4461   2
  -5   2 -13 413.899 28.2826   7
  -5   2 -13 397.731 34.2954   2
   5  -2  13 437.133 26.2517   2
   5  -2  13 390.519 29.7711   4
  -6   2 -13 186.130 19.6716   7
   6  -2  13 208.753 23.2643   2
   4   1 -13 73.7136 15.1299   1
   4   1 -13 56.5356 12.9694   3
  -4  -1  13 58.2863 14.6246   5
   3   1 -13 -1.7156 3.05703   3
   3   1 -13 -0.6382 2.39658   1
  -3  -1  13 -6.8544 3.80558   5
   2   1 -13 366.192 23.4978   2
   2   1 -13 406.789 23.5334   3
   1   1 -13 53.6638 8.43367   3
  -1  -1  13 39.7082 7.50179   1
   0   1 -13 1415.47 49.0804   3
   0  -1  13 1403.66 47.5486   1
  -1   1 -13 1103.70 38.9190   3
   1  -1  13 1095.78 39.8447   1
   1  -1  13 1139.02 39.3856   4
  -2   1 -13 49.5585 6.16157   3
   2  -1  13 45.9362 8.30564   4
   2  -1  13 62.6247 8.53551   1
  -3   1 -13 356.688 23.3612   7
   3  -1  13 360.857 20.5199   1
   3  -1  13 345.424 22.2277   4
  -4   1 -13 193.175 17.6258   7
  -4   1 -13 155.891 22.6629   2
   4  -1  13 185.322 17.5988   4
   4  -1  13 200.444 16.3718   2
  -5   1 -13 1023.36 45.8607   7
  -5   1 -13 969.119 44.8891   2
   5  -1  13 1044.24 44.5994   2
   5  -1  13 961.087 51.2908   4
  -6   1 -13 308.732 24.1134   7
  -6   1 -13 328.709 23.9339   4
   6  -1  13 285.929 21.8448   2
   4   0 -13 71.8926 12.6002   3
   4   0 -13 74.4599 21.0121   1
  -4   0  13 44.3353 12.7523   5
   3   0 -13 191.954 17.3635   3
   3   0 -13 207.860 19.0788   1
  -3   0  13 179.354 20.1202   5
   2   0 -13 -2.3048 2.01046   1
   2   0 -13 1.54507 2.86069   3
  -2   0  13 6.46745 5.56527   5
   1   0 -13 1800.98 66.2709   2
   1   0 -13 1912.31 64.8015   3
  -1   0  13 1997.11 64.7748   1
   0   0 -13 374.593 21.3510   3
   0   0  13 385.845 20.9216   1
  -1   0 -13 14.6366 4.05862   3
   1   0  13 17.5815 4.40772   1
  -2   0 -13 142.663 11.0355   3
   2   0  13 152.666 13.5319   1
   2   0  13 136.592 11.1768   4
  -3   0 -13 25.5621 4.70061   3
   3   0  13 16.3426 4.35439   1
  -4   0 -13 388.749 28.1960   2
   4   0  13 338.200 22.0974   2
  -5   0 -13 888.042 42.5461   2
  -5   0 -13 937.516 39.6969   4
  -5   0 -13 967.424 43.7919   7
   5   0  13 900.447 41.2068   2
  -6   0 -13 67.4916 13.5008   7
  -6   0 -13 84.1993 11.8649   4
   6   0  13 83.3103 12.0455   2
  -7   0 -13 57.9207 13.1868   4
  -7   0 -13 25.4483 11.5233   7
   7   0  13 63.4037 12.2851   2
   4  -1 -13 59.1402 11.4816   3
  -4   1  13 87.2325 16.6336   5
   3  -1 -13 5.10811 3.70135   1
   3  -1 -13 -3.2183 3.56909   3
  -3   1  13 -2.7176 4.74626   5
   2  -1 -13 1118.87 46.3164   3
  -2   1  13 1010.97 49.5721   5
  -2   1  13 1163.14 47.4701   1
   1  -1 -13 293.055 20.5189   3
  -1   1  13 343.508 21.5690   1
  -1   1  13 313.617 24.1981   5
   0  -1 -13 10.9033 3.75997   3
   0   1  13 7.94993 2.97594   1
  -1  -1 -13 180.364 13.5517   3
   1   1  13 202.300 15.6757   1
  -2  -1 -13 31.4792 6.03856   3
   2   1  13 34.5723 7.90918   1
  -3  -1 -13 2371.06 71.2403   3
  -3  -1 -13 2335.00 71.3264   6
   3   1  13 2493.94 80.4173   1
  -4  -1 -13 567.583 25.3907   4
   4   1  13 506.031 28.0485   2
  -5  -1 -13 154.205 12.6550   4
  -5  -1 -13 137.683 14.8365   2
  -5  -1 -13 140.990 11.5544   3
   5   1  13 120.565 13.2909   2
  -6  -1 -13 129.048 13.5382   4
   6   1  13 132.540 14.7126   2
  -7  -1 -13 74.6032 11.0296   4
  -7  -1 -13 65.1846 13.5969   7
   7   1  13 65.3026 11.8474   2
   4  -2 -13 86.6807 16.7526   3
  -4   2  13 96.8016 15.8604   5
   3  -2 -13 1439.67 63.3772   3
  -3   2  13 1370.72 61.5076   5
   2  -2 -13 212.072 20.3980   1
   2  -2 -13 204.543 18.0246   3
  -2   2  13 201.332 19.7500   5
  -2   2  13 229.868 19.0575   1
   1  -2 -13 35.3803 9.02300   3
   1  -2 -13 60.3219 9.58052   2
  -1   2  13 51.5314 9.34293   1
  -1   2  13 53.7518 10.9018   5
   0  -2 -13 120.248 12.6538   3
   0   2  13 127.612 20.6978   1
  -1  -2 -13 1.36883 2.15033   3
   1   2  13 -3.6777 2.07688   1
  -2  -2 -13 1374.74 49.4898   6
  -2  -2 -13 1383.74 47.5834   3
   2   2  13 1295.40 53.5474   1
  -3  -2 -13 721.027 29.4524   6
   3   2  13 697.787 35.2015   1
  -4  -2 -13 2.14821 2.30528   4
  -4  -2 -13 1.55568 1.98332   6
   4   2  13 6.37964 2.93456   2
  -5  -2 -13 46.0339 8.09804   3
  -5  -2 -13 54.5306 8.26916   4
   5   2  13 52.6398 9.37953   2
  -6  -2 -13 -0.3140 3.24779   3
  -6  -2 -13 0.08364 2.53688   4
   6   2  13 -0.2344 2.79977   2
  -7  -2 -13 1176.33 49.1076   4
  -7  -2 -13 1100.24 43.1241   3
  -8  -2 -13 335.671 26.3164   4
  -8  -2 -13 391.538 44.9047   7
   3  -3 -13 65.3025 11.7980   3
  -3   3  13 48.9113 12.8541   5
   2  -3 -13 6.28654 4.67636   3
  -2   3  13 3.68433 4.12554   1
  -2   3  13 9.09027 5.41615   5
   1  -3 -13 112.561 13.8928   3
   1  -3 -13 110.751 14.1068   6
   1  -3 -13 124.504 12.8463   2
  -1   3  13 121.719 14.1591   5
  -1   3  13 124.960 14.5771   1
   0  -3 -13 13.7220 6.00579   2
   0  -3 -13 14.9805 4.75138   3
   0   3  13 30.4524 8.48893   1
   0   3  13 24.8274 6.54186   5
  -1  -3 -13 2993.19 97.2192   2
  -1  -3 -13 3028.23 93.6714   3
  -1  -3 -13 3176.55 98.7216   6
   1   3  13 3051.02 99.7489   1
  -2  -3 -13 406.349 24.7263   2
  -2  -3 -13 415.382 23.3061   6
   2   3  13 380.576 25.6367   1
  -3  -3 -13 332.856 22.5302   2
   3   3  13 355.218 24.2816   1
  -4  -3 -13 2.41967 3.25877   2
  -4  -3 -13 0.06795 2.03587   4
  -4  -3 -13 -0.6727 1.83501   6
   4   3  13 1.41846 2.75942   1
  -5  -3 -13 4.39921 3.30418   2
  -5  -3 -13 0.95208 2.43547   4
   5   3  13 6.90154 3.48061   2
  -6  -3 -13 627.266 33.0411   4
  -6  -3 -13 483.726 26.9056   3
   6   3  13 532.297 30.4574   2
  -7  -3 -13 494.874 28.1940   4
   7   3  13 375.069 30.9203   2
  -8  -3 -13 10.6901 7.30777   4
  -8  -3 -13 15.2590 7.06157   3
   8   3  13 3.29730 5.61953   2
   2  -4 -13 14.4291 4.95712   3
  -2   4  13 1.15040 5.08199   5
   1  -4 -13 215.993 19.3538   3
   1  -4 -13 228.840 20.0295   2
  -1   4  13 239.167 19.6973   5
  -1   4  13 195.575 19.2755   1
   0  -4 -13 1028.48 44.3053   3
   0  -4 -13 1115.78 49.1692   6
   0  -4 -13 1052.90 45.6567   2
   0   4  13 1002.37 47.2971   1
   0   4  13 1043.47 44.9836   5
  -1  -4 -13 219.347 19.9979   2
  -1  -4 -13 190.404 16.1311   3
   1   4  13 201.401 16.8407   5
   1   4  13 205.575 19.0336   1
  -2  -4 -13 60.4608 9.68316   6
  -2  -4 -13 46.1664 8.66247   2
   2   4  13 54.6218 11.3454   1
  -3  -4 -13 0.99118 2.47051   6
   3   4  13 -1.7623 2.19868   1
  -4  -4 -13 -1.3098 2.56044   6
   4   4  13 -2.6735 2.17173   1
  -5  -4 -13 1740.14 55.9063   4
  -5  -4 -13 1636.54 62.0072   2
  -5  -4 -13 1659.97 52.4627   6
   5   4  13 1515.32 59.9170   2
  -6  -4 -13 414.602 32.3882   4
  -6  -4 -13 376.026 25.7666   3
   6   4  13 366.046 25.0436   2
  -7  -4 -13 275.080 20.9156   4
  -7  -4 -13 261.036 20.5208   3
   7   4  13 261.335 24.9877   2
  -8  -4 -13 40.1007 11.5002   4
  -8  -4 -13 13.7207 6.40417   3
   8   4  13 10.6742 4.77070   2
   8   4  13 3.66034 5.19620   5
   2  -5 -13 157.815 18.9819   3
  -2   5  13 150.747 19.7404   1
  -2   5  13 116.345 18.6487   5
   1  -5 -13 705.415 43.9018   3
  -1   5  13 677.699 36.1739   5
   0  -5 -13 197.116 18.0023   3
   0  -5 -13 202.108 17.9437   2
   0   5  13 188.959 19.9360   1
   0   5  13 213.791 17.6999   5
  -1  -5 -13 287.580 20.7676   3
  -1  -5 -13 308.845 21.9050   2
  -1  -5 -13 362.883 24.0903   6
   1   5  13 347.300 21.3453   5
   1   5  13 318.505 25.7502   1
  -2  -5 -13 10.8860 7.59680   2
   2   5  13 19.3924 5.05274   5
   2   5  13 18.4994 5.57376   1
  -3  -5 -13 29.0968 7.63531   6
  -3  -5 -13 12.8467 6.26032   2
   3   5  13 16.6209 5.71163   1
  -4  -5 -13 861.180 36.0293   6
  -4  -5 -13 809.276 38.8105   2
   4   5  13 800.399 43.7845   1
  -5  -5 -13 257.340 19.8002   2
  -5  -5 -13 244.713 16.4498   6
  -5  -5 -13 235.079 15.7231   4
   5   5  13 260.794 23.1016   1
  -6  -5 -13 74.1827 11.8875   3
   6   5  13 52.4983 10.7341   2
  -7  -5 -13 -2.3856 3.44374   4
   7   5  13 -5.1776 3.71820   5
   7   5  13 -6.3372 6.31865   2
   1  -6 -13 8.02335 6.33100   3
  -1   6  13 17.2496 7.32104   5
  -1   6  13 4.87013 5.34727   1
   0  -6 -13 281.019 21.8910   3
   0   6  13 255.201 19.6702   5
   0   6  13 267.960 24.0107   1
  -1  -6 -13 4.87107 3.84275   2
  -1  -6 -13 7.39995 4.00712   3
   1   6  13 10.4042 4.40045   5
   1   6  13 3.79855 4.24988   1
  -2  -6 -13 86.3486 12.3711   2
  -2  -6 -13 53.7575 12.4750   6
   2   6  13 78.0511 15.2524   1
   2   6  13 67.5232 9.17920   5
  -3  -6 -13 1620.10 60.4400   2
  -3  -6 -13 1580.30 66.2452   6
   3   6  13 1476.03 67.4662   1
  -4  -6 -13 267.841 19.9042   2
   4   6  13 243.312 24.9171   1
  -5  -6 -13 378.416 22.8112   6
  -5  -6 -13 346.005 20.6491   4
  -5  -6 -13 383.505 24.2269   2
   5   6  13 380.531 30.2713   1
  -6  -6 -13 155.951 15.0436   4
   6   6  13 132.655 15.2396   2
  -7  -6 -13 7.54052 5.20171   4
   7   6  13 20.3618 8.25690   2
  -1  -7 -13 104.466 13.7048   3
   1   7  13 90.0740 12.8373   5
   1   7  13 98.4201 17.7196   1
  -2  -7 -13 428.956 26.8002   2
   2   7  13 444.290 33.1389   1
  -3  -7 -13 17.8747 6.08881   2
   3   7  13 20.0588 7.76738   1
  -4  -7 -13 251.954 19.3369   2
  -4  -7 -13 217.437 19.5633   6
   4   7  13 256.260 27.5355   1
  -5  -7 -13 26.1521 6.15616   2
  -5  -7 -13 19.1983 4.59403   4
   5   7  13 50.9977 14.7081   1
  -6  -7 -13 15.8711 5.66852   4
   6   7  13 7.49130 5.42995   1
  -3  -8 -13 495.362 28.3340   2
  -4  -8 -13 137.480 14.8514   2
   2   5 -14 54.3483 11.6806   3
   2   5 -14 37.7151 7.96007   2
   2   5 -14 23.1505 6.85053   7
  -2  -5  14 33.0301 10.4664   4
   1   5 -14 68.9060 17.3059   2
   1   5 -14 50.0496 12.6807   7
   1   5 -14 62.5895 10.2466   3
  -1  -5  14 56.4921 13.6582   4
   0   5 -14 1073.48 44.7840   2
   0   5 -14 1110.78 49.3902   7
   0  -5  14 1073.05 47.2913   4
  -1   5 -14 20.3041 6.53545   6
  -1   5 -14 58.8346 12.6296   7
  -1   5 -14 30.9942 8.11781   2
   1  -5  14 66.9547 14.1462   4
  -2   5 -14 307.545 24.6847   7
  -2   5 -14 223.981 19.9868   2
  -2   5 -14 239.046 19.8534   6
   3   4 -14 9.44284 5.43440   3
   3   4 -14 8.31199 4.76712   7
   2   4 -14 117.003 13.7845   2
   2   4 -14 150.658 14.0404   7
   2   4 -14 153.669 15.0619   3
  -2  -4  14 122.766 13.8608   4
   1   4 -14 585.725 31.2207   2
   1   4 -14 637.938 31.9167   7
   1   4 -14 579.784 27.5963   3
  -1  -4  14 595.331 29.2498   4
   0   4 -14 3.59629 3.40668   2
   0   4 -14 4.37405 4.08192   7
   0  -4  14 -3.7949 3.67508   4
  -1   4 -14 275.391 20.7687   2
  -1   4 -14 303.063 23.2664   7
  -2   4 -14 15.3241 6.69708   2
  -2   4 -14 17.9909 4.74491   6
  -2   4 -14 10.0953 5.13543   7
   2  -4  14 14.7195 6.10240   4
  -3   4 -14 127.588 16.3673   7
  -3   4 -14 110.940 15.1129   2
  -3   4 -14 105.805 12.2052   6
   4   3 -14 -4.6866 3.27160   7
   4   3 -14 4.03061 3.90095   1
   4   3 -14 14.5048 6.68879   3
  -4  -3  14 14.2317 7.73434   5
   3   3 -14 114.148 12.0115   7
   3   3 -14 136.384 15.0127   3
  -3  -3  14 108.636 16.5922   5
   2   3 -14 898.888 38.9628   3
   2   3 -14 824.094 38.2202   2
   2   3 -14 906.282 37.7561   7
  -2  -3  14 885.639 34.9052   4
   1   3 -14 16.4681 4.69768   2
   1   3 -14 32.4160 7.79533   7
   1   3 -14 13.9797 4.32895   3
  -1  -3  14 5.88588 3.88625   4
   0   3 -14 387.743 23.6705   7
   0   3 -14 389.503 24.4183   2
   0   3 -14 394.757 20.1594   3
   0  -3  14 415.344 22.2211   4
  -1   3 -14 8.75087 3.65363   2
  -1   3 -14 16.0488 5.19812   7
   1  -3  14 12.4464 4.52808   4
  -2   3 -14 29.6173 9.30767   2
  -2   3 -14 61.4186 12.1437   7
  -3   3 -14 555.891 32.1411   7
  -3   3 -14 495.226 24.4225   6
  -3   3 -14 484.037 29.3187   2
   3  -3  14 595.342 48.8200   4
  -4   3 -14 -1.1814 3.88956   7
   4  -3  14 5.51074 6.49224   4
   4  -3  14 -0.9795 4.45009   2
  -5   3 -14 217.692 23.3615   7
   5  -3  14 192.333 18.1365   2
   4   2 -14 131.340 16.0908   3
   4   2 -14 115.710 10.8023   7
  -4  -2  14 142.937 20.3322   5
   3   2 -14 518.408 29.8310   3
   3   2 -14 523.621 25.2019   7
   2   2 -14 81.3192 10.9354   3
   2   2 -14 50.6061 9.33786   2
   2   2 -14 56.8652 14.2672   7
   1   2 -14 529.065 26.5158   3
   1   2 -14 512.471 26.9336   7
   1   2 -14 466.464 26.8612   2
   0   2 -14 14.0600 3.87485   3
   0   2 -14 10.8495 4.33696   7
   0   2 -14 9.04350 4.24656   2
   0  -2  14 16.9436 4.90365   1
  -1   2 -14 108.834 12.6425   7
  -1   2 -14 102.318 9.38746   3
  -1   2 -14 122.474 13.2187   2
   1  -2  14 100.445 8.58325   1
  -2   2 -14 1575.29 59.6990   7
  -2   2 -14 1467.84 60.4435   2
   2  -2  14 1512.16 49.9910   1
   2  -2  14 1669.37 57.8252   4
  -3   2 -14 -0.3833 3.03566   2
  -3   2 -14 -4.1198 2.37379   7
   3  -2  14 7.60925 3.83545   4
   3  -2  14 5.34903 2.85801   1
  -4   2 -14 904.236 44.2602   7
  -4   2 -14 934.029 44.1314   2
   4  -2  14 935.093 42.1290   2
   4  -2  14 1019.44 53.7454   4
  -5   2 -14 92.2262 15.0448   7
   5  -2  14 103.070 13.8226   2
   4   1 -14 406.544 29.0184   1
   4   1 -14 407.780 27.1569   3
  -4  -1  14 370.438 29.7324   5
   3   1 -14 3.82674 3.58333   7
   3   1 -14 16.0403 5.22878   3
  -3  -1  14 3.55496 6.74648   5
   2   1 -14 508.349 27.9367   3
   2   1 -14 491.014 30.5512   2
   1   1 -14 74.3960 10.6025   3
   1   1 -14 77.8902 10.4817   2
  -1  -1  14 71.2141 9.04043   1
   0   1 -14 205.266 24.2319   2
   0   1 -14 224.158 15.5161   3
   0  -1  14 193.637 13.5236   1
  -1   1 -14 971.483 42.5060   2
  -1   1 -14 946.783 35.6200   3
   1  -1  14 932.560 35.8708   1
  -2   1 -14 98.0426 11.8470   2
  -2   1 -14 127.598 9.90737   3
   2  -1  14 112.128 11.1843   1
   2  -1  14 128.782 12.5096   4
  -3   1 -14 870.574 42.6388   2
  -3   1 -14 966.815 43.8591   7
   3  -1  14 1000.09 39.8713   1
   3  -1  14 1033.19 42.2846   4
  -4   1 -14 14.9564 5.60112   2
  -4   1 -14 8.45464 4.43608   7
   4  -1  14 16.3040 5.60541   2
   4  -1  14 -1.4667 3.18771   4
  -5   1 -14 24.0903 7.16698   7
   5  -1  14 35.5652 9.29870   2
   5  -1  14 23.0457 8.04404   4
  -6   1 -14 765.964 39.9568   7
   6  -1  14 704.552 38.8887   2
   4   0 -14 354.328 25.4892   3
  -4   0  14 251.337 27.3959   5
   3   0 -14 664.082 35.0780   3
   3   0 -14 700.904 37.4535   1
  -3   0  14 587.932 45.4962   5
   2   0 -14 1.02174 3.09883   3
  -2   0  14 -3.3205 4.12729   5
   1   0 -14 166.502 15.0617   2
   1   0 -14 169.455 14.5457   3
  -1   0  14 164.081 14.2115   1
   0   0 -14 1321.85 54.3855   2
   0   0  14 1346.41 48.9598   1
  -1   0 -14 94.6763 10.1166   3
  -1   0 -14 79.8236 10.7341   2
   1   0  14 92.6391 9.97233   1
  -2   0 -14 1548.55 52.0416   3
   2   0  14 1555.20 56.0500   1
  -3   0 -14 365.746 27.0280   2
  -3   0 -14 358.839 18.1096   3
   3   0  14 345.346 21.9485   1
  -4   0 -14 13.0336 4.88943   2
   4   0  14 10.0359 4.35235   2
  -5   0 -14 171.858 17.9847   7
   5   0  14 164.068 16.0280   2
  -6   0 -14 1.43854 3.45148   4
  -6   0 -14 -1.8649 4.39508   7
   6   0  14 -1.0527 3.79810   2
  -7   0 -14 356.091 37.1120   4
  -7   0 -14 384.644 28.3031   7
   7   0  14 393.550 28.1660   2
   3  -1 -14 47.5103 11.5723   3
  -3   1  14 41.1755 17.4658   5
   2  -1 -14 287.122 20.7233   3
   2  -1 -14 259.508 21.6202   1
  -2   1  14 258.413 23.6919   5
  -2   1  14 291.740 21.7179   1
   1  -1 -14 195.469 16.6202   2
   1  -1 -14 191.133 16.1799   3
  -1   1  14 228.491 17.5357   1
  -1   1  14 164.710 18.3563   5
   0  -1 -14 411.052 23.9311   3
   0   1  14 416.881 23.9937   1
  -1  -1 -14 1355.39 49.5491   3
   1   1  14 1338.91 51.2162   1
  -2  -1 -14 -1.0437 2.24446   2
  -2  -1 -14 1.49376 2.52346   3
   2   1  14 -1.9604 1.81915   1
  -3  -1 -14 28.2315 6.76254   6
  -3  -1 -14 15.2886 3.78162   3
   3   1  14 14.0404 4.69995   1
  -4  -1 -14 909.985 31.5714   3
  -4  -1 -14 672.633 37.4688   2
  -4  -1 -14 854.051 27.8146   6
   4   1  14 739.593 37.1491   2
  -5  -1 -14 31.3549 10.3570   2
  -5  -1 -14 34.9848 8.20342   4
   5   1  14 34.3424 8.71707   2
  -6  -1 -14 506.626 27.6499   4
   6   1  14 467.639 29.3411   2
  -7  -1 -14 128.548 18.3532   7
  -7  -1 -14 137.449 16.2308   4
   7   1  14 155.519 17.2481   2
   3  -2 -14 -6.7956 3.75846   3
  -3   2  14 1.89727 5.96134   5
   2  -2 -14 190.988 26.0357   1
   2  -2 -14 190.862 17.7294   3
  -2   2  14 211.028 19.2536   1
  -2   2  14 144.737 19.1157   5
   1  -2 -14 129.437 14.7261   3
   1  -2 -14 112.951 15.2881   2
  -1   2  14 103.821 16.0392   5
  -1   2  14 155.909 14.7648   1
   0  -2 -14 1351.01 52.8760   3
   0  -2 -14 1338.62 53.8931   2
   0   2  14 1425.71 54.5904   1
  -1  -2 -14 225.907 16.3321   3
   1   2  14 244.984 18.7238   1
  -2  -2 -14 77.7410 9.53785   3
  -2  -2 -14 85.9017 10.9642   6
   2   2  14 90.6925 19.7941   1
  -3  -2 -14 217.742 14.5933   3
  -3  -2 -14 217.972 15.5118   6
   3   2  14 198.538 18.7327   1
  -4  -2 -14 233.615 13.5136   6
  -4  -2 -14 246.675 14.9150   4
   4   2  14 229.914 19.5265   1
  -5  -2 -14 1130.43 53.6596   2
  -5  -2 -14 1269.40 44.9925   4
  -5  -2 -14 1193.13 45.2977   3
   5   2  14 1109.42 48.7938   2
  -6  -2 -14 0.42417 2.94097   4
  -6  -2 -14 -2.2825 4.04529   3
   6   2  14 -5.5193 3.12348   2
  -7  -2 -14 -5.9417 3.68030   4
  -7  -2 -14 7.69601 4.77046   3
   7   2  14 2.84348 3.87702   2
  -3   3  14 23.2368 9.73887   5
   2  -3 -14 469.268 30.5234   3
  -2   3  14 512.395 32.1242   1
  -2   3  14 469.685 32.1974   5
   1  -3 -14 1072.91 47.6960   3
  -1   3  14 989.594 47.5575   5
  -1   3  14 1056.07 47.5244   1
   0  -3 -14 -1.9063 3.38344   6
   0  -3 -14 0.61518 3.36527   2
   0  -3 -14 -0.3889 2.83496   3
   0   3  14 2.61944 3.61793   5
   0   3  14 2.90286 2.80505   1
  -1  -3 -14 38.0575 7.95715   3
  -1  -3 -14 20.5377 6.19580   2
   1   3  14 13.1893 4.86085   1
  -2  -3 -14 402.961 26.1622   2
  -2  -3 -14 434.190 23.5193   3
  -2  -3 -14 410.535 24.3602   6
   2   3  14 421.366 28.3079   1
  -3  -3 -14 479.663 24.4407   6
   3   3  14 432.946 29.4349   1
  -4  -3 -14 1337.96 56.5762   2
  -4  -3 -14 1481.40 48.4199   6
   4   3  14 1419.00 59.2714   1
  -5  -3 -14 109.371 11.0924   4
  -5  -3 -14 114.004 16.8050   2
   5   3  14 92.8064 12.7772   2
  -6  -3 -14 -2.4199 3.14303   3
  -6  -3 -14 6.56238 3.12837   4
   6   3  14 -3.6867 3.52473   2
  -7  -3 -14 115.928 14.6388   4
   7   3  14 120.135 14.7997   2
   2  -4 -14 449.590 29.6710   3
  -2   4  14 441.425 31.9987   1
  -2   4  14 393.280 29.7755   5
  -1   4  14 -0.5209 3.65061   1
  -1   4  14 0.68727 4.51241   5
   0  -4 -14 14.6862 5.06549   3
   0  -4 -14 12.6984 6.39367   6
   0   4  14 21.1964 6.56257   5
   0   4  14 11.7352 4.50918   1
  -1  -4 -14 -10.648 7.17949   6
  -1  -4 -14 -1.2232 2.73654   2
  -1  -4 -14 5.19219 3.49267   3
   1   4  14 1.23937 3.57923   5
   1   4  14 -0.8135 3.87758   1
  -2  -4 -14 731.489 37.1451   2
  -2  -4 -14 765.624 34.5743   3
   2   4  14 711.635 39.1121   1
  -3  -4 -14 2022.57 67.6011   6
   3   4  14 1865.06 75.4084   1
  -4  -4 -14 3.08930 2.52705   6
  -4  -4 -14 -1.3728 2.61131   2
   4   4  14 -4.8033 2.98271   1
  -5  -4 -14 119.130 10.7479   4
  -5  -4 -14 119.023 10.5016   6
   5   4  14 109.101 14.2557   2
  -6  -4 -14 186.745 17.8015   3
   6   4  14 171.098 17.5940   2
  -7  -4 -14 19.1022 5.36644   4
  -7  -4 -14 50.0444 12.8267   3
   7   4  14 22.8267 6.43640   2
   1  -5 -14 115.189 14.1416   3
  -1   5  14 86.5021 16.7445   1
  -1   5  14 116.740 17.4110   5
   0   5  14 6.53393 5.41184   5
   0   5  14 12.1434 8.68109   1
  -1  -5 -14 297.966 22.0837   3
  -1  -5 -14 314.776 23.9505   6
  -1  -5 -14 322.713 26.8949   2
   1   5  14 304.201 25.5315   1
   1   5  14 301.314 21.2071   5
  -2  -5 -14 1187.25 51.1747   6
  -2  -5 -14 904.684 45.0481   2
   2   5  14 1074.24 51.6591   1
   2   5  14 1065.76 42.7354   5
  -3  -5 -14 -2.5478 3.10235   2
   3   5  14 3.93125 4.21462   1
  -4  -5 -14 10.0176 4.22505   6
  -4  -5 -14 9.52850 4.64371   2
   4   5  14 1.29281 4.04300   1
  -5  -5 -14 3.76917 3.28032   6
  -5  -5 -14 -0.4746 2.48925   4
   5   5  14 0.34049 4.18237   1
  -6  -5 -14 244.393 32.5951   3
   6   5  14 168.870 18.1389   2
  -7  -5 -14 893.831 39.7410   4
   7   5  14 720.667 33.9746   5
   7   5  14 844.293 41.7440   2
   0  -6 -14 538.471 32.0267   3
   0   6  14 542.502 31.2616   5
  -1  -6 -14 389.791 26.0687   3
   1   6  14 374.915 23.6362   5
   1   6  14 392.822 30.2606   1
   2   6  14 34.4859 9.27293   5
  -3  -6 -14 97.5577 14.4496   6
  -3  -6 -14 97.5494 12.9603   2
   3   6  14 82.1404 16.3676   1
   3   6  14 104.920 11.7190   5
  -4  -6 -14 6.69900 5.99161   2
  -4  -6 -14 -1.0869 4.25756   6
   4   6  14 29.4898 6.76123   5
   4   6  14 -4.9518 3.85226   1
  -5  -6 -14 166.996 12.9459   4
   5   6  14 174.593 20.5346   1
  -6  -6 -14 648.058 30.7802   4
   6   6  14 596.219 39.4895   1
   2   7  14 12.8237 5.30311   5
   2   7  14 10.1791 6.16824   1
   3   7  14 3.02886 5.38655   1
  -4  -7 -14 421.441 29.3081   6
   4   7  14 357.064 31.7744   1
  -5  -7 -14 804.353 33.7802   4
  -5  -7 -14 819.772 38.8191   6
   1   5 -15 94.2987 12.9214   2
  -1  -5  15 81.6535 14.3428   4
   0   5 -15 -8.3199 3.15994   7
   0   5 -15 12.4858 5.23949   2
   0  -5  15 1.95967 5.17707   4
  -1   5 -15 41.7160 9.48523   6
  -1   5 -15 56.4015 13.9306   2
   2   4 -15 -3.5860 4.44164   7
  -2  -4  15 -5.2040 4.66551   4
   1   4 -15 3.60159 4.63364   2
   1   4 -15 5.51221 4.86318   7
   1   4 -15 10.2881 4.41295   3
  -1  -4  15 0.37372 3.91907   4
   0   4 -15 2.06549 4.14141   2
   0   4 -15 12.9187 4.96029   7
  -1   4 -15 689.047 48.5389   7
  -1   4 -15 609.861 33.4745   2
   1  -4  15 654.668 41.4830   4
  -2   4 -15 385.508 26.7643   2
  -2   4 -15 423.051 28.7995   7
   2  -4  15 417.823 28.6554   4
  -3   4 -15 82.0502 12.0570   6
  -3   4 -15 113.328 20.8349   7
   3   3 -15 233.009 21.0701   3
   3   3 -15 166.528 15.3219   7
  -3  -3  15 168.463 21.6723   5
   2   3 -15 1.47287 4.48669   3
   2   3 -15 15.0893 4.85228   7
   1   3 -15 6.89912 3.70689   2
   1   3 -15 -1.9169 3.41027   3
   1   3 -15 6.55777 3.55564   7
  -1  -3  15 -1.6364 3.61491   4
   0   3 -15 563.042 30.0131   7
   0   3 -15 505.277 29.3230   2
   0   3 -15 534.796 25.3546   3
   0  -3  15 540.066 26.8636   4
  -1   3 -15 385.700 25.6909   2
  -1   3 -15 364.752 24.7116   7
   1  -3  15 374.235 22.8378   4
  -2   3 -15 6.78916 5.64126   7
  -2   3 -15 9.85449 5.20297   2
  -3   3 -15 12.6958 5.75212   7
  -3   3 -15 6.02060 4.21139   6
   3  -3  15 -6.5656 5.60715   4
  -4   3 -15 13.5978 5.93623   7
  -3  -2  15 1.87533 4.01623   5
   2   2 -15 -0.1138 2.89964   7
   2   2 -15 2.29447 3.72901   3
   1   2 -15 1063.46 43.5099   7
   1   2 -15 943.407 60.4814   2
   1   2 -15 1046.83 42.2508   3
   0   2 -15 667.294 29.4586   3
   0   2 -15 610.117 32.4070   2
   0   2 -15 642.071 32.7317   7
   0  -2  15 661.731 26.3811   1
  -1   2 -15 440.876 20.8517   3
  -1   2 -15 397.507 26.0555   7
  -1   2 -15 393.547 25.5603   2
   1  -2  15 427.208 19.5248   1
   1  -2  15 458.875 23.9817   4
  -2   2 -15 131.389 14.9564   7
  -2   2 -15 114.338 13.9774   2
   2  -2  15 104.435 13.4205   4
   2  -2  15 112.510 9.94662   1
  -3   2 -15 21.4808 6.58543   7
  -3   2 -15 23.0356 6.85380   2
   3  -2  15 13.1099 3.98721   1
  -4   2 -15 246.692 21.3781   7
   4  -2  15 203.910 16.6316   1
   4  -2  15 246.366 22.9845   4
  -5   2 -15 355.376 27.3397   7
   5  -2  15 381.272 29.5931   2
   3   1 -15 5.00085 4.76468   3
   3   1 -15 3.05968 3.24662   7
  -3  -1  15 -11.605 4.52349   5
   2   1 -15 464.064 26.9759   3
  -2  -1  15 406.496 35.3339   5
   1   1 -15 436.195 24.6222   3
   0   1 -15 198.374 16.6824   2
   0   1 -15 250.983 17.1030   3
   0  -1  15 216.212 14.8860   1
  -1   1 -15 139.960 11.9132   3
  -1   1 -15 121.556 14.0123   2
   1  -1  15 122.490 11.2034   1
  -2   1 -15 -3.5721 2.28221   3
   2  -1  15 1.21913 2.95328   4
   2  -1  15 -4.9416 2.24461   1
  -3   1 -15 967.041 45.0078   7
  -3   1 -15 941.893 44.9078   2
   3  -1  15 973.269 40.2721   1
   3  -1  15 1023.53 42.8228   4
  -4   1 -15 853.959 41.9378   7
   4  -1  15 758.573 35.9630   1
  -5   1 -15 176.006 18.7068   7
   5  -1  15 153.124 16.9274   2
   6  -1  15 241.486 19.9683   2
   3   0 -15 549.767 31.8418   3
   3   0 -15 466.202 46.6908   1
  -3   0  15 441.977 34.5242   5
   2   0 -15 224.256 18.8939   3
  -2   0  15 199.793 22.9861   5
   1   0 -15 591.484 30.6202   3
  -1   0  15 594.438 29.8009   1
   0   0 -15 356.884 21.9118   3
   0   0 -15 350.760 23.5763   2
   0   0  15 370.428 21.7312   1
  -1   0 -15 32.8169 7.98808   3
  -1   0 -15 51.4796 9.21484   2
   1   0  15 56.9264 8.74037   1
  -2   0 -15 552.250 32.1767   2
  -2   0 -15 607.082 27.3954   3
   2   0  15 624.307 30.0944   1
  -3   0 -15 340.014 18.6890   3
  -3   0 -15 333.752 24.0554   2
   3   0  15 382.078 23.9242   1
   4   0  15 323.927 24.9741   1
  -5   0 -15 185.083 19.3105   7
   5   0  15 208.353 19.1453   2
  -6   0 -15 59.4136 13.3564   7
   6   0  15 76.3601 12.9990   2
   3  -1 -15 1.85834 3.35930   3
  -3   1  15 13.6399 6.26067   5
   2  -1 -15 430.165 27.2488   3
  -2   1  15 363.164 31.0224   5
   1  -1 -15 224.185 18.3788   3
  -1   1  15 144.951 18.5064   5
  -1   1  15 211.573 17.8859   1
   0  -1 -15 11.1973 3.87367   3
   0  -1 -15 5.98924 4.70472   2
   0   1  15 -2.5020 3.11162   1
  -1  -1 -15 699.596 35.7574   2
  -1  -1 -15 715.315 33.0613   3
  -2  -1 -15 480.181 24.2651   3
  -2  -1 -15 413.244 26.9137   2
   2   1  15 440.847 27.8705   1
  -3  -1 -15 765.865 40.3748   2
  -3  -1 -15 838.501 34.4199   6
  -3  -1 -15 843.746 33.6867   3
   3   1  15 986.855 59.1493   1
  -4  -1 -15 642.595 24.0747   6
  -4  -1 -15 616.952 25.9093   3
   4   1  15 593.795 33.2193   1
  -5  -1 -15 52.2185 8.63177   4
  -5  -1 -15 56.8050 9.52525   3
   5   1  15 63.8660 11.5480   2
  -6  -1 -15 104.364 12.3266   4
   6   1  15 101.270 14.5488   2
   2  -2 -15 275.900 22.2685   3
  -2   2  15 267.988 23.1331   1
   1  -2 -15 -1.2098 4.57415   3
  -1   2  15 2.49370 3.03732   1
  -1   2  15 1.60207 5.74180   5
   0  -2 -15 382.729 24.4087   3
   0   2  15 363.538 24.2929   1
  -1  -2 -15 13.8807 4.71304   2
  -1  -2 -15 31.7073 7.34857   3
   1   2  15 9.62761 4.12351   1
  -2  -2 -15 900.535 37.4205   3
  -2  -2 -15 891.114 39.3608   6
  -2  -2 -15 831.951 41.0827   2
   2   2  15 913.176 42.1621   1
  -3  -2 -15 292.300 22.7488   2
  -3  -2 -15 335.272 23.6602   3
  -3  -2 -15 328.053 19.4285   6
   3   2  15 333.023 24.3192   1
  -4  -2 -15 6.03758 3.08650   6
   4   2  15 4.82698 3.27401   1
  -5  -2 -15 398.352 21.1782   4
   5   2  15 327.677 24.8100   2
  -6  -2 -15 469.312 26.1624   4
  -6  -2 -15 449.579 25.7182   3
   6   2  15 455.060 29.0300   2
  -7  -2 -15 267.846 19.0195   3
  -7  -2 -15 299.480 22.0523   4
   2  -3 -15 3.42384 4.99771   3
  -2   3  15 -4.5771 5.73991   5
  -2   3  15 5.35097 3.93817   1
  -1   3  15 259.994 22.4039   1
  -1   3  15 284.295 25.2475   5
   0  -3 -15 83.7192 12.8852   3
   0  -3 -15 82.0164 14.2620   6
   0   3  15 89.2408 14.0983   5
   0   3  15 89.7206 13.6122   1
  -1  -3 -15 756.498 47.2022   6
  -1  -3 -15 777.438 35.9579   3
   1   3  15 671.289 36.9843   1
  -2  -3 -15 638.417 35.3010   2
  -2  -3 -15 679.236 31.8368   3
   2   3  15 658.658 36.1488   1
  -3  -3 -15 23.7605 6.05345   6
  -3  -3 -15 45.2168 8.13133   3
  -3  -3 -15 23.4503 6.43405   2
   3   3  15 14.1264 5.09707   1
  -4  -3 -15 137.078 13.9435   6
   4   3  15 125.389 16.0156   1
  -5  -3 -15 7.65721 3.37965   4
   5   3  15 13.9733 5.22516   1
  -6  -3 -15 513.628 26.3565   4
   6   3  15 447.555 29.7556   2
  -7  -3 -15 346.501 24.0885   4
  -7  -3 -15 345.341 27.0343   3
   7   3  15 296.464 29.8163   2
   1  -4 -15 3.21407 5.12067   3
  -1   4  15 -1.2939 5.59453   5
  -1   4  15 2.18434 4.46557   1
   0  -4 -15 835.470 48.9468   3
   0   4  15 794.821 40.6039   5
   0   4  15 759.493 41.5798   1
  -1  -4 -15 240.746 19.3238   3
  -1  -4 -15 215.285 19.8225   6
   1   4  15 262.763 22.7212   1
   1   4  15 242.245 20.2184   5
  -2  -4 -15 45.0368 10.0959   3
  -2  -4 -15 56.3771 11.0535   6
  -4  -4 -15 149.372 14.6388   6
   4   4  15 150.422 18.7593   1
  -5  -4 -15 988.643 37.6377   4
  -5  -4 -15 1085.92 38.3029   6
   5   4  15 1022.63 51.5117   1
  -6  -4 -15 618.526 40.5141   4
  -6  -4 -15 551.342 31.3904   3
   6   4  15 462.891 30.6565   2
  -7  -4 -15 3.32120 4.63079   4
  -7  -4 -15 -8.3814 5.80955   3
   7   4  15 6.62077 6.15637   2
   0  -5 -15 407.443 27.6474   3
   0   5  15 458.951 28.8435   5
   0   5  15 422.489 30.9551   1
  -1  -5 -15 -3.5295 3.06434   3
   1   5  15 5.10808 4.03838   5
   1   5  15 -1.6964 5.47076   1
  -2  -5 -15 93.6262 13.0258   3
  -2  -5 -15 88.8994 14.7372   6
   2   5  15 135.985 18.9939   1
   2   5  15 102.894 11.7261   5
  -3  -5 -15 38.5924 11.0248   6
   3   5  15 26.2441 7.06880   1
   3   5  15 44.4281 9.15259   5
   4   5  15 814.657 46.6765   1
  -5  -5 -15 219.656 16.9323   6
  -6  -5 -15 51.4161 15.2090   4
   6   5  15 60.7222 14.6072   1
  -1  -6 -15 -2.8326 4.80306   3
   1   6  15 8.17284 5.18327   5
  -2  -6 -15 2.59698 4.24545   3
   2   6  15 -6.5186 3.90015   1
   2   6  15 3.98884 7.21274   5
  -3  -6 -15 345.107 25.4155   6
   3   6  15 370.406 20.6223   5
   3   6  15 292.732 27.5050   1
  -4  -6 -15 429.314 27.6956   6
   4   6  15 379.432 32.0090   1
   4   6  15 386.690 22.1832   5
  -6  -6 -15 1.89568 5.48358   4
   6   6  15 11.1994 8.00333   1
   0   4 -16 56.6203 11.9437   7
  -1   4 -16 131.384 17.1123   7
   1  -4  16 148.851 17.2541   4
   1   3 -16 85.4113 13.0485   3
   1   3 -16 76.8522 13.1647   7
   0   3 -16 -0.0685 4.34132   3
   0   3 -16 -1.5911 3.91932   7
   0  -3  16 -1.3492 3.87979   4
  -1   3 -16 -9.0774 5.10707   7
   1  -3  16 -6.5972 3.97373   4
  -2   3 -16 67.0498 12.9963   7
  -3   3 -16 829.224 35.8503   6
  -3   3 -16 933.395 45.8423   7
   3  -3  16 944.783 44.8187   4
   2   2 -16 10.6433 5.62512   3
   2   2 -16 -3.9085 3.38841   7
   1   2 -16 300.898 21.4826   7
   1   2 -16 320.866 21.9364   3
   0   2 -16 18.3768 5.23524   7
   0   2 -16 15.2633 4.89705   3
  -1   2 -16 9.47671 4.75295   7
  -1   2 -16 21.1276 5.11450   3
   1  -2  16 7.23960 2.33348   1
  -2   2 -16 855.857 41.6799   7
   2  -2  16 838.728 31.9650   1
   2  -2  16 877.047 38.3524   4
  -3   2 -16 73.3848 13.8090   7
   3  -2  16 81.2721 10.6782   1
  -4   2 -16 -2.2409 3.99636   7
   4  -2  16 -3.3294 3.13547   1
   4  -2  16 1.57923 5.95518   4
   2   1 -16 152.629 16.5716   3
   2   1 -16 139.930 14.4648   7
  -2  -1  16 86.4100 16.6604   5
   1   1 -16 21.2530 6.30631   3
   0   1 -16 228.207 17.3703   3
   0  -1  16 258.504 16.8681   1
  -1   1 -16 1319.69 47.9615   3
   1  -1  16 1310.77 46.9715   1
  -2   1 -16 7.52800 4.64062   7
  -2   1 -16 8.58992 3.48793   3
   2  -1  16 13.7525 3.80145   1
  -3   1 -16 413.649 28.1704   7
   3  -1  16 412.326 24.0715   1
   3  -1  16 386.745 25.0321   4
  -4   1 -16 -5.4911 4.66253   7
   4  -1  16 -4.6209 3.20013   1
  -5   1 -16 6.93191 5.33528   7
   5  -1  16 -0.6871 4.08374   2
   2   0 -16 5.64008 5.69185   3
  -2   0  16 6.71411 7.20014   5
   1   0 -16 9.55261 4.77977   3
  -1   0  16 5.16094 4.16348   1
   0   0 -16 544.560 28.6572   3
   0   0  16 549.016 28.5050   1
  -1   0 -16 71.0513 10.6674   3
   1   0  16 54.9896 9.95243   1
  -2   0 -16 109.625 11.7377   3
   2   0  16 114.877 12.9094   1
  -3   0 -16 2.09809 3.43662   3
   3   0  16 -4.0874 3.36016   1
   4   0  16 154.670 15.9559   1
  -5   0 -16 1228.41 54.8407   7
   5   0  16 1156.14 52.7088   2
   2  -1 -16 268.267 21.9510   3
  -2   1  16 288.419 25.5495   5
   1  -1 -16 900.142 42.0377   3
  -1   1  16 822.981 48.3068   5
  -1   1  16 1003.41 43.4231   1
   0  -1 -16 5.39155 4.34809   3
   0   1  16 2.92476 3.40189   1
  -1  -1 -16 882.355 39.4138   3
   1   1  16 914.097 40.2154   1
  -2  -1 -16 3.55507 3.36554   3
   2   1  16 1.17939 2.85746   1
  -3  -1 -16 15.6282 4.90748   6
  -3  -1 -16 20.3595 4.49945   3
   3   1  16 35.3142 9.98326   1
  -4  -1 -16 694.818 29.5838   3
  -4  -1 -16 757.502 28.2494   6
   4   1  16 719.601 37.8968   1
  -5  -1 -16 26.1394 6.96712   3
  -6  -1 -16 318.464 21.7381   4
   6   1  16 235.779 22.1953   2
   1  -2 -16 23.7247 8.18341   3
  -1   2  16 18.4464 8.20175   5
  -1   2  16 60.6329 12.1789   1
   0  -2 -16 219.061 19.4474   3
   0   2  16 221.975 19.2563   1
   0   2  16 182.138 19.9794   5
  -1  -2 -16 -1.2725 3.57970   3
  -1  -2 -16 -16.346 7.12929   6
   1   2  16 -2.5918 2.93230   1
  -2  -2 -16 326.650 21.0147   3
   2   2  16 299.670 22.4037   1
  -3  -2 -16 1015.34 41.7059   6
  -3  -2 -16 1037.99 40.8798   3
   3   2  16 959.511 46.8004   1
  -4  -2 -16 -4.2380 2.48030   3
  -4  -2 -16 -4.5379 3.14193   6
   4   2  16 -1.3861 3.15893   1
  -5  -2 -16 785.469 32.6747   3
   5   2  16 770.479 42.0362   1
  -6  -2 -16 22.3909 5.40653   4
  -6  -2 -16 9.32050 5.02845   3
   6   2  16 13.8511 5.45627   2
   1  -3 -16 598.407 35.2767   3
  -1   3  16 681.530 37.8999   1
   0  -3 -16 66.5582 17.5442   3
   0   3  16 59.2887 13.4265   1
   0   3  16 43.0569 11.4125   5
  -1  -3 -16 8.10102 5.20879   3
  -1  -3 -16 10.1746 5.80223   6
   1   3  16 0.73008 3.86050   1
  -2  -3 -16 386.575 24.3539   3
   2   3  16 381.655 27.1261   1
  -3  -3 -16 1.65407 3.49160   3
  -3  -3 -16 -8.1195 4.18543   6
   3   3  16 -1.1882 3.56585   1
  -4  -3 -16 355.493 20.4115   6
   4   3  16 300.388 25.3757   1
   5   3  16 6.92214 5.21682   1
  -6  -3 -16 12.6375 12.2848   3
  -6  -3 -16 23.0738 5.13726   4
   6   3  16 49.6835 12.6990   2
   0  -4 -16 77.2962 12.9565   3
   0   4  16 64.3499 15.8046   5
   0   4  16 46.2699 13.2398   1
   1   4  16 602.617 36.2270   1
   1   4  16 573.131 34.0118   5
  -2  -4 -16 5.03846 5.15795   3
  -2  -4 -16 8.12750 5.33430   6
   2   4  16 1.42595 5.07057   1
  -3  -4 -16 904.885 39.7897   3
   3   4  16 850.650 46.7349   1
  -4  -4 -16 107.045 13.3634   6
   4   4  16 114.536 17.7289   1
  -5  -4 -16 67.2158 14.1344   6
   5   4  16 17.2391 8.10295   1
  -6  -4 -16 196.052 23.7450   4
   6   4  16 221.746 23.2902   1
  -1  -5 -16 234.830 19.4899   3
   1   5  16 190.402 22.4536   1
   1   5  16 179.468 20.7055   5
  -2  -5 -16 494.518 30.0778   3
   2   5  16 515.273 29.6051   5
   2   5  16 505.943 34.8622   1
  -3  -5 -16 2.39653 5.46079   6
   3   5  16 6.18834 4.05351   1
   3   5  16 0.81931 4.29250   5
   4   5  16 60.9030 14.8648   1
  -5  -5 -16 488.514 26.4182   6
   5   5  16 487.865 36.0180   1
   3   6  16 6.13501 5.80799   1
   3   6  16 -4.4675 5.79175   5
  -4  -6 -16 92.2747 16.1485   6
   4   6  16 76.7454 13.0223   5
   0   2 -17 750.310 34.0966   3
   0   2 -17 752.231 37.5836   7
  -1   2 -17 0.67244 4.34690   7
  -1   2 -17 -2.1249 3.23769   3
   1  -2  17 -0.6226 2.40378   1
  -2   2 -17 7.84953 4.46966   7
   2  -2  17 -6.7871 4.73208   4
   2  -2  17 -3.8373 2.70322   1
  -3   2 -17 -3.4412 3.94745   7
   3  -2  17 -1.1968 3.07507   1
   1   1 -17 184.290 18.2513   7
   1   1 -17 213.047 19.1982   3
   0   1 -17 98.7773 12.2597   3
   0   1 -17 75.1689 13.6451   7
   0  -1  17 95.5971 10.5088   1
  -1   1 -17 -0.6247 3.91681   3
  -1   1 -17 -5.7828 3.51029   7
   1  -1  17 -1.3213 2.75896   1
  -2   1 -17 136.628 12.6773   3
  -2   1 -17 153.789 18.0131   7
   2  -1  17 134.846 13.0440   1
  -3   1 -17 280.071 24.3947   7
   3  -1  17 308.730 19.6180   1
  -4   1 -17 646.839 43.8115   7
   4  -1  17 717.346 40.9693   1
   1   0 -17 1.33452 4.74555   3
  -1   0  17 11.1285 4.52656   1
   0   0 -17 4.38146 4.54281   3
   0   0  17 6.06904 3.22503   1
  -1   0 -17 11.5192 4.73987   3
   1   0  17 11.6712 4.02512   1
  -2   0 -17 715.325 32.1725   3
   2   0  17 735.321 34.6266   1
  -3   0 -17 697.433 30.6009   3
   3   0  17 754.799 36.1867   1
   4   0  17 41.7117 11.8244   1
   1  -1 -17 62.4047 13.9816   3
  -1   1  17 24.7627 10.9066   5
  -1   1  17 25.9856 5.95595   1
   0  -1 -17 6.63374 5.03924   3
   0   1  17 -3.3115 3.40570   1
  -1  -1 -17 391.379 24.9906   3
   1   1  17 321.788 22.8180   1
  -2  -1 -17 705.990 33.5819   3
   2   1  17 680.445 34.7978   1
  -3  -1 -17 1.84664 4.45804   3
  -3  -1 -17 -6.5359 4.52489   6
   3   1  17 -5.1645 3.46549   1
  -4  -1 -17 6.82002 4.71109   3
  -4  -1 -17 3.02567 4.02916   6
   4   1  17 -2.4577 3.35304   1
   5   1  17 1.65643 5.03263   1
   0   2  17 943.051 44.8569   1
  -1  -2 -17 421.408 29.1233   6
  -1  -2 -17 557.602 31.1259   3
   1   2  17 512.579 31.1345   1
  -2  -2 -17 236.107 19.3192   3
  -2  -2 -17 193.366 20.3383   6
   2   2  17 193.074 19.6680   1
  -3  -2 -17 233.708 19.5441   6
  -3  -2 -17 311.980 20.1538   3
   3   2  17 281.544 24.4117   1
  -4  -2 -17 4.07672 3.20512   3
   4   2  17 3.87351 5.53577   1
  -5  -2 -17 201.973 16.0498   3
   5   2  17 186.989 22.1394   1
   0  -3 -17 100.091 15.3101   3
   0   3  17 98.3609 13.7951   1
   1   3  17 117.178 18.4244   5
   1   3  17 141.051 17.4280   1
  -2  -3 -17 30.6962 8.53922   6
  -2  -3 -17 21.6882 6.90626   3
   2   3  17 22.5947 5.36610   1
  -3  -3 -17 1.10982 3.81648   3
  -4  -3 -17 961.263 39.2356   6
  -4  -3 -17 967.545 40.6495   3
   4   3  17 880.624 47.9655   1
  -5  -3 -17 501.718 22.1803   6
   5   3  17 465.009 39.7914   1
  -1  -4 -17 236.386 20.1569   3
   1   4  17 179.132 21.4698   1
   1   4  17 209.731 21.2419   5
  -2  -4 -17 0.19772 4.62851   3
   2   4  17 1.10011 5.36410   1
   2   4  17 9.11751 5.65878   5
  -3  -4 -17 286.177 23.4093   6
  -3  -4 -17 243.081 20.3775   3
   3   4  17 198.850 27.5165   1
  -4  -4 -17 169.720 16.8795   3
   4   4  17 171.162 22.3733   1
  -5  -4 -17 54.9185 12.2312   6
   5   4  17 32.9411 9.22488   1
  -1   0 -18 1.40344 5.26997   3
   1   0  18 -5.9664 3.13929   1
  -2   0 -18 78.8687 12.5179   3
   2   0  18 85.5261 12.4375   1
  -3   0 -18 256.797 17.6006   3
  -3   0 -18 224.239 18.6202   6
   3   0  18 260.654 20.2202   1
  -1  -1 -18 8.26452 5.40978   3
   1   1  18 3.84638 4.89872   1
  -2  -1 -18 1.54773 5.76961   3
   2   1  18 -6.0213 4.01851   1
  -3  -1 -18 83.8283 13.8436   3
  -3  -1 -18 76.8599 13.7279   6
   3   1  18 85.6292 15.9566   1
   1   2  18 -0.3267 4.55970   1
  -2  -2 -18 18.4720 7.00118   3
  -2  -2 -18 12.0654 6.70440   6
   2   2  18 15.1284 6.61377   1
  -3  -2 -18 716.036 35.5127   3
   3   2  18 733.524 40.5748   1
  -4  -2 -18 164.498 15.7836   6
   4   2  18 204.262 21.5914   1
  -3  -3 -18 7.43861 6.17477   3
   3   3  18 8.75285 11.8985   1
   0   0   0    0.00    0.00   0
 _exptl_absorpt_process_details 'SADABS 2014/5'
 _exptl_absorpt_correction_type   multi-scan
 _exptl_absorpt_correction_T_max  0.7457
 _exptl_absorpt_correction_T_min  0.5846
 _exptl_special_details
)
 The following wavelength and cell were deduced by SADABS from the
 direction cosines etc. They are given here for emergency use only:
 CELL 0.71142    7.155    7.860   13.786   83.866   76.553   69.139
)
;
_shelx_hkl_checksum              43181
_shelx_res_file
;
TITL d8-5309_a.res in P-1
    d8-5309_a.res
    created by SHELXL-2016/6 at 09:51:16 on 25-Jun-2021
REM Old TITL d8-5309 in P-1
REM SHELXT solution in P-1
REM R1 0.062, Rweak 0.001, Alpha 0.052, Orientation as input
REM Formula found by SHELXT: C10 F4 I2 N S
CELL 0.71073 7.1432 7.8452 13.7688 83.922 76.598 69.092
ZERR 2 0.0006 0.0006 0.0012 0.003 0.003 0.003
LATT 1
SFAC C H F I N S
UNIT 18 16 8 4 4 2
EQIV $1 2-X,-Y,2-Z
EQIV $2 1-X,1-Y,1-Z
EQIV $3 2-X,-Y,1-Z
L.S. 10
PLAN  5
SIZE 0.021 0.133 0.207
TEMP -173.15
CONF
HTAB N1 S1_$1
HTAB N2 I2_$2
HTAB C9 I2_$2
HTAB C9 F2_$3
HTAB C9 F3_$3
HTAB C9 F4
BOND $H
LIST 4
MORE -1
fmap 2
acta
REM <olex2.extras>
REM <HklSrc "%.\\mo_D8_5309_dimethylthiourea_mF4DIB_acetone_0m.hkl">
REM </olex2.extras>
WGHT    0.000000    0.944800
FVAR       0.53716
I1    4    0.595831    0.629990    0.693017    11.00000    0.01489    0.02297 =
         0.01382   -0.00423   -0.00178   -0.00421
I2    4    0.789678    0.801932    0.250033    11.00000    0.02072    0.02260 =
         0.01641    0.00306   -0.00519   -0.00924
F1    3    0.668208    0.839841    0.485818    11.00000    0.03308    0.01599 =
         0.02226   -0.00378   -0.00228   -0.00577
F2    3    0.920529    0.365514    0.255850    11.00000    0.02253    0.02462 =
         0.01334   -0.00612   -0.00029   -0.00582
F3    3    0.908497    0.120690    0.407561    11.00000    0.03938    0.01436 =
         0.02384   -0.00536   -0.00326   -0.00276
F4    3    0.769084    0.231214    0.597769    11.00000    0.03837    0.02031 =
         0.01681    0.00454   -0.00379   -0.00537
C1    1    0.716026    0.539626    0.546269    11.00000    0.01201    0.02051 =
         0.01417   -0.00346   -0.00139   -0.00270
C2    1    0.727246    0.662149    0.465887    11.00000    0.01417    0.01652 =
         0.01987   -0.00201   -0.00427   -0.00223
C3    1    0.793910    0.608093    0.367712    11.00000    0.01337    0.02000 =
         0.01548    0.00251   -0.00346   -0.00556
C4    1    0.855509    0.425303    0.349592    11.00000    0.01233    0.02170 =
         0.01388   -0.00353   -0.00172   -0.00373
C5    1    0.850274    0.297611    0.427182    11.00000    0.01505    0.01696 =
         0.02116   -0.00413   -0.00253   -0.00261
C6    1    0.779406    0.356372    0.524200    11.00000    0.01619    0.01984 =
         0.01433    0.00198   -0.00336   -0.00385
S1    6    0.706303    0.173011    1.098890    11.00000    0.01671    0.02167 =
         0.01232   -0.00077   -0.00318   -0.00224
N1    5    0.783192    0.055471    0.915593    11.00000    0.01270    0.01943 =
         0.01587   -0.00053   -0.00329   -0.00279
H1N1  2    0.899402    0.002482    0.925992    11.00000    0.01382
N2    5    0.459296    0.253801    0.968387    11.00000    0.01559    0.02188 =
         0.01504   -0.00223   -0.00464   -0.00069
H1N2  2    0.442139    0.242829    0.910613    11.00000    0.02065
C7    1    0.644515    0.159831    0.987427    11.00000    0.01599    0.01466 =
         0.01474    0.00248   -0.00412   -0.00637
C9    1    0.750041    0.043915    0.816537    11.00000    0.01915    0.02352 =
         0.01622   -0.00541   -0.00189   -0.00612
AFIX 137
H2A   2    0.644886   -0.011572    0.821804    11.00000   -1.50000
H2B   2    0.878296   -0.031181    0.774686    11.00000   -1.50000
H2C   2    0.704606    0.166711    0.786381    11.00000   -1.50000
AFIX   0
C8    1    0.287880    0.377692    1.036394    11.00000    0.01739    0.02407 =
         0.02244   -0.00168   -0.00083    0.00270
AFIX 137
H3A   2    0.224094    0.306624    1.087309    11.00000   -1.50000
H3B   2    0.186574    0.456251    0.998730    11.00000   -1.50000
H3C   2    0.337939    0.453344    1.068782    11.00000   -1.50000
AFIX   0
HKLF 4
REM  d8-5309_a.res in P-1
REM R1 =  0.0205 for    3065 Fo > 4sig(Fo)  and  0.0274 for all    3503 data
REM    173 parameters refined using      0 restraints
END
WGHT      0.0000      0.9448
REM Highest difference peak  0.816,  deepest hole -0.765,  1-sigma level  0.127
Q1    1   1.0172 -0.0601  0.3665  11.00000  0.05    0.82
Q2    1   0.4033  0.4664  1.1362  11.00000  0.05    0.78
Q3    1   0.1785  0.2344  1.1954  11.00000  0.05    0.72
Q4    1   0.8144  0.3730  0.3836  11.00000  0.05    0.53
Q5    1   0.7600  0.6961  0.3266  11.00000  0.05    0.52
;
_shelx_res_checksum              22228
loop_
_space_group_symop_operation_xyz
'x, y, z'
'-x, -y, -z'
loop_
_atom_site_type_symbol
_atom_site_label
_atom_site_fract_x
_atom_site_fract_y
_atom_site_fract_z
_atom_site_U_iso_or_equiv
_atom_site_adp_type
_atom_site_calc_flag
_atom_site_occupancy
_atom_site_disorder_assembly
_atom_site_disorder_group
I I1 0.59583(3) 0.62999(3) 0.69302(2) 0.01779(5) Uani d 1 . .
I I2 0.78968(3) 0.80193(3) 0.25003(2) 0.01946(5) Uani d 1 . .
F F1 0.6682(3) 0.8398(2) 0.48582(14) 0.0249(4) Uani d 1 . .
F F2 0.9205(3) 0.3655(2) 0.25585(13) 0.0210(4) Uani d 1 . .
F F3 0.9085(3) 0.1207(2) 0.40756(14) 0.0279(4) Uani d 1 . .
F F4 0.7691(3) 0.2312(2) 0.59777(14) 0.0272(4) Uani d 1 . .
C C1 0.7160(4) 0.5396(4) 0.5463(2) 0.0164(6) Uani d 1 . .
C C2 0.7272(4) 0.6621(4) 0.4659(2) 0.0175(6) Uani d 1 . .
C C3 0.7939(4) 0.6081(4) 0.3677(2) 0.0165(6) Uani d 1 . .
C C4 0.8555(4) 0.4253(4) 0.3496(2) 0.0165(5) Uani d 1 . .
C C5 0.8503(4) 0.2976(4) 0.4272(2) 0.0185(6) Uani d 1 . .
C C6 0.7794(4) 0.3564(4) 0.5242(2) 0.0176(6) Uani d 1 . .
S S1 0.70630(10) 0.17301(10) 1.09889(5) 0.01806(14) Uani d 1 . .
N N1 0.7832(4) 0.0555(3) 0.91559(19) 0.0167(5) Uani d 1 . .
H H1N1 0.899(5) 0.002(4) 0.926(3) 0.014(8) Uiso d 1 . .
N N2 0.4593(4) 0.2538(3) 0.9684(2) 0.0187(5) Uani d 1 . .
H H1N2 0.442(5) 0.243(5) 0.911(3) 0.021(9) Uiso d 1 . .
C C7 0.6445(4) 0.1598(4) 0.9874(2) 0.0149(5) Uani d 1 . .
C C9 0.7500(4) 0.0439(4) 0.8165(2) 0.0199(6) Uani d 1 . .
H H2A 0.644886 -0.011572 0.821804 0.030 Uiso calc 1 . .
H H2B 0.878296 -0.031181 0.774686 0.030 Uiso calc 1 . .
H H2C 0.704606 0.166711 0.786381 0.030 Uiso calc 1 . .
C C8 0.2879(4) 0.3777(4) 1.0364(2) 0.0245(7) Uani d 1 . .
H H3A 0.224094 0.306624 1.087309 0.037 Uiso calc 1 . .
H H3B 0.186574 0.456251 0.998730 0.037 Uiso calc 1 . .
H H3C 0.337939 0.453344 1.068782 0.037 Uiso calc 1 . .
loop_
_atom_site_aniso_label
_atom_site_aniso_U_11
_atom_site_aniso_U_22
_atom_site_aniso_U_33
_atom_site_aniso_U_12
_atom_site_aniso_U_13
_atom_site_aniso_U_23
I1 0.01489(9) 0.02297(10) 0.01382(10) -0.00421(7) -0.00178(7) -0.00423(7)
I2 0.02072(9) 0.02260(10) 0.01641(10) -0.00924(7) -0.00519(7) 0.00306(7)
F1 0.0331(10) 0.0160(8) 0.0223(10) -0.0058(7) -0.0023(8) -0.0038(7)
F2 0.0225(8) 0.0246(9) 0.0133(9) -0.0058(7) -0.0003(7) -0.0061(7)
F3 0.0394(11) 0.0144(8) 0.0238(10) -0.0028(7) -0.0033(8) -0.0054(7)
F4 0.0384(10) 0.0203(9) 0.0168(9) -0.0054(8) -0.0038(8) 0.0045(7)
C1 0.0120(12) 0.0205(14) 0.0142(14) -0.0027(10) -0.0014(10) -0.0035(11)
C2 0.0142(12) 0.0165(13) 0.0199(15) -0.0022(10) -0.0043(11) -0.0020(11)
C3 0.0134(12) 0.0200(14) 0.0155(14) -0.0056(10) -0.0035(10) 0.0025(11)
C4 0.0123(12) 0.0217(14) 0.0139(14) -0.0037(10) -0.0017(10) -0.0035(11)
C5 0.0150(12) 0.0170(13) 0.0212(15) -0.0026(10) -0.0025(11) -0.0041(11)
C6 0.0162(12) 0.0198(14) 0.0143(14) -0.0038(10) -0.0034(11) 0.0020(11)
S1 0.0167(3) 0.0217(3) 0.0123(3) -0.0022(3) -0.0032(3) -0.0008(3)
N1 0.0127(11) 0.0194(12) 0.0159(12) -0.0028(9) -0.0033(9) -0.0005(9)
N2 0.0156(11) 0.0219(13) 0.0150(13) -0.0007(9) -0.0046(10) -0.0022(10)
C7 0.0160(12) 0.0147(13) 0.0147(13) -0.0064(10) -0.0041(10) 0.0025(10)
C9 0.0191(13) 0.0235(15) 0.0162(15) -0.0061(11) -0.0019(11) -0.0054(12)
C8 0.0174(13) 0.0241(15) 0.0224(16) 0.0027(11) -0.0008(12) -0.0017(12)
loop_
_atom_type_symbol
_atom_type_description
_atom_type_scat_dispersion_real
_atom_type_scat_dispersion_imag
_atom_type_scat_source
C C 0.0033 0.0016 'International Tables Vol C Tables 4.2.6.8 and 6.1.1.4'
H H 0.0000 0.0000 'International Tables Vol C Tables 4.2.6.8 and 6.1.1.4'
F F 0.0171 0.0103 'International Tables Vol C Tables 4.2.6.8 and 6.1.1.4'
I I -0.4742 1.8119 'International Tables Vol C Tables 4.2.6.8 and 6.1.1.4'
N N 0.0061 0.0033 'International Tables Vol C Tables 4.2.6.8 and 6.1.1.4'
S S 0.1246 0.1234 'International Tables Vol C Tables 4.2.6.8 and 6.1.1.4'
loop_
_geom_angle_atom_site_label_1
_geom_angle_atom_site_label_2
_geom_angle_atom_site_label_3
_geom_angle_site_symmetry_1
_geom_angle_site_symmetry_3
_geom_angle
_geom_angle_publ_flag
C2 C1 I1 . . 121.3(2) ?
C6 C1 I1 . . 121.6(2) ?
C6 C1 C2 . . 117.0(3) ?
F1 C2 C1 . . 117.9(3) ?
F1 C2 C3 . . 119.4(3) ?
C3 C2 C1 . . 122.7(3) ?
C2 C3 I2 . . 120.6(2) ?
C4 C3 I2 . . 121.2(2) ?
C4 C3 C2 . . 118.1(3) ?
F2 C4 C3 . . 120.6(3) ?
F2 C4 C5 . . 118.1(3) ?
C3 C4 C5 . . 121.3(3) ?
F3 C5 C4 . . 120.2(3) ?
F3 C5 C6 . . 120.7(3) ?
C6 C5 C4 . . 119.1(3) ?
F4 C6 C1 . . 120.2(3) ?
F4 C6 C5 . . 118.1(3) ?
C5 C6 C1 . . 121.7(3) ?
C7 N1 H1N1 . . 117(2) ?
C7 N1 C9 . . 124.5(2) ?
C9 N1 H1N1 . . 118(2) ?
C7 N2 H1N2 . . 117(2) ?
C7 N2 C8 . . 125.9(3) ?
C8 N2 H1N2 . . 118(2) ?
N1 C7 S1 . . 120.3(2) ?
N1 C7 N2 . . 117.4(3) ?
N2 C7 S1 . . 122.3(2) ?
N1 C9 H2A . . 109.5 ?
N1 C9 H2B . . 109.5 ?
N1 C9 H2C . . 109.5 ?
H2A C9 H2B . . 109.5 ?
H2A C9 H2C . . 109.5 ?
H2B C9 H2C . . 109.5 ?
N2 C8 H3A . . 109.5 ?
N2 C8 H3B . . 109.5 ?
N2 C8 H3C . . 109.5 ?
H3A C8 H3B . . 109.5 ?
H3A C8 H3C . . 109.5 ?
H3B C8 H3C . . 109.5 ?
loop_
_geom_bond_atom_site_label_1
_geom_bond_atom_site_label_2
_geom_bond_site_symmetry_2
_geom_bond_distance
_geom_bond_publ_flag
I1 C1 . 2.095(3) ?
I2 C3 . 2.099(3) ?
F1 C2 . 1.343(3) ?
F2 C4 . 1.340(3) ?
F3 C5 . 1.337(3) ?
F4 C6 . 1.342(3) ?
C1 C2 . 1.394(4) ?
C1 C6 . 1.389(4) ?
C2 C3 . 1.383(4) ?
C3 C4 . 1.374(4) ?
C4 C5 . 1.388(4) ?
C5 C6 . 1.380(4) ?
S1 C7 . 1.715(3) ?
N1 H1N1 . 0.82(3) ?
N1 C7 . 1.330(4) ?
N1 C9 . 1.455(4) ?
N2 H1N2 . 0.85(4) ?
N2 C7 . 1.337(3) ?
N2 C8 . 1.460(4) ?
C9 H2A . 0.9800 ?
C9 H2B . 0.9800 ?
C9 H2C . 0.9800 ?
C8 H3A . 0.9800 ?
C8 H3B . 0.9800 ?
C8 H3C . 0.9800 ?
loop_
_geom_hbond_atom_site_label_D
_geom_hbond_atom_site_label_H
_geom_hbond_atom_site_label_A
_geom_hbond_site_symmetry_A
_geom_hbond_distance_DH
_geom_hbond_distance_HA
_geom_hbond_distance_DA
_geom_hbond_angle_DHA
N1 H1N1 S1 2_757 0.82(3) 2.61(3) 3.409(2) 163(3)
N2 H1N2 I2 2_666 0.85(4) 3.17(4) 3.964(3) 157(3)
C9 H2A I2 2_666 0.98 3.28 3.904(3) 123.3
C9 H2B F2 2_756 0.98 2.53 3.323(3) 138.3
C9 H2B F3 2_756 0.98 2.64 3.499(3) 147.1
C9 H2C F4 . 0.98 2.56 3.204(4) 123.4
loop_
_geom_torsion_atom_site_label_1
_geom_torsion_atom_site_label_2
_geom_torsion_atom_site_label_3
_geom_torsion_atom_site_label_4
_geom_torsion_site_symmetry_1
_geom_torsion_site_symmetry_2
_geom_torsion_site_symmetry_3
_geom_torsion_site_symmetry_4
_geom_torsion
_geom_torsion_publ_flag
I1 C1 C2 F1 . . . . 3.4(3) ?
I1 C1 C2 C3 . . . . -175.9(2) ?
I1 C1 C6 F4 . . . . -1.5(4) ?
I1 C1 C6 C5 . . . . 177.1(2) ?
I2 C3 C4 F2 . . . . 2.0(4) ?
I2 C3 C4 C5 . . . . -177.3(2) ?
F1 C2 C3 I2 . . . . -3.0(4) ?
F1 C2 C3 C4 . . . . 179.3(2) ?
F2 C4 C5 F3 . . . . -0.2(4) ?
F2 C4 C5 C6 . . . . -178.5(2) ?
F3 C5 C6 F4 . . . . -0.6(4) ?
F3 C5 C6 C1 . . . . -179.3(3) ?
C1 C2 C3 I2 . . . . 176.2(2) ?
C1 C2 C3 C4 . . . . -1.5(4) ?
C2 C1 C6 F4 . . . . -178.7(2) ?
C2 C1 C6 C5 . . . . 0.0(4) ?
C2 C3 C4 F2 . . . . 179.7(2) ?
C2 C3 C4 C5 . . . . 0.4(4) ?
C3 C4 C5 F3 . . . . 179.1(2) ?
C3 C4 C5 C6 . . . . 0.8(4) ?
C4 C5 C6 F4 . . . . 177.7(3) ?
C4 C5 C6 C1 . . . . -1.0(4) ?
C6 C1 C2 F1 . . . . -179.5(2) ?
C6 C1 C2 C3 . . . . 1.3(4) ?
C9 N1 C7 S1 . . . . -176.0(2) ?
C9 N1 C7 N2 . . . . 3.2(4) ?
C8 N2 C7 S1 . . . . 0.2(4) ?
C8 N2 C7 N1 . . . . -178.9(3) ?

_cod_database_fobs_code 2022440
