#------------------------------------------------------------------------------
#$Date: 2020-04-10 08:24:21 +0300 (Fri, 10 Apr 2020) $
#$Revision: 250633 $
#$URL: file:///home/coder/svn-repositories/cod/cif/2/02/20/2022054.cif $
#------------------------------------------------------------------------------
#
# This file is available in the Crystallography Open Database (COD),
# http://www.crystallography.net/. The original data for this entry
# were provided by IUCr Journals, http://journals.iucr.org/.
#
# The file may be used within the scientific community so long as
# proper attribution is given to the journal article from which the
# data were obtained.
#
data_2022054
loop_
_publ_author_name
'Jha, Kunal Kumar'
'Gruza, Barbara'
'Kumar, Prashant'
'Chodkiewicz, Michal Leszek'
'Dominiak, Paulina Maria'
_publ_section_title
;
 TAAM: a reliable and user friendly tool for hydrogen-atom location using
 routine X-ray diffraction data
;
_journal_issue                   3
_journal_name_full
'Acta Crystallographica Section B Structural Science, Crystal Engineering and Materials'
_journal_paper_doi               10.1107/S2052520620002917
_journal_volume                  76
_journal_year                    2020
_chemical_formula_moiety         'C H O2, H2 O'
_chemical_formula_sum            'C H3 O3'
_chemical_formula_weight         63.03
_space_group_crystal_system      monoclinic
_space_group_IT_number           14
_space_group_name_Hall           '-P 2ybc'
_space_group_name_H-M_alt        'P 1 21/c 1'
_symmetry_Int_Tables_number      14
_audit_creation_date             2019-09-27
_audit_creation_method
;
Olex2 1.2
(compiled 2018.05.29 svn.r3508 for OlexSys, GUI svn.r5506)
;
_cell_angle_alpha                90.00
_cell_angle_beta                 103.842(2)
_cell_angle_gamma                90.00
_cell_formula_units_Z            4
_cell_length_a                   6.0931(4)
_cell_length_b                   3.4921(2)
_cell_length_c                   11.8409(7)
_cell_measurement_temperature    100(1)
_cell_volume                     244.63(3)
_computing_molecular_graphics    'Olex2 (Dolomanov et al., 2009)'
_computing_publication_material  'Olex2 (Dolomanov et al., 2009)'
_computing_structure_refinement  'olex2.refine (Bourhis et al., 2015)'
_diffrn_ambient_temperature      100(1)
_diffrn_measured_fraction_theta_full 0.7977
_diffrn_measured_fraction_theta_max 0.7977
_diffrn_measurement_device_type  'APEX II CCD detector'
_diffrn_radiation_type           'Mo K\a'
_diffrn_radiation_wavelength     0.71073
_diffrn_reflns_av_R_equivalents  0.0000
_diffrn_reflns_av_unetI/netI     0.0256
_diffrn_reflns_limit_h_max       13
_diffrn_reflns_limit_h_min       -14
_diffrn_reflns_limit_k_max       8
_diffrn_reflns_limit_k_min       0
_diffrn_reflns_limit_l_max       27
_diffrn_reflns_limit_l_min       0
_diffrn_reflns_number            2690
_diffrn_reflns_theta_full        56.9972
_diffrn_reflns_theta_max         57.00
_diffrn_reflns_theta_min         3.44
_exptl_absorpt_coefficient_mu    0.181
_exptl_crystal_density_diffrn    1.7113
_exptl_crystal_F_000             132.1419
_refine_diff_density_max         0.2716
_refine_diff_density_min         -0.2109
_refine_diff_density_rms         0.0389
_refine_ls_d_res_high            0.4237
_refine_ls_d_res_low             5.9162
_refine_ls_goodness_of_fit_ref   1.5601
_refine_ls_hydrogen_treatment    refall
_refine_ls_matrix_type           full
_refine_ls_number_constraints    0
_refine_ls_number_parameters     64
_refine_ls_number_reflns         2690
_refine_ls_number_restraints     0
_refine_ls_restrained_S_all      1.5601
_refine_ls_R_factor_all          0.0179
_refine_ls_R_factor_gt           0.0179
_refine_ls_shift/su_max          0.0001
_refine_ls_shift/su_mean         0.0000
_refine_ls_structure_factor_coef Fsqd
_refine_ls_weighting_details
'w=1/[\s^2^(Fo^2^)+(0.0114P)^2^] where P=(Fo^2^+2Fc^2^)/3'
_refine_ls_weighting_scheme      calc
_refine_ls_wR_factor_gt          0.0553
_refine_ls_wR_factor_ref         0.0553
_reflns_Friedel_coverage         0.0
_reflns_limit_h_max              13
_reflns_limit_h_min              -14
_reflns_limit_k_max              8
_reflns_limit_k_min              0
_reflns_limit_l_max              27
_reflns_limit_l_min              0
_reflns_number_gt                2690
_reflns_number_total             2690
_reflns_threshold_expression     I>=2u(I)
_iucr_refine_instructions_details
;
TITL oxa01
CELL 0.71073 6.0931 3.4921 11.8409 90 103.842 90
ZERR 4 0 0 0 0 0 0
LATT 1
SYMM -X,0.5+Y,0.5-Z
SFAC C H O
UNIT 4 12 12

ACTA 
BOND $H
WGHT 0.011401 0
FVAR 1.015741
REM <olex2.extras>
REM <HklSrc "%.\\998a01b031e13c229131443daf9693ca.hkl">
REM </olex2.extras>

O1    3     0.43478  0.44418  0.34987  11.00000  0.01295  0.01807  0.00801 =
 -0.00075  0.00205  0.00423 
O2    3     0.24251  0.74254  0.46370  11.00000  0.01121  0.01770  0.00901 =
 -0.00066  0.00116  0.00519 
C1    1     0.40308  0.55877  0.44797  11.00000  0.00931  0.01130  0.00773 =
 -0.00003  0.00138  0.00172 
O3    3     0.12998  0.63124  0.17842  11.00000  0.01068  0.01747  0.00913 =
 0.00112  0.00068 -0.00145 
H3a   2     0.01110  0.46199  0.14856  11.00000  0.03092  0.02005  0.02524 =
 0.00703  0.01410 -0.00370 
H1    2     0.30945  0.52008  0.28561  11.00000  0.04754  0.02949  0.05461 =
 -0.01085  0.04396 -0.01427 
H3b   2     0.18569  0.68908  0.11596  11.00000  0.01483  0.02506  0.03125 =
 -0.00097  0.00379 -0.00284 
HKLF 4

END
Q1 1 0.444444 0.458333 0.402778 11 0.05 0.27
Q2 1 0.388889 0.458333 0.305556 11 0.05 0.22
Q3 1 0.25 0.625 0.472222 11 0.05 0.22
Q4 1 0.194444 0.666667 0.152778 11 0.05 0.17
Q5 1 0.055556 0.541667 0.180556 11 0.05 0.14
Q6 1 0.138889 1 0.097222 11 0.05 0.1
Q7 1 -0.138889 0.375 0.152778 11 0.05 0.1
Q8 1 0.194444 0.166667 0.319444 11 0.05 0.1
Q9 1 -0.083333 0.833333 0.111111 11 0.05 0.09
Q10 1 0.416667 0.708333 0.458333 11 0.05 0.09
Q11 1 0.222222 0.5 0.069444 11 0.05 0.09
Q12 1 0.25 0.75 0.305556 11 0.05 0.09
Q13 1 0.472222 0.166667 0.263889 11 0.05 0.08
Q14 1 0.361111 1.083333 0.486111 11 0.05 0.08
Q15 1 0.333333 1 0.319444 11 0.05 0.08
Q16 1 0.027778 1.083333 0.152778 11 0.05 0.08
Q17 1 0.138889 0.291667 0.125 11 0.05 0.08
Q18 1 0.611111 0.416667 0.388889 11 0.05 0.08
Q19 1 0.583333 0.416667 0.291667 11 0.05 0.07
Q20 1 0.25 0.375 0.236111 11 0.05 0.07

  REM The information below was added by Olex2.
  REM
  REM R1 = 0.0179 for 2690 Fo > 4sig(Fo) and 0.0179 for all 2690 data
  REM 64 parameters refined using 0 restraints
  REM Highest difference peak 0.2716, deepest hole -0.2109
  REM Mean Shift 0.0000, Max Shift 0.0001.

  REM +++ Tabular Listing of Refinement Information +++
  REM R1_all = 0.0179
  REM R1_gt = 0.0179
  REM wR_ref = 0.0553
  REM GOOF = 1.5601
  REM Shift_max = 0.0001
  REM Shift_mean = 0.0000
  REM Reflections_all = 2690
  REM Reflections_gt = 2690
  REM Parameters = 64
  REM Hole = -0.2109
  REM Peak = 0.2716
  REM Flack = n/a

  
;
_cod_data_source_file            55_TAAM_ANIS_max.cif
_cod_data_source_block           55_TAAM_ANIS_max
_cod_database_code               2022054
_olex2_refinement_description
;
;
_iucr_refine_fcf_details
;
data_oxa01
_computing_structure_refinement   'olex2.refine (Bourhis et al., 2015)'
_shelx_refln_list_code            4
loop_
  _space_group_symop_id
  _space_group_symop_operation_xyz
  1  x,y,z
  2  -x,y+1/2,-z+1/2
  3  -x,-y,-z
  4  x,-y-1/2,z-1/2

_space_group_crystal_system       monoclinic
_space_group_IT_number            14
_space_group_name_H-M_alt         'P 1 21/c 1'
_space_group_name_Hall            '-P 2ybc'
_symmetry_space_group_name_H-M    'P 1 21/c 1'
_symmetry_space_group_name_Hall   '-P 2ybc'
_symmetry_Int_Tables_number       14
_cell_length_a                    6.0931
_cell_length_b                    3.4921
_cell_length_c                    11.8409
_cell_angle_alpha                 90
_cell_angle_beta                  103.842
_cell_angle_gamma                 90
_cell_volume                      244.63053
loop_
  _refln_index_h
  _refln_index_k
  _refln_index_l
  _refln_F_squared_calc
  _refln_F_squared_meas
  _refln_F_squared_sigma
  _refln_F_squared_weight
  _refln_observed_status
-14 1 6 3.858 3.635 0.223 19.442 o
-13 0 6 34.325 34.864 0.775 1.326 o
-13 1 1 2.623 2.607 0.204 23.685 o
-13 1 2 14.205 13.783 0.388 5.694 o
-13 1 4 1.141 1.124 0.087 128.886 o
-13 1 5 9.677 10.235 0.397 5.877 o
-13 2 1 3.992 4.236 0.155 38.248 o
-13 2 3 1.049 0.969 0.184 29.438 o
-13 2 4 0.783 0.930 0.087 130.183 o
-13 2 5 1.258 1.212 0.145 46.974 o
-13 3 1 1.470 1.328 0.194 26.489 o
-13 3 2 0.496 0.533 0.155 41.620 o
-13 3 4 4.509 4.313 0.368 7.252 o
-13 3 5 2.184 1.948 0.126 60.923 o
-13 3 6 4.117 4.139 0.165 34.139 o
-13 3 7 2.416 2.220 0.184 28.943 o
-13 3 9 1.973 2.006 0.213 21.799 o
-12 0 2 8.889 8.306 0.494 3.944 o
-12 0 4 41.011 42.279 0.960 0.876 o
-12 0 6 4.149 5.922 0.300 10.755 o
-12 0 14 5.452 5.612 0.291 11.327 o
-12 0 16 18.085 18.454 0.446 4.144 o
-12 0 18 0.529 0.756 0.165 36.855 o
-12 0 20 2.868 2.695 0.223 19.761 o
-12 1 1 1.895 1.909 0.116 71.610 o
-12 1 2 1.063 0.960 0.107 87.124 o
-12 1 5 19.069 18.900 0.901 1.166 o
-12 1 6 4.437 4.691 0.184 27.408 o
-12 1 7 1.526 1.619 0.136 53.521 o
-12 1 15 13.655 14.190 0.630 2.376 o
-12 1 16 1.757 1.909 0.126 61.488 o
-12 1 17 0.805 0.911 0.097 105.663 o
-12 1 19 1.520 1.415 0.116 72.557 o
-12 1 20 3.545 3.693 0.252 15.377 o
-12 2 1 12.992 12.862 0.320 8.077 o
-12 2 2 5.097 5.341 0.300 10.690 o
-12 2 5 7.905 8.113 0.242 14.965 o
-12 2 7 3.414 3.392 0.126 57.655 o
-12 2 8 4.230 4.681 0.174 30.437 o
-12 2 9 4.136 4.081 0.165 34.147 o
-12 2 11 8.601 8.946 0.320 8.935 o
-12 2 12 1.184 1.153 0.087 128.695 o
-12 2 13 5.089 5.389 0.184 26.791 o
-12 2 14 0.306 0.388 0.087 131.475 o
-12 2 16 0.188 0.349 0.087 131.592 o
-12 2 17 0.345 0.310 0.078 166.314 o
-12 2 18 5.411 5.951 0.262 13.816 o
-12 2 19 3.304 3.761 0.223 19.558 o
-12 3 1 1.577 1.580 0.097 103.143 o
-12 3 2 0.447 0.446 0.068 216.529 o
-12 3 3 3.159 3.179 0.136 50.840 o
-12 3 6 0.817 0.892 0.097 105.661 o
-12 3 7 1.253 1.241 0.116 73.001 o
-12 3 11 1.556 1.735 0.126 61.812 o
-12 3 12 0.404 0.456 0.087 131.326 o
-12 3 13 0.473 0.504 0.068 216.321 o
-12 3 14 3.817 3.838 0.136 49.343 o
-12 3 16 1.570 1.570 0.194 26.449 o
-12 4 2 0.963 0.930 0.194 26.591 o
-12 4 3 1.996 1.977 0.107 84.361 o
-12 4 4 1.497 1.405 0.165 36.543 o
-12 4 5 2.173 2.016 0.136 52.762 o
-12 4 6 5.532 5.156 0.456 4.743 o
-12 4 8 0.540 0.591 0.078 165.601 o
-12 4 9 1.476 1.328 0.116 72.674 o
-12 4 11 1.518 1.502 0.116 72.501 o
-11 0 2 3.806 3.770 0.281 12.393 o
-11 0 4 9.354 9.247 0.262 12.565 o
-11 0 6 0.587 0.572 0.116 73.854 o
-11 0 10 7.803 7.812 0.242 15.042 o
-11 0 12 2.440 2.821 0.252 15.573 o
-11 0 14 33.617 34.476 0.727 1.479 o
-11 0 16 1.345 1.241 0.194 26.517 o
-11 0 18 12.537 12.329 0.388 5.878 o
-11 0 20 2.108 2.026 0.233 18.333 o
-11 0 22 7.282 8.132 0.300 10.257 o
-11 1 2 5.768 5.757 0.213 20.132 o
-11 1 3 13.247 13.279 0.465 4.189 o
-11 1 4 35.109 34.554 1.008 0.853 o
-11 1 5 2.046 2.045 0.136 52.874 o
-11 1 7 1.363 1.444 0.087 127.514 o
-11 1 8 1.268 1.405 0.136 53.781 o
-11 1 9 6.180 6.349 0.204 21.563 o
-11 1 10 3.694 3.780 0.155 38.774 o
-11 1 11 4.093 4.391 0.145 42.795 o
-11 1 12 13.379 13.695 0.339 7.226 o
-11 1 13 0.375 0.456 0.087 131.362 o
-11 1 14 6.433 6.513 0.271 12.676 o
-11 1 15 5.999 6.067 0.204 21.723 o
-11 1 16 2.401 2.646 0.126 60.100 o
-11 1 18 9.351 10.148 0.407 5.639 o
-11 1 19 11.328 11.369 0.388 6.001 o
-11 1 20 0.500 0.407 0.068 216.404 o
-11 2 1 2.758 2.675 0.126 59.502 o
-11 2 2 0.289 0.407 0.078 166.325 o
-11 2 3 1.242 1.250 0.116 73.007 o
-11 2 4 10.954 10.342 0.291 10.066 o
-11 2 5 2.032 2.094 0.126 61.029 o
-11 2 6 6.129 6.281 0.184 25.782 o
-11 2 7 7.968 8.306 0.213 18.576 o
-11 2 10 1.077 1.124 0.107 86.991 o
-11 2 11 2.124 1.977 0.155 40.730 o
-11 2 12 2.509 2.530 0.145 45.643 o
-11 2 13 0.553 0.514 0.068 215.969 o
-11 2 14 1.360 1.270 0.097 104.148 o
-11 2 15 10.079 10.613 0.271 11.478 o
-11 2 16 0.253 0.194 0.058 295.760 o
-11 2 17 0.776 0.659 0.087 130.514 o
-11 2 18 2.322 2.520 0.107 82.780 o
-11 2 19 0.994 0.969 0.068 211.934 o
-11 2 20 0.417 0.417 0.058 294.413 o
-11 2 21 3.679 3.877 0.223 19.456 o
-11 3 1 0.919 0.872 0.078 163.821 o
-11 3 2 3.060 3.005 0.136 51.100 o
-11 3 3 0.377 0.300 0.078 166.268 o
-11 3 4 4.528 4.555 0.271 13.132 o
-11 3 5 6.507 6.407 0.514 3.722 o
-11 3 6 2.997 2.947 0.116 68.269 o
-11 3 7 3.388 3.402 0.165 34.991 o
-11 3 9 1.387 1.095 0.107 86.532 o
-11 3 10 12.144 12.532 0.330 7.820 o
-11 3 11 4.043 4.323 0.174 30.688 o
-11 3 12 1.115 0.804 0.165 36.739 o
-11 3 13 2.454 2.501 0.271 13.464 o
-11 3 14 0.416 0.310 0.078 166.192 o
-11 3 16 3.806 3.799 0.165 34.527 o
-11 3 17 4.503 4.866 0.155 37.361 o
-11 4 1 1.331 1.270 0.116 72.892 o
-11 4 2 2.813 2.627 0.213 21.578 o
-11 4 3 5.387 5.389 0.368 7.189 o
-11 4 6 6.603 6.571 0.194 23.188 o
-11 4 7 0.432 0.475 0.068 216.531 o
-11 4 9 2.459 2.762 0.145 45.584 o
-11 4 10 3.711 3.606 0.155 38.842 o
-11 4 12 3.205 3.354 0.184 28.403 o
-11 4 13 5.981 5.864 0.368 7.147 o
-11 4 15 0.669 0.649 0.078 165.145 o
-11 4 16 0.582 0.572 0.087 130.974 o
-11 5 1 0.270 0.310 0.078 166.424 o
-11 5 2 6.412 6.232 0.194 23.407 o
-11 5 4 3.379 3.354 0.145 44.323 o
-11 5 5 0.569 0.465 0.107 87.892 o
-11 5 6 3.295 3.421 0.223 19.599 o
-11 5 8 1.194 1.182 0.107 86.773 o
-10 0 4 8.424 8.064 0.223 17.087 o
-10 0 6 11.496 11.796 0.320 8.368 o
-10 0 8 17.146 17.563 0.717 1.812 o
-10 0 10 11.684 11.641 0.746 1.744 o
-10 0 12 11.764 11.301 0.523 3.439 o
-10 0 14 0.883 0.756 0.097 105.663 o
-10 0 16 2.861 3.218 0.252 15.502 o
-10 0 18 62.288 65.472 1.464 0.376 o
-10 0 20 1.774 1.803 0.184 29.200 o
-10 0 22 1.393 1.318 0.116 72.786 o
-10 0 24 5.110 5.205 0.494 4.045 o
-10 1 1 3.449 3.334 0.107 77.827 o
-10 1 2 0.466 0.572 0.039 652.661 o
-10 1 3 2.309 2.152 0.087 121.180 o
-10 1 4 0.752 0.746 0.048 413.903 o
-10 1 5 9.460 9.159 0.223 16.409 o
-10 1 7 46.404 45.778 1.202 0.582 o
-10 1 8 19.586 19.298 0.446 4.039 o
-10 1 9 9.698 9.954 0.242 14.086 o
-10 1 10 6.194 6.281 0.165 31.145 o
-10 1 11 1.918 1.832 0.078 154.769 o
-10 1 12 3.792 3.896 0.116 64.954 o
-10 1 13 11.144 11.679 0.271 11.098 o
-10 1 14 17.606 17.960 0.417 4.672 o
-10 1 16 0.955 0.853 0.068 212.654 o
-10 1 17 14.984 15.460 0.359 6.327 o
-10 1 18 2.443 2.588 0.116 69.924 o
-10 1 19 1.896 1.880 0.097 101.667 o
-10 1 21 0.411 0.436 0.058 294.388 o
-10 1 22 11.520 11.960 0.378 6.242 o
-10 1 23 0.433 0.475 0.068 216.525 o
-10 2 1 0.516 0.494 0.048 420.757 o
-10 2 2 10.796 10.507 0.320 8.553 o
-10 2 3 47.912 48.588 1.144 0.623 o
-10 2 4 27.603 27.885 0.649 1.922 o
-10 2 7 1.292 1.299 0.058 278.457 o
-10 2 8 9.166 8.588 0.213 17.920 o
-10 2 9 13.350 13.298 0.339 7.253 o
-10 2 10 0.843 0.698 0.058 289.361 o
-10 2 11 11.586 11.738 0.320 8.359 o
-10 2 12 4.773 5.069 0.213 20.644 o
-10 2 13 11.364 11.679 0.281 10.429 o
-10 2 14 13.793 14.413 0.339 7.131 o
-10 2 16 0.752 0.630 0.058 290.725 o
-10 2 17 3.621 4.042 0.145 43.626 o
-10 2 18 0.652 0.514 0.058 292.257 o
-10 2 20 0.408 0.456 0.068 216.650 o
-10 2 21 1.097 1.173 0.078 162.291 o
-10 2 23 0.658 0.582 0.068 215.315 o
-10 3 1 2.538 2.549 0.116 69.765 o
-10 3 2 7.901 7.686 0.213 18.758 o
-10 3 3 3.527 3.577 0.233 17.981 o
-10 3 4 10.309 10.516 0.262 12.152 o
-10 3 6 10.774 10.875 0.378 6.341 o
-10 3 7 0.529 0.611 0.058 292.900 o
-10 3 8 5.765 5.883 0.242 15.886 o
-10 3 9 0.972 1.056 0.087 129.512 o
-10 3 10 7.933 7.899 0.330 8.585 o
-10 3 14 8.179 8.510 0.242 14.817 o
-10 3 15 2.650 2.772 0.155 40.108 o
-10 3 17 1.446 1.541 0.107 86.031 o
-10 3 19 0.959 0.911 0.068 212.411 o
-10 3 20 7.281 7.308 0.194 22.531 o
-10 3 21 2.924 3.160 0.174 31.710 o
-10 4 2 10.515 9.780 0.310 9.120 o
-10 4 3 6.524 6.271 0.281 11.876 o
-10 4 4 0.337 0.368 0.068 217.009 o
-10 4 5 1.033 1.037 0.078 162.944 o
-10 4 6 3.317 3.383 0.155 39.309 o
-10 4 8 3.199 2.956 0.194 25.806 o
-10 4 9 3.147 3.063 0.378 6.953 o
-10 4 10 7.134 7.347 0.233 16.470 o
-10 4 13 7.700 8.035 0.242 15.040 o
-10 4 16 10.583 10.788 0.291 10.094 o
-10 4 17 0.824 0.737 0.136 54.195 o
-10 4 19 1.185 1.279 0.155 41.347 o
-10 5 2 6.809 6.862 0.204 21.108 o
-10 5 4 2.374 2.142 0.136 52.483 o
-10 5 5 2.804 2.762 0.184 28.699 o
-10 5 6 6.147 6.048 0.165 31.314 o
-10 5 10 0.595 0.727 0.107 87.769 o
-10 5 11 1.136 1.018 0.097 104.951 o
-10 5 12 14.768 15.120 0.368 6.095 o
-10 5 14 0.931 0.766 0.087 130.021 o
-9 0 2 3.630 3.867 0.136 49.617 o
-9 0 4 56.097 54.821 1.192 0.549 o
-9 0 6 24.143 23.339 0.514 2.966 o
-9 0 8 4.105 4.129 0.136 48.630 o
-9 0 10 51.417 52.097 1.338 0.469 o
-9 0 14 1.784 1.900 0.097 102.006 o
-9 0 16 21.028 21.498 1.115 0.771 o
-9 0 20 1.227 1.076 0.107 86.805 o
-9 0 22 6.987 7.095 0.223 17.864 o
-9 0 24 4.077 4.051 0.155 38.255 o
-9 1 1 0.482 0.475 0.039 653.843 o
-9 1 2 1.348 1.444 0.058 276.154 o
-9 1 3 0.120 0.165 0.029 1182.210 o
-9 1 4 10.386 10.206 0.242 13.811 o
-9 1 5 2.836 2.888 0.087 115.641 o
-9 1 6 21.597 21.624 0.494 3.286 o
-9 1 7 16.798 17.156 0.388 5.345 o
-9 1 8 4.857 4.633 0.126 53.176 o
-9 1 9 17.423 16.942 0.407 4.903 o
-9 1 10 1.061 1.153 0.058 283.389 o
-9 1 11 6.562 6.610 0.165 30.583 o
-9 1 13 0.354 0.349 0.039 659.783 o
-9 1 14 13.943 13.841 0.397 5.475 o
-9 1 15 0.620 0.552 0.048 418.509 o
-9 1 16 2.687 2.588 0.107 81.605 o
-9 1 17 35.920 36.376 0.814 1.205 o
-9 1 18 6.569 6.882 0.184 25.246 o
-9 1 19 2.715 2.646 0.107 81.431 o
-9 1 20 4.410 4.662 0.136 47.644 o
-9 1 21 7.116 7.085 0.184 24.763 o
-9 1 23 2.218 2.268 0.087 121.369 o
-9 1 24 0.478 0.727 0.078 165.587 o
-9 1 25 0.594 0.669 0.058 292.078 o
-9 2 1 4.705 4.895 0.145 41.603 o
-9 2 3 0.733 0.630 0.039 639.837 o
-9 2 4 0.335 0.349 0.039 660.255 o
-9 2 5 6.108 5.874 0.165 31.445 o
-9 2 6 33.933 34.709 0.775 1.331 o
-9 2 7 9.783 9.654 0.271 11.657 o
-9 2 8 54.931 54.733 1.212 0.539 o
-9 2 9 1.239 1.289 0.068 208.466 o
-9 2 10 5.453 5.467 0.155 35.899 o
-9 2 12 3.031 3.111 0.116 67.985 o
-9 2 13 31.169 31.384 0.708 1.597 o
-9 2 14 4.742 4.769 0.136 46.955 o
-9 2 15 0.503 0.494 0.048 420.960 o
-9 2 16 9.455 9.964 0.252 13.268 o
-9 2 17 8.315 8.810 0.223 16.976 o
-9 2 18 15.060 15.692 0.368 6.039 o
-9 2 19 4.019 3.993 0.136 48.886 o
-9 2 20 0.430 0.436 0.068 216.606 o
-9 2 21 7.087 7.386 0.194 22.631 o
-9 2 22 2.790 2.782 0.165 35.595 o
-9 2 23 7.819 8.151 0.213 18.686 o
-9 2 24 3.483 3.499 0.145 44.119 o
-9 3 1 2.859 2.801 0.107 80.733 o
-9 3 2 84.162 80.234 1.812 0.240 o
-9 3 3 12.242 12.726 0.300 9.089 o
-9 3 4 20.754 21.110 0.485 3.439 o
-9 3 6 1.031 1.027 0.058 284.773 o
-9 3 7 20.085 19.685 0.446 4.001 o
-9 3 8 6.644 6.504 0.165 30.552 o
-9 3 9 1.336 1.638 0.087 127.238 o
-9 3 10 5.018 4.866 0.165 33.018 o
-9 3 11 1.010 1.056 0.126 62.595 o
-9 3 12 41.434 42.821 0.960 0.872 o
-9 3 13 6.710 6.620 0.262 13.493 o
-9 3 14 6.063 6.087 0.213 19.943 o
-9 3 15 2.447 2.685 0.107 82.180 o
-9 3 16 3.021 3.208 0.107 79.530 o
-9 3 17 0.163 0.194 0.048 426.077 o
-9 3 18 2.900 2.947 0.136 51.355 o
-9 3 21 0.428 0.756 0.078 165.678 o
-9 3 22 2.536 2.501 0.116 69.820 o
-9 4 1 11.413 11.049 0.310 8.888 o
-9 4 2 3.657 3.354 0.145 43.999 o
-9 4 3 21.069 20.325 0.572 2.615 o
-9 4 4 0.298 0.310 0.048 424.644 o
-9 4 6 8.066 8.025 0.213 18.597 o
-9 4 7 0.768 0.930 0.078 164.311 o
-9 4 8 4.204 4.187 0.155 38.053 o
-9 4 9 1.810 1.677 0.116 71.940 o
-9 4 10 0.555 0.669 0.087 130.937 o
-9 4 11 5.851 5.689 0.213 20.112 o
-9 4 12 6.191 6.000 0.300 10.533 o
-9 4 13 7.702 7.628 0.223 17.475 o
-9 4 14 0.280 0.271 0.078 166.436 o
-9 4 18 0.318 0.242 0.078 166.404 o
-9 4 19 0.681 0.485 0.087 130.877 o
-9 4 20 5.816 6.271 0.233 17.064 o
-9 5 1 1.537 1.464 0.107 85.930 o
-9 5 6 0.782 0.863 0.087 130.267 o
-9 5 8 0.558 0.436 0.078 165.754 o
-9 5 9 3.595 3.770 0.165 34.702 o
-9 5 10 0.894 1.115 0.107 87.244 o
-9 5 12 3.110 3.237 0.155 39.553 o
-9 5 15 2.224 2.365 0.116 70.595 o
-9 5 16 8.804 9.838 0.252 13.475 o
-9 6 1 1.630 1.842 0.184 29.232 o
-9 6 3 4.178 4.236 0.339 8.540 o
-9 6 4 0.295 0.330 0.058 295.312 o
-9 6 5 3.568 3.528 0.136 49.979 o
-9 6 6 0.607 0.843 0.078 165.035 o
-9 6 10 0.913 0.853 0.165 36.779 o
-9 6 11 7.701 8.084 0.291 10.834 o
-8 0 2 3.578 3.451 0.136 50.023 o
-8 0 4 4.467 4.090 0.116 62.733 o
-8 0 8 49.809 49.199 1.076 0.678 o
-8 0 10 6.304 6.601 0.184 25.542 o
-8 0 12 3.181 2.985 0.097 94.061 o
-8 0 14 44.751 43.597 1.822 0.280 o
-8 0 16 11.681 12.348 0.300 9.221 o
-8 0 18 2.420 2.394 0.145 45.784 o
-8 0 20 42.120 42.734 0.940 0.898 o
-8 0 22 0.287 0.349 0.068 217.168 o
-8 0 24 0.701 0.775 0.078 164.836 o
-8 0 26 7.222 7.308 0.271 12.454 o
-8 1 1 28.307 29.039 0.669 1.812 o
-8 1 3 18.820 18.328 0.426 4.413 o
-8 1 4 29.526 28.806 0.669 1.794 o
-8 1 5 22.654 22.235 0.523 2.950 o
-8 1 6 1.661 1.657 0.058 268.000 o
-8 1 7 54.905 54.394 1.231 0.526 o
-8 1 8 6.032 5.748 0.145 38.972 o
-8 1 9 13.128 13.647 0.310 8.409 o
-8 1 10 36.320 35.697 0.785 1.275 o
-8 1 11 1.710 1.716 0.068 201.107 o
-8 1 12 1.818 1.667 0.078 156.162 o
-8 1 14 0.479 0.504 0.039 653.430 o
-8 1 15 15.614 16.283 0.417 4.859 o
-8 1 16 8.681 8.907 0.242 14.594 o
-8 1 17 7.154 7.017 0.194 22.705 o
-8 1 18 10.573 10.613 0.291 10.113 o
-8 1 20 1.261 1.115 0.068 209.075 o
-8 1 21 4.211 4.236 0.136 48.359 o
-8 1 23 0.967 0.882 0.068 212.463 o
-8 1 24 9.292 9.111 0.252 13.439 o
-8 1 25 0.208 0.242 0.048 425.653 o
-8 1 26 1.227 1.124 0.078 161.736 o
-8 2 1 39.719 38.964 0.901 0.988 o
-8 2 2 16.159 16.060 0.407 5.024 o
-8 2 3 6.878 6.833 0.174 27.416 o
-8 2 4 16.028 15.663 0.359 6.207 o
-8 2 5 32.875 33.594 0.775 1.348 o
-8 2 6 56.247 57.021 1.367 0.439 o
-8 2 7 6.429 6.426 0.155 34.069 o
-8 2 8 6.634 6.562 0.194 23.172 o
-8 2 9 1.321 1.367 0.068 207.295 o
-8 2 10 11.171 11.204 0.262 11.829 o
-8 2 11 20.442 20.015 0.465 3.712 o
-8 2 12 8.288 8.151 0.194 21.598 o
-8 2 13 2.068 2.103 0.078 152.453 o
-8 2 14 11.310 11.747 0.281 10.434 o
-8 2 16 37.715 38.101 0.998 0.847 o
-8 2 17 1.864 1.997 0.087 124.009 o
-8 2 18 13.853 14.122 0.436 4.651 o
-8 2 19 3.649 3.984 0.126 56.582 o
-8 2 20 0.473 0.330 0.048 422.559 o
-8 2 22 0.201 0.194 0.058 295.930 o
-8 2 23 2.809 2.830 0.136 51.551 o
-8 2 25 0.763 0.620 0.078 164.888 o
-8 3 1 0.236 0.271 0.048 425.336 o
-8 3 2 8.358 8.190 0.204 19.892 o
-8 3 3 6.861 6.882 0.184 25.030 o
-8 3 5 0.840 0.824 0.048 410.934 o
-8 3 6 33.544 33.255 0.737 1.457 o
-8 3 7 10.293 10.342 0.242 13.820 o
-8 3 8 21.758 21.217 0.543 2.822 o
-8 3 9 5.466 5.302 0.136 45.111 o
-8 3 10 9.472 9.663 0.262 12.482 o
-8 3 11 6.290 6.290 0.165 31.039 o
-8 3 12 51.260 51.496 1.221 0.547 o
-8 3 13 1.463 1.590 0.097 103.454 o
-8 3 14 1.303 1.241 0.087 128.125 o
-8 3 15 0.406 0.494 0.058 294.234 o
-8 3 16 17.675 17.621 0.504 3.403 o
-8 3 17 16.787 17.446 0.397 5.127 o
-8 3 19 1.027 1.086 0.068 211.213 o
-8 3 20 8.053 8.423 0.223 17.167 o
-8 3 22 24.486 23.679 0.533 2.781 o
-8 3 23 2.966 3.102 0.184 28.563 o
-8 4 1 21.511 21.033 0.475 3.519 o
-8 4 2 19.715 19.598 0.591 2.507 o
-8 4 3 15.381 15.576 0.359 6.279 o
-8 4 4 11.201 10.836 0.262 11.870 o
-8 4 5 3.135 2.947 0.097 94.374 o
-8 4 6 4.745 4.614 0.126 53.460 o
-8 4 7 2.954 3.005 0.116 68.302 o
-8 4 8 4.232 4.429 0.136 48.157 o
-8 4 10 0.331 0.310 0.068 217.104 o
-8 4 11 22.364 22.554 0.523 2.954 o
-8 4 12 17.170 17.543 0.426 4.541 o
-8 4 13 10.972 11.360 0.310 8.932 o
-8 4 15 3.047 3.131 0.204 23.497 o
-8 4 16 2.726 2.850 0.155 40.022 o
-8 4 18 5.085 4.963 0.155 36.639 o
-8 4 20 0.294 0.281 0.048 424.808 o
-8 4 21 7.280 7.841 0.223 17.602 o
-8 5 1 4.688 4.565 0.165 33.460 o
-8 5 2 27.512 27.071 0.611 2.132 o
-8 5 5 1.490 1.580 0.107 85.910 o
-8 5 6 0.392 0.446 0.078 166.110 o
-8 5 7 4.576 4.643 0.155 37.404 o
-8 5 8 8.283 8.016 0.213 18.495 o
-8 5 10 2.297 2.191 0.145 45.975 o
-8 5 12 1.043 0.795 0.087 129.680 o
-8 5 14 0.676 0.562 0.078 165.259 o
-8 5 15 0.693 0.737 0.078 164.927 o
-8 5 19 0.984 0.940 0.087 129.642 o
-8 6 1 0.333 0.281 0.078 166.354 o
-8 6 2 0.594 0.572 0.068 215.650 o
-8 6 3 0.401 0.349 0.068 216.847 o
-8 6 4 0.765 0.756 0.078 164.647 o
-8 6 6 0.467 0.397 0.068 216.543 o
-8 6 7 1.221 1.241 0.107 86.685 o
-8 6 11 0.703 0.853 0.174 32.851 o
-8 6 13 1.609 1.803 0.204 23.983 o
-8 6 14 0.519 0.485 0.087 131.147 o
-7 0 2 14.257 14.190 0.436 4.628 o
-7 0 4 41.017 39.788 0.901 0.976 o
-7 0 6 252.090 253.506 5.941 0.023 o
-7 0 8 0.337 0.262 0.039 661.277 o
-7 0 10 1.450 1.318 0.068 206.229 o
-7 0 12 5.389 5.699 0.145 39.999 o
-7 0 14 10.351 12.658 0.407 5.514 o
-7 0 16 7.327 7.182 0.223 17.715 o
-7 0 18 7.528 7.657 0.291 10.895 o
-7 0 20 0.487 0.417 0.068 216.435 o
-7 0 22 0.403 0.407 0.078 166.126 o
-7 0 24 8.193 8.248 0.397 6.013 o
-7 0 26 1.802 1.619 0.223 20.011 o
-7 1 1 17.443 17.883 0.426 4.513 o
-7 1 2 85.949 85.071 2.016 0.200 o
-7 1 3 3.796 3.751 0.097 89.076 o
-7 1 4 0.285 0.407 0.029 1166.490 o
-7 1 5 2.266 2.220 0.058 248.085 o
-7 1 6 19.049 19.026 0.436 4.223 o
-7 1 7 51.669 51.496 1.144 0.606 o
-7 1 9 10.069 10.429 0.242 13.881 o
-7 1 10 29.709 29.368 0.659 1.828 o
-7 1 11 47.078 45.855 1.018 0.760 o
-7 1 12 2.888 2.801 0.087 115.587 o
-7 1 13 9.506 9.353 0.223 16.347 o
-7 1 14 15.281 15.266 0.368 6.039 o
-7 1 15 13.476 13.744 0.339 7.211 o
-7 1 16 6.096 6.077 0.174 28.428 o
-7 1 17 22.794 23.165 0.514 3.018 o
-7 1 18 0.217 0.223 0.039 664.091 o
-7 1 19 26.901 26.809 0.640 1.992 o
-7 1 20 4.414 4.488 0.136 47.789 o
-7 1 21 3.035 3.014 0.107 79.809 o
-7 1 22 1.302 1.212 0.097 104.361 o
-7 1 23 1.082 0.940 0.068 211.354 o
-7 1 24 0.850 0.863 0.068 213.355 o
-7 1 25 7.635 7.492 0.194 22.244 o
-7 1 26 0.558 0.649 0.068 215.637 o
-7 2 2 0.265 0.349 0.029 1170.080 o
-7 2 3 22.664 22.244 0.504 3.133 o
-7 2 4 3.493 3.431 0.087 109.226 o
-7 2 5 10.167 9.983 0.233 14.874 o
-7 2 6 2.148 2.132 0.068 192.757 o
-7 2 7 19.282 19.191 0.436 4.204 o
-7 2 8 16.493 16.390 0.388 5.403 o
-7 2 9 17.126 16.429 0.378 5.569 o
-7 2 10 79.021 77.239 1.948 0.218 o
-7 2 11 22.689 22.622 0.514 3.031 o
-7 2 12 8.141 7.928 0.194 21.770 o
-7 2 13 5.254 5.069 0.136 45.733 o
-7 2 14 3.249 3.480 0.107 78.278 o
-7 2 15 41.862 42.531 0.930 0.915 o
-7 2 16 12.440 12.823 0.417 5.160 o
-7 2 17 2.057 2.064 0.078 152.709 o
-7 2 18 4.752 4.914 0.136 46.805 o
-7 2 19 0.305 0.281 0.048 424.712 o
-7 2 20 24.183 24.328 0.543 2.702 o
-7 2 21 12.673 12.377 0.456 4.395 o
-7 2 22 4.730 4.575 0.145 41.794 o
-7 2 23 3.830 3.751 0.126 56.447 o
-7 2 24 4.823 4.866 0.194 24.677 o
-7 2 25 2.661 2.423 0.126 59.867 o
-7 2 26 6.978 6.504 0.543 3.334 o
-7 3 1 1.913 1.977 0.068 196.933 o
-7 3 2 1.895 1.832 0.068 198.103 o
-7 3 3 2.122 2.229 0.078 151.467 o
-7 3 4 75.980 75.204 1.677 0.282 o
-7 3 5 33.994 33.391 0.737 1.450 o
-7 3 6 16.044 15.770 0.359 6.199 o
-7 3 9 9.638 9.702 0.233 15.132 o
-7 3 10 11.387 11.030 0.291 9.919 o
-7 3 11 0.255 0.252 0.039 663.143 o
-7 3 12 1.033 0.950 0.058 285.293 o
-7 3 13 7.373 7.657 0.204 20.591 o
-7 3 14 23.278 23.417 0.523 2.908 o
-7 3 15 4.864 4.672 0.145 41.536 o
-7 3 16 22.655 23.116 0.591 2.403 o
-7 3 17 0.156 0.233 0.048 426.008 o
-7 3 18 9.920 10.032 0.349 7.445 o
-7 3 20 2.727 2.811 0.155 40.036 o
-7 3 21 2.715 2.927 0.136 51.609 o
-7 3 22 2.918 2.617 0.155 39.963 o
-7 3 24 2.608 2.656 0.116 69.497 o
-7 4 1 21.484 20.422 0.475 3.534 o
-7 4 2 6.828 6.649 0.174 27.542 o
-7 4 3 0.584 0.659 0.048 418.207 o
-7 4 4 2.061 2.006 0.078 152.915 o
-7 4 5 23.372 23.155 0.562 2.593 o
-7 4 6 4.215 4.439 0.145 42.600 o
-7 4 7 4.311 4.400 0.126 54.695 o
-7 4 8 26.834 26.460 0.611 2.153 o
-7 4 9 5.205 5.457 0.174 29.416 o
-7 4 10 0.215 0.223 0.048 425.672 o
-7 4 11 14.568 14.229 0.465 4.115 o
-7 4 12 3.399 3.431 0.116 66.649 o
-7 4 14 3.562 3.431 0.136 50.062 o
-7 4 15 12.715 11.902 0.514 3.529 o
-7 4 16 9.722 9.663 0.252 13.233 o
-7 4 17 3.495 3.790 0.126 57.097 o
-7 4 19 0.711 0.659 0.058 290.997 o
-7 4 20 0.242 0.213 0.058 295.764 o
-7 4 21 7.816 8.239 0.233 16.078 o
-7 4 22 9.955 10.245 0.388 6.133 o
-7 5 1 3.911 3.809 0.145 43.408 o
-7 5 2 19.454 19.753 0.456 3.897 o
-7 5 3 3.441 3.402 0.145 44.224 o
-7 5 4 1.803 1.793 0.097 102.120 o
-7 5 5 1.011 0.969 0.078 163.203 o
-7 5 6 7.933 8.084 0.213 18.647 o
-7 5 7 0.623 0.533 0.058 292.424 o
-7 5 10 5.259 5.321 0.281 12.130 o
-7 5 11 9.215 9.111 0.242 14.387 o
-7 5 12 25.490 26.121 0.601 2.242 o
-7 5 14 1.173 1.299 0.097 104.562 o
-7 5 16 0.238 0.194 0.058 295.811 o
-7 5 17 2.440 2.423 0.136 52.251 o
-7 5 18 4.086 4.110 0.136 48.678 o
-7 5 19 0.598 0.533 0.165 36.861 o
-7 5 20 3.469 3.799 0.223 19.515 o
-7 6 1 16.821 16.312 1.464 0.460 o
-7 6 2 2.964 3.295 0.165 35.321 o
-7 6 4 0.748 0.708 0.097 105.905 o
-7 6 5 1.340 1.124 0.242 17.011 o
-7 6 6 6.103 6.290 0.213 19.884 o
-7 6 7 2.478 2.287 0.204 23.759 o
-7 6 8 4.338 4.497 0.233 17.704 o
-7 6 9 2.110 2.539 0.242 16.882 o
-7 6 11 1.967 1.919 0.223 19.971 o
-7 6 16 1.790 2.084 0.194 26.349 o
-7 7 4 0.718 0.727 0.155 41.562 o
-7 7 5 2.471 2.413 0.213 21.672 o
-7 7 6 0.914 0.872 0.165 36.776 o
-7 7 7 0.485 0.940 0.165 36.848 o
-6 0 2 180.771 185.630 5.786 0.027 o
-6 0 4 3.385 2.937 0.097 93.194 o
-6 0 6 162.975 166.080 3.703 0.058 o
-6 0 8 1.017 1.124 0.068 211.140 o
-6 0 10 292.039 286.819 6.833 0.017 o
-6 0 14 25.712 26.005 0.601 2.239 o
-6 0 16 131.651 133.959 3.024 0.088 o
-6 0 18 15.486 15.770 0.368 5.994 o
-6 0 20 10.012 10.022 0.271 11.562 o
-6 0 22 2.869 2.956 0.136 51.390 o
-6 0 24 12.820 13.114 0.504 3.635 o
-6 0 26 5.059 4.817 0.174 29.779 o
-6 1 1 1.234 1.405 0.048 390.722 o
-6 1 2 6.895 6.736 0.165 30.159 o
-6 1 3 1.120 1.250 0.039 596.939 o
-6 1 4 32.575 32.072 0.717 1.540 o
-6 1 5 95.097 96.963 2.161 0.171 o
-6 1 6 151.900 153.499 3.441 0.067 o
-6 1 7 2.687 2.801 0.078 143.651 o
-6 1 8 2.923 2.966 0.087 114.806 o
-6 1 9 43.838 43.984 0.979 0.829 o
-6 1 10 51.016 50.052 1.115 0.636 o
-6 1 11 4.352 4.051 0.107 73.072 o
-6 1 12 42.621 41.939 0.930 0.912 o
-6 1 13 4.817 4.943 0.126 52.906 o
-6 1 14 22.476 21.740 0.485 3.351 o
-6 1 15 3.501 3.615 0.097 90.938 o
-6 1 16 0.655 0.562 0.039 645.136 o
-6 1 17 1.010 1.027 0.048 403.732 o
-6 1 18 0.657 0.649 0.039 643.036 o
-6 1 19 11.834 12.086 0.281 10.284 o
-6 1 20 28.649 28.438 0.630 1.992 o
-6 1 21 13.052 12.969 0.310 8.477 o
-6 1 22 1.592 1.405 0.107 85.880 o
-6 1 23 2.156 2.210 0.107 83.657 o
-6 1 24 0.293 0.223 0.058 295.553 o
-6 1 25 1.242 1.202 0.097 104.513 o
-6 1 26 1.740 1.619 0.107 85.359 o
-6 1 27 1.843 1.754 0.136 53.201 o
-6 2 1 70.543 70.581 1.599 0.313 o
-6 2 2 38.713 39.487 0.892 1.010 o
-6 2 3 59.770 61.663 1.376 0.423 o
-6 2 4 5.212 5.457 0.136 45.446 o
-6 2 5 4.442 4.333 0.116 62.449 o
-6 2 6 0.898 1.134 0.039 616.044 o
-6 2 7 0.220 0.252 0.019 2619.070 o
-6 2 8 13.085 13.482 0.310 8.429 o
-6 2 9 31.784 31.539 0.717 1.554 o
-6 2 10 9.740 9.605 0.223 16.189 o
-6 2 11 0.239 0.242 0.029 1175.100 o
-6 2 12 9.153 9.111 0.223 16.553 o
-6 2 13 0.275 0.223 0.039 663.042 o
-6 2 14 6.541 6.426 0.165 30.703 o
-6 2 15 2.747 2.782 0.087 116.573 o
-6 2 16 0.400 0.330 0.039 658.779 o
-6 2 17 9.537 9.722 0.252 13.279 o
-6 2 18 19.761 19.656 0.446 4.020 o
-6 2 19 2.517 2.520 0.097 98.091 o
-6 2 20 20.963 20.509 0.727 1.714 o
-6 2 21 1.576 1.609 0.078 158.104 o
-6 2 23 0.582 0.582 0.068 215.687 o
-6 2 24 0.265 0.204 0.068 217.380 o
-6 2 25 12.265 12.445 0.310 8.645 o
-6 3 1 12.929 12.930 0.300 8.949 o
-6 3 2 11.726 11.476 0.281 10.373 o
-6 3 3 1.360 1.754 0.058 273.033 o
-6 3 4 4.337 4.740 0.126 54.254 o
-6 3 5 0.644 0.659 0.039 643.397 o
-6 3 6 6.049 6.794 0.204 21.517 o
-6 3 7 7.846 7.793 0.204 20.292 o
-6 3 8 40.505 39.836 0.882 1.014 o
-6 3 9 31.756 31.869 0.708 1.586 o
-6 3 10 0.536 0.591 0.039 649.570 o
-6 3 11 4.602 4.313 0.116 62.000 o
-6 3 12 0.375 0.756 0.048 420.915 o
-6 3 13 7.022 6.746 0.174 27.326 o
-6 3 14 55.923 56.778 1.250 0.508 o
-6 3 15 12.536 13.337 0.320 8.109 o
-6 3 16 1.845 1.832 0.078 155.338 o
-6 3 17 0.554 0.572 0.058 292.852 o
-6 3 18 8.909 8.413 0.262 12.781 o
-6 3 19 15.790 15.508 0.630 2.337 o
-6 3 20 0.950 0.930 0.068 212.406 o
-6 3 21 0.395 0.465 0.058 294.397 o
-6 3 22 5.055 4.303 0.155 37.054 o
-6 3 23 0.826 0.775 0.078 164.388 o
-6 3 24 18.971 19.482 0.446 4.068 o
-6 3 25 2.148 2.103 0.136 52.743 o
-6 4 1 8.002 7.996 0.213 18.635 o
-6 4 3 7.134 6.804 0.174 27.200 o
-6 4 4 42.692 41.901 0.950 0.882 o
-6 4 5 39.016 39.002 0.940 0.927 o
-6 4 6 1.940 1.871 0.087 123.946 o
-6 4 8 6.938 6.823 0.174 27.367 o
-6 4 10 1.861 1.880 0.107 84.797 o
-6 4 11 6.904 6.920 0.184 24.984 o
-6 4 12 11.626 11.689 0.281 10.372 o
-6 4 13 13.684 13.376 0.330 7.560 o
-6 4 14 14.062 13.812 0.330 7.480 o
-6 4 15 23.095 22.700 0.669 1.943 o
-6 4 16 0.517 0.552 0.058 293.227 o
-6 4 18 6.755 6.639 0.213 19.526 o
-6 4 19 0.914 1.066 0.078 163.426 o
-6 4 21 1.529 1.473 0.087 126.782 o
-6 4 22 0.562 0.504 0.068 215.951 o
-6 4 23 3.732 3.867 0.155 38.695 o
-6 5 2 0.619 0.785 0.068 214.989 o
-6 5 3 1.149 1.173 0.087 128.778 o
-6 5 4 37.919 36.744 0.901 1.007 o
-6 5 6 6.714 6.668 0.184 25.218 o
-6 5 7 2.791 2.724 0.145 45.286 o
-6 5 8 15.827 16.109 0.378 5.700 o
-6 5 9 1.326 1.328 0.078 160.605 o
-6 5 10 15.628 14.888 0.359 6.290 o
-6 5 11 0.473 0.523 0.068 216.281 o
-6 5 12 0.237 0.223 0.068 217.416 o
-6 5 13 0.611 0.504 0.068 215.730 o
-6 5 14 2.391 2.278 0.107 82.926 o
-6 5 15 1.443 1.454 0.107 86.118 o
-6 5 16 7.772 8.384 0.233 16.068 o
-6 5 17 0.259 0.271 0.058 295.591 o
-6 5 18 1.500 1.570 0.097 103.375 o
-6 5 21 3.282 3.169 0.204 23.421 o
-6 6 1 1.801 1.783 0.107 85.045 o
-6 6 2 4.149 4.488 0.174 30.560 o
-6 6 3 0.396 0.543 0.087 131.280 o
-6 6 4 3.123 3.276 0.184 28.457 o
-6 6 5 9.873 9.615 0.271 11.641 o
-6 6 6 1.128 2.006 0.116 72.684 o
-6 6 7 0.783 0.717 0.097 105.848 o
-6 6 8 0.538 0.514 0.097 106.283 o
-6 6 10 5.180 5.282 0.397 6.208 o
-6 6 11 10.508 9.722 0.533 3.366 o
-6 6 12 4.237 4.759 0.271 13.157 o
-6 6 13 0.785 0.717 0.204 24.150 o
-6 6 14 0.966 0.998 0.097 105.306 o
-6 6 15 3.922 3.673 0.155 38.603 o
-6 6 16 2.173 2.084 0.204 23.850 o
-6 7 1 5.937 5.903 0.194 23.785 o
-6 7 3 0.326 0.271 0.078 166.372 o
-6 7 4 0.488 0.426 0.097 106.374 o
-6 7 5 0.431 0.339 0.087 131.364 o
-6 7 6 1.279 1.163 0.087 128.350 o
-6 7 7 2.735 2.714 0.155 40.067 o
-6 7 9 2.702 2.850 0.223 19.778 o
-6 7 11 1.662 1.628 0.194 26.425 o
-5 0 2 89.439 92.447 2.084 0.185 o
-5 0 4 18.574 18.067 0.446 4.128 o
-5 0 6 116.847 117.104 2.627 0.116 o
-5 0 8 281.445 290.182 6.853 0.017 o
-5 0 10 102.546 102.847 2.297 0.151 o
-5 0 12 45.074 44.042 1.076 0.707 o
-5 0 14 0.707 0.572 0.039 642.496 o
-5 0 18 26.543 26.800 0.582 2.329 o
-5 0 20 101.450 102.924 2.336 0.147 o
-5 0 24 0.570 0.552 0.097 106.229 o
-5 0 26 14.266 14.054 0.417 5.014 o
-5 1 1 56.534 56.546 1.260 0.500 o
-5 1 2 251.698 255.987 5.786 0.024 o
-5 1 3 47.966 51.457 1.144 0.618 o
-5 1 4 92.364 94.298 2.094 0.182 o
-5 1 5 30.180 30.677 0.688 1.690 o
-5 1 6 4.115 4.003 0.097 86.738 o
-5 1 7 0.969 1.076 0.039 613.341 o
-5 1 8 17.354 17.194 0.407 4.898 o
-5 1 9 267.610 263.897 6.067 0.022 o
-5 1 10 26.418 25.743 0.582 2.345 o
-5 1 11 0.167 0.194 0.029 1179.880 o
-5 1 12 24.871 24.948 0.552 2.598 o
-5 1 13 9.544 8.907 0.213 17.650 o
-5 1 14 26.194 26.393 0.620 2.113 o
-5 1 15 40.426 40.039 0.882 1.013 o
-5 1 16 55.889 55.354 1.347 0.452 o
-5 1 17 16.789 16.090 0.407 4.978 o
-5 1 18 0.588 0.591 0.039 647.414 o
-5 1 19 41.772 41.978 0.998 0.819 o
-5 1 20 0.571 0.601 0.048 418.964 o
-5 1 21 1.041 0.950 0.058 285.180 o
-5 1 22 1.457 1.464 0.087 127.103 o
-5 1 24 16.182 15.644 0.582 2.698 o
-5 1 25 1.089 1.144 0.116 73.232 o
-5 1 26 3.178 2.646 0.145 44.933 o
-5 1 27 2.394 2.278 0.107 82.918 o
-5 2 1 9.507 9.499 0.223 16.315 o
-5 2 2 0.654 0.620 0.029 1114.740 o
-5 2 3 4.377 4.352 0.107 72.383 o
-5 2 4 29.076 28.370 0.640 1.937 o
-5 2 5 175.402 178.797 4.013 0.050 o
-5 2 6 80.697 81.106 1.851 0.234 o
-5 2 7 21.529 21.876 0.494 3.284 o
-5 2 8 1.948 1.958 0.068 196.611 o
-5 2 9 0.154 0.165 0.019 2644.690 o
-5 2 11 40.272 39.613 0.930 0.933 o
-5 2 12 24.860 24.037 0.543 2.686 o
-5 2 13 73.719 73.149 1.628 0.299 o
-5 2 14 0.641 0.630 0.048 417.397 o
-5 2 15 12.414 12.096 0.281 10.155 o
-5 2 16 3.359 3.451 0.097 92.059 o
-5 2 17 8.240 7.890 0.233 15.989 o
-5 2 18 4.885 5.089 0.136 46.401 o
-5 2 19 11.482 11.369 0.368 6.565 o
-5 2 21 0.199 0.165 0.048 425.954 o
-5 2 22 10.451 9.954 0.426 5.124 o
-5 2 23 7.917 7.550 0.262 13.123 o
-5 2 24 1.835 1.803 0.107 84.945 o
-5 3 1 20.051 19.889 0.456 3.863 o
-5 3 2 0.086 0.087 0.019 2660.480 o
-5 3 3 6.296 6.067 0.145 38.306 o
-5 3 4 11.787 11.486 0.281 10.359 o
-5 3 5 3.610 3.732 0.097 90.084 o
-5 3 6 4.953 4.643 0.116 60.435 o
-5 3 7 16.122 15.857 0.359 6.186 o
-5 3 8 2.241 2.210 0.068 190.925 o
-5 3 10 6.658 6.416 0.155 33.779 o
-5 3 11 0.532 0.591 0.039 649.760 o
-5 3 12 0.681 0.698 0.039 640.752 o
-5 3 14 0.829 0.892 0.058 288.375 o
-5 3 15 2.402 2.191 0.087 120.529 o
-5 3 18 13.154 12.794 0.378 6.076 o
-5 3 19 5.831 5.874 0.184 26.134 o
-5 3 20 0.284 0.300 0.048 424.814 o
-5 3 21 0.946 0.785 0.068 212.958 o
-5 3 23 3.935 3.877 0.126 56.092 o
-5 3 24 8.907 8.733 0.242 14.549 o
-5 3 25 0.855 0.824 0.087 130.139 o
-5 4 1 3.400 3.315 0.097 92.193 o
-5 4 3 23.951 23.601 0.533 2.800 o
-5 4 4 24.472 23.911 0.543 2.700 o
-5 4 5 13.936 13.327 0.310 8.303 o
-5 4 7 1.154 1.095 0.058 282.407 o
-5 4 8 25.028 24.997 0.552 2.593 o
-5 4 10 24.666 24.066 0.552 2.617 o
-5 4 11 0.340 0.368 0.048 423.919 o
-5 4 12 2.038 2.016 0.078 153.067 o
-5 4 13 14.976 15.343 0.359 6.334 o
-5 4 14 7.074 7.163 0.184 24.766 o
-5 4 15 13.407 13.744 0.330 7.573 o
-5 4 17 2.467 2.278 0.097 98.798 o
-5 4 18 17.022 17.107 0.543 3.015 o
-5 4 19 0.474 0.523 0.058 293.661 o
-5 4 21 0.218 0.194 0.068 217.476 o
-5 4 22 2.651 2.404 0.446 5.021 o
-5 4 23 9.281 9.130 0.310 9.344 o
-5 4 24 6.408 6.581 0.262 13.560 o
-5 5 1 2.828 2.791 0.116 68.848 o
-5 5 2 4.110 3.955 0.145 43.059 o
-5 5 3 3.182 3.228 0.136 50.773 o
-5 5 4 65.900 65.725 1.454 0.374 o
-5 5 5 0.190 0.378 0.068 217.355 o
-5 5 6 8.995 8.384 0.223 16.778 o
-5 5 7 2.630 2.442 0.097 97.777 o
-5 5 8 6.425 6.310 0.204 21.449 o
-5 5 9 2.908 3.034 0.107 80.199 o
-5 5 10 3.660 3.489 0.116 65.878 o
-5 5 12 11.418 12.261 0.330 7.931 o
-5 5 13 4.220 4.236 0.145 42.730 o
-5 5 14 50.876 48.356 2.413 0.163 o
-5 5 16 0.743 0.698 0.068 214.538 o
-5 5 18 1.342 1.444 0.126 62.170 o
-5 5 19 1.067 1.086 0.213 21.972 o
-5 5 20 3.046 2.627 0.184 28.629 o
-5 6 2 0.332 0.465 0.078 166.204 o
-5 6 3 20.145 20.247 1.018 0.921 o
-5 6 4 2.823 2.917 0.155 39.920 o
-5 6 5 1.428 1.241 0.204 24.053 o
-5 6 6 0.923 0.911 0.107 87.335 o
-5 6 7 1.631 1.822 0.116 72.104 o
-5 6 8 11.683 12.086 0.446 4.620 o
-5 6 9 2.458 2.559 0.126 60.080 o
-5 6 10 9.850 9.848 0.281 10.941 o
-5 6 11 0.753 0.824 0.107 87.575 o
-5 6 13 1.604 1.415 0.116 72.442 o
-5 6 15 4.224 4.284 0.320 9.578 o
-5 7 2 1.031 0.853 0.078 163.380 o
-5 7 3 0.571 0.601 0.068 215.692 o
-5 7 4 0.477 0.397 0.068 216.506 o
-5 7 7 2.529 2.520 0.145 45.630 o
-5 7 9 2.301 2.268 0.223 19.896 o
-5 7 10 2.191 2.258 0.213 21.740 o
-5 7 11 2.570 2.568 0.213 21.636 o
-4 0 2 966.977 983.513 23.814 0.001 o
-4 0 4 120.100 126.351 2.772 0.104 o
-4 0 6 45.138 46.020 1.018 0.769 o
-4 0 8 584.714 573.890 14.190 0.004 o
-4 0 10 1.393 1.657 0.078 159.161 o
-4 0 12 246.558 243.426 5.660 0.025 o
-4 0 14 1.994 1.764 0.068 197.272 o
-4 0 16 58.521 58.349 1.405 0.414 o
-4 0 18 135.782 138.088 3.150 0.081 o
-4 0 22 1.389 1.434 0.107 86.235 o
-4 0 24 1.898 1.938 0.126 61.300 o
-4 0 26 12.372 11.340 0.378 6.199 o
-4 1 1 92.788 93.590 2.074 0.185 o
-4 1 2 56.810 58.145 1.289 0.480 o
-4 1 3 1.889 1.686 0.048 360.579 o
-4 1 4 34.393 34.612 0.775 1.326 o
-4 1 5 0.057 0.058 0.010 10621.700 o
-4 1 6 179.168 180.134 4.013 0.049 o
-4 1 7 87.894 89.597 1.997 0.200 o
-4 1 8 175.419 177.624 4.042 0.049 o
-4 1 9 46.774 46.437 1.086 0.686 o
-4 1 11 1.821 1.745 0.058 263.692 o
-4 1 12 83.379 82.328 1.958 0.212 o
-4 1 13 15.796 15.566 0.349 6.514 o
-4 1 14 17.105 16.497 0.378 5.568 o
-4 1 15 0.182 0.107 0.029 1181.050 o
-4 1 16 22.474 22.235 0.504 3.140 o
-4 1 17 4.466 4.507 0.126 54.224 o
-4 1 18 1.016 1.086 0.058 284.570 o
-4 1 19 53.289 54.094 1.192 0.559 o
-4 1 20 12.350 12.222 0.291 9.616 o
-4 1 21 1.483 1.493 0.078 159.117 o
-4 1 22 23.517 22.729 0.698 1.799 o
-4 1 23 9.711 9.421 0.242 14.171 o
-4 1 24 2.893 2.791 0.126 59.172 o
-4 1 25 4.383 4.468 0.194 24.992 o
-4 1 26 2.500 2.462 0.136 52.159 o
-4 1 27 5.957 5.496 0.184 26.177 o
-4 2 1 53.455 54.220 1.212 0.544 o
-4 2 2 14.164 12.930 0.300 8.726 o
-4 2 3 79.725 79.304 1.774 0.253 o
-4 2 4 61.704 62.526 1.396 0.410 o
-4 2 5 5.809 6.145 0.165 31.613 o
-4 2 6 5.447 5.951 0.155 35.609 o
-4 2 7 6.819 7.017 0.165 30.090 o
-4 2 8 81.537 82.686 1.890 0.226 o
-4 2 9 14.062 13.657 0.310 8.256 o
-4 2 10 30.837 30.861 0.688 1.678 o
-4 2 11 7.760 7.725 0.194 22.087 o
-4 2 12 0.669 0.795 0.039 638.914 o
-4 2 13 3.237 3.237 0.087 111.724 o
-4 2 14 22.783 22.322 0.523 2.944 o
-4 2 15 35.331 34.563 0.775 1.317 o
-4 2 16 10.432 10.274 0.252 12.932 o
-4 2 17 7.534 7.318 0.204 20.596 o
-4 2 18 7.725 7.802 0.252 14.055 o
-4 2 19 6.350 6.203 0.165 31.021 o
-4 2 21 4.553 4.429 0.165 33.641 o
-4 2 22 4.012 3.935 0.223 19.364 o
-4 2 23 18.676 18.319 0.485 3.585 o
-4 2 24 2.510 2.607 0.126 59.961 o
-4 2 25 3.321 3.237 0.126 57.985 o
-4 2 26 1.440 1.260 0.107 86.299 o
-4 2 27 7.085 7.105 0.271 12.500 o
-4 3 1 4.933 5.176 0.126 52.357 o
-4 3 2 13.547 13.666 0.320 7.936 o
-4 3 3 22.296 22.952 0.523 2.950 o
-4 3 4 240.291 240.383 5.515 0.026 o
-4 3 5 28.393 28.040 0.630 2.001 o
-4 3 6 8.689 8.074 0.194 21.357 o
-4 3 7 5.245 5.292 0.136 45.540 o
-4 3 8 0.264 0.291 0.029 1172.110 o
-4 3 9 37.530 36.705 0.824 1.167 o
-4 3 10 63.717 62.788 1.405 0.401 o
-4 3 11 20.994 20.723 0.465 3.668 o
-4 3 12 12.082 12.387 0.291 9.652 o
-4 3 13 0.934 0.979 0.048 406.521 o
-4 3 14 32.383 31.365 0.688 1.651 o
-4 3 15 5.961 5.971 0.155 34.957 o
-4 3 16 4.151 3.935 0.116 63.881 o
-4 3 17 14.891 14.645 0.397 5.377 o
-4 3 18 2.626 2.481 0.087 118.293 o
-4 3 20 6.584 6.067 0.174 28.012 o
-4 3 21 1.645 1.570 0.078 157.761 o
-4 3 22 1.089 0.872 0.068 211.570 o
-4 3 23 0.444 0.330 0.058 294.513 o
-4 3 25 0.772 0.785 0.165 36.813 o
-4 4 1 0.167 0.174 0.029 1180.310 o
-4 4 2 5.311 5.147 0.136 45.551 o
-4 4 3 61.032 58.649 1.338 0.443 o
-4 4 4 0.775 1.086 0.058 287.843 o
-4 4 5 11.387 11.214 0.262 11.769 o
-4 4 6 29.189 28.496 0.640 1.934 o
-4 4 7 9.665 9.314 0.223 16.286 o
-4 4 8 4.299 4.420 0.126 54.700 o
-4 4 9 2.271 2.152 0.097 99.822 o
-4 4 10 3.079 2.917 0.087 113.915 o
-4 4 11 0.106 0.126 0.039 666.124 o
-4 4 12 0.325 0.446 0.058 294.869 o
-4 4 13 29.370 29.378 0.649 1.878 o
-4 4 14 23.198 23.184 0.562 2.597 o
-4 4 15 0.873 0.834 0.058 288.183 o
-4 4 16 2.017 1.861 0.087 123.573 o
-4 4 17 4.950 4.672 0.145 41.412 o
-4 4 18 2.145 2.249 0.107 83.636 o
-4 4 20 4.810 4.701 0.165 33.287 o
-4 4 21 0.269 0.339 0.068 217.222 o
-4 4 22 2.890 2.985 0.271 13.407 o
-4 4 23 5.560 5.069 0.504 3.888 o
-4 5 2 22.708 21.895 0.494 3.236 o
-4 5 3 2.504 2.423 0.097 98.348 o
-4 5 4 0.561 0.485 0.058 293.146 o
-4 5 6 5.697 5.437 0.174 29.029 o
-4 5 8 8.140 8.239 0.213 18.510 o
-4 5 9 0.222 0.165 0.048 425.817 o
-4 5 10 12.647 12.232 0.300 9.061 o
-4 5 11 1.399 1.357 0.097 103.938 o
-4 5 12 7.854 7.977 0.223 17.342 o
-4 5 13 0.500 0.543 0.107 87.913 o
-4 5 14 13.505 13.317 0.349 6.901 o
-4 5 15 0.229 0.252 0.078 166.511 o
-4 5 17 1.704 1.609 0.126 61.720 o
-4 5 18 12.521 12.658 0.368 6.418 o
-4 5 19 0.458 0.426 0.097 106.402 o
-4 5 22 6.014 5.971 0.252 14.700 o
-4 6 2 5.022 4.798 0.184 27.021 o
-4 6 3 13.431 13.676 0.456 4.334 o
-4 6 4 3.406 3.557 0.145 44.175 o
-4 6 5 5.864 5.728 0.446 4.933 o
-4 6 6 1.735 1.783 0.136 53.283 o
-4 6 7 10.186 9.528 0.281 10.905 o
-4 6 8 1.483 1.434 0.107 86.062 o
-4 6 11 0.472 0.504 0.078 165.878 o
-4 6 12 4.417 4.323 0.300 10.803 o
-4 6 13 20.805 20.034 0.659 2.049 o
-4 6 14 5.039 5.602 0.271 12.983 o
-4 6 16 1.093 1.086 0.194 26.565 o
-4 7 2 4.721 4.691 0.310 10.116 o
-4 7 3 5.225 5.554 0.465 4.553 o
-4 7 4 2.800 2.578 0.145 45.348 o
-4 7 6 0.881 0.998 0.107 87.334 o
-4 7 7 2.761 2.704 0.242 16.792 o
-4 7 8 2.067 1.958 0.223 19.954 o
-4 7 9 7.946 7.958 0.368 6.967 o
-4 7 11 0.935 0.872 0.165 36.772 o
-3 0 2 15.101 14.732 0.330 7.276 o
-3 0 4 85.760 90.508 2.045 0.194 o
-3 0 6 10.939 14.510 0.339 7.469 o
-3 0 8 21.690 22.932 0.523 2.970 o
-3 0 10 3.980 4.313 0.126 55.525 o
-3 0 12 149.070 146.821 3.286 0.073 o
-3 0 14 19.561 17.950 0.407 4.711 o
-3 0 16 13.659 13.967 0.330 7.524 o
-3 0 18 33.211 34.689 0.756 1.394 o
-3 0 20 9.883 9.867 0.252 13.156 o
-3 0 22 99.688 96.983 2.346 0.148 o
-3 0 24 0.015 0.562 0.174 32.925 o
-3 0 26 4.449 4.555 0.271 13.143 o
-3 1 1 328.189 326.675 7.347 0.015 o
-3 1 2 33.132 34.360 0.766 1.368 o
-3 1 3 157.865 165.605 3.673 0.060 o
-3 1 4 232.167 235.168 5.244 0.029 o
-3 1 5 207.690 217.819 4.856 0.034 o
-3 1 6 0.282 0.330 0.019 2587.980 o
-3 1 7 349.295 352.747 7.996 0.013 o
-3 1 8 9.840 8.558 0.204 18.931 o
-3 1 9 63.825 62.051 1.386 0.411 o
-3 1 10 3.035 3.722 0.097 92.990 o
-3 1 11 164.838 161.244 3.819 0.055 o
-3 1 12 54.105 54.646 1.212 0.542 o
-3 1 13 0.753 0.872 0.039 632.450 o
-3 1 14 0.241 0.339 0.029 1172.000 o
-3 1 15 0.121 0.126 0.029 1182.760 o
-3 1 16 32.548 31.607 0.708 1.577 o
-3 1 17 60.817 59.279 1.308 0.459 o
-3 1 18 39.775 39.613 0.882 1.020 o
-3 1 19 0.257 0.291 0.058 295.563 o
-3 1 20 2.065 2.035 0.097 100.804 o
-3 1 21 8.354 8.306 0.223 17.066 o
-3 1 22 2.111 2.220 0.107 83.763 o
-3 1 23 1.886 1.977 0.107 84.625 o
-3 1 24 0.208 0.242 0.068 217.452 o
-3 1 25 1.361 1.192 0.087 128.000 o
-3 1 26 18.056 17.592 0.562 2.802 o
-3 1 27 2.276 2.084 0.155 40.605 o
-3 2 1 83.763 84.974 1.880 0.225 o
-3 2 2 176.235 182.102 4.061 0.049 o
-3 2 3 298.240 306.495 6.920 0.017 o
-3 2 4 26.524 27.594 0.620 2.094 o
-3 2 5 2.782 2.607 0.068 180.036 o
-3 2 6 139.392 140.783 3.131 0.081 o
-3 2 7 167.235 170.161 3.799 0.055 o
-3 2 8 290.493 287.788 6.610 0.018 o
-3 2 9 50.216 52.640 1.163 0.593 o
-3 2 10 10.779 11.166 0.252 12.692 o
-3 2 11 23.575 23.136 0.523 2.903 o
-3 2 12 2.056 2.094 0.068 194.274 o
-3 2 13 54.221 53.754 1.289 0.491 o
-3 2 14 0.796 0.921 0.048 410.820 o
-3 2 15 29.129 28.864 0.688 1.719 o
-3 2 16 14.911 15.004 0.349 6.648 o
-3 2 17 1.026 0.940 0.058 285.466 o
-3 2 18 44.072 42.831 0.940 0.886 o
-3 2 19 0.322 0.320 0.048 424.360 o
-3 2 20 3.717 3.315 0.107 76.890 o
-3 2 21 11.508 10.972 0.281 10.475 o
-3 2 23 0.153 0.204 0.058 296.050 o
-3 2 24 3.000 2.927 0.126 58.865 o
-3 2 27 1.309 1.308 0.184 29.363 o
-3 3 1 3.576 4.148 0.107 75.870 o
-3 3 2 255.252 252.043 5.777 0.024 o
-3 3 3 3.970 8.500 0.271 12.924 o
-3 3 4 45.839 45.535 1.018 0.767 o
-3 3 5 21.673 21.721 0.494 3.281 o
-3 3 6 0.080 0.310 0.029 1181.040 o
-3 3 7 4.090 3.984 0.107 74.224 o
-3 3 8 17.559 17.824 0.417 4.680 o
-3 3 9 4.847 5.496 0.136 46.094 o
-3 3 10 20.321 20.170 0.456 3.841 o
-3 3 11 1.319 1.405 0.048 387.791 o
-3 3 12 42.869 42.618 1.105 0.687 o
-3 3 13 9.589 9.344 0.233 15.219 o
-3 3 14 71.029 70.377 1.619 0.306 o
-3 3 15 1.556 1.686 0.087 126.207 o
-3 3 17 1.155 1.105 0.068 210.061 o
-3 3 18 3.561 3.363 0.145 44.107 o
-3 3 19 10.741 11.020 0.281 10.633 o
-3 3 20 4.440 4.071 0.136 48.108 o
-3 3 21 6.459 6.649 0.213 19.654 o
-3 3 22 10.523 10.439 0.562 3.034 o
-3 3 24 11.696 11.243 0.359 6.868 o
-3 3 25 2.386 2.530 0.213 21.677 o
-3 3 26 2.486 2.394 0.204 23.745 o
-3 4 1 21.289 20.529 0.475 3.541 o
-3 4 2 10.728 10.865 0.262 11.994 o
-3 4 3 58.589 57.156 1.279 0.483 o
-3 4 4 29.091 28.825 0.678 1.760 o
-3 4 5 0.419 0.359 0.029 1157.220 o
-3 4 6 26.059 24.900 0.591 2.303 o
-3 4 7 16.572 16.254 0.378 5.627 o
-3 4 8 0.538 0.533 0.039 650.653 o
-3 4 9 0.608 0.572 0.039 646.973 o
-3 4 10 38.643 38.469 0.901 0.996 o
-3 4 11 3.858 3.896 0.126 56.236 o
-3 4 12 3.209 3.150 0.126 58.280 o
-3 4 13 32.627 32.470 0.708 1.570 o
-3 4 14 5.973 5.961 0.174 28.582 o
-3 4 16 4.107 4.255 0.165 34.099 o
-3 4 17 11.091 10.933 0.330 8.055 o
-3 4 18 4.288 4.294 0.155 37.908 o
-3 4 19 0.291 0.330 0.068 217.182 o
-3 4 20 9.798 9.218 0.426 5.170 o
-3 4 21 0.667 0.688 0.078 165.091 o
-3 4 23 7.766 7.754 0.310 9.635 o
-3 4 24 3.927 3.858 0.223 19.396 o
-3 5 1 0.192 0.204 0.039 664.642 o
-3 5 2 2.390 2.501 0.087 119.680 o
-3 5 3 4.580 4.497 0.126 53.975 o
-3 5 4 9.834 9.528 0.330 8.290 o
-3 5 5 1.092 1.153 0.068 210.391 o
-3 5 6 37.664 37.442 0.785 1.253 o
-3 5 7 4.137 4.013 0.155 38.213 o
-3 5 8 0.620 0.552 0.058 292.368 o
-3 5 9 4.530 4.313 0.145 42.256 o
-3 5 10 4.878 4.652 0.155 37.057 o
-3 5 11 1.413 1.454 0.097 103.773 o
-3 5 12 13.113 13.095 0.320 8.042 o
-3 5 13 0.350 0.397 0.087 131.424 o
-3 5 14 1.660 1.842 0.136 53.323 o
-3 5 16 18.812 18.057 0.523 3.145 o
-3 5 17 1.132 0.921 0.204 24.109 o
-3 5 18 1.285 1.241 0.116 72.963 o
-3 5 20 2.557 2.433 0.136 52.109 o
-3 5 22 1.842 1.735 0.184 29.191 o
-3 6 1 8.606 9.072 0.262 12.775 o
-3 6 2 1.895 1.958 0.116 71.570 o
-3 6 3 0.931 1.231 0.107 87.120 o
-3 6 4 1.294 1.415 0.087 127.834 o
-3 6 5 0.779 0.698 0.068 214.323 o
-3 6 6 0.957 0.969 0.097 105.350 o
-3 6 7 0.771 0.795 0.097 105.808 o
-3 6 9 4.119 4.497 0.184 27.646 o
-3 6 10 3.219 3.325 0.165 35.138 o
-3 6 11 0.363 0.368 0.097 106.500 o
-3 6 12 3.944 4.468 0.174 30.706 o
-3 6 13 1.855 2.016 0.136 53.072 o
-3 6 17 7.557 7.386 0.213 18.991 o
-3 7 1 0.887 0.814 0.145 47.204 o
-3 7 2 5.858 5.573 0.397 6.178 o
-3 7 3 0.240 0.291 0.097 106.599 o
-3 7 4 4.925 5.011 0.184 27.015 o
-3 7 5 1.828 2.045 0.184 29.152 o
-3 7 6 0.959 0.795 0.078 163.817 o
-3 7 9 0.297 0.378 0.087 131.488 o
-3 7 10 0.138 0.271 0.087 131.649 o
-3 7 11 0.447 0.552 0.087 131.202 o
-3 7 12 6.758 6.785 0.310 9.812 o
-3 7 13 4.466 4.672 0.233 17.652 o
-3 8 2 4.117 4.032 0.223 19.324 o
-3 8 3 1.040 0.989 0.165 36.735 o
-3 8 4 0.444 0.514 0.145 47.357 o
-2 0 2 641.860 633.247 14.044 0.004 o
-2 0 6 175.767 178.254 3.984 0.050 o
-2 0 8 467.749 465.277 10.836 0.007 o
-2 0 10 199.754 186.570 4.342 0.042 o
-2 0 12 14.828 16.458 0.378 5.774 o
-2 0 14 56.056 56.323 1.241 0.514 o
-2 0 16 11.848 11.999 0.291 9.736 o
-2 0 18 5.256 5.021 0.155 36.404 o
-2 0 20 17.377 17.311 0.397 5.086 o
-2 0 22 4.311 4.623 0.194 24.989 o
-2 1 1 183.397 192.938 4.323 0.043 o
-2 1 2 558.566 566.883 12.746 0.005 o
-2 1 3 21.164 21.081 0.465 3.651 o
-2 1 4 351.733 368.837 8.287 0.012 o
-2 1 5 21.856 21.304 0.475 3.497 o
-2 1 6 6.909 5.689 0.136 41.922 o
-2 1 7 36.293 34.350 0.775 1.308 o
-2 1 8 289.134 294.311 6.639 0.018 o
-2 1 9 22.197 22.884 0.514 3.044 o
-2 1 10 31.974 32.857 0.737 1.478 o
-2 1 11 85.539 82.977 1.861 0.228 o
-2 1 12 9.027 9.334 0.223 16.559 o
-2 1 13 33.650 31.869 0.717 1.527 o
-2 1 14 19.523 18.600 0.436 4.207 o
-2 1 15 11.208 11.272 0.262 11.809 o
-2 1 16 1.015 0.998 0.048 404.003 o
-2 1 17 30.496 30.909 0.756 1.445 o
-2 1 18 8.782 8.442 0.213 18.146 o
-2 1 19 1.809 1.871 0.097 101.973 o
-2 1 20 1.043 0.960 0.068 211.588 o
-2 1 21 58.670 58.349 1.299 0.470 o
-2 1 22 11.702 11.379 0.281 10.389 o
-2 1 24 2.618 2.317 0.107 82.219 o
-2 1 25 0.550 0.601 0.068 215.790 o
-2 1 26 1.626 1.415 0.126 61.907 o
-2 2 1 150.583 156.746 3.509 0.065 o
-2 2 2 473.652 492.639 11.301 0.006 o
-2 2 3 9.900 9.838 0.233 15.005 o
-2 2 4 24.218 23.213 0.514 2.965 o
-2 2 5 3.074 3.431 0.087 112.187 o
-2 2 6 70.935 72.606 1.609 0.308 o
-2 2 7 35.473 34.282 0.766 1.343 o
-2 2 8 30.689 28.903 0.649 1.858 o
-2 2 9 17.384 16.894 0.397 5.102 o
-2 2 10 89.990 91.303 2.026 0.194 o
-2 2 11 14.106 13.598 0.310 8.253 o
-2 2 12 111.580 108.904 2.559 0.123 o
-2 2 13 31.217 31.113 0.698 1.634 o
-2 2 14 13.572 13.434 0.310 8.354 o
-2 2 15 2.285 2.307 0.087 120.876 o
-2 2 16 38.222 37.636 1.076 0.745 o
-2 2 17 56.733 55.703 1.299 0.477 o
-2 2 18 28.657 28.321 0.717 1.616 o
-2 2 19 8.286 7.773 0.204 20.051 o
-2 2 20 7.074 7.114 0.204 20.900 o
-2 2 21 0.534 0.591 0.068 215.881 o
-2 2 22 9.908 9.789 0.252 13.160 o
-2 2 23 10.932 10.613 0.407 5.539 o
-2 2 24 0.558 0.426 0.116 73.907 o
-2 2 26 8.286 8.035 0.281 11.422 o
-2 3 1 140.795 145.649 3.257 0.076 o
-2 3 2 66.164 67.847 1.522 0.346 o
-2 3 3 1.450 1.502 0.068 205.265 o
-2 3 4 9.288 9.373 0.223 16.438 o
-2 3 5 6.319 6.920 0.174 27.871 o
-2 3 6 364.692 369.719 8.684 0.011 o
-2 3 7 82.156 81.930 1.832 0.237 o
-2 3 8 27.248 25.743 0.601 2.207 o
-2 3 9 8.084 8.122 0.194 21.743 o
-2 3 10 22.567 22.797 0.514 3.032 o
-2 3 11 20.320 20.093 0.465 3.716 o
-2 3 12 86.110 86.573 1.919 0.216 o
-2 3 13 3.799 3.858 0.107 75.576 o
-2 3 14 4.976 4.933 0.136 46.376 o
-2 3 15 11.550 11.602 0.271 11.009 o
-2 3 16 33.758 33.507 0.737 1.453 o
-2 3 17 4.477 4.507 0.145 42.197 o
-2 3 18 9.352 9.043 0.223 16.481 o
-2 3 19 1.513 1.493 0.087 126.809 o
-2 3 20 16.173 15.411 0.397 5.252 o
-2 3 22 11.738 11.292 0.320 8.369 o
-2 3 23 1.259 1.202 0.204 24.078 o
-2 3 24 1.704 1.871 0.213 21.851 o
-2 4 1 17.005 16.138 0.368 5.828 o
-2 4 2 62.254 59.880 1.347 0.435 o
-2 4 3 33.446 32.673 0.766 1.374 o
-2 4 4 0.369 0.475 0.029 1156.490 o
-2 4 5 35.099 34.903 0.785 1.292 o
-2 4 6 3.745 3.858 0.107 75.779 o
-2 4 7 37.895 36.812 0.853 1.101 o
-2 4 8 0.565 0.591 0.039 648.372 o
-2 4 9 0.269 0.291 0.029 1171.740 o
-2 4 10 24.119 24.328 0.630 2.119 o
-2 4 11 18.132 18.028 0.446 4.153 o
-2 4 12 0.137 0.174 0.048 426.256 o
-2 4 13 11.048 10.894 0.271 11.215 o
-2 4 14 8.847 9.392 0.252 13.526 o
-2 4 15 10.836 10.914 0.300 9.490 o
-2 4 16 15.514 14.820 0.630 2.346 o
-2 4 17 11.258 11.185 0.310 8.902 o
-2 4 18 1.108 1.202 0.126 62.470 o
-2 4 20 2.705 2.704 0.145 45.379 o
-2 4 21 2.361 2.462 0.116 70.225 o
-2 4 23 3.380 3.383 0.233 18.029 o
-2 4 24 6.406 6.901 0.281 11.845 o
-2 5 1 0.340 0.300 0.039 660.751 o
-2 5 2 16.268 15.440 0.407 5.038 o
-2 5 3 3.370 3.131 0.107 78.466 o
-2 5 4 3.497 3.577 0.116 66.197 o
-2 5 5 4.373 4.061 0.136 48.231 o
-2 5 7 0.271 0.291 0.058 295.505 o
-2 5 8 1.166 1.144 0.087 128.770 o
-2 5 9 0.907 1.037 0.058 286.439 o
-2 5 10 3.414 3.421 0.116 66.623 o
-2 5 11 0.560 0.591 0.058 292.720 o
-2 5 12 0.855 1.027 0.068 212.745 o
-2 5 13 5.883 5.699 0.204 21.869 o
-2 5 14 2.622 2.433 0.174 32.035 o
-2 5 16 13.803 13.356 0.349 6.866 o
-2 5 17 0.642 0.640 0.107 87.766 o
-2 5 19 1.539 1.367 0.116 72.564 o
-2 5 20 5.524 5.195 0.281 12.103 o
-2 5 21 1.434 1.299 0.194 26.497 o
-2 5 22 2.001 2.132 0.204 23.881 o
-2 6 1 0.599 0.582 0.068 215.606 o
-2 6 3 16.886 16.768 0.456 4.101 o
-2 6 5 9.461 9.663 0.262 12.485 o
-2 6 7 3.787 3.751 0.145 43.599 o
-2 6 8 1.994 2.181 0.116 71.201 o
-2 6 9 3.455 3.199 0.136 50.397 o
-2 6 11 6.484 6.533 0.194 23.273 o
-2 6 12 0.447 0.388 0.087 131.314 o
-2 6 14 1.692 1.706 0.242 16.963 o
-2 6 16 0.710 0.572 0.184 29.506 o
-2 7 1 6.447 6.823 0.242 15.581 o
-2 7 4 1.478 1.812 0.126 61.855 o
-2 7 6 3.477 3.373 0.165 34.937 o
-2 7 7 5.035 5.176 0.165 32.856 o
-2 7 8 3.873 3.877 0.165 34.444 o
-2 7 9 0.406 0.446 0.078 166.081 o
-2 7 10 1.427 1.560 0.126 62.034 o
-2 7 11 3.344 3.412 0.223 19.589 o
-2 7 12 0.979 1.047 0.194 26.582 o
-2 8 2 1.958 2.191 0.204 23.884 o
-2 8 4 2.604 2.811 0.213 21.603 o
-2 8 6 0.564 0.688 0.145 47.314 o
-1 0 4 877.583 882.072 22.390 0.002 o
-1 0 6 206.459 206.391 4.565 0.038 o
-1 0 8 502.294 491.902 11.621 0.006 o
-1 0 10 4.018 3.160 0.116 65.348 o
-1 0 12 112.726 108.430 2.404 0.136 o
-1 0 14 50.040 48.530 1.124 0.633 o
-1 0 16 22.517 22.467 0.533 2.864 o
-1 0 18 61.088 60.937 1.328 0.446 o
-1 0 20 43.013 43.597 1.812 0.284 o
-1 0 22 0.737 0.630 0.097 105.975 o
-1 0 24 22.692 21.362 0.514 3.054 o
-1 0 26 6.122 5.651 0.271 12.805 o
-1 1 2 139.749 159.441 3.819 0.058 o
-1 1 3 339.036 356.741 7.958 0.013 o
-1 1 4 245.666 255.076 5.670 0.025 o
-1 1 5 1.225 1.027 0.029 982.500 o
-1 1 6 0.526 0.504 0.019 2440.390 o
-1 1 7 429.996 423.541 9.654 0.009 o
-1 1 8 95.077 95.829 2.132 0.175 o
-1 1 9 175.123 175.307 3.974 0.051 o
-1 1 11 77.457 73.740 1.638 0.292 o
-1 1 12 86.243 85.119 1.900 0.219 o
-1 1 13 5.540 5.563 0.136 44.720 o
-1 1 14 45.199 45.428 1.008 0.782 o
-1 1 15 10.250 10.468 0.242 13.813 o
-1 1 16 6.470 6.387 0.165 30.798 o
-1 1 17 1.754 1.900 0.087 124.799 o
-1 1 18 15.395 15.072 0.349 6.589 o
-1 1 19 10.033 9.983 0.330 8.240 o
-1 1 20 2.916 2.830 0.116 68.599 o
-1 1 21 13.792 13.957 0.330 7.507 o
-1 1 22 12.705 12.067 0.291 9.561 o
-1 1 23 1.691 1.657 0.136 53.374 o
-1 1 24 0.532 0.620 0.078 165.586 o
-1 1 25 1.273 1.241 0.281 12.654 o
-1 2 1 142.994 144.767 3.334 0.073 o
-1 2 2 8.068 8.413 0.194 21.657 o
-1 2 3 170.584 174.358 4.129 0.048 o
-1 2 4 227.212 237.107 5.292 0.029 o
-1 2 5 493.826 499.859 11.660 0.006 o
-1 2 6 16.462 18.929 0.426 4.541 o
-1 2 7 1.426 1.396 0.048 384.142 o
-1 2 8 47.270 46.456 1.037 0.736 o
-1 2 9 8.001 7.890 0.184 23.775 o
-1 2 10 189.391 187.452 4.216 0.045 o
-1 2 11 72.026 72.790 1.619 0.304 o
-1 2 12 34.522 33.710 0.756 1.384 o
-1 2 13 13.417 12.687 0.300 8.883 o
-1 2 14 1.085 1.212 0.058 282.586 o
-1 2 15 12.878 12.629 0.291 9.471 o
-1 2 18 5.794 5.379 0.281 12.053 o
-1 2 19 4.279 4.265 0.233 17.745 o
-1 2 20 49.841 49.654 1.105 0.650 o
-1 2 21 1.012 0.979 0.087 129.508 o
-1 2 22 20.025 19.288 0.504 3.288 o
-1 2 25 0.474 0.552 0.155 41.622 o
-1 2 26 2.063 2.064 0.194 26.287 o
-1 3 1 0.056 0.145 0.019 2660.590 o
-1 3 2 31.519 32.780 0.746 1.454 o
-1 3 3 14.094 13.589 0.310 8.256 o
-1 3 4 57.123 56.769 1.308 0.470 o
-1 3 5 0.719 0.824 0.039 635.615 o
-1 3 6 107.531 107.557 2.481 0.131 o
-1 3 7 1.470 1.764 0.068 203.610 o
-1 3 8 6.588 6.552 0.165 30.586 o
-1 3 9 1.124 1.221 0.048 397.383 o
-1 3 10 32.200 31.966 0.737 1.481 o
-1 3 11 42.991 42.531 0.950 0.879 o
-1 3 12 0.215 0.213 0.029 1177.170 o
-1 3 13 1.168 1.086 0.048 398.128 o
-1 3 14 27.284 27.934 0.611 2.127 o
-1 3 15 6.228 6.387 0.165 31.053 o
-1 3 16 118.352 119.440 2.704 0.110 o
-1 3 17 11.968 12.028 0.291 9.710 o
-1 3 18 1.279 1.095 0.068 208.994 o
-1 3 19 4.023 4.061 0.136 48.823 o
-1 3 21 13.458 12.988 0.523 3.376 o
-1 3 22 5.356 5.205 0.310 10.038 o
-1 3 23 2.242 2.239 0.136 52.572 o
-1 3 24 13.940 13.734 0.378 5.970 o
-1 3 25 0.942 0.892 0.155 41.486 o
-1 4 1 5.956 6.067 0.155 34.902 o
-1 4 2 9.858 9.799 0.233 15.029 o
-1 4 4 0.386 0.436 0.029 1156.640 o
-1 4 5 60.534 60.888 1.444 0.391 o
-1 4 6 82.658 81.378 1.832 0.237 o
-1 4 7 29.423 28.525 0.659 1.840 o
-1 4 8 8.238 7.958 0.194 21.695 o
-1 4 9 1.337 1.308 0.068 207.422 o
-1 4 11 2.904 2.927 0.107 80.386 o
-1 4 12 21.158 21.508 0.485 3.413 o
-1 4 14 3.434 3.596 0.145 44.120 o
-1 4 15 39.118 39.875 0.882 1.023 o
-1 4 16 4.348 4.420 0.145 42.432 o
-1 4 17 10.631 10.264 0.262 12.100 o
-1 4 19 0.678 0.630 0.068 215.088 o
-1 4 20 10.453 10.012 0.330 8.189 o
-1 4 21 2.502 2.888 0.252 15.563 o
-1 5 1 9.998 9.799 0.242 14.011 o
-1 5 2 73.695 71.114 1.628 0.300 o
-1 5 3 1.169 1.134 0.068 209.812 o
-1 5 4 4.816 5.030 0.165 33.130 o
-1 5 5 0.196 0.184 0.039 664.734 o
-1 5 6 33.238 32.741 2.753 0.130 o
-1 5 7 0.955 1.018 0.097 105.308 o
-1 5 8 0.929 0.843 0.068 212.877 o
-1 5 9 6.994 6.891 0.184 24.927 o
-1 5 10 14.749 15.004 0.436 4.580 o
-1 5 11 1.605 1.570 0.107 85.692 o
-1 5 12 14.857 14.636 0.397 5.379 o
-1 5 14 1.904 2.016 0.145 46.346 o
-1 5 15 1.209 1.095 0.097 104.710 o
-1 5 17 0.483 0.378 0.078 165.992 o
-1 6 1 2.361 2.132 0.097 99.507 o
-1 6 2 6.903 7.279 0.213 19.317 o
-1 6 4 1.729 1.696 0.281 12.626 o
-1 6 5 0.787 0.863 0.087 130.255 o
-1 6 6 9.443 9.964 0.262 12.450 o
-1 6 7 9.421 9.392 0.252 13.361 o
-1 6 8 2.772 2.646 0.116 69.143 o
-1 6 10 0.526 0.552 0.068 216.003 o
-1 6 13 3.631 3.703 0.145 43.820 o
-1 6 15 5.455 5.719 0.184 26.442 o
-1 6 16 0.658 0.698 0.184 29.505 o
-1 6 17 2.339 2.006 0.233 18.305 o
-1 7 1 1.497 1.444 0.126 62.022 o
-1 7 3 3.473 3.295 0.155 39.209 o
-1 7 4 3.617 3.451 0.155 39.004 o
-1 7 6 4.272 4.371 0.155 37.883 o
-1 7 8 0.522 0.475 0.078 165.794 o
-1 7 11 4.761 4.807 0.291 11.453 o
-1 8 2 1.101 0.911 0.165 36.730 o
-1 8 4 1.172 1.027 0.165 36.697 o
-1 8 5 0.736 0.533 0.155 41.578 o
0 0 2 137.504 148.808 3.266 0.076 o
0 0 4 64.998 72.383 1.609 0.315 o
0 0 6 1044.650 1023.130 23.795 0.001 o
0 0 8 292.581 295.804 6.697 0.018 o
0 0 10 401.561 398.786 9.450 0.009 o
0 0 12 13.947 13.637 0.320 7.879 o
0 0 14 50.750 52.300 1.163 0.592 o
0 0 16 10.882 11.825 0.291 9.939 o
0 0 18 0.526 2.598 0.145 46.993 o
0 0 20 10.384 12.397 0.330 8.052 o
0 0 22 16.521 16.603 1.105 0.798 o
0 0 24 1.015 1.706 0.223 20.088 o
0 1 1 456.194 472.730 10.477 0.007 o
0 1 2 92.468 94.618 2.123 0.178 o
0 1 3 19.018 18.561 0.417 4.557 o
0 1 4 1555.070 1537.810 39.933 0.001 o
0 1 5 64.315 73.091 1.619 0.312 o
0 1 6 298.491 314.530 7.143 0.016 o
0 1 7 39.106 36.744 0.814 1.174 o
0 1 8 26.561 27.226 0.611 2.150 o
0 1 9 40.204 37.413 0.863 1.061 o
0 1 10 146.965 144.670 3.228 0.076 o
0 1 11 205.471 202.708 4.623 0.037 o
0 1 12 0.249 0.184 0.029 1176.170 o
0 1 13 26.802 25.637 0.572 2.400 o
0 1 14 8.890 8.878 0.204 19.390 o
0 1 15 3.668 3.480 0.097 90.432 o
0 1 16 3.667 3.596 0.107 76.558 o
0 1 17 19.770 20.005 0.494 3.391 o
0 1 18 25.999 26.247 0.591 2.288 o
0 1 19 50.865 52.523 1.153 0.599 o
0 1 20 3.373 3.441 0.213 21.341 o
0 1 21 16.442 16.119 0.378 5.645 o
0 1 22 4.325 4.177 0.184 27.620 o
0 1 23 10.793 10.671 0.281 10.659 o
0 1 25 0.988 0.824 0.184 29.457 o
0 2 0 12.591 13.763 0.310 8.487 o
0 2 1 75.252 77.540 1.706 0.274 o
0 2 2 126.007 135.937 3.014 0.089 o
0 2 4 185.431 191.164 4.255 0.044 o
0 2 5 48.190 50.294 1.115 0.645 o
0 2 6 5.558 5.321 0.126 50.677 o
0 2 7 137.005 140.172 3.160 0.080 o
0 2 8 0.462 0.465 0.029 1147.640 o
0 2 9 58.381 54.598 1.221 0.523 o
0 2 10 28.327 25.482 0.572 2.361 o
0 2 11 1.372 1.308 0.048 387.652 o
0 2 12 16.222 16.894 0.388 5.404 o
0 2 13 9.983 9.867 0.242 14.005 o
0 2 14 59.327 59.037 1.299 0.468 o
0 2 15 97.975 97.273 2.200 0.165 o
0 2 16 2.850 2.627 0.107 81.038 o
0 2 18 12.178 11.922 0.378 6.191 o
0 2 19 12.650 12.232 0.698 1.976 o
0 2 20 26.205 26.654 0.659 1.910 o
0 2 21 13.419 13.589 0.378 6.020 o
0 2 22 0.461 0.368 0.107 87.993 o
0 2 23 4.125 4.129 0.184 27.745 o
0 2 24 7.465 7.454 0.223 17.606 o
0 2 25 8.451 8.268 0.281 11.370 o
0 3 1 50.495 51.816 1.153 0.601 o
0 3 2 112.467 118.074 2.617 0.117 o
0 3 3 83.955 88.521 1.958 0.210 o
0 3 4 56.038 58.029 1.299 0.476 o
0 3 5 16.041 15.934 0.359 6.191 o
0 3 6 0.155 0.310 0.029 1177.790 o
0 3 7 0.939 1.037 0.048 405.593 o
0 3 8 99.212 97.981 2.191 0.165 o
0 3 9 42.464 40.398 0.911 0.948 o
0 3 10 1.437 1.260 0.058 276.212 o
0 3 11 1.349 1.425 0.058 276.320 o
0 3 12 6.967 9.101 0.388 6.345 o
0 3 14 28.800 28.515 0.649 1.895 o
0 3 15 0.228 0.359 0.058 295.539 o
0 3 16 1.148 1.173 0.087 128.783 o
0 3 17 5.335 5.059 0.165 32.625 o
0 3 18 4.915 5.224 0.174 29.733 o
0 3 19 0.374 0.349 0.078 166.232 o
0 3 20 12.706 13.056 0.339 7.346 o
0 3 21 2.585 2.830 0.252 15.557 o
0 3 22 5.023 4.284 0.339 8.491 o
0 3 24 7.376 7.357 0.281 11.646 o
0 3 25 2.391 2.249 0.194 26.177 o
0 4 0 2.967 2.908 0.097 95.247 o
0 4 1 12.348 12.494 0.300 9.091 o
0 4 2 57.922 57.496 1.289 0.478 o
0 4 3 3.902 3.945 0.107 75.020 o
0 4 4 12.308 12.338 0.320 8.214 o
0 4 5 77.984 74.962 1.696 0.275 o
0 4 6 6.202 6.426 0.165 31.060 o
0 4 7 0.189 0.107 0.039 665.356 o
0 4 8 5.561 5.738 0.155 35.601 o
0 4 9 6.561 6.067 0.174 28.032 o
0 4 10 16.905 16.758 0.465 3.956 o
0 4 11 0.652 0.717 0.058 291.297 o
0 4 12 24.968 25.249 0.572 2.453 o
0 4 13 6.223 6.523 0.194 23.433 o
0 4 15 26.824 27.439 0.649 1.940 o
0 4 16 17.244 17.737 0.407 4.887 o
0 4 17 0.829 0.824 0.078 164.283 o
0 4 18 2.632 2.462 0.107 81.963 o
0 4 19 3.633 3.703 0.174 31.153 o
0 4 20 4.229 4.158 0.174 30.618 o
0 4 23 0.964 1.027 0.165 36.748 o
0 5 2 7.693 7.492 0.184 24.168 o
0 5 3 1.152 1.270 0.058 281.049 o
0 5 4 24.534 23.136 0.649 2.017 o
0 5 5 3.179 3.111 0.145 44.682 o
0 5 6 75.388 75.252 5.321 0.035 o
0 5 8 6.642 6.455 0.349 7.869 o
0 5 11 3.862 3.993 0.155 38.503 o
0 5 12 8.528 8.520 0.242 14.705 o
0 5 13 0.999 0.940 0.097 105.298 o
0 5 14 14.343 14.616 0.397 5.418 o
0 5 15 1.768 1.609 0.116 72.058 o
0 5 16 24.931 24.939 0.582 2.392 o
0 5 17 0.363 0.330 0.087 131.446 o
0 5 18 1.017 0.969 0.107 87.180 o
0 5 19 1.906 1.900 0.107 84.669 o
0 6 0 17.716 19.288 0.611 2.409 o
0 6 1 6.336 6.445 0.184 25.575 o
0 6 2 10.006 11.214 0.417 5.338 o
0 6 3 3.957 4.614 0.184 27.704 o
0 6 4 0.760 0.746 0.194 26.622 o
0 6 5 29.892 28.884 0.659 1.829 o
0 6 8 0.801 0.872 0.107 87.498 o
0 6 9 0.477 0.446 0.068 216.415 o
0 6 10 12.241 12.649 0.310 8.633 o
0 6 11 1.544 1.289 0.097 103.644 o
0 6 12 4.996 5.467 0.204 22.333 o
0 6 13 4.881 5.098 0.397 6.222 o
0 6 14 0.305 0.320 0.078 166.367 o
0 6 15 1.789 1.842 0.116 71.841 o
0 6 16 2.082 2.287 0.165 36.119 o
0 7 1 9.021 9.479 0.349 7.554 o
0 7 3 0.803 0.785 0.097 105.766 o
0 7 5 0.999 1.047 0.087 129.447 o
0 7 8 1.179 1.173 0.087 128.677 o
0 7 9 7.374 7.512 0.242 15.217 o
0 7 10 2.006 2.016 0.145 46.271 o
0 7 11 0.820 0.708 0.107 87.566 o
0 8 4 0.307 0.368 0.087 131.483 o
0 8 6 0.452 0.446 0.078 165.986 o
1 0 0 375.080 383.337 10.720 0.008 o
1 0 2 10.910 10.797 0.310 8.984 o
1 0 4 1813.560 1640.460 18.212 0.001 o
1 0 6 198.918 228.597 5.059 0.032 o
1 0 8 72.294 72.286 1.696 0.282 o
1 0 10 685.060 666.541 17.078 0.003 o
1 0 12 7.178 6.164 0.194 22.958 o
1 0 14 85.464 85.071 2.229 0.169 o
1 0 16 12.287 12.804 0.310 8.613 o
1 0 18 88.295 91.099 2.278 0.161 o
1 0 20 92.002 94.531 2.171 0.172 o
1 0 22 4.077 4.236 0.155 38.160 o
1 1 1 39.803 39.545 0.872 1.038 o
1 1 2 424.933 436.122 10.148 0.008 o
1 1 3 799.999 818.654 18.425 0.002 o
1 1 4 64.578 68.846 1.522 0.348 o
1 1 5 122.770 117.162 2.598 0.116 o
1 1 6 210.118 216.801 4.837 0.034 o
1 1 7 17.043 18.522 0.417 4.691 o
1 1 8 96.610 92.922 2.074 0.183 o
1 1 9 187.397 189.497 4.323 0.043 o
1 1 10 70.363 73.420 1.638 0.300 o
1 1 12 1.764 1.938 0.068 199.085 o
1 1 13 7.382 6.804 0.165 29.595 o
1 1 14 126.464 127.698 2.869 0.097 o
1 1 15 4.312 4.245 0.126 54.867 o
1 1 16 23.616 23.504 0.543 2.732 o
1 1 17 3.691 3.780 0.116 65.395 o
1 1 18 4.106 4.197 0.155 38.151 o
1 1 19 11.769 11.902 0.291 9.761 o
1 1 20 5.270 5.331 0.233 17.357 o
1 1 21 9.683 10.410 0.426 5.149 o
1 1 22 3.161 3.053 0.155 39.589 o
1 1 23 8.015 8.336 0.252 13.906 o
1 1 24 14.963 15.217 0.465 4.077 o
1 2 0 321.784 336.571 7.599 0.014 o
1 2 1 274.574 276.623 6.193 0.021 o
1 2 2 0.076 0.078 0.010 10583.300 o
1 2 3 358.459 370.213 8.432 0.011 o
1 2 4 19.862 19.937 0.446 4.006 o
1 2 5 86.576 91.468 2.026 0.196 o
1 2 6 162.746 164.403 3.703 0.058 o
1 2 7 81.797 82.095 1.822 0.239 o
1 2 8 5.117 5.767 0.145 40.359 o
1 2 9 7.370 7.221 0.174 26.798 o
1 2 10 4.936 4.536 0.116 60.652 o
1 2 11 8.390 8.558 0.204 19.769 o
1 2 12 14.800 14.568 0.330 7.328 o
1 2 13 27.103 27.168 0.649 1.937 o
1 2 14 6.785 6.707 0.194 23.034 o
1 2 15 0.895 0.834 0.058 287.915 o
1 2 16 5.556 5.748 0.165 32.069 o
1 2 17 4.008 4.207 0.155 38.246 o
1 2 19 5.862 6.319 0.378 6.791 o
1 2 20 0.407 0.388 0.097 106.460 o
1 2 21 2.581 2.384 0.204 23.723 o
1 2 22 11.968 11.660 0.320 8.311 o
1 2 23 0.452 0.494 0.087 131.236 o
1 2 24 10.406 10.410 0.359 7.025 o
1 3 0 18.786 19.298 0.436 4.230 o
1 3 1 31.618 31.578 0.708 1.590 o
1 3 2 47.432 47.163 1.056 0.712 o
1 3 3 0.070 0.068 0.019 2663.000 o
1 3 4 8.146 8.132 0.194 21.699 o
1 3 5 22.380 21.924 0.504 3.150 o
1 3 6 44.324 43.916 0.979 0.827 o
1 3 7 18.582 19.143 0.436 4.247 o
1 3 8 25.948 25.181 0.572 2.428 o
1 3 9 10.570 9.906 0.242 13.799 o
1 3 10 0.706 0.737 0.039 638.528 o
1 3 11 15.913 15.527 0.417 4.864 o
1 3 12 34.643 34.806 0.872 1.093 o
1 3 13 29.276 29.397 0.785 1.377 o
1 3 14 14.738 15.169 0.388 5.597 o
1 3 15 0.862 0.979 0.087 129.923 o
1 3 17 1.661 1.686 0.116 72.162 o
1 3 18 37.715 38.101 1.056 0.770 o
1 3 19 15.345 15.256 0.436 4.541 o
1 3 20 0.239 0.281 0.078 166.482 o
1 3 21 1.267 1.212 0.242 17.013 o
1 3 23 2.408 2.549 0.242 16.847 o
1 3 24 4.249 4.333 0.233 17.744 o
1 4 0 17.406 17.892 0.407 4.870 o
1 4 1 0.431 0.562 0.029 1145.790 o
1 4 2 56.072 55.392 1.241 0.515 o
1 4 3 14.649 14.393 0.339 7.026 o
1 4 4 2.967 2.985 0.087 114.442 o
1 4 5 51.790 51.864 1.163 0.589 o
1 4 6 8.218 8.084 0.194 21.667 o
1 4 7 1.283 1.308 0.058 278.518 o
1 4 8 60.212 58.310 1.396 0.416 o
1 4 9 12.401 12.494 0.320 8.189 o
1 4 11 1.409 1.405 0.078 159.866 o
1 4 12 1.575 1.512 0.097 103.247 o
1 4 13 8.270 8.607 0.242 14.773 o
1 4 14 1.841 1.793 0.097 101.995 o
1 4 15 18.833 19.366 0.446 4.079 o
1 4 16 13.286 13.104 0.359 6.623 o
1 4 17 4.337 4.459 0.155 37.766 o
1 4 18 0.864 0.853 0.087 130.080 o
1 4 19 4.375 4.536 0.184 27.489 o
1 4 20 2.623 2.656 0.126 59.740 o
1 4 22 7.960 7.812 0.291 10.815 o
1 5 0 4.372 4.245 0.126 54.732 o
1 5 1 0.086 0.097 0.029 1184.060 o
1 5 2 12.250 11.999 0.300 9.152 o
1 5 3 0.554 0.630 0.039 648.058 o
1 5 4 93.099 95.306 4.236 0.053 o
1 5 5 4.190 4.090 0.533 3.499 o
1 5 7 0.963 0.969 0.107 87.250 o
1 5 8 8.298 8.394 0.242 14.798 o
1 5 9 0.765 0.834 0.087 130.341 o
1 5 10 2.258 2.210 0.126 60.638 o
1 5 11 0.967 0.843 0.087 129.824 o
1 5 12 22.890 23.533 0.543 2.754 o
1 5 13 0.381 0.572 0.087 131.280 o
1 5 14 20.227 19.753 0.485 3.490 o
1 5 16 7.214 7.017 0.213 19.235 o
1 6 0 6.544 6.882 0.184 25.265 o
1 6 1 6.011 6.455 0.426 5.366 o
1 6 2 2.960 2.976 0.155 39.788 o
1 6 3 0.621 0.582 0.184 29.514 o
1 6 4 5.389 5.612 0.330 8.911 o
1 6 5 12.065 12.513 0.426 4.980 o
1 6 6 3.977 4.090 0.184 27.836 o
1 6 8 12.941 13.182 0.330 7.673 o
1 6 9 12.294 12.455 0.339 7.430 o
1 6 10 6.685 6.668 0.300 10.432 o
1 6 13 2.253 2.326 0.194 26.204 o
1 6 14 0.637 0.640 0.087 130.814 o
1 6 15 12.697 12.445 0.417 5.157 o
1 6 16 1.272 1.115 0.300 11.079 o
1 7 0 2.243 2.627 0.252 15.604 o
1 7 1 1.735 1.987 0.242 16.947 o
1 7 2 0.839 0.630 0.184 29.489 o
1 7 3 0.532 0.630 0.194 26.645 o
1 7 4 1.754 1.667 0.136 53.317 o
1 7 5 4.034 3.751 0.136 49.061 o
1 7 9 4.740 4.681 0.184 27.230 o
1 7 10 0.618 0.630 0.174 32.877 o
1 7 11 2.884 2.724 0.145 45.193 o
1 8 0 4.709 4.681 0.165 33.388 o
2 0 0 19.242 25.297 0.582 2.525 o
2 0 4 4.827 8.316 0.194 23.729 o
2 0 6 3.400 3.906 0.107 76.970 o
2 0 8 97.172 104.368 2.375 0.145 o
2 0 10 31.288 34.050 0.746 1.449 o
2 0 12 76.157 77.171 1.686 0.278 o
2 0 14 99.503 99.939 2.200 0.163 o
2 0 16 35.532 36.298 0.766 1.331 o
2 0 18 5.358 5.030 0.281 12.137 o
2 0 20 18.547 19.705 0.708 1.832 o
2 0 22 15.045 15.236 0.456 4.226 o
2 1 0 373.850 375.941 8.975 0.010 o
2 1 1 67.591 70.329 1.551 0.332 o
2 1 2 3.179 2.762 0.068 172.681 o
2 1 3 462.435 477.373 10.972 0.007 o
2 1 4 9.120 9.489 0.213 17.718 o
2 1 5 15.389 20.480 0.456 4.083 o
2 1 6 421.788 422.843 9.722 0.009 o
2 1 7 30.312 29.969 0.669 1.772 o
2 1 8 45.738 46.785 1.086 0.689 o
2 1 9 185.416 175.773 3.974 0.050 o
2 1 10 41.649 42.298 0.940 0.902 o
2 1 11 1.958 1.764 0.058 260.491 o
2 1 12 23.619 24.444 0.552 2.642 o
2 1 13 119.000 120.186 2.695 0.110 o
2 1 14 2.999 3.179 0.165 35.336 o
2 1 15 5.280 5.205 0.204 22.265 o
2 1 16 0.510 0.446 0.048 421.220 o
2 1 17 4.389 4.507 0.155 37.683 o
2 1 18 21.650 21.711 0.514 3.085 o
2 1 19 33.984 35.358 0.775 1.327 o
2 1 20 26.578 26.499 0.611 2.158 o
2 1 21 9.688 9.838 0.640 2.378 o
2 1 22 0.808 0.582 0.136 54.231 o
2 1 23 6.996 7.502 0.233 16.490 o
2 2 0 516.449 529.828 12.300 0.005 o
2 2 1 1.720 1.822 0.058 265.034 o
2 2 2 3.181 3.131 0.078 137.049 o
2 2 3 17.099 17.543 0.397 5.099 o
2 2 4 1.133 1.241 0.039 596.367 o
2 2 5 154.363 155.409 3.470 0.066 o
2 2 6 9.945 10.410 0.242 13.926 o
2 2 7 57.483 56.943 1.270 0.492 o
2 2 8 55.386 55.557 1.241 0.517 o
2 2 9 75.580 77.656 1.803 0.250 o
2 2 10 76.729 74.884 1.677 0.281 o
2 2 11 32.099 31.471 0.717 1.550 o
2 2 12 0.458 0.378 0.039 656.308 o
2 2 13 35.798 36.066 0.843 1.141 o
2 2 14 1.554 1.677 0.097 103.067 o
2 2 15 12.862 12.736 0.310 8.526 o
2 2 16 13.163 12.891 0.320 8.050 o
2 2 17 46.825 46.863 1.037 0.737 o
2 2 18 2.195 2.346 0.126 60.631 o
2 2 20 1.792 2.026 0.281 12.614 o
2 2 22 2.881 3.140 0.223 19.715 o
2 2 23 11.528 10.982 0.698 1.990 o
2 3 0 12.164 12.823 0.300 9.094 o
2 3 1 29.615 30.202 0.678 1.741 o
2 3 2 91.560 90.896 2.026 0.193 o
2 3 3 4.808 4.565 0.116 60.997 o
2 3 4 214.096 217.693 4.933 0.033 o
2 3 5 7.794 8.103 0.194 21.941 o
2 3 6 2.288 2.365 0.068 189.153 o
2 3 7 29.773 29.581 0.669 1.784 o
2 3 8 1.660 1.686 0.058 267.724 o
2 3 9 1.428 1.386 0.048 384.262 o
2 3 10 2.553 2.472 0.078 146.504 o
2 3 11 0.212 0.242 0.039 664.018 o
2 3 12 3.792 3.829 0.116 65.049 o
2 3 14 8.631 8.617 0.310 9.468 o
2 3 15 5.301 5.282 0.174 29.410 o
2 3 16 3.721 3.751 0.155 38.762 o
2 3 18 1.334 1.386 0.155 41.271 o
2 3 19 0.275 0.271 0.078 166.443 o
2 3 21 1.798 1.832 0.136 53.208 o
2 3 23 5.113 4.943 0.262 13.959 o
2 3 24 1.355 1.464 0.194 26.497 o
2 4 0 12.733 12.716 0.300 9.003 o
2 4 2 2.096 1.997 0.068 194.387 o
2 4 3 55.431 54.850 1.241 0.518 o
2 4 4 55.044 53.464 1.212 0.541 o
2 4 5 18.919 17.960 0.417 4.584 o
2 4 6 3.561 3.470 0.097 91.001 o
2 4 7 18.886 18.270 0.426 4.411 o
2 4 8 5.323 5.244 0.155 36.190 o
2 4 9 7.017 6.823 0.174 27.296 o
2 4 10 1.765 1.570 0.068 201.318 o
2 4 11 0.227 0.281 0.058 295.698 o
2 4 12 35.770 36.889 0.814 1.204 o
2 4 13 11.611 12.009 0.300 9.263 o
2 4 14 8.394 8.210 0.213 18.394 o
2 4 15 5.747 5.719 0.174 28.872 o
2 4 17 6.321 6.707 0.204 21.401 o
2 4 18 11.417 11.408 0.291 9.877 o
2 4 19 3.917 3.984 0.165 34.366 o
2 4 20 0.310 0.330 0.068 217.134 o
2 4 22 2.491 2.123 0.204 23.776 o
2 5 0 11.682 11.243 0.281 10.408 o
2 5 1 3.944 3.819 0.155 38.509 o
2 5 2 1.983 2.045 0.078 153.395 o
2 5 3 1.368 1.425 0.068 206.525 o
2 5 4 2.876 2.772 0.107 80.727 o
2 5 5 1.295 1.241 0.097 104.343 o
2 5 6 1.868 2.045 0.116 71.542 o
2 5 8 73.680 76.483 2.229 0.176 o
2 5 9 5.767 5.941 0.271 12.840 o
2 5 10 3.703 3.751 0.184 28.068 o
2 5 11 0.373 0.310 0.078 166.268 o
2 5 12 0.777 0.989 0.097 105.647 o
2 5 13 1.660 1.716 0.116 72.142 o
2 5 14 19.100 18.958 0.456 3.935 o
2 5 15 1.158 1.328 0.107 86.716 o
2 5 16 7.219 7.172 0.213 19.197 o
2 6 0 0.879 1.095 0.087 129.719 o
2 6 1 0.693 0.552 0.068 215.212 o
2 6 2 7.225 7.773 0.242 15.222 o
2 6 3 13.307 14.655 0.456 4.318 o
2 6 4 7.278 7.676 0.349 7.777 o
2 6 6 0.287 0.359 0.107 88.082 o
2 6 7 5.959 6.029 0.262 13.705 o
2 6 8 0.734 0.814 0.087 130.435 o
2 6 9 0.514 0.485 0.087 131.154 o
2 6 11 3.473 3.383 0.174 31.344 o
2 6 12 8.143 8.432 0.300 10.114 o
2 6 13 0.670 0.678 0.087 130.714 o
2 6 14 4.436 4.546 0.165 33.692 o
2 7 0 1.198 1.134 0.107 86.805 o
2 7 1 2.568 2.375 0.145 45.661 o
2 7 2 0.361 0.407 0.097 106.487 o
2 7 3 2.268 2.064 0.136 52.638 o
2 7 4 4.595 4.681 0.194 24.837 o
2 7 6 2.289 2.375 0.097 99.315 o
2 7 7 3.300 3.509 0.116 66.805 o
2 7 8 0.437 0.465 0.068 216.528 o
2 8 0 2.830 2.917 0.213 21.541 o
2 8 4 1.576 1.405 0.174 32.610 o
3 0 0 399.493 399.504 9.751 0.009 o
3 0 2 186.970 189.885 4.216 0.045 o
3 0 4 17.174 21.537 0.533 3.044 o
3 0 6 587.283 571.758 16.303 0.003 o
3 0 8 14.158 10.419 0.242 12.469 o
3 0 10 1.262 1.173 0.058 280.039 o
3 0 12 276.672 281.886 6.930 0.017 o
3 0 14 3.584 3.780 0.213 21.236 o
3 0 16 11.236 11.214 0.291 9.930 o
3 0 18 9.783 10.875 0.514 3.615 o
3 0 20 37.709 38.305 0.843 1.116 o
3 0 22 35.035 35.552 0.756 1.368 o
3 1 0 105.889 112.025 2.501 0.129 o
3 1 1 437.955 441.181 10.051 0.008 o
3 1 2 436.132 451.717 10.468 0.007 o
3 1 3 38.373 42.715 0.950 0.904 o
3 1 4 12.311 11.960 0.271 10.780 o
3 1 5 4.806 5.263 0.126 52.555 o
3 1 6 4.857 4.807 0.116 60.477 o
3 1 7 28.292 28.903 0.669 1.813 o
3 1 8 36.361 37.917 0.853 1.108 o
3 1 9 1.862 1.444 0.058 266.034 o
3 1 10 84.190 83.636 1.880 0.225 o
3 1 11 13.262 13.473 0.310 8.402 o
3 1 12 10.609 10.885 0.252 12.786 o
3 1 13 36.866 36.182 0.795 1.243 o
3 1 14 0.666 0.669 0.068 215.046 o
3 1 15 2.960 3.005 0.126 58.868 o
3 1 16 58.861 59.735 1.279 0.479 o
3 1 17 1.262 1.318 0.116 72.945 o
3 1 18 3.034 2.859 0.155 39.774 o
3 1 19 7.240 8.200 0.291 10.898 o
3 1 20 0.448 0.494 0.087 131.242 o
3 1 21 4.163 4.245 0.397 6.257 o
3 1 22 0.916 0.775 0.165 36.786 o
3 1 24 5.667 5.263 0.271 12.912 o
3 2 0 1.641 2.132 0.058 263.392 o
3 2 1 8.328 8.122 0.194 21.581 o
3 2 2 279.358 277.718 6.281 0.020 o
3 2 3 105.249 102.440 2.268 0.153 o
3 2 4 88.992 92.224 2.064 0.189 o
3 2 5 61.884 62.652 1.434 0.392 o
3 2 6 42.570 44.847 1.008 0.795 o
3 2 7 3.839 3.722 0.097 88.927 o
3 2 8 104.376 102.168 2.278 0.152 o
3 2 9 2.415 2.268 0.068 188.026 o
3 2 10 11.188 10.826 0.271 11.190 o
3 2 11 9.068 9.276 0.223 16.554 o
3 2 12 22.038 21.663 0.514 3.072 o
3 2 13 2.684 2.898 0.107 81.134 o
3 2 14 8.230 7.890 0.223 17.205 o
3 2 15 1.201 1.241 0.097 104.564 o
3 2 16 1.958 1.716 0.116 71.668 o
3 2 17 6.767 7.037 0.204 21.084 o
3 2 18 21.280 21.517 0.504 3.199 o
3 2 19 14.999 14.587 0.882 1.243 o
3 2 20 6.701 6.523 0.223 18.083 o
3 2 21 5.174 5.554 0.204 22.234 o
3 2 22 1.650 1.919 0.242 16.958 o
3 2 23 0.991 1.270 0.213 21.971 o
3 3 0 69.704 73.798 1.638 0.300 o
3 3 1 2.375 2.171 0.068 189.301 o
3 3 2 20.449 20.761 0.475 3.574 o
3 3 3 97.993 96.178 2.161 0.170 o
3 3 4 108.396 108.139 2.568 0.123 o
3 3 5 0.108 0.174 0.019 2651.810 o
3 3 6 20.552 20.742 0.475 3.570 o
3 3 7 2.378 2.181 0.068 189.189 o
3 3 8 115.669 115.670 2.588 0.119 o
3 3 9 35.056 36.812 0.960 0.923 o
3 3 10 0.263 0.213 0.029 1174.550 o
3 3 11 15.955 15.925 0.368 5.941 o
3 3 12 32.819 33.051 1.056 0.798 o
3 3 13 12.542 12.261 0.359 6.738 o
3 3 14 49.926 50.633 1.250 0.530 o
3 3 15 4.750 4.992 0.174 29.947 o
3 3 16 7.959 8.617 0.242 14.870 o
3 3 17 7.268 7.483 0.242 15.252 o
3 3 18 2.083 2.094 0.145 46.184 o
3 3 19 0.748 0.688 0.097 105.920 o
3 3 20 0.501 0.349 0.097 106.397 o
3 3 21 3.895 3.751 0.262 14.236 o
3 3 22 6.328 6.223 0.291 11.175 o
3 4 0 6.398 6.329 0.165 30.905 o
3 4 1 0.344 0.320 0.029 1165.320 o
3 4 2 2.418 2.384 0.068 187.138 o
3 4 3 17.960 18.454 0.426 4.463 o
3 4 4 38.833 37.830 0.853 1.089 o
3 4 5 0.253 0.262 0.029 1173.720 o
3 4 6 0.268 0.262 0.029 1172.780 o
3 4 7 55.843 54.917 1.212 0.536 o
3 4 8 20.531 20.393 0.465 3.699 o
3 4 9 9.931 9.528 0.233 15.053 o
3 4 10 11.582 11.796 0.320 8.356 o
3 4 12 1.780 1.822 0.087 124.859 o
3 4 13 13.734 13.880 0.330 7.520 o
3 4 14 3.166 3.179 0.136 50.830 o
3 4 16 2.337 2.278 0.126 60.475 o
3 4 17 16.158 16.652 0.475 3.852 o
3 4 18 10.224 9.877 0.281 10.861 o
3 4 19 1.004 1.115 0.126 62.578 o
3 5 0 18.107 17.408 0.407 4.836 o
3 5 1 9.080 8.966 0.339 7.974 o
3 5 2 3.061 3.179 0.126 58.527 o
3 5 5 1.961 1.822 0.087 123.961 o
3 5 6 16.002 15.993 0.388 5.460 o
3 5 7 4.819 4.875 0.174 29.939 o
3 5 8 1.597 1.657 0.087 126.090 o
3 5 9 0.413 0.349 0.058 294.642 o
3 5 12 1.741 1.590 0.116 72.114 o
3 5 13 0.301 0.330 0.078 166.366 o
3 5 14 1.757 1.725 0.097 102.375 o
3 5 15 2.058 1.851 0.145 46.294 o
3 5 16 4.270 4.478 0.155 37.829 o
3 5 18 14.709 15.149 0.378 5.842 o
3 6 0 0.066 0.582 0.126 63.105 o
3 6 1 1.147 0.979 0.242 17.027 o
3 6 2 1.285 1.502 0.126 62.196 o
3 6 3 0.615 1.066 0.165 36.816 o
3 6 4 1.168 1.308 0.107 86.715 o
3 6 5 3.503 3.470 0.165 34.883 o
3 6 6 0.787 0.892 0.078 164.312 o
3 6 7 15.232 15.614 0.388 5.538 o
3 6 8 0.276 0.281 0.068 217.275 o
3 6 9 0.691 1.163 0.136 54.162 o
3 6 10 2.093 2.278 0.184 29.039 o
3 6 11 2.868 2.714 0.136 51.550 o
3 6 12 2.746 2.772 0.126 59.440 o
3 6 13 4.123 4.129 0.155 38.168 o
3 7 0 1.134 1.221 0.136 53.922 o
3 7 2 3.847 3.703 0.330 9.073 o
3 7 3 5.140 4.924 0.271 13.019 o
3 7 4 0.834 0.814 0.078 164.281 o
3 7 6 0.699 0.669 0.058 291.072 o
3 7 8 1.201 1.260 0.213 21.951 o
3 7 9 2.159 2.326 0.242 16.888 o
4 0 0 46.067 44.750 0.979 0.816 o
4 0 4 36.345 37.849 0.882 1.050 o
4 0 6 12.888 12.852 0.300 8.963 o
4 0 8 1.362 1.095 0.058 279.003 o
4 0 10 4.574 4.313 0.126 54.200 o
4 0 12 3.269 2.801 0.213 21.450 o
4 0 16 48.039 49.674 0.969 0.804 o
4 0 22 28.641 30.929 0.649 1.877 o
4 1 0 2.187 2.501 0.058 246.595 o
4 1 1 154.185 154.159 3.451 0.067 o
4 1 2 189.686 186.706 4.168 0.046 o
4 1 3 207.777 210.055 4.711 0.036 o
4 1 4 3.005 3.005 0.087 114.120 o
4 1 5 93.089 89.917 1.997 0.197 o
4 1 6 37.912 39.138 0.892 1.017 o
4 1 7 9.272 8.035 0.194 20.978 o
4 1 8 26.883 28.108 0.630 2.030 o
4 1 9 20.685 20.257 0.456 3.820 o
4 1 10 0.302 0.242 0.029 1171.190 o
4 1 11 127.637 128.987 2.888 0.096 o
4 1 12 11.129 11.495 0.271 11.124 o
4 1 13 6.493 6.261 0.165 30.841 o
4 1 14 2.371 2.433 0.107 82.765 o
4 1 15 9.456 9.586 0.262 12.496 o
4 1 16 3.360 3.305 0.155 39.306 o
4 1 17 8.577 9.043 0.262 12.785 o
4 1 18 0.426 0.562 0.087 131.225 o
4 1 19 1.486 1.231 0.107 86.242 o
4 1 20 17.892 19.007 0.485 3.603 o
4 1 21 14.040 14.364 0.417 5.019 o
4 1 22 5.232 5.079 0.281 12.150 o
4 1 23 0.573 0.669 0.155 41.596 o
4 2 0 115.718 120.254 2.753 0.107 o
4 2 1 74.544 75.475 1.696 0.278 o
4 2 2 287.265 296.231 6.775 0.018 o
4 2 3 55.317 55.024 1.221 0.531 o
4 2 4 16.396 15.450 0.349 6.451 o
4 2 5 0.398 0.601 0.029 1147.290 o
4 2 6 7.326 6.862 0.165 29.625 o
4 2 7 153.974 151.890 3.441 0.067 o
4 2 8 0.658 0.717 0.039 641.379 o
4 2 9 14.140 14.064 0.330 7.453 o
4 2 10 39.985 40.330 0.911 0.965 o
4 2 11 1.197 1.260 0.078 161.530 o
4 2 12 102.164 102.343 2.268 0.154 o
4 2 13 26.917 26.945 0.640 1.991 o
4 2 14 10.922 10.729 0.378 6.335 o
4 2 15 26.243 26.596 0.601 2.220 o
4 2 16 2.513 2.481 0.126 60.054 o
4 2 17 5.354 5.185 0.194 24.313 o
4 2 18 5.365 5.767 0.204 22.098 o
4 2 19 2.887 3.092 0.155 39.799 o
4 2 20 3.092 3.295 0.242 16.702 o
4 2 21 2.442 2.074 0.242 16.870 o
4 2 22 12.640 13.773 0.397 5.570 o
4 3 0 5.507 5.980 0.145 39.604 o
4 3 1 36.453 36.696 0.843 1.133 o
4 3 2 0.886 1.027 0.039 620.168 o
4 3 3 1.574 1.396 0.048 378.702 o
4 3 4 49.309 48.695 1.212 0.563 o
4 3 5 3.472 3.538 0.097 91.277 o
4 3 6 105.934 104.853 2.355 0.143 o
4 3 7 0.277 0.339 0.029 1169.600 o
4 3 8 55.204 53.619 1.192 0.554 o
4 3 9 6.096 6.281 0.155 34.589 o
4 3 10 9.824 9.712 0.233 15.059 o
4 3 11 0.362 0.397 0.048 423.511 o
4 3 13 13.352 13.317 0.330 7.609 o
4 3 16 23.043 24.018 0.591 2.383 o
4 3 17 3.026 3.121 0.155 39.674 o
4 3 18 33.397 35.067 0.785 1.308 o
4 3 19 2.536 2.568 0.310 10.329 o
4 3 21 3.719 4.051 0.252 15.323 o
4 3 22 2.122 2.229 0.213 21.755 o
4 4 0 67.215 65.502 1.464 0.369 o
4 4 1 0.558 0.456 0.029 1137.470 o
4 4 2 0.596 0.543 0.029 1127.590 o
4 4 3 2.792 2.801 0.078 142.619 o
4 4 4 1.606 1.541 0.058 270.290 o
4 4 5 20.672 20.567 0.475 3.568 o
4 4 6 14.026 13.637 0.320 7.867 o
4 4 7 40.617 40.350 0.969 0.869 o
4 4 8 21.144 21.168 0.475 3.533 o
4 4 9 1.027 1.027 0.058 284.833 o
4 4 10 1.447 1.444 0.078 159.504 o
4 4 11 0.491 0.523 0.068 216.210 o
4 4 12 0.188 0.291 0.058 295.817 o
4 4 13 0.577 0.514 0.078 165.607 o
4 4 14 22.135 21.789 0.514 3.066 o
4 4 15 5.033 5.302 0.184 26.855 o
4 4 17 18.769 18.590 1.182 0.694 o
4 4 18 0.203 0.223 0.078 166.555 o
4 4 20 2.023 1.725 0.194 26.337 o
4 5 0 0.234 0.262 0.039 663.464 o
4 5 1 2.031 1.919 0.107 84.344 o
4 5 2 0.867 0.804 0.058 288.438 o
4 5 3 3.693 3.528 0.107 76.587 o
4 5 4 23.412 22.758 0.504 3.094 o
4 5 5 2.067 2.171 0.087 122.480 o
4 5 6 9.883 9.712 0.271 11.628 o
4 5 8 2.142 2.074 0.097 100.454 o
4 5 10 15.704 15.130 0.601 2.554 o
4 5 11 7.580 7.599 0.213 18.930 o
4 5 12 2.013 2.064 0.107 84.209 o
4 5 16 8.078 8.791 0.368 6.930 o
4 5 17 1.236 1.115 0.184 29.395 o
4 5 18 0.666 0.737 0.145 47.282 o
4 6 0 1.030 0.969 0.087 129.469 o
4 6 1 3.817 3.751 0.136 49.412 o
4 6 2 0.592 0.504 0.078 165.580 o
4 6 3 0.735 0.620 0.087 130.640 o
4 6 5 2.761 2.821 0.194 25.979 o
4 6 7 0.803 0.775 0.078 164.471 o
4 6 8 2.185 2.229 0.116 70.803 o
4 6 9 1.727 1.948 0.165 36.355 o
4 7 0 0.326 0.388 0.068 217.010 o
4 7 1 4.849 5.399 0.174 29.717 o
4 7 2 0.888 0.863 0.078 163.972 o
4 7 5 0.992 1.124 0.078 162.932 o
4 7 6 6.889 7.347 0.213 19.308 o
4 7 7 0.465 0.426 0.078 165.979 o
5 0 0 61.434 63.224 1.386 0.414 o
5 0 2 671.768 658.496 17.253 0.003 o
5 0 4 12.797 11.515 0.378 6.158 o
5 0 6 6.394 6.329 0.165 30.910 o
5 0 8 144.186 142.683 3.315 0.073 o
5 0 10 71.056 71.918 2.627 0.133 o
5 0 12 17.641 17.611 0.397 5.054 o
5 0 14 15.482 15.760 0.397 5.291 o
5 0 16 15.348 16.090 0.417 4.882 o
5 0 18 1.812 1.890 0.223 19.993 o
5 0 20 1.859 2.055 0.242 16.933 o
5 1 0 0.440 0.426 0.029 1151.880 o
5 1 1 103.498 109.118 2.423 0.137 o
5 1 2 56.704 58.261 1.299 0.474 o
5 1 3 1.864 1.822 0.058 261.917 o
5 1 4 37.744 38.537 0.930 0.951 o
5 1 5 1.295 1.260 0.048 391.144 o
5 1 6 81.816 80.147 1.793 0.246 o
5 1 7 5.052 4.837 0.126 52.478 o
5 1 8 1.510 1.502 0.048 379.108 o
5 1 9 1.705 1.851 0.058 265.048 o
5 1 10 0.758 0.708 0.058 290.245 o
5 1 11 29.506 28.447 0.659 1.840 o
5 1 12 54.889 55.150 1.153 0.582 o
5 1 13 16.348 16.535 0.378 5.634 o
5 1 15 17.530 18.280 0.456 4.032 o
5 1 18 5.761 5.709 0.300 10.599 o
5 1 19 0.796 0.698 0.174 32.849 o
5 1 20 1.405 1.124 0.184 29.362 o
5 1 21 23.204 25.559 0.572 2.494 o
5 2 0 24.154 24.570 0.552 2.624 o
5 2 1 25.178 25.414 0.582 2.380 o
5 2 2 3.377 3.421 0.087 110.090 o
5 2 3 24.771 23.659 0.543 2.694 o
5 2 4 61.861 60.587 1.357 0.430 o
5 2 5 15.138 14.839 0.339 6.938 o
5 2 6 47.352 47.706 1.144 0.626 o
5 2 7 4.408 4.197 0.107 72.564 o
5 2 8 13.740 13.628 0.310 8.311 o
5 2 9 10.347 10.410 0.262 12.156 o
5 2 10 39.950 40.728 0.979 0.858 o
5 2 11 10.519 10.826 0.262 12.055 o
5 2 12 21.948 21.304 0.485 3.383 o
5 2 14 6.096 6.242 0.174 28.358 o
5 2 16 12.018 12.406 0.320 8.251 o
5 2 17 24.898 25.511 0.582 2.386 o
5 2 18 3.135 2.801 0.252 15.493 o
5 2 19 2.563 2.733 0.242 16.816 o
5 2 21 2.820 2.627 0.233 18.192 o
5 2 22 12.287 13.046 0.368 6.421 o
5 3 0 122.654 123.637 2.830 0.100 o
5 3 1 25.859 26.431 0.601 2.231 o
5 3 2 5.283 5.428 0.145 40.365 o
5 3 3 4.790 4.468 0.116 61.201 o
5 3 4 4.054 3.896 0.107 74.530 o
5 3 5 41.230 40.272 0.911 0.957 o
5 3 6 91.184 88.453 1.968 0.203 o
5 3 7 4.643 4.740 0.126 53.550 o
5 3 8 3.266 3.315 0.097 92.856 o
5 3 9 0.248 0.310 0.039 662.713 o
5 3 10 38.236 38.169 0.872 1.054 o
5 3 11 21.719 20.916 0.475 3.512 o
5 3 12 0.659 0.611 0.058 291.747 o
5 3 13 4.502 4.594 0.145 42.100 o
5 3 14 29.759 30.580 0.688 1.697 o
5 3 15 0.797 0.746 0.087 130.368 o
5 3 16 33.625 32.683 0.979 0.909 o
5 3 19 4.535 4.468 0.271 13.137 o
5 4 0 9.026 9.130 0.233 15.472 o
5 4 1 4.689 4.507 0.145 41.901 o
5 4 2 0.122 0.155 0.029 1182.310 o
5 4 3 1.266 1.241 0.058 279.401 o
5 4 4 26.032 25.065 0.620 2.129 o
5 4 5 18.844 18.891 0.659 2.085 o
5 4 6 8.690 8.452 0.223 16.893 o
5 4 7 19.311 19.046 0.436 4.207 o
5 4 9 7.779 7.667 0.194 22.093 o
5 4 10 16.209 16.128 0.485 3.728 o
5 4 11 2.602 2.501 0.116 69.679 o
5 4 12 0.540 0.465 0.078 165.763 o
5 4 14 2.539 2.452 0.126 60.037 o
5 4 15 12.188 12.852 0.330 7.793 o
5 4 16 1.335 1.367 0.097 104.089 o
5 4 17 4.809 5.127 0.194 24.617 o
5 4 18 7.597 7.948 0.310 9.644 o
5 4 19 1.458 1.812 0.204 24.007 o
5 5 0 5.188 5.244 0.194 24.387 o
5 5 1 0.106 0.155 0.039 665.992 o
5 5 2 4.835 4.972 0.155 36.924 o
5 5 3 1.199 1.144 0.058 281.316 o
5 5 4 3.452 3.470 0.136 50.199 o
5 5 5 0.373 0.339 0.048 423.713 o
5 5 6 6.307 6.552 0.223 18.224 o
5 5 7 1.311 1.299 0.078 160.774 o
5 5 8 7.576 7.618 0.213 18.927 o
5 5 9 0.397 0.271 0.058 294.950 o
5 5 13 0.458 0.368 0.078 166.055 o
5 5 14 3.062 2.888 0.126 58.789 o
5 5 15 0.793 0.824 0.097 105.752 o
5 5 16 2.626 2.753 0.213 21.605 o
5 6 0 6.842 7.638 0.223 17.816 o
5 6 1 4.636 4.798 0.155 37.250 o
5 6 2 4.286 4.478 0.165 33.852 o
5 6 3 2.304 2.191 0.116 70.611 o
5 6 4 1.782 1.677 0.116 71.983 o
5 6 5 7.868 7.987 0.262 13.083 o
5 6 6 2.917 3.043 0.145 44.998 o
5 6 7 12.066 12.222 0.717 1.879 o
5 6 8 0.780 0.775 0.078 164.558 o
5 6 9 2.433 2.462 0.126 60.193 o
5 6 11 0.291 0.407 0.097 106.536 o
5 7 0 1.933 1.958 0.116 71.505 o
5 7 1 8.955 9.043 0.271 11.912 o
5 7 2 1.527 1.783 0.165 36.465 o
5 7 3 2.093 2.142 0.107 83.910 o
5 7 4 1.318 1.221 0.242 17.009 o
5 7 5 0.967 1.115 0.204 24.116 o
6 0 0 226.611 228.199 7.037 0.018 o
6 0 2 28.745 29.039 0.843 1.224 o
6 0 4 1.406 1.483 0.068 205.829 o
6 0 6 42.508 46.853 1.250 0.552 o
6 0 8 15.283 15.120 0.368 6.045 o
6 0 10 34.036 33.303 0.717 1.512 o
6 0 12 92.209 95.490 1.997 0.196 o
6 0 14 3.880 4.459 0.262 14.189 o
6 0 16 2.208 2.171 0.233 18.312 o
6 1 0 0.540 0.620 0.029 1129.670 o
6 1 1 182.709 181.404 4.090 0.048 o
6 1 2 59.949 60.035 1.396 0.415 o
6 1 3 22.800 22.138 0.523 2.946 o
6 1 4 54.859 53.968 1.221 0.534 o
6 1 5 58.681 58.203 1.347 0.443 o
6 1 6 21.042 21.023 0.475 3.541 o
6 1 7 12.119 11.786 0.320 8.280 o
6 1 8 41.469 41.493 1.037 0.772 o
6 1 9 33.952 33.584 0.766 1.364 o
6 1 10 0.279 0.300 0.048 424.864 o
6 1 11 32.182 31.404 0.698 1.618 o
6 1 12 0.688 0.640 0.078 165.100 o
6 1 13 13.788 14.093 0.407 5.254 o
6 1 15 1.962 2.045 0.233 18.349 o
6 1 16 26.101 27.110 0.611 2.162 o
6 1 18 3.413 3.034 0.252 15.442 o
6 1 19 6.051 6.184 0.291 11.215 o
6 1 21 1.482 1.774 0.213 21.889 o
6 2 1 9.409 9.499 0.223 16.358 o
6 2 2 0.028 0.078 0.019 2665.560 o
6 2 3 13.626 13.637 0.320 7.927 o
6 2 4 47.515 47.289 1.056 0.712 o
6 2 5 97.492 95.354 2.142 0.173 o
6 2 6 2.348 2.210 0.078 149.573 o
6 2 7 1.114 1.095 0.058 283.030 o
6 2 8 5.529 5.176 0.136 45.111 o
6 2 9 34.553 34.776 0.785 1.298 o
6 2 10 1.525 1.434 0.078 159.031 o
6 2 11 5.685 5.719 0.174 28.923 o
6 2 12 3.461 3.315 0.194 25.641 o
6 2 13 6.979 6.979 0.223 17.890 o
6 2 14 33.483 34.079 0.737 1.452 o
6 2 15 15.618 15.644 0.446 4.348 o
6 2 16 8.057 7.899 0.330 8.572 o
6 2 17 1.469 1.444 0.233 18.429 o
6 2 18 0.879 0.678 0.174 32.838 o
6 2 20 2.627 3.169 0.242 16.779 o
6 3 0 0.002 0.436 0.048 426.275 o
6 3 2 0.663 0.708 0.039 641.377 o
6 3 3 0.733 0.795 0.048 413.782 o
6 3 4 0.299 0.300 0.039 661.728 o
6 3 5 0.143 0.184 0.039 665.444 o
6 3 6 0.185 0.223 0.039 664.614 o
6 3 7 5.261 5.215 0.136 45.582 o
6 3 8 6.183 6.116 0.165 31.241 o
6 3 9 3.128 3.799 0.116 66.876 o
6 3 10 32.759 32.828 0.756 1.409 o
6 3 11 1.755 1.890 0.087 124.815 o
6 3 12 1.471 1.318 0.107 86.190 o
6 3 13 0.623 0.717 0.078 165.185 o
6 3 15 12.521 12.930 0.339 7.375 o
6 3 16 5.323 6.329 0.310 9.987 o
6 3 18 8.029 9.634 0.339 8.044 o
6 4 0 16.816 15.934 0.359 6.108 o
6 4 2 26.454 26.538 0.591 2.274 o
6 4 3 0.264 0.291 0.039 662.580 o
6 4 4 6.490 6.058 0.165 30.951 o
6 4 5 14.155 14.568 0.494 3.700 o
6 4 6 0.832 0.785 0.048 411.612 o
6 4 7 2.053 1.938 0.078 153.259 o
6 4 9 7.729 7.182 0.213 18.958 o
6 4 10 19.069 18.968 0.523 3.122 o
6 4 11 1.920 1.754 0.116 71.699 o
6 4 12 0.272 0.378 0.078 166.373 o
6 4 14 3.034 3.111 0.136 51.062 o
6 4 15 4.895 4.963 0.194 24.615 o
6 4 16 4.276 3.984 0.165 34.071 o
6 4 18 0.691 0.591 0.145 47.295 o
6 5 0 27.531 27.430 0.659 1.882 o
6 5 1 4.227 4.207 0.126 55.099 o
6 5 2 0.150 0.165 0.048 426.219 o
6 5 3 0.625 0.562 0.068 215.526 o
6 5 4 15.439 15.673 0.582 2.713 o
6 5 6 46.485 47.483 1.076 0.695 o
6 5 7 2.961 3.160 0.126 58.727 o
6 5 8 0.662 0.601 0.058 291.766 o
6 5 9 1.291 1.473 0.087 127.738 o
6 5 10 0.392 0.436 0.097 106.453 o
6 5 12 0.582 0.601 0.087 130.950 o
6 5 13 1.631 1.725 0.126 61.736 o
6 5 14 8.306 8.607 0.300 10.077 o
6 6 0 11.940 13.453 0.339 7.413 o
6 6 1 2.085 2.297 0.126 60.820 o
6 6 2 4.770 5.050 0.252 15.055 o
6 6 3 5.507 5.447 0.213 20.298 o
6 6 4 0.280 0.300 0.078 166.417 o
6 6 5 1.235 1.299 0.087 128.266 o
6 6 7 2.029 2.123 0.107 84.097 o
6 6 8 0.938 0.960 0.107 87.287 o
6 6 9 0.477 0.456 0.126 63.020 o
6 7 0 1.942 1.803 0.136 53.090 o
6 7 1 0.578 0.669 0.078 165.390 o
6 7 2 0.677 0.620 0.184 29.507 o
7 0 0 105.710 107.606 3.024 0.094 o
7 0 2 34.870 34.815 0.892 1.052 o
7 0 4 267.252 265.069 6.426 0.020 o
7 0 6 1.147 1.047 0.078 162.359 o
7 0 8 42.686 42.007 0.901 0.957 o
7 0 10 60.040 58.930 1.279 0.477 o
7 0 12 17.670 17.941 0.426 4.497 o
7 0 14 11.782 12.464 0.368 6.492 o
7 1 0 81.792 80.932 1.880 0.228 o
7 1 1 1.111 1.202 0.048 398.085 o
7 1 2 0.170 0.165 0.029 1180.360 o
7 1 3 7.288 7.279 0.184 24.560 o
7 1 4 34.729 33.749 0.863 1.116 o
7 1 5 40.181 39.167 0.979 0.861 o
7 1 6 1.072 0.969 0.058 284.600 o
7 1 7 1.344 1.328 0.068 207.261 o
7 1 8 46.471 46.349 1.076 0.697 o
7 1 10 3.285 3.179 0.116 67.268 o
7 1 11 16.070 16.942 0.397 5.201 o
7 1 12 15.400 15.479 0.426 4.710 o
7 1 13 14.780 16.109 0.446 4.379 o
7 1 14 23.936 23.562 0.533 2.801 o
7 1 15 22.346 23.359 0.543 2.773 o
7 1 17 3.132 3.518 0.252 15.447 o
7 1 19 3.936 4.488 0.242 16.453 o
7 1 20 0.625 0.523 0.136 54.303 o
7 2 0 35.194 35.523 0.795 1.263 o
7 2 1 10.914 10.613 0.262 11.977 o
7 2 2 6.338 6.271 0.165 30.998 o
7 2 3 4.831 4.652 0.136 46.898 o
7 2 4 0.552 0.514 0.068 215.973 o
7 2 5 0.772 0.746 0.058 289.879 o
7 2 6 5.764 5.912 0.194 23.882 o
7 2 7 3.376 3.392 0.116 66.758 o
7 2 8 7.296 6.959 0.184 24.675 o
7 2 9 20.251 20.558 0.649 2.108 o
7 2 10 0.903 0.969 0.068 212.608 o
7 2 11 10.534 10.051 0.252 12.935 o
7 2 13 4.131 4.177 0.281 12.338 o
7 2 14 6.582 6.736 0.320 9.279 o
7 2 15 10.955 11.466 0.388 6.024 o
7 2 16 1.193 1.134 0.184 29.401 o
7 2 18 3.881 4.148 0.252 15.290 o
7 2 19 15.931 16.564 0.407 5.022 o
7 3 0 0.653 0.543 0.039 645.629 o
7 3 1 27.793 27.110 0.620 2.073 o
7 3 2 22.801 22.012 0.504 3.132 o
7 3 3 15.572 14.858 0.349 6.581 o
7 3 4 14.164 13.608 0.378 5.956 o
7 3 5 1.028 0.989 0.058 285.099 o
7 3 6 6.806 6.697 0.174 27.540 o
7 3 7 3.546 3.208 0.107 77.704 o
7 3 8 12.392 12.261 0.291 9.604 o
7 3 9 10.214 10.032 0.378 6.413 o
7 3 10 1.826 1.948 0.097 101.788 o
7 3 12 3.591 3.460 0.397 6.282 o
7 3 13 1.670 1.783 0.165 36.411 o
7 3 16 2.147 1.725 0.223 19.959 o
7 3 18 3.413 3.790 0.233 17.983 o
7 4 0 9.986 9.654 0.233 15.008 o
7 4 1 1.360 1.357 0.078 160.309 o
7 4 2 1.723 1.716 0.078 156.685 o
7 4 3 1.147 0.989 0.058 283.333 o
7 4 4 2.544 2.549 0.087 118.593 o
7 4 5 20.597 20.548 0.465 3.692 o
7 4 6 30.455 30.715 0.688 1.685 o
7 4 9 10.146 10.497 0.300 9.641 o
7 4 10 0.299 0.378 0.078 166.332 o
7 4 12 5.036 5.282 0.291 11.396 o
7 4 13 0.323 0.271 0.087 131.514 o
7 4 14 7.096 7.124 0.426 5.319 o
7 4 15 3.125 3.732 0.242 16.663 o
7 4 16 1.269 1.338 0.194 26.521 o
7 5 0 13.992 13.317 0.349 6.847 o
7 5 2 12.722 12.891 0.330 7.721 o
7 5 3 1.438 1.124 0.087 127.840 o
7 5 4 2.370 2.510 0.107 82.657 o
7 5 6 1.154 0.998 0.068 210.527 o
7 5 7 0.258 0.184 0.048 425.504 o
7 5 8 3.667 3.741 0.165 34.658 o
7 5 10 21.544 21.924 0.659 2.023 o
7 5 11 1.337 1.347 0.116 72.838 o
7 5 12 1.272 1.163 0.204 24.079 o
7 6 0 0.782 1.018 0.107 87.438 o
7 6 2 2.180 2.336 0.349 8.189 o
7 6 3 0.164 0.320 0.097 106.628 o
7 6 4 4.175 4.449 0.213 20.954 o
7 6 5 4.410 4.681 0.320 9.552 o
7 6 6 3.533 3.518 0.136 50.039 o
7 6 7 3.647 3.664 0.252 15.364 o
8 0 0 26.912 26.383 0.582 2.325 o
8 0 2 15.010 14.354 0.475 3.946 o
8 0 4 64.100 63.389 1.483 0.367 o
8 0 6 4.749 4.274 0.165 33.535 o
8 0 8 28.194 28.961 0.640 1.948 o
8 0 10 0.719 0.688 0.126 62.876 o
8 0 12 24.233 26.024 0.543 2.675 o
8 1 1 0.426 0.436 0.048 422.480 o
8 1 2 2.081 2.074 0.087 122.668 o
8 1 3 83.802 80.670 2.394 0.151 o
8 1 4 32.897 32.712 0.746 1.438 o
8 1 6 4.179 4.081 0.126 55.343 o
8 1 7 0.329 0.233 0.039 661.815 o
8 1 8 19.146 18.435 0.426 4.389 o
8 1 9 9.688 9.460 0.330 8.311 o
8 1 10 18.934 18.513 0.543 2.944 o
8 1 11 6.170 6.174 0.271 12.752 o
8 1 12 4.223 4.323 0.281 12.320 o
8 1 13 10.827 11.573 0.378 6.311 o
8 1 15 1.499 1.512 0.223 20.051 o
8 1 16 0.638 0.611 0.155 41.589 o
8 1 18 20.498 21.663 0.475 3.551 o
8 2 0 41.291 40.485 1.192 0.611 o
8 2 1 21.105 21.333 0.485 3.419 o
8 2 2 0.142 0.165 0.039 665.564 o
8 2 3 5.038 4.788 0.136 46.397 o
8 2 4 14.073 13.715 0.330 7.485 o
8 2 5 7.636 7.153 0.184 24.342 o
8 2 7 35.489 33.904 0.775 1.319 o
8 2 8 4.377 4.139 0.136 48.158 o
8 2 10 14.941 14.975 0.378 5.829 o
8 2 13 4.080 4.129 0.281 12.346 o
8 2 15 2.791 2.665 0.242 16.791 o
8 2 16 1.899 2.055 0.223 19.971 o
8 2 17 0.845 0.950 0.165 36.783 o
8 3 0 17.366 17.136 0.397 5.094 o
8 3 1 0.166 0.194 0.039 665.081 o
8 3 2 9.662 9.179 0.320 8.790 o
8 3 3 0.571 0.543 0.048 419.470 o
8 3 4 10.687 10.322 0.262 12.077 o
8 3 5 17.858 16.690 0.397 5.073 o
8 3 6 14.219 13.870 0.330 7.455 o
8 3 8 3.474 3.615 0.174 31.275 o
8 3 10 2.826 2.588 0.126 59.461 o
8 3 11 5.747 6.135 0.397 6.172 o
8 3 12 3.197 3.344 0.271 13.361 o
8 3 13 6.576 6.455 0.310 9.851 o
8 3 14 5.306 5.893 0.291 11.328 o
8 3 15 1.310 0.940 0.174 32.734 o
8 3 16 2.642 2.617 0.213 21.616 o
8 4 1 2.212 2.297 0.097 99.767 o
8 4 2 14.449 13.754 0.397 5.442 o
8 4 3 2.336 2.539 0.107 82.715 o
8 4 4 2.415 2.433 0.116 70.145 o
8 4 5 2.864 2.782 0.174 31.837 o
8 4 6 3.937 3.780 0.165 34.431 o
8 4 7 4.251 4.730 0.310 10.153 o
8 4 9 13.033 13.143 0.843 1.367 o
8 4 10 5.972 5.883 0.300 10.565 o
8 4 12 6.134 6.097 0.291 11.209 o
8 5 0 0.995 0.998 0.136 54.058 o
8 5 2 6.683 6.823 0.233 16.706 o
8 5 3 3.838 4.110 0.155 38.469 o
8 5 4 0.951 0.853 0.068 212.682 o
8 5 6 7.231 7.075 0.223 17.773 o
8 5 7 2.024 2.132 0.213 21.780 o
8 5 8 20.526 19.511 0.465 3.720 o
8 5 9 2.875 2.830 0.155 39.913 o
8 5 10 0.819 0.834 0.087 130.215 o
8 6 1 0.548 0.533 0.078 165.657 o
8 6 2 5.100 5.059 0.184 26.889 o
8 6 3 1.447 1.279 0.174 32.661 o
8 6 4 2.655 2.830 0.145 45.367 o
9 0 0 17.304 17.660 0.407 4.885 o
9 0 2 46.321 44.362 1.386 0.457 o
9 0 4 4.511 4.459 0.174 30.317 o
9 0 6 27.112 26.809 0.649 1.940 o
9 0 10 14.155 14.616 0.446 4.447 o
9 1 0 32.398 31.762 0.737 1.480 o
9 1 2 4.841 4.517 0.136 47.004 o
9 1 3 26.126 25.297 0.804 1.366 o
9 1 4 2.482 2.404 0.107 82.489 o
9 1 5 6.071 5.757 0.165 31.543 o
9 1 6 7.825 7.124 0.194 22.241 o
9 1 7 12.720 13.133 0.339 7.339 o
9 1 8 1.681 2.045 0.145 46.492 o
9 1 9 1.851 2.152 0.233 18.356 o
9 1 10 9.170 9.218 0.252 13.459 o
9 1 12 0.955 1.047 0.174 32.795 o
9 1 14 9.325 8.888 0.320 8.850 o
9 1 15 0.935 0.853 0.155 41.493 o
9 1 16 2.316 2.181 0.204 23.809 o
9 2 0 1.626 1.619 0.068 202.660 o
9 2 1 3.576 3.421 0.116 66.193 o
9 2 2 36.048 34.447 0.892 1.045 o
9 2 3 5.222 5.069 0.145 40.724 o
9 2 4 35.962 34.408 0.785 1.286 o
9 2 5 3.133 3.053 0.126 58.512 o
9 2 6 2.970 2.956 0.116 68.322 o
9 2 7 1.563 1.483 0.087 126.619 o
9 2 8 2.247 2.191 0.126 60.668 o
9 2 9 15.585 15.876 0.388 5.499 o
9 2 10 2.035 1.909 0.116 71.370 o
9 2 11 8.428 9.101 0.504 3.800 o
9 2 12 6.373 6.649 0.310 9.863 o
9 2 14 6.995 7.589 0.310 9.739 o
9 2 15 2.611 2.724 0.223 19.806 o
9 3 0 2.114 2.171 0.107 83.818 o
9 3 1 6.557 6.174 0.174 27.990 o
9 3 2 2.394 2.307 0.136 52.369 o
9 3 3 13.891 14.190 0.339 7.133 o
9 3 4 6.843 6.620 0.271 12.591 o
9 3 5 1.469 1.415 0.145 46.814 o
9 3 6 15.886 16.235 0.407 5.037 o
9 3 8 16.248 16.749 0.834 1.373 o
9 3 10 2.974 2.888 0.145 45.018 o
9 3 11 3.994 4.061 0.359 7.669 o
9 3 12 4.978 4.720 0.271 13.058 o
9 3 14 1.073 1.144 0.194 26.564 o
9 4 1 2.274 2.229 0.116 70.630 o
9 4 2 12.978 12.852 0.320 8.080 o
9 4 5 0.359 0.242 0.068 217.120 o
9 4 6 5.065 4.953 0.194 24.529 o
9 4 7 17.506 18.532 0.989 0.984 o
9 4 8 12.677 11.408 0.611 2.554 o
9 4 9 5.121 5.050 0.339 8.462 o
9 4 12 0.540 0.465 0.155 41.618 o
9 5 1 0.834 0.814 0.068 213.617 o
9 5 2 4.487 4.158 0.252 15.188 o
9 5 3 1.417 1.434 0.087 127.320 o
9 5 4 1.063 1.076 0.087 129.210 o
9 5 5 1.041 0.727 0.097 105.418 o
9 5 8 5.345 5.195 0.465 4.554 o
10 0 0 7.165 7.609 0.233 16.415 o
10 0 2 2.727 2.704 0.107 81.302 o
10 0 4 13.884 13.628 0.795 1.527 o
10 0 6 17.173 17.146 0.407 4.913 o
10 0 8 0.887 0.969 0.194 26.597 o
10 0 10 11.764 12.271 0.397 5.681 o
10 1 0 9.424 9.373 0.262 12.531 o
10 1 1 31.731 30.987 0.785 1.345 o
10 1 3 8.375 7.948 0.204 19.951 o
10 1 4 9.274 8.869 0.233 15.428 o
10 1 5 3.774 3.751 0.155 38.710 o
10 1 6 7.920 7.560 0.252 14.036 o
10 1 8 1.338 1.202 0.097 104.284 o
10 1 9 1.227 1.047 0.136 53.919 o
10 1 10 5.182 5.244 0.184 26.778 o
10 1 11 3.863 3.635 0.155 38.680 o
10 1 12 0.745 0.698 0.155 41.559 o
10 1 13 1.458 1.677 0.204 24.017 o
10 2 0 9.408 9.082 0.417 5.420 o
10 2 1 1.774 1.570 0.116 72.079 o
10 2 2 28.447 27.914 0.746 1.517 o
10 2 3 7.839 7.405 0.271 12.322 o
10 2 4 1.469 1.396 0.116 72.638 o
10 2 5 10.170 9.751 0.252 13.088 o
10 2 6 6.967 7.105 0.281 11.737 o
10 2 7 3.748 3.664 0.145 43.701 o
10 2 8 3.244 3.140 0.330 9.117 o
10 2 9 0.476 0.378 0.078 166.007 o
10 2 10 6.502 6.581 0.281 11.855 o
10 2 11 1.339 1.144 0.174 32.704 o
10 2 12 14.978 16.119 0.417 4.905 o
10 2 13 0.953 0.766 0.155 41.500 o
10 3 0 0.730 0.688 0.078 164.886 o
10 3 1 1.262 1.221 0.097 104.445 o
10 3 2 18.414 17.892 0.494 3.485 o
10 3 3 3.946 3.877 0.136 49.102 o
10 3 4 3.489 3.305 0.223 19.568 o
10 3 5 0.254 0.271 0.068 217.332 o
10 3 6 13.391 13.647 0.339 7.227 o
10 3 7 11.431 10.953 0.494 3.842 o
10 3 8 24.474 23.465 2.753 0.131 o
10 3 9 0.567 0.446 0.068 216.057 o
10 3 10 0.915 0.998 0.155 41.479 o
10 3 12 1.529 1.493 0.194 26.463 o
10 4 0 2.414 2.355 0.174 32.144 o
10 4 1 5.268 5.040 0.281 12.148 o
10 4 3 1.431 1.531 0.107 86.068 o
10 4 4 3.524 3.286 0.213 21.321 o
10 4 5 0.966 1.027 0.087 129.571 o
10 4 6 0.838 0.853 0.087 130.144 o
10 4 7 7.035 6.843 0.223 17.895 o
10 4 8 0.554 0.378 0.126 63.007 o
10 5 0 1.967 2.035 0.107 84.360 o
10 5 1 2.551 2.646 0.136 51.989 o
10 5 2 0.697 0.640 0.097 106.022 o
10 5 3 0.393 0.368 0.078 166.181 o
10 5 4 1.586 1.880 0.204 23.981 o
10 5 5 0.797 0.921 0.155 41.521 o
11 0 0 32.183 31.181 1.512 0.415 o
11 0 2 24.639 23.911 0.775 1.477 o
11 0 6 2.660 2.665 0.262 14.442 o
11 0 10 0.892 0.669 0.174 32.837 o
11 1 1 3.725 3.964 0.155 38.654 o
11 1 2 8.135 8.054 0.281 11.448 o
11 1 3 10.978 10.962 0.300 9.462 o
11 1 4 1.670 1.735 0.116 72.111 o
11 1 5 12.152 12.387 0.310 8.668 o
11 1 6 3.417 3.295 0.136 50.382 o
11 1 7 4.767 4.546 0.291 11.467 o
11 1 9 1.307 1.299 0.097 104.242 o
11 1 10 5.673 5.786 0.174 28.905 o
11 2 1 11.762 11.670 0.397 5.701 o
11 2 3 0.975 0.824 0.107 87.325 o
11 2 4 7.123 6.833 0.300 10.366 o
11 2 6 18.885 18.600 0.921 1.122 o
11 2 7 15.875 15.702 0.388 5.482 o
11 2 8 2.700 3.063 0.136 51.541 o
11 2 9 0.716 0.775 0.107 87.637 o
11 2 10 1.111 0.940 0.165 36.724 o
11 2 11 4.610 4.352 0.242 16.331 o
11 3 0 19.443 17.980 0.426 4.385 o
11 3 1 2.155 2.045 0.126 60.897 o
11 3 2 1.155 1.076 0.078 162.244 o
11 3 3 1.543 1.376 0.116 72.552 o
11 3 4 3.031 2.985 0.184 28.560 o
11 3 5 0.692 0.804 0.068 214.521 o
11 3 6 2.235 2.287 0.116 70.651 o
11 3 8 1.375 0.940 0.300 11.079 o
11 3 9 0.752 0.582 0.155 41.570 o
11 4 0 1.507 1.493 0.097 103.466 o
11 4 1 3.308 3.363 0.136 50.492 o
11 4 2 3.321 3.325 0.136 50.502 o
11 4 4 6.195 6.387 0.194 23.490 o
11 4 5 0.563 0.456 0.087 131.102 o
12 0 0 1.409 1.638 0.262 14.575 o
12 0 2 19.647 20.451 0.552 2.809 o
12 0 4 7.289 7.628 0.339 8.202 o
12 0 6 19.446 20.577 0.523 3.084 o
12 1 0 8.279 8.239 0.300 10.108 o
12 1 1 3.389 3.286 0.165 35.031 o
12 1 2 8.224 8.074 0.233 15.961 o
12 1 3 3.489 3.383 0.136 50.210 o
12 1 4 0.477 0.475 0.078 165.899 o
12 1 5 3.433 3.412 0.136 50.271 o
12 1 6 11.975 12.290 0.310 8.703 o
12 1 7 2.333 2.714 0.145 45.719 o
12 2 0 0.643 0.630 0.078 165.256 o
12 2 3 2.086 2.035 0.116 71.166 o
12 2 4 3.817 3.964 0.145 43.429 o
12 2 5 2.611 2.442 0.116 69.721 o
12 2 6 0.983 0.834 0.078 163.634 o
12 2 7 1.178 0.940 0.165 36.707 o
12 3 0 4.309 4.497 0.155 37.775 o
12 3 1 0.277 0.233 0.068 217.325 o
12 3 3 2.363 2.617 0.116 70.061 o
12 3 4 4.653 4.342 0.165 33.591 o
12 3 5 3.645 3.528 0.233 17.963 o
12 4 0 3.996 3.935 0.155 38.398 o
12 4 1 1.601 1.657 0.204 23.997 o
13 0 2 11.946 12.571 0.407 5.420 o
13 1 0 1.283 1.367 0.126 62.258 o
13 1 1 2.053 2.152 0.116 71.120 o
13 1 2 1.308 1.231 0.116 72.942 o
13 1 3 2.403 2.404 0.116 70.199 o
13 2 0 1.042 1.018 0.116 73.341 o
13 2 1 3.065 2.966 0.145 44.883 o
13 2 2 2.191 2.481 0.213 21.720 o
13 2 3 4.202 4.207 0.233 17.769 o
;
_olex2_submission_special_instructions 'No special instructions were received'
loop_
_space_group_symop_id
_space_group_symop_operation_xyz
1 x,y,z
2 -x,y+1/2,-z+1/2
3 -x,-y,-z
4 x,-y-1/2,z-1/2
loop_
_atom_site_label
_atom_site_type_symbol
_atom_site_fract_x
_atom_site_fract_y
_atom_site_fract_z
_atom_site_U_iso_or_equiv
_atom_site_adp_type
_atom_site_occupancy
_atom_site_refinement_flags_posn
O1 O 0.43478(2) 0.44418(4) 0.349868(11) 0.01309(3) Uani 1.000000 .
O2 O 0.24251(2) 0.74254(4) 0.463702(11) 0.01285(3) Uani 1.000000 .
C1 C 0.40308(2) 0.55877(4) 0.447971(13) 0.00956(3) Uani 1.000000 .
O3 O 0.12998(2) 0.63124(5) 0.178422(11) 0.01271(3) Uani 1.000000 .
H3a H 0.0111(10) 0.4620(17) 0.1486(4) 0.0242(11) Uani 1.000000 .
H1 H 0.3095(13) 0.520(2) 0.2856(7) 0.0385(19) Uani 1.000000 .
H3b H 0.1857(9) 0.6891(15) 0.1160(5) 0.0240(11) Uani 1.000000 .
loop_
_atom_site_aniso_label
_atom_site_aniso_U_11
_atom_site_aniso_U_22
_atom_site_aniso_U_33
_atom_site_aniso_U_12
_atom_site_aniso_U_13
_atom_site_aniso_U_23
O1 0.01295(5) 0.01807(6) 0.00801(4) 0.00423(4) 0.00205(3) -0.00075(3)
O2 0.01121(5) 0.01770(6) 0.00901(4) 0.00519(3) 0.00116(3) -0.00066(3)
C1 0.00931(5) 0.01130(5) 0.00773(5) 0.00172(3) 0.00138(4) -0.00003(3)
O3 0.01068(4) 0.01747(6) 0.00913(4) -0.00145(3) 0.00068(3) 0.00112(4)
H3a 0.031(3) 0.020(3) 0.025(3) -0.004(2) 0.014(2) 0.007(2)
H1 0.048(4) 0.029(3) 0.055(5) -0.014(3) 0.044(4) -0.011(4)
H3b 0.015(2) 0.025(3) 0.031(3) -0.003(2) 0.004(2) -0.001(3)
loop_
_atom_type_symbol
_atom_type_description
_atom_type_scat_dispersion_real
_atom_type_scat_dispersion_imag
_atom_type_scat_source
_atom_type_scat_dispersion_source
C C 0.00347 0.00161
'Clementi & Roetti, C., At. Data Nucl. Data Tables 1974, 14, (177-478); Clementi & Raimondi, J. Chem. Phys., 1963, 38, (2686-2689)'
'Henke, Gullikson and Davis, At. Data and Nucl. Data Tables, 1993, 54, 2'
H H 0.00000 0.00000
'Clementi & Roetti, C., At. Data Nucl. Data Tables 1974, 14, (177-478); Clementi & Raimondi, J. Chem. Phys., 1963, 38, (2686-2689)'
'Henke, Gullikson and Davis, At. Data and Nucl. Data Tables, 1993, 54, 2'
N N 0.00653 0.00323
'Clementi & Roetti, C., At. Data Nucl. Data Tables 1974, 14, (177-478); Clementi & Raimondi, J. Chem. Phys., 1963, 38, (2686-2689)'
'Henke, Gullikson and Davis, At. Data and Nucl. Data Tables, 1993, 54, 2'
O O 0.01158 0.00611
'Clementi & Roetti, C., At. Data Nucl. Data Tables 1974, 14, (177-478); Clementi & Raimondi, J. Chem. Phys., 1963, 38, (2686-2689)'
'Henke, Gullikson and Davis, At. Data and Nucl. Data Tables, 1993, 54, 2'
loop_
_geom_angle_atom_site_label_1
_geom_angle_atom_site_label_2
_geom_angle_atom_site_label_3
_geom_angle
_geom_angle_site_symmetry_1
_geom_angle_site_symmetry_3
_geom_angle_publ_flag
H1 O1 C1 111.1(4) . . ?
O2 C1 O1 126.886(15) . . ?
C1 C1 O1 112.736(16) 3_666 . ?
C1 C1 O2 120.376(16) 3_666 . ?
H3b O3 H3a 103.8(4) . . ?
loop_
_geom_bond_atom_site_label_1
_geom_bond_atom_site_label_2
_geom_bond_distance
_geom_bond_site_symmetry_2
_geom_bond_publ_flag
O1 C1 1.28612(19) . ?
O1 H1 0.977(9) . ?
O2 C1 1.22107(19) . ?
C1 C1 1.5444(3) 3_666 ?
O3 H3a 0.936(6) . ?
O3 H3b 0.907(6) . ?
loop_
_refln_index_h
_refln_index_k
_refln_index_l
_refln_F_squared_meas
_refln_F_squared_sigma
-14 1 6 3.75 0.23
-13 0 6 35.97 0.8
-13 1 1 2.69 0.21
-13 1 2 14.22 0.4
-13 1 4 1.16 0.09
-13 1 5 10.56 0.41
-13 2 1 4.37 0.16
-13 2 3 1 0.19
-13 2 4 0.96 0.09
-13 2 5 1.25 0.15
-13 3 1 1.37 0.2
-13 3 2 0.55 0.16
-13 3 4 4.45 0.38
-13 3 5 2.01 0.13
-13 3 6 4.27 0.17
-13 3 7 2.29 0.19
-13 3 9 2.07 0.22
-12 0 2 8.57 0.51
-12 0 4 43.62 0.99
-12 0 6 6.11 0.31
-12 0 14 5.79 0.3
-12 0 16 19.04 0.46
-12 0 18 0.78 0.17
-12 0 20 2.78 0.23
-12 1 1 1.97 0.12
-12 1 2 0.99 0.11
-12 1 5 19.5 0.93
-12 1 6 4.84 0.19
-12 1 7 1.67 0.14
-12 1 15 14.64 0.65
-12 1 16 1.97 0.13
-12 1 17 0.94 0.1
-12 1 19 1.46 0.12
-12 1 20 3.81 0.26
-12 2 1 13.27 0.33
-12 2 2 5.51 0.31
-12 2 5 8.37 0.25
-12 2 7 3.5 0.13
-12 2 8 4.83 0.18
-12 2 9 4.21 0.17
-12 2 11 9.23 0.33
-12 2 12 1.19 0.09
-12 2 13 5.56 0.19
-12 2 14 0.4 0.09
-12 2 16 0.36 0.09
-12 2 17 0.32 0.08
-12 2 18 6.14 0.27
-12 2 19 3.88 0.23
-12 3 1 1.63 0.1
-12 3 2 0.46 0.07
-12 3 3 3.28 0.14
-12 3 6 0.92 0.1
-12 3 7 1.28 0.12
-12 3 11 1.79 0.13
-12 3 12 0.47 0.09
-12 3 13 0.52 0.07
-12 3 14 3.96 0.14
-12 3 16 1.62 0.2
-12 4 2 0.96 0.2
-12 4 3 2.04 0.11
-12 4 4 1.45 0.17
-12 4 5 2.08 0.14
-12 4 6 5.32 0.47
-12 4 8 0.61 0.08
-12 4 9 1.37 0.12
-12 4 11 1.55 0.12
-11 0 2 3.89 0.29
-11 0 4 9.54 0.27
-11 0 6 0.59 0.12
-11 0 10 8.06 0.25
-11 0 12 2.91 0.26
-11 0 14 35.57 0.75
-11 0 16 1.28 0.2
-11 0 18 12.72 0.4
-11 0 20 2.09 0.24
-11 0 22 8.39 0.31
-11 1 2 5.94 0.22
-11 1 3 13.7 0.48
-11 1 4 35.65 1.04
-11 1 5 2.11 0.14
-11 1 7 1.49 0.09
-11 1 8 1.45 0.14
-11 1 9 6.55 0.21
-11 1 10 3.9 0.16
-11 1 11 4.53 0.15
-11 1 12 14.13 0.35
-11 1 13 0.47 0.09
-11 1 14 6.72 0.28
-11 1 15 6.26 0.21
-11 1 16 2.73 0.13
-11 1 18 10.47 0.42
-11 1 19 11.73 0.4
-11 1 20 0.42 0.07
-11 2 1 2.76 0.13
-11 2 2 0.42 0.08
-11 2 3 1.29 0.12
-11 2 4 10.67 0.3
-11 2 5 2.16 0.13
-11 2 6 6.48 0.19
-11 2 7 8.57 0.22
-11 2 10 1.16 0.11
-11 2 11 2.04 0.16
-11 2 12 2.61 0.15
-11 2 13 0.53 0.07
-11 2 14 1.31 0.1
-11 2 15 10.95 0.28
-11 2 16 0.2 0.06
-11 2 17 0.68 0.09
-11 2 18 2.6 0.11
-11 2 19 1 0.07
-11 2 20 0.43 0.06
-11 2 21 4 0.23
-11 3 1 0.9 0.08
-11 3 2 3.1 0.14
-11 3 3 0.31 0.08
-11 3 4 4.7 0.28
-11 3 5 6.61 0.53
-11 3 6 3.04 0.12
-11 3 7 3.51 0.17
-11 3 9 1.13 0.11
-11 3 10 12.93 0.34
-11 3 11 4.46 0.18
-11 3 12 0.83 0.17
-11 3 13 2.58 0.28
-11 3 14 0.32 0.08
-11 3 16 3.92 0.17
-11 3 17 5.02 0.16
-11 4 1 1.31 0.12
-11 4 2 2.71 0.22
-11 4 3 5.56 0.38
-11 4 6 6.78 0.2
-11 4 7 0.49 0.07
-11 4 9 2.85 0.15
-11 4 10 3.72 0.16
-11 4 12 3.46 0.19
-11 4 13 6.05 0.38
-11 4 15 0.67 0.08
-11 4 16 0.59 0.09
-11 5 1 0.32 0.08
-11 5 2 6.43 0.2
-11 5 4 3.46 0.15
-11 5 5 0.48 0.11
-11 5 6 3.53 0.23
-11 5 8 1.22 0.11
-10 0 4 8.32 0.23
-10 0 6 12.17 0.33
-10 0 8 18.12 0.74
-10 0 10 12.01 0.77
-10 0 12 11.66 0.54
-10 0 14 0.78 0.1
-10 0 16 3.32 0.26
-10 0 18 67.55 1.51
-10 0 20 1.86 0.19
-10 0 22 1.36 0.12
-10 0 24 5.37 0.51
-10 1 1 3.44 0.11
-10 1 2 0.59 0.04
-10 1 3 2.22 0.09
-10 1 4 0.77 0.05
-10 1 5 9.45 0.23
-10 1 7 47.23 1.24
-10 1 8 19.91 0.46
-10 1 9 10.27 0.25
-10 1 10 6.48 0.17
-10 1 11 1.89 0.08
-10 1 12 4.02 0.12
-10 1 13 12.05 0.28
-10 1 14 18.53 0.43
-10 1 16 0.88 0.07
-10 1 17 15.95 0.37
-10 1 18 2.67 0.12
-10 1 19 1.94 0.1
-10 1 21 0.45 0.06
-10 1 22 12.34 0.39
-10 1 23 0.49 0.07
-10 2 1 0.51 0.05
-10 2 2 10.84 0.33
-10 2 3 50.13 1.18
-10 2 4 28.77 0.67
-10 2 7 1.34 0.06
-10 2 8 8.86 0.22
-10 2 9 13.72 0.35
-10 2 10 0.72 0.06
-10 2 11 12.11 0.33
-10 2 12 5.23 0.22
-10 2 13 12.05 0.29
-10 2 14 14.87 0.35
-10 2 16 0.65 0.06
-10 2 17 4.17 0.15
-10 2 18 0.53 0.06
-10 2 20 0.47 0.07
-10 2 21 1.21 0.08
-10 2 23 0.6 0.07
-10 3 1 2.63 0.12
-10 3 2 7.93 0.22
-10 3 3 3.69 0.24
-10 3 4 10.85 0.27
-10 3 6 11.22 0.39
-10 3 7 0.63 0.06
-10 3 8 6.07 0.25
-10 3 9 1.09 0.09
-10 3 10 8.15 0.34
-10 3 14 8.78 0.25
-10 3 15 2.86 0.16
-10 3 17 1.59 0.11
-10 3 19 0.94 0.07
-10 3 20 7.54 0.2
-10 3 21 3.26 0.18
-10 4 2 10.09 0.32
-10 4 3 6.47 0.29
-10 4 4 0.38 0.07
-10 4 5 1.07 0.08
-10 4 6 3.49 0.16
-10 4 8 3.05 0.2
-10 4 9 3.16 0.39
-10 4 10 7.58 0.24
-10 4 13 8.29 0.25
-10 4 16 11.13 0.3
-10 4 17 0.76 0.14
-10 4 19 1.32 0.16
-10 5 2 7.08 0.21
-10 5 4 2.21 0.14
-10 5 5 2.85 0.19
-10 5 6 6.24 0.17
-10 5 10 0.75 0.11
-10 5 11 1.05 0.1
-10 5 12 15.6 0.38
-10 5 14 0.79 0.09
-9 0 2 3.99 0.14
-9 0 4 56.56 1.23
-9 0 6 24.08 0.53
-9 0 8 4.26 0.14
-9 0 10 53.75 1.38
-9 0 14 1.96 0.1
-9 0 16 22.18 1.15
-9 0 20 1.11 0.11
-9 0 22 7.32 0.23
-9 0 24 4.18 0.16
-9 1 1 0.49 0.04
-9 1 2 1.49 0.06
-9 1 3 0.17 0.03
-9 1 4 10.53 0.25
-9 1 5 2.98 0.09
-9 1 6 22.31 0.51
-9 1 7 17.7 0.4
-9 1 8 4.78 0.13
-9 1 9 17.48 0.42
-9 1 10 1.19 0.06
-9 1 11 6.82 0.17
-9 1 13 0.36 0.04
-9 1 14 14.28 0.41
-9 1 15 0.57 0.05
-9 1 16 2.67 0.11
-9 1 17 37.53 0.84
-9 1 18 7.1 0.19
-9 1 19 2.73 0.11
-9 1 20 4.81 0.14
-9 1 21 7.31 0.19
-9 1 23 2.34 0.09
-9 1 24 0.75 0.08
-9 1 25 0.69 0.06
-9 2 1 5.05 0.15
-9 2 3 0.65 0.04
-9 2 4 0.36 0.04
-9 2 5 6.06 0.17
-9 2 6 35.81 0.8
-9 2 7 9.96 0.28
-9 2 8 56.47 1.25
-9 2 9 1.33 0.07
-9 2 10 5.64 0.16
-9 2 12 3.21 0.12
-9 2 13 32.38 0.73
-9 2 14 4.92 0.14
-9 2 15 0.51 0.05
-9 2 16 10.28 0.26
-9 2 17 9.09 0.23
-9 2 18 16.19 0.38
-9 2 19 4.12 0.14
-9 2 20 0.45 0.07
-9 2 21 7.62 0.2
-9 2 22 2.87 0.17
-9 2 23 8.41 0.22
-9 2 24 3.61 0.15
-9 3 1 2.89 0.11
-9 3 2 82.78 1.87
-9 3 3 13.13 0.31
-9 3 4 21.78 0.5
-9 3 6 1.06 0.06
-9 3 7 20.31 0.46
-9 3 8 6.71 0.17
-9 3 9 1.69 0.09
-9 3 10 5.02 0.17
-9 3 11 1.09 0.13
-9 3 12 44.18 0.99
-9 3 13 6.83 0.27
-9 3 14 6.28 0.22
-9 3 15 2.77 0.11
-9 3 16 3.31 0.11
-9 3 17 0.2 0.05
-9 3 18 3.04 0.14
-9 3 21 0.78 0.08
-9 3 22 2.58 0.12
-9 4 1 11.4 0.32
-9 4 2 3.46 0.15
-9 4 3 20.97 0.59
-9 4 4 0.32 0.05
-9 4 6 8.28 0.22
-9 4 7 0.96 0.08
-9 4 8 4.32 0.16
-9 4 9 1.73 0.12
-9 4 10 0.69 0.09
-9 4 11 5.87 0.22
-9 4 12 6.19 0.31
-9 4 13 7.87 0.23
-9 4 14 0.28 0.08
-9 4 18 0.25 0.08
-9 4 19 0.5 0.09
-9 4 20 6.47 0.24
-9 5 1 1.51 0.11
-9 5 6 0.89 0.09
-9 5 8 0.45 0.08
-9 5 9 3.89 0.17
-9 5 10 1.15 0.11
-9 5 12 3.34 0.16
-9 5 15 2.44 0.12
-9 5 16 10.15 0.26
-9 6 1 1.9 0.19
-9 6 3 4.37 0.35
-9 6 4 0.34 0.06
-9 6 5 3.64 0.14
-9 6 6 0.87 0.08
-9 6 10 0.88 0.17
-9 6 11 8.34 0.3
-8 0 2 3.56 0.14
-8 0 4 4.22 0.12
-8 0 8 50.76 1.11
-8 0 10 6.81 0.19
-8 0 12 3.08 0.1
-8 0 14 44.98 1.88
-8 0 16 12.74 0.31
-8 0 18 2.47 0.15
-8 0 20 44.09 0.97
-8 0 22 0.36 0.07
-8 0 24 0.8 0.08
-8 0 26 7.54 0.28
-8 1 1 29.96 0.69
-8 1 3 18.91 0.44
-8 1 4 29.72 0.69
-8 1 5 22.94 0.54
-8 1 6 1.71 0.06
-8 1 7 56.12 1.27
-8 1 8 5.93 0.15
-8 1 9 14.08 0.32
-8 1 10 36.83 0.81
-8 1 11 1.77 0.07
-8 1 12 1.72 0.08
-8 1 14 0.52 0.04
-8 1 15 16.8 0.43
-8 1 16 9.19 0.25
-8 1 17 7.24 0.2
-8 1 18 10.95 0.3
-8 1 20 1.15 0.07
-8 1 21 4.37 0.14
-8 1 23 0.91 0.07
-8 1 24 9.4 0.26
-8 1 25 0.25 0.05
-8 1 26 1.16 0.08
-8 2 1 40.2 0.93
-8 2 2 16.57 0.42
-8 2 3 7.05 0.18
-8 2 4 16.16 0.37
-8 2 5 34.66 0.8
-8 2 6 58.83 1.41
-8 2 7 6.63 0.16
-8 2 8 6.77 0.2
-8 2 9 1.41 0.07
-8 2 10 11.56 0.27
-8 2 11 20.65 0.48
-8 2 12 8.41 0.2
-8 2 13 2.17 0.08
-8 2 14 12.12 0.29
-8 2 16 39.31 1.03
-8 2 17 2.06 0.09
-8 2 18 14.57 0.45
-8 2 19 4.11 0.13
-8 2 20 0.34 0.05
-8 2 22 0.2 0.06
-8 2 23 2.92 0.14
-8 2 25 0.64 0.08
-8 3 1 0.28 0.05
-8 3 2 8.45 0.21
-8 3 3 7.1 0.19
-8 3 5 0.85 0.05
-8 3 6 34.31 0.76
-8 3 7 10.67 0.25
-8 3 8 21.89 0.56
-8 3 9 5.47 0.14
-8 3 10 9.97 0.27
-8 3 11 6.49 0.17
-8 3 12 53.13 1.26
-8 3 13 1.64 0.1
-8 3 14 1.28 0.09
-8 3 15 0.51 0.06
-8 3 16 18.18 0.52
-8 3 17 18 0.41
-8 3 19 1.12 0.07
-8 3 20 8.69 0.23
-8 3 22 24.43 0.55
-8 3 23 3.2 0.19
-8 4 1 21.7 0.49
-8 4 2 20.22 0.61
-8 4 3 16.07 0.37
-8 4 4 11.18 0.27
-8 4 5 3.04 0.1
-8 4 6 4.76 0.13
-8 4 7 3.1 0.12
-8 4 8 4.57 0.14
-8 4 10 0.32 0.07
-8 4 11 23.27 0.54
-8 4 12 18.1 0.44
-8 4 13 11.72 0.32
-8 4 15 3.23 0.21
-8 4 16 2.94 0.16
-8 4 18 5.12 0.16
-8 4 20 0.29 0.05
-8 4 21 8.09 0.23
-8 5 1 4.71 0.17
-8 5 2 27.93 0.63
-8 5 5 1.63 0.11
-8 5 6 0.46 0.08
-8 5 7 4.79 0.16
-8 5 8 8.27 0.22
-8 5 10 2.26 0.15
-8 5 12 0.82 0.09
-8 5 14 0.58 0.08
-8 5 15 0.76 0.08
-8 5 19 0.97 0.09
-8 6 1 0.29 0.08
-8 6 2 0.59 0.07
-8 6 3 0.36 0.07
-8 6 4 0.78 0.08
-8 6 6 0.41 0.07
-8 6 7 1.28 0.11
-8 6 11 0.88 0.18
-8 6 13 1.86 0.21
-8 6 14 0.5 0.09
-7 0 2 14.64 0.45
-7 0 4 41.05 0.93
-7 0 6 261.55 6.13
-7 0 8 0.27 0.04
-7 0 10 1.36 0.07
-7 0 12 5.88 0.15
-7 0 14 13.06 0.42
-7 0 16 7.41 0.23
-7 0 18 7.9 0.3
-7 0 20 0.43 0.07
-7 0 22 0.42 0.08
-7 0 24 8.51 0.41
-7 0 26 1.67 0.23
-7 1 1 18.45 0.44
-7 1 2 87.77 2.08
-7 1 3 3.87 0.1
-7 1 4 0.42 0.03
-7 1 5 2.29 0.06
-7 1 6 19.63 0.45
-7 1 7 53.13 1.18
-7 1 9 10.76 0.25
-7 1 10 30.3 0.68
-7 1 11 47.31 1.05
-7 1 12 2.89 0.09
-7 1 13 9.65 0.23
-7 1 14 15.75 0.38
-7 1 15 14.18 0.35
-7 1 16 6.27 0.18
-7 1 17 23.9 0.53
-7 1 18 0.23 0.04
-7 1 19 27.66 0.66
-7 1 20 4.63 0.14
-7 1 21 3.11 0.11
-7 1 22 1.25 0.1
-7 1 23 0.97 0.07
-7 1 24 0.89 0.07
-7 1 25 7.73 0.2
-7 1 26 0.67 0.07
-7 2 2 0.36 0.03
-7 2 3 22.95 0.52
-7 2 4 3.54 0.09
-7 2 5 10.3 0.24
-7 2 6 2.2 0.07
-7 2 7 19.8 0.45
-7 2 8 16.91 0.4
-7 2 9 16.95 0.39
-7 2 10 79.69 2.01
-7 2 11 23.34 0.53
-7 2 12 8.18 0.2
-7 2 13 5.23 0.14
-7 2 14 3.59 0.11
-7 2 15 43.88 0.96
-7 2 16 13.23 0.43
-7 2 17 2.13 0.08
-7 2 18 5.07 0.14
-7 2 19 0.29 0.05
-7 2 20 25.1 0.56
-7 2 21 12.77 0.47
-7 2 22 4.72 0.15
-7 2 23 3.87 0.13
-7 2 24 5.02 0.2
-7 2 25 2.5 0.13
-7 2 26 6.71 0.56
-7 3 1 2.04 0.07
-7 3 2 1.89 0.07
-7 3 3 2.3 0.08
-7 3 4 77.59 1.73
-7 3 5 34.45 0.76
-7 3 6 16.27 0.37
-7 3 9 10.01 0.24
-7 3 10 11.38 0.3
-7 3 11 0.26 0.04
-7 3 12 0.98 0.06
-7 3 13 7.9 0.21
-7 3 14 24.16 0.54
-7 3 15 4.82 0.15
-7 3 16 23.85 0.61
-7 3 17 0.24 0.05
-7 3 18 10.35 0.36
-7 3 20 2.9 0.16
-7 3 21 3.02 0.14
-7 3 22 2.7 0.16
-7 3 24 2.74 0.12
-7 4 1 21.07 0.49
-7 4 2 6.86 0.18
-7 4 3 0.68 0.05
-7 4 4 2.07 0.08
-7 4 5 23.89 0.58
-7 4 6 4.58 0.15
-7 4 7 4.54 0.13
-7 4 8 27.3 0.63
-7 4 9 5.63 0.18
-7 4 10 0.23 0.05
-7 4 11 14.68 0.48
-7 4 12 3.54 0.12
-7 4 14 3.54 0.14
-7 4 15 12.28 0.53
-7 4 16 9.97 0.26
-7 4 17 3.91 0.13
-7 4 19 0.68 0.06
-7 4 20 0.22 0.06
-7 4 21 8.5 0.24
-7 4 22 10.57 0.4
-7 5 1 3.93 0.15
-7 5 2 20.38 0.47
-7 5 3 3.51 0.15
-7 5 4 1.85 0.1
-7 5 5 1 0.08
-7 5 6 8.34 0.22
-7 5 7 0.55 0.06
-7 5 10 5.49 0.29
-7 5 11 9.4 0.25
-7 5 12 26.95 0.62
-7 5 14 1.34 0.1
-7 5 16 0.2 0.06
-7 5 17 2.5 0.14
-7 5 18 4.24 0.14
-7 5 19 0.55 0.17
-7 5 20 3.92 0.23
-7 6 1 16.83 1.51
-7 6 2 3.4 0.17
-7 6 4 0.73 0.1
-7 6 5 1.16 0.25
-7 6 6 6.49 0.22
-7 6 7 2.36 0.21
-7 6 8 4.64 0.24
-7 6 9 2.62 0.25
-7 6 11 1.98 0.23
-7 6 16 2.15 0.2
-7 7 4 0.75 0.16
-7 7 5 2.49 0.22
-7 7 6 0.9 0.17
-7 7 7 0.97 0.17
-6 0 2 191.52 5.97
-6 0 4 3.03 0.1
-6 0 6 171.35 3.82
-6 0 8 1.16 0.07
-6 0 10 295.92 7.05
-6 0 14 26.83 0.62
-6 0 16 138.21 3.12
-6 0 18 16.27 0.38
-6 0 20 10.34 0.28
-6 0 22 3.05 0.14
-6 0 24 13.53 0.52
-6 0 26 4.97 0.18
-6 1 1 1.45 0.05
-6 1 2 6.95 0.17
-6 1 3 1.29 0.04
-6 1 4 33.09 0.74
-6 1 5 100.04 2.23
-6 1 6 158.37 3.55
-6 1 7 2.89 0.08
-6 1 8 3.06 0.09
-6 1 9 45.38 1.01
-6 1 10 51.64 1.15
-6 1 11 4.18 0.11
-6 1 12 43.27 0.96
-6 1 13 5.1 0.13
-6 1 14 22.43 0.5
-6 1 15 3.73 0.1
-6 1 16 0.58 0.04
-6 1 17 1.06 0.05
-6 1 18 0.67 0.04
-6 1 19 12.47 0.29
-6 1 20 29.34 0.65
-6 1 21 13.38 0.32
-6 1 22 1.45 0.11
-6 1 23 2.28 0.11
-6 1 24 0.23 0.06
-6 1 25 1.24 0.1
-6 1 26 1.67 0.11
-6 1 27 1.81 0.14
-6 2 1 72.82 1.65
-6 2 2 40.74 0.92
-6 2 3 63.62 1.42
-6 2 4 5.63 0.14
-6 2 5 4.47 0.12
-6 2 6 1.17 0.04
-6 2 7 0.26 0.02
-6 2 8 13.91 0.32
-6 2 9 32.54 0.74
-6 2 10 9.91 0.23
-6 2 11 0.25 0.03
-6 2 12 9.4 0.23
-6 2 13 0.23 0.04
-6 2 14 6.63 0.17
-6 2 15 2.87 0.09
-6 2 16 0.34 0.04
-6 2 17 10.03 0.26
-6 2 18 20.28 0.46
-6 2 19 2.6 0.1
-6 2 20 21.16 0.75
-6 2 21 1.66 0.08
-6 2 23 0.6 0.07
-6 2 24 0.21 0.07
-6 2 25 12.84 0.32
-6 3 1 13.34 0.31
-6 3 2 11.84 0.29
-6 3 3 1.81 0.06
-6 3 4 4.89 0.13
-6 3 5 0.68 0.04
-6 3 6 7.01 0.21
-6 3 7 8.04 0.21
-6 3 8 41.1 0.91
-6 3 9 32.88 0.73
-6 3 10 0.61 0.04
-6 3 11 4.45 0.12
-6 3 12 0.78 0.05
-6 3 13 6.96 0.18
-6 3 14 58.58 1.29
-6 3 15 13.76 0.33
-6 3 16 1.89 0.08
-6 3 17 0.59 0.06
-6 3 18 8.68 0.27
-6 3 19 16 0.65
-6 3 20 0.96 0.07
-6 3 21 0.48 0.06
-6 3 22 4.44 0.16
-6 3 23 0.8 0.08
-6 3 24 20.1 0.46
-6 3 25 2.17 0.14
-6 4 1 8.25 0.22
-6 4 3 7.02 0.18
-6 4 4 43.23 0.98
-6 4 5 40.24 0.97
-6 4 6 1.93 0.09
-6 4 8 7.04 0.18
-6 4 10 1.94 0.11
-6 4 11 7.14 0.19
-6 4 12 12.06 0.29
-6 4 13 13.8 0.34
-6 4 14 14.25 0.34
-6 4 15 23.42 0.69
-6 4 16 0.57 0.06
-6 4 18 6.85 0.22
-6 4 19 1.1 0.08
-6 4 21 1.52 0.09
-6 4 22 0.52 0.07
-6 4 23 3.99 0.16
-6 5 2 0.81 0.07
-6 5 3 1.21 0.09
-6 5 4 37.91 0.93
-6 5 6 6.88 0.19
-6 5 7 2.81 0.15
-6 5 8 16.62 0.39
-6 5 9 1.37 0.08
-6 5 10 15.36 0.37
-6 5 11 0.54 0.07
-6 5 12 0.23 0.07
-6 5 13 0.52 0.07
-6 5 14 2.35 0.11
-6 5 15 1.5 0.11
-6 5 16 8.65 0.24
-6 5 17 0.28 0.06
-6 5 18 1.62 0.1
-6 5 21 3.27 0.21
-6 6 1 1.84 0.11
-6 6 2 4.63 0.18
-6 6 3 0.56 0.09
-6 6 4 3.38 0.19
-6 6 5 9.92 0.28
-6 6 6 2.07 0.12
-6 6 7 0.74 0.1
-6 6 8 0.53 0.1
-6 6 10 5.45 0.41
-6 6 11 10.03 0.55
-6 6 12 4.91 0.28
-6 6 13 0.74 0.21
-6 6 14 1.03 0.1
-6 6 15 3.79 0.16
-6 6 16 2.15 0.21
-6 7 1 6.09 0.2
-6 7 3 0.28 0.08
-6 7 4 0.44 0.1
-6 7 5 0.35 0.09
-6 7 6 1.2 0.09
-6 7 7 2.8 0.16
-6 7 9 2.94 0.23
-6 7 11 1.68 0.2
-5 0 2 95.38 2.15
-5 0 4 18.64 0.46
-5 0 6 120.82 2.71
-5 0 8 299.39 7.07
-5 0 10 106.11 2.37
-5 0 12 45.44 1.11
-5 0 14 0.59 0.04
-5 0 18 27.65 0.6
-5 0 20 106.19 2.41
-5 0 24 0.57 0.1
-5 0 26 14.5 0.43
-5 1 1 58.34 1.3
-5 1 2 264.11 5.97
-5 1 3 53.09 1.18
-5 1 4 97.29 2.16
-5 1 5 31.65 0.71
-5 1 6 4.13 0.1
-5 1 7 1.11 0.04
-5 1 8 17.74 0.42
-5 1 9 272.27 6.26
-5 1 10 26.56 0.6
-5 1 11 0.2 0.03
-5 1 12 25.74 0.57
-5 1 13 9.19 0.22
-5 1 14 27.23 0.64
-5 1 15 41.31 0.91
-5 1 16 57.11 1.39
-5 1 17 16.6 0.42
-5 1 18 0.61 0.04
-5 1 19 43.31 1.03
-5 1 20 0.62 0.05
-5 1 21 0.98 0.06
-5 1 22 1.51 0.09
-5 1 24 16.14 0.6
-5 1 25 1.18 0.12
-5 1 26 2.73 0.15
-5 1 27 2.35 0.11
-5 2 1 9.8 0.23
-5 2 2 0.64 0.03
-5 2 3 4.49 0.11
-5 2 4 29.27 0.66
-5 2 5 184.47 4.14
-5 2 6 83.68 1.91
-5 2 7 22.57 0.51
-5 2 8 2.02 0.07
-5 2 9 0.17 0.02
-5 2 11 40.87 0.96
-5 2 12 24.8 0.56
-5 2 13 75.47 1.68
-5 2 14 0.65 0.05
-5 2 15 12.48 0.29
-5 2 16 3.56 0.1
-5 2 17 8.14 0.24
-5 2 18 5.25 0.14
-5 2 19 11.73 0.38
-5 2 21 0.17 0.05
-5 2 22 10.27 0.44
-5 2 23 7.79 0.27
-5 2 24 1.86 0.11
-5 3 1 20.52 0.47
-5 3 2 0.09 0.02
-5 3 3 6.26 0.15
-5 3 4 11.85 0.29
-5 3 5 3.85 0.1
-5 3 6 4.79 0.12
-5 3 7 16.36 0.37
-5 3 8 2.28 0.07
-5 3 10 6.62 0.16
-5 3 11 0.61 0.04
-5 3 12 0.72 0.04
-5 3 14 0.92 0.06
-5 3 15 2.26 0.09
-5 3 18 13.2 0.39
-5 3 19 6.06 0.19
-5 3 20 0.31 0.05
-5 3 21 0.81 0.07
-5 3 23 4 0.13
-5 3 24 9.01 0.25
-5 3 25 0.85 0.09
-5 4 1 3.42 0.1
-5 4 3 24.35 0.55
-5 4 4 24.67 0.56
-5 4 5 13.75 0.32
-5 4 7 1.13 0.06
-5 4 8 25.79 0.57
-5 4 10 24.83 0.57
-5 4 11 0.38 0.05
-5 4 12 2.08 0.08
-5 4 13 15.83 0.37
-5 4 14 7.39 0.19
-5 4 15 14.18 0.34
-5 4 17 2.35 0.1
-5 4 18 17.65 0.56
-5 4 19 0.54 0.06
-5 4 21 0.2 0.07
-5 4 22 2.48 0.46
-5 4 23 9.42 0.32
-5 4 24 6.79 0.27
-5 5 1 2.88 0.12
-5 5 2 4.08 0.15
-5 5 3 3.33 0.14
-5 5 4 67.81 1.5
-5 5 5 0.39 0.07
-5 5 6 8.65 0.23
-5 5 7 2.52 0.1
-5 5 8 6.51 0.21
-5 5 9 3.13 0.11
-5 5 10 3.6 0.12
-5 5 12 12.65 0.34
-5 5 13 4.37 0.15
-5 5 14 49.89 2.49
-5 5 16 0.72 0.07
-5 5 18 1.49 0.13
-5 5 19 1.12 0.22
-5 5 20 2.71 0.19
-5 6 2 0.48 0.08
-5 6 3 20.89 1.05
-5 6 4 3.01 0.16
-5 6 5 1.28 0.21
-5 6 6 0.94 0.11
-5 6 7 1.88 0.12
-5 6 8 12.47 0.46
-5 6 9 2.64 0.13
-5 6 10 10.16 0.29
-5 6 11 0.85 0.11
-5 6 13 1.46 0.12
-5 6 15 4.42 0.33
-5 7 2 0.88 0.08
-5 7 3 0.62 0.07
-5 7 4 0.41 0.07
-5 7 7 2.6 0.15
-5 7 9 2.34 0.23
-5 7 10 2.33 0.22
-5 7 11 2.65 0.22
-4 0 2 1014.72 24.57
-4 0 4 130.36 2.86
-4 0 6 47.48 1.05
-4 0 8 592.1 14.64
-4 0 10 1.71 0.08
-4 0 12 251.15 5.84
-4 0 14 1.82 0.07
-4 0 16 60.2 1.45
-4 0 18 142.47 3.25
-4 0 22 1.48 0.11
-4 0 24 2 0.13
-4 0 26 11.7 0.39
-4 1 1 96.56 2.14
-4 1 2 59.99 1.33
-4 1 3 1.74 0.05
-4 1 4 35.71 0.8
-4 1 5 0.06 0.01
-4 1 6 185.85 4.14
-4 1 7 92.44 2.06
-4 1 8 183.26 4.17
-4 1 9 47.91 1.12
-4 1 11 1.8 0.06
-4 1 12 84.94 2.02
-4 1 13 16.06 0.36
-4 1 14 17.02 0.39
-4 1 15 0.11 0.03
-4 1 16 22.94 0.52
-4 1 17 4.65 0.13
-4 1 18 1.12 0.06
-4 1 19 55.81 1.23
-4 1 20 12.61 0.3
-4 1 21 1.54 0.08
-4 1 22 23.45 0.72
-4 1 23 9.72 0.25
-4 1 24 2.88 0.13
-4 1 25 4.61 0.2
-4 1 26 2.54 0.14
-4 1 27 5.67 0.19
-4 2 1 55.94 1.25
-4 2 2 13.34 0.31
-4 2 3 81.82 1.83
-4 2 4 64.51 1.44
-4 2 5 6.34 0.17
-4 2 6 6.14 0.16
-4 2 7 7.24 0.17
-4 2 8 85.31 1.95
-4 2 9 14.09 0.32
-4 2 10 31.84 0.71
-4 2 11 7.97 0.2
-4 2 12 0.82 0.04
-4 2 13 3.34 0.09
-4 2 14 23.03 0.54
-4 2 15 35.66 0.8
-4 2 16 10.6 0.26
-4 2 17 7.55 0.21
-4 2 18 8.05 0.26
-4 2 19 6.4 0.17
-4 2 21 4.57 0.17
-4 2 22 4.06 0.23
-4 2 23 18.9 0.5
-4 2 24 2.69 0.13
-4 2 25 3.34 0.13
-4 2 26 1.3 0.11
-4 2 27 7.33 0.28
-4 3 1 5.34 0.13
-4 3 2 14.1 0.33
-4 3 3 23.68 0.54
-4 3 4 248.01 5.69
-4 3 5 28.93 0.65
-4 3 6 8.33 0.2
-4 3 7 5.46 0.14
-4 3 8 0.3 0.03
-4 3 9 37.87 0.85
-4 3 10 64.78 1.45
-4 3 11 21.38 0.48
-4 3 12 12.78 0.3
-4 3 13 1.01 0.05
-4 3 14 32.36 0.71
-4 3 15 6.16 0.16
-4 3 16 4.06 0.12
-4 3 17 15.11 0.41
-4 3 18 2.56 0.09
-4 3 20 6.26 0.18
-4 3 21 1.62 0.08
-4 3 22 0.9 0.07
-4 3 23 0.34 0.06
-4 3 25 0.81 0.17
-4 4 1 0.18 0.03
-4 4 2 5.31 0.14
-4 4 3 60.51 1.38
-4 4 4 1.12 0.06
-4 4 5 11.57 0.27
-4 4 6 29.4 0.66
-4 4 7 9.61 0.23
-4 4 8 4.56 0.13
-4 4 9 2.22 0.1
-4 4 10 3.01 0.09
-4 4 11 0.13 0.04
-4 4 12 0.46 0.06
-4 4 13 30.31 0.67
-4 4 14 23.92 0.58
-4 4 15 0.86 0.06
-4 4 16 1.92 0.09
-4 4 17 4.82 0.15
-4 4 18 2.32 0.11
-4 4 20 4.85 0.17
-4 4 21 0.35 0.07
-4 4 22 3.08 0.28
-4 4 23 5.23 0.52
-4 5 2 22.59 0.51
-4 5 3 2.5 0.1
-4 5 4 0.5 0.06
-4 5 6 5.61 0.18
-4 5 8 8.5 0.22
-4 5 9 0.17 0.05
-4 5 10 12.62 0.31
-4 5 11 1.4 0.1
-4 5 12 8.23 0.23
-4 5 13 0.56 0.11
-4 5 14 13.74 0.36
-4 5 15 0.26 0.08
-4 5 17 1.66 0.13
-4 5 18 13.06 0.38
-4 5 19 0.44 0.1
-4 5 22 6.16 0.26
-4 6 2 4.95 0.19
-4 6 3 14.11 0.47
-4 6 4 3.67 0.15
-4 6 5 5.91 0.46
-4 6 6 1.84 0.14
-4 6 7 9.83 0.29
-4 6 8 1.48 0.11
-4 6 11 0.52 0.08
-4 6 12 4.46 0.31
-4 6 13 20.67 0.68
-4 6 14 5.78 0.28
-4 6 16 1.12 0.2
-4 7 2 4.84 0.32
-4 7 3 5.73 0.48
-4 7 4 2.66 0.15
-4 7 6 1.03 0.11
-4 7 7 2.79 0.25
-4 7 8 2.02 0.23
-4 7 9 8.21 0.38
-4 7 11 0.9 0.17
-3 0 2 15.2 0.34
-3 0 4 93.38 2.11
-3 0 6 14.97 0.35
-3 0 8 23.66 0.54
-3 0 10 4.45 0.13
-3 0 12 151.48 3.39
-3 0 14 18.52 0.42
-3 0 16 14.41 0.34
-3 0 18 35.79 0.78
-3 0 20 10.18 0.26
-3 0 22 100.06 2.42
-3 0 24 0.58 0.18
-3 0 26 4.7 0.28
-3 1 1 337.04 7.58
-3 1 2 35.45 0.79
-3 1 3 170.86 3.79
-3 1 4 242.63 5.41
-3 1 5 224.73 5.01
-3 1 6 0.34 0.02
-3 1 7 363.94 8.25
-3 1 8 8.83 0.21
-3 1 9 64.02 1.43
-3 1 10 3.84 0.1
-3 1 11 166.36 3.94
-3 1 12 56.38 1.25
-3 1 13 0.9 0.04
-3 1 14 0.35 0.03
-3 1 15 0.13 0.03
-3 1 16 32.61 0.73
-3 1 17 61.16 1.35
-3 1 18 40.87 0.91
-3 1 19 0.3 0.06
-3 1 20 2.1 0.1
-3 1 21 8.57 0.23
-3 1 22 2.29 0.11
-3 1 23 2.04 0.11
-3 1 24 0.25 0.07
-3 1 25 1.23 0.09
-3 1 26 18.15 0.58
-3 1 27 2.15 0.16
-3 2 1 87.67 1.94
-3 2 2 187.88 4.19
-3 2 3 316.22 7.14
-3 2 4 28.47 0.64
-3 2 5 2.69 0.07
-3 2 6 145.25 3.23
-3 2 7 175.56 3.92
-3 2 8 296.92 6.82
-3 2 9 54.31 1.2
-3 2 10 11.52 0.26
-3 2 11 23.87 0.54
-3 2 12 2.16 0.07
-3 2 13 55.46 1.33
-3 2 14 0.95 0.05
-3 2 15 29.78 0.71
-3 2 16 15.48 0.36
-3 2 17 0.97 0.06
-3 2 18 44.19 0.97
-3 2 19 0.33 0.05
-3 2 20 3.42 0.11
-3 2 21 11.32 0.29
-3 2 23 0.21 0.06
-3 2 24 3.02 0.13
-3 2 27 1.35 0.19
-3 3 1 4.28 0.11
-3 3 2 260.04 5.96
-3 3 3 8.77 0.28
-3 3 4 46.98 1.05
-3 3 5 22.41 0.51
-3 3 6 0.32 0.03
-3 3 7 4.11 0.11
-3 3 8 18.39 0.43
-3 3 9 5.67 0.14
-3 3 10 20.81 0.47
-3 3 11 1.45 0.05
-3 3 12 43.97 1.14
-3 3 13 9.64 0.24
-3 3 14 72.61 1.67
-3 3 15 1.74 0.09
-3 3 17 1.14 0.07
-3 3 18 3.47 0.15
-3 3 19 11.37 0.29
-3 3 20 4.2 0.14
-3 3 21 6.86 0.22
-3 3 22 10.77 0.58
-3 3 24 11.6 0.37
-3 3 25 2.61 0.22
-3 3 26 2.47 0.21
-3 4 1 21.18 0.49
-3 4 2 11.21 0.27
-3 4 3 58.97 1.32
-3 4 4 29.74 0.7
-3 4 5 0.37 0.03
-3 4 6 25.69 0.61
-3 4 7 16.77 0.39
-3 4 8 0.55 0.04
-3 4 9 0.59 0.04
-3 4 10 39.69 0.93
-3 4 11 4.02 0.13
-3 4 12 3.25 0.13
-3 4 13 33.5 0.73
-3 4 14 6.15 0.18
-3 4 16 4.39 0.17
-3 4 17 11.28 0.34
-3 4 18 4.43 0.16
-3 4 19 0.34 0.07
-3 4 20 9.51 0.44
-3 4 21 0.71 0.08
-3 4 23 8 0.32
-3 4 24 3.98 0.23
-3 5 1 0.21 0.04
-3 5 2 2.58 0.09
-3 5 3 4.64 0.13
-3 5 4 9.83 0.34
-3 5 5 1.19 0.07
-3 5 6 38.63 0.81
-3 5 7 4.14 0.16
-3 5 8 0.57 0.06
-3 5 9 4.45 0.15
-3 5 10 4.8 0.16
-3 5 11 1.5 0.1
-3 5 12 13.51 0.33
-3 5 13 0.41 0.09
-3 5 14 1.9 0.14
-3 5 16 18.63 0.54
-3 5 17 0.95 0.21
-3 5 18 1.28 0.12
-3 5 20 2.51 0.14
-3 5 22 1.79 0.19
-3 6 1 9.36 0.27
-3 6 2 2.02 0.12
-3 6 3 1.27 0.11
-3 6 4 1.46 0.09
-3 6 5 0.72 0.07
-3 6 6 1 0.1
-3 6 7 0.82 0.1
-3 6 9 4.64 0.19
-3 6 10 3.43 0.17
-3 6 11 0.38 0.1
-3 6 12 4.61 0.18
-3 6 13 2.08 0.14
-3 6 17 7.62 0.22
-3 7 1 0.84 0.15
-3 7 2 5.75 0.41
-3 7 3 0.3 0.1
-3 7 4 5.17 0.19
-3 7 5 2.11 0.19
-3 7 6 0.82 0.08
-3 7 9 0.39 0.09
-3 7 10 0.28 0.09
-3 7 11 0.57 0.09
-3 7 12 7 0.32
-3 7 13 4.82 0.24
-3 8 2 4.16 0.23
-3 8 3 1.02 0.17
-3 8 4 0.53 0.15
-2 0 2 653.34 14.49
-2 0 6 183.91 4.11
-2 0 8 480.04 11.18
-2 0 10 192.49 4.48
-2 0 12 16.98 0.39
-2 0 14 58.11 1.28
-2 0 16 12.38 0.3
-2 0 18 5.18 0.16
-2 0 20 17.86 0.41
-2 0 22 4.77 0.2
-2 1 1 199.06 4.46
-2 1 2 584.87 13.15
-2 1 3 21.75 0.48
-2 1 4 380.54 8.55
-2 1 5 21.98 0.49
-2 1 6 5.87 0.14
-2 1 7 35.44 0.8
-2 1 8 303.65 6.85
-2 1 9 23.61 0.53
-2 1 10 33.9 0.76
-2 1 11 85.61 1.92
-2 1 12 9.63 0.23
-2 1 13 32.88 0.74
-2 1 14 19.19 0.45
-2 1 15 11.63 0.27
-2 1 16 1.03 0.05
-2 1 17 31.89 0.78
-2 1 18 8.71 0.22
-2 1 19 1.93 0.1
-2 1 20 0.99 0.07
-2 1 21 60.2 1.34
-2 1 22 11.74 0.29
-2 1 24 2.39 0.11
-2 1 25 0.62 0.07
-2 1 26 1.46 0.13
-2 2 1 161.72 3.62
-2 2 2 508.27 11.66
-2 2 3 10.15 0.24
-2 2 4 23.95 0.53
-2 2 5 3.54 0.09
-2 2 6 74.91 1.66
-2 2 7 35.37 0.79
-2 2 8 29.82 0.67
-2 2 9 17.43 0.41
-2 2 10 94.2 2.09
-2 2 11 14.03 0.32
-2 2 12 112.36 2.64
-2 2 13 32.1 0.72
-2 2 14 13.86 0.32
-2 2 15 2.38 0.09
-2 2 16 38.83 1.11
-2 2 17 57.47 1.34
-2 2 18 29.22 0.74
-2 2 19 8.02 0.21
-2 2 20 7.34 0.21
-2 2 21 0.61 0.07
-2 2 22 10.1 0.26
-2 2 23 10.95 0.42
-2 2 24 0.44 0.12
-2 2 26 8.29 0.29
-2 3 1 150.27 3.36
-2 3 2 70 1.57
-2 3 3 1.55 0.07
-2 3 4 9.67 0.23
-2 3 5 7.14 0.18
-2 3 6 381.45 8.96
-2 3 7 84.53 1.89
-2 3 8 26.56 0.62
-2 3 9 8.38 0.2
-2 3 10 23.52 0.53
-2 3 11 20.73 0.48
-2 3 12 89.32 1.98
-2 3 13 3.98 0.11
-2 3 14 5.09 0.14
-2 3 15 11.97 0.28
-2 3 16 34.57 0.76
-2 3 17 4.65 0.15
-2 3 18 9.33 0.23
-2 3 19 1.54 0.09
-2 3 20 15.9 0.41
-2 3 22 11.65 0.33
-2 3 23 1.24 0.21
-2 3 24 1.93 0.22
-2 4 1 16.65 0.38
-2 4 2 61.78 1.39
-2 4 3 33.71 0.79
-2 4 4 0.49 0.03
-2 4 5 36.01 0.81
-2 4 6 3.98 0.11
-2 4 7 37.98 0.88
-2 4 8 0.61 0.04
-2 4 9 0.3 0.03
-2 4 10 25.1 0.65
-2 4 11 18.6 0.46
-2 4 12 0.18 0.05
-2 4 13 11.24 0.28
-2 4 14 9.69 0.26
-2 4 15 11.26 0.31
-2 4 16 15.29 0.65
-2 4 17 11.54 0.32
-2 4 18 1.24 0.13
-2 4 20 2.79 0.15
-2 4 21 2.54 0.12
-2 4 23 3.49 0.24
-2 4 24 7.12 0.29
-2 5 1 0.31 0.04
-2 5 2 15.93 0.42
-2 5 3 3.23 0.11
-2 5 4 3.69 0.12
-2 5 5 4.19 0.14
-2 5 7 0.3 0.06
-2 5 8 1.18 0.09
-2 5 9 1.07 0.06
-2 5 10 3.53 0.12
-2 5 11 0.61 0.06
-2 5 12 1.06 0.07
-2 5 13 5.88 0.21
-2 5 14 2.51 0.18
-2 5 16 13.78 0.36
-2 5 17 0.66 0.11
-2 5 19 1.41 0.12
-2 5 20 5.36 0.29
-2 5 21 1.34 0.2
-2 5 22 2.2 0.21
-2 6 1 0.6 0.07
-2 6 3 17.3 0.47
-2 6 5 9.97 0.27
-2 6 7 3.87 0.15
-2 6 8 2.25 0.12
-2 6 9 3.3 0.14
-2 6 11 6.74 0.2
-2 6 12 0.4 0.09
-2 6 14 1.76 0.25
-2 6 16 0.59 0.19
-2 7 1 7.04 0.25
-2 7 4 1.87 0.13
-2 7 6 3.48 0.17
-2 7 7 5.34 0.17
-2 7 8 4 0.17
-2 7 9 0.46 0.08
-2 7 10 1.61 0.13
-2 7 11 3.52 0.23
-2 7 12 1.08 0.2
-2 8 2 2.26 0.21
-2 8 4 2.9 0.22
-2 8 6 0.71 0.15
-1 0 4 910.06 23.1
-1 0 6 212.94 4.71
-1 0 8 507.51 11.99
-1 0 10 3.26 0.12
-1 0 12 111.87 2.48
-1 0 14 50.07 1.16
-1 0 16 23.18 0.55
-1 0 18 62.87 1.37
-1 0 20 44.98 1.87
-1 0 22 0.65 0.1
-1 0 24 22.04 0.53
-1 0 26 5.83 0.28
-1 1 2 164.5 3.94
-1 1 3 368.06 8.21
-1 1 4 263.17 5.85
-1 1 5 1.06 0.03
-1 1 6 0.52 0.02
-1 1 7 436.98 9.96
-1 1 8 98.87 2.2
-1 1 9 180.87 4.1
-1 1 11 76.08 1.69
-1 1 12 87.82 1.96
-1 1 13 5.74 0.14
-1 1 14 46.87 1.04
-1 1 15 10.8 0.25
-1 1 16 6.59 0.17
-1 1 17 1.96 0.09
-1 1 18 15.55 0.36
-1 1 19 10.3 0.34
-1 1 20 2.92 0.12
-1 1 21 14.4 0.34
-1 1 22 12.45 0.3
-1 1 23 1.71 0.14
-1 1 24 0.64 0.08
-1 1 25 1.28 0.29
-1 2 1 149.36 3.44
-1 2 2 8.68 0.2
-1 2 3 179.89 4.26
-1 2 4 244.63 5.46
-1 2 5 515.72 12.03
-1 2 6 19.53 0.44
-1 2 7 1.44 0.05
-1 2 8 47.93 1.07
-1 2 9 8.14 0.19
-1 2 10 193.4 4.35
-1 2 11 75.1 1.67
-1 2 12 34.78 0.78
-1 2 13 13.09 0.31
-1 2 14 1.25 0.06
-1 2 15 13.03 0.3
-1 2 18 5.55 0.29
-1 2 19 4.4 0.24
-1 2 20 51.23 1.14
-1 2 21 1.01 0.09
-1 2 22 19.9 0.52
-1 2 25 0.57 0.16
-1 2 26 2.13 0.2
-1 3 1 0.15 0.02
-1 3 2 33.82 0.77
-1 3 3 14.02 0.32
-1 3 4 58.57 1.35
-1 3 5 0.85 0.04
-1 3 6 110.97 2.56
-1 3 7 1.82 0.07
-1 3 8 6.76 0.17
-1 3 9 1.26 0.05
-1 3 10 32.98 0.76
-1 3 11 43.88 0.98
-1 3 12 0.22 0.03
-1 3 13 1.12 0.05
-1 3 14 28.82 0.63
-1 3 15 6.59 0.17
-1 3 16 123.23 2.79
-1 3 17 12.41 0.3
-1 3 18 1.13 0.07
-1 3 19 4.19 0.14
-1 3 21 13.4 0.54
-1 3 22 5.37 0.32
-1 3 23 2.31 0.14
-1 3 24 14.17 0.39
-1 3 25 0.92 0.16
-1 4 1 6.26 0.16
-1 4 2 10.11 0.24
-1 4 4 0.45 0.03
-1 4 5 62.82 1.49
-1 4 6 83.96 1.89
-1 4 7 29.43 0.68
-1 4 8 8.21 0.2
-1 4 9 1.35 0.07
-1 4 11 3.02 0.11
-1 4 12 22.19 0.5
-1 4 14 3.71 0.15
-1 4 15 41.14 0.91
-1 4 16 4.56 0.15
-1 4 17 10.59 0.27
-1 4 19 0.65 0.07
-1 4 20 10.33 0.34
-1 4 21 2.98 0.26
-1 5 1 10.11 0.25
-1 5 2 73.37 1.68
-1 5 3 1.17 0.07
-1 5 4 5.19 0.17
-1 5 5 0.19 0.04
-1 5 6 33.78 2.84
-1 5 7 1.05 0.1
-1 5 8 0.87 0.07
-1 5 9 7.11 0.19
-1 5 10 15.48 0.45
-1 5 11 1.62 0.11
-1 5 12 15.1 0.41
-1 5 14 2.08 0.15
-1 5 15 1.13 0.1
-1 5 17 0.39 0.08
-1 6 1 2.2 0.1
-1 6 2 7.51 0.22
-1 6 4 1.75 0.29
-1 6 5 0.89 0.09
-1 6 6 10.28 0.27
-1 6 7 9.69 0.26
-1 6 8 2.73 0.12
-1 6 10 0.57 0.07
-1 6 13 3.82 0.15
-1 6 15 5.9 0.19
-1 6 16 0.72 0.19
-1 6 17 2.07 0.24
-1 7 1 1.49 0.13
-1 7 3 3.4 0.16
-1 7 4 3.56 0.16
-1 7 6 4.51 0.16
-1 7 8 0.49 0.08
-1 7 11 4.96 0.3
-1 8 2 0.94 0.17
-1 8 4 1.06 0.17
-1 8 5 0.55 0.16
0 0 2 153.53 3.37
0 0 4 74.68 1.66
0 0 6 1055.59 24.55
0 0 8 305.19 6.91
0 0 10 411.44 9.75
0 0 12 14.07 0.33
0 0 14 53.96 1.2
0 0 16 12.2 0.3
0 0 18 2.68 0.15
0 0 20 12.79 0.34
0 0 22 17.13 1.14
0 0 24 1.76 0.23
0 1 1 487.73 10.81
0 1 2 97.62 2.19
0 1 3 19.15 0.43
0 1 4 1586.6 41.2
0 1 5 75.41 1.67
0 1 6 324.51 7.37
0 1 7 37.91 0.84
0 1 8 28.09 0.63
0 1 9 38.6 0.89
0 1 10 149.26 3.33
0 1 11 209.14 4.77
0 1 12 0.19 0.03
0 1 13 26.45 0.59
0 1 14 9.16 0.21
0 1 15 3.59 0.1
0 1 16 3.71 0.11
0 1 17 20.64 0.51
0 1 18 27.08 0.61
0 1 19 54.19 1.19
0 1 20 3.55 0.22
0 1 21 16.63 0.39
0 1 22 4.31 0.19
0 1 23 11.01 0.29
0 1 25 0.85 0.19
0 2 0 14.2 0.32
0 2 1 80 1.76
0 2 2 140.25 3.11
0 2 4 197.23 4.39
0 2 5 51.89 1.15
0 2 6 5.49 0.13
0 2 7 144.62 3.26
0 2 8 0.48 0.03
0 2 9 56.33 1.26
0 2 10 26.29 0.59
0 2 11 1.35 0.05
0 2 12 17.43 0.4
0 2 13 10.18 0.25
0 2 14 60.91 1.34
0 2 15 100.36 2.27
0 2 16 2.71 0.11
0 2 18 12.3 0.39
0 2 19 12.62 0.72
0 2 20 27.5 0.68
0 2 21 14.02 0.39
0 2 22 0.38 0.11
0 2 23 4.26 0.19
0 2 24 7.69 0.23
0 2 25 8.53 0.29
0 3 1 53.46 1.19
0 3 2 121.82 2.7
0 3 3 91.33 2.02
0 3 4 59.87 1.34
0 3 5 16.44 0.37
0 3 6 0.32 0.03
0 3 7 1.07 0.05
0 3 8 101.09 2.26
0 3 9 41.68 0.94
0 3 10 1.3 0.06
0 3 11 1.47 0.06
0 3 12 9.39 0.4
0 3 14 29.42 0.67
0 3 15 0.37 0.06
0 3 16 1.21 0.09
0 3 17 5.22 0.17
0 3 18 5.39 0.18
0 3 19 0.36 0.08
0 3 20 13.47 0.35
0 3 21 2.92 0.26
0 3 22 4.42 0.35
0 3 24 7.59 0.29
0 3 25 2.32 0.2
0 4 0 3 0.1
0 4 1 12.89 0.31
0 4 2 59.32 1.33
0 4 3 4.07 0.11
0 4 4 12.73 0.33
0 4 5 77.34 1.75
0 4 6 6.63 0.17
0 4 7 0.11 0.04
0 4 8 5.92 0.16
0 4 9 6.26 0.18
0 4 10 17.29 0.48
0 4 11 0.74 0.06
0 4 12 26.05 0.59
0 4 13 6.73 0.2
0 4 15 28.31 0.67
0 4 16 18.3 0.42
0 4 17 0.85 0.08
0 4 18 2.54 0.11
0 4 19 3.82 0.18
0 4 20 4.29 0.18
0 4 23 1.06 0.17
0 5 2 7.73 0.19
0 5 3 1.31 0.06
0 5 4 23.87 0.67
0 5 5 3.21 0.15
0 5 6 77.64 5.49
0 5 8 6.66 0.36
0 5 11 4.12 0.16
0 5 12 8.79 0.25
0 5 13 0.97 0.1
0 5 14 15.08 0.41
0 5 15 1.66 0.12
0 5 16 25.73 0.6
0 5 17 0.34 0.09
0 5 18 1 0.11
0 5 19 1.96 0.11
0 6 0 19.9 0.63
0 6 1 6.65 0.19
0 6 2 11.57 0.43
0 6 3 4.76 0.19
0 6 4 0.77 0.2
0 6 5 29.8 0.68
0 6 8 0.9 0.11
0 6 9 0.46 0.07
0 6 10 13.05 0.32
0 6 11 1.33 0.1
0 6 12 5.64 0.21
0 6 13 5.26 0.41
0 6 14 0.33 0.08
0 6 15 1.9 0.12
0 6 16 2.36 0.17
0 7 1 9.78 0.36
0 7 3 0.81 0.1
0 7 5 1.08 0.09
0 7 8 1.21 0.09
0 7 9 7.75 0.25
0 7 10 2.08 0.15
0 7 11 0.73 0.11
0 8 4 0.38 0.09
0 8 6 0.46 0.08
1 0 0 395.5 11.06
1 0 2 11.14 0.32
1 0 4 1692.51 18.79
1 0 6 235.85 5.22
1 0 8 74.58 1.75
1 0 10 687.69 17.62
1 0 12 6.36 0.2
1 0 14 87.77 2.3
1 0 16 13.21 0.32
1 0 18 93.99 2.35
1 0 20 97.53 2.24
1 0 22 4.37 0.16
1 1 1 40.8 0.9
1 1 2 449.96 10.47
1 1 3 844.63 19.01
1 1 4 71.03 1.57
1 1 5 120.88 2.68
1 1 6 223.68 4.99
1 1 7 19.11 0.43
1 1 8 95.87 2.14
1 1 9 195.51 4.46
1 1 10 75.75 1.69
1 1 12 2 0.07
1 1 13 7.02 0.17
1 1 14 131.75 2.96
1 1 15 4.38 0.13
1 1 16 24.25 0.56
1 1 17 3.9 0.12
1 1 18 4.33 0.16
1 1 19 12.28 0.3
1 1 20 5.5 0.24
1 1 21 10.74 0.44
1 1 22 3.15 0.16
1 1 23 8.6 0.26
1 1 24 15.7 0.48
1 2 0 347.25 7.84
1 2 1 285.4 6.39
1 2 2 0.08 0.01
1 2 3 381.96 8.7
1 2 4 20.57 0.46
1 2 5 94.37 2.09
1 2 6 169.62 3.82
1 2 7 84.7 1.88
1 2 8 5.95 0.15
1 2 9 7.45 0.18
1 2 10 4.68 0.12
1 2 11 8.83 0.21
1 2 12 15.03 0.34
1 2 13 28.03 0.67
1 2 14 6.92 0.2
1 2 15 0.86 0.06
1 2 16 5.93 0.17
1 2 17 4.34 0.16
1 2 19 6.52 0.39
1 2 20 0.4 0.1
1 2 21 2.46 0.21
1 2 22 12.03 0.33
1 2 23 0.51 0.09
1 2 24 10.74 0.37
1 3 0 19.91 0.45
1 3 1 32.58 0.73
1 3 2 48.66 1.09
1 3 3 0.07 0.02
1 3 4 8.39 0.2
1 3 5 22.62 0.52
1 3 6 45.31 1.01
1 3 7 19.75 0.45
1 3 8 25.98 0.59
1 3 9 10.22 0.25
1 3 10 0.76 0.04
1 3 11 16.02 0.43
1 3 12 35.91 0.9
1 3 13 30.33 0.81
1 3 14 15.65 0.4
1 3 15 1.01 0.09
1 3 17 1.74 0.12
1 3 18 39.31 1.09
1 3 19 15.74 0.45
1 3 20 0.29 0.08
1 3 21 1.25 0.25
1 3 23 2.63 0.25
1 3 24 4.47 0.24
1 4 0 18.46 0.42
1 4 1 0.58 0.03
1 4 2 57.15 1.28
1 4 3 14.85 0.35
1 4 4 3.08 0.09
1 4 5 53.51 1.2
1 4 6 8.34 0.2
1 4 7 1.35 0.06
1 4 8 60.16 1.44
1 4 9 12.89 0.33
1 4 11 1.45 0.08
1 4 12 1.56 0.1
1 4 13 8.88 0.25
1 4 14 1.85 0.1
1 4 15 19.98 0.46
1 4 16 13.52 0.37
1 4 17 4.6 0.16
1 4 18 0.88 0.09
1 4 19 4.68 0.19
1 4 20 2.74 0.13
1 4 22 8.06 0.3
1 5 0 4.38 0.13
1 5 1 0.1 0.03
1 5 2 12.38 0.31
1 5 3 0.65 0.04
1 5 4 98.33 4.37
1 5 5 4.22 0.55
1 5 7 1 0.11
1 5 8 8.66 0.25
1 5 9 0.86 0.09
1 5 10 2.28 0.13
1 5 11 0.87 0.09
1 5 12 24.28 0.56
1 5 13 0.59 0.09
1 5 14 20.38 0.5
1 5 16 7.24 0.22
1 6 0 7.1 0.19
1 6 1 6.66 0.44
1 6 2 3.07 0.16
1 6 3 0.6 0.19
1 6 4 5.79 0.34
1 6 5 12.91 0.44
1 6 6 4.22 0.19
1 6 8 13.6 0.34
1 6 9 12.85 0.35
1 6 10 6.88 0.31
1 6 13 2.4 0.2
1 6 14 0.66 0.09
1 6 15 12.84 0.43
1 6 16 1.15 0.31
1 7 0 2.71 0.26
1 7 1 2.05 0.25
1 7 2 0.65 0.19
1 7 3 0.65 0.2
1 7 4 1.72 0.14
1 7 5 3.87 0.14
1 7 9 4.83 0.19
1 7 10 0.65 0.18
1 7 11 2.81 0.15
1 8 0 4.83 0.17
2 0 0 26.1 0.6
2 0 4 8.58 0.2
2 0 6 4.03 0.11
2 0 8 107.68 2.45
2 0 10 35.13 0.77
2 0 12 79.62 1.74
2 0 14 103.11 2.27
2 0 16 37.45 0.79
2 0 18 5.19 0.29
2 0 20 20.33 0.73
2 0 22 15.72 0.47
2 1 0 387.87 9.26
2 1 1 72.56 1.6
2 1 2 2.85 0.07
2 1 3 492.52 11.32
2 1 4 9.79 0.22
2 1 5 21.13 0.47
2 1 6 436.26 10.03
2 1 7 30.92 0.69
2 1 8 48.27 1.12
2 1 9 181.35 4.1
2 1 10 43.64 0.97
2 1 11 1.82 0.06
2 1 12 25.22 0.57
2 1 13 124 2.78
2 1 14 3.28 0.17
2 1 15 5.37 0.21
2 1 16 0.46 0.05
2 1 17 4.65 0.16
2 1 18 22.4 0.53
2 1 19 36.48 0.8
2 1 20 27.34 0.63
2 1 21 10.15 0.66
2 1 22 0.6 0.14
2 1 23 7.74 0.24
2 2 0 546.64 12.69
2 2 1 1.88 0.06
2 2 2 3.23 0.08
2 2 3 18.1 0.41
2 2 4 1.28 0.04
2 2 5 160.34 3.58
2 2 6 10.74 0.25
2 2 7 58.75 1.31
2 2 8 57.32 1.28
2 2 9 80.12 1.86
2 2 10 77.26 1.73
2 2 11 32.47 0.74
2 2 12 0.39 0.04
2 2 13 37.21 0.87
2 2 14 1.73 0.1
2 2 15 13.14 0.32
2 2 16 13.3 0.33
2 2 17 48.35 1.07
2 2 18 2.42 0.13
2 2 20 2.09 0.29
2 2 22 3.24 0.23
2 2 23 11.33 0.72
2 3 0 13.23 0.31
2 3 1 31.16 0.7
2 3 2 93.78 2.09
2 3 3 4.71 0.12
2 3 4 224.6 5.09
2 3 5 8.36 0.2
2 3 6 2.44 0.07
2 3 7 30.52 0.69
2 3 8 1.74 0.06
2 3 9 1.43 0.05
2 3 10 2.55 0.08
2 3 11 0.25 0.04
2 3 12 3.95 0.12
2 3 14 8.89 0.32
2 3 15 5.45 0.18
2 3 16 3.87 0.16
2 3 18 1.43 0.16
2 3 19 0.28 0.08
2 3 21 1.89 0.14
2 3 23 5.1 0.27
2 3 24 1.51 0.2
2 4 0 13.12 0.31
2 4 2 2.06 0.07
2 4 3 56.59 1.28
2 4 4 55.16 1.25
2 4 5 18.53 0.43
2 4 6 3.58 0.1
2 4 7 18.85 0.44
2 4 8 5.41 0.16
2 4 9 7.04 0.18
2 4 10 1.62 0.07
2 4 11 0.29 0.06
2 4 12 38.06 0.84
2 4 13 12.39 0.31
2 4 14 8.47 0.22
2 4 15 5.9 0.18
2 4 17 6.92 0.21
2 4 18 11.77 0.3
2 4 19 4.11 0.17
2 4 20 0.34 0.07
2 4 22 2.19 0.21
2 5 0 11.6 0.29
2 5 1 3.94 0.16
2 5 2 2.11 0.08
2 5 3 1.47 0.07
2 5 4 2.86 0.11
2 5 5 1.28 0.1
2 5 6 2.11 0.12
2 5 8 78.91 2.3
2 5 9 6.13 0.28
2 5 10 3.87 0.19
2 5 11 0.32 0.08
2 5 12 1.02 0.1
2 5 13 1.77 0.12
2 5 14 19.56 0.47
2 5 15 1.37 0.11
2 5 16 7.4 0.22
2 6 0 1.13 0.09
2 6 1 0.57 0.07
2 6 2 8.02 0.25
2 6 3 15.12 0.47
2 6 4 7.92 0.36
2 6 6 0.37 0.11
2 6 7 6.22 0.27
2 6 8 0.84 0.09
2 6 9 0.5 0.09
2 6 11 3.49 0.18
2 6 12 8.7 0.31
2 6 13 0.7 0.09
2 6 14 4.69 0.17
2 7 0 1.17 0.11
2 7 1 2.45 0.15
2 7 2 0.42 0.1
2 7 3 2.13 0.14
2 7 4 4.83 0.2
2 7 6 2.45 0.1
2 7 7 3.62 0.12
2 7 8 0.48 0.07
2 8 0 3.01 0.22
2 8 4 1.45 0.18
3 0 0 412.18 10.06
3 0 2 195.91 4.35
3 0 4 22.22 0.55
3 0 6 589.9 16.82
3 0 8 10.75 0.25
3 0 10 1.21 0.06
3 0 12 290.83 7.15
3 0 14 3.9 0.22
3 0 16 11.57 0.3
3 0 18 11.22 0.53
3 0 20 39.52 0.87
3 0 22 36.68 0.78
3 1 0 115.58 2.58
3 1 1 455.18 10.37
3 1 2 466.05 10.8
3 1 3 44.07 0.98
3 1 4 12.34 0.28
3 1 5 5.43 0.13
3 1 6 4.96 0.12
3 1 7 29.82 0.69
3 1 8 39.12 0.88
3 1 9 1.49 0.06
3 1 10 86.29 1.94
3 1 11 13.9 0.32
3 1 12 11.23 0.26
3 1 13 37.33 0.82
3 1 14 0.69 0.07
3 1 15 3.1 0.13
3 1 16 61.63 1.32
3 1 17 1.36 0.12
3 1 18 2.95 0.16
3 1 19 8.46 0.3
3 1 20 0.51 0.09
3 1 21 4.38 0.41
3 1 22 0.8 0.17
3 1 24 5.43 0.28
3 2 0 2.2 0.06
3 2 1 8.38 0.2
3 2 2 286.53 6.48
3 2 3 105.69 2.34
3 2 4 95.15 2.13
3 2 5 64.64 1.48
3 2 6 46.27 1.04
3 2 7 3.84 0.1
3 2 8 105.41 2.35
3 2 9 2.34 0.07
3 2 10 11.17 0.28
3 2 11 9.57 0.23
3 2 12 22.35 0.53
3 2 13 2.99 0.11
3 2 14 8.14 0.23
3 2 15 1.28 0.1
3 2 16 1.77 0.12
3 2 17 7.26 0.21
3 2 18 22.2 0.52
3 2 19 15.05 0.91
3 2 20 6.73 0.23
3 2 21 5.73 0.21
3 2 22 1.98 0.25
3 2 23 1.31 0.22
3 3 0 76.14 1.69
3 3 1 2.24 0.07
3 3 2 21.42 0.49
3 3 3 99.23 2.23
3 3 4 111.57 2.65
3 3 5 0.18 0.02
3 3 6 21.4 0.49
3 3 7 2.25 0.07
3 3 8 119.34 2.67
3 3 9 37.98 0.99
3 3 10 0.22 0.03
3 3 11 16.43 0.38
3 3 12 34.1 1.09
3 3 13 12.65 0.37
3 3 14 52.24 1.29
3 3 15 5.15 0.18
3 3 16 8.89 0.25
3 3 17 7.72 0.25
3 3 18 2.16 0.15
3 3 19 0.71 0.1
3 3 20 0.36 0.1
3 3 21 3.87 0.27
3 3 22 6.42 0.3
3 4 0 6.53 0.17
3 4 1 0.33 0.03
3 4 2 2.46 0.07
3 4 3 19.04 0.44
3 4 4 39.03 0.88
3 4 5 0.27 0.03
3 4 6 0.27 0.03
3 4 7 56.66 1.25
3 4 8 21.04 0.48
3 4 9 9.83 0.24
3 4 10 12.17 0.33
3 4 12 1.88 0.09
3 4 13 14.32 0.34
3 4 14 3.28 0.14
3 4 16 2.35 0.13
3 4 17 17.18 0.49
3 4 18 10.19 0.29
3 4 19 1.15 0.13
3 5 0 17.96 0.42
3 5 1 9.25 0.35
3 5 2 3.28 0.13
3 5 5 1.88 0.09
3 5 6 16.5 0.4
3 5 7 5.03 0.18
3 5 8 1.71 0.09
3 5 9 0.36 0.06
3 5 12 1.64 0.12
3 5 13 0.34 0.08
3 5 14 1.78 0.1
3 5 15 1.91 0.15
3 5 16 4.62 0.16
3 5 18 15.63 0.39
3 6 0 0.6 0.13
3 6 1 1.01 0.25
3 6 2 1.55 0.13
3 6 3 1.1 0.17
3 6 4 1.35 0.11
3 6 5 3.58 0.17
3 6 6 0.92 0.08
3 6 7 16.11 0.4
3 6 8 0.29 0.07
3 6 9 1.2 0.14
3 6 10 2.35 0.19
3 6 11 2.8 0.14
3 6 12 2.86 0.13
3 6 13 4.26 0.16
3 7 0 1.26 0.14
3 7 2 3.82 0.34
3 7 3 5.08 0.28
3 7 4 0.84 0.08
3 7 6 0.69 0.06
3 7 8 1.3 0.22
3 7 9 2.4 0.25
4 0 0 46.17 1.01
4 0 4 39.05 0.91
4 0 6 13.26 0.31
4 0 8 1.13 0.06
4 0 10 4.45 0.13
4 0 12 2.89 0.22
4 0 16 51.25 1
4 0 22 31.91 0.67
4 1 0 2.58 0.06
4 1 1 159.05 3.56
4 1 2 192.63 4.3
4 1 3 216.72 4.86
4 1 4 3.1 0.09
4 1 5 92.77 2.06
4 1 6 40.38 0.92
4 1 7 8.29 0.2
4 1 8 29 0.65
4 1 9 20.9 0.47
4 1 10 0.25 0.03
4 1 11 133.08 2.98
4 1 12 11.86 0.28
4 1 13 6.46 0.17
4 1 14 2.51 0.11
4 1 15 9.89 0.27
4 1 16 3.41 0.16
4 1 17 9.33 0.27
4 1 18 0.58 0.09
4 1 19 1.27 0.11
4 1 20 19.61 0.5
4 1 21 14.82 0.43
4 1 22 5.24 0.29
4 1 23 0.69 0.16
4 2 0 124.07 2.84
4 2 1 77.87 1.75
4 2 2 305.63 6.99
4 2 3 56.77 1.26
4 2 4 15.94 0.36
4 2 5 0.62 0.03
4 2 6 7.08 0.17
4 2 7 156.71 3.55
4 2 8 0.74 0.04
4 2 9 14.51 0.34
4 2 10 41.61 0.94
4 2 11 1.3 0.08
4 2 12 105.59 2.34
4 2 13 27.8 0.66
4 2 14 11.07 0.39
4 2 15 27.44 0.62
4 2 16 2.56 0.13
4 2 17 5.35 0.2
4 2 18 5.95 0.21
4 2 19 3.19 0.16
4 2 20 3.4 0.25
4 2 21 2.14 0.25
4 2 22 14.21 0.41
4 3 0 6.17 0.15
4 3 1 37.86 0.87
4 3 2 1.06 0.04
4 3 3 1.44 0.05
4 3 4 50.24 1.25
4 3 5 3.65 0.1
4 3 6 108.18 2.43
4 3 7 0.35 0.03
4 3 8 55.32 1.23
4 3 9 6.48 0.16
4 3 10 10.02 0.24
4 3 11 0.41 0.05
4 3 13 13.74 0.34
4 3 16 24.78 0.61
4 3 17 3.22 0.16
4 3 18 36.18 0.81
4 3 19 2.65 0.32
4 3 21 4.18 0.26
4 3 22 2.3 0.22
4 4 0 67.58 1.51
4 4 1 0.47 0.03
4 4 2 0.56 0.03
4 4 3 2.89 0.08
4 4 4 1.59 0.06
4 4 5 21.22 0.49
4 4 6 14.07 0.33
4 4 7 41.63 1
4 4 8 21.84 0.49
4 4 9 1.06 0.06
4 4 10 1.49 0.08
4 4 11 0.54 0.07
4 4 12 0.3 0.06
4 4 13 0.53 0.08
4 4 14 22.48 0.53
4 4 15 5.47 0.19
4 4 17 19.18 1.22
4 4 18 0.23 0.08
4 4 20 1.78 0.2
4 5 0 0.27 0.04
4 5 1 1.98 0.11
4 5 2 0.83 0.06
4 5 3 3.64 0.11
4 5 4 23.48 0.52
4 5 5 2.24 0.09
4 5 6 10.02 0.28
4 5 8 2.14 0.1
4 5 10 15.61 0.62
4 5 11 7.84 0.22
4 5 12 2.13 0.11
4 5 16 9.07 0.38
4 5 17 1.15 0.19
4 5 18 0.76 0.15
4 6 0 1 0.09
4 6 1 3.87 0.14
4 6 2 0.52 0.08
4 6 3 0.64 0.09
4 6 5 2.91 0.2
4 6 7 0.8 0.08
4 6 8 2.3 0.12
4 6 9 2.01 0.17
4 7 0 0.4 0.07
4 7 1 5.57 0.18
4 7 2 0.89 0.08
4 7 5 1.16 0.08
4 7 6 7.58 0.22
4 7 7 0.44 0.08
5 0 0 65.23 1.43
5 0 2 679.39 17.8
5 0 4 11.88 0.39
5 0 6 6.53 0.17
5 0 8 147.21 3.42
5 0 10 74.2 2.71
5 0 12 18.17 0.41
5 0 14 16.26 0.41
5 0 16 16.6 0.43
5 0 18 1.95 0.23
5 0 20 2.12 0.25
5 1 0 0.44 0.03
5 1 1 112.58 2.5
5 1 2 60.11 1.34
5 1 3 1.88 0.06
5 1 4 39.76 0.96
5 1 5 1.3 0.05
5 1 6 82.69 1.85
5 1 7 4.99 0.13
5 1 8 1.55 0.05
5 1 9 1.91 0.06
5 1 10 0.73 0.06
5 1 11 29.35 0.68
5 1 12 56.9 1.19
5 1 13 17.06 0.39
5 1 15 18.86 0.47
5 1 18 5.89 0.31
5 1 19 0.72 0.18
5 1 20 1.16 0.19
5 1 21 26.37 0.59
5 2 0 25.35 0.57
5 2 1 26.22 0.6
5 2 2 3.53 0.09
5 2 3 24.41 0.56
5 2 4 62.51 1.4
5 2 5 15.31 0.35
5 2 6 49.22 1.18
5 2 7 4.33 0.11
5 2 8 14.06 0.32
5 2 9 10.74 0.27
5 2 10 42.02 1.01
5 2 11 11.17 0.27
5 2 12 21.98 0.5
5 2 14 6.44 0.18
5 2 16 12.8 0.33
5 2 17 26.32 0.6
5 2 18 2.89 0.26
5 2 19 2.82 0.25
5 2 21 2.71 0.24
5 2 22 13.46 0.38
5 3 0 127.56 2.92
5 3 1 27.27 0.62
5 3 2 5.6 0.15
5 3 3 4.61 0.12
5 3 4 4.02 0.11
5 3 5 41.55 0.94
5 3 6 91.26 2.03
5 3 7 4.89 0.13
5 3 8 3.42 0.1
5 3 9 0.32 0.04
5 3 10 39.38 0.9
5 3 11 21.58 0.49
5 3 12 0.63 0.06
5 3 13 4.74 0.15
5 3 14 31.55 0.71
5 3 15 0.77 0.09
5 3 16 33.72 1.01
5 3 19 4.61 0.28
5 4 0 9.42 0.24
5 4 1 4.65 0.15
5 4 2 0.16 0.03
5 4 3 1.28 0.06
5 4 4 25.86 0.64
5 4 5 19.49 0.68
5 4 6 8.72 0.23
5 4 7 19.65 0.45
5 4 9 7.91 0.2
5 4 10 16.64 0.5
5 4 11 2.58 0.12
5 4 12 0.48 0.08
5 4 14 2.53 0.13
5 4 15 13.26 0.34
5 4 16 1.41 0.1
5 4 17 5.29 0.2
5 4 18 8.2 0.32
5 4 19 1.87 0.21
5 5 0 5.41 0.2
5 5 1 0.16 0.04
5 5 2 5.13 0.16
5 5 3 1.18 0.06
5 5 4 3.58 0.14
5 5 5 0.35 0.05
5 5 6 6.76 0.23
5 5 7 1.34 0.08
5 5 8 7.86 0.22
5 5 9 0.28 0.06
5 5 13 0.38 0.08
5 5 14 2.98 0.13
5 5 15 0.85 0.1
5 5 16 2.84 0.22
5 6 0 7.88 0.23
5 6 1 4.95 0.16
5 6 2 4.62 0.17
5 6 3 2.26 0.12
5 6 4 1.73 0.12
5 6 5 8.24 0.27
5 6 6 3.14 0.15
5 6 7 12.61 0.74
5 6 8 0.8 0.08
5 6 9 2.54 0.13
5 6 11 0.42 0.1
5 7 0 2.02 0.12
5 7 1 9.33 0.28
5 7 2 1.84 0.17
5 7 3 2.21 0.11
5 7 4 1.26 0.25
5 7 5 1.15 0.21
6 0 0 235.44 7.26
6 0 2 29.96 0.87
6 0 4 1.53 0.07
6 0 6 48.34 1.29
6 0 8 15.6 0.38
6 0 10 34.36 0.74
6 0 12 98.52 2.06
6 0 14 4.6 0.27
6 0 16 2.24 0.24
6 1 0 0.64 0.03
6 1 1 187.16 4.22
6 1 2 61.94 1.44
6 1 3 22.84 0.54
6 1 4 55.68 1.26
6 1 5 60.05 1.39
6 1 6 21.69 0.49
6 1 7 12.16 0.33
6 1 8 42.81 1.07
6 1 9 34.65 0.79
6 1 10 0.31 0.05
6 1 11 32.4 0.72
6 1 12 0.66 0.08
6 1 13 14.54 0.42
6 1 15 2.11 0.24
6 1 16 27.97 0.63
6 1 18 3.13 0.26
6 1 19 6.38 0.3
6 1 21 1.83 0.22
6 2 1 9.8 0.23
6 2 2 0.08 0.02
6 2 3 14.07 0.33
6 2 4 48.79 1.09
6 2 5 98.38 2.21
6 2 6 2.28 0.08
6 2 7 1.13 0.06
6 2 8 5.34 0.14
6 2 9 35.88 0.81
6 2 10 1.48 0.08
6 2 11 5.9 0.18
6 2 12 3.42 0.2
6 2 13 7.2 0.23
6 2 14 35.16 0.76
6 2 15 16.14 0.46
6 2 16 8.15 0.34
6 2 17 1.49 0.24
6 2 18 0.7 0.18
6 2 20 3.27 0.25
6 3 0 0.45 0.05
6 3 2 0.73 0.04
6 3 3 0.82 0.05
6 3 4 0.31 0.04
6 3 5 0.19 0.04
6 3 6 0.23 0.04
6 3 7 5.38 0.14
6 3 8 6.31 0.17
6 3 9 3.92 0.12
6 3 10 33.87 0.78
6 3 11 1.95 0.09
6 3 12 1.36 0.11
6 3 13 0.74 0.08
6 3 15 13.34 0.35
6 3 16 6.53 0.32
6 3 18 9.94 0.35
6 4 0 16.44 0.37
6 4 2 27.38 0.61
6 4 3 0.3 0.04
6 4 4 6.25 0.17
6 4 5 15.03 0.51
6 4 6 0.81 0.05
6 4 7 2 0.08
6 4 9 7.41 0.22
6 4 10 19.57 0.54
6 4 11 1.81 0.12
6 4 12 0.39 0.08
6 4 14 3.21 0.14
6 4 15 5.12 0.2
6 4 16 4.11 0.17
6 4 18 0.61 0.15
6 5 0 28.3 0.68
6 5 1 4.34 0.13
6 5 2 0.17 0.05
6 5 3 0.58 0.07
6 5 4 16.17 0.6
6 5 6 48.99 1.11
6 5 7 3.26 0.13
6 5 8 0.62 0.06
6 5 9 1.52 0.09
6 5 10 0.45 0.1
6 5 12 0.62 0.09
6 5 13 1.78 0.13
6 5 14 8.88 0.31
6 6 0 13.88 0.35
6 6 1 2.37 0.13
6 6 2 5.21 0.26
6 6 3 5.62 0.22
6 6 4 0.31 0.08
6 6 5 1.34 0.09
6 6 7 2.19 0.11
6 6 8 0.99 0.11
6 6 9 0.47 0.13
6 7 0 1.86 0.14
6 7 1 0.69 0.08
6 7 2 0.64 0.19
7 0 0 111.02 3.12
7 0 2 35.92 0.92
7 0 4 273.48 6.63
7 0 6 1.08 0.08
7 0 8 43.34 0.93
7 0 10 60.8 1.32
7 0 12 18.51 0.44
7 0 14 12.86 0.38
7 1 0 83.5 1.94
7 1 1 1.24 0.05
7 1 2 0.17 0.03
7 1 3 7.51 0.19
7 1 4 34.82 0.89
7 1 5 40.41 1.01
7 1 6 1 0.06
7 1 7 1.37 0.07
7 1 8 47.82 1.11
7 1 10 3.28 0.12
7 1 11 17.48 0.41
7 1 12 15.97 0.44
7 1 13 16.62 0.46
7 1 14 24.31 0.55
7 1 15 24.1 0.56
7 1 17 3.63 0.26
7 1 19 4.63 0.25
7 1 20 0.54 0.14
7 2 0 36.65 0.82
7 2 1 10.95 0.27
7 2 2 6.47 0.17
7 2 3 4.8 0.14
7 2 4 0.53 0.07
7 2 5 0.77 0.06
7 2 6 6.1 0.2
7 2 7 3.5 0.12
7 2 8 7.18 0.19
7 2 9 21.21 0.67
7 2 10 1 0.07
7 2 11 10.37 0.26
7 2 13 4.31 0.29
7 2 14 6.95 0.33
7 2 15 11.83 0.4
7 2 16 1.17 0.19
7 2 18 4.28 0.26
7 2 19 17.09 0.42
7 3 0 0.56 0.04
7 3 1 27.97 0.64
7 3 2 22.71 0.52
7 3 3 15.33 0.36
7 3 4 14.04 0.39
7 3 5 1.02 0.06
7 3 6 6.91 0.18
7 3 7 3.31 0.11
7 3 8 12.65 0.3
7 3 9 10.35 0.39
7 3 10 2.01 0.1
7 3 12 3.57 0.41
7 3 13 1.84 0.17
7 3 16 1.78 0.23
7 3 18 3.91 0.24
7 4 0 9.96 0.24
7 4 1 1.4 0.08
7 4 2 1.77 0.08
7 4 3 1.02 0.06
7 4 4 2.63 0.09
7 4 5 21.2 0.48
7 4 6 31.69 0.71
7 4 9 10.83 0.31
7 4 10 0.39 0.08
7 4 12 5.45 0.3
7 4 13 0.28 0.09
7 4 14 7.35 0.44
7 4 15 3.85 0.25
7 4 16 1.38 0.2
7 5 0 13.74 0.36
7 5 2 13.3 0.34
7 5 3 1.16 0.09
7 5 4 2.59 0.11
7 5 6 1.03 0.07
7 5 7 0.19 0.05
7 5 8 3.86 0.17
7 5 10 22.62 0.68
7 5 11 1.39 0.12
7 5 12 1.2 0.21
7 6 0 1.05 0.11
7 6 2 2.41 0.36
7 6 3 0.33 0.1
7 6 4 4.59 0.22
7 6 5 4.83 0.33
7 6 6 3.63 0.14
7 6 7 3.78 0.26
8 0 0 27.22 0.6
8 0 2 14.81 0.49
8 0 4 65.4 1.53
8 0 6 4.41 0.17
8 0 8 29.88 0.66
8 0 10 0.71 0.13
8 0 12 26.85 0.56
8 1 1 0.45 0.05
8 1 2 2.14 0.09
8 1 3 83.23 2.47
8 1 4 33.75 0.77
8 1 6 4.21 0.13
8 1 7 0.24 0.04
8 1 8 19.02 0.44
8 1 9 9.76 0.34
8 1 10 19.1 0.56
8 1 11 6.37 0.28
8 1 12 4.46 0.29
8 1 13 11.94 0.39
8 1 15 1.56 0.23
8 1 16 0.63 0.16
8 1 18 22.35 0.49
8 2 0 41.77 1.23
8 2 1 22.01 0.5
8 2 2 0.17 0.04
8 2 3 4.94 0.14
8 2 4 14.15 0.34
8 2 5 7.38 0.19
8 2 7 34.98 0.8
8 2 8 4.27 0.14
8 2 10 15.45 0.39
8 2 13 4.26 0.29
8 2 15 2.75 0.25
8 2 16 2.12 0.23
8 2 17 0.98 0.17
8 3 0 17.68 0.41
8 3 1 0.2 0.04
8 3 2 9.47 0.33
8 3 3 0.56 0.05
8 3 4 10.65 0.27
8 3 5 17.22 0.41
8 3 6 14.31 0.34
8 3 8 3.73 0.18
8 3 10 2.67 0.13
8 3 11 6.33 0.41
8 3 12 3.45 0.28
8 3 13 6.66 0.32
8 3 14 6.08 0.3
8 3 15 0.97 0.18
8 3 16 2.7 0.22
8 4 1 2.37 0.1
8 4 2 14.19 0.41
8 4 3 2.62 0.11
8 4 4 2.51 0.12
8 4 5 2.87 0.18
8 4 6 3.9 0.17
8 4 7 4.88 0.32
8 4 9 13.56 0.87
8 4 10 6.07 0.31
8 4 12 6.29 0.3
8 5 0 1.03 0.14
8 5 2 7.04 0.24
8 5 3 4.24 0.16
8 5 4 0.88 0.07
8 5 6 7.3 0.23
8 5 7 2.2 0.22
8 5 8 20.13 0.48
8 5 9 2.92 0.16
8 5 10 0.86 0.09
8 6 1 0.55 0.08
8 6 2 5.22 0.19
8 6 3 1.32 0.18
8 6 4 2.92 0.15
9 0 0 18.22 0.42
9 0 2 45.77 1.43
9 0 4 4.6 0.18
9 0 6 27.66 0.67
9 0 10 15.08 0.46
9 1 0 32.77 0.76
9 1 2 4.66 0.14
9 1 3 26.1 0.83
9 1 4 2.48 0.11
9 1 5 5.94 0.17
9 1 6 7.35 0.2
9 1 7 13.55 0.35
9 1 8 2.11 0.15
9 1 9 2.22 0.24
9 1 10 9.51 0.26
9 1 12 1.08 0.18
9 1 14 9.17 0.33
9 1 15 0.88 0.16
9 1 16 2.25 0.21
9 2 0 1.67 0.07
9 2 1 3.53 0.12
9 2 2 35.54 0.92
9 2 3 5.23 0.15
9 2 4 35.5 0.81
9 2 5 3.15 0.13
9 2 6 3.05 0.12
9 2 7 1.53 0.09
9 2 8 2.26 0.13
9 2 9 16.38 0.4
9 2 10 1.97 0.12
9 2 11 9.39 0.52
9 2 12 6.86 0.32
9 2 14 7.83 0.32
9 2 15 2.81 0.23
9 3 0 2.24 0.11
9 3 1 6.37 0.18
9 3 2 2.38 0.14
9 3 3 14.64 0.35
9 3 4 6.83 0.28
9 3 5 1.46 0.15
9 3 6 16.75 0.42
9 3 8 17.28 0.86
9 3 10 2.98 0.15
9 3 11 4.19 0.37
9 3 12 4.87 0.28
9 3 14 1.18 0.2
9 4 1 2.3 0.12
9 4 2 13.26 0.33
9 4 5 0.25 0.07
9 4 6 5.11 0.2
9 4 7 19.12 1.02
9 4 8 11.77 0.63
9 4 9 5.21 0.35
9 4 12 0.48 0.16
9 5 1 0.84 0.07
9 5 2 4.29 0.26
9 5 3 1.48 0.09
9 5 4 1.11 0.09
9 5 5 0.75 0.1
9 5 8 5.36 0.48
10 0 0 7.85 0.24
10 0 2 2.79 0.11
10 0 4 14.06 0.82
10 0 6 17.69 0.42
10 0 8 1 0.2
10 0 10 12.66 0.41
10 1 0 9.67 0.27
10 1 1 31.97 0.81
10 1 3 8.2 0.21
10 1 4 9.15 0.24
10 1 5 3.87 0.16
10 1 6 7.8 0.26
10 1 8 1.24 0.1
10 1 9 1.08 0.14
10 1 10 5.41 0.19
10 1 11 3.75 0.16
10 1 12 0.72 0.16
10 1 13 1.73 0.21
10 2 0 9.37 0.43
10 2 1 1.62 0.12
10 2 2 28.8 0.77
10 2 3 7.64 0.28
10 2 4 1.44 0.12
10 2 5 10.06 0.26
10 2 6 7.33 0.29
10 2 7 3.78 0.15
10 2 8 3.24 0.34
10 2 9 0.39 0.08
10 2 10 6.79 0.29
10 2 11 1.18 0.18
10 2 12 16.63 0.43
10 2 13 0.79 0.16
10 3 0 0.71 0.08
10 3 1 1.26 0.1
10 3 2 18.46 0.51
10 3 3 4 0.14
10 3 4 3.41 0.23
10 3 5 0.28 0.07
10 3 6 14.08 0.35
10 3 7 11.3 0.51
10 3 8 24.21 2.84
10 3 9 0.46 0.07
10 3 10 1.03 0.16
10 3 12 1.54 0.2
10 4 0 2.43 0.18
10 4 1 5.2 0.29
10 4 3 1.58 0.11
10 4 4 3.39 0.22
10 4 5 1.06 0.09
10 4 6 0.88 0.09
10 4 7 7.06 0.23
10 4 8 0.39 0.13
10 5 0 2.1 0.11
10 5 1 2.73 0.14
10 5 2 0.66 0.1
10 5 3 0.38 0.08
10 5 4 1.94 0.21
10 5 5 0.95 0.16
11 0 0 32.17 1.56
11 0 2 24.67 0.8
11 0 6 2.75 0.27
11 0 10 0.69 0.18
11 1 1 4.09 0.16
11 1 2 8.31 0.29
11 1 3 11.31 0.31
11 1 4 1.79 0.12
11 1 5 12.78 0.32
11 1 6 3.4 0.14
11 1 7 4.69 0.3
11 1 9 1.34 0.1
11 1 10 5.97 0.18
11 2 1 12.04 0.41
11 2 3 0.85 0.11
11 2 4 7.05 0.31
11 2 6 19.19 0.95
11 2 7 16.2 0.4
11 2 8 3.16 0.14
11 2 9 0.8 0.11
11 2 10 0.97 0.17
11 2 11 4.49 0.25
11 3 0 18.55 0.44
11 3 1 2.11 0.13
11 3 2 1.11 0.08
11 3 3 1.42 0.12
11 3 4 3.08 0.19
11 3 5 0.83 0.07
11 3 6 2.36 0.12
11 3 8 0.97 0.31
11 3 9 0.6 0.16
11 4 0 1.54 0.1
11 4 1 3.47 0.14
11 4 2 3.43 0.14
11 4 4 6.59 0.2
11 4 5 0.47 0.09
12 0 0 1.69 0.27
12 0 2 21.1 0.57
12 0 4 7.87 0.35
12 0 6 21.23 0.54
12 1 0 8.5 0.31
12 1 1 3.39 0.17
12 1 2 8.33 0.24
12 1 3 3.49 0.14
12 1 4 0.49 0.08
12 1 5 3.52 0.14
12 1 6 12.68 0.32
12 1 7 2.8 0.15
12 2 0 0.65 0.08
12 2 3 2.1 0.12
12 2 4 4.09 0.15
12 2 5 2.52 0.12
12 2 6 0.86 0.08
12 2 7 0.97 0.17
12 3 0 4.64 0.16
12 3 1 0.24 0.07
12 3 3 2.7 0.12
12 3 4 4.48 0.17
12 3 5 3.64 0.24
12 4 0 4.06 0.16
12 4 1 1.71 0.21
13 0 2 12.97 0.42
13 1 0 1.41 0.13
13 1 1 2.22 0.12
13 1 2 1.27 0.12
13 1 3 2.48 0.12
13 2 0 1.05 0.12
13 2 1 3.06 0.15
13 2 2 2.56 0.22
13 2 3 4.34 0.24
