#------------------------------------------------------------------------------
#$Date: 2020-04-10 08:34:33 +0300 (Fri, 10 Apr 2020) $
#$Revision: 250651 $
#$URL: file:///home/coder/svn-repositories/cod/cif/2/02/20/2022072.cif $
#------------------------------------------------------------------------------
#
# This file is available in the Crystallography Open Database (COD),
# http://www.crystallography.net/. The original data for this entry
# were provided by IUCr Journals, http://journals.iucr.org/.
#
# The file may be used within the scientific community so long as
# proper attribution is given to the journal article from which the
# data were obtained.
#
data_2022072
loop_
_publ_author_name
'Jha, Kunal Kumar'
'Gruza, Barbara'
'Kumar, Prashant'
'Chodkiewicz, Michal Leszek'
'Dominiak, Paulina Maria'
_publ_section_title
;
 TAAM: a reliable and user friendly tool for hydrogen-atom location using
 routine X-ray diffraction data
;
_journal_issue                   3
_journal_name_full
'Acta Crystallographica Section B Structural Science, Crystal Engineering and Materials'
_journal_paper_doi               10.1107/S2052520620002917
_journal_volume                  76
_journal_year                    2020
_chemical_formula_moiety         'C4 H4 N2 O S'
_chemical_formula_sum            'C4 H4 N2 O S'
_chemical_formula_weight         128.16
_space_group_crystal_system      triclinic
_space_group_IT_number           2
_space_group_name_Hall           '-P 1'
_space_group_name_H-M_alt        'P -1'
_symmetry_Int_Tables_number      2
_audit_creation_date             2019-09-27
_audit_creation_method
;
Olex2 1.2
(compiled 2018.05.29 svn.r3508 for OlexSys, GUI svn.r5506)
;
_cell_angle_alpha                105.736(5)
_cell_angle_beta                 94.912(5)
_cell_angle_gamma                91.927(4)
_cell_formula_units_Z            2
_cell_length_a                   4.2427(4)
_cell_length_b                   5.9648(5)
_cell_length_c                   10.5801(10)
_cell_measurement_temperature    90.0(2)
_cell_volume                     256.32(4)
_computing_molecular_graphics    'Olex2 (Dolomanov et al., 2009)'
_computing_publication_material  'Olex2 (Dolomanov et al., 2009)'
_computing_structure_refinement  'olex2.refine (Bourhis et al., 2015)'
_diffrn_ambient_temperature      90.0(2)
_diffrn_measured_fraction_theta_full 0.8629
_diffrn_measured_fraction_theta_max 0.8629
_diffrn_measurement_device_type  'Bruker SMART APEX CCD area detector'
_diffrn_radiation_type           MoK\a
_diffrn_radiation_wavelength     0.71073
_diffrn_reflns_av_R_equivalents  0.0000
_diffrn_reflns_av_unetI/netI     0.0130
_diffrn_reflns_limit_h_max       9
_diffrn_reflns_limit_h_min       0
_diffrn_reflns_limit_k_max       13
_diffrn_reflns_limit_k_min       -13
_diffrn_reflns_limit_l_max       22
_diffrn_reflns_limit_l_min       -23
_diffrn_reflns_number            4983
_diffrn_reflns_theta_full        51.6335
_diffrn_reflns_theta_max         51.63
_diffrn_reflns_theta_min         3.55
_exptl_absorpt_coefficient_mu    0.509
_exptl_crystal_density_diffrn    1.6604
_exptl_crystal_F_000             132.2958
_refine_diff_density_max         0.5190
_refine_diff_density_min         -0.2324
_refine_diff_density_rms         0.0524
_refine_ls_d_res_high            0.4532
_refine_ls_d_res_low             5.7312
_refine_ls_goodness_of_fit_ref   1.2467
_refine_ls_hydrogen_treatment    refall
_refine_ls_matrix_type           full
_refine_ls_number_constraints    0
_refine_ls_number_parameters     109
_refine_ls_number_reflns         4983
_refine_ls_number_restraints     0
_refine_ls_restrained_S_all      1.2467
_refine_ls_R_factor_all          0.0179
_refine_ls_R_factor_gt           0.0171
_refine_ls_shift/su_max          0.0002
_refine_ls_shift/su_mean         0.0000
_refine_ls_structure_factor_coef Fsqd
_refine_ls_weighting_details
'w=1/[\s^2^(Fo^2^)+(0.0213P)^2^+0.0058P] where P=(Fo^2^+2Fc^2^)/3'
_refine_ls_weighting_scheme      calc
_refine_ls_wR_factor_gt          0.0455
_refine_ls_wR_factor_ref         0.0458
_reflns_Friedel_coverage         0.0
_reflns_limit_h_max              8
_reflns_limit_h_min              -9
_reflns_limit_k_max              12
_reflns_limit_k_min              -13
_reflns_limit_l_max              23
_reflns_limit_l_min              0
_reflns_number_gt                4762
_reflns_number_total             4983
_reflns_threshold_expression     I>=2u(I)
_iucr_refine_instructions_details
;
TITL 2-thiouracil
CELL 0.71073 4.2427 5.9648 10.5801 105.736 94.912 91.927
ZERR 2 0.0004 0.0005 0.001 0.005 0.005 0.004
LATT 1
SFAC C H N O S
UNIT 8 8 4 2 2

ACTA 
BOND $H
WGHT 0.021275 0.005772
FVAR 1.002459
REM <olex2.extras>
REM <HklSrc "%.\\7389f3eb36d1eb9b43a8741fd762db6f.hkl">
REM </olex2.extras>

S(2)  5     0.45628  0.64886  0.37117  11.00000  0.01346  0.01055  0.01138 =
 0.00217 -0.00332  0.00238 
O(4)  4    -0.24293  0.72111 -0.01033  11.00000  0.01975  0.01675  0.00992 =
 0.00043 -0.00428  0.00671 
N(1)  3     0.14215  1.02094  0.35764  11.00000  0.01177  0.01002  0.01006 =
 0.00113 -0.00128  0.00178 
N(3)  3     0.08329  0.71273  0.16995  11.00000  0.01226  0.01136  0.00881 =
 0.00135 -0.00146  0.00304 
C(2)  1     0.21661  0.80244  0.29575  11.00000  0.01023  0.00994  0.00900 =
 0.00186 -0.00089  0.00148 
C(4)  1    -0.13326  0.82220  0.10351  11.00000  0.01270  0.01247  0.00886 =
 0.00205 -0.00126  0.00305 
C(6)  1    -0.06599  1.14375  0.30022  11.00000  0.01282  0.01023  0.01164 =
 0.00182 -0.00075  0.00238 
C(5)  1    -0.21049  1.05175  0.17690  11.00000  0.01361  0.01190  0.01142 =
 0.00281 -0.00123  0.00355 
H(6)  2    -0.09670  1.31714  0.36060  11.00000  0.03514  0.02252  0.02332 =
 0.00062 -0.00959  0.01463 
H(5)  2    -0.37310  1.14125  0.13034  11.00000  0.03452  0.03886  0.03198 =
 0.00861 -0.00921  0.01100 
H(1)  2     0.25501  1.09686  0.44657  11.00000  0.02426  0.02249  0.01824 =
 0.00451  0.00382  0.00390 
H(3)  2     0.13418  0.55719  0.11974  11.00000  0.02432  0.03666  0.01676 =
 0.00827 -0.00618 -0.00290 
HKLF 4

END
Q1 1 0.541667 0.666667 0.35 11 0.05 0.52
Q2 1 0.333333 0.638889 0.383333 11 0.05 0.42
Q3 1 -0.25 0.75 -0.016667 11 0.05 0.27
Q4 1 -0.208333 1.055556 0.183333 11 0.05 0.19
Q5 1 0.041667 1.055556 0.316667 11 0.05 0.18
Q6 1 0.041667 0.777778 0.2 11 0.05 0.18
Q7 1 -0.666667 0.944444 0.116667 11 0.05 0.17
Q8 1 -0.375 1.027778 0.25 11 0.05 0.14
Q9 1 -0.166667 0.888889 0.116667 11 0.05 0.14
Q10 1 0.25 1.222222 0.216667 11 0.05 0.14
Q11 1 0.166667 1.416667 0.433333 11 0.05 0.13
Q12 1 0.208333 1.277778 0.483333 11 0.05 0.13
Q13 1 0.041667 1.222222 0.15 11 0.05 0.13
Q14 1 -0.125 1.25 0.5 11 0.05 0.12
Q15 1 0.291667 0.388889 0.283333 11 0.05 0.12
Q16 1 0.125 0.527778 0.15 11 0.05 0.12
Q17 1 0.666667 0.5 0.45 11 0.05 0.11
Q18 1 0 1.583333 0.466667 11 0.05 0.11
Q19 1 -0.125 1.055556 0.016667 11 0.05 0.11
Q20 1 0.083333 0.944444 0.15 11 0.05 0.11

  REM The information below was added by Olex2.
  REM
  REM R1 = 0.0171 for 4762 Fo > 4sig(Fo) and 0.0179 for all 4983 data
  REM 109 parameters refined using 0 restraints
  REM Highest difference peak 0.5190, deepest hole -0.2324
  REM Mean Shift 0.0000, Max Shift 0.0002.

  REM +++ Tabular Listing of Refinement Information +++
  REM R1_all = 0.0179
  REM R1_gt = 0.0171
  REM wR_ref = 0.0458
  REM GOOF = 1.2467
  REM Shift_max = 0.0002
  REM Shift_mean = 0.0000
  REM Reflections_all = 4983
  REM Reflections_gt = 4762
  REM Parameters = 109
  REM Hole = -0.2324
  REM Peak = 0.5190
  REM Flack = n/a

  
;
_cod_data_source_file            46_TAAM_ANIS_max.cif
_cod_data_source_block           46_TAAM_ANIS_max
_cod_database_code               2022072
_olex2_refinement_description
;
;
_iucr_refine_fcf_details
;
data_2-thiouracil
_computing_structure_refinement   'olex2.refine (Bourhis et al., 2015)'
_shelx_refln_list_code            4
loop_
  _space_group_symop_id
  _space_group_symop_operation_xyz
  1  x,y,z
  2  -x,-y,-z

_space_group_crystal_system       triclinic
_space_group_IT_number            2
_space_group_name_H-M_alt         'P -1'
_space_group_name_Hall            '-P 1'
_symmetry_space_group_name_H-M    'P -1'
_symmetry_space_group_name_Hall   '-P 1'
_symmetry_Int_Tables_number       2
_cell_length_a                    4.2427(4)
_cell_length_b                    5.9648(5)
_cell_length_c                    10.5801(10)
_cell_angle_alpha                 105.736(5)
_cell_angle_beta                  94.912(5)
_cell_angle_gamma                 91.927(4)
_cell_volume                      256.32(4)
loop_
  _refln_index_h
  _refln_index_k
  _refln_index_l
  _refln_F_squared_calc
  _refln_F_squared_meas
  _refln_F_squared_sigma
  _refln_F_squared_weight
  _refln_observed_status
-9 -2 7 0.201 0.308 0.060 406.597 o
-9 -1 7 0.492 0.498 0.070 257.998 o
-9 0 7 0.285 0.308 0.070 306.380 o
-8 -6 1 1.841 1.921 0.109 82.826 o
-8 -6 2 0.324 0.358 0.050 451.745 o
-8 -6 3 8.172 8.757 0.239 14.714 o
-8 -6 4 1.727 1.871 0.070 122.010 o
-8 -6 5 0.129 0.159 0.050 613.485 o
-8 -6 6 0.327 0.348 0.050 452.450 o
-8 -6 7 0.224 0.159 0.050 550.703 o
-8 -6 8 1.049 1.095 0.060 197.245 o
-8 -5 1 0.841 0.945 0.090 150.175 o
-8 -5 2 1.027 1.035 0.090 139.581 o
-8 -5 3 1.674 1.761 0.070 126.026 o
-8 -5 4 4.287 4.428 0.109 44.309 o
-8 -5 5 0.456 0.358 0.050 403.010 o
-8 -5 6 0.590 0.677 0.050 323.995 o
-8 -5 7 0.062 0.080 0.050 702.915 o
-8 -5 8 1.354 1.572 0.070 143.909 o
-8 -5 9 0.011 0.080 0.050 754.272 o
-8 -5 10 0.406 0.468 0.050 401.504 o
-8 -5 11 0.063 0.040 0.050 720.980 o
-8 -4 1 2.601 2.866 0.129 56.741 o
-8 -4 2 6.251 6.588 0.199 21.297 o
-8 -4 3 30.016 30.878 0.438 2.577 o
-8 -4 4 4.083 4.169 0.109 46.488 o
-8 -4 5 18.469 19.215 0.299 5.667 o
-8 -4 6 2.243 2.368 0.080 92.114 o
-8 -4 7 0.620 0.687 0.060 270.248 o
-8 -4 8 1.458 1.622 0.100 102.503 o
-8 -4 9 7.282 7.831 0.159 21.525 o
-8 -4 10 0.031 0.100 0.070 390.490 o
-8 -4 11 0.024 0.080 0.080 306.158 o
-8 -4 12 0.107 0.090 0.070 370.532 o
-8 -3 1 0.014 0.020 0.070 407.799 o
-8 -3 2 0.555 0.438 0.080 213.637 o
-8 -3 3 0.027 0.030 0.060 540.763 o
-8 -3 4 14.813 15.583 0.249 8.011 o
-8 -3 5 1.609 1.542 0.070 133.053 o
-8 -3 6 0.804 0.806 0.090 155.583 o
-8 -3 7 3.009 3.055 0.129 52.596 o
-8 -3 8 9.182 9.235 0.239 13.581 o
-8 -3 9 0.124 0.119 0.070 362.329 o
-8 -3 10 1.635 1.801 0.109 87.526 o
-8 -3 11 2.032 2.299 0.119 70.644 o
-8 -3 12 0.283 0.348 0.080 247.765 o
-8 -3 13 0.004 0.060 0.070 404.666 o
-8 -2 1 4.822 5.204 0.179 28.103 o
-8 -2 4 12.759 13.205 0.308 8.226 o
-8 -2 5 1.961 1.940 0.109 80.680 o
-8 -2 6 1.045 1.055 0.090 138.376 o
-8 -2 7 1.156 1.244 0.090 130.072 o
-8 -2 8 4.753 4.846 0.159 31.837 o
-8 -2 9 2.181 2.239 0.109 75.020 o
-8 -2 10 7.797 8.080 0.219 16.570 o
-8 -2 11 0.010 0.109 0.070 395.103 o
-8 -2 12 0.142 0.219 0.080 275.515 o
-8 -2 13 0.299 0.418 0.070 293.959 o
-8 -1 4 2.147 1.960 0.109 77.599 o
-8 -1 5 7.661 7.881 0.209 17.471 o
-8 -1 6 11.372 11.294 0.269 10.289 o
-8 -1 7 1.066 1.075 0.090 137.074 o
-8 -1 8 3.264 3.045 0.129 50.702 o
-8 -1 9 24.409 24.818 0.508 3.000 o
-8 -1 10 16.101 16.519 0.368 5.782 o
-8 -1 11 1.817 2.040 0.109 82.234 o
-8 -1 12 3.474 3.642 0.139 44.383 o
-8 -1 13 2.967 3.164 0.129 52.499 o
-8 0 5 0.082 0.010 0.060 516.999 o
-8 0 6 1.137 1.214 0.090 131.398 o
-8 0 7 0.508 0.557 0.080 212.468 o
-8 0 8 0.045 0.070 0.070 390.541 o
-8 0 9 5.644 4.976 0.169 27.537 o
-8 0 10 1.633 1.722 0.109 88.307 o
-8 0 11 2.217 2.438 0.119 67.529 o
-8 0 12 1.384 1.363 0.090 119.819 o
-8 0 13 0.304 0.289 0.070 304.575 o
-8 1 5 0.271 0.358 0.070 304.218 o
-8 1 6 0.803 0.707 0.070 210.626 o
-8 1 7 4.291 4.408 0.149 36.156 o
-8 1 8 0.764 0.677 0.080 186.231 o
-8 1 9 4.381 4.388 0.159 33.968 o
-8 1 10 1.290 1.314 0.090 123.890 o
-8 1 11 6.794 7.413 0.209 18.972 o
-8 1 12 0.407 0.597 0.080 220.235 o
-8 2 6 1.776 1.811 0.100 93.036 o
-8 2 7 2.280 2.309 0.109 73.125 o
-8 2 8 1.526 1.841 0.100 98.237 o
-8 2 9 0.136 0.080 0.060 474.478 o
-8 2 10 7.048 6.926 0.199 19.710 o
-8 2 11 0.858 0.915 0.060 224.597 o
-8 2 12 1.926 2.100 0.109 79.963 o
-8 3 7 4.762 4.657 0.159 32.128 o
-8 3 8 0.727 0.667 0.060 256.074 o
-8 3 9 1.805 2.000 0.080 107.723 o
-8 3 10 0.470 0.537 0.050 371.418 o
-8 3 11 0.016 0.010 0.060 553.208 o
-8 4 5 7.014 7.254 0.209 18.772 o
-8 4 6 17.805 19.703 0.428 4.547 o
-8 4 7 7.961 8.130 0.229 15.780 o
-8 4 8 0.695 0.806 0.060 251.022 o
-8 4 9 0.054 0.090 0.040 1024.230 o
-8 5 2 4.389 4.418 0.159 33.883 o
-8 5 3 3.550 3.821 0.149 40.898 o
-8 5 4 9.445 9.483 0.249 12.844 o
-8 5 5 6.334 6.856 0.199 20.925 o
-8 5 6 16.569 17.952 0.398 5.196 o
-8 5 7 0.001 0.010 0.070 413.402 o
-8 6 1 4.557 4.886 0.169 30.820 o
-8 6 2 9.499 10.230 0.259 12.134 o
-8 6 3 0.021 0.050 0.070 400.928 o
-8 6 4 7.466 8.319 0.229 16.218 o
-8 6 5 0.316 0.458 0.080 237.338 o
-7 -8 2 2.804 3.045 0.090 70.892 o
-7 -8 3 0.715 0.707 0.060 255.018 o
-7 -8 4 0.235 0.308 0.050 503.652 o
-7 -8 5 4.258 4.548 0.109 44.115 o
-7 -8 6 9.687 10.130 0.249 12.411 o
-7 -8 7 0.675 0.716 0.060 259.980 o
-7 -8 8 2.959 3.174 0.090 67.947 o
-7 -8 9 3.845 4.249 0.109 47.859 o
-7 -8 10 1.233 1.323 0.090 125.740 o
-7 -7 1 2.879 3.154 0.139 49.714 o
-7 -7 2 0.008 0.010 0.050 798.520 o
-7 -7 3 2.375 2.607 0.090 80.972 o
-7 -7 4 0.064 0.010 0.050 735.720 o
-7 -7 5 1.052 1.105 0.070 174.628 o
-7 -7 6 3.878 4.150 0.109 47.983 o
-7 -7 7 0.049 0.050 0.050 730.700 o
-7 -7 8 0.206 0.179 0.050 555.019 o
-7 -7 9 0.141 0.179 0.050 597.781 o
-7 -7 10 1.548 1.731 0.070 131.652 o
-7 -7 11 0.048 0.090 0.060 513.707 o
-7 -7 12 1.076 1.105 0.060 194.515 o
-7 -7 13 1.609 1.602 0.100 99.098 o
-7 -6 1 0.546 0.527 0.060 295.875 o
-7 -6 2 11.866 12.250 0.209 11.325 o
-7 -6 3 0.138 0.119 0.050 621.573 o
-7 -6 4 1.812 1.851 0.080 109.682 o
-7 -6 5 2.307 2.319 0.080 91.260 o
-7 -6 6 0.436 0.418 0.060 328.754 o
-7 -6 7 15.714 16.469 0.269 7.207 o
-7 -6 8 3.409 3.523 0.100 57.313 o
-7 -6 9 0.031 0.050 0.060 533.388 o
-7 -6 10 2.448 2.508 0.090 80.565 o
-7 -6 11 18.534 19.872 0.308 5.482 o
-7 -6 12 0.021 0.159 0.070 384.612 o
-7 -6 13 8.487 8.717 0.169 18.123 o
-7 -6 14 0.273 0.358 0.050 473.577 o
-7 -5 1 24.584 25.604 0.557 2.741 o
-7 -5 2 0.115 0.100 0.050 647.542 o
-7 -5 3 1.085 1.085 0.070 173.101 o
-7 -5 4 6.286 6.498 0.139 27.101 o
-7 -5 5 1.495 1.552 0.070 137.818 o
-7 -5 6 0.886 0.796 0.060 228.144 o
-7 -5 7 0.048 0.149 0.060 499.285 o
-7 -5 8 2.049 2.090 0.080 99.954 o
-7 -5 9 5.017 5.135 0.119 36.643 o
-7 -5 10 1.613 1.622 0.070 131.220 o
-7 -5 11 0.833 0.776 0.060 235.476 o
-7 -5 12 11.272 11.762 0.209 11.938 o
-7 -5 13 3.158 3.513 0.100 59.872 o
-7 -5 14 0.385 0.448 0.060 336.960 o
-7 -5 15 0.967 1.144 0.070 179.143 o
-7 -4 1 19.447 19.892 0.448 4.136 o
-7 -4 2 9.298 9.384 0.169 16.549 o
-7 -4 3 7.933 7.533 0.149 21.258 o
-7 -4 4 0.032 0.070 0.060 527.275 o
-7 -4 5 3.282 3.294 0.100 59.723 o
-7 -4 6 4.653 4.697 0.109 41.327 o
-7 -4 7 1.091 1.015 0.060 197.104 o
-7 -4 8 0.001 0.080 0.060 541.452 o
-7 -4 9 0.832 0.995 0.060 223.052 o
-7 -4 10 3.332 3.572 0.100 57.817 o
-7 -4 11 1.356 1.413 0.070 147.773 o
-7 -4 12 2.757 2.836 0.090 73.068 o
-7 -4 13 2.940 3.284 0.100 63.482 o
-7 -4 14 0.048 0.030 0.080 306.312 o
-7 -4 15 0.170 0.189 0.070 342.701 o
-7 -3 1 26.764 25.793 0.428 3.091 o
-7 -3 2 55.364 54.830 0.567 0.999 o
-7 -3 3 51.828 51.268 0.537 1.124 o
-7 -3 4 0.294 0.398 0.050 455.773 o
-7 -3 5 2.537 2.538 0.070 89.966 o
-7 -3 6 16.497 16.180 0.209 7.757 o
-7 -3 7 20.318 19.315 0.299 5.233 o
-7 -3 8 3.063 2.776 0.090 69.192 o
-7 -3 9 0.984 1.005 0.060 207.244 o
-7 -3 10 0.900 1.075 0.090 144.326 o
-7 -3 11 1.515 1.602 0.109 91.747 o
-7 -3 12 10.419 11.832 0.299 9.803 o
-7 -3 13 1.526 1.602 0.109 91.524 o
-7 -3 14 5.857 5.881 0.189 23.671 o
-7 -3 15 2.445 2.617 0.119 63.922 o
-7 -3 16 2.592 2.926 0.129 56.561 o
-7 -2 1 0.270 0.239 0.060 395.699 o
-7 -2 2 13.341 12.747 0.189 10.622 o
-7 -2 3 2.184 2.179 0.070 102.818 o
-7 -2 4 10.323 10.309 0.159 15.147 o
-7 -2 5 5.827 5.722 0.149 28.437 o
-7 -2 6 5.538 5.065 0.139 31.714 o
-7 -2 7 10.771 10.588 0.219 12.471 o
-7 -2 8 6.877 6.538 0.189 21.111 o
-7 -2 9 3.408 3.423 0.139 45.425 o
-7 -2 10 0.216 0.229 0.080 264.143 o
-7 -2 11 1.903 2.219 0.119 72.839 o
-7 -2 12 0.808 0.826 0.100 135.300 o
-7 -2 13 1.745 1.682 0.109 86.615 o
-7 -2 14 0.486 0.468 0.080 218.868 o
-7 -2 15 0.682 0.816 0.090 161.889 o
-7 -2 16 0.465 0.547 0.080 217.039 o
-7 -1 3 0.798 0.846 0.070 204.655 o
-7 -1 4 19.590 19.026 0.328 5.166 o
-7 -1 5 11.667 11.583 0.229 11.145 o
-7 -1 6 8.189 7.841 0.179 18.636 o
-7 -1 7 0.246 0.328 0.060 389.344 o
-7 -1 8 45.400 46.004 0.697 1.193 o
-7 -1 9 0.078 0.318 0.080 277.690 o
-7 -1 10 0.011 0.010 0.080 314.990 o
-7 -1 11 0.103 0.100 0.070 370.274 o
-7 -1 12 3.402 3.672 0.149 42.037 o
-7 -1 13 0.439 0.657 0.080 214.295 o
-7 -1 14 0.053 0.109 0.070 382.527 o
-7 -1 15 0.222 0.229 0.070 326.709 o
-7 -1 16 0.064 0.129 0.070 376.679 o
-7 0 3 26.112 25.375 0.498 2.881 o
-7 0 4 10.339 9.851 0.199 13.882 o
-7 0 5 2.711 2.756 0.100 69.508 o
-7 0 6 0.072 0.289 0.060 457.356 o
-7 0 7 73.101 71.966 1.025 0.522 o
-7 0 8 9.932 9.384 0.239 12.896 o
-7 0 9 26.229 26.748 0.537 2.664 o
-7 0 10 17.393 18.439 0.398 4.999 o
-7 0 11 4.354 4.488 0.159 33.886 o
-7 0 12 0.113 0.209 0.070 353.813 o
-7 0 13 13.944 14.927 0.239 8.705 o
-7 0 14 1.958 2.159 0.080 101.398 o
-7 0 15 0.036 0.080 0.050 728.452 o
-7 0 16 0.366 0.408 0.050 425.743 o
-7 1 4 3.857 3.771 0.119 46.895 o
-7 1 5 0.069 0.070 0.090 239.340 o
-7 1 6 4.545 4.468 0.129 38.722 o
-7 1 7 1.500 1.035 0.080 135.142 o
-7 1 8 9.405 8.757 0.229 14.035 o
-7 1 9 0.822 0.856 0.090 153.396 o
-7 1 10 0.001 0.040 0.070 408.577 o
-7 1 11 0.695 0.756 0.070 218.777 o
-7 1 12 7.267 7.712 0.159 21.668 o
-7 1 13 0.264 0.348 0.060 381.206 o
-7 1 14 0.543 0.607 0.060 289.400 o
-7 1 15 0.663 0.766 0.060 258.073 o
-7 2 4 11.245 10.409 0.249 11.224 o
-7 2 5 10.687 10.200 0.209 13.044 o
-7 2 6 0.028 0.159 0.060 506.492 o
-7 2 7 1.455 1.284 0.070 146.047 o
-7 2 8 18.543 18.957 0.289 5.776 o
-7 2 9 17.567 17.902 0.279 6.278 o
-7 2 10 0.085 0.070 0.050 685.765 o
-7 2 11 2.265 2.538 0.090 83.540 o
-7 2 12 4.003 4.299 0.109 46.593 o
-7 2 13 16.987 18.330 0.289 6.271 o
-7 2 14 7.769 8.329 0.159 20.176 o
-7 2 15 2.578 2.856 0.090 75.611 o
-7 3 4 2.479 2.408 0.109 69.802 o
-7 3 5 20.879 20.310 0.269 5.232 o
-7 3 6 5.985 5.543 0.169 25.933 o
-7 3 7 0.801 0.826 0.080 178.354 o
-7 3 8 5.803 5.563 0.129 31.210 o
-7 3 9 0.734 0.896 0.060 240.221 o
-7 3 10 9.358 9.633 0.179 15.869 o
-7 3 11 0.272 0.269 0.050 495.242 o
-7 3 12 8.039 8.259 0.159 19.772 o
-7 3 13 0.918 0.975 0.060 215.145 o
-7 3 14 21.756 23.206 0.338 4.320 o
-7 4 1 4.696 4.359 0.149 34.613 o
-7 4 2 0.063 0.020 0.050 731.648 o
-7 4 3 22.048 20.688 0.448 3.760 o
-7 4 4 1.119 1.304 0.090 130.343 o
-7 4 5 0.576 0.557 0.050 341.073 o
-7 4 6 10.523 10.837 0.189 13.602 o
-7 4 7 5.869 6.249 0.129 29.818 o
-7 4 8 0.308 0.338 0.050 462.590 o
-7 4 9 1.388 1.483 0.070 144.426 o
-7 4 10 0.837 0.896 0.060 228.038 o
-7 4 11 2.524 2.657 0.090 78.046 o
-7 4 12 1.666 1.592 0.070 129.696 o
-7 4 13 1.644 1.522 0.070 132.023 o
-7 5 1 10.848 10.548 0.269 10.809 o
-7 5 2 8.894 8.289 0.229 14.742 o
-7 5 3 0.024 0.000 0.070 407.674 o
-7 5 4 70.364 74.583 1.413 0.425 o
-7 5 5 9.199 9.045 0.249 13.214 o
-7 5 6 1.534 1.572 0.070 135.657 o
-7 5 7 3.580 3.801 0.100 54.432 o
-7 5 8 14.975 15.553 0.249 7.951 o
-7 5 9 1.895 1.901 0.070 115.651 o
-7 5 10 0.872 0.915 0.060 223.092 o
-7 5 11 4.014 4.160 0.100 49.384 o
-7 6 1 16.448 17.096 0.388 5.412 o
-7 6 2 10.621 10.200 0.269 11.053 o
-7 6 3 11.983 12.170 0.299 8.987 o
-7 6 4 8.723 8.836 0.239 14.163 o
-7 6 5 5.541 5.841 0.189 24.374 o
-7 6 6 13.619 14.409 0.338 7.153 o
-7 6 7 1.287 1.304 0.060 171.139 o
-7 6 8 0.748 0.746 0.050 286.287 o
-7 6 9 10.929 11.294 0.189 13.023 o
-7 7 1 5.401 5.344 0.179 26.436 o
-7 7 2 21.012 22.250 0.478 3.603 o
-7 7 3 1.019 1.105 0.100 122.601 o
-7 7 4 0.089 0.080 0.070 376.803 o
-7 7 5 1.954 2.159 0.109 79.039 o
-7 7 6 6.449 6.926 0.199 20.674 o
-7 7 7 0.006 0.010 0.060 558.985 o
-7 8 1 7.067 6.747 0.199 19.821 o
-7 8 2 3.976 4.150 0.149 38.088 o
-7 8 3 0.272 0.219 0.070 317.616 o
-7 8 4 4.918 5.175 0.169 29.291 o
-6 -9 1 0.001 0.010 0.060 561.909 o
-6 -9 2 0.435 0.458 0.070 268.941 o
-6 -9 3 2.449 2.289 0.109 70.968 o
-6 -9 4 0.109 0.119 0.060 477.641 o
-6 -9 5 0.920 0.886 0.060 219.548 o
-6 -9 6 2.491 2.468 0.080 85.925 o
-6 -9 7 1.853 2.100 0.080 104.984 o
-6 -9 8 1.762 1.901 0.080 110.426 o
-6 -9 9 0.035 0.010 0.050 766.752 o
-6 -9 10 0.213 0.199 0.050 545.043 o
-6 -9 11 1.433 1.582 0.070 139.936 o
-6 -9 12 3.631 3.951 0.149 40.178 o
-6 -8 1 10.492 11.085 0.199 13.174 o
-6 -8 2 2.411 2.428 0.090 81.901 o
-6 -8 3 1.225 1.184 0.070 161.188 o
-6 -8 4 41.872 45.804 0.627 1.356 o
-6 -8 5 1.799 1.930 0.080 108.896 o
-6 -8 6 5.980 6.010 0.129 29.844 o
-6 -8 7 1.355 1.433 0.070 147.305 o
-6 -8 8 4.418 4.518 0.109 43.221 o
-6 -8 9 0.459 0.547 0.060 310.545 o
-6 -8 10 2.492 2.557 0.090 79.403 o
-6 -8 11 0.258 0.299 0.050 494.801 o
-6 -8 12 0.696 0.796 0.060 251.582 o
-6 -8 13 2.684 3.045 0.129 55.263 o
-6 -8 14 0.885 1.065 0.090 145.268 o
-6 -8 15 3.836 4.130 0.149 38.777 o
-6 -7 1 0.940 1.015 0.070 185.922 o
-6 -7 2 5.922 6.399 0.139 28.297 o
-6 -7 3 6.587 6.826 0.139 25.844 o
-6 -7 4 5.636 5.732 0.129 31.505 o
-6 -7 5 14.696 15.454 0.249 8.086 o
-6 -7 6 10.402 11.284 0.199 13.165 o
-6 -7 7 4.720 4.826 0.119 38.813 o
-6 -7 8 0.136 0.139 0.060 461.926 o
-6 -7 9 12.286 13.016 0.219 10.539 o
-6 -7 10 3.951 4.100 0.109 47.640 o
-6 -7 11 0.453 0.567 0.060 309.675 o
-6 -7 12 0.164 0.199 0.050 575.473 o
-6 -7 13 3.595 3.742 0.100 54.572 o
-6 -7 14 1.357 1.453 0.100 107.274 o
-6 -7 15 1.764 1.980 0.109 83.632 o
-6 -7 16 0.202 0.229 0.070 330.995 o
-6 -6 1 1.152 1.194 0.070 165.259 o
-6 -6 2 4.015 3.861 0.109 48.033 o
-6 -6 3 10.243 10.658 0.189 13.957 o
-6 -6 4 6.497 6.408 0.139 26.643 o
-6 -6 5 5.256 5.274 0.119 35.266 o
-6 -6 6 6.866 6.518 0.139 25.523 o
-6 -6 7 2.068 2.020 0.080 100.364 o
-6 -6 8 1.141 1.204 0.070 165.678 o
-6 -6 9 2.444 2.438 0.090 81.247 o
-6 -6 10 7.755 7.981 0.159 20.509 o
-6 -6 11 4.724 4.558 0.119 39.475 o
-6 -6 12 2.711 2.975 0.090 72.722 o
-6 -6 13 0.471 0.488 0.060 314.162 o
-6 -6 14 1.157 1.323 0.100 114.773 o
-6 -6 15 0.301 0.259 0.080 251.085 o
-6 -6 16 0.857 0.995 0.090 148.234 o
-6 -6 17 0.833 0.766 0.080 178.145 o
-6 -5 1 0.184 0.199 0.040 749.158 o
-6 -5 2 0.064 0.090 0.040 1004.660 o
-6 -5 3 0.448 0.607 0.050 367.773 o
-6 -5 4 11.317 11.145 0.159 13.647 o
-6 -5 5 35.543 35.028 0.378 2.207 o
-6 -5 6 0.000 0.100 0.050 755.313 o
-6 -5 7 11.291 11.424 0.159 13.536 o
-6 -5 8 17.375 17.504 0.219 7.054 o
-6 -5 9 33.185 32.878 0.368 2.453 o
-6 -5 10 8.511 8.359 0.159 18.915 o
-6 -5 11 40.587 42.600 0.587 1.490 o
-6 -5 12 0.594 0.806 0.060 265.171 o
-6 -5 13 0.040 0.149 0.050 690.722 o
-6 -5 14 2.448 2.448 0.090 81.083 o
-6 -5 15 5.574 6.040 0.189 24.093 o
-6 -5 16 0.092 0.020 0.070 384.141 o
-6 -5 17 0.010 0.070 0.070 401.268 o
-6 -5 18 0.054 0.000 0.060 534.157 o
-6 -4 1 11.502 11.424 0.159 13.334 o
-6 -4 2 17.242 17.245 0.209 7.258 o
-6 -4 3 0.011 0.100 0.050 743.760 o
-6 -4 4 1.949 1.970 0.060 121.535 o
-6 -4 5 5.367 5.244 0.100 37.692 o
-6 -4 6 7.401 7.304 0.119 24.776 o
-6 -4 7 4.376 4.150 0.090 48.917 o
-6 -4 8 1.652 1.712 0.060 139.207 o
-6 -4 9 1.102 1.124 0.060 191.566 o
-6 -4 10 29.830 29.704 0.338 2.930 o
-6 -4 11 0.226 0.269 0.050 518.227 o
-6 -4 12 1.006 1.025 0.070 180.634 o
-6 -4 13 9.014 9.384 0.179 16.442 o
-6 -4 14 7.801 8.687 0.169 19.196 o
-6 -4 15 0.115 0.159 0.080 284.180 o
-6 -4 16 2.109 2.189 0.109 76.442 o
-6 -3 1 71.263 69.458 0.697 0.639 o
-6 -3 2 3.817 3.761 0.080 57.945 o
-6 -3 3 7.738 7.513 0.119 23.699 o
-6 -3 4 1.012 1.095 0.050 224.916 o
-6 -3 5 21.072 20.161 0.239 5.417 o
-6 -3 6 2.684 2.508 0.060 92.312 o
-6 -3 7 3.759 3.791 0.080 58.381 o
-6 -3 8 2.862 2.816 0.070 80.799 o
-6 -3 9 0.921 0.856 0.050 250.981 o
-6 -3 10 25.417 25.733 0.299 3.795 o
-6 -3 11 5.310 5.592 0.109 35.751 o
-6 -3 12 4.042 3.901 0.100 50.165 o
-6 -3 13 1.215 1.483 0.109 99.400 o
-6 -3 14 4.768 5.244 0.179 28.193 o
-6 -3 15 2.107 2.259 0.119 69.948 o
-6 -2 1 46.918 46.123 0.478 1.360 o
-6 -2 2 20.225 19.404 0.229 5.798 o
-6 -2 3 43.507 42.153 0.438 1.576 o
-6 -2 4 45.777 43.884 0.458 1.448 o
-6 -2 5 14.974 14.150 0.179 9.389 o
-6 -2 6 45.971 44.760 0.468 1.418 o
-6 -2 7 11.958 11.563 0.159 12.848 o
-6 -2 8 5.300 5.075 0.129 34.025 o
-6 -2 9 0.409 0.468 0.060 329.364 o
-6 -2 10 5.307 5.453 0.149 30.465 o
-6 -2 11 23.324 23.047 0.388 3.811 o
-6 -2 12 16.858 16.887 0.308 6.275 o
-6 -2 13 1.158 1.194 0.100 116.707 o
-6 -2 14 0.002 0.010 0.070 413.253 o
-6 -2 15 21.953 23.196 0.348 4.228 o
-6 -2 16 18.429 19.255 0.428 4.486 o
-6 -2 17 6.925 7.065 0.209 19.035 o
-6 -2 18 2.926 3.035 0.129 53.323 o
-6 -1 1 26.100 25.216 0.338 3.569 o
-6 -1 2 11.397 10.578 0.139 14.438 o
-6 -1 3 0.065 0.090 0.040 1003.030 o
-6 -1 4 0.949 0.985 0.070 186.399 o
-6 -1 5 47.478 46.441 0.677 1.162 o
-6 -1 6 3.004 2.946 0.100 64.700 o
-6 -1 7 0.001 0.080 0.080 310.469 o
-6 -1 8 10.902 10.618 0.209 12.686 o
-6 -1 9 10.396 10.299 0.209 13.254 o
-6 -1 10 0.635 0.597 0.070 233.869 o
-6 -1 11 0.003 0.010 0.060 560.982 o
-6 -1 12 0.775 0.816 0.060 240.097 o
-6 -1 13 6.695 6.747 0.139 25.668 o
-6 -1 14 0.361 0.348 0.060 354.879 o
-6 -1 15 3.348 3.274 0.100 59.151 o
-6 -1 16 5.682 5.901 0.129 31.041 o
-6 -1 17 1.545 1.592 0.100 100.729 o
-6 -1 18 1.566 1.522 0.100 101.067 o
-6 0 2 74.843 73.150 1.025 0.507 o
-6 0 3 14.132 13.444 0.239 8.969 o
-6 0 4 0.044 0.070 0.050 725.146 o
-6 0 5 33.792 32.052 0.488 2.171 o
-6 0 6 128.069 125.154 1.712 0.184 o
-6 0 7 11.271 10.568 0.209 12.406 o
-6 0 8 6.446 6.160 0.149 26.117 o
-6 0 9 7.856 7.583 0.149 21.358 o
-6 0 10 10.975 10.618 0.149 14.579 o
-6 0 11 0.014 0.219 0.050 682.728 o
-6 0 12 3.717 3.722 0.090 56.403 o
-6 0 13 0.182 0.229 0.050 555.068 o
-6 0 14 1.907 2.030 0.080 104.455 o
-6 0 15 4.722 5.005 0.119 38.358 o
-6 0 16 0.147 0.199 0.050 586.586 o
-6 0 17 12.082 12.608 0.308 8.619 o
-6 0 18 0.002 0.030 0.060 555.203 o
-6 1 2 0.278 0.269 0.109 148.188 o
-6 1 3 38.074 37.386 0.557 1.713 o
-6 1 4 1.931 2.607 0.090 89.305 o
-6 1 5 91.123 88.763 1.224 0.353 o
-6 1 6 2.952 2.806 0.090 70.508 o
-6 1 7 107.664 108.466 1.055 0.288 o
-6 1 8 25.957 25.773 0.299 3.719 o
-6 1 9 0.073 0.189 0.040 901.428 o
-6 1 10 7.827 7.891 0.129 22.421 o
-6 1 11 47.034 48.581 0.577 1.236 o
-6 1 12 0.556 0.637 0.060 284.616 o
-6 1 13 1.545 1.602 0.070 134.502 o
-6 1 14 5.752 6.160 0.129 30.355 o
-6 1 15 0.230 0.229 0.050 526.906 o
-6 1 16 8.941 9.274 0.169 17.091 o
-6 1 17 0.222 0.249 0.050 525.937 o
-6 2 3 8.731 8.269 0.149 19.185 o
-6 2 4 29.762 29.544 0.328 2.973 o
-6 2 5 0.526 0.418 0.050 372.539 o
-6 2 6 6.657 6.279 0.109 29.223 o
-6 2 7 6.429 6.458 0.109 29.687 o
-6 2 8 4.419 4.408 0.090 47.624 o
-6 2 9 2.546 2.538 0.070 89.761 o
-6 2 10 4.104 3.931 0.090 51.976 o
-6 2 11 3.865 3.861 0.100 51.742 o
-6 2 12 4.239 4.378 0.109 44.772 o
-6 2 13 0.704 0.726 0.060 255.187 o
-6 2 14 0.822 0.826 0.060 233.756 o
-6 2 15 1.578 1.712 0.070 130.814 o
-6 2 16 0.380 0.438 0.050 415.520 o
-6 2 17 0.485 0.527 0.050 368.739 o
-6 3 1 109.449 110.556 1.532 0.239 o
-6 3 2 19.250 19.156 0.328 5.224 o
-6 3 3 2.068 1.841 0.080 102.668 o
-6 3 4 11.793 11.444 0.189 12.228 o
-6 3 5 1.316 1.383 0.050 183.079 o
-6 3 6 56.122 55.188 0.567 0.982 o
-6 3 7 10.898 10.598 0.149 14.674 o
-6 3 8 14.943 14.717 0.189 9.096 o
-6 3 9 20.094 20.370 0.249 5.556 o
-6 3 10 10.446 10.041 0.179 14.429 o
-6 3 11 13.662 13.822 0.229 9.304 o
-6 3 12 49.666 52.581 0.707 1.033 o
-6 3 13 7.524 7.871 0.159 21.030 o
-6 3 14 0.003 0.119 0.050 741.412 o
-6 3 15 0.950 1.065 0.060 207.566 o
-6 3 16 1.383 1.542 0.070 143.214 o
-6 4 1 11.872 11.563 0.219 11.291 o
-6 4 2 48.226 48.571 0.716 1.090 o
-6 4 3 48.845 49.516 0.736 1.053 o
-6 4 4 1.490 1.522 0.060 152.175 o
-6 4 5 14.668 14.767 0.189 9.229 o
-6 4 6 0.484 0.388 0.040 470.265 o
-6 4 7 7.906 7.941 0.129 22.201 o
-6 4 8 10.844 10.797 0.169 13.982 o
-6 4 9 1.674 1.751 0.080 115.474 o
-6 4 10 2.568 2.338 0.090 79.966 o
-6 4 11 9.964 10.299 0.189 14.415 o
-6 4 12 29.938 30.669 0.438 2.591 o
-6 4 13 0.962 1.065 0.060 206.448 o
-6 4 14 8.517 8.767 0.159 18.585 o
-6 4 15 5.131 5.234 0.119 35.904 o
-6 5 1 28.199 29.117 0.468 2.684 o
-6 5 2 8.407 8.468 0.189 17.299 o
-6 5 3 6.534 6.617 0.159 24.373 o
-6 5 4 27.159 27.246 0.448 2.913 o
-6 5 5 2.171 2.080 0.060 112.049 o
-6 5 6 2.790 2.846 0.080 77.176 o
-6 5 7 13.893 13.683 0.229 9.220 o
-6 5 8 2.409 2.478 0.109 70.250 o
-6 5 9 1.851 1.821 0.070 118.512 o
-6 5 10 8.372 8.687 0.169 18.315 o
-6 5 11 0.174 0.179 0.050 575.141 o
-6 5 12 5.707 5.821 0.129 31.096 o
-6 5 13 0.245 0.328 0.050 493.483 o
-6 5 14 0.182 0.239 0.040 729.310 o
-6 6 1 16.010 16.409 0.299 6.714 o
-6 6 2 114.381 115.103 1.612 0.219 o
-6 6 3 0.026 0.090 0.080 304.973 o
-6 6 4 30.018 31.465 0.637 2.011 o
-6 6 5 16.578 16.558 0.259 7.027 o
-6 6 6 16.784 16.827 0.269 6.791 o
-6 6 7 1.030 1.194 0.060 194.632 o
-6 6 8 12.616 12.827 0.219 10.392 o
-6 6 9 9.458 9.652 0.179 15.738 o
-6 6 10 0.320 0.308 0.050 464.126 o
-6 6 11 1.845 1.831 0.070 118.551 o
-6 6 12 0.269 0.358 0.050 475.493 o
-6 7 1 6.677 6.707 0.199 20.478 o
-6 7 2 0.471 0.448 0.090 186.832 o
-6 7 3 15.040 15.474 0.358 6.293 o
-6 7 4 8.903 8.727 0.239 14.050 o
-6 7 5 1.437 1.423 0.100 105.567 o
-6 7 6 0.957 1.005 0.060 209.757 o
-6 7 7 20.153 20.778 0.308 5.036 o
-6 7 8 0.786 0.816 0.060 238.687 o
-6 7 9 2.549 2.796 0.090 76.533 o
-6 7 10 12.714 13.165 0.299 8.461 o
-6 8 1 0.210 0.318 0.080 258.996 o
-6 8 2 3.619 3.672 0.149 40.927 o
-6 8 3 13.704 14.270 0.338 7.149 o
-6 8 4 9.485 9.155 0.249 12.941 o
-6 8 5 1.762 1.831 0.109 84.976 o
-6 8 6 0.178 0.299 0.070 328.765 o
-6 8 7 11.530 12.100 0.199 11.898 o
-6 8 8 1.243 1.304 0.060 174.088 o
-6 9 1 0.050 0.060 0.060 520.264 o
-6 9 2 4.865 5.085 0.169 29.577 o
-6 9 3 3.266 3.403 0.139 46.355 o
-6 9 4 4.521 5.005 0.169 30.745 o
-5 -10 1 7.010 7.244 0.199 19.523 o
-5 -10 2 1.893 2.229 0.109 79.457 o
-5 -10 3 1.378 1.353 0.090 120.156 o
-5 -10 4 1.253 1.423 0.090 123.268 o
-5 -10 5 1.649 1.682 0.100 97.249 o
-5 -10 6 7.184 7.831 0.209 18.135 o
-5 -10 7 3.224 3.533 0.129 49.233 o
-5 -10 8 3.797 3.931 0.139 41.771 o
-5 -10 9 4.664 5.284 0.169 29.880 o
-5 -9 1 1.920 2.070 0.109 80.296 o
-5 -9 2 10.303 11.125 0.269 10.964 o
-5 -9 3 5.335 5.274 0.169 27.968 o
-5 -9 4 4.088 4.428 0.149 36.978 o
-5 -9 5 0.068 0.189 0.070 367.597 o
-5 -9 6 2.701 2.836 0.129 56.001 o
-5 -9 7 4.704 4.946 0.119 38.593 o
-5 -9 8 6.376 6.687 0.139 26.592 o
-5 -9 9 0.278 0.239 0.060 393.172 o
-5 -9 10 4.761 5.155 0.119 37.804 o
-5 -9 11 5.775 6.269 0.199 22.435 o
-5 -9 12 6.643 7.145 0.209 19.390 o
-5 -9 13 1.732 1.642 0.100 95.820 o
-5 -9 14 3.252 3.284 0.129 49.918 o
-5 -8 1 3.292 3.304 0.129 49.566 o
-5 -8 2 2.625 2.408 0.090 78.423 o
-5 -8 3 9.824 10.409 0.189 14.503 o
-5 -8 4 3.381 3.254 0.100 58.917 o
-5 -8 5 7.048 7.712 0.149 22.869 o
-5 -8 6 0.487 0.607 0.060 299.467 o
-5 -8 7 2.265 2.348 0.080 91.845 o
-5 -8 8 0.384 0.458 0.060 336.150 o
-5 -8 9 5.275 5.742 0.129 32.820 o
-5 -8 10 3.143 3.204 0.090 65.433 o
-5 -8 11 5.448 5.493 0.119 33.996 o
-5 -8 12 6.832 6.886 0.199 20.082 o
-5 -8 13 0.234 0.199 0.070 327.354 o
-5 -8 14 1.147 0.965 0.090 135.968 o
-5 -8 15 0.008 0.010 0.060 557.533 o
-5 -8 16 2.093 2.309 0.119 69.817 o
-5 -8 17 0.030 0.050 0.070 398.273 o
-5 -7 1 22.875 23.017 0.269 4.558 o
-5 -7 2 91.706 94.743 0.935 0.380 o
-5 -7 3 3.093 2.886 0.080 72.181 o
-5 -7 4 43.873 43.108 0.458 1.524 o
-5 -7 5 10.053 9.722 0.139 16.586 o
-5 -7 6 7.188 7.394 0.119 25.207 o
-5 -7 7 1.177 1.045 0.050 210.119 o
-5 -7 8 20.948 20.569 0.249 5.329 o
-5 -7 9 0.032 0.159 0.040 999.516 o
-5 -7 10 3.030 3.085 0.080 71.654 o
-5 -7 11 1.173 1.254 0.070 162.165 o
-5 -7 12 0.434 0.388 0.080 228.239 o
-5 -7 13 21.133 22.091 0.488 3.538 o
-5 -7 14 2.216 2.289 0.119 68.432 o
-5 -7 15 0.672 0.587 0.090 169.052 o
-5 -7 16 3.438 3.562 0.149 42.139 o
-5 -7 17 9.071 9.921 0.269 12.161 o
-5 -7 18 0.004 0.010 0.060 560.071 o
-5 -6 1 0.003 0.010 0.040 1249.710 o
-5 -6 2 0.329 0.318 0.050 457.851 o
-5 -6 3 51.649 51.656 0.537 1.123 o
-5 -6 4 6.089 5.782 0.100 33.226 o
-5 -6 5 0.039 0.020 0.040 1135.850 o
-5 -6 6 14.924 14.469 0.189 9.173 o
-5 -6 7 33.120 33.197 0.368 2.446 o
-5 -6 8 1.085 1.025 0.050 220.654 o
-5 -6 9 1.708 1.672 0.060 137.561 o
-5 -6 10 8.268 8.309 0.129 21.092 o
-5 -6 11 14.914 14.668 0.189 9.125 o
-5 -6 12 0.182 0.289 0.050 537.418 o
-5 -6 13 0.012 0.060 0.070 402.142 o
-5 -6 14 6.641 6.936 0.209 19.550 o
-5 -6 15 8.728 9.603 0.259 12.938 o
-5 -6 16 0.521 0.677 0.090 175.670 o
-5 -6 17 0.401 0.488 0.080 226.484 o
-5 -6 18 8.177 9.414 0.259 13.448 o
-5 -6 19 1.328 1.632 0.100 105.675 o
-5 -5 1 12.484 11.871 0.159 12.257 o
-5 -5 2 0.038 0.149 0.050 692.571 o
-5 -5 3 63.519 63.069 0.637 0.779 o
-5 -5 4 20.918 20.250 0.239 5.444 o
-5 -5 5 0.073 0.129 0.050 670.253 o
-5 -5 6 5.031 4.697 0.090 42.558 o
-5 -5 7 28.789 28.012 0.308 3.209 o
-5 -5 8 17.328 16.787 0.209 7.311 o
-5 -5 9 30.652 29.813 0.328 2.877 o
-5 -5 10 2.016 2.120 0.070 108.448 o
-5 -5 11 0.896 1.035 0.050 242.360 o
-5 -5 12 5.538 5.672 0.100 35.850 o
-5 -5 13 0.039 0.090 0.060 518.613 o
-5 -5 14 0.001 0.060 0.070 405.436 o
-5 -5 15 0.008 0.010 0.070 411.391 o
-5 -5 16 9.801 10.419 0.269 11.502 o
-5 -5 17 1.385 1.493 0.100 106.004 o
-5 -5 18 1.957 2.110 0.109 79.378 o
-5 -5 19 5.068 5.692 0.179 26.833 o
-5 -5 20 0.636 0.597 0.080 199.408 o
-5 -4 1 15.137 14.469 0.179 9.212 o
-5 -4 2 19.570 18.439 0.219 6.195 o
-5 -4 3 19.818 18.887 0.219 6.058 o
-5 -4 4 33.233 32.172 0.348 2.519 o
-5 -4 5 58.821 56.960 0.577 0.915 o
-5 -4 6 24.243 23.256 0.259 4.347 o
-5 -4 7 13.303 12.727 0.169 11.071 o
-5 -4 8 92.800 93.161 0.915 0.382 o
-5 -4 9 102.546 102.645 0.995 0.318 o
-5 -4 10 2.009 1.821 0.060 122.070 o
-5 -4 11 7.203 6.996 0.119 25.692 o
-5 -4 12 21.952 21.544 0.259 4.938 o
-5 -4 13 14.370 14.250 0.189 9.536 o
-5 -4 14 3.268 3.005 0.109 57.735 o
-5 -4 15 1.321 1.274 0.100 110.735 o
-5 -4 16 1.322 1.522 0.109 96.586 o
-5 -4 17 1.147 1.284 0.070 162.839 o
-5 -4 18 5.707 6.309 0.139 29.088 o
-5 -4 19 1.517 1.572 0.070 136.397 o
-5 -4 20 5.553 5.553 0.169 27.016 o
-5 -3 1 26.228 25.076 0.279 3.810 o
-5 -3 2 24.569 23.146 0.259 4.301 o
-5 -3 3 13.199 12.439 0.159 11.459 o
-5 -3 5 1.393 1.254 0.050 182.146 o
-5 -3 6 34.631 33.177 0.348 2.383 o
-5 -3 7 2.765 2.498 0.060 90.594 o
-5 -3 8 21.878 20.897 0.239 5.147 o
-5 -3 9 17.328 16.539 0.199 7.469 o
-5 -3 10 10.250 9.991 0.139 16.150 o
-5 -3 11 17.840 17.036 0.209 7.077 o
-5 -3 12 1.486 1.513 0.060 152.654 o
-5 -3 13 10.198 9.842 0.149 15.944 o
-5 -3 14 9.298 9.294 0.149 17.520 o
-5 -3 15 1.649 1.781 0.080 115.798 o
-5 -3 16 2.489 2.498 0.119 64.099 o
-5 -3 17 7.201 7.364 0.209 18.432 o
-5 -3 18 1.493 1.612 0.100 101.759 o
-5 -3 19 3.080 3.065 0.129 52.007 o
-5 -3 20 0.028 0.070 0.060 529.259 o
-5 -2 1 0.376 0.458 0.060 337.996 o
-5 -2 2 17.451 16.628 0.318 6.034 o
-5 -2 3 95.045 93.549 1.383 0.310 o
-5 -2 4 1.248 1.503 0.090 122.047 o
-5 -2 5 0.116 0.259 0.040 793.316 o
-5 -2 6 2.790 2.418 0.070 85.948 o
-5 -2 7 24.583 23.743 0.259 4.248 o
-5 -2 8 60.779 59.487 0.597 0.857 o
-5 -2 9 0.527 0.458 0.040 437.663 o
-5 -2 10 47.070 45.048 0.468 1.380 o
-5 -2 11 11.832 12.240 0.239 10.558 o
-5 -2 12 6.408 6.438 0.109 29.791 o
-5 -2 13 0.522 0.667 0.050 340.803 o
-5 -2 14 55.047 54.740 0.637 0.965 o
-5 -2 15 2.235 2.199 0.100 80.737 o
-5 -2 16 0.876 0.806 0.090 151.923 o
-5 -2 17 0.341 0.328 0.070 294.455 o
-5 -2 18 0.463 0.577 0.080 215.763 o
-5 -2 19 0.448 0.537 0.080 219.132 o
-5 -2 20 0.047 0.040 0.060 527.164 o
-5 -1 1 110.183 109.371 1.234 0.264 o
-5 -1 2 22.370 21.663 0.318 4.471 o
-5 -1 3 3.572 3.115 0.100 57.709 o
-5 -1 4 220.099 214.255 2.607 0.068 o
-5 -1 5 17.007 15.703 0.299 6.522 o
-5 -1 6 0.285 0.328 0.040 601.019 o
-5 -1 7 14.227 13.533 0.239 8.901 o
-5 -1 8 0.328 0.388 0.060 358.240 o
-5 -1 9 72.705 70.284 0.697 0.622 o
-5 -1 10 8.787 8.349 0.119 20.586 o
-5 -1 11 5.831 5.841 0.100 34.176 o
-5 -1 12 11.125 11.066 0.159 13.878 o
-5 -1 13 51.238 52.093 0.547 1.121 o
-5 -1 14 10.645 10.598 0.159 14.625 o
-5 -1 15 48.869 48.959 0.945 0.893 o
-5 -1 16 10.586 11.145 0.279 10.482 o
-5 -1 17 3.507 3.503 0.139 44.596 o
-5 -1 18 0.966 0.965 0.090 143.846 o
-5 -1 19 7.296 7.294 0.209 18.349 o
-5 -1 20 1.550 1.632 0.100 100.145 o
-5 0 1 38.163 37.605 0.537 1.737 o
-5 0 2 13.281 12.180 0.308 8.222 o
-5 0 3 45.561 44.760 0.836 1.067 o
-5 0 4 18.665 17.454 0.488 4.080 o
-5 0 5 14.731 13.523 0.279 7.960 o
-5 0 6 31.133 29.764 0.388 2.675 o
-5 0 7 5.402 4.956 0.109 36.791 o
-5 0 8 5.882 5.334 0.090 36.246 o
-5 0 9 12.195 12.120 0.159 12.396 o
-5 0 10 4.899 4.876 0.090 42.820 o
-5 0 11 7.982 7.762 0.119 22.853 o
-5 0 12 3.945 4.050 0.090 52.829 o
-5 0 13 0.048 0.080 0.050 715.802 o
-5 0 14 20.394 20.808 0.249 5.431 o
-5 0 15 0.001 0.040 0.050 789.297 o
-5 0 16 0.045 0.100 0.070 386.373 o
-5 0 17 1.494 1.592 0.100 101.967 o
-5 0 18 5.490 5.513 0.179 26.014 o
-5 0 19 0.338 0.269 0.070 300.322 o
-5 0 20 0.999 0.866 0.080 164.419 o
-5 1 1 2.700 2.567 0.129 57.185 o
-5 1 2 57.964 53.795 0.746 0.864 o
-5 1 3 129.295 128.338 1.473 0.193 o
-5 1 4 137.197 136.926 1.751 0.163 o
-5 1 5 154.324 150.330 2.239 0.122 o
-5 1 6 54.469 52.153 0.627 1.004 o
-5 1 7 21.732 20.907 0.239 5.179 o
-5 1 8 3.465 3.115 0.070 68.921 o
-5 1 9 16.318 15.882 0.199 8.021 o
-5 1 10 27.619 26.778 0.279 3.514 o
-5 1 11 0.799 0.796 0.050 273.599 o
-5 1 12 1.487 1.353 0.060 157.088 o
-5 1 13 0.799 0.746 0.050 277.542 o
-5 1 14 10.424 10.687 0.169 14.472 o
-5 1 15 29.849 31.306 0.617 2.074 o
-5 1 16 2.509 2.259 0.109 70.381 o
-5 1 17 1.765 1.672 0.100 94.783 o
-5 1 18 3.267 3.334 0.129 49.631 o
-5 1 19 8.595 9.125 0.239 14.148 o
-5 2 1 63.967 63.278 0.856 0.686 o
-5 2 2 4.911 4.836 0.129 36.166 o
-5 2 3 41.277 41.754 0.687 1.355 o
-5 2 4 75.282 71.986 1.124 0.482 o
-5 2 5 162.983 163.047 1.562 0.131 o
-5 2 6 1.807 1.672 0.050 143.485 o
-5 2 7 36.983 36.042 0.388 2.076 o
-5 2 8 40.284 40.660 0.428 1.745 o
-5 2 9 61.263 61.109 0.617 0.830 o
-5 2 10 10.565 10.727 0.149 14.977 o
-5 2 11 18.893 18.608 0.229 6.284 o
-5 2 12 19.468 19.474 0.239 5.912 o
-5 2 13 1.752 1.672 0.060 135.556 o
-5 2 14 6.807 6.707 0.139 25.431 o
-5 2 15 3.359 3.562 0.100 57.607 o
-5 2 16 9.644 9.921 0.179 15.367 o
-5 2 17 2.122 2.040 0.109 77.361 o
-5 2 18 0.719 0.677 0.080 189.666 o
-5 3 1 44.444 42.371 0.965 0.983 o
-5 3 2 38.577 37.883 0.637 1.560 o
-5 3 3 17.736 16.867 0.249 6.712 o
-5 3 4 2.429 2.199 0.060 102.612 o
-5 3 5 52.148 51.865 0.527 1.117 o
-5 3 6 3.573 3.324 0.070 66.079 o
-5 3 7 0.964 0.985 0.050 236.942 o
-5 3 8 1.922 1.801 0.060 125.760 o
-5 3 9 25.753 25.106 0.289 3.834 o
-5 3 10 2.307 2.309 0.070 97.948 o
-5 3 11 1.685 1.672 0.060 138.625 o
-5 3 12 0.307 0.338 0.040 581.998 o
-5 3 13 7.261 7.433 0.149 22.712 o
-5 3 14 0.443 0.557 0.050 376.190 o
-5 3 15 0.032 0.050 0.050 747.833 o
-5 3 16 0.220 0.299 0.050 513.731 o
-5 3 17 1.344 1.453 0.100 107.627 o
-5 4 1 21.290 21.594 0.348 4.461 o
-5 4 2 64.834 64.821 0.776 0.700 o
-5 4 3 2.802 2.567 0.060 89.025 o
-5 4 4 52.207 51.148 0.527 1.123 o
-5 4 5 2.674 2.796 0.070 84.500 o
-5 4 6 78.450 79.100 0.786 0.521 o
-5 4 7 35.628 35.435 0.378 2.190 o
-5 4 8 2.029 1.921 0.060 119.526 o
-5 4 9 0.059 0.219 0.050 644.178 o
-5 4 10 151.792 152.798 1.483 0.149 o
-5 4 11 3.791 3.732 0.100 52.904 o
-5 4 12 6.484 6.399 0.129 27.670 o
-5 4 13 11.469 11.692 0.199 12.104 o
-5 4 14 4.857 4.995 0.119 37.724 o
-5 4 15 2.301 2.438 0.080 90.098 o
-5 4 16 4.826 5.005 0.119 37.847 o
-5 5 1 24.409 23.853 0.388 3.626 o
-5 5 2 14.403 14.548 0.259 8.233 o
-5 5 3 61.859 63.189 0.637 0.799 o
-5 5 4 0.017 0.109 0.040 1083.900 o
-5 5 5 4.787 4.508 0.090 44.713 o
-5 5 6 0.417 0.398 0.040 500.266 o
-5 5 7 19.234 19.036 0.229 6.122 o
-5 5 8 0.578 0.527 0.050 344.240 o
-5 5 9 13.591 13.504 0.179 10.412 o
-5 5 10 14.218 14.180 0.229 8.932 o
-5 5 11 17.440 18.061 0.279 6.291 o
-5 5 12 17.850 18.131 0.279 6.166 o
-5 5 13 2.546 2.408 0.080 85.429 o
-5 5 14 0.010 0.040 0.070 405.774 o
-5 5 15 11.733 13.006 0.219 10.897 o
-5 6 1 19.842 18.688 0.318 5.236 o
-5 6 2 11.762 11.503 0.229 11.109 o
-5 6 3 7.781 7.722 0.169 20.023 o
-5 6 4 25.918 26.131 0.299 3.700 o
-5 6 5 26.833 26.430 0.299 3.563 o
-5 6 6 0.068 0.149 0.040 943.572 o
-5 6 7 0.993 1.035 0.050 230.464 o
-5 6 8 27.568 27.883 0.398 3.033 o
-5 6 9 0.020 0.060 0.050 756.111 o
-5 6 10 5.599 5.324 0.119 33.728 o
-5 6 11 8.612 8.667 0.159 18.517 o
-5 6 12 3.125 3.353 0.090 64.748 o
-5 6 13 0.321 0.338 0.050 457.149 o
-5 6 14 0.158 0.219 0.060 437.353 o
-5 7 1 37.410 38.232 0.587 1.673 o
-5 7 2 81.838 83.658 1.184 0.407 o
-5 7 3 11.455 10.976 0.219 11.799 o
-5 7 4 1.225 1.105 0.060 182.643 o
-5 7 5 25.746 25.305 0.368 3.476 o
-5 7 6 30.009 29.933 0.418 2.671 o
-5 7 7 4.109 4.359 0.109 45.678 o
-5 7 8 8.959 9.284 0.169 17.061 o
-5 7 9 0.028 0.010 0.050 775.124 o
-5 7 10 3.899 4.070 0.100 50.627 o
-5 7 11 16.703 17.434 0.378 5.437 o
-5 7 12 0.202 0.279 0.060 411.351 o
-5 8 1 6.805 6.508 0.199 20.431 o
-5 8 2 0.017 0.040 0.060 544.079 o
-5 8 3 12.629 12.558 0.308 8.406 o
-5 8 4 1.703 1.741 0.109 86.838 o
-5 8 5 10.566 10.707 0.189 13.623 o
-5 8 6 3.786 3.901 0.100 52.230 o
-5 8 7 10.154 10.996 0.189 13.879 o
-5 8 8 11.641 12.210 0.209 11.500 o
-5 8 9 9.363 9.254 0.229 13.847 o
-5 8 10 0.021 0.040 0.050 765.494 o
-5 9 1 18.905 19.325 0.428 4.410 o
-5 9 2 1.292 1.065 0.090 128.327 o
-5 9 3 17.271 18.569 0.408 4.911 o
-5 9 4 4.505 4.697 0.159 32.957 o
-5 9 5 16.369 16.678 0.378 5.586 o
-5 9 6 0.590 0.647 0.070 236.176 o
-5 9 7 6.189 6.438 0.179 23.416 o
-5 9 8 6.998 7.354 0.199 19.457 o
-5 10 1 0.016 0.010 0.060 553.278 o
-5 10 2 10.020 10.439 0.259 11.701 o
-4 -11 1 5.628 5.543 0.169 26.832 o
-4 -11 2 2.838 2.796 0.119 59.001 o
-4 -11 3 1.175 1.333 0.090 127.693 o
-4 -11 4 4.948 5.383 0.169 28.900 o
-4 -11 5 13.950 15.335 0.338 6.912 o
-4 -11 6 0.040 0.030 0.070 398.111 o
-4 -11 7 1.961 2.060 0.109 79.712 o
-4 -10 1 0.021 0.040 0.060 541.435 o
-4 -10 2 8.460 8.628 0.229 15.004 o
-4 -10 3 4.200 3.921 0.139 39.724 o
-4 -10 4 3.715 3.582 0.139 43.172 o
-4 -10 5 8.844 9.235 0.239 13.876 o
-4 -10 6 0.786 0.806 0.090 156.534 o
-4 -10 7 0.054 0.080 0.070 386.639 o
-4 -10 8 0.228 0.358 0.080 254.002 o
-4 -9 1 15.660 15.573 0.348 6.259 o
-4 -9 2 0.008 0.000 0.070 412.782 o
-4 -9 3 10.327 10.717 0.259 11.403 o
-4 -9 4 6.965 7.006 0.189 20.558 o
-4 -9 5 0.038 0.090 0.070 389.935 o
-4 -9 6 30.733 31.694 0.617 2.023 o
-4 -9 7 11.299 11.364 0.269 10.310 o
-4 -9 8 1.187 1.224 0.090 129.269 o
-4 -9 9 5.326 5.453 0.169 27.751 o
-4 -9 10 35.402 34.092 0.697 1.625 o
-4 -9 11 2.217 2.378 0.119 67.883 o
-4 -9 12 12.992 12.638 0.308 8.246 o
-4 -9 13 0.190 0.219 0.070 334.759 o
-4 -9 14 2.909 2.906 0.129 53.982 o
-4 -9 15 0.055 0.179 0.070 372.496 o
-4 -9 16 0.744 0.617 0.080 189.998 o
-4 -9 17 0.069 0.129 0.060 493.591 o
-4 -8 1 4.144 4.010 0.119 44.283 o
-4 -8 2 0.504 0.428 0.060 313.544 o
-4 -8 3 8.515 8.229 0.179 17.878 o
-4 -8 4 19.078 18.519 0.318 5.420 o
-4 -8 5 6.065 5.981 0.149 27.384 o
-4 -8 6 0.702 0.627 0.050 305.895 o
-4 -8 7 6.491 6.458 0.109 29.479 o
-4 -8 8 26.592 26.131 0.299 3.612 o
-4 -8 9 4.527 4.737 0.090 45.691 o
-4 -8 10 0.825 0.836 0.070 202.670 o
-4 -8 11 20.683 20.957 0.458 3.842 o
-4 -8 12 9.075 9.185 0.249 13.258 o
-4 -8 13 4.600 4.816 0.169 30.794 o
-4 -8 14 1.065 1.065 0.090 137.326 o
-4 -8 15 10.245 10.379 0.269 11.231 o
-4 -8 16 3.210 3.493 0.139 46.426 o
-4 -8 17 0.502 0.657 0.080 208.410 o
-4 -8 18 0.003 0.010 0.070 412.802 o
-4 -8 19 7.999 8.896 0.239 14.813 o
-4 -7 1 28.924 27.922 0.368 3.006 o
-4 -7 2 18.658 17.225 0.209 6.760 o
-4 -7 3 4.419 4.528 0.090 47.187 o
-4 -7 4 5.538 5.194 0.090 38.298 o
-4 -7 5 15.083 14.827 0.189 8.995 o
-4 -7 6 0.249 0.448 0.040 584.646 o
-4 -7 7 1.841 1.821 0.060 128.620 o
-4 -7 8 0.355 0.488 0.040 509.184 o
-4 -7 9 36.087 35.853 0.388 2.132 o
-4 -7 10 8.370 8.080 0.129 21.116 o
-4 -7 11 5.093 4.826 0.129 35.397 o
-4 -7 12 14.805 14.240 0.269 7.961 o
-4 -7 13 0.140 0.358 0.109 152.388 o
-4 -7 14 2.352 2.418 0.119 66.074 o
-4 -7 15 2.395 2.249 0.119 66.551 o
-4 -7 16 4.289 4.518 0.159 34.071 o
-4 -7 17 4.274 4.219 0.159 34.691 o
-4 -7 18 2.368 2.547 0.119 65.162 o
-4 -7 19 3.253 3.284 0.139 46.813 o
-4 -7 20 1.790 1.970 0.109 83.277 o
-4 -6 1 92.817 91.768 0.896 0.387 o
-4 -6 2 140.064 136.438 1.314 0.179 o
-4 -6 3 9.785 9.135 0.129 17.777 o
-4 -6 5 37.841 36.610 0.388 2.014 o
-4 -6 6 76.296 75.419 0.746 0.558 o
-4 -6 7 1.153 1.234 0.050 203.257 o
-4 -6 8 0.084 0.348 0.050 578.683 o
-4 -6 9 5.669 5.204 0.090 37.602 o
-4 -6 10 11.368 11.105 0.149 13.905 o
-4 -6 11 43.265 42.978 0.647 1.334 o
-4 -6 12 1.432 1.274 0.080 132.967 o
-4 -6 13 17.179 16.509 0.299 6.357 o
-4 -6 14 17.349 16.728 0.299 6.279 o
-4 -6 15 10.618 10.190 0.269 11.057 o
-4 -6 16 5.403 5.314 0.179 26.469 o
-4 -6 17 33.374 35.306 0.736 1.597 o
-4 -6 18 0.281 0.229 0.070 314.672 o
-4 -6 19 0.017 0.100 0.070 394.607 o
-4 -6 20 2.080 2.020 0.080 100.045 o
-4 -6 21 1.067 1.194 0.090 134.559 o
-4 -5 1 46.680 45.954 0.468 1.378 o
-4 -5 2 9.541 8.896 0.119 18.760 o
-4 -5 3 20.764 19.832 0.229 5.603 o
-4 -5 4 43.816 42.421 0.438 1.560 o
-4 -5 5 19.122 18.588 0.219 6.306 o
-4 -5 7 23.871 22.698 0.259 4.460 o
-4 -5 8 24.219 23.335 0.259 4.344 o
-4 -5 9 12.614 11.633 0.149 12.480 o
-4 -5 10 13.584 12.538 0.159 11.136 o
-4 -5 11 10.119 9.672 0.169 15.371 o
-4 -5 12 19.151 19.086 0.328 5.252 o
-4 -5 13 5.326 5.254 0.139 32.134 o
-4 -5 14 6.029 6.060 0.149 27.374 o
-4 -5 15 9.764 9.682 0.199 14.533 o
-4 -5 16 14.893 14.618 0.239 8.343 o
-4 -5 17 0.128 0.169 0.050 610.429 o
-4 -5 18 1.367 1.314 0.070 149.718 o
-4 -5 19 5.159 5.254 0.119 35.733 o
-4 -5 20 5.362 5.304 0.119 34.749 o
-4 -5 21 0.453 0.418 0.050 394.577 o
-4 -4 1 185.559 185.507 2.299 0.092 o
-4 -4 2 1.769 1.592 0.080 114.996 o
-4 -4 3 37.089 36.222 0.478 1.914 o
-4 -4 4 73.108 70.762 0.836 0.579 o
-4 -4 5 62.023 59.407 0.915 0.699 o
-4 -4 6 1.410 1.284 0.090 120.263 o
-4 -4 7 189.068 179.735 2.587 0.086 o
-4 -4 8 0.806 1.035 0.060 223.704 o
-4 -4 9 4.408 4.468 0.080 49.445 o
-4 -4 10 1.331 1.264 0.050 186.619 o
-4 -4 11 7.648 7.334 0.109 24.804 o
-4 -4 12 5.495 4.926 0.129 33.548 o
-4 -4 13 0.502 0.697 0.060 288.723 o
-4 -4 14 14.580 14.150 0.189 9.446 o
-4 -4 15 1.860 1.801 0.060 128.254 o
-4 -4 16 17.558 17.285 0.219 7.028 o
-4 -4 17 9.762 9.961 0.179 15.211 o
-4 -4 18 8.651 8.399 0.169 18.115 o
-4 -4 19 0.010 0.070 0.060 539.190 o
-4 -4 20 2.885 2.955 0.090 70.394 o
-4 -4 21 0.503 0.647 0.050 348.086 o
-4 -3 2 157.283 157.296 1.731 0.133 o
-4 -3 3 64.141 63.458 0.746 0.727 o
-4 -3 4 0.027 0.458 0.080 274.866 o
-4 -3 5 8.247 7.682 0.159 19.909 o
-4 -3 6 302.333 303.028 3.244 0.038 o
-4 -3 7 91.149 90.315 1.045 0.377 o
-4 -3 8 82.757 83.260 1.244 0.392 o
-4 -3 9 67.952 62.831 0.965 0.611 o
-4 -3 10 55.311 53.268 0.537 1.031 o
-4 -3 11 5.355 5.314 0.070 41.487 o
-4 -3 12 44.763 43.227 0.418 1.531 o
-4 -3 13 14.136 13.553 0.179 10.053 o
-4 -3 14 6.299 6.100 0.100 31.769 o
-4 -3 15 0.020 0.020 0.040 1186.120 o
-4 -3 16 0.977 1.075 0.050 229.985 o
-4 -3 17 17.616 17.215 0.279 6.362 o
-4 -3 18 12.291 12.399 0.219 10.732 o
-4 -3 19 0.006 0.090 0.070 399.518 o
-4 -3 20 1.232 1.204 0.090 127.943 o
-4 -3 21 8.665 8.578 0.239 14.335 o
-4 -2 1 0.075 0.139 0.050 664.068 o
-4 -2 2 46.827 45.197 0.547 1.312 o
-4 -2 3 20.408 18.708 0.269 5.525 o
-4 -2 4 64.303 61.129 0.716 0.750 o
-4 -2 5 11.865 11.066 0.189 12.324 o
-4 -2 6 0.022 0.050 0.080 309.200 o
-4 -2 7 100.357 98.814 1.124 0.317 o
-4 -2 8 2.738 2.637 0.080 79.822 o
-4 -2 9 3.039 2.906 0.090 68.660 o
-4 -2 10 13.287 12.449 0.219 10.101 o
-4 -2 11 38.514 37.316 0.318 2.059 o
-4 -2 12 6.140 5.752 0.080 35.133 o
-4 -2 13 0.993 1.035 0.050 230.459 o
-4 -2 14 0.023 0.100 0.040 1080.170 o
-4 -2 15 33.705 33.326 0.517 2.074 o
-4 -2 16 0.909 0.925 0.070 191.864 o
-4 -2 17 0.410 0.328 0.070 282.839 o
-4 -2 18 3.340 3.314 0.139 46.177 o
-4 -2 19 5.806 5.911 0.189 23.746 o
-4 -2 20 2.842 2.756 0.119 59.148 o
-4 -2 21 0.009 0.010 0.060 556.968 o
-4 -1 1 113.680 112.506 1.244 0.252 o
-4 -1 2 45.726 44.640 0.537 1.360 o
-4 -1 3 52.950 52.153 0.617 1.039 o
-4 -1 4 32.761 30.351 0.358 2.601 o
-4 -1 5 36.270 34.231 0.398 2.151 o
-4 -1 6 30.599 29.395 0.318 2.928 o
-4 -1 7 87.282 86.514 0.816 0.439 o
-4 -1 8 160.211 158.838 1.443 0.139 o
-4 -1 9 7.569 6.767 0.139 23.529 o
-4 -1 10 2.404 2.179 0.109 72.312 o
-4 -1 11 37.914 36.849 0.388 2.004 o
-4 -1 12 136.940 138.170 1.343 0.181 o
-4 -1 13 27.907 27.365 0.308 3.342 o
-4 -1 14 11.025 11.125 0.219 12.064 o
-4 -1 15 0.865 0.935 0.070 195.020 o
-4 -1 16 2.425 2.249 0.090 83.267 o
-4 -1 17 0.153 0.129 0.070 353.734 o
-4 -1 18 2.499 2.368 0.119 64.699 o
-4 -1 19 0.570 0.597 0.080 205.034 o
-4 -1 20 1.833 1.861 0.109 83.480 o
-4 -1 21 2.408 2.438 0.109 70.530 o
-4 0 1 100.334 97.808 1.085 0.324 o
-4 0 2 422.431 422.510 3.632 0.021 o
-4 0 3 7.011 6.856 0.109 27.217 o
-4 0 4 36.324 35.117 0.358 2.192 o
-4 0 5 108.608 107.212 1.224 0.272 o
-4 0 6 1.293 1.134 0.070 158.649 o
-4 0 7 66.644 67.000 0.816 0.657 o
-4 0 8 10.643 10.409 0.199 13.341 o
-4 0 9 59.431 57.805 0.915 0.734 o
-4 0 10 28.510 28.052 0.308 3.237 o
-4 0 11 34.111 34.470 0.368 2.335 o
-4 0 12 2.440 2.468 0.070 92.878 o
-4 0 13 156.592 163.794 1.582 0.136 o
-4 0 14 8.411 8.339 0.179 17.947 o
-4 0 15 0.040 0.100 0.050 714.031 o
-4 0 16 18.453 17.982 0.398 4.851 o
-4 0 17 21.200 21.554 0.468 3.682 o
-4 0 18 0.680 0.776 0.080 188.785 o
-4 0 19 2.000 1.911 0.109 80.293 o
-4 0 20 2.677 2.687 0.119 61.126 o
-4 0 21 0.379 0.388 0.070 282.950 o
-4 1 1 0.021 0.090 0.050 738.963 o
-4 1 2 177.821 175.844 1.940 0.106 o
-4 1 3 15.842 15.026 0.239 7.855 o
-4 1 4 4.740 4.388 0.109 41.706 o
-4 1 5 12.893 12.260 0.219 10.396 o
-4 1 6 52.039 50.243 0.637 1.061 o
-4 1 7 29.907 29.107 0.408 2.742 o
-4 1 8 0.315 0.458 0.070 287.823 o
-4 1 9 0.188 0.199 0.040 744.243 o
-4 1 10 42.612 41.824 0.438 1.615 o
-4 1 11 1.937 1.901 0.060 123.304 o
-4 1 12 15.613 15.036 0.189 8.675 o
-4 1 13 19.160 19.146 0.229 6.127 o
-4 1 14 2.006 2.080 0.060 117.551 o
-4 1 15 3.979 3.841 0.119 45.855 o
-4 1 16 2.215 2.309 0.109 74.029 o
-4 1 17 1.667 1.781 0.100 95.738 o
-4 1 18 4.833 4.906 0.169 29.942 o
-4 1 19 0.607 0.627 0.080 200.604 o
-4 1 20 5.749 5.523 0.169 26.548 o
-4 2 1 108.028 106.456 1.204 0.276 o
-4 2 2 17.004 16.897 0.259 6.829 o
-4 2 3 662.182 683.724 7.294 0.008 o
-4 2 4 83.942 82.564 0.975 0.439 o
-4 2 5 0.767 1.144 0.070 194.474 o
-4 2 6 24.554 24.480 0.368 3.669 o
-4 2 7 98.705 96.405 2.120 0.214 o
-4 2 8 48.053 47.486 0.488 1.300 o
-4 2 9 5.191 5.075 0.090 40.502 o
-4 2 10 3.885 3.781 0.080 57.155 o
-4 2 11 4.264 4.478 0.090 48.516 o
-4 2 12 33.114 33.923 0.368 2.421 o
-4 2 13 24.150 24.320 0.279 4.178 o
-4 2 14 33.736 34.351 0.378 2.343 o
-4 2 15 12.874 12.508 0.209 10.561 o
-4 2 16 6.732 6.727 0.199 20.372 o
-4 2 17 4.093 3.961 0.139 40.163 o
-4 2 18 32.927 33.316 0.667 1.784 o
-4 2 19 5.940 6.369 0.189 23.012 o
-4 3 1 11.475 11.573 0.199 12.147 o
-4 3 2 137.441 139.742 1.582 0.169 o
-4 3 3 65.972 66.722 0.806 0.668 o
-4 3 4 42.873 43.118 0.557 1.447 o
-4 3 5 127.320 127.552 1.652 0.186 o
-4 3 6 31.273 30.191 0.527 2.267 o
-4 3 7 14.412 13.991 0.169 9.922 o
-4 3 8 100.207 99.799 0.975 0.333 o
-4 3 9 41.417 41.366 0.438 1.671 o
-4 3 10 14.202 13.832 0.179 9.928 o
-4 3 11 24.841 24.708 0.289 3.994 o
-4 3 12 0.408 0.378 0.040 509.956 o
-4 3 13 18.353 18.489 0.229 6.466 o
-4 3 14 8.558 8.150 0.149 19.574 o
-4 3 15 0.040 0.100 0.050 713.911 o
-4 3 16 1.510 1.393 0.100 104.062 o
-4 3 17 5.188 5.364 0.169 28.251 o
-4 3 18 23.346 24.659 0.508 3.097 o
-4 4 1 124.654 126.049 1.443 0.204 o
-4 4 2 31.695 31.206 0.428 2.473 o
-4 4 3 61.319 61.796 0.856 0.721 o
-4 4 4 16.185 15.613 0.318 6.514 o
-4 4 5 45.662 45.217 0.468 1.421 o
-4 4 6 20.843 20.658 0.239 5.413 o
-4 4 7 23.590 23.166 0.259 4.469 o
-4 4 8 10.156 10.160 0.139 16.162 o
-4 4 9 27.841 27.704 0.308 3.331 o
-4 4 10 1.853 1.841 0.060 127.734 o
-4 4 11 5.011 4.836 0.090 42.254 o
-4 4 12 1.668 1.622 0.060 140.603 o
-4 4 13 5.037 4.677 0.109 39.294 o
-4 4 14 1.596 1.761 0.070 129.102 o
-4 4 15 1.167 1.393 0.070 158.471 o
-4 4 16 0.599 0.537 0.080 205.133 o
-4 5 1 9.065 9.374 0.159 17.332 o
-4 5 2 8.289 8.588 0.149 19.659 o
-4 5 3 57.691 58.392 0.587 0.917 o
-4 5 4 113.341 113.939 1.105 0.261 o
-4 5 5 6.943 6.637 0.109 27.750 o
-4 5 6 14.956 14.499 0.179 9.302 o
-4 5 7 17.158 17.146 0.209 7.308 o
-4 5 8 217.793 222.126 2.120 0.073 o
-4 5 9 8.665 8.767 0.129 19.922 o
-4 5 10 50.550 51.228 0.537 1.153 o
-4 5 11 29.772 29.953 0.338 2.924 o
-4 5 12 1.945 2.000 0.070 112.435 o
-4 5 13 0.332 0.308 0.050 458.594 o
-4 5 14 23.027 24.499 0.498 3.182 o
-4 5 15 1.516 1.672 0.100 100.474 o
-4 5 16 0.009 0.010 0.060 557.404 o
-4 6 1 70.597 71.070 0.846 0.595 o
-4 6 2 11.703 11.284 0.149 13.480 o
-4 6 3 2.703 2.627 0.060 90.547 o
-4 6 4 8.251 7.802 0.119 22.221 o
-4 6 5 29.421 28.430 0.318 3.090 o
-4 6 6 7.457 7.294 0.139 23.187 o
-4 6 7 2.587 2.478 0.070 89.528 o
-4 6 8 0.486 0.458 0.040 454.327 o
-4 6 9 36.394 37.197 0.408 2.044 o
-4 6 10 8.607 8.140 0.149 19.498 o
-4 6 11 0.942 1.015 0.060 210.768 o
-4 6 12 4.745 4.806 0.159 31.931 o
-4 6 13 18.412 19.474 0.408 4.643 o
-4 6 14 0.248 0.269 0.060 398.121 o
-4 6 15 1.163 1.144 0.080 148.003 o
-4 7 1 57.648 57.915 0.607 0.912 o
-4 7 2 34.938 34.868 0.537 1.935 o
-4 7 3 6.961 6.598 0.109 27.754 o
-4 7 4 23.474 23.524 0.269 4.406 o
-4 7 5 14.791 14.688 0.189 9.185 o
-4 7 6 33.199 33.634 0.368 2.425 o
-4 7 7 2.505 2.597 0.080 84.410 o
-4 7 8 0.036 0.090 0.070 390.348 o
-4 7 9 36.158 37.864 0.716 1.509 o
-4 7 10 3.725 3.692 0.139 42.815 o
-4 7 11 0.662 0.707 0.070 224.859 o
-4 7 12 2.011 2.040 0.100 86.099 o
-4 7 13 5.364 5.453 0.159 28.944 o
-4 8 1 1.288 1.403 0.060 167.743 o
-4 8 2 11.549 11.245 0.179 12.803 o
-4 8 3 56.870 56.999 0.647 0.911 o
-4 8 4 16.600 15.932 0.219 7.640 o
-4 8 5 3.073 2.896 0.090 68.276 o
-4 8 6 34.882 35.386 0.677 1.658 o
-4 8 7 0.039 0.010 0.060 539.595 o
-4 8 8 3.130 3.214 0.129 51.069 o
-4 8 9 6.399 6.279 0.179 23.148 o
-4 8 10 8.090 8.170 0.209 16.753 o
-4 8 11 11.946 11.832 0.279 9.575 o
-4 8 12 0.439 0.388 0.060 331.421 o
-4 9 1 10.109 9.036 0.169 15.758 o
-4 9 2 0.895 0.836 0.060 224.880 o
-4 9 4 15.986 16.230 0.348 6.093 o
-4 9 5 6.428 6.558 0.189 21.899 o
-4 9 6 1.241 1.164 0.090 128.350 o
-4 9 7 26.741 27.107 0.537 2.617 o
-4 9 8 0.237 0.229 0.060 408.037 o
-4 9 9 0.101 0.090 0.050 662.785 o
-4 9 10 0.000 0.010 0.050 807.504 o
-4 10 1 38.032 41.486 0.876 1.194 o
-4 10 2 3.499 3.473 0.149 42.050 o
-4 10 5 17.975 17.593 0.378 5.167 o
-4 10 6 3.692 3.722 0.129 45.503 o
-4 10 7 1.157 1.144 0.080 148.311 o
-4 11 1 0.190 0.318 0.070 324.045 o
-4 11 2 2.463 2.428 0.119 64.761 o
-3 -12 3 0.033 0.090 0.060 521.465 o
-3 -12 4 0.296 0.269 0.070 308.048 o
-3 -12 5 7.607 8.140 0.209 17.375 o
-3 -11 1 7.162 7.593 0.209 18.328 o
-3 -11 2 0.716 0.647 0.080 191.001 o
-3 -11 3 36.834 39.495 0.746 1.421 o
-3 -11 4 5.281 5.453 0.169 27.872 o
-3 -11 5 3.417 3.234 0.129 48.931 o
-3 -11 6 0.265 0.358 0.070 305.386 o
-3 -10 1 16.596 17.235 0.368 5.593 o
-3 -10 2 7.537 7.573 0.209 17.835 o
-3 -10 3 7.948 7.931 0.209 17.076 o
-3 -10 4 11.580 11.732 0.279 9.787 o
-3 -10 5 10.974 11.205 0.269 10.541 o
-3 -10 6 15.106 15.414 0.338 6.568 o
-3 -10 7 0.141 0.159 0.060 455.711 o
-3 -9 1 0.186 0.199 0.060 430.916 o
-3 -9 2 32.436 31.933 0.498 2.227 o
-3 -9 3 16.585 16.688 0.299 6.502 o
-3 -9 4 2.676 2.577 0.100 71.184 o
-3 -9 5 10.317 10.031 0.199 13.818 o
-3 -9 6 6.181 5.901 0.139 28.266 o
-3 -9 7 5.446 5.075 0.129 33.445 o
-3 -9 14 1.688 1.871 0.100 94.293 o
-3 -9 15 5.626 5.901 0.189 24.131 o
-3 -9 16 4.430 4.707 0.159 33.209 o
-3 -9 17 7.019 6.647 0.199 19.975 o
-3 -9 18 5.900 6.229 0.189 23.231 o
-3 -9 19 0.205 0.259 0.060 413.744 o
-3 -8 1 8.855 8.727 0.179 17.070 o
-3 -8 2 0.772 0.746 0.060 244.797 o
-3 -8 3 17.662 17.384 0.299 6.105 o
-3 -8 4 75.945 74.364 1.045 0.492 o
-3 -8 5 1.750 1.672 0.080 114.323 o
-3 -8 6 8.881 8.419 0.169 17.768 o
-3 -8 7 45.715 43.536 0.627 1.285 o
-3 -8 8 62.317 60.582 0.866 0.712 o
-3 -8 9 2.241 2.030 0.080 96.010 o
-3 -8 10 70.192 66.771 0.945 0.584 o
-3 -8 11 2.674 2.617 0.090 75.968 o
-3 -8 12 5.448 5.264 0.129 33.072 o
-3 -8 13 2.869 2.498 0.090 73.901 o
-3 -8 14 9.244 7.871 0.219 15.091 o
-3 -8 15 0.505 0.508 0.070 255.604 o
-3 -8 16 1.080 1.204 0.090 133.863 o
-3 -8 17 0.607 0.687 0.080 198.130 o
-3 -8 18 1.154 1.174 0.090 131.507 o
-3 -8 19 7.301 7.891 0.229 16.647 o
-3 -8 20 1.335 1.433 0.090 120.284 o
-3 -7 1 40.625 39.217 0.587 1.543 o
-3 -7 2 20.850 20.041 0.328 4.819 o
-3 -7 3 1.391 1.413 0.070 145.992 o
-3 -7 4 14.403 13.494 0.199 9.555 o
-3 -7 5 33.766 32.619 0.408 2.334 o
-3 -7 6 32.944 31.375 0.338 2.593 o
-3 -7 7 6.077 5.662 0.090 34.601 o
-3 -7 8 10.207 9.802 0.139 16.330 o
-3 -7 9 58.669 56.960 0.816 0.797 o
-3 -7 10 2.190 2.139 0.080 95.905 o
-3 -7 11 0.032 0.100 0.050 721.944 o
-3 -7 12 22.272 21.544 0.358 4.243 o
-3 -7 13 24.330 23.972 0.398 3.578 o
-3 -7 14 0.905 0.995 0.070 189.371 o
-3 -7 15 1.296 1.184 0.080 140.790 o
-3 -7 16 4.247 4.279 0.159 34.679 o
-3 -7 17 26.829 28.709 0.607 2.322 o
-3 -7 18 0.266 0.249 0.050 503.176 o
-3 -7 19 0.563 0.498 0.050 351.846 o
-3 -7 20 6.717 6.906 0.149 24.520 o
-3 -7 21 3.805 4.020 0.100 51.583 o
-3 -6 1 0.164 0.259 0.040 738.166 o
-3 -6 2 31.898 31.107 0.527 2.206 o
-3 -6 3 9.279 8.160 0.199 15.885 o
-3 -6 4 14.277 12.797 0.398 6.222 o
-3 -6 5 5.635 4.836 0.139 31.778 o
-3 -6 6 11.303 10.050 0.229 11.940 o
-3 -6 7 58.236 54.770 0.667 0.896 o
-3 -6 8 1.726 1.612 0.050 149.225 o
-3 -6 9 66.548 64.124 0.766 0.690 o
-3 -6 10 40.665 37.973 0.567 1.591 o
-3 -6 11 4.048 3.403 0.100 52.121 o
-3 -6 12 1.155 0.975 0.070 172.054 o
-3 -6 13 25.924 25.385 0.408 3.278 o
-3 -6 14 8.081 8.448 0.179 18.345 o
-3 -6 15 21.164 21.813 0.289 4.874 o
-3 -6 16 2.113 2.080 0.070 106.193 o
-3 -6 17 1.131 1.015 0.060 193.689 o
-3 -6 18 8.860 8.827 0.169 17.511 o
-3 -6 19 0.436 0.537 0.060 316.255 o
-3 -6 20 0.141 0.159 0.050 604.404 o
-3 -6 21 0.082 0.080 0.040 980.445 o
-3 -6 22 6.176 6.518 0.199 21.487 o
-3 -5 1 9.638 9.513 0.179 15.609 o
-3 -5 2 71.912 69.647 0.826 0.596 o
-3 -5 3 139.137 138.120 1.542 0.169 o
-3 -5 4 91.445 91.330 1.055 0.372 o
-3 -5 5 69.468 68.025 0.806 0.630 o
-3 -5 6 20.754 19.584 0.299 5.112 o
-3 -5 7 52.439 50.342 0.627 1.059 o
-3 -5 8 11.401 11.075 0.219 11.802 o
-3 -5 9 19.919 18.967 0.328 5.105 o
-3 -5 10 66.625 64.910 0.915 0.631 o
-3 -5 11 62.774 61.109 0.866 0.705 o
-3 -5 12 18.690 18.190 0.308 5.641 o
-3 -5 13 0.037 0.119 0.040 1030.070 o
-3 -5 14 50.763 50.173 0.517 1.174 o
-3 -5 15 75.341 77.190 0.776 0.552 o
-3 -5 16 9.683 9.065 0.139 17.566 o
-3 -5 17 2.811 2.667 0.080 78.314 o
-3 -5 18 15.367 15.325 0.259 7.688 o
-3 -5 19 1.988 2.179 0.080 100.371 o
-3 -5 20 0.601 0.488 0.050 343.535 o
-3 -5 21 1.284 1.224 0.070 156.644 o
-3 -5 22 0.330 0.398 0.050 441.284 o
-3 -4 1 25.582 25.256 0.338 3.631 o
-3 -4 2 13.655 13.275 0.209 9.854 o
-3 -4 3 6.675 5.553 0.119 29.390 o
-3 -4 4 102.283 103.510 1.164 0.300 o
-3 -4 5 28.884 28.211 0.378 2.964 o
-3 -4 6 5.648 5.413 0.119 33.349 o
-3 -4 7 0.612 0.707 0.060 270.029 o
-3 -4 8 100.650 98.913 1.124 0.316 o
-3 -4 9 19.516 19.285 0.289 5.500 o
-3 -4 10 4.896 4.707 0.119 38.232 o
-3 -4 11 4.295 4.080 0.100 47.600 o
-3 -4 12 55.011 55.119 0.557 1.008 o
-3 -4 13 16.290 15.902 0.199 8.029 o
-3 -4 14 2.500 2.816 0.070 87.798 o
-3 -4 15 20.159 20.340 0.249 5.544 o
-3 -4 16 7.466 8.419 0.129 22.631 o
-3 -4 17 8.156 8.210 0.129 21.412 o
-3 -4 18 1.401 1.513 0.070 143.088 o
-3 -4 19 8.792 8.727 0.169 17.676 o
-3 -4 20 3.780 3.881 0.109 49.681 o
-3 -4 21 0.641 0.647 0.050 316.382 o
-3 -4 22 4.056 4.130 0.109 46.803 o
-3 -3 1 232.138 236.078 2.299 0.064 o
-3 -3 2 136.501 139.901 1.532 0.172 o
-3 -3 3 5.899 5.931 0.119 31.413 o
-3 -3 4 80.491 82.185 0.935 0.467 o
-3 -3 5 648.327 648.825 6.866 0.008 o
-3 -3 6 42.013 44.760 0.547 1.459 o
-3 -3 7 2.576 2.766 0.070 86.751 o
-3 -3 8 22.949 21.982 0.249 4.752 o
-3 -3 9 48.963 47.725 0.478 1.280 o
-3 -3 10 8.098 7.284 0.129 22.491 o
-3 -3 11 5.815 5.861 0.159 27.100 o
-3 -3 12 2.930 2.916 0.070 78.728 o
-3 -3 13 35.385 34.431 0.368 2.254 o
-3 -3 14 34.134 33.376 0.358 2.390 o
-3 -3 15 1.164 1.184 0.050 204.605 o
-3 -3 16 58.593 57.188 0.587 0.912 o
-3 -3 17 0.833 0.866 0.050 262.864 o
-3 -3 18 4.079 3.821 0.100 50.191 o
-3 -3 19 1.252 1.174 0.070 159.867 o
-3 -3 20 17.919 18.370 0.299 5.909 o
-3 -3 21 0.843 0.826 0.060 231.314 o
-3 -3 22 2.958 2.886 0.129 53.669 o
-3 -2 1 0.065 0.090 0.050 695.276 o
-3 -2 2 97.927 93.032 1.035 0.346 o
-3 -2 3 67.916 66.214 0.746 0.672 o
-3 -2 4 425.574 423.037 4.050 0.020 o
-3 -2 5 0.367 0.478 0.040 505.572 o
-3 -2 6 466.222 477.161 4.110 0.017 o
-3 -2 7 137.315 135.184 1.204 0.189 o
-3 -2 8 22.524 21.852 0.249 4.850 o
-3 -2 9 22.256 21.743 0.249 4.916 o
-3 -2 10 202.242 205.538 1.831 0.087 o
-3 -2 11 20.300 19.673 0.279 5.357 o
-3 -2 12 0.389 0.448 0.050 410.566 o
-3 -2 13 20.287 19.076 0.229 5.825 o
-3 -2 14 4.388 4.199 0.080 50.688 o
-3 -2 15 44.603 44.023 0.468 1.474 o
-3 -2 16 3.945 3.642 0.080 57.247 o
-3 -2 17 9.969 8.936 0.149 16.834 o
-3 -2 18 14.261 12.847 0.219 9.439 o
-3 -2 19 14.207 14.101 0.338 7.020 o
-3 -2 20 2.297 2.577 0.119 65.794 o
-3 -2 21 28.503 28.360 0.587 2.303 o
-3 -2 22 1.744 1.950 0.109 84.237 o
-3 -1 1 0.061 0.179 0.030 1366.070 o
-3 -1 2 16.745 16.340 0.219 7.504 o
-3 -1 3 197.454 190.502 1.841 0.093 o
-3 -1 4 9.738 9.125 0.139 17.442 o
-3 -1 5 117.445 119.163 1.065 0.248 o
-3 -1 6 71.945 71.170 0.667 0.633 o
-3 -1 7 10.076 9.115 0.129 17.361 o
-3 -1 8 61.453 59.029 0.577 0.859 o
-3 -1 9 18.238 18.390 0.209 6.706 o
-3 -1 10 8.652 8.001 0.129 20.651 o
-3 -1 11 29.109 28.888 0.348 3.007 o
-3 -1 12 1.074 1.184 0.060 191.383 o
-3 -1 13 48.628 47.028 0.567 1.225 o
-3 -1 14 6.401 5.811 0.139 27.751 o
-3 -1 15 4.950 4.667 0.129 36.366 o
-3 -1 16 14.406 13.344 0.259 8.491 o
-3 -1 17 4.991 4.995 0.139 33.877 o
-3 -1 18 0.003 0.010 0.070 412.849 o
-3 -1 19 6.712 6.657 0.199 20.461 o
-3 -1 20 9.478 9.414 0.249 12.845 o
-3 -1 21 0.000 0.080 0.070 402.706 o
-3 -1 22 0.721 0.736 0.080 187.208 o
-3 0 2 5.025 4.806 0.100 40.656 o
-3 0 3 1.399 1.353 0.070 147.098 o
-3 0 4 2.808 2.936 0.070 80.698 o
-3 0 5 387.673 394.518 3.413 0.024 o
-3 0 6 157.288 156.390 1.393 0.144 o
-3 0 7 32.263 33.047 0.338 2.581 o
-3 0 8 104.971 106.904 1.115 0.292 o
-3 0 9 120.655 120.437 1.393 0.219 o
-3 0 10 128.115 126.935 1.473 0.196 o
-3 0 11 217.616 218.852 2.746 0.066 o
-3 0 12 50.373 48.352 0.597 1.145 o
-3 0 13 2.532 2.388 0.090 80.147 o
-3 0 14 0.004 0.050 0.060 548.150 o
-3 0 15 5.091 4.856 0.129 35.344 o
-3 0 16 17.331 16.529 0.299 6.312 o
-3 0 17 0.720 0.866 0.070 211.006 o
-3 0 18 2.410 2.348 0.119 65.810 o
-3 0 19 0.134 0.129 0.070 358.452 o
-3 0 20 1.692 1.672 0.100 96.385 o
-3 0 21 21.088 21.693 0.468 3.687 o
-3 1 1 315.978 320.552 3.105 0.035 o
-3 1 2 142.540 143.165 1.314 0.171 o
-3 1 3 159.083 159.734 1.582 0.135 o
-3 1 4 32.245 31.973 0.408 2.458 o
-3 1 5 11.006 11.643 0.189 12.803 o
-3 1 6 126.209 126.308 1.423 0.202 o
-3 1 7 80.579 80.205 0.945 0.470 o
-3 1 8 2.852 3.184 0.100 65.084 o
-3 1 9 0.163 0.289 0.050 548.052 o
-3 1 10 56.945 56.094 0.776 0.846 o
-3 1 11 215.302 213.449 2.418 0.072 o
-3 1 12 4.968 4.906 0.090 42.304 o
-3 1 13 24.117 22.818 0.318 4.098 o
-3 1 14 60.528 59.089 0.856 0.744 o
-3 1 15 18.750 18.469 0.318 5.499 o
-3 1 16 4.359 4.319 0.129 40.028 o
-3 1 17 16.000 16.031 0.358 5.986 o
-3 1 18 8.914 8.956 0.239 13.937 o
-3 1 19 0.116 0.119 0.060 474.794 o
-3 1 20 0.151 0.129 0.060 457.763 o
-3 2 1 37.578 38.232 0.428 1.924 o
-3 2 2 56.794 56.880 0.677 0.897 o
-3 2 3 94.855 97.968 1.115 0.338 o
-3 2 4 43.836 43.098 0.537 1.440 o
-3 2 5 1.286 1.363 0.060 169.223 o
-3 2 6 73.249 72.384 0.856 0.566 o
-3 2 7 19.100 17.932 0.348 5.199 o
-3 2 8 66.925 63.995 0.786 0.679 o
-3 2 9 4.575 4.169 0.129 39.313 o
-3 2 10 0.321 0.269 0.050 472.220 o
-3 2 11 96.716 98.336 0.955 0.350 o
-3 2 12 0.150 0.199 0.040 787.841 o
-3 2 13 0.044 0.109 0.040 1024.420 o
-3 2 14 2.651 2.697 0.100 70.719 o
-3 2 15 11.484 11.344 0.219 11.643 o
-3 2 16 3.538 3.463 0.129 47.324 o
-3 2 17 7.891 7.881 0.219 16.577 o
-3 2 18 5.178 5.145 0.169 28.585 o
-3 3 1 1176.240 1199.810 10.528 0.003 o
-3 3 2 1.158 1.045 0.060 190.237 o
-3 3 3 98.610 99.042 1.025 0.334 o
-3 3 4 175.399 180.123 1.990 0.105 o
-3 3 5 131.983 132.746 1.513 0.184 o
-3 3 6 4.961 5.244 0.129 35.071 o
-3 3 7 101.129 98.833 1.403 0.284 o
-3 3 8 36.432 35.883 0.498 1.917 o
-3 3 9 8.604 8.608 0.119 20.688 o
-3 3 10 19.739 19.604 0.229 5.902 o
-3 3 11 0.170 0.149 0.040 794.535 o
-3 3 12 123.183 127.224 1.224 0.218 o
-3 3 13 15.951 15.912 0.199 8.176 o
-3 3 14 0.372 0.468 0.040 505.445 o
-3 3 15 1.595 1.513 0.090 110.891 o
-3 3 16 86.397 81.807 1.522 0.332 o
-3 4 1 0.598 0.816 0.050 307.813 o
-3 4 2 137.353 140.289 1.284 0.181 o
-3 4 3 90.353 91.460 0.866 0.403 o
-3 4 4 2.288 2.508 0.090 83.394 o
-3 4 5 8.407 8.588 0.179 17.776 o
-3 4 6 200.524 204.394 2.557 0.077 o
-3 4 7 10.405 9.682 0.229 12.775 o
-3 4 8 1.030 1.015 0.050 227.374 o
-3 4 9 97.042 97.898 0.955 0.350 o
-3 4 10 0.058 0.169 0.040 942.927 o
-3 4 11 15.960 15.971 0.199 8.158 o
-3 4 12 0.048 0.249 0.050 641.384 o
-3 4 13 9.181 9.424 0.199 15.285 o
-3 4 14 7.651 7.563 0.199 18.345 o
-3 5 1 2.337 2.607 0.080 87.596 o
-3 5 2 168.014 172.690 1.582 0.122 o
-3 5 3 101.459 100.356 0.955 0.329 o
-3 5 4 5.180 5.493 0.159 29.436 o
-3 5 5 0.809 0.836 0.080 177.472 o
-3 5 6 101.817 102.058 0.985 0.322 o
-3 5 7 49.008 47.894 0.488 1.269 o
-3 5 8 3.127 2.965 0.070 75.035 o
-3 5 9 1.845 1.761 0.060 129.656 o
-3 5 10 18.174 17.544 0.229 6.672 o
-3 5 11 10.869 10.807 0.209 12.635 o
-3 5 12 0.007 0.050 0.050 775.436 o
-3 5 13 0.666 0.766 0.070 221.291 o
-3 5 14 6.004 6.379 0.179 23.869 o
-3 5 15 0.423 0.348 0.060 339.765 o
-3 6 1 75.181 77.986 0.985 0.500 o
-3 6 2 38.454 37.316 0.517 1.763 o
-3 6 3 18.066 17.444 0.189 7.119 o
-3 6 4 68.969 67.488 0.667 0.681 o
-3 6 5 23.339 23.206 0.318 4.187 o
-3 6 6 131.116 133.154 1.284 0.196 o
-3 6 7 111.476 115.044 1.582 0.227 o
-3 6 8 106.265 109.561 1.513 0.248 o
-3 6 9 16.877 17.245 0.308 6.221 o
-3 6 10 5.955 6.030 0.149 27.623 o
-3 6 11 15.938 15.882 0.348 6.148 o
-3 6 12 41.459 42.740 0.796 1.207 o
-3 6 13 0.088 0.060 0.060 501.301 o
-3 6 14 3.597 3.523 0.129 46.745 o
-3 6 15 1.715 1.741 0.090 104.376 o
-3 7 1 21.874 21.504 0.199 5.315 o
-3 7 2 8.007 7.483 0.090 24.889 o
-3 7 3 4.054 3.951 0.060 59.160 o
-3 7 4 46.427 45.327 0.567 1.302 o
-3 7 5 0.284 0.249 0.050 494.257 o
-3 7 6 0.174 0.229 0.060 429.551 o
-3 7 7 18.422 18.608 0.318 5.558 o
-3 7 8 0.492 0.428 0.060 315.899 o
-3 7 9 11.365 10.956 0.259 10.677 o
-3 7 10 6.120 6.329 0.179 23.675 o
-3 7 11 7.653 7.573 0.199 18.335 o
-3 7 12 4.549 4.349 0.139 37.079 o
-3 7 13 5.025 5.135 0.159 30.472 o
-3 7 14 8.868 8.747 0.219 15.028 o
-3 8 1 8.740 8.717 0.149 18.807 o
-3 8 2 74.713 74.841 0.766 0.568 o
-3 8 3 12.770 12.280 0.169 11.632 o
-3 8 4 6.223 5.742 0.100 32.765 o
-3 8 5 25.169 24.420 0.398 3.456 o
-3 8 6 4.724 4.796 0.129 37.095 o
-3 8 7 48.109 47.854 0.886 0.958 o
-3 8 8 0.324 0.328 0.070 297.495 o
-3 8 9 13.747 13.285 0.308 7.837 o
-3 8 10 9.713 9.493 0.239 13.029 o
-3 8 11 6.185 5.772 0.169 25.178 o
-3 8 12 0.015 0.040 0.060 545.242 o
-3 8 13 20.602 20.867 0.428 4.062 o
-3 9 1 33.034 34.102 0.577 1.956 o
-3 9 2 0.161 0.199 0.040 775.485 o
-3 9 3 31.959 31.803 0.368 2.583 o
-3 9 4 40.154 41.615 0.587 1.519 o
-3 9 5 3.753 3.732 0.139 42.552 o
-3 9 6 0.053 0.129 0.060 501.507 o
-3 9 7 0.130 0.100 0.060 472.880 o
-3 9 8 16.457 16.628 0.358 5.808 o
-3 9 9 6.330 6.130 0.179 23.444 o
-3 9 10 1.057 1.095 0.080 154.724 o
-3 9 11 1.429 1.393 0.090 117.849 o
-3 10 1 1.163 1.383 0.100 113.715 o
-3 10 2 9.475 9.523 0.269 12.019 o
-3 10 3 0.173 0.199 0.050 569.771 o
-3 10 4 2.634 2.776 0.090 75.359 o
-3 10 5 30.529 30.142 0.587 2.148 o
-3 10 6 0.824 0.756 0.080 179.154 o
-3 10 7 1.614 1.632 0.090 108.629 o
-3 10 8 1.952 1.881 0.100 88.748 o
-3 11 1 0.327 0.308 0.070 298.581 o
-3 11 2 32.878 34.580 0.756 1.586 o
-3 11 3 12.753 13.245 0.348 7.429 o
-3 11 4 0.635 0.567 0.050 326.287 o
-3 11 5 11.685 11.464 0.269 10.068 o
-3 12 1 2.472 2.498 0.119 64.286 o
-2 -12 1 1.760 1.851 0.100 92.960 o
-2 -12 2 4.415 4.408 0.149 35.641 o
-2 -12 3 8.832 9.205 0.229 14.360 o
-2 -12 4 2.944 2.936 0.119 57.355 o
-2 -11 1 1.415 1.343 0.070 146.543 o
-2 -11 2 5.039 5.095 0.159 30.490 o
-2 -11 3 7.541 7.135 0.199 18.810 o
-2 -11 4 11.005 11.215 0.269 10.521 o
-2 -11 5 3.483 3.572 0.129 47.331 o
-2 -10 1 77.029 76.085 1.015 0.487 o
-2 -10 2 0.142 0.219 0.070 345.735 o
-2 -10 3 30.622 30.281 0.587 2.140 o
-2 -10 4 8.080 7.682 0.169 19.558 o
-2 -10 5 18.038 17.773 0.308 5.850 o
-2 -9 1 0.458 0.488 0.040 459.650 o
-2 -9 2 49.019 48.551 0.707 1.083 o
-2 -9 3 8.814 8.846 0.179 17.046 o
-2 -9 4 4.199 4.040 0.109 46.143 o
-2 -9 5 14.812 14.081 0.249 8.329 o
-2 -9 6 34.383 32.082 0.488 2.137 o
-2 -9 17 7.399 7.513 0.209 18.060 o
-2 -9 18 3.965 4.060 0.149 38.342 o
-2 -9 19 0.907 1.055 0.080 164.321 o
-2 -9 20 0.181 0.199 0.060 432.675 o
-2 -8 1 0.986 0.965 0.050 235.512 o
-2 -8 2 59.921 57.358 0.697 0.838 o
-2 -8 3 42.212 40.491 0.597 1.459 o
-2 -8 4 4.587 4.339 0.109 42.746 o
-2 -8 5 1.142 1.095 0.060 189.492 o
-2 -8 6 45.752 43.715 0.637 1.272 o
-2 -8 13 1.580 1.552 0.070 134.067 o
-2 -8 14 0.022 0.020 0.050 775.682 o
-2 -8 15 35.771 36.361 0.736 1.510 o
-2 -8 16 5.587 5.732 0.179 25.524 o
-2 -8 17 2.631 2.508 0.119 62.521 o
-2 -8 18 12.101 12.449 0.219 10.839 o
-2 -8 19 0.298 0.209 0.050 497.041 o
-2 -8 20 2.105 2.338 0.080 95.580 o
-2 -8 21 0.719 0.746 0.060 251.755 o
-2 -7 1 39.483 37.028 0.637 1.544 o
-2 -7 2 50.260 47.745 0.577 1.169 o
-2 -7 3 35.559 33.853 0.498 2.009 o
-2 -7 4 75.708 68.771 1.552 0.382 o
-2 -7 5 84.071 74.513 1.662 0.326 o
-2 -7 6 21.205 20.061 0.537 3.331 o
-2 -7 7 80.712 75.349 1.682 0.330 o
-2 -7 8 199.612 192.452 3.732 0.062 o
-2 -7 9 0.062 0.577 0.060 408.273 o
-2 -7 10 0.128 0.239 0.050 585.860 o
-2 -7 11 45.951 43.675 0.637 1.267 o
-2 -7 12 33.489 32.191 0.498 2.161 o
-2 -7 13 0.075 0.090 0.050 686.208 o
-2 -7 14 0.658 0.577 0.060 272.846 o
-2 -7 15 3.974 3.831 0.080 56.030 o
-2 -7 16 10.483 10.210 0.149 15.373 o
-2 -7 17 9.638 10.289 0.189 14.759 o
-2 -7 18 0.401 0.438 0.060 334.550 o
-2 -7 19 14.039 13.762 0.239 8.937 o
-2 -7 20 3.316 3.543 0.100 58.120 o
-2 -7 21 1.526 1.622 0.070 134.888 o
-2 -7 22 2.538 2.358 0.080 86.076 o
-2 -6 1 58.146 55.009 0.697 0.880 o
-2 -6 2 53.450 51.785 0.657 1.006 o
-2 -6 3 17.887 16.051 0.249 6.795 o
-2 -6 4 1.270 1.274 0.070 156.008 o
-2 -6 5 114.368 113.392 1.274 0.247 o
-2 -6 6 31.770 30.888 0.408 2.531 o
-2 -6 7 38.306 38.361 0.488 1.794 o
-2 -6 8 27.446 25.853 0.498 2.759 o
-2 -6 9 15.443 14.459 0.388 5.908 o
-2 -6 10 56.913 55.248 0.786 0.847 o
-2 -6 11 9.075 9.175 0.179 16.496 o
-2 -6 12 9.788 9.244 0.129 17.690 o
-2 -6 13 19.151 18.777 0.229 6.183 o
-2 -6 14 12.387 12.399 0.169 11.885 o
-2 -6 15 33.011 33.306 0.368 2.450 o
-2 -6 16 24.224 23.703 0.279 4.215 o
-2 -6 17 9.975 9.672 0.149 16.337 o
-2 -6 18 15.067 15.703 0.259 7.730 o
-2 -6 19 0.633 0.667 0.060 269.772 o
-2 -6 20 3.963 4.388 0.119 44.232 o
-2 -6 21 12.937 13.056 0.229 9.907 o
-2 -6 22 1.313 1.522 0.070 147.182 o
-2 -5 1 20.199 21.046 0.358 4.619 o
-2 -5 2 123.338 122.527 1.115 0.229 o
-2 -5 3 17.430 16.320 0.239 7.018 o
-2 -5 4 0.512 0.448 0.050 372.213 o
-2 -5 5 14.037 13.474 0.209 9.581 o
-2 -5 6 96.573 95.052 1.065 0.344 o
-2 -5 7 168.524 163.575 1.791 0.120 o
-2 -5 8 11.404 9.772 0.179 13.608 o
-2 -5 9 103.234 106.217 1.333 0.276 o
-2 -5 10 32.335 31.584 0.458 2.342 o
-2 -5 11 54.317 53.835 0.826 0.868 o
-2 -5 12 0.172 0.328 0.040 695.257 o
-2 -5 13 109.645 111.163 1.085 0.276 o
-2 -5 14 0.964 0.975 0.050 237.547 o
-2 -5 15 0.597 0.488 0.040 406.188 o
-2 -5 16 9.493 9.244 0.139 17.715 o
-2 -5 17 2.265 2.159 0.070 100.935 o
-2 -5 18 1.473 1.562 0.070 138.555 o
-2 -5 19 0.930 0.876 0.060 219.064 o
-2 -5 20 8.035 8.329 0.169 19.109 o
-2 -5 21 0.338 0.308 0.050 456.309 o
-2 -5 22 8.179 8.289 0.169 18.913 o
-2 -4 1 116.280 116.486 1.055 0.255 o
-2 -4 2 7.969 7.812 0.109 23.430 o
-2 -4 3 500.548 508.984 4.896 0.014 o
-2 -4 4 56.762 54.193 0.637 0.941 o
-2 -4 5 58.851 56.601 0.657 0.879 o
-2 -4 6 16.151 15.245 0.209 8.101 o
-2 -4 7 3.471 3.851 0.080 61.164 o
-2 -4 8 262.453 270.797 2.368 0.052 o
-2 -4 9 41.540 40.590 0.508 1.594 o
-2 -4 10 1.128 1.095 0.070 169.905 o
-2 -4 11 58.831 59.447 0.796 0.790 o
-2 -4 12 126.321 130.537 1.881 0.173 o
-2 -4 13 59.851 60.303 0.607 0.860 o
-2 -4 14 98.330 98.127 0.965 0.343 o
-2 -4 15 23.286 23.027 0.269 4.483 o
-2 -4 16 36.638 36.809 0.398 2.058 o
-2 -4 17 0.422 0.398 0.040 497.782 o
-2 -4 18 12.108 11.503 0.169 12.483 o
-2 -4 19 10.217 9.832 0.179 14.782 o
-2 -4 20 1.228 1.304 0.070 157.554 o
-2 -4 21 0.393 0.388 0.050 419.688 o
-2 -4 22 1.264 1.115 0.060 179.357 o
-2 -4 23 2.608 2.717 0.090 76.220 o
-2 -3 1 91.182 89.848 0.906 0.398 o
-2 -3 2 110.144 111.561 1.105 0.273 o
-2 -3 3 8.129 7.961 0.109 22.888 o
-2 -3 4 18.871 18.449 0.229 6.314 o
-2 -3 5 16.201 14.598 0.189 8.497 o
-2 -3 6 168.796 172.172 1.522 0.123 o
-2 -3 7 0.792 0.617 0.040 332.586 o
-2 -3 8 23.233 22.708 0.249 4.628 o
-2 -3 9 48.915 48.750 0.537 1.221 o
-2 -3 10 85.806 88.634 1.005 0.410 o
-2 -3 11 0.355 0.318 0.060 360.183 o
-2 -3 12 22.866 21.753 0.388 3.957 o
-2 -3 13 78.942 79.936 0.786 0.514 o
-2 -3 14 1.200 1.194 0.050 200.793 o
-2 -3 15 0.228 0.229 0.040 688.617 o
-2 -3 16 4.495 4.279 0.090 47.542 o
-2 -3 17 27.754 27.126 0.308 3.374 o
-2 -3 18 1.767 1.712 0.060 134.045 o
-2 -3 19 0.443 0.428 0.050 395.889 o
-2 -3 20 1.498 1.463 0.070 139.709 o
-2 -3 21 24.859 24.768 0.378 3.566 o
-2 -3 22 1.778 1.791 0.070 121.601 o
-2 -3 23 0.001 0.010 0.060 562.101 o
-2 -2 1 186.118 191.388 2.199 0.092 o
-2 -2 2 525.554 551.982 6.229 0.012 o
-2 -2 3 1201.730 1210.000 13.713 0.002 o
-2 -2 4 919.937 978.333 12.757 0.004 o
-2 -2 5 118.035 125.413 1.403 0.218 o
-2 -2 6 128.900 130.915 1.154 0.208 o
-2 -2 7 30.978 30.798 0.318 2.829 o
-2 -2 8 14.156 15.524 0.189 9.302 o
-2 -2 9 116.007 118.337 1.075 0.252 o
-2 -2 10 0.067 0.169 0.050 658.042 o
-2 -2 11 68.020 68.732 0.806 0.639 o
-2 -2 12 5.157 4.896 0.139 33.428 o
-2 -2 13 23.941 23.435 0.308 4.130 o
-2 -2 14 163.270 161.883 1.562 0.131 o
-2 -2 15 1.402 1.383 0.050 176.639 o
-2 -2 16 0.299 0.279 0.040 608.854 o
-2 -2 17 25.407 24.738 0.289 3.909 o
-2 -2 18 36.224 36.112 0.398 2.100 o
-2 -2 19 9.606 8.807 0.169 16.523 o
-2 -2 20 12.314 11.205 0.199 11.645 o
-2 -2 21 3.085 2.836 0.090 68.513 o
-2 -2 22 1.815 1.831 0.109 84.044 o
-2 -1 1 27.037 28.490 0.438 2.907 o
-2 -1 2 359.034 364.217 5.891 0.021 o
-2 -1 3 219.781 241.571 2.746 0.063 o
-2 -1 4 1127.390 1184.140 15.434 0.002 o
-2 -1 5 37.594 38.341 0.597 1.648 o
-2 -1 6 28.852 28.301 0.318 3.156 o
-2 -1 7 196.629 201.408 1.761 0.092 o
-2 -1 8 349.038 360.993 3.125 0.030 o
-2 -1 9 4.035 3.961 0.080 54.834 o
-2 -1 10 36.428 36.490 0.428 2.027 o
-2 -1 11 119.757 118.875 1.323 0.226 o
-2 -1 12 8.255 8.259 0.179 18.229 o
-2 -1 13 24.171 23.245 0.308 4.109 o
-2 -1 14 13.709 13.066 0.169 10.670 o
-2 -1 15 53.836 52.939 0.547 1.058 o
-2 -1 16 23.915 22.987 0.299 4.221 o
-2 -1 17 2.285 2.010 0.060 109.563 o
-2 -1 18 3.352 3.025 0.109 56.849 o
-2 -1 19 72.815 73.667 1.393 0.422 o
-2 -1 20 0.106 0.209 0.070 355.568 o
-2 -1 21 0.002 0.070 0.060 543.950 o
-2 0 1 545.369 545.564 6.130 0.011 o
-2 0 2 14.762 15.583 0.229 8.348 o
-2 0 3 10.186 11.066 0.219 12.750 o
-2 0 4 658.668 691.933 7.851 0.008 o
-2 0 5 1.557 1.532 0.090 111.707 o
-2 0 6 21.324 21.504 0.259 5.074 o
-2 0 7 28.032 27.037 0.279 3.447 o
-2 0 8 105.095 105.968 0.955 0.308 o
-2 0 9 41.380 41.754 0.478 1.616 o
-2 0 10 12.085 12.349 0.189 11.648 o
-2 0 11 18.494 18.807 0.408 4.684 o
-2 0 12 63.645 63.567 1.403 0.484 o
-2 0 13 13.731 12.976 0.229 9.490 o
-2 0 14 7.080 6.408 0.149 24.251 o
-2 0 15 0.834 0.707 0.060 239.506 o
-2 0 16 9.586 9.145 0.189 15.442 o
-2 0 17 19.885 19.026 0.328 5.106 o
-2 0 18 3.406 3.075 0.129 49.569 o
-2 0 19 8.677 8.508 0.229 14.848 o
-2 0 20 4.498 4.418 0.159 33.484 o
-2 1 1 193.995 207.807 2.368 0.082 o
-2 1 2 38.682 40.829 0.517 1.683 o
-2 1 3 595.589 632.177 7.145 0.009 o
-2 1 4 2.149 2.946 0.090 81.961 o
-2 1 5 414.474 439.954 4.259 0.020 o
-2 1 6 272.574 283.892 2.776 0.046 o
-2 1 7 61.464 62.681 0.746 0.762 o
-2 1 8 9.192 8.508 0.159 17.768 o
-2 1 9 752.625 754.843 8.090 0.006 o
-2 1 10 49.878 50.103 0.637 1.106 o
-2 1 11 7.598 7.433 0.159 21.301 o
-2 1 12 33.378 32.649 0.776 1.562 o
-2 1 13 37.563 37.127 0.557 1.738 o
-2 1 14 27.515 26.370 0.418 3.034 o
-2 1 15 13.722 13.633 0.249 8.929 o
-2 1 16 0.081 0.129 0.060 488.403 o
-2 1 18 5.880 5.344 0.169 26.444 o
-2 2 1 31.553 32.301 0.508 2.243 o
-2 2 2 297.799 314.780 4.150 0.033 o
-2 2 3 0.373 0.806 0.040 429.869 o
-2 2 4 180.682 187.895 2.050 0.099 o
-2 2 5 4.043 4.110 0.090 51.736 o
-2 2 6 37.834 35.595 0.458 1.927 o
-2 2 7 37.315 38.610 0.498 1.816 o
-2 2 8 69.864 71.010 0.846 0.601 o
-2 2 9 93.583 95.062 1.105 0.349 o
-2 2 10 118.993 122.049 1.413 0.219 o
-2 2 11 69.370 70.801 1.095 0.529 o
-2 2 12 54.286 52.143 0.637 1.001 o
-2 2 13 0.014 0.030 0.060 548.538 o
-2 2 14 46.215 46.362 0.687 1.181 o
-2 2 15 32.384 28.410 0.567 2.150 o
-2 3 1 41.959 44.929 0.557 1.447 o
-2 3 2 11.067 10.658 0.159 14.145 o
-2 3 3 58.118 61.189 0.587 0.888 o
-2 3 4 227.987 240.854 2.378 0.064 o
-2 3 5 4.748 4.886 0.109 40.277 o
-2 3 6 7.670 7.742 0.149 21.566 o
-2 3 7 90.938 90.524 1.045 0.377 o
-2 3 8 23.354 23.843 0.348 3.973 o
-2 3 9 117.901 118.556 1.373 0.227 o
-2 3 10 37.289 36.640 0.617 1.657 o
-2 3 11 23.903 23.534 0.259 4.381 o
-2 3 12 17.596 16.966 0.239 6.852 o
-2 4 1 391.459 406.041 3.572 0.023 o
-2 4 2 193.597 200.781 1.801 0.093 o
-2 4 3 15.293 14.170 0.179 9.208 o
-2 4 4 62.430 61.099 0.597 0.822 o
-2 4 5 279.263 285.882 2.547 0.046 o
-2 4 6 24.814 24.579 0.348 3.726 o
-2 4 7 3.473 3.184 0.100 58.348 o
-2 4 8 0.719 0.746 0.080 187.017 o
-2 4 9 23.585 22.887 0.358 3.953 o
-2 4 10 163.398 163.027 2.199 0.113 o
-2 4 11 0.021 0.348 0.060 466.114 o
-2 4 12 17.113 17.554 0.299 6.230 o
-2 5 1 0.426 0.736 0.050 356.376 o
-2 5 2 82.466 85.748 0.816 0.468 o
-2 5 3 27.281 27.395 0.308 3.413 o
-2 5 4 111.144 110.277 1.035 0.277 o
-2 5 5 24.273 24.161 0.289 4.122 o
-2 5 6 36.559 34.420 0.478 1.983 o
-2 5 7 117.637 120.059 1.642 0.207 o
-2 5 8 9.357 9.195 0.179 16.134 o
-2 5 9 0.131 0.189 0.050 601.467 o
-2 5 10 16.876 16.817 0.289 6.520 o
-2 5 11 15.704 16.011 0.279 7.150 o
-2 5 12 2.156 1.970 0.080 98.785 o
-2 5 13 0.662 0.577 0.050 319.158 o
-2 6 1 31.154 30.659 0.348 2.743 o
-2 6 2 31.453 30.171 0.348 2.739 o
-2 6 3 60.810 62.134 0.726 0.782 o
-2 6 4 164.775 170.520 2.567 0.100 o
-2 6 5 5.725 5.742 0.119 32.413 o
-2 6 6 75.503 75.807 0.896 0.527 o
-2 6 7 26.250 26.062 0.408 3.210 o
-2 6 8 20.363 20.678 0.338 4.775 o
-2 6 9 0.639 0.677 0.060 268.177 o
-2 6 10 14.028 13.812 0.249 8.742 o
-2 6 11 9.019 8.588 0.179 16.946 o
-2 6 12 7.350 7.394 0.199 18.899 o
-2 6 13 0.114 0.109 0.050 643.782 o
-2 6 14 0.900 0.836 0.070 196.244 o
-2 7 1 71.285 71.180 0.886 0.577 o
-2 7 2 47.787 47.914 0.508 1.285 o
-2 7 3 0.297 0.428 0.040 559.255 o
-2 7 4 24.345 23.663 0.279 4.199 o
-2 7 5 238.975 245.432 2.388 0.060 o
-2 7 6 68.857 69.378 0.716 0.657 o
-2 7 7 1.641 1.463 0.070 133.404 o
-2 7 8 50.098 49.307 0.726 1.040 o
-2 7 9 31.669 31.674 0.498 2.280 o
-2 7 10 22.788 20.837 0.428 3.784 o
-2 7 11 15.220 15.543 0.338 6.518 o
-2 7 12 16.214 16.270 0.348 6.031 o
-2 7 13 2.803 2.776 0.109 63.713 o
-2 7 14 0.143 0.239 0.060 439.294 o
-2 8 1 9.415 9.055 0.129 18.413 o
-2 8 2 73.457 72.583 0.746 0.593 o
-2 8 3 0.585 0.627 0.040 387.254 o
-2 8 4 3.536 3.353 0.080 63.273 o
-2 8 5 0.226 0.249 0.040 681.297 o
-2 8 6 11.034 10.876 0.159 14.066 o
-2 8 7 7.562 7.573 0.169 20.532 o
-2 8 8 0.004 0.010 0.060 559.823 o
-2 8 9 0.015 0.010 0.060 553.777 o
-2 8 10 14.523 14.389 0.318 7.204 o
-2 8 11 2.035 2.149 0.100 84.655 o
-2 8 12 1.469 1.493 0.090 115.001 o
-2 8 13 9.911 9.662 0.239 12.801 o
-2 9 1 0.551 0.508 0.040 419.030 o
-2 9 2 5.780 5.881 0.109 33.139 o
-2 9 3 45.834 46.382 0.508 1.361 o
-2 9 4 3.281 3.284 0.080 66.858 o
-2 9 5 19.747 18.658 0.299 5.433 o
-2 9 6 19.575 19.584 0.308 5.282 o
-2 9 7 31.936 32.679 0.478 2.284 o
-2 9 8 6.577 6.219 0.179 22.849 o
-2 9 9 0.200 0.239 0.060 418.657 o
-2 9 10 7.654 7.354 0.199 18.488 o
-2 9 11 33.640 35.754 0.687 1.675 o
-2 10 1 38.419 37.257 0.527 1.749 o
-2 10 2 10.150 10.558 0.189 14.097 o
-2 10 3 26.712 27.733 0.418 3.045 o
-2 10 4 3.091 3.075 0.090 66.889 o
-2 10 5 0.039 0.100 0.040 1044.920 o
-2 10 6 8.479 8.737 0.169 18.119 o
-2 10 7 0.020 0.010 0.040 1199.460 o
-2 10 8 6.241 6.219 0.179 23.536 o
-2 10 9 0.191 0.139 0.060 440.089 o
-2 11 1 9.283 9.543 0.279 11.758 o
-2 11 2 4.907 5.035 0.119 37.389 o
-2 11 3 10.167 10.717 0.199 13.636 o
-2 11 4 10.485 10.538 0.189 13.780 o
-2 11 5 6.211 6.199 0.139 27.740 o
-2 11 6 1.974 2.060 0.080 102.287 o
-2 12 1 0.893 0.876 0.090 149.332 o
-2 12 2 12.303 12.737 0.328 8.070 o
-1 -12 1 0.090 0.100 0.040 948.039 o
-1 -12 2 9.593 9.762 0.179 15.517 o
-1 -12 3 5.763 6.100 0.199 22.614 o
-1 -11 1 6.285 6.269 0.139 27.426 o
-1 -11 2 0.708 0.707 0.060 255.958 o
-1 -11 3 29.884 30.211 0.438 2.611 o
-1 -10 1 15.775 15.643 0.209 8.179 o
-1 -10 2 12.752 12.409 0.219 10.437 o
-1 -10 3 0.661 0.687 0.040 356.587 o
-1 -10 4 10.079 9.045 0.219 13.714 o
-1 -9 1 107.254 108.536 1.085 0.286 o
-1 -9 2 13.889 13.951 0.179 10.083 o
-1 -9 3 6.587 6.249 0.139 26.613 o
-1 -9 4 24.625 24.290 0.279 4.105 o
-1 -9 17 0.097 0.060 0.070 377.190 o
-1 -9 18 2.090 2.219 0.109 76.494 o
-1 -9 20 1.600 1.552 0.100 99.901 o
-1 -8 1 4.134 3.781 0.080 54.748 o
-1 -8 2 4.668 4.587 0.080 47.021 o
-1 -8 3 60.593 59.388 0.607 0.856 o
-1 -8 4 24.096 23.514 0.318 4.049 o
-1 -8 5 0.254 0.458 0.090 203.111 o
-1 -8 14 30.746 30.609 0.617 2.048 o
-1 -8 15 13.282 13.643 0.259 8.936 o
-1 -8 16 0.633 0.597 0.060 275.186 o
-1 -8 17 0.815 0.707 0.060 241.919 o
-1 -8 18 5.856 6.180 0.199 22.368 o
-1 -8 19 16.060 15.932 0.269 7.181 o
-1 -8 20 0.127 0.070 0.040 911.221 o
-1 -8 21 0.052 0.040 0.060 524.835 o
-1 -7 1 23.509 23.007 0.428 3.572 o
-1 -7 2 14.332 13.573 0.259 8.473 o
-1 -7 3 65.756 65.189 0.806 0.678 o
-1 -7 4 117.692 118.954 1.393 0.226 o
-1 -7 5 7.420 7.015 0.209 18.371 o
-1 -7 11 6.235 6.249 0.169 24.509 o
-1 -7 12 4.194 4.020 0.080 53.114 o
-1 -7 13 55.678 57.109 0.587 0.962 o
-1 -7 14 1.664 1.582 0.060 141.708 o
-1 -7 15 31.795 32.191 0.358 2.605 o
-1 -7 16 28.381 28.440 0.328 3.166 o
-1 -7 17 7.551 7.025 0.149 22.530 o
-1 -7 18 0.081 0.090 0.050 680.906 o
-1 -7 19 8.901 9.374 0.179 16.591 o
-1 -7 20 1.603 1.771 0.080 117.475 o
-1 -7 21 3.865 3.821 0.149 39.364 o
-1 -7 22 0.466 0.488 0.050 379.707 o
-1 -6 1 211.050 213.419 2.388 0.074 o
-1 -6 2 89.637 86.663 1.025 0.394 o
-1 -6 3 21.039 20.290 0.299 4.981 o
-1 -6 4 25.666 26.151 0.358 3.480 o
-1 -6 5 292.500 293.395 4.568 0.033 o
-1 -6 6 224.177 201.777 3.184 0.062 o
-1 -6 7 62.179 59.606 0.965 0.675 o
-1 -6 8 47.975 47.884 0.637 1.170 o
-1 -6 9 154.070 154.967 1.692 0.139 o
-1 -6 10 23.437 22.917 0.358 3.972 o
-1 -6 11 21.411 19.275 0.358 4.564 o
-1 -6 12 32.725 32.261 0.348 2.554 o
-1 -6 13 28.179 28.012 0.308 3.275 o
-1 -6 14 9.286 8.906 0.129 18.740 o
-1 -6 15 0.003 0.249 0.050 678.602 o
-1 -6 16 22.105 22.370 0.269 4.763 o
-1 -6 17 38.110 38.023 0.418 1.918 o
-1 -6 18 0.668 0.776 0.060 256.663 o
-1 -6 19 1.187 1.204 0.070 162.812 o
-1 -6 20 16.550 16.797 0.279 6.746 o
-1 -6 21 13.450 14.349 0.249 8.888 o
-1 -6 22 3.620 3.602 0.100 54.971 o
-1 -5 1 14.853 13.941 0.219 8.853 o
-1 -5 2 23.304 22.977 0.289 4.376 o
-1 -5 3 259.091 259.502 2.279 0.054 o
-1 -5 4 0.094 0.269 0.040 815.108 o
-1 -5 5 1.659 1.572 0.050 154.032 o
-1 -5 6 197.700 201.269 1.771 0.091 o
-1 -5 7 7.698 7.364 0.139 22.588 o
-1 -5 8 25.919 26.659 0.348 3.463 o
-1 -5 9 16.060 14.877 0.229 7.941 o
-1 -5 10 65.141 64.900 0.766 0.700 o
-1 -5 11 25.898 25.763 0.398 3.304 o
-1 -5 12 0.987 0.965 0.080 162.223 o
-1 -5 13 9.495 9.424 0.129 17.999 o
-1 -5 14 128.750 131.124 1.274 0.202 o
-1 -5 15 13.647 13.384 0.179 10.415 o
-1 -5 16 4.870 4.916 0.090 42.873 o
-1 -5 17 9.358 9.105 0.139 18.022 o
-1 -5 18 24.084 23.813 0.289 4.180 o
-1 -5 19 19.445 20.310 0.318 5.149 o
-1 -5 20 2.002 1.921 0.080 103.386 o
-1 -5 21 6.958 7.115 0.149 23.722 o
-1 -5 22 3.730 3.851 0.109 50.180 o
-1 -5 23 0.160 0.279 0.050 552.756 o
-1 -4 1 13.969 15.116 0.199 9.348 o
-1 -4 2 106.623 107.630 1.115 0.286 o
-1 -4 3 2.823 2.617 0.070 83.355 o
-1 -4 4 254.787 267.045 2.677 0.052 o
-1 -4 5 90.648 92.495 1.055 0.373 o
-1 -4 6 74.187 77.578 0.786 0.557 o
-1 -4 7 464.173 470.454 4.458 0.017 o
-1 -4 8 31.998 30.420 0.388 2.583 o
-1 -4 9 7.901 7.603 0.149 21.252 o
-1 -4 10 92.309 94.624 1.065 0.360 o
-1 -4 11 296.662 311.088 3.294 0.038 o
-1 -4 12 16.724 16.787 0.318 6.204 o
-1 -4 13 15.585 15.285 0.189 8.628 o
-1 -4 14 0.061 0.129 0.040 973.295 o
-1 -4 15 21.878 21.395 0.249 5.031 o
-1 -4 16 2.121 2.030 0.060 114.473 o
-1 -4 17 0.425 0.508 0.040 470.175 o
-1 -4 18 1.662 1.751 0.060 137.822 o
-1 -4 19 10.352 10.449 0.189 13.952 o
-1 -4 20 13.774 13.872 0.239 9.040 o
-1 -4 21 0.616 0.707 0.060 269.447 o
-1 -4 22 21.298 21.146 0.328 4.636 o
-1 -4 23 0.009 0.050 0.050 773.356 o
-1 -3 1 1393.360 1403.230 15.862 0.002 o
-1 -3 2 0.624 0.876 0.050 297.031 o
-1 -3 3 0.057 0.209 0.060 481.031 o
-1 -3 4 306.434 328.921 3.712 0.033 o
-1 -3 5 28.465 31.903 0.428 2.685 o
-1 -3 6 369.145 388.756 4.189 0.024 o
-1 -3 7 23.522 25.574 0.328 3.932 o
-1 -3 8 92.065 95.092 1.045 0.363 o
-1 -3 9 188.654 196.443 2.090 0.092 o
-1 -3 10 72.058 73.468 0.846 0.574 o
-1 -3 11 0.050 0.169 0.050 672.566 o
-1 -3 12 365.157 379.093 3.990 0.025 o
-1 -3 13 28.412 25.843 0.458 2.830 o
-1 -3 14 18.259 17.912 0.219 6.683 o
-1 -3 15 45.163 43.476 0.458 1.474 o
-1 -3 16 51.408 51.297 0.537 1.133 o
-1 -3 17 16.691 16.180 0.209 7.678 o
-1 -3 18 0.442 0.388 0.040 490.307 o
-1 -3 19 4.106 3.911 0.100 49.632 o
-1 -3 20 13.785 13.255 0.229 9.388 o
-1 -3 21 3.662 3.752 0.100 53.930 o
-1 -3 22 2.264 2.189 0.080 93.631 o
-1 -3 23 10.017 9.702 0.179 15.071 o
-1 -2 1 372.194 401.185 4.568 0.023 o
-1 -2 2 25.941 27.515 0.358 3.371 o
-1 -2 3 10.163 12.429 0.189 13.200 o
-1 -2 4 117.341 126.020 1.463 0.215 o
-1 -2 5 129.223 135.383 1.572 0.183 o
-1 -2 6 105.136 109.103 1.284 0.273 o
-1 -2 7 23.436 24.917 0.318 4.042 o
-1 -2 8 18.428 17.822 0.249 6.351 o
-1 -2 9 93.780 94.644 1.045 0.357 o
-1 -2 10 102.840 100.903 1.124 0.306 o
-1 -2 11 61.129 60.313 0.716 0.793 o
-1 -2 12 42.887 42.491 0.537 1.479 o
-1 -2 13 15.239 15.026 0.289 7.332 o
-1 -2 14 21.054 20.270 0.209 5.610 o
-1 -2 15 17.659 16.797 0.209 7.186 o
-1 -2 16 5.929 5.583 0.100 34.311 o
-1 -2 17 10.565 10.110 0.149 15.335 o
-1 -2 18 0.794 0.866 0.050 268.813 o
-1 -2 19 40.688 40.202 0.567 1.552 o
-1 -2 20 0.769 0.707 0.050 286.107 o
-1 -2 21 4.150 3.980 0.100 49.035 o
-1 -2 22 9.471 9.662 0.179 15.717 o
-1 -1 1 979.400 987.359 11.185 0.004 o
-1 -1 3 301.094 330.324 4.309 0.031 o
-1 -1 4 63.975 69.289 0.955 0.621 o
-1 -1 5 67.892 74.802 0.886 0.590 o
-1 -1 6 315.949 345.370 3.911 0.031 o
-1 -1 7 337.545 354.644 3.383 0.030 o
-1 -1 8 40.476 41.406 0.488 1.644 o
-1 -1 9 17.197 16.807 0.239 7.015 o
-1 -1 10 40.913 41.516 0.508 1.600 o
-1 -1 11 103.852 103.431 1.154 0.296 o
-1 -1 12 158.100 157.087 1.722 0.133 o
-1 -1 13 79.315 78.623 1.154 0.436 o
-1 -1 14 29.758 27.326 0.299 3.172 o
-1 -1 15 66.773 65.100 0.657 0.721 o
-1 -1 16 18.018 17.673 0.219 6.803 o
-1 -1 17 67.688 65.866 0.677 0.700 o
-1 -1 18 34.313 33.545 0.378 2.332 o
-1 -1 19 5.987 5.702 0.119 31.511 o
-1 -1 20 1.033 0.965 0.080 159.575 o
-1 0 1 975.908 1007.060 13.095 0.003 o
-1 0 2 1388.870 1340.130 17.375 0.002 o
-1 0 3 135.952 148.300 1.702 0.160 o
-1 0 4 313.676 350.335 4.538 0.029 o
-1 0 5 306.972 336.672 3.801 0.033 o
-1 0 6 210.913 219.549 2.518 0.071 o
-1 0 7 252.573 272.041 2.995 0.049 o
-1 0 8 144.437 152.051 1.493 0.157 o
-1 0 9 154.092 157.445 1.542 0.142 o
-1 0 11 2.467 2.508 0.080 85.998 o
-1 0 12 103.560 99.629 1.124 0.306 o
-1 0 13 59.068 54.382 0.826 0.803 o
-1 0 14 1.907 1.791 0.050 135.833 o
-1 0 15 16.473 15.414 0.229 7.664 o
-1 0 16 27.522 26.430 0.428 2.992 o
-1 1 1 118.807 133.304 1.532 0.202 o
-1 1 2 1473.990 1519.400 19.693 0.001 o
-1 1 3 278.522 300.839 3.911 0.037 o
-1 1 4 45.046 47.267 0.597 1.284 o
-1 1 5 253.075 271.802 3.085 0.049 o
-1 1 6 114.182 120.318 1.433 0.228 o
-1 1 7 2.952 3.244 0.070 75.617 o
-1 1 8 173.063 179.845 1.791 0.111 o
-1 1 9 3.749 3.682 0.090 56.284 o
-1 1 10 93.297 92.564 1.154 0.348 o
-1 1 11 0.015 0.279 0.060 484.068 o
-1 1 12 5.110 5.204 0.169 28.695 o
-1 1 13 21.754 20.439 0.328 4.618 o
-1 1 14 16.178 14.459 0.418 5.377 o
-1 2 1 274.383 308.760 4.040 0.037 o
-1 2 2 258.268 277.942 3.154 0.047 o
-1 2 3 919.425 992.901 11.274 0.004 o
-1 2 4 127.883 141.434 1.652 0.176 o
-1 2 5 22.941 24.589 0.348 3.979 o
-1 2 6 67.556 71.607 0.856 0.615 o
-1 2 7 1155.750 1160.860 12.717 0.003 o
-1 2 8 5.700 5.403 0.119 33.163 o
-1 2 9 153.109 154.828 1.741 0.138 o
-1 2 10 140.000 138.697 1.572 0.167 o
-1 2 11 39.308 36.998 0.846 1.252 o
-1 3 1 28.674 31.604 0.498 2.469 o
-1 3 2 39.103 36.938 0.577 1.651 o
-1 3 3 68.767 70.045 0.846 0.614 o
-1 3 4 100.561 102.655 1.055 0.318 o
-1 3 5 17.759 19.872 0.249 6.246 o
-1 3 6 3.062 2.468 0.060 84.676 o
-1 3 7 0.671 0.627 0.040 362.104 o
-1 3 8 255.385 255.751 3.164 0.049 o
-1 3 9 26.756 25.952 0.458 2.965 o
-1 3 10 2.547 2.468 0.139 54.734 o
-1 3 11 39.333 34.460 0.836 1.292 o
-1 4 1 132.130 143.076 1.453 0.179 o
-1 4 2 129.723 137.155 1.244 0.197 o
-1 4 3 56.629 56.651 0.547 0.970 o
-1 4 4 29.928 30.570 0.328 2.909 o
-1 4 5 173.943 174.809 1.781 0.113 o
-1 4 6 8.514 9.344 0.179 17.114 o
-1 4 7 23.312 22.977 0.338 4.097 o
-1 4 8 218.479 224.047 2.856 0.064 o
-1 4 9 48.182 49.098 1.144 0.760 o
-1 4 10 3.649 3.841 0.100 53.653 o
-1 4 11 5.602 5.473 0.129 32.096 o
-1 5 1 57.058 57.726 0.567 0.943 o
-1 5 2 224.274 227.898 2.040 0.071 o
-1 5 3 211.521 222.465 2.488 0.071 o
-1 5 4 11.006 10.787 0.199 12.856 o
-1 5 5 85.695 85.499 1.035 0.413 o
-1 5 6 20.755 20.658 0.328 4.779 o
-1 5 7 27.588 26.858 0.488 2.747 o
-1 5 8 67.256 65.736 0.776 0.671 o
-1 5 9 49.026 48.481 0.697 1.091 o
-1 5 10 58.332 56.900 0.806 0.807 o
-1 5 11 22.242 21.693 0.348 4.300 o
-1 6 1 0.039 0.159 0.050 686.633 o
-1 6 2 3.308 2.946 0.100 61.281 o
-1 6 3 119.469 119.263 1.413 0.221 o
-1 6 4 28.273 28.002 0.498 2.619 o
-1 6 5 30.592 29.714 0.378 2.749 o
-1 6 6 72.367 72.403 0.736 0.605 o
-1 6 7 7.396 7.224 0.109 25.609 o
-1 6 8 19.949 19.414 0.239 5.792 o
-1 6 9 1.048 1.035 0.060 200.002 o
-1 6 10 4.135 3.980 0.109 46.778 o
-1 6 11 10.716 10.170 0.199 13.383 o
-1 6 12 0.054 0.080 0.060 513.462 o
-1 7 1 77.806 80.673 1.264 0.415 o
-1 7 2 64.911 65.786 0.667 0.734 o
-1 7 3 39.046 38.650 0.418 1.859 o
-1 7 4 190.146 191.865 1.881 0.096 o
-1 7 5 16.947 16.917 0.209 7.432 o
-1 7 6 0.006 0.279 0.050 663.775 o
-1 7 7 16.275 15.872 0.209 7.913 o
-1 7 8 42.373 42.630 0.468 1.575 o
-1 7 9 5.876 5.553 0.139 29.752 o
-1 7 10 0.016 0.010 0.050 789.051 o
-1 7 11 7.381 7.493 0.199 18.782 o
-1 7 12 0.827 0.915 0.070 199.068 o
-1 7 13 29.143 29.515 0.577 2.266 o
-1 8 1 16.370 15.076 0.179 8.433 o
-1 8 2 1.083 1.304 0.050 206.609 o
-1 8 3 191.800 197.746 1.940 0.092 o
-1 8 4 3.911 3.742 0.080 57.097 o
-1 8 5 44.958 45.327 0.488 1.422 o
-1 8 6 68.455 68.761 0.716 0.664 o
-1 8 7 10.889 11.036 0.159 14.134 o
-1 8 8 0.128 0.189 0.040 822.200 o
-1 8 9 50.012 50.063 0.687 1.065 o
-1 8 10 16.609 16.787 0.358 5.755 o
-1 8 11 0.013 0.119 0.060 524.425 o
-1 8 12 4.333 4.349 0.149 36.104 o
-1 8 13 1.739 1.662 0.090 104.804 o
-1 9 1 22.029 22.012 0.269 4.813 o
-1 9 2 20.267 19.763 0.249 5.588 o
-1 9 3 1.933 1.960 0.060 122.298 o
-1 9 4 5.102 4.985 0.100 39.741 o
-1 9 5 0.504 0.527 0.050 363.378 o
-1 9 6 7.415 7.583 0.159 21.508 o
-1 9 7 1.958 1.930 0.080 104.437 o
-1 9 8 7.252 7.324 0.149 22.848 o
-1 9 9 1.408 1.463 0.070 143.939 o
-1 9 10 0.588 0.647 0.070 236.431 o
-1 9 11 10.883 11.185 0.259 10.900 o
-1 10 1 20.576 20.400 0.318 4.913 o
-1 10 2 1.271 1.244 0.070 156.808 o
-1 10 3 0.779 0.707 0.060 246.471 o
-1 10 4 40.504 43.118 0.607 1.459 o
-1 10 5 20.734 21.892 0.338 4.600 o
-1 10 6 0.071 0.159 0.050 658.632 o
-1 10 7 4.800 4.786 0.119 38.511 o
-1 10 8 19.183 19.763 0.308 5.348 o
-1 10 9 21.049 21.235 0.328 4.673 o
-1 11 1 41.279 42.560 0.597 1.456 o
-1 11 2 0.790 0.766 0.060 241.307 o
-1 11 3 1.658 1.632 0.070 129.219 o
-1 11 4 0.593 0.537 0.050 339.440 o
-1 11 5 2.255 2.478 0.080 90.652 o
-1 11 6 4.749 5.005 0.119 38.221 o
-1 12 1 0.004 0.040 0.050 785.519 o
-1 12 2 18.453 19.116 0.299 5.683 o
-1 12 3 3.405 3.562 0.100 57.157 o
0 -13 4 3.187 3.075 0.129 51.165 o
0 -12 1 21.215 22.499 0.348 4.399 o
0 -12 2 7.727 7.752 0.229 16.244 o
0 -12 3 0.006 0.010 0.060 558.982 o
0 -12 4 3.629 3.622 0.149 41.005 o
0 -12 5 2.141 2.209 0.109 75.822 o
0 -11 1 0.078 0.129 0.050 665.684 o
0 -11 2 7.404 7.503 0.229 16.752 o
0 -11 3 39.667 40.132 0.846 1.212 o
0 -11 4 3.903 3.861 0.149 39.090 o
0 -11 5 1.134 1.115 0.090 133.454 o
0 -11 6 25.798 26.380 0.587 2.518 o
0 -10 1 48.919 49.029 0.527 1.225 o
0 -10 2 0.012 0.070 0.050 759.140 o
0 -10 3 2.649 2.667 0.100 70.945 o
0 -10 4 33.421 33.575 0.557 1.994 o
0 -10 5 40.978 41.705 0.667 1.389 o
0 -10 6 1.342 1.314 0.090 122.056 o
0 -10 16 46.359 48.004 0.935 0.941 o
0 -10 17 0.089 0.189 0.080 285.975 o
0 -10 18 0.713 0.736 0.080 187.835 o
0 -9 1 17.391 17.016 0.219 7.136 o
0 -9 2 12.077 11.812 0.159 12.632 o
0 -9 3 1.086 1.025 0.060 197.109 o
0 -9 4 0.392 0.368 0.060 344.745 o
0 -9 5 4.035 3.791 0.119 45.657 o
0 -9 6 98.100 102.097 1.503 0.276 o
0 -9 13 6.756 6.727 0.199 20.334 o
0 -9 14 8.524 8.279 0.229 15.115 o
0 -9 15 3.319 3.334 0.139 46.245 o
0 -9 16 3.739 3.553 0.139 43.123 o
0 -9 17 19.265 19.912 0.448 4.159 o
0 -9 18 0.898 0.985 0.090 146.502 o
0 -9 19 2.065 2.020 0.109 78.396 o
0 -9 20 0.415 0.398 0.070 276.512 o
0 -8 1 11.092 11.056 0.149 14.217 o
0 -8 2 119.068 117.631 1.164 0.240 o
0 -8 3 86.090 86.803 1.065 0.403 o
0 -8 4 8.892 9.016 0.189 16.333 o
0 -8 5 9.284 8.966 0.189 15.893 o
0 -8 6 61.585 61.587 0.915 0.693 o
0 -8 10 72.015 73.349 1.612 0.374 o
0 -8 11 30.581 31.166 0.488 2.388 o
0 -8 12 0.398 0.488 0.060 329.495 o
0 -8 13 31.638 32.181 0.508 2.241 o
0 -8 14 80.445 79.907 1.134 0.432 o
0 -8 15 1.048 1.025 0.070 177.688 o
0 -8 16 0.009 0.070 0.070 401.589 o
0 -8 17 20.177 20.817 0.458 3.911 o
0 -8 18 5.736 5.990 0.189 23.808 o
0 -8 19 0.257 0.299 0.080 254.044 o
0 -8 20 0.598 0.398 0.070 250.490 o
0 -8 21 1.478 1.443 0.100 104.238 o
0 -7 1 41.867 41.257 0.617 1.433 o
0 -7 2 3.017 3.204 0.100 63.065 o
0 -7 3 38.721 37.983 0.508 1.754 o
0 -7 4 32.301 30.968 0.478 2.314 o
0 -7 5 23.195 22.977 0.488 3.288 o
0 -7 6 30.986 31.575 0.617 2.015 o
0 -7 7 151.597 159.097 2.338 0.118 o
0 -7 8 37.696 37.276 0.856 1.270 o
0 -7 9 36.101 36.232 0.846 1.330 o
0 -7 10 1.618 1.642 0.070 130.639 o
0 -7 11 76.481 76.991 1.085 0.471 o
0 -7 12 61.563 60.791 0.876 0.714 o
0 -7 13 0.250 0.368 0.060 382.280 o
0 -7 14 11.777 11.563 0.229 11.079 o
0 -7 15 12.533 12.319 0.169 11.801 o
0 -7 16 11.951 12.220 0.169 12.312 o
0 -7 17 10.425 10.329 0.189 13.939 o
0 -7 18 11.590 11.832 0.209 11.675 o
0 -7 19 2.755 2.806 0.090 73.308 o
0 -7 20 6.647 6.707 0.139 25.843 o
0 -7 21 13.537 14.558 0.249 8.797 o
0 -7 22 9.203 9.861 0.189 15.470 o
0 -6 1 155.132 157.305 1.791 0.133 o
0 -6 2 55.716 54.293 0.677 0.934 o
0 -6 3 50.757 50.770 0.637 1.081 o
0 -6 4 524.011 539.534 5.871 0.012 o
0 -6 5 8.892 9.384 0.159 17.569 o
0 -6 6 0.722 0.886 0.060 242.332 o
0 -6 7 3.633 3.503 0.100 55.300 o
0 -6 8 61.038 59.577 1.005 0.668 o
0 -6 9 24.780 25.057 0.498 3.004 o
0 -6 10 0.021 0.100 0.060 525.181 o
0 -6 11 18.961 18.638 0.259 5.988 o
0 -6 12 62.306 62.472 0.627 0.802 o
0 -6 13 68.309 69.219 0.697 0.669 o
0 -6 14 11.749 11.294 0.159 13.161 o
0 -6 15 69.521 70.801 0.716 0.644 o
0 -6 16 2.651 2.488 0.070 88.078 o
0 -6 17 18.277 18.370 0.229 6.508 o
0 -6 18 0.702 0.637 0.060 261.774 o
0 -6 19 20.133 20.877 0.328 4.876 o
0 -6 20 0.049 0.109 0.050 701.065 o
0 -6 21 3.174 3.184 0.100 61.442 o
0 -6 22 11.820 12.299 0.219 11.075 o
0 -5 1 28.362 28.370 0.328 3.171 o
0 -5 2 210.662 217.071 2.159 0.076 o
0 -5 3 310.288 317.467 3.115 0.036 o
0 -5 4 39.063 38.610 0.388 1.901 o
0 -5 5 449.694 448.770 3.990 0.018 o
0 -5 6 132.537 132.149 1.174 0.200 o
0 -5 7 149.812 150.001 1.333 0.157 o
0 -5 8 13.448 13.454 0.209 9.922 o
0 -5 9 170.185 171.535 1.861 0.114 o
0 -5 10 91.143 92.843 1.055 0.370 o
0 -5 11 18.093 17.952 0.308 5.815 o
0 -5 12 6.739 6.657 0.179 22.102 o
0 -5 13 38.065 37.625 0.398 1.961 o
0 -5 14 63.737 66.522 0.677 0.740 o
0 -5 15 24.534 24.579 0.289 4.050 o
0 -5 16 14.818 14.727 0.199 9.002 o
0 -5 17 25.976 25.793 0.308 3.674 o
0 -5 18 31.114 30.370 0.348 2.759 o
0 -5 19 5.041 5.344 0.129 34.533 o
0 -5 20 25.984 26.410 0.398 3.261 o
0 -5 21 4.772 4.786 0.119 38.653 o
0 -5 22 6.909 7.165 0.149 23.776 o
0 -5 23 0.299 0.289 0.060 379.766 o
0 -4 1 179.611 190.532 1.921 0.101 o
0 -4 2 148.575 152.638 1.781 0.142 o
0 -4 3 65.622 67.936 0.975 0.606 o
0 -4 4 272.243 286.201 3.254 0.043 o
0 -4 5 86.507 85.489 0.985 0.418 o
0 -4 6 0.914 0.826 0.040 286.254 o
0 -4 7 109.895 110.884 1.105 0.274 o
0 -4 8 51.205 52.103 0.557 1.115 o
0 -4 9 0.512 0.498 0.050 365.274 o
0 -4 10 29.405 29.326 0.388 2.836 o
0 -4 11 0.375 0.657 0.060 316.442 o
0 -4 12 224.646 231.620 3.224 0.058 o
0 -4 13 1.164 1.224 0.050 202.763 o
0 -4 14 7.782 7.413 0.109 24.364 o
0 -4 15 52.900 51.964 0.537 1.093 o
0 -4 16 27.678 27.375 0.318 3.333 o
0 -4 17 3.201 3.244 0.080 68.162 o
0 -4 18 39.847 38.690 0.428 1.807 o
0 -4 19 17.616 17.633 0.289 6.193 o
0 -4 20 0.899 1.055 0.060 213.058 o
0 -4 21 2.033 1.911 0.080 102.687 o
0 -4 22 0.309 0.328 0.050 464.254 o
0 -4 23 16.953 16.668 0.378 5.465 o
0 -3 1 3.566 4.219 0.100 52.748 o
0 -3 2 167.190 171.525 2.289 0.106 o
0 -3 3 14.308 16.041 0.239 8.288 o
0 -3 5 738.126 751.808 8.538 0.006 o
0 -3 6 45.463 47.387 0.517 1.348 o
0 -3 7 80.976 82.474 0.826 0.485 o
0 -3 8 380.023 391.622 3.712 0.024 o
0 -3 9 299.399 307.675 3.224 0.038 o
0 -3 10 232.343 237.849 2.528 0.062 o
0 -3 11 108.473 109.760 1.224 0.269 o
0 -3 12 6.168 6.150 0.139 27.937 o
0 -3 13 19.330 17.932 0.328 5.336 o
0 -3 14 7.085 6.787 0.109 27.100 o
0 -3 15 24.416 24.141 0.279 4.149 o
0 -3 16 0.228 0.219 0.030 911.923 o
0 -3 17 17.176 16.728 0.209 7.380 o
0 -3 18 2.493 2.547 0.070 90.798 o
0 -3 19 5.985 5.752 0.129 30.257 o
0 -3 20 50.092 50.591 0.707 1.043 o
0 -3 21 1.996 1.921 0.070 112.095 o
0 -3 22 0.302 0.189 0.060 393.458 o
0 -3 23 3.775 3.801 0.139 42.239 o
0 -2 2 882.287 876.634 9.941 0.004 o
0 -2 3 4.317 6.816 0.229 21.421 o
0 -2 4 207.348 219.858 2.498 0.073 o
0 -2 5 508.769 548.380 6.170 0.012 o
0 -2 6 154.528 155.902 1.811 0.134 o
0 -2 7 133.878 143.245 1.403 0.179 o
0 -2 8 8.195 8.080 0.129 21.462 o
0 -2 9 90.369 93.141 1.035 0.375 o
0 -2 10 541.282 548.460 5.732 0.012 o
0 -2 11 3.396 3.761 0.100 56.298 o
0 -2 12 5.354 4.995 0.119 35.445 o
0 -2 13 192.198 191.527 2.697 0.080 o
0 -2 14 56.209 55.228 0.557 0.985 o
0 -2 15 0.519 0.438 0.040 444.778 o
0 -2 16 28.898 27.664 0.308 3.216 o
0 -2 17 29.113 28.420 0.318 3.122 o
0 -2 18 22.183 21.454 0.259 4.900 o
0 -2 19 0.340 0.219 0.050 474.842 o
0 -2 20 1.517 1.612 0.100 101.169 o
0 -2 21 31.074 30.132 0.627 2.018 o
0 -2 22 1.418 1.493 0.090 116.604 o
0 -1 1 556.147 463.209 10.717 0.008 o
0 -1 2 65.946 65.975 0.766 0.686 o
0 -1 3 404.165 436.322 4.995 0.019 o
0 -1 4 27.911 31.336 0.398 2.847 o
0 -1 5 51.535 56.502 0.697 0.973 o
0 -1 6 5.646 6.816 0.129 29.618 o
0 -1 7 226.627 244.188 2.398 0.064 o
0 -1 8 55.142 56.601 0.587 0.976 o
0 -1 10 263.310 268.856 2.836 0.049 o
0 -1 11 18.209 18.549 0.269 6.111 o
0 -1 12 2.583 2.577 0.090 77.735 o
0 -1 13 2.503 2.518 0.100 74.052 o
0 -1 14 51.274 49.984 0.607 1.100 o
0 -1 15 12.586 12.329 0.159 11.984 o
0 -1 16 11.467 10.956 0.179 13.002 o
0 -1 17 30.104 30.221 0.478 2.479 o
0 -1 18 18.604 17.524 0.308 5.742 o
0 -1 19 10.366 10.021 0.259 11.608 o
0 -1 20 6.467 6.488 0.189 21.893 o
0 -1 21 0.937 1.115 0.080 160.833 o
0 -1 22 1.485 1.562 0.090 113.434 o
0 0 2 252.385 259.681 3.443 0.047 o
0 0 3 991.908 932.479 12.200 0.003 o
0 0 5 184.111 199.637 2.279 0.090 o
0 0 6 581.637 613.181 6.946 0.010 o
0 0 7 6.157 6.578 0.109 30.416 o
0 0 8 151.188 157.664 1.532 0.145 o
0 0 9 55.411 55.745 0.647 0.945 o
0 0 10 17.152 15.971 0.239 7.177 o
0 0 11 357.373 355.480 3.732 0.027 o
0 0 12 53.168 52.233 0.647 1.014 o
0 0 13 33.541 30.271 0.687 1.776 o
0 0 14 6.319 5.961 0.129 28.835 o
0 0 15 199.693 198.791 2.667 0.077 o
0 0 16 32.119 31.853 0.488 2.273 o
0 0 17 33.338 32.072 0.498 2.173 o
0 0 18 1.515 1.612 0.090 111.767 o
0 0 19 14.690 13.683 0.318 7.265 o
0 1 0 208.136 225.569 3.015 0.065 o
0 1 1 907.394 889.411 10.130 0.004 o
0 1 2 335.232 396.448 5.224 0.023 o
0 1 3 61.163 63.269 0.756 0.758 o
0 1 4 2.180 1.522 0.060 121.286 o
0 1 5 725.139 746.664 8.508 0.006 o
0 1 6 72.243 75.966 0.925 0.541 o
0 1 7 26.189 25.863 0.378 3.352 o
0 1 8 162.658 163.803 1.483 0.133 o
0 1 9 43.028 44.023 0.428 1.570 o
0 1 10 112.527 107.630 1.323 0.253 o
0 1 11 1.582 1.333 0.080 125.947 o
0 1 12 28.069 25.992 0.597 2.361 o
0 1 13 73.538 68.334 1.413 0.425 o
0 1 14 20.313 17.225 0.448 4.199 o
0 2 0 571.594 595.428 6.787 0.010 o
0 2 1 1523.500 1514.980 19.822 0.001 o
0 2 2 228.488 250.347 2.836 0.058 o
0 2 3 214.106 234.943 3.105 0.061 o
0 2 4 0.256 0.667 0.060 341.573 o
0 2 5 241.302 262.627 3.005 0.053 o
0 2 6 342.670 348.295 3.145 0.031 o
0 2 7 43.972 42.909 0.448 1.535 o
0 2 8 17.207 17.394 0.239 6.911 o
0 2 9 53.130 51.427 0.617 1.042 o
0 2 10 35.074 31.336 0.736 1.606 o
0 3 0 460.732 479.967 5.413 0.015 o
0 3 1 449.310 490.326 5.543 0.015 o
0 3 2 16.321 15.374 0.239 7.597 o
0 3 3 263.921 284.877 2.846 0.047 o
0 3 4 144.345 152.012 1.403 0.160 o
0 3 5 706.297 678.967 6.657 0.008 o
0 3 6 309.340 321.806 3.533 0.034 o
0 3 7 382.742 399.563 4.378 0.022 o
0 3 8 116.929 116.586 1.353 0.232 o
0 3 9 0.264 0.438 0.050 460.149 o
0 3 10 42.204 39.734 0.925 1.078 o
0 4 0 11.820 11.921 0.149 13.066 o
0 4 1 123.141 126.477 1.274 0.216 o
0 4 2 22.648 22.250 0.308 4.435 o
0 4 3 18.770 17.106 0.249 6.355 o
0 4 4 34.434 37.456 0.488 1.994 o
0 4 5 12.430 12.688 0.209 10.791 o
0 4 6 137.292 140.508 1.612 0.167 o
0 4 7 12.464 12.160 0.219 10.697 o
0 4 8 19.866 19.713 0.308 5.206 o
0 4 9 66.181 66.105 1.045 0.584 o
0 4 10 31.255 29.505 0.527 2.288 o
0 5 0 0.507 0.478 0.050 369.401 o
0 5 1 253.182 255.203 2.816 0.052 o
0 5 2 50.980 50.233 0.627 1.089 o
0 5 3 60.541 59.865 0.736 0.795 o
0 5 4 17.919 16.479 0.269 6.493 o
0 5 5 8.634 8.588 0.169 18.003 o
0 5 6 315.981 322.840 3.572 0.033 o
0 5 7 5.280 5.035 0.149 31.249 o
0 5 8 23.692 22.459 0.259 4.514 o
0 5 9 56.656 55.268 0.567 0.971 o
0 5 10 58.708 56.999 0.587 0.912 o
0 6 0 152.913 150.718 1.731 0.140 o
0 6 1 18.226 18.569 0.289 5.905 o
0 6 2 147.366 144.528 1.672 0.151 o
0 6 3 133.189 133.065 1.552 0.180 o
0 6 4 3.489 3.672 0.129 46.964 o
0 6 5 0.029 0.925 0.109 144.800 o
0 6 6 1.691 1.612 0.050 151.142 o
0 6 7 113.064 111.630 1.105 0.265 o
0 6 8 34.707 34.032 0.378 2.290 o
0 6 9 0.219 0.438 0.040 609.151 o
0 6 10 1.256 1.274 0.050 192.396 o
0 6 11 128.837 123.880 1.612 0.189 o
0 7 0 13.392 12.976 0.289 8.425 o
0 7 1 81.268 71.806 1.144 0.446 o
0 7 2 1.385 1.393 0.060 162.001 o
0 7 3 2.051 1.911 0.050 127.114 o
0 7 4 106.091 104.734 1.045 0.299 o
0 7 5 1.593 1.552 0.050 158.490 o
0 7 6 0.301 0.328 0.040 589.561 o
0 7 7 9.972 9.712 0.139 16.702 o
0 7 8 15.589 15.215 0.199 8.502 o
0 7 9 6.552 6.269 0.109 29.591 o
0 7 10 2.731 2.567 0.080 80.556 o
0 7 11 2.431 2.587 0.080 85.927 o
0 8 0 0.093 0.179 0.030 1260.800 o
0 8 1 136.611 138.896 1.383 0.179 o
0 8 2 145.379 145.106 1.443 0.162 o
0 8 3 3.767 3.324 0.080 60.807 o
0 8 4 31.971 30.599 0.348 2.678 o
0 8 5 42.554 42.093 0.468 1.578 o
0 8 6 25.166 24.828 0.299 3.893 o
0 8 7 1.977 1.861 0.060 122.516 o
0 8 8 11.551 10.857 0.199 12.372 o
0 8 9 14.467 15.026 0.249 8.274 o
0 8 10 0.476 0.517 0.050 372.504 o
0 8 11 12.432 12.160 0.209 10.966 o
0 9 0 2.976 2.816 0.070 78.781 o
0 9 1 68.364 69.776 0.726 0.657 o
0 9 2 11.127 11.205 0.159 13.806 o
0 9 3 59.422 59.079 0.627 0.866 o
0 9 4 23.829 23.673 0.289 4.232 o
0 9 5 1.033 0.906 0.060 207.292 o
0 9 6 10.106 10.220 0.189 14.311 o
0 9 7 47.767 49.506 0.687 1.115 o
0 9 8 1.869 1.950 0.080 106.604 o
0 9 9 8.009 7.901 0.159 20.131 o
0 9 10 9.853 9.662 0.179 15.277 o
0 9 11 0.604 0.587 0.050 331.035 o
0 10 0 15.700 15.723 0.209 8.195 o
0 10 1 0.034 0.159 0.060 503.272 o
0 10 2 0.908 0.836 0.060 223.507 o
0 10 3 12.706 12.588 0.219 10.410 o
0 10 4 8.493 8.687 0.169 18.136 o
0 10 5 0.006 0.199 0.060 507.471 o
0 10 6 0.022 0.060 0.050 753.647 o
0 10 7 10.351 10.041 0.189 14.154 o
0 10 8 0.864 0.935 0.060 222.882 o
0 10 9 2.232 2.428 0.080 91.701 o
0 11 0 11.918 12.210 0.209 11.302 o
0 11 1 0.364 0.418 0.050 424.713 o
0 11 2 25.119 26.519 0.398 3.346 o
0 11 3 2.060 2.060 0.080 100.070 o
0 11 4 8.397 9.016 0.169 18.036 o
0 11 5 9.306 9.782 0.179 15.842 o
0 11 6 12.268 13.145 0.229 10.271 o
0 12 0 2.091 2.209 0.080 97.438 o
0 12 1 7.155 7.384 0.229 17.115 o
0 12 2 0.036 0.090 0.060 519.821 o
0 12 3 1.372 1.602 0.100 104.918 o
1 -13 4 10.928 11.314 0.299 9.680 o
1 -13 5 0.093 0.080 0.060 494.089 o
1 -13 6 1.889 1.930 0.109 81.937 o
1 -13 7 0.653 0.647 0.070 229.027 o
1 -12 0 0.123 0.259 0.070 345.347 o
1 -12 1 9.457 9.931 0.279 11.521 o
1 -12 2 4.108 4.000 0.159 35.771 o
1 -12 3 6.351 6.518 0.209 20.318 o
1 -12 4 2.085 2.090 0.119 71.298 o
1 -12 5 8.834 8.807 0.249 13.615 o
1 -12 6 9.694 9.583 0.269 11.850 o
1 -12 7 6.028 5.911 0.189 23.294 o
1 -11 0 0.875 0.945 0.060 221.102 o
1 -11 1 10.784 11.095 0.299 9.805 o
1 -11 2 18.665 18.957 0.448 4.306 o
1 -11 3 2.703 2.528 0.129 57.334 o
1 -11 4 0.638 0.657 0.080 196.780 o
1 -11 5 19.942 20.459 0.478 3.823 o
1 -11 6 6.803 6.866 0.209 19.359 o
1 -11 7 9.178 8.787 0.249 13.336 o
1 -11 8 8.853 9.314 0.259 12.953 o
1 -11 16 0.679 0.597 0.070 228.900 o
1 -10 0 20.875 21.574 0.299 4.886 o
1 -10 1 28.494 27.863 0.478 2.676 o
1 -10 2 6.323 6.020 0.159 25.589 o
1 -10 3 27.343 27.037 0.468 2.832 o
1 -10 4 50.391 49.626 0.776 0.993 o
1 -10 5 12.393 12.140 0.249 10.005 o
1 -10 6 13.226 12.936 0.259 9.133 o
1 -10 7 94.133 94.773 1.403 0.308 o
1 -10 8 1.752 1.731 0.090 103.518 o
1 -10 12 4.804 4.966 0.159 31.465 o
1 -10 13 0.037 0.070 0.060 524.592 o
1 -10 14 2.432 2.528 0.119 64.555 o
1 -10 15 14.611 14.300 0.338 6.870 o
1 -10 16 3.874 3.961 0.149 38.994 o
1 -10 17 0.625 0.697 0.080 196.238 o
1 -10 18 11.165 11.185 0.289 9.871 o
1 -9 0 28.819 28.938 0.328 3.095 o
1 -9 1 21.208 21.126 0.259 5.139 o
1 -9 2 35.742 35.714 0.577 1.804 o
1 -9 3 8.241 7.851 0.179 18.551 o
1 -9 4 56.382 55.556 0.846 0.818 o
1 -9 5 43.419 43.347 0.677 1.292 o
1 -9 6 12.591 11.931 0.239 10.197 o
1 -9 7 3.008 2.886 0.100 64.996 o
1 -9 8 5.313 5.403 0.139 31.914 o
1 -9 9 35.040 35.475 0.508 1.975 o
1 -9 10 18.312 17.912 0.308 5.766 o
1 -9 11 1.387 1.284 0.080 134.647 o
1 -9 12 3.692 3.742 0.119 48.125 o
1 -9 13 20.348 20.250 0.348 4.739 o
1 -9 15 14.650 14.319 0.338 6.855 o
1 -9 16 13.977 14.618 0.348 6.849 o
1 -9 17 18.217 18.041 0.408 4.794 o
1 -9 18 3.869 3.682 0.149 39.676 o
1 -9 19 4.004 4.060 0.149 38.167 o
1 -9 20 18.055 18.390 0.418 4.700 o
1 -8 0 0.869 0.846 0.040 292.625 o
1 -8 1 38.340 37.635 0.408 1.932 o
1 -8 2 11.451 10.727 0.189 12.814 o
1 -8 3 2.903 2.508 0.090 73.324 o
1 -8 4 51.544 51.407 0.776 0.960 o
1 -8 5 59.393 59.298 0.886 0.741 o
1 -8 6 100.851 101.033 1.204 0.304 o
1 -8 7 33.221 32.132 0.348 2.521 o
1 -8 8 43.800 44.869 0.527 1.424 o
1 -8 9 11.982 11.523 0.169 12.582 o
1 -8 10 70.677 70.015 0.995 0.553 o
1 -8 11 0.096 0.348 0.060 436.622 o
1 -8 12 48.121 49.437 0.736 1.067 o
1 -8 13 0.050 0.308 0.060 462.477 o
1 -8 14 0.609 0.547 0.070 239.891 o
1 -8 15 27.310 27.296 0.458 2.861 o
1 -8 16 2.438 2.368 0.119 65.376 o
1 -8 17 0.162 0.159 0.070 347.868 o
1 -8 18 5.088 5.045 0.179 27.608 o
1 -8 19 11.941 12.459 0.318 8.480 o
1 -8 20 0.008 0.010 0.060 557.608 o
1 -8 21 12.099 12.170 0.308 8.703 o
1 -7 0 142.308 141.185 2.139 0.139 o
1 -7 1 13.328 13.135 0.259 9.035 o
1 -7 2 129.406 128.796 1.692 0.181 o
1 -7 3 63.803 63.318 1.115 0.586 o
1 -7 4 91.775 89.091 1.174 0.357 o
1 -7 5 0.114 0.169 0.050 620.631 o
1 -7 6 12.538 11.643 0.219 10.817 o
1 -7 7 153.860 156.111 2.299 0.119 o
1 -7 8 72.301 67.468 1.045 0.536 o
1 -7 9 0.183 0.428 0.050 499.466 o
1 -7 10 43.713 43.217 0.637 1.330 o
1 -7 11 93.078 94.147 1.323 0.323 o
1 -7 12 73.051 74.613 1.055 0.506 o
1 -7 13 38.851 39.336 0.597 1.587 o
1 -7 14 13.361 13.533 0.259 8.925 o
1 -7 15 59.165 60.900 0.896 0.730 o
1 -7 16 1.263 1.443 0.090 122.576 o
1 -7 17 4.006 3.831 0.149 38.682 o
1 -7 18 13.271 13.872 0.338 7.348 o
1 -7 19 7.430 7.632 0.159 21.432 o
1 -7 20 3.763 3.861 0.109 49.889 o
1 -7 21 4.771 4.717 0.119 38.830 o
1 -6 0 81.588 84.176 1.005 0.442 o
1 -6 1 46.874 46.809 0.478 1.351 o
1 -6 3 1.641 1.702 0.060 139.954 o
1 -6 4 0.647 0.537 0.050 326.948 o
1 -6 5 296.163 299.446 3.234 0.039 o
1 -6 6 2.493 2.199 0.080 88.575 o
1 -6 8 67.304 67.776 0.806 0.651 o
1 -6 9 127.994 129.144 1.652 0.184 o
1 -6 10 16.364 13.722 0.398 5.658 o
1 -6 11 53.274 53.387 0.776 0.918 o
1 -6 12 62.168 63.020 0.906 0.684 o
1 -6 13 10.006 9.832 0.169 15.410 o
1 -6 14 0.786 0.856 0.050 270.810 o
1 -6 15 0.105 0.398 0.050 549.997 o
1 -6 16 47.062 47.416 0.508 1.311 o
1 -6 17 1.887 2.000 0.060 123.286 o
1 -6 18 2.625 2.657 0.090 76.426 o
1 -6 19 3.973 3.961 0.109 47.974 o
1 -6 20 42.018 43.645 0.617 1.394 o
1 -6 21 11.883 12.489 0.219 10.969 o
1 -6 22 0.050 0.040 0.060 525.569 o
1 -5 0 15.726 16.021 0.199 8.252 o
1 -5 1 334.158 341.120 3.005 0.032 o
1 -5 2 656.186 661.503 5.801 0.009 o
1 -5 3 195.346 197.517 1.960 0.090 o
1 -5 4 51.005 49.048 0.587 1.131 o
1 -5 5 88.897 88.783 1.005 0.396 o
1 -5 6 84.249 82.026 0.935 0.447 o
1 -5 7 0.397 0.557 0.050 390.155 o
1 -5 8 66.869 67.478 0.726 0.683 o
1 -5 9 0.385 0.488 0.040 493.597 o
1 -5 10 137.336 142.001 1.393 0.176 o
1 -5 11 21.288 20.828 0.338 4.596 o
1 -5 12 11.919 12.190 0.189 11.835 o
1 -5 13 213.446 221.231 2.110 0.075 o
1 -5 14 0.346 0.508 0.040 508.763 o
1 -5 15 3.486 3.383 0.080 63.685 o
1 -5 16 33.483 33.614 0.368 2.406 o
1 -5 17 47.337 47.606 0.508 1.301 o
1 -5 18 1.862 1.682 0.070 120.546 o
1 -5 19 13.072 12.966 0.229 9.856 o
1 -5 20 8.035 7.961 0.159 20.035 o
1 -5 21 9.926 9.941 0.189 14.639 o
1 -5 22 0.007 0.080 0.040 1142.700 o
1 -4 0 204.289 217.310 2.159 0.079 o
1 -4 1 49.131 48.372 0.607 1.164 o
1 -4 2 59.602 61.288 0.637 0.843 o
1 -4 3 887.530 884.913 9.513 0.004 o
1 -4 4 41.869 40.660 0.408 1.703 o
1 -4 5 14.158 14.369 0.209 9.272 o
1 -4 6 263.076 269.702 2.627 0.050 o
1 -4 7 304.459 309.019 2.667 0.039 o
1 -4 8 33.132 35.067 0.358 2.401 o
1 -4 9 12.192 13.115 0.169 11.756 o
1 -4 10 125.567 131.244 1.184 0.212 o
1 -4 11 99.358 103.272 1.174 0.308 o
1 -4 12 27.708 28.112 0.478 2.725 o
1 -4 13 3.277 3.393 0.070 69.602 o
1 -4 14 103.467 104.595 1.025 0.309 o
1 -4 15 49.179 49.626 0.517 1.219 o
1 -4 16 8.488 8.100 0.129 20.869 o
1 -4 17 5.755 5.423 0.100 35.429 o
1 -4 18 75.470 75.389 0.766 0.560 o
1 -4 19 4.245 4.189 0.109 45.345 o
1 -4 20 2.410 2.358 0.080 88.650 o
1 -4 21 11.520 11.374 0.289 9.644 o
1 -4 22 11.478 11.493 0.289 9.635 o
1 -3 0 471.806 526.219 6.896 0.013 o
1 -3 1 32.112 33.296 0.428 2.375 o
1 -3 2 44.289 43.128 0.766 1.177 o
1 -3 3 742.420 744.156 8.428 0.006 o
1 -3 4 2.066 2.508 0.080 94.510 o
1 -3 5 64.851 67.388 0.796 0.680 o
1 -3 6 5.679 6.279 0.109 32.747 o
1 -3 7 96.327 99.968 0.965 0.348 o
1 -3 8 72.699 76.832 0.716 0.589 o
1 -3 9 19.074 18.608 0.219 6.317 o
1 -3 10 159.468 161.783 1.453 0.138 o
1 -3 11 88.982 94.236 1.075 0.373 o
1 -3 12 40.405 40.590 0.577 1.541 o
1 -3 13 47.826 46.939 0.577 1.237 o
1 -3 15 11.125 10.886 0.149 14.272 o
1 -3 16 103.760 104.894 1.035 0.306 o
1 -3 17 4.776 4.747 0.090 44.005 o
1 -3 18 8.348 7.911 0.179 18.347 o
1 -3 19 15.818 14.966 0.348 6.296 o
1 -3 20 0.072 0.090 0.060 502.054 o
1 -3 21 17.311 17.155 0.388 5.236 o
1 -3 22 6.011 5.682 0.179 24.613 o
1 -2 0 0.284 0.308 0.060 381.070 o
1 -2 1 310.924 343.787 3.901 0.032 o
1 -2 2 1019.990 1027.750 11.623 0.003 o
1 -2 3 270.303 281.016 3.174 0.044 o
1 -2 4 814.693 855.737 11.205 0.005 o
1 -2 5 348.708 371.292 4.836 0.024 o
1 -2 6 399.660 424.878 5.523 0.019 o
1 -2 7 32.333 32.838 0.328 2.606 o
1 -2 8 946.529 966.292 8.329 0.004 o
1 -2 9 167.351 177.685 1.572 0.121 o
1 -2 10 1.508 1.353 0.050 170.257 o
1 -2 11 5.453 5.413 0.129 32.767 o
1 -2 12 92.453 94.346 1.194 0.343 o
1 -2 13 57.931 57.795 0.687 0.868 o
1 -2 15 1.146 1.134 0.060 187.581 o
1 -2 16 8.810 8.289 0.179 17.426 o
1 -2 17 24.706 24.430 0.398 3.508 o
1 -2 18 42.827 42.919 0.647 1.347 o
1 -2 19 29.449 29.375 0.617 2.139 o
1 -2 20 6.580 6.319 0.189 21.840 o
1 -2 21 8.570 8.150 0.229 15.135 o
1 -2 22 1.157 1.105 0.080 149.311 o
1 -1 0 490.672 520.298 6.856 0.012 o
1 -1 1 402.489 433.336 4.936 0.019 o
1 -1 2 4.705 3.513 0.070 52.892 o
1 -1 3 977.803 1001.100 13.076 0.003 o
1 -1 4 8.427 7.682 0.159 19.605 o
1 -1 5 0.217 0.199 0.050 542.821 o
1 -1 6 225.628 241.541 3.184 0.057 o
1 -1 7 139.930 145.931 1.433 0.168 o
1 -1 8 263.885 273.115 2.368 0.051 o
1 -1 9 211.334 220.066 1.930 0.078 o
1 -1 10 60.877 62.512 0.597 0.834 o
1 -1 11 229.703 235.212 2.229 0.066 o
1 -1 12 1.080 1.025 0.060 197.563 o
1 -1 13 37.305 37.366 0.547 1.760 o
1 -1 14 88.018 87.539 1.214 0.368 o
1 -1 15 31.139 30.241 0.468 2.437 o
1 -1 16 2.882 2.677 0.090 72.401 o
1 -1 17 30.872 29.903 0.468 2.466 o
1 -1 18 14.194 13.703 0.328 7.254 o
1 -1 19 32.247 31.674 0.657 1.864 o
1 -1 20 2.251 2.130 0.100 81.054 o
1 -1 21 4.318 4.120 0.139 38.668 o
1 -1 22 15.748 16.151 0.368 5.905 o
1 0 0 159.721 166.192 2.179 0.115 o
1 0 1 100.572 108.635 1.453 0.268 o
1 0 2 129.079 134.149 1.791 0.172 o
1 0 3 332.661 378.168 4.956 0.025 o
1 0 4 1.196 2.229 0.109 91.862 o
1 0 5 100.290 106.506 1.254 0.292 o
1 0 6 7.648 8.419 0.159 20.310 o
1 0 7 106.074 109.988 1.085 0.287 o
1 0 8 338.981 343.598 3.294 0.031 o
1 0 9 14.519 13.862 0.169 9.896 o
1 0 10 37.227 38.112 0.478 1.863 o
1 0 11 50.706 51.108 0.627 1.086 o
1 0 12 51.462 50.501 1.065 0.772 o
1 0 13 2.200 2.100 0.080 96.152 o
1 0 14 66.533 65.746 0.925 0.625 o
1 0 15 19.490 19.136 0.318 5.263 o
1 0 16 33.544 33.037 0.508 2.112 o
1 0 17 2.328 2.090 0.080 93.317 o
1 0 18 0.007 0.070 0.050 764.776 o
1 0 19 10.411 9.951 0.259 11.601 o
1 0 20 2.553 2.498 0.109 68.296 o
1 0 21 10.281 10.240 0.259 11.592 o
1 1 0 1077.150 1057.080 12.061 0.003 o
1 1 1 1142.530 1132.450 14.897 0.002 o
1 1 2 298.241 304.839 4.000 0.034 o
1 1 3 37.071 38.043 0.478 1.872 o
1 1 4 1341.690 1359.400 13.812 0.002 o
1 1 5 5.965 6.777 0.139 27.618 o
1 1 6 57.647 58.343 0.557 0.933 o
1 1 7 9.049 9.424 0.229 14.056 o
1 1 8 36.528 36.540 0.448 1.985 o
1 1 9 492.619 493.978 5.244 0.014 o
1 1 10 1.564 1.403 0.060 151.412 o
1 1 11 4.800 4.488 0.109 41.085 o
1 1 12 96.453 87.071 1.284 0.329 o
1 1 13 234.612 232.416 3.105 0.056 o
1 1 14 0.030 0.100 0.040 1065.490 o
1 1 15 125.518 125.313 1.722 0.186 o
1 1 16 11.102 10.797 0.209 12.450 o
1 2 0 0.282 0.438 0.040 566.145 o
1 2 1 51.651 53.208 0.756 0.958 o
1 2 2 63.514 71.607 1.005 0.597 o
1 2 3 427.737 455.915 5.145 0.017 o
1 2 4 17.629 17.792 0.328 5.736 o
1 2 5 18.811 19.006 0.279 5.796 o
1 2 6 279.014 290.042 2.806 0.044 o
1 2 7 13.879 14.130 0.199 9.672 o
1 2 8 11.123 9.563 0.169 14.328 o
1 2 9 50.417 50.153 0.607 1.117 o
1 2 10 75.161 75.269 0.886 0.534 o
1 2 11 47.723 47.277 0.736 1.095 o
1 2 12 1.653 1.940 0.090 103.377 o
1 2 13 1.884 1.453 0.109 86.166 o
1 3 0 73.871 80.126 1.124 0.467 o
1 3 1 0.222 0.428 0.060 381.714 o
1 3 2 183.859 192.353 2.169 0.094 o
1 3 3 460.344 472.135 4.637 0.017 o
1 3 4 118.218 121.552 1.234 0.233 o
1 3 5 285.990 292.092 2.886 0.042 o
1 3 6 9.921 9.165 0.129 17.552 o
1 3 7 98.496 98.525 0.915 0.348 o
1 3 8 8.107 8.319 0.239 14.988 o
1 3 9 6.059 6.458 0.209 20.835 o
1 3 10 24.331 21.474 0.567 2.863 o
1 3 11 13.094 13.354 0.249 9.308 o
1 3 12 28.602 27.823 0.458 2.736 o
1 4 0 184.882 191.149 1.911 0.098 o
1 4 1 213.565 218.524 2.169 0.075 o
1 4 2 24.370 25.037 0.308 3.946 o
1 4 3 115.668 113.561 1.164 0.252 o
1 4 4 679.633 696.740 7.583 0.007 o
1 4 5 267.623 274.608 3.582 0.043 o
1 4 6 2.130 1.891 0.080 100.433 o
1 4 7 89.343 89.559 1.284 0.349 o
1 4 8 123.451 122.298 2.627 0.139 o
1 4 9 130.232 131.433 1.891 0.167 o
1 4 10 25.699 25.922 0.428 3.187 o
1 4 11 26.609 26.559 0.438 3.030 o
1 4 12 29.849 29.326 0.488 2.496 o
1 4 13 1.085 0.886 0.070 180.025 o
1 5 0 16.292 16.270 0.249 7.307 o
1 5 1 103.279 99.719 1.154 0.304 o
1 5 2 40.014 40.739 0.527 1.621 o
1 5 3 0.019 0.159 0.050 705.248 o
1 5 4 4.324 3.951 0.109 45.606 o
1 5 5 94.700 94.405 1.124 0.344 o
1 5 6 18.690 18.399 0.368 5.048 o
1 5 7 12.295 11.653 0.189 11.752 o
1 5 8 1.293 1.214 0.040 209.516 o
1 5 9 41.598 41.018 0.647 1.407 o
1 5 10 14.107 13.653 0.259 8.555 o
1 5 11 7.073 6.717 0.159 23.073 o
1 5 12 3.581 3.403 0.109 53.163 o
1 5 13 11.178 10.080 0.259 11.062 o
1 6 0 0.151 0.299 0.050 552.727 o
1 6 1 2.750 2.587 0.090 75.026 o
1 6 2 79.663 77.498 0.945 0.483 o
1 6 3 24.258 24.579 0.458 3.258 o
1 6 4 149.496 147.354 2.239 0.127 o
1 6 5 32.846 31.316 0.348 2.581 o
1 6 6 99.308 96.336 0.965 0.343 o
1 6 7 55.929 54.820 0.577 0.983 o
1 6 8 12.722 12.359 0.169 11.638 o
1 6 9 14.594 14.051 0.189 9.466 o
1 6 10 169.052 168.610 2.418 0.102 o
1 6 11 1.100 0.925 0.070 177.530 o
1 6 12 0.303 0.338 0.060 371.528 o
1 6 13 11.683 11.513 0.299 9.273 o
1 7 0 180.933 179.954 2.707 0.087 o
1 7 1 38.537 36.948 0.398 1.954 o
1 7 2 19.919 18.270 0.219 6.117 o
1 7 3 20.054 18.519 0.229 5.964 o
1 7 4 2.570 2.518 0.060 94.879 o
1 7 5 64.756 63.040 0.657 0.756 o
1 7 6 0.186 0.239 0.030 967.662 o
1 7 7 14.234 13.862 0.189 9.725 o
1 7 8 2.638 2.647 0.070 86.692 o
1 7 9 90.216 89.947 0.915 0.400 o
1 7 10 2.405 2.199 0.080 90.419 o
1 7 11 43.916 42.550 0.886 1.067 o
1 7 12 29.683 31.117 0.677 1.932 o
1 7 13 3.832 3.801 0.139 41.929 o
1 8 0 47.079 46.411 0.498 1.334 o
1 8 1 13.146 12.638 0.169 11.216 o
1 8 2 37.874 37.267 0.408 1.964 o
1 8 3 9.954 9.135 0.139 17.127 o
1 8 4 10.721 10.060 0.149 15.180 o
1 8 5 17.258 16.867 0.219 7.211 o
1 8 6 4.340 4.319 0.090 48.545 o
1 8 7 0.427 0.478 0.040 476.166 o
1 8 8 13.695 13.484 0.229 9.375 o
1 8 9 0.128 0.219 0.050 593.147 o
1 8 10 12.965 12.896 0.219 10.159 o
1 8 11 4.552 4.587 0.169 31.311 o
1 8 12 0.190 0.239 0.070 332.492 o
1 9 0 28.988 29.027 0.338 3.043 o
1 9 1 59.152 58.104 0.617 0.882 o
1 9 2 55.641 55.218 0.587 0.979 o
1 9 3 18.079 17.991 0.229 6.631 o
1 9 4 0.158 0.299 0.040 724.066 o
1 9 5 25.711 25.962 0.388 3.356 o
1 9 6 19.523 19.703 0.308 5.281 o
1 9 7 3.841 3.901 0.100 51.781 o
1 9 8 1.906 1.930 0.080 105.851 o
1 9 9 0.847 0.836 0.060 230.313 o
1 9 10 20.107 20.181 0.308 5.106 o
1 9 11 12.685 13.732 0.348 7.373 o
1 10 0 17.767 18.101 0.289 6.088 o
1 10 1 21.188 21.972 0.338 4.515 o
1 10 2 0.120 0.199 0.050 605.733 o
1 10 3 11.475 11.852 0.209 11.753 o
1 10 4 10.791 11.235 0.199 12.848 o
1 10 5 13.940 14.409 0.249 8.645 o
1 10 6 3.243 3.224 0.100 60.497 o
1 10 7 15.905 16.131 0.269 7.200 o
1 10 8 4.699 4.727 0.109 40.983 o
1 11 0 7.743 7.672 0.159 20.810 o
1 11 1 11.614 12.280 0.328 8.415 o
1 11 2 0.350 0.368 0.050 439.233 o
1 11 3 5.218 5.165 0.189 25.846 o
1 11 4 3.749 3.642 0.149 40.355 o
1 11 5 8.159 8.428 0.169 18.837 o
1 11 6 0.570 0.607 0.050 336.643 o
1 12 0 5.173 5.294 0.119 35.588 o
1 12 1 0.861 0.975 0.060 221.090 o
1 12 2 10.938 11.384 0.199 12.661 o
2 -12 0 23.867 25.564 0.577 2.708 o
2 -12 1 3.533 3.473 0.149 41.874 o
2 -12 2 8.993 9.493 0.269 12.365 o
2 -12 3 4.834 4.946 0.179 28.419 o
2 -12 4 12.836 13.095 0.338 7.618 o
2 -12 5 3.802 3.881 0.149 39.522 o
2 -12 6 3.180 3.244 0.139 47.409 o
2 -12 7 0.505 0.637 0.080 209.112 o
2 -12 8 9.813 9.762 0.269 11.710 o
2 -12 9 10.594 10.459 0.279 10.673 o
2 -12 10 2.387 2.478 0.119 65.337 o
2 -11 0 0.006 0.209 0.070 381.869 o
2 -11 1 0.063 0.259 0.070 360.140 o
2 -11 2 15.034 15.155 0.378 6.057 o
2 -11 3 8.327 8.588 0.249 14.148 o
2 -11 4 2.314 2.249 0.119 67.499 o
2 -11 5 0.008 0.010 0.060 557.656 o
2 -11 6 12.118 12.349 0.318 8.431 o
2 -11 7 70.154 72.811 1.463 0.417 o
2 -11 8 3.014 2.677 0.129 54.054 o
2 -11 9 3.342 3.572 0.149 42.620 o
2 -11 10 28.829 29.694 0.647 2.078 o
2 -11 12 1.180 1.284 0.090 128.428 o
2 -11 13 21.296 21.235 0.458 3.753 o
2 -11 14 2.714 2.916 0.129 55.556 o
2 -11 15 2.530 2.597 0.119 63.120 o
2 -11 16 0.001 0.070 0.060 544.726 o
2 -10 0 17.480 17.434 0.418 4.875 o
2 -10 1 1.735 1.811 0.090 102.930 o
2 -10 2 8.461 8.528 0.199 16.640 o
2 -10 3 52.172 52.014 0.816 0.918 o
2 -10 4 2.237 2.080 0.100 81.708 o
2 -10 5 37.090 37.257 0.607 1.670 o
2 -10 6 1.868 1.801 0.090 99.724 o
2 -10 7 0.860 0.826 0.070 200.083 o
2 -10 8 20.375 20.828 0.328 4.835 o
2 -10 9 0.559 0.488 0.050 354.026 o
2 -10 10 0.011 0.070 0.050 759.677 o
2 -10 11 3.117 3.085 0.090 66.496 o
2 -10 12 40.373 40.570 0.796 1.254 o
2 -10 13 0.078 0.050 0.070 384.047 o
2 -10 14 14.671 14.130 0.338 6.877 o
2 -10 15 15.779 16.250 0.378 5.761 o
2 -10 16 0.581 0.597 0.080 204.123 o
2 -10 17 0.492 0.508 0.070 257.296 o
2 -10 18 4.521 4.597 0.159 33.079 o
2 -9 0 57.809 57.706 0.896 0.762 o
2 -9 1 43.870 44.789 0.716 1.221 o
2 -9 2 19.425 18.847 0.348 5.043 o
2 -9 3 6.492 6.209 0.159 24.948 o
2 -9 4 68.032 66.881 1.005 0.581 o
2 -9 5 111.563 111.342 1.632 0.226 o
2 -9 6 6.688 6.667 0.109 28.496 o
2 -9 7 3.474 3.194 0.080 64.977 o
2 -9 8 88.563 88.355 0.896 0.415 o
2 -9 9 18.864 18.738 0.239 6.183 o
2 -9 10 0.081 0.189 0.050 638.556 o
2 -9 11 15.058 14.837 0.219 8.541 o
2 -9 12 24.196 24.290 0.408 3.525 o
2 -9 13 18.576 18.638 0.418 4.597 o
2 -9 14 0.826 0.736 0.090 156.262 o
2 -9 15 4.590 4.597 0.169 31.172 o
2 -9 16 33.956 34.520 0.707 1.647 o
2 -9 17 0.784 0.955 0.090 152.766 o
2 -9 18 0.014 0.090 0.060 531.879 o
2 -9 19 9.607 9.394 0.259 12.358 o
2 -8 0 2.817 2.975 0.070 80.180 o
2 -8 1 7.049 6.826 0.169 22.180 o
2 -8 2 131.528 132.508 1.911 0.164 o
2 -8 3 16.950 16.180 0.199 7.692 o
2 -8 4 7.775 7.722 0.119 23.369 o
2 -8 5 50.117 49.805 0.527 1.187 o
2 -8 6 10.903 10.190 0.139 15.220 o
2 -8 7 19.069 18.031 0.219 6.407 o
2 -8 8 0.250 0.348 0.040 619.432 o
2 -8 9 30.249 30.072 0.338 2.875 o
2 -8 10 9.827 10.080 0.149 16.264 o
2 -8 11 15.146 14.897 0.189 8.945 o
2 -8 12 27.118 26.181 0.428 3.041 o
2 -8 13 93.366 94.913 1.353 0.317 o
2 -8 14 25.755 25.823 0.428 3.187 o
2 -8 15 8.675 8.807 0.239 14.221 o
2 -8 16 2.270 2.179 0.119 68.443 o
2 -8 17 27.277 28.987 0.607 2.290 o
2 -8 18 27.697 28.201 0.597 2.321 o
2 -8 19 2.358 2.179 0.119 67.384 o
2 -8 20 3.533 3.662 0.149 41.389 o
2 -7 0 0.535 0.617 0.040 405.473 o
2 -7 1 13.091 13.424 0.209 10.143 o
2 -7 2 2.330 2.518 0.109 71.029 o
2 -7 3 164.070 155.614 2.299 0.112 o
2 -7 4 57.024 54.671 0.866 0.805 o
2 -7 5 2.479 2.169 0.070 95.444 o
2 -7 6 200.455 202.194 1.970 0.086 o
2 -7 7 23.849 22.051 0.249 4.574 o
2 -7 8 37.109 35.246 0.378 2.108 o
2 -7 9 44.088 43.715 0.458 1.507 o
2 -7 10 135.762 135.622 1.343 0.185 o
2 -7 11 0.259 0.299 0.040 632.515 o
2 -7 12 6.395 6.010 0.149 26.448 o
2 -7 13 7.854 7.364 0.169 20.205 o
2 -7 14 29.971 30.450 0.488 2.451 o
2 -7 15 1.371 1.323 0.080 134.485 o
2 -7 16 2.628 2.677 0.129 57.335 o
2 -7 17 1.612 1.702 0.109 88.900 o
2 -7 18 7.579 7.931 0.239 15.717 o
2 -7 19 22.111 22.798 0.508 3.292 o
2 -7 20 0.769 0.796 0.090 157.662 o
2 -6 0 277.721 290.380 2.597 0.045 o
2 -6 1 40.620 40.132 0.428 1.742 o
2 -6 2 16.271 15.116 0.239 7.667 o
2 -6 3 88.022 88.435 1.025 0.397 o
2 -6 4 91.132 87.151 1.015 0.388 o
2 -6 5 146.131 140.568 1.582 0.158 o
2 -6 6 0.895 1.154 0.070 184.038 o
2 -6 7 68.879 66.085 0.796 0.647 o
2 -6 8 143.732 144.150 2.139 0.136 o
2 -6 9 57.167 56.800 0.687 0.887 o
2 -6 10 4.267 4.378 0.080 50.952 o
2 -6 11 180.134 187.367 1.841 0.103 o
2 -6 12 30.828 30.579 0.378 2.694 o
2 -6 13 49.786 51.198 0.756 1.005 o
2 -6 14 17.370 17.922 0.318 5.891 o
2 -6 15 35.801 37.575 0.597 1.729 o
2 -6 16 31.799 32.012 0.517 2.212 o
2 -6 17 3.086 2.866 0.090 68.296 o
2 -6 18 1.168 1.164 0.070 165.179 o
2 -6 19 33.071 34.431 0.498 2.123 o
2 -6 20 2.702 2.717 0.090 74.767 o
2 -6 21 6.295 6.399 0.139 27.215 o
2 -5 0 65.484 67.100 0.647 0.727 o
2 -5 1 26.940 27.276 0.299 3.497 o
2 -5 2 2.231 2.120 0.070 102.376 o
2 -5 3 193.261 194.005 2.120 0.089 o
2 -5 4 65.626 66.751 0.786 0.679 o
2 -5 5 44.488 42.799 0.527 1.435 o
2 -5 6 83.656 85.240 0.985 0.432 o
2 -5 7 35.948 33.306 0.438 2.120 o
2 -5 8 21.739 22.121 0.318 4.540 o
2 -5 9 198.142 205.807 2.279 0.082 o
2 -5 10 44.058 44.700 0.726 1.207 o
2 -5 11 9.028 9.065 0.159 17.603 o
2 -5 12 18.614 18.180 0.219 6.526 o
2 -5 13 10.730 10.598 0.149 14.862 o
2 -5 14 47.115 47.307 0.498 1.320 o
2 -5 15 6.141 6.070 0.109 31.387 o
2 -5 16 1.112 1.035 0.050 217.236 o
2 -5 17 0.045 0.090 0.050 714.570 o
2 -5 18 67.350 69.070 0.935 0.601 o
2 -5 19 1.307 1.323 0.070 152.644 o
2 -5 20 10.718 10.677 0.199 13.154 o
2 -5 21 11.155 11.424 0.289 9.814 o
2 -5 22 8.149 8.508 0.229 15.383 o
2 -4 0 223.270 233.640 2.080 0.070 o
2 -4 1 847.761 857.050 8.319 0.005 o
2 -4 2 159.722 157.236 1.562 0.136 o
2 -4 3 85.422 87.629 0.985 0.418 o
2 -4 4 1.108 2.139 0.189 44.721 o
2 -4 5 88.274 88.176 1.005 0.400 o
2 -4 6 229.243 238.516 2.587 0.062 o
2 -4 7 0.034 0.040 0.040 1125.360 o
2 -4 8 57.515 58.661 0.607 0.908 o
2 -4 9 21.970 23.604 0.269 4.671 o
2 -4 10 101.894 106.824 0.995 0.313 o
2 -4 11 228.666 239.003 2.498 0.063 o
2 -4 12 40.889 41.754 0.398 1.733 o
2 -4 13 13.850 14.061 0.179 10.073 o
2 -4 14 100.994 103.311 1.015 0.320 o
2 -4 15 29.718 29.435 0.328 2.982 o
2 -4 16 33.581 33.565 0.378 2.380 o
2 -4 17 44.034 44.073 0.527 1.429 o
2 -4 18 5.443 5.284 0.169 27.662 o
2 -4 19 12.928 13.026 0.318 7.992 o
2 -4 20 4.901 4.498 0.159 31.926 o
2 -4 21 0.078 0.050 0.060 508.861 o
2 -4 22 1.911 1.801 0.090 98.678 o
2 -3 0 204.144 214.195 2.388 0.076 o
2 -3 1 521.579 555.793 6.110 0.012 o
2 -3 2 53.584 55.785 0.587 1.011 o
2 -3 3 42.380 42.839 0.418 1.627 o
2 -3 4 470.955 473.170 4.577 0.016 o
2 -3 5 118.024 119.462 1.194 0.238 o
2 -3 6 29.240 27.326 0.328 3.134 o
2 -3 7 139.368 148.708 1.323 0.171 o
2 -3 8 216.342 224.803 1.970 0.075 o
2 -3 9 31.494 31.644 0.338 2.699 o
2 -3 10 14.736 15.593 0.199 8.825 o
2 -3 11 90.187 92.316 0.876 0.401 o
2 -3 12 144.596 151.056 1.791 0.146 o
2 -3 13 8.458 8.229 0.109 21.875 o
2 -3 14 15.976 15.802 0.199 8.189 o
2 -3 15 51.893 54.024 0.786 0.927 o
2 -3 16 79.341 82.315 1.164 0.425 o
2 -3 17 2.169 2.279 0.090 87.828 o
2 -3 18 2.300 2.239 0.109 73.324 o
2 -3 19 40.083 41.297 0.836 1.204 o
2 -3 20 10.460 10.498 0.279 10.739 o
2 -3 21 0.198 0.169 0.060 432.029 o
2 -3 22 4.246 3.931 0.139 39.475 o
2 -2 0 65.963 71.090 0.856 0.631 o
2 -2 1 1006.970 1048.060 11.862 0.003 o
2 -2 2 67.796 67.577 0.816 0.644 o
2 -2 3 13.770 14.101 0.219 9.366 o
2 -2 4 179.286 192.442 2.159 0.096 o
2 -2 5 152.752 159.624 1.582 0.141 o
2 -2 6 1.701 2.269 0.060 125.259 o
2 -2 7 181.637 185.039 1.632 0.107 o
2 -2 8 67.724 65.617 0.617 0.720 o
2 -2 9 187.869 194.880 1.722 0.099 o
2 -2 10 9.609 9.344 0.139 17.471 o
2 -2 11 0.740 0.896 0.050 275.091 o
2 -2 12 27.210 27.057 0.358 3.257 o
2 -2 13 35.058 34.848 0.448 2.108 o
2 -2 14 77.852 78.573 1.105 0.455 o
2 -2 15 15.235 15.225 0.269 7.604 o
2 -2 16 52.077 53.238 0.786 0.930 o
2 -2 17 17.599 17.504 0.308 5.996 o
2 -2 18 6.124 6.040 0.189 22.973 o
2 -2 19 4.778 4.757 0.159 31.904 o
2 -2 20 24.275 23.743 0.517 3.010 o
2 -2 21 0.103 0.169 0.060 469.329 o
2 -2 22 0.273 0.279 0.060 388.801 o
2 -1 0 210.995 222.206 2.528 0.071 o
2 -1 1 28.983 30.261 0.388 2.832 o
2 -1 2 1311.620 1311.070 14.817 0.002 o
2 -1 3 171.103 169.167 1.950 0.112 o
2 -1 4 42.950 42.799 0.657 1.333 o
2 -1 5 114.284 121.153 1.194 0.244 o
2 -1 6 1359.790 1366.020 13.026 0.002 o
2 -1 7 19.446 20.419 0.259 5.632 o
2 -1 8 134.370 135.881 1.214 0.192 o
2 -1 9 110.238 112.974 1.264 0.257 o
2 -1 10 148.235 153.823 1.702 0.144 o
2 -1 11 11.640 11.842 0.219 11.355 o
2 -1 12 69.161 72.493 0.856 0.598 o
2 -1 13 12.367 11.493 0.149 12.761 o
2 -1 14 29.758 28.440 0.448 2.657 o
2 -1 15 10.295 10.459 0.209 13.273 o
2 -1 16 4.329 4.249 0.119 42.470 o
2 -1 17 98.598 101.958 1.433 0.283 o
2 -1 18 7.861 7.851 0.219 16.629 o
2 -1 19 1.940 1.891 0.100 88.898 o
2 -1 20 3.640 3.483 0.129 46.594 o
2 -1 21 25.510 25.325 0.547 2.726 o
2 0 0 1.344 1.572 0.080 130.510 o
2 0 1 275.662 294.400 3.861 0.038 o
2 0 2 128.645 140.458 1.632 0.177 o
2 0 3 84.481 89.668 1.065 0.404 o
2 0 4 241.271 255.084 2.906 0.054 o
2 0 5 6.530 6.219 0.100 30.691 o
2 0 6 4.993 4.438 0.090 43.604 o
2 0 7 467.880 470.036 5.005 0.016 o
2 0 8 25.132 24.330 0.328 3.795 o
2 0 9 63.012 62.164 0.736 0.751 o
2 0 10 68.300 68.672 0.965 0.585 o
2 0 11 101.348 102.973 2.060 0.212 o
2 0 12 57.377 56.024 0.577 0.947 o
2 0 13 0.997 0.896 0.040 266.562 o
2 0 14 12.961 12.290 0.179 11.261 o
2 0 15 83.013 83.230 1.174 0.405 o
2 0 16 8.288 8.170 0.179 18.246 o
2 0 17 5.257 4.637 0.159 30.526 o
2 0 18 28.552 28.569 0.607 2.234 o
2 0 19 13.973 14.578 0.348 6.856 o
2 0 20 10.760 10.737 0.279 10.499 o
2 0 21 0.293 0.388 0.060 367.461 o
2 1 0 281.485 288.778 3.264 0.041 o
2 1 1 148.646 157.037 2.110 0.128 o
2 1 2 62.122 63.199 0.766 0.743 o
2 1 3 0.541 0.547 0.070 248.236 o
2 1 4 105.598 112.317 1.115 0.283 o
2 1 5 124.453 131.184 1.314 0.207 o
2 1 6 88.975 88.584 1.005 0.396 o
2 1 7 230.234 233.053 2.508 0.063 o
2 1 8 117.195 120.338 1.353 0.228 o
2 1 9 29.885 29.982 0.408 2.709 o
2 1 10 0.170 0.199 0.040 765.209 o
2 1 11 80.046 78.732 1.174 0.428 o
2 1 12 101.641 103.650 1.035 0.315 o
2 1 13 44.990 45.247 0.488 1.422 o
2 1 14 12.366 12.170 0.169 11.993 o
2 1 15 3.753 3.602 0.109 50.964 o
2 1 16 4.265 4.209 0.119 42.959 o
2 1 17 9.857 9.662 0.259 12.082 o
2 1 18 0.040 0.100 0.060 515.156 o
2 1 19 1.522 1.702 0.100 99.973 o
2 2 0 12.373 11.822 0.239 10.357 o
2 2 1 326.736 338.732 5.453 0.025 o
2 2 2 790.000 836.671 9.105 0.005 o
2 2 3 30.796 31.286 0.328 2.799 o
2 2 4 12.919 13.145 0.159 11.403 o
2 2 5 114.807 122.298 1.194 0.242 o
2 2 6 67.309 66.672 0.776 0.666 o
2 2 7 219.210 217.469 2.358 0.071 o
2 2 8 80.816 82.126 0.955 0.461 o
2 2 9 77.013 77.528 0.915 0.507 o
2 2 10 115.095 111.979 1.642 0.218 o
2 2 11 83.560 85.628 0.866 0.453 o
2 2 12 66.750 67.637 0.697 0.694 o
2 2 13 202.764 208.683 2.040 0.083 o
2 2 14 3.446 3.324 0.070 67.751 o
2 2 15 0.159 0.189 0.040 783.089 o
2 2 16 30.428 29.833 0.627 2.055 o
2 3 0 18.331 18.071 0.229 6.538 o
2 3 1 20.515 20.012 0.219 5.715 o
2 3 2 168.143 172.879 1.542 0.123 o
2 3 3 33.622 33.485 0.348 2.442 o
2 3 4 109.958 108.327 0.995 0.286 o
2 3 5 17.473 16.618 0.199 7.397 o
2 3 6 18.611 18.887 0.239 6.235 o
2 3 7 84.309 82.086 0.955 0.443 o
2 3 8 24.762 24.221 0.378 3.610 o
2 3 9 0.075 0.100 0.040 975.823 o
2 3 10 48.219 49.039 0.607 1.177 o
2 3 11 14.436 13.294 0.209 9.411 o
2 3 12 59.331 60.034 0.906 0.728 o
2 3 13 21.965 21.892 0.378 4.135 o
2 3 14 1.061 1.284 0.070 168.141 o
2 3 15 35.267 34.610 0.726 1.568 o
2 4 0 247.678 255.014 2.249 0.058 o
2 4 1 206.540 212.603 1.881 0.083 o
2 4 2 12.463 12.041 0.159 12.204 o
2 4 3 529.119 538.001 4.697 0.013 o
2 4 4 14.713 14.220 0.219 8.853 o
2 4 5 18.366 17.892 0.259 6.259 o
2 4 6 22.044 21.524 0.299 4.668 o
2 4 7 63.974 56.163 1.284 0.544 o
2 4 8 29.919 29.087 0.468 2.560 o
2 4 9 0.539 0.617 0.060 289.218 o
2 4 10 0.638 0.687 0.060 267.550 o
2 4 11 7.858 7.583 0.169 20.011 o
2 4 12 81.860 78.484 1.174 0.420 o
2 4 13 8.419 8.070 0.189 17.550 o
2 4 14 29.378 29.873 0.647 2.049 o
2 4 15 4.924 4.856 0.169 29.741 o
2 5 0 13.571 12.787 0.169 10.861 o
2 5 1 0.217 0.179 0.040 724.925 o
2 5 2 479.403 482.693 5.274 0.015 o
2 5 3 29.583 28.599 0.408 2.790 o
2 5 4 65.745 65.537 0.816 0.673 o
2 5 5 151.849 145.981 2.209 0.127 o
2 5 6 65.613 64.094 0.796 0.688 o
2 5 7 10.310 9.971 0.139 16.085 o
2 5 8 110.957 110.128 1.612 0.230 o
2 5 9 42.555 40.978 0.647 1.380 o
2 5 10 11.095 10.707 0.229 11.852 o
2 5 11 4.842 4.697 0.129 36.785 o
2 5 12 2.583 2.259 0.090 80.390 o
2 5 13 68.151 67.179 1.353 0.468 o
2 5 14 6.071 6.518 0.199 21.672 o
2 5 15 0.164 0.179 0.060 442.875 o
2 6 0 0.088 0.657 0.119 126.810 o
2 6 1 32.058 31.465 0.488 2.288 o
2 6 2 13.528 12.618 0.279 8.648 o
2 6 3 65.023 63.010 0.647 0.757 o
2 6 4 1.984 1.851 0.050 131.122 o
2 6 5 6.364 5.981 0.100 31.748 o
2 6 6 21.147 20.390 0.239 5.372 o
2 6 7 23.829 22.778 0.269 4.409 o
2 6 8 0.869 0.796 0.070 200.604 o
2 6 9 1.566 1.353 0.080 126.176 o
2 6 10 10.660 10.399 0.229 12.292 o
2 6 11 7.037 6.896 0.209 18.995 o
2 6 12 0.299 0.318 0.060 375.516 o
2 6 13 0.372 0.338 0.060 353.394 o
2 6 14 6.006 6.339 0.199 21.949 o
2 6 15 3.944 3.951 0.149 38.690 o
2 7 0 43.676 42.481 0.448 1.553 o
2 7 1 0.881 0.935 0.040 282.395 o
2 7 2 16.321 15.912 0.199 8.013 o
2 7 3 99.820 98.913 0.985 0.334 o
2 7 4 77.534 75.429 0.766 0.544 o
2 7 5 5.374 5.175 0.100 37.832 o
2 7 6 4.528 4.169 0.090 47.703 o
2 7 7 59.490 57.666 0.607 0.885 o
2 7 8 107.854 107.580 1.214 0.274 o
2 7 9 25.816 24.589 0.547 2.730 o
2 7 10 14.832 14.956 0.368 6.270 o
2 7 11 17.611 17.952 0.428 4.715 o
2 7 12 0.621 0.716 0.080 195.742 o
2 7 13 0.067 0.070 0.060 509.242 o
2 7 14 9.976 10.558 0.279 11.008 o
2 8 0 58.983 58.970 0.756 0.811 o
2 8 1 16.301 15.792 0.199 8.048 o
2 8 2 0.160 0.318 0.040 711.393 o
2 8 3 8.127 7.772 0.129 21.914 o
2 8 4 11.697 11.454 0.169 12.862 o
2 8 5 17.016 16.986 0.219 7.278 o
2 8 6 0.199 0.279 0.040 693.289 o
2 8 7 24.603 25.027 0.378 3.581 o
2 8 8 6.699 6.797 0.139 25.592 o
2 8 9 44.620 45.088 0.935 0.988 o
2 8 10 7.776 7.831 0.239 15.564 o
2 8 11 0.916 0.896 0.090 147.781 o
2 8 12 7.584 7.881 0.229 16.331 o
2 9 0 0.040 0.080 0.040 1065.460 o
2 9 1 30.834 30.470 0.438 2.533 o
2 9 2 10.478 10.429 0.199 13.482 o
2 9 3 2.081 2.120 0.109 77.384 o
2 9 4 1.599 1.572 0.070 132.834 o
2 9 5 8.063 8.329 0.249 14.502 o
2 9 6 10.846 10.996 0.199 12.903 o
2 9 7 0.118 0.199 0.050 606.599 o
2 9 8 0.630 0.617 0.050 321.921 o
2 9 9 14.824 15.364 0.378 6.082 o
2 9 10 0.515 0.567 0.080 211.332 o
2 10 0 21.950 22.539 0.348 4.279 o
2 10 1 0.010 0.020 0.050 789.916 o
2 10 2 9.846 9.652 0.179 15.290 o
2 10 3 29.378 30.798 0.448 2.597 o
2 10 4 5.170 5.274 0.129 34.147 o
2 10 5 1.307 1.284 0.070 153.733 o
2 10 6 8.266 8.538 0.169 18.587 o
2 10 7 0.025 0.060 0.040 1121.560 o
2 10 8 12.126 13.185 0.338 7.845 o
2 11 0 3.119 3.363 0.100 61.066 o
2 11 1 6.708 6.806 0.139 25.557 o
2 11 2 1.364 1.363 0.070 148.607 o
2 11 3 0.286 0.308 0.050 479.192 o
2 11 4 8.356 8.618 0.169 18.391 o
2 11 5 7.652 7.901 0.159 20.768 o
2 12 0 2.808 2.936 0.090 71.607 o
3 -12 0 1.387 1.343 0.100 107.932 o
3 -12 1 3.326 3.592 0.149 42.651 o
3 -12 2 0.027 0.060 0.060 532.957 o
3 -12 3 0.876 0.776 0.090 152.648 o
3 -12 4 0.053 0.040 0.070 392.808 o
3 -12 5 32.917 33.784 0.726 1.655 o
3 -12 6 0.205 0.239 0.070 329.315 o
3 -12 7 4.299 4.249 0.159 34.539 o
3 -12 8 11.912 11.692 0.308 8.884 o
3 -12 9 0.023 0.189 0.060 501.596 o
3 -12 10 1.883 1.891 0.100 90.017 o
3 -12 11 6.955 6.697 0.199 20.037 o
3 -11 0 0.354 0.498 0.080 230.910 o
3 -11 1 27.543 28.918 0.637 2.186 o
3 -11 2 19.490 20.131 0.478 3.895 o
3 -11 3 0.702 0.756 0.080 187.920 o
3 -11 4 0.778 0.707 0.080 184.144 o
3 -11 5 16.613 16.947 0.408 5.175 o
3 -11 6 18.188 18.190 0.428 4.605 o
3 -11 7 2.562 2.388 0.119 63.893 o
3 -11 8 2.185 2.070 0.080 96.851 o
3 -11 9 25.493 25.932 0.398 3.338 o
3 -11 10 9.040 8.886 0.169 17.220 o
3 -11 11 1.068 1.144 0.070 172.215 o
3 -11 12 5.142 5.045 0.119 36.278 o
3 -11 13 19.514 19.335 0.428 4.320 o
3 -11 14 0.893 0.945 0.080 168.445 o
3 -10 0 13.504 14.459 0.368 6.679 o
3 -10 1 0.000 0.010 0.060 562.399 o
3 -10 2 1.656 1.632 0.109 88.720 o
3 -10 3 2.755 2.577 0.129 56.657 o
3 -10 4 15.536 15.195 0.378 5.935 o
3 -10 5 42.227 42.789 0.607 1.412 o
3 -10 6 45.620 45.824 0.647 1.239 o
3 -10 7 14.637 15.106 0.259 8.020 o
3 -10 8 27.488 27.316 0.408 3.030 o
3 -10 9 0.722 0.707 0.060 254.132 o
3 -10 10 27.015 27.375 0.418 3.034 o
3 -10 11 42.130 43.546 0.627 1.380 o
3 -10 12 0.116 0.169 0.050 619.019 o
3 -10 13 0.446 0.468 0.050 388.870 o
3 -10 14 4.414 4.150 0.149 36.181 o
3 -10 15 4.935 4.866 0.169 29.695 o
3 -10 16 13.136 13.285 0.328 7.676 o
3 -10 17 4.363 4.299 0.149 36.083 o
3 -9 0 27.848 27.584 0.478 2.735 o
3 -9 1 37.124 37.893 0.617 1.641 o
3 -9 2 10.399 10.080 0.169 14.826 o
3 -9 3 100.121 99.570 1.005 0.330 o
3 -9 4 0.583 0.657 0.050 327.849 o
3 -9 5 0.402 0.567 0.040 467.187 o
3 -9 6 3.137 3.085 0.080 70.131 o
3 -9 7 21.909 21.623 0.269 4.876 o
3 -9 8 3.133 3.115 0.080 69.978 o
3 -9 9 2.831 2.746 0.070 81.994 o
3 -9 10 17.000 16.459 0.219 7.383 o
3 -9 11 16.805 15.951 0.269 6.926 o
3 -9 12 34.478 35.147 0.508 2.010 o
3 -9 13 8.945 8.836 0.169 17.385 o
3 -9 14 15.144 14.847 0.348 6.491 o
3 -9 15 1.348 1.503 0.100 106.867 o
3 -9 16 11.468 11.284 0.289 9.692 o
3 -9 17 0.183 0.189 0.070 339.683 o
3 -9 18 6.257 6.000 0.189 22.751 o
3 -8 0 2.948 2.836 0.070 79.101 o
3 -8 1 61.548 61.487 0.637 0.815 o
3 -8 2 66.975 66.632 0.687 0.700 o
3 -8 3 33.451 32.092 0.358 2.484 o
3 -8 4 79.894 80.006 0.816 0.502 o
3 -8 5 28.372 27.624 0.318 3.243 o
3 -8 6 100.586 100.734 1.015 0.325 o
3 -8 7 0.133 0.338 0.050 551.589 o
3 -8 8 28.172 27.395 0.318 3.277 o
3 -8 9 57.063 55.845 0.587 0.949 o
3 -8 10 27.399 27.116 0.318 3.380 o
3 -8 11 0.341 0.358 0.040 553.861 o
3 -8 12 37.806 38.232 0.478 1.834 o
3 -8 13 19.763 19.255 0.308 5.277 o
3 -8 14 31.034 31.166 0.458 2.440 o
3 -8 15 7.140 7.264 0.219 17.885 o
3 -8 16 10.318 10.518 0.279 10.816 o
3 -8 17 20.716 20.718 0.458 3.852 o
3 -8 18 2.453 2.528 0.119 64.327 o
3 -8 19 2.943 3.005 0.129 53.306 o
3 -7 0 84.484 86.026 0.866 0.447 o
3 -7 1 8.950 9.085 0.129 19.149 o
3 -7 2 80.924 81.748 0.826 0.488 o
3 -7 3 58.765 58.820 0.607 0.887 o
3 -7 5 0.961 0.906 0.070 188.507 o
3 -7 6 28.657 27.027 0.308 3.277 o
3 -7 7 36.697 35.515 0.388 2.107 o
3 -7 8 0.095 0.388 0.050 559.334 o
3 -7 9 0.016 0.109 0.040 1085.710 o
3 -7 10 2.414 2.498 0.070 93.136 o
3 -7 11 165.386 165.197 1.632 0.126 o
3 -7 12 4.227 4.140 0.090 50.112 o
3 -7 13 2.006 2.090 0.070 109.175 o
3 -7 14 28.930 29.326 0.378 2.909 o
3 -7 15 38.549 39.943 0.796 1.302 o
3 -7 16 9.025 9.055 0.249 13.352 o
3 -7 17 34.383 35.187 0.716 1.604 o
3 -7 18 11.598 12.001 0.308 8.953 o
3 -7 19 2.195 2.269 0.119 68.810 o
3 -7 20 0.476 0.468 0.080 219.864 o
3 -6 0 0.438 0.299 0.070 280.738 o
3 -6 1 106.032 110.168 1.662 0.234 o
3 -6 2 1.101 0.935 0.080 156.676 o
3 -6 3 89.875 91.002 1.383 0.329 o
3 -6 4 255.131 259.104 3.752 0.044 o
3 -6 5 0.382 0.348 0.070 285.857 o
3 -6 6 2.094 2.518 0.090 86.965 o
3 -6 7 181.024 181.297 1.781 0.106 o
3 -6 8 131.033 128.657 1.274 0.201 o
3 -6 9 33.820 34.311 0.378 2.339 o
3 -6 10 52.125 52.939 0.557 1.086 o
3 -6 11 0.173 0.338 0.050 528.237 o
3 -6 12 45.295 44.670 0.478 1.431 o
3 -6 13 3.277 3.344 0.080 66.514 o
3 -6 14 2.883 3.184 0.080 73.078 o
3 -6 15 2.713 2.776 0.109 64.731 o
3 -6 16 15.081 14.976 0.358 6.347 o
3 -6 17 8.559 8.379 0.239 14.525 o
3 -6 18 5.673 5.811 0.189 24.126 o
3 -6 19 27.671 28.639 0.607 2.279 o
3 -5 0 13.197 13.135 0.179 10.797 o
3 -5 1 215.648 216.852 2.378 0.072 o
3 -5 2 53.440 51.467 0.637 1.023 o
3 -5 3 13.396 12.976 0.219 9.884 o
3 -5 4 76.882 75.399 0.886 0.521 o
3 -5 5 161.846 156.012 1.741 0.130 o
3 -5 6 84.961 81.668 0.955 0.440 o
3 -5 7 1.879 2.130 0.100 87.763 o
3 -5 8 37.767 37.376 0.627 1.611 o
3 -5 9 258.181 268.130 2.597 0.051 o
3 -5 10 2.686 2.547 0.070 86.725 o
3 -5 11 2.678 2.836 0.070 84.040 o
3 -5 12 111.192 114.218 1.144 0.263 o
3 -5 13 53.620 54.502 0.577 1.029 o
3 -5 14 12.906 12.916 0.179 11.075 o
3 -5 15 5.824 5.831 0.119 31.873 o
3 -5 16 27.383 27.952 0.587 2.377 o
3 -5 17 56.914 59.308 1.164 0.631 o
3 -5 18 0.840 0.866 0.080 174.403 o
3 -5 19 0.105 0.010 0.060 505.275 o
3 -5 20 35.894 36.500 0.746 1.488 o
3 -5 21 2.663 2.776 0.119 60.818 o
3 -4 0 58.691 60.094 0.657 0.855 o
3 -4 1 41.241 40.700 0.508 1.603 o
3 -4 2 185.919 191.238 2.090 0.094 o
3 -4 3 22.118 20.439 0.289 4.822 o
3 -4 4 4.485 5.065 0.119 39.399 o
3 -4 5 6.878 7.642 0.149 23.312 o
3 -4 6 108.518 109.670 1.244 0.267 o
3 -4 7 163.198 166.779 1.861 0.121 o
3 -4 8 3.418 3.871 0.109 52.572 o
3 -4 9 121.868 125.482 1.871 0.182 o
3 -4 10 40.088 38.928 0.498 1.694 o
3 -4 11 1.249 1.194 0.040 215.091 o
3 -4 12 4.040 4.120 0.070 56.300 o
3 -4 13 57.735 58.353 0.498 0.959 o
3 -4 14 3.778 3.503 0.080 59.702 o
3 -4 15 1.131 1.164 0.060 187.614 o
3 -4 16 45.209 46.203 0.697 1.195 o
3 -4 17 8.011 7.742 0.219 16.518 o
3 -4 18 29.029 29.843 0.627 2.121 o
3 -4 19 7.643 7.951 0.229 16.226 o
3 -4 20 0.545 0.557 0.070 247.116 o
3 -4 21 3.848 4.020 0.139 41.269 o
3 -3 0 55.087 55.148 0.537 1.017 o
3 -3 1 0.558 0.687 0.050 330.205 o
3 -3 2 106.147 108.774 1.214 0.277 o
3 -3 3 239.373 242.297 2.617 0.059 o
3 -3 4 140.500 144.130 1.602 0.162 o
3 -3 5 64.251 62.661 0.736 0.734 o
3 -3 6 1.147 1.343 0.060 179.507 o
3 -3 7 128.415 133.722 1.204 0.204 o
3 -3 8 82.535 82.593 0.776 0.484 o
3 -3 9 52.278 52.482 0.527 1.107 o
3 -3 10 240.778 246.865 2.567 0.058 o
3 -3 11 46.775 46.780 0.488 1.346 o
3 -3 12 71.902 71.677 0.726 0.615 o
3 -3 13 1.206 1.274 0.050 196.644 o
3 -3 14 126.969 130.836 1.304 0.204 o
3 -3 15 55.168 56.263 0.597 0.973 o
3 -3 16 19.079 19.633 0.338 5.122 o
3 -3 17 1.693 1.642 0.100 96.703 o
3 -3 18 28.206 28.629 0.607 2.251 o
3 -3 19 0.685 0.667 0.080 192.633 o
3 -3 20 0.792 0.836 0.080 178.592 o
3 -3 21 0.786 0.866 0.080 178.015 o
3 -2 0 272.638 285.882 2.796 0.046 o
3 -2 1 57.215 56.591 0.547 0.960 o
3 -2 2 169.165 173.864 1.582 0.121 o
3 -2 3 5.214 5.393 0.100 38.089 o
3 -2 4 184.533 187.268 1.851 0.100 o
3 -2 5 130.909 135.951 1.204 0.198 o
3 -2 6 77.337 77.369 0.716 0.550 o
3 -2 7 17.373 17.554 0.239 6.829 o
3 -2 8 135.922 137.692 1.532 0.174 o
3 -2 9 107.064 107.710 1.224 0.275 o
3 -2 10 37.673 37.973 0.617 1.620 o
3 -2 11 26.901 26.519 0.299 3.549 o
3 -2 12 93.977 94.913 0.955 0.368 o
3 -2 13 49.264 49.367 0.527 1.212 o
3 -2 14 14.068 13.852 0.179 10.004 o
3 -2 15 46.669 48.044 0.577 1.252 o
3 -2 16 13.338 13.444 0.259 8.957 o
3 -2 17 41.216 42.740 0.866 1.134 o
3 -2 18 0.053 0.060 0.060 518.675 o
3 -2 19 11.305 11.513 0.289 9.716 o
3 -2 20 12.307 12.120 0.299 8.855 o
3 -2 21 6.291 6.548 0.189 22.164 o
3 -1 0 338.126 355.569 4.030 0.028 o
3 -1 1 150.219 152.459 1.781 0.140 o
3 -1 2 190.248 199.488 2.010 0.091 o
3 -1 3 12.396 12.489 0.209 10.880 o
3 -1 4 131.209 132.498 1.314 0.195 o
3 -1 5 319.191 322.930 3.095 0.035 o
3 -1 6 72.650 70.165 0.816 0.590 o
3 -1 7 85.708 88.275 1.005 0.411 o
3 -1 8 22.654 23.554 0.328 4.210 o
3 -1 9 22.782 22.380 0.328 4.283 o
3 -1 10 36.928 36.789 0.597 1.701 o
3 -1 11 6.935 6.617 0.100 28.623 o
3 -1 12 8.608 8.239 0.119 21.038 o
3 -1 13 90.497 91.818 0.925 0.393 o
3 -1 14 56.562 57.567 0.607 0.932 o
3 -1 15 0.019 0.020 0.050 779.391 o
3 -1 16 39.904 40.471 0.498 1.671 o
3 -1 17 0.161 0.169 0.060 445.728 o
3 -1 18 26.339 27.345 0.587 2.456 o
3 -1 19 4.243 4.130 0.149 36.951 o
3 -1 20 4.177 4.120 0.149 37.260 o
3 0 0 503.137 507.949 5.712 0.013 o
3 0 1 3.574 3.443 0.090 59.224 o
3 0 2 55.865 56.532 0.537 0.990 o
3 0 3 264.051 276.658 2.667 0.049 o
3 0 4 667.657 689.346 7.274 0.008 o
3 0 5 104.083 106.376 1.184 0.289 o
3 0 6 370.980 379.671 4.030 0.025 o
3 0 7 123.838 124.557 1.403 0.209 o
3 0 8 35.964 36.053 0.468 1.990 o
3 0 9 33.011 33.316 0.557 2.020 o
3 0 10 184.719 187.139 1.831 0.101 o
3 0 11 15.574 14.608 0.189 8.800 o
3 0 12 5.925 5.543 0.100 34.416 o
3 0 13 5.227 5.115 0.090 40.187 o
3 0 14 7.842 7.732 0.119 23.203 o
3 0 15 116.334 118.536 1.343 0.232 o
3 0 16 0.306 0.289 0.050 474.562 o
3 0 17 5.032 5.145 0.169 29.001 o
3 0 18 21.188 21.245 0.478 3.638 o
3 0 19 23.407 24.091 0.527 3.021 o
3 0 20 0.015 0.040 0.060 544.974 o
3 1 0 187.462 189.805 1.851 0.098 o
3 1 1 56.411 56.173 0.587 0.957 o
3 1 2 22.069 21.524 0.259 4.916 o
3 1 3 71.281 69.876 0.707 0.634 o
3 1 4 34.265 34.003 0.428 2.218 o
3 1 5 250.231 255.343 2.737 0.054 o
3 1 6 18.619 18.807 0.279 5.870 o
3 1 7 0.876 1.005 0.060 217.873 o
3 1 8 138.253 138.608 1.562 0.169 o
3 1 9 41.549 39.376 0.637 1.445 o
3 1 10 0.355 0.239 0.040 583.689 o
3 1 11 16.417 15.822 0.199 7.991 o
3 1 12 36.688 36.102 0.398 2.074 o
3 1 13 59.553 59.766 0.627 0.859 o
3 1 14 2.268 2.179 0.060 107.507 o
3 1 15 4.179 4.050 0.090 50.864 o
3 1 16 49.093 50.919 0.726 1.043 o
3 1 17 5.935 5.881 0.129 30.208 o
3 1 18 0.068 0.119 0.060 496.665 o
3 1 19 11.936 12.678 0.308 8.665 o
3 2 0 194.436 199.796 1.950 0.090 o
3 2 1 27.037 26.400 0.279 3.612 o
3 2 2 59.749 58.900 0.567 0.890 o
3 2 3 12.067 11.354 0.149 13.100 o
3 2 4 4.790 5.214 0.109 39.179 o
3 2 5 379.082 389.443 4.140 0.024 o
3 2 6 47.155 47.019 0.587 1.244 o
3 2 7 7.898 7.433 0.159 20.746 o
3 2 8 51.429 49.705 0.776 0.976 o
3 2 9 137.214 138.986 1.373 0.179 o
3 2 10 28.379 28.410 0.318 3.200 o
3 2 11 138.950 142.419 1.413 0.172 o
3 2 12 0.150 0.149 0.030 1141.100 o
3 2 13 10.401 10.309 0.149 15.411 o
3 2 14 0.832 0.826 0.040 301.395 o
3 2 15 0.128 0.299 0.050 566.640 o
3 2 16 6.450 6.498 0.139 26.648 o
3 2 17 0.015 0.040 0.040 1173.330 o
3 3 0 119.357 120.845 1.095 0.240 o
3 3 1 173.228 178.810 1.602 0.116 o
3 3 2 88.368 88.474 0.826 0.426 o
3 3 3 73.640 74.493 0.707 0.593 o
3 3 4 3.774 3.781 0.080 58.284 o
3 3 5 14.140 12.986 0.219 9.466 o
3 3 6 204.871 208.344 2.547 0.075 o
3 3 7 60.492 60.194 0.925 0.706 o
3 3 8 20.378 19.355 0.229 5.764 o
3 3 9 0.161 0.348 0.040 696.098 o
3 3 10 162.238 166.212 1.642 0.128 o
3 3 11 122.772 125.532 1.483 0.205 o
3 3 12 10.379 10.299 0.149 15.443 o
3 3 13 15.656 15.643 0.209 8.232 o
3 3 14 52.322 53.696 0.766 0.937 o
3 3 15 10.197 10.419 0.279 10.917 o
3 3 16 2.643 2.587 0.119 61.989 o
3 4 0 119.896 119.561 1.095 0.240 o
3 4 1 0.488 0.736 0.050 340.615 o
3 4 2 1.247 1.632 0.080 133.224 o
3 4 3 69.293 68.105 0.667 0.674 o
3 4 4 24.689 24.818 0.299 3.963 o
3 4 5 15.513 14.598 0.239 8.080 o
3 4 6 2.183 2.309 0.070 101.131 o
3 4 7 20.274 20.250 0.289 5.221 o
3 4 8 49.841 49.874 0.527 1.192 o
3 4 9 0.903 0.836 0.040 287.176 o
3 4 10 1.750 1.771 0.080 112.775 o
3 4 11 61.326 61.875 0.945 0.681 o
3 4 12 0.467 0.498 0.060 313.917 o
3 4 13 10.236 10.279 0.279 10.936 o
3 4 14 1.990 1.891 0.100 87.920 o
3 4 15 6.536 6.249 0.199 21.098 o
3 4 16 5.239 5.344 0.169 28.137 o
3 4 17 0.104 0.090 0.050 660.705 o
3 5 0 154.980 154.887 1.522 0.143 o
3 5 1 370.638 379.402 3.324 0.026 o
3 5 2 6.507 6.428 0.129 27.559 o
3 5 3 15.284 14.917 0.249 7.954 o
3 5 4 80.348 77.508 0.697 0.531 o
3 5 5 50.459 48.163 0.607 1.137 o
3 5 6 0.261 0.249 0.050 505.382 o
3 5 7 17.344 16.519 0.308 6.193 o
3 5 8 6.584 6.329 0.159 24.592 o
3 5 9 13.600 13.095 0.259 8.915 o
3 5 10 35.695 33.933 0.557 1.882 o
3 5 11 4.587 4.110 0.149 35.547 o
3 5 12 58.655 60.502 1.224 0.588 o
3 5 13 3.722 3.781 0.149 40.148 o
3 5 14 3.110 3.035 0.129 51.891 o
3 5 15 7.154 6.816 0.199 19.631 o
3 6 0 137.280 131.473 1.304 0.187 o
3 6 1 11.940 11.941 0.159 12.695 o
3 6 2 105.510 104.734 1.035 0.301 o
3 6 3 57.758 56.989 0.587 0.928 o
3 6 4 1.589 1.592 0.050 157.517 o
3 6 5 12.066 11.732 0.159 12.676 o
3 6 6 108.851 108.267 1.085 0.282 o
3 6 7 9.623 9.264 0.209 14.462 o
3 6 8 1.332 1.284 0.080 136.991 o
3 6 9 22.684 22.987 0.517 3.179 o
3 6 10 0.195 0.209 0.060 425.814 o
3 6 11 38.752 39.097 0.826 1.268 o
3 6 12 0.660 0.637 0.080 195.820 o
3 6 13 4.876 5.075 0.179 28.132 o
3 6 14 7.777 8.011 0.229 16.045 o
3 7 0 6.746 6.707 0.149 24.687 o
3 7 1 4.059 3.831 0.109 47.828 o
3 7 2 38.139 37.346 0.408 1.949 o
3 7 3 16.909 16.419 0.209 7.544 o
3 7 4 6.655 6.438 0.109 28.969 o
3 7 5 0.005 0.060 0.040 1173.450 o
3 7 6 22.189 21.146 0.259 4.930 o
3 7 7 3.864 3.742 0.149 39.558 o
3 7 8 1.608 1.652 0.109 89.446 o
3 7 9 0.001 0.010 0.070 413.588 o
3 7 10 2.326 2.050 0.109 74.290 o
3 7 11 2.379 2.388 0.119 65.932 o
3 7 12 2.552 2.637 0.129 58.195 o
3 7 13 0.090 0.060 0.060 500.205 o
3 8 0 0.042 0.179 0.060 494.746 o
3 8 1 66.684 65.985 0.687 0.706 o
3 8 2 13.522 12.976 0.179 10.631 o
3 8 3 7.474 7.065 0.119 24.894 o
3 8 4 20.183 19.265 0.239 5.750 o
3 8 5 43.110 42.282 0.587 1.417 o
3 8 6 20.728 19.822 0.308 5.016 o
3 8 7 67.153 68.612 1.393 0.458 o
3 8 8 20.294 21.196 0.488 3.675 o
3 8 9 4.704 4.876 0.179 28.873 o
3 8 10 2.464 2.279 0.119 65.591 o
3 8 11 5.459 5.383 0.179 26.245 o
3 9 0 8.362 8.468 0.219 15.712 o
3 9 1 0.010 0.060 0.060 542.229 o
3 9 2 10.302 10.469 0.189 13.992 o
3 9 3 2.263 2.358 0.080 91.786 o
3 9 4 2.747 2.826 0.090 73.277 o
3 9 5 2.908 2.677 0.090 72.037 o
3 9 6 10.757 10.906 0.199 13.019 o
3 9 7 15.079 15.504 0.259 7.765 o
3 9 8 0.127 0.149 0.070 357.773 o
3 9 9 5.854 5.861 0.189 23.698 o
3 10 0 0.234 0.328 0.070 314.109 o
3 10 1 2.498 2.418 0.109 69.491 o
3 10 2 7.212 7.573 0.149 22.667 o
3 10 3 4.956 4.995 0.119 37.253 o
3 10 4 0.923 0.935 0.060 216.676 o
3 10 5 2.934 2.936 0.090 69.859 o
3 10 6 1.051 1.134 0.060 195.383 o
3 11 0 11.729 11.931 0.279 9.660 o
3 11 1 9.240 9.473 0.239 13.429 o
3 11 2 0.297 0.308 0.050 473.965 o
3 11 3 7.778 8.180 0.209 17.133 o
4 -12 3 7.674 7.991 0.239 15.588 o
4 -12 4 13.786 14.309 0.358 6.785 o
4 -12 5 0.516 0.527 0.080 213.137 o
4 -12 6 0.319 0.418 0.070 290.553 o
4 -12 7 0.327 0.299 0.070 299.545 o
4 -11 0 4.490 4.816 0.179 29.561 o
4 -11 1 0.261 0.279 0.070 313.829 o
4 -11 2 0.674 0.896 0.090 160.129 o
4 -11 3 20.675 21.235 0.488 3.631 o
4 -11 4 8.210 8.170 0.239 14.960 o
4 -11 5 14.949 15.364 0.259 7.843 o
4 -11 6 10.515 10.409 0.189 13.814 o
4 -11 7 4.370 4.199 0.109 44.508 o
4 -11 8 0.416 0.498 0.050 393.531 o
4 -11 9 18.567 18.399 0.299 5.742 o
4 -11 10 0.159 0.159 0.050 592.154 o
4 -11 11 5.257 5.334 0.129 33.679 o
4 -11 12 0.099 0.209 0.050 617.089 o
4 -10 0 5.496 5.403 0.189 24.947 o
4 -10 1 4.813 4.498 0.109 40.984 o
4 -10 2 14.158 14.180 0.239 8.779 o
4 -10 3 29.662 30.500 0.458 2.558 o
4 -10 4 4.179 4.160 0.109 45.872 o
4 -10 5 5.741 5.881 0.129 30.871 o
4 -10 6 20.051 19.962 0.318 5.060 o
4 -10 7 31.381 32.032 0.478 2.338 o
4 -10 8 0.188 0.279 0.060 416.023 o
4 -10 9 6.569 6.389 0.139 26.474 o
4 -10 10 19.459 19.683 0.318 5.211 o
4 -10 11 18.821 18.708 0.299 5.644 o
4 -10 12 1.005 0.886 0.060 210.894 o
4 -10 13 1.996 2.010 0.080 102.347 o
4 -10 14 20.902 20.648 0.448 3.901 o
4 -10 15 3.653 3.592 0.100 54.721 o
4 -9 0 4.602 4.319 0.109 42.715 o
4 -9 1 0.137 0.119 0.040 858.674 o
4 -9 2 3.057 2.936 0.080 72.344 o
4 -9 3 9.636 9.304 0.149 17.037 o
4 -9 4 95.675 95.510 0.975 0.357 o
4 -9 5 4.957 4.866 0.100 40.870 o
4 -9 6 3.479 3.204 0.100 58.190 o
4 -9 7 11.394 10.220 0.189 13.087 o
4 -9 8 53.587 54.581 0.766 0.910 o
4 -9 9 21.490 21.395 0.338 4.513 o
4 -9 10 23.327 23.056 0.358 3.977 o
4 -9 11 9.873 9.911 0.189 14.710 o
4 -9 12 6.853 6.866 0.149 24.247 o
4 -9 13 0.985 1.025 0.060 206.157 o
4 -9 14 2.185 2.080 0.080 96.750 o
4 -9 15 21.702 21.305 0.338 4.484 o
4 -9 16 0.189 0.219 0.070 335.075 o
4 -8 0 67.671 67.607 0.707 0.681 o
4 -8 1 111.396 112.347 1.124 0.267 o
4 -8 2 14.198 13.683 0.189 9.798 o
4 -8 3 7.362 7.155 0.119 25.067 o
4 -8 4 4.733 4.339 0.090 45.648 o
4 -8 5 40.952 40.292 0.448 1.699 o
4 -8 6 0.024 0.239 0.050 665.195 o
4 -8 7 2.780 2.617 0.070 84.189 o
4 -8 8 0.087 0.179 0.040 888.432 o
4 -8 9 44.479 43.755 0.478 1.472 o
4 -8 10 16.172 15.683 0.209 7.998 o
4 -8 11 1.111 1.105 0.060 191.635 o
4 -8 12 54.675 55.347 0.776 0.883 o
4 -8 13 2.126 2.229 0.080 96.379 o
4 -8 14 4.364 4.189 0.109 44.574 o
4 -8 15 6.361 6.528 0.139 26.850 o
4 -8 16 18.208 18.300 0.299 5.844 o
4 -8 17 0.012 0.030 0.060 549.540 o
4 -7 0 6.849 7.035 0.119 26.608 o
4 -7 1 1.469 1.423 0.060 156.132 o
4 -7 2 147.458 150.131 1.493 0.155 o
4 -7 3 14.646 13.772 0.179 9.683 o
4 -7 4 28.156 27.594 0.318 3.268 o
4 -7 5 47.819 46.859 0.498 1.307 o
4 -7 6 66.652 64.930 0.677 0.716 o
4 -7 7 44.108 42.809 0.468 1.511 o
4 -7 8 1.070 1.164 0.050 214.835 o
4 -7 9 28.975 28.957 0.328 3.078 o
4 -7 10 90.998 90.793 0.925 0.393 o
4 -7 11 7.303 6.896 0.119 25.558 o
4 -7 12 2.099 1.930 0.060 116.900 o
4 -7 13 54.644 55.755 0.776 0.880 o
4 -7 14 22.985 23.385 0.358 4.003 o
4 -7 15 8.746 8.578 0.169 17.848 o
4 -7 16 3.145 3.334 0.100 60.946 o
4 -6 0 83.475 85.350 0.866 0.454 o
4 -6 1 3.410 3.503 0.080 63.882 o
4 -6 2 67.537 67.886 0.697 0.684 o
4 -6 3 19.412 18.469 0.219 6.237 o
4 -6 4 23.869 22.917 0.269 4.390 o
4 -6 5 1.041 0.985 0.050 227.743 o
4 -6 6 35.824 34.281 0.378 2.213 o
4 -6 7 5.323 5.931 0.139 30.958 o
4 -6 8 1.477 1.393 0.050 170.988 o
4 -6 9 116.169 117.840 1.174 0.245 o
4 -6 10 14.664 14.469 0.189 9.313 o
4 -6 11 25.203 25.216 0.299 3.860 o
4 -6 12 33.136 32.769 0.368 2.460 o
4 -6 13 10.209 10.508 0.159 15.163 o
4 -6 14 2.383 2.279 0.080 90.040 o
4 -6 15 82.915 85.419 1.154 0.404 o
4 -6 16 4.531 4.607 0.169 31.348 o
4 -5 0 65.937 63.010 0.866 0.664 o
4 -5 1 109.803 108.008 1.632 0.232 o
4 -5 2 84.821 85.031 1.304 0.370 o
4 -5 3 89.769 86.136 1.323 0.347 o
4 -5 4 54.538 50.611 0.806 0.900 o
4 -5 5 175.904 176.003 1.731 0.112 o
4 -5 6 16.626 15.275 0.189 8.144 o
4 -5 7 179.782 181.317 1.781 0.107 o
4 -5 8 96.546 95.530 0.955 0.356 o
4 -5 9 0.148 0.269 0.050 563.488 o
4 -5 10 8.286 7.732 0.119 22.220 o
4 -5 11 51.534 53.069 0.567 1.091 o
4 -5 12 18.029 17.822 0.229 6.674 o
4 -5 13 2.693 2.448 0.080 82.299 o
4 -5 14 1.789 1.582 0.090 104.525 o
4 -5 15 1.361 1.264 0.100 109.736 o
4 -5 16 24.926 25.644 0.567 2.675 o
4 -5 17 22.150 22.499 0.508 3.302 o
4 -4 1 25.247 23.624 0.338 3.780 o
4 -4 2 136.503 136.140 1.532 0.174 o
4 -4 3 70.005 66.184 0.796 0.636 o
4 -4 4 0.016 0.547 0.080 269.915 o
4 -4 5 96.715 93.977 1.224 0.325 o
4 -4 6 69.000 67.677 1.045 0.558 o
4 -4 7 106.428 106.516 1.264 0.275 o
4 -4 8 38.110 38.291 0.408 1.927 o
4 -4 9 13.268 12.986 0.169 11.003 o
4 -4 10 147.760 149.275 1.771 0.145 o
4 -4 11 10.174 9.533 0.199 14.197 o
4 -4 12 3.200 3.105 0.109 57.915 o
4 -4 13 41.294 41.814 0.657 1.391 o
4 -4 14 44.371 46.401 0.567 1.344 o
4 -4 15 26.507 25.723 0.388 3.284 o
4 -4 16 33.837 35.236 0.517 2.019 o
4 -4 17 9.504 9.662 0.179 15.678 o
4 -4 18 40.832 40.928 0.826 1.204 o
4 -4 19 0.616 0.577 0.070 237.267 o
4 -4 20 2.734 2.856 0.119 59.716 o
4 -3 0 95.424 98.197 1.124 0.335 o
4 -3 1 9.936 9.603 0.169 15.626 o
4 -3 2 26.700 25.057 0.348 3.465 o
4 -3 3 29.913 30.490 0.398 2.715 o
4 -3 4 61.971 61.378 0.736 0.768 o
4 -3 5 18.798 17.862 0.269 6.044 o
4 -3 6 111.812 113.193 1.304 0.250 o
4 -3 7 169.749 168.371 2.478 0.100 o
4 -3 8 1.755 1.453 0.070 128.918 o
4 -3 9 27.363 26.698 0.358 3.260 o
4 -3 10 10.363 9.832 0.139 16.107 o
4 -3 11 74.739 75.220 0.766 0.567 o
4 -3 12 2.872 2.876 0.070 80.080 o
4 -3 13 19.670 19.156 0.239 5.901 o
4 -3 14 17.988 17.971 0.229 6.664 o
4 -3 15 24.901 25.236 0.388 3.487 o
4 -3 16 17.883 18.688 0.299 5.877 o
4 -3 17 0.037 0.100 0.050 716.756 o
4 -3 18 3.460 3.463 0.139 44.993 o
4 -3 19 9.620 9.722 0.259 12.230 o
4 -3 20 15.843 16.210 0.378 5.752 o
4 -2 0 183.556 185.049 1.672 0.105 o
4 -2 1 120.676 121.343 1.363 0.220 o
4 -2 2 0.085 0.229 0.040 854.184 o
4 -2 3 239.826 236.545 2.567 0.060 o
4 -2 4 24.138 23.295 0.328 4.007 o
4 -2 5 76.915 78.643 1.005 0.483 o
4 -2 6 0.577 0.677 0.050 326.976 o
4 -2 7 7.092 6.866 0.159 22.874 o
4 -2 8 342.213 347.141 3.931 0.028 o
4 -2 9 9.033 8.647 0.119 19.854 o
4 -2 10 1.513 1.314 0.050 171.259 o
4 -2 11 65.360 67.070 0.687 0.715 o
4 -2 12 155.841 157.903 1.821 0.132 o
4 -2 13 10.368 10.319 0.149 15.444 o
4 -2 14 74.440 77.379 0.935 0.519 o
4 -2 15 2.509 2.458 0.080 85.666 o
4 -2 16 39.279 40.511 0.587 1.567 o
4 -2 17 1.410 1.423 0.070 144.823 o
4 -2 18 2.095 2.219 0.080 97.231 o
4 -2 19 8.015 8.170 0.229 15.701 o
4 -1 0 0.643 0.876 0.050 293.491 o
4 -1 1 82.955 83.897 0.716 0.488 o
4 -1 2 115.276 117.482 1.304 0.238 o
4 -1 3 7.413 8.190 0.149 21.630 o
4 -1 4 0.010 0.030 0.050 783.856 o
4 -1 5 97.160 99.629 1.134 0.325 o
4 -1 6 119.685 122.457 1.393 0.219 o
4 -1 7 11.812 11.314 0.219 11.420 o
4 -1 8 5.620 5.393 0.109 34.818 o
4 -1 9 99.588 100.107 0.995 0.332 o
4 -1 10 75.829 76.474 0.776 0.551 o
4 -1 11 1.282 1.154 0.050 195.245 o
4 -1 12 10.011 9.662 0.139 16.683 o
4 -1 13 83.920 84.852 0.866 0.453 o
4 -1 14 3.381 3.204 0.080 66.076 o
4 -1 15 9.476 9.225 0.179 15.972 o
4 -1 16 13.335 13.464 0.239 9.365 o
4 -1 17 23.119 24.300 0.378 3.811 o
4 -1 18 6.672 6.856 0.149 24.686 o
4 -1 19 0.490 0.508 0.070 257.590 o
4 0 0 17.946 17.116 0.239 6.713 o
4 0 1 51.956 50.302 0.488 1.165 o
4 0 2 298.490 300.540 3.194 0.038 o
4 0 3 132.453 134.219 1.483 0.184 o
4 0 4 189.845 193.149 2.100 0.092 o
4 0 5 2.308 2.189 0.080 92.644 o
4 0 6 77.609 78.623 0.925 0.497 o
4 0 7 14.369 13.693 0.279 8.070 o
4 0 8 0.532 0.468 0.040 433.800 o
4 0 9 8.533 8.170 0.119 21.256 o
4 0 10 2.490 2.378 0.060 98.599 o
4 0 11 90.552 91.052 0.925 0.395 o
4 0 12 7.593 7.662 0.119 23.864 o
4 0 13 30.084 30.550 0.348 2.840 o
4 0 14 63.020 64.701 0.687 0.756 o
4 0 15 2.033 2.010 0.080 101.378 o
4 0 16 5.617 5.642 0.129 31.732 o
4 0 17 24.823 25.355 0.398 3.442 o
4 0 18 6.036 6.140 0.139 28.343 o
4 0 19 5.697 5.762 0.179 25.233 o
4 1 0 97.660 97.102 1.085 0.334 o
4 1 1 87.615 86.345 0.806 0.439 o
4 1 2 83.562 84.315 0.965 0.439 o
4 1 3 338.911 343.877 3.652 0.030 o
4 1 4 275.490 271.115 2.916 0.046 o
4 1 5 10.474 10.060 0.189 14.023 o
4 1 6 11.570 10.717 0.239 11.210 o
4 1 7 132.200 131.901 1.304 0.195 o
4 1 8 133.952 134.826 1.343 0.188 o
4 1 9 1.162 1.244 0.050 202.000 o
4 1 10 10.738 10.299 0.149 15.023 o
4 1 11 39.570 39.734 0.438 1.782 o
4 1 12 12.567 12.439 0.179 11.496 o
4 1 13 43.875 44.501 0.488 1.470 o
4 1 14 29.719 30.749 0.468 2.516 o
4 1 15 22.497 23.096 0.368 4.034 o
4 1 16 18.510 18.559 0.308 5.640 o
4 1 17 3.413 3.334 0.100 58.196 o
4 1 18 11.146 11.493 0.209 12.139 o
4 2 0 18.149 17.832 0.259 6.331 o
4 2 1 108.870 104.605 1.075 0.288 o
4 2 2 11.057 10.558 0.149 14.522 o
4 2 3 16.357 15.723 0.249 7.383 o
4 2 4 115.438 114.775 1.304 0.241 o
4 2 5 9.350 9.145 0.209 14.798 o
4 2 6 47.822 46.352 0.567 1.253 o
4 2 7 1.012 0.945 0.050 233.590 o
4 2 8 23.060 23.047 0.269 4.522 o
4 2 9 17.668 17.106 0.219 7.021 o
4 2 10 12.662 11.921 0.169 11.855 o
4 2 11 9.243 8.956 0.139 18.314 o
4 2 12 28.234 28.281 0.328 3.189 o
4 2 13 11.887 11.165 0.209 11.702 o
4 2 14 23.614 24.151 0.378 3.757 o
4 2 15 0.771 0.707 0.050 285.679 o
4 2 16 6.771 6.677 0.139 25.561 o
4 2 17 17.711 18.330 0.299 5.967 o
4 3 0 0.003 0.070 0.060 543.390 o
4 3 1 11.956 11.563 0.199 11.779 o
4 3 2 42.017 40.550 0.428 1.675 o
4 3 3 192.471 188.223 2.010 0.093 o
4 3 4 3.340 3.115 0.119 53.151 o
4 3 5 90.206 90.345 0.906 0.401 o
4 3 6 70.988 70.473 0.716 0.632 o
4 3 7 52.226 52.153 0.547 1.099 o
4 3 8 7.708 7.374 0.119 23.936 o
4 3 9 208.700 215.897 2.120 0.078 o
4 3 10 0.374 0.289 0.040 554.855 o
4 3 11 0.382 0.388 0.040 521.406 o
4 3 12 5.148 4.757 0.119 36.911 o
4 3 13 4.831 4.856 0.119 38.187 o
4 3 14 7.207 7.593 0.159 21.902 o
4 3 15 1.042 1.025 0.060 200.963 o
4 3 16 2.921 2.796 0.090 71.006 o
4 4 0 38.233 36.669 0.597 1.655 o
4 4 1 1.241 1.234 0.080 142.182 o
4 4 2 18.178 17.564 0.279 6.154 o
4 4 3 3.483 3.443 0.080 63.367 o
4 4 4 126.807 127.482 1.254 0.210 o
4 4 5 2.338 2.110 0.060 106.475 o
4 4 6 4.855 4.767 0.090 43.434 o
4 4 7 15.806 15.454 0.199 8.345 o
4 4 8 108.566 109.381 1.095 0.280 o
4 4 9 14.938 14.747 0.199 8.936 o
4 4 10 56.563 57.208 0.726 0.871 o
4 4 11 26.743 27.793 0.428 3.001 o
4 4 12 25.558 26.370 0.408 3.265 o
4 4 13 0.290 0.458 0.050 445.292 o
4 4 14 17.404 16.927 0.398 5.135 o
4 4 15 14.790 15.902 0.388 5.892 o
4 5 0 7.307 7.155 0.109 25.946 o
4 5 1 28.090 27.007 0.299 3.376 o
4 5 2 0.146 0.179 0.050 593.926 o
4 5 3 3.328 3.453 0.060 71.610 o
4 5 4 16.581 16.290 0.179 8.057 o
4 5 5 13.257 13.364 0.179 10.679 o
4 5 6 7.453 7.095 0.139 23.419 o
4 5 7 8.325 8.349 0.129 20.943 o
4 5 8 5.830 5.563 0.149 28.664 o
4 5 9 38.203 37.267 0.786 1.356 o
4 5 10 5.863 5.612 0.189 23.937 o
4 5 11 0.032 0.090 0.070 391.421 o
4 5 12 7.950 7.812 0.229 15.965 o
4 5 13 3.308 3.254 0.139 46.565 o
4 5 14 0.002 0.000 0.050 812.399 o
4 6 0 76.468 76.971 0.766 0.547 o
4 6 1 51.263 51.337 0.527 1.142 o
4 6 2 43.803 43.337 0.458 1.523 o
4 6 3 2.685 2.607 0.050 95.885 o
4 6 4 21.282 21.106 0.259 5.126 o
4 6 5 33.796 33.943 0.557 1.968 o
4 6 6 3.004 2.985 0.109 60.450 o
4 6 7 0.954 0.925 0.070 188.319 o
4 6 8 2.392 2.060 0.109 73.291 o
4 6 9 24.408 24.609 0.547 2.832 o
4 6 10 38.916 40.112 0.846 1.228 o
4 6 11 0.566 0.498 0.070 248.199 o
4 6 12 1.463 1.493 0.100 104.001 o
4 6 13 17.642 17.275 0.408 4.959 o
4 7 0 38.013 37.754 0.567 1.692 o
4 7 1 1.439 1.214 0.080 133.936 o
4 7 2 8.091 8.030 0.179 18.640 o
4 7 3 20.242 20.121 0.269 5.398 o
4 7 4 33.424 33.097 0.368 2.428 o
4 7 5 1.615 1.542 0.070 132.800 o
4 7 6 12.923 12.936 0.328 7.811 o
4 7 7 16.628 16.280 0.388 5.459 o
4 7 8 0.202 0.169 0.060 430.232 o
4 7 9 6.960 6.657 0.209 19.282 o
4 7 10 8.767 9.115 0.259 13.097 o
4 7 11 6.497 6.737 0.209 19.919 o
4 8 0 37.488 38.690 0.587 1.662 o
4 8 1 2.162 2.388 0.100 80.372 o
4 8 2 1.347 1.552 0.100 106.217 o
4 8 3 8.984 8.936 0.169 17.262 o
4 8 4 20.542 21.126 0.328 4.776 o
4 8 5 0.145 0.139 0.060 458.115 o
4 8 6 2.543 2.309 0.119 64.541 o
4 8 7 2.277 2.189 0.109 74.007 o
4 8 8 2.156 2.219 0.119 69.595 o
4 8 9 0.177 0.090 0.060 455.092 o
4 9 0 0.124 0.269 0.080 274.531 o
4 9 1 16.574 17.335 0.378 5.474 o
4 9 2 9.384 9.364 0.239 13.354 o
4 9 3 9.131 8.886 0.229 14.229 o
4 9 4 0.022 0.080 0.050 742.945 o
4 9 5 61.934 63.249 0.856 0.707 o
4 9 6 5.549 5.672 0.179 25.683 o
4 9 7 0.610 0.547 0.070 239.692 o
4 10 0 1.149 1.115 0.090 132.856 o
4 10 1 0.523 0.517 0.070 252.598 o
4 10 2 4.162 4.508 0.149 36.491 o
4 10 3 0.884 0.866 0.080 171.512 o
4 10 4 3.235 3.443 0.129 49.475 o
4 11 0 2.887 2.985 0.119 57.653 o
5 -11 2 8.926 9.205 0.179 16.666 o
5 -11 3 2.803 2.856 0.090 72.247 o
5 -11 4 1.870 1.901 0.070 116.483 o
5 -11 5 2.316 2.368 0.080 90.513 o
5 -11 6 3.569 3.483 0.100 55.981 o
5 -11 7 1.362 1.513 0.070 144.993 o
5 -11 8 4.161 4.309 0.109 45.504 o
5 -10 0 0.333 0.368 0.070 292.297 o
5 -10 1 3.439 3.304 0.100 58.085 o
5 -10 2 26.245 25.883 0.398 3.261 o
5 -10 3 9.156 8.986 0.179 16.514 o
5 -10 4 0.306 0.448 0.060 356.105 o
5 -10 5 24.255 23.783 0.368 3.751 o
5 -10 6 2.871 2.746 0.090 72.060 o
5 -10 7 12.761 12.568 0.219 10.382 o
5 -10 8 5.191 4.727 0.119 36.782 o
5 -10 9 17.010 16.658 0.279 6.625 o
5 -10 10 0.086 0.119 0.050 663.107 o
5 -10 11 0.886 0.836 0.060 225.947 o
5 -10 12 7.548 7.354 0.149 22.198 o
5 -9 0 16.792 16.568 0.378 5.509 o
5 -9 1 12.456 12.349 0.219 10.642 o
5 -9 2 4.755 4.717 0.119 38.911 o
5 -9 3 30.534 31.127 0.458 2.476 o
5 -9 4 19.442 19.006 0.308 5.375 o
5 -9 5 7.044 7.025 0.209 18.892 o
5 -9 6 14.405 14.280 0.249 8.465 o
5 -9 7 26.489 27.047 0.408 3.138 o
5 -9 8 13.265 13.294 0.229 9.657 o
5 -9 9 1.964 1.891 0.080 104.805 o
5 -9 10 15.948 15.822 0.269 7.238 o
5 -9 11 9.488 9.145 0.179 16.005 o
5 -9 12 21.289 21.086 0.328 4.643 o
5 -9 13 0.306 0.378 0.050 454.916 o
5 -9 14 7.717 7.911 0.159 20.640 o
5 -8 0 0.029 0.139 0.070 385.305 o
5 -8 1 2.631 2.438 0.080 83.532 o
5 -8 2 74.066 72.304 0.756 0.586 o
5 -8 3 3.629 3.304 0.080 62.474 o
5 -8 4 2.363 2.368 0.070 95.845 o
5 -8 5 22.961 22.509 0.348 4.127 o
5 -8 6 28.762 26.111 0.398 3.004 o
5 -8 7 0.005 0.010 0.050 801.688 o
5 -8 8 72.901 74.185 1.015 0.519 o
5 -8 9 7.832 7.951 0.159 20.398 o
5 -8 10 0.016 0.080 0.050 749.164 o
5 -8 11 3.475 3.393 0.100 57.298 o
5 -8 12 0.440 0.408 0.050 400.268 o
5 -8 13 26.702 26.977 0.408 3.120 o
5 -8 14 2.151 1.970 0.080 98.900 o
5 -8 15 1.841 1.960 0.080 107.260 o
5 -8 16 0.020 0.040 0.060 542.095 o
5 -7 0 74.019 73.200 1.045 0.507 o
5 -7 1 28.381 27.942 0.328 3.192 o
5 -7 2 9.082 8.717 0.139 18.759 o
5 -7 3 12.678 12.190 0.169 11.738 o
5 -7 4 22.027 21.076 0.259 4.971 o
5 -7 5 23.057 22.151 0.269 4.604 o
5 -7 6 1.113 1.124 0.050 212.564 o
5 -7 7 22.304 21.713 0.269 4.789 o
5 -7 8 1.024 0.995 0.060 203.907 o
5 -7 9 24.153 24.410 0.368 3.724 o
5 -7 10 58.659 57.507 0.796 0.804 o
5 -7 11 2.246 2.159 0.080 94.374 o
5 -7 12 1.710 1.861 0.080 112.634 o
5 -7 13 25.934 26.311 0.398 3.272 o
5 -7 14 14.748 14.429 0.249 8.282 o
5 -7 15 4.229 4.150 0.149 36.970 o
5 -7 16 10.931 10.269 0.269 10.843 o
5 -7 17 1.625 1.503 0.090 110.155 o
5 -6 0 81.539 83.031 1.174 0.412 o
5 -6 1 2.324 2.149 0.080 92.726 o
5 -6 2 0.092 0.169 0.050 637.402 o
5 -6 3 90.894 89.798 0.906 0.399 o
5 -6 4 30.768 30.062 0.338 2.829 o
5 -6 5 2.388 2.249 0.070 96.699 o
5 -6 6 15.666 14.966 0.199 8.525 o
5 -6 7 71.696 71.379 0.736 0.616 o
5 -6 8 57.401 56.432 0.597 0.933 o
5 -6 9 7.849 7.901 0.129 22.364 o
5 -6 10 11.546 11.503 0.169 12.976 o
5 -6 11 83.797 83.787 1.134 0.407 o
5 -6 12 5.866 5.722 0.129 30.713 o
5 -6 13 2.151 2.319 0.119 69.033 o
5 -6 14 26.150 26.440 0.587 2.495 o
5 -6 15 17.363 16.996 0.408 5.034 o
5 -6 16 1.483 1.562 0.100 102.615 o
5 -6 17 0.086 0.239 0.060 461.840 o
5 -5 0 113.026 115.641 1.602 0.222 o
5 -5 1 3.788 3.254 0.109 52.068 o
5 -5 2 0.238 0.299 0.040 649.635 o
5 -5 3 23.273 22.121 0.259 4.622 o
5 -5 4 62.480 61.358 0.637 0.803 o
5 -5 5 0.166 0.458 0.070 314.849 o
5 -5 6 19.520 18.549 0.229 6.109 o
5 -5 7 41.075 40.471 0.438 1.703 o
5 -5 8 53.808 53.706 0.567 1.039 o
5 -5 9 16.775 16.369 0.209 7.606 o
5 -5 10 3.984 3.901 0.129 43.211 o
5 -5 11 1.593 1.592 0.090 109.795 o
5 -5 12 19.654 19.773 0.458 4.042 o
5 -5 13 67.023 70.612 1.423 0.446 o
5 -5 14 4.315 4.269 0.159 34.441 o
5 -5 15 19.868 20.350 0.468 3.908 o
5 -5 16 12.805 12.618 0.318 8.115 o
5 -5 17 1.602 1.542 0.100 99.956 o
5 -4 0 0.004 0.119 0.060 529.103 o
5 -4 1 186.488 190.064 2.567 0.085 o
5 -4 2 37.653 36.719 0.468 1.892 o
5 -4 3 35.311 34.649 0.378 2.233 o
5 -4 4 23.664 22.977 0.269 4.421 o
5 -4 5 263.443 264.557 2.567 0.051 o
5 -4 6 37.067 36.182 0.478 1.916 o
5 -4 7 28.654 27.236 0.448 2.790 o
5 -4 8 7.141 6.777 0.159 22.866 o
5 -4 9 94.678 96.196 1.413 0.303 o
5 -4 10 5.519 5.194 0.139 31.553 o
5 -4 11 4.260 4.189 0.129 40.881 o
5 -4 12 7.456 7.374 0.179 20.172 o
5 -4 13 14.614 15.116 0.368 6.305 o
5 -4 14 16.086 15.534 0.378 5.773 o
5 -4 15 1.082 1.085 0.090 136.184 o
5 -4 16 29.431 29.156 0.627 2.118 o
5 -4 17 10.980 11.056 0.289 9.999 o
5 -4 18 1.286 1.264 0.090 124.884 o
5 -3 0 43.100 42.959 0.975 0.989 o
5 -3 1 0.138 1.105 0.119 118.500 o
5 -3 2 44.086 42.162 0.687 1.279 o
5 -3 3 112.140 107.640 1.622 0.229 o
5 -3 4 8.400 7.991 0.159 19.393 o
5 -3 5 0.931 0.856 0.060 219.939 o
5 -3 6 113.307 111.013 1.612 0.224 o
5 -3 7 11.204 10.558 0.209 12.464 o
5 -3 8 55.361 55.148 0.836 0.839 o
5 -3 9 10.644 10.210 0.209 13.076 o
5 -3 10 29.859 28.938 0.478 2.539 o
5 -3 11 37.572 36.331 0.587 1.703 o
5 -3 12 15.134 15.165 0.289 7.344 o
5 -3 13 0.057 0.179 0.070 371.905 o
5 -3 14 87.368 92.156 1.264 0.354 o
5 -3 15 8.051 8.329 0.169 19.084 o
5 -3 16 12.049 12.071 0.219 10.998 o
5 -3 17 18.447 18.698 0.308 5.638 o
5 -3 18 12.554 12.707 0.219 10.467 o
5 -2 0 29.136 28.490 0.547 2.386 o
5 -2 2 1.466 1.214 0.100 107.562 o
5 -2 3 7.580 7.115 0.209 18.085 o
5 -2 4 140.589 137.602 2.926 0.111 o
5 -2 5 49.482 46.710 0.707 1.092 o
5 -2 6 43.232 42.342 0.647 1.343 o
5 -2 7 84.712 82.553 1.204 0.393 o
5 -2 8 10.607 10.100 0.169 14.590 o
5 -2 9 15.682 15.543 0.199 8.382 o
5 -2 10 51.687 52.084 0.547 1.111 o
5 -2 11 37.729 37.605 0.418 1.948 o
5 -2 12 18.156 18.290 0.229 6.559 o
5 -2 13 12.611 12.280 0.219 10.565 o
5 -2 14 0.726 0.786 0.060 248.204 o
5 -2 15 7.656 7.593 0.159 21.043 o
5 -2 16 5.336 5.294 0.129 33.449 o
5 -2 17 3.199 3.284 0.100 60.647 o
5 -2 18 2.142 2.209 0.080 96.236 o
5 -1 3 0.912 2.229 0.239 30.703 o
5 -1 4 41.043 40.879 0.647 1.424 o
5 -1 5 38.213 36.062 0.587 1.684 o
5 -1 6 161.055 160.758 1.851 0.125 o
5 -1 7 20.867 20.439 0.239 5.433 o
5 -1 8 26.613 26.320 0.299 3.597 o
5 -1 9 88.123 89.270 0.906 0.413 o
5 -1 10 56.012 57.049 0.597 0.951 o
5 -1 11 12.731 12.877 0.179 11.214 o
5 -1 12 122.873 127.363 1.274 0.216 o
5 -1 13 2.543 2.488 0.119 63.562 o
5 -1 14 12.697 12.688 0.318 8.142 o
5 -1 15 21.882 22.320 0.358 4.243 o
5 -1 16 11.304 11.344 0.209 12.074 o
5 -1 17 8.263 8.588 0.169 18.555 o
5 -1 18 0.237 0.259 0.040 667.511 o
5 0 0 4.295 4.160 0.109 45.114 o
5 0 1 21.940 21.375 0.428 3.856 o
5 0 2 7.957 8.866 0.239 14.867 o
5 0 3 54.429 52.402 0.806 0.889 o
5 0 4 17.990 15.951 0.308 6.096 o
5 0 5 13.662 12.996 0.169 10.726 o
5 0 6 33.954 32.311 0.358 2.440 o
5 0 7 59.456 57.825 0.597 0.889 o
5 0 8 6.978 6.727 0.109 27.508 o
5 0 9 24.256 24.191 0.289 4.123 o
5 0 10 35.992 36.252 0.408 2.092 o
5 0 11 35.832 36.321 0.408 2.099 o
5 0 12 7.187 7.135 0.119 25.549 o
5 0 13 0.205 0.239 0.050 538.431 o
5 0 14 24.494 25.554 0.398 3.468 o
5 0 15 9.879 9.931 0.189 14.694 o
5 0 16 0.048 0.050 0.040 1079.950 o
5 0 17 1.519 1.503 0.070 137.826 o
5 1 0 162.185 160.559 1.771 0.127 o
5 1 1 0.072 0.149 0.080 291.940 o
5 1 2 296.031 302.481 5.782 0.027 o
5 1 3 1.409 1.144 0.060 168.314 o
5 1 4 29.170 28.271 0.368 2.967 o
5 1 5 3.423 3.264 0.070 68.469 o
5 1 6 22.157 21.634 0.259 4.887 o
5 1 7 20.815 19.942 0.239 5.506 o
5 1 8 0.821 0.766 0.050 272.483 o
5 1 9 21.977 21.972 0.269 4.828 o
5 1 10 6.995 6.757 0.119 26.590 o
5 1 11 59.623 60.781 0.647 0.842 o
5 1 12 25.921 25.803 0.398 3.299 o
5 1 13 21.811 22.280 0.358 4.257 o
5 1 14 0.586 0.567 0.050 337.384 o
5 1 15 31.767 31.495 0.478 2.330 o
5 1 16 0.287 0.289 0.050 482.991 o
5 1 17 17.090 16.578 0.388 5.335 o
5 2 0 0.415 0.408 0.060 334.626 o
5 2 1 253.107 250.915 2.826 0.053 o
5 2 2 50.152 47.994 0.697 1.074 o
5 2 3 24.867 23.693 0.378 3.630 o
5 2 4 56.802 54.730 0.667 0.919 o
5 2 5 89.696 88.584 0.896 0.409 o
5 2 6 17.814 17.166 0.219 6.959 o
5 2 7 40.282 40.262 0.438 1.740 o
5 2 8 34.191 33.853 0.378 2.330 o
5 2 9 27.745 27.594 0.328 3.279 o
5 2 10 0.069 0.070 0.040 1015.400 o
5 2 11 1.072 0.995 0.060 199.569 o
5 2 12 59.452 62.124 0.876 0.730 o
5 2 13 13.585 13.643 0.239 9.192 o
5 2 14 1.305 1.314 0.070 153.002 o
5 2 15 2.875 2.856 0.090 71.224 o
5 2 16 23.074 23.793 0.368 3.906 o
5 3 0 5.338 4.906 0.090 40.152 o
5 3 1 9.846 9.175 0.139 17.251 o
5 3 2 85.433 83.967 1.174 0.393 o
5 3 3 1.144 1.015 0.070 171.464 o
5 3 4 0.011 0.109 0.060 528.186 o
5 3 5 24.341 23.932 0.308 4.032 o
5 3 6 18.067 17.862 0.229 6.655 o
5 3 7 0.005 0.020 0.050 796.387 o
5 3 8 0.081 0.119 0.050 666.947 o
5 3 9 0.023 0.080 0.050 741.998 o
5 3 10 27.598 27.674 0.428 2.931 o
5 3 11 2.110 2.169 0.080 97.479 o
5 3 12 1.410 1.373 0.070 146.042 o
5 3 13 9.355 9.314 0.179 16.064 o
5 3 14 8.701 8.936 0.179 17.136 o
5 3 15 5.757 5.672 0.129 31.181 o
5 4 0 12.467 11.941 0.159 12.242 o
5 4 1 28.007 27.296 0.299 3.369 o
5 4 2 50.854 49.516 0.726 1.024 o
5 4 3 84.933 83.837 1.174 0.395 o
5 4 4 13.611 13.593 0.259 8.794 o
5 4 5 0.253 0.249 0.040 657.366 o
5 4 6 56.689 55.815 0.597 0.950 o
5 4 7 130.903 136.020 1.363 0.190 o
5 4 8 16.290 16.051 0.219 7.741 o
5 4 9 8.767 8.757 0.179 17.168 o
5 4 10 14.785 15.305 0.269 7.760 o
5 4 11 3.769 3.801 0.109 50.069 o
5 4 12 0.139 0.358 0.050 542.046 o
5 4 13 7.579 7.503 0.219 17.179 o
5 4 14 0.011 0.010 0.040 1225.460 o
5 5 0 23.692 23.683 0.269 4.355 o
5 5 1 1.235 1.314 0.050 192.440 o
5 5 2 23.804 22.937 0.269 4.400 o
5 5 3 9.847 9.593 0.199 14.494 o
5 5 4 16.571 16.638 0.299 6.513 o
5 5 5 7.711 7.682 0.129 22.901 o
5 5 6 23.155 22.390 0.279 4.508 o
5 5 7 3.092 3.135 0.100 62.614 o
5 5 8 56.379 59.338 0.846 0.795 o
5 5 9 7.333 7.682 0.159 21.569 o
5 5 10 1.407 1.453 0.070 144.252 o
5 5 11 10.308 10.558 0.199 13.579 o
5 5 12 17.588 17.175 0.408 4.978 o
5 5 13 4.067 4.040 0.149 37.925 o
5 6 0 8.326 8.329 0.129 20.960 o
5 6 1 9.034 8.807 0.129 19.243 o
5 6 2 4.030 4.130 0.090 51.762 o
5 6 3 0.030 0.050 0.050 750.203 o
5 6 4 0.784 0.756 0.070 210.071 o
5 6 5 13.155 13.543 0.338 7.439 o
5 6 6 3.872 3.941 0.109 48.776 o
5 6 7 4.394 4.418 0.119 41.618 o
5 6 8 21.970 21.524 0.488 3.480 o
5 6 9 1.365 1.433 0.100 107.317 o
5 6 10 2.224 2.249 0.109 74.324 o
5 6 11 0.120 0.080 0.060 481.900 o
5 7 0 2.418 2.408 0.070 94.069 o
5 7 1 6.897 6.687 0.139 25.227 o
5 7 2 31.417 30.142 0.428 2.530 o
5 7 3 11.891 10.767 0.249 10.701 o
5 7 6 0.370 0.368 0.070 286.151 o
5 7 7 17.421 17.066 0.408 5.017 o
5 7 8 7.359 7.453 0.219 17.484 o
5 7 9 9.561 9.523 0.259 12.344 o
5 8 0 6.594 6.846 0.189 21.338 o
5 8 1 4.288 4.249 0.149 36.506 o
5 8 2 1.602 2.030 0.100 94.415 o
5 8 3 8.449 8.548 0.219 15.573 o
5 8 4 7.549 7.662 0.199 18.419 o
5 8 6 2.979 2.826 0.129 53.736 o
5 8 7 0.185 0.189 0.060 433.103 o
5 9 0 7.660 7.851 0.209 17.492 o
5 9 1 7.353 7.543 0.209 18.102 o
5 9 2 3.609 3.752 0.139 43.294 o
5 9 3 7.074 7.185 0.199 19.470 o
5 9 4 6.625 6.966 0.189 21.177 o
5 10 0 0.530 0.647 0.070 243.417 o
5 10 1 0.228 0.229 0.060 411.060 o
6 -10 0 0.223 0.299 0.070 319.450 o
6 -10 1 15.034 14.966 0.348 6.504 o
6 -10 2 3.110 3.095 0.129 51.666 o
6 -10 3 0.217 0.229 0.040 699.148 o
6 -10 4 0.003 0.080 0.040 1152.700 o
6 -10 5 0.688 0.647 0.050 306.616 o
6 -10 6 7.195 7.264 0.209 18.510 o
6 -10 7 0.221 0.169 0.050 549.216 o
6 -10 8 4.372 4.199 0.149 36.254 o
6 -9 0 19.996 20.141 0.438 4.121 o
6 -9 1 0.002 0.050 0.070 406.828 o
6 -9 2 5.676 5.523 0.179 25.561 o
6 -9 3 31.970 32.241 0.478 2.295 o
6 -9 4 0.051 0.348 0.050 601.160 o
6 -9 5 0.471 0.637 0.060 299.615 o
6 -9 6 23.345 23.146 0.358 3.969 o
6 -9 7 17.257 17.544 0.289 6.305 o
6 -9 8 1.304 1.214 0.070 155.793 o
6 -9 9 6.522 6.209 0.139 26.845 o
6 -9 10 0.690 0.577 0.050 313.262 o
6 -9 11 16.741 16.409 0.269 6.872 o
6 -8 0 24.140 25.037 0.527 2.924 o
6 -8 1 26.721 27.365 0.567 2.502 o
6 -8 2 1.416 1.204 0.100 109.054 o
6 -8 3 1.867 1.751 0.070 119.145 o
6 -8 4 37.494 38.142 0.547 1.737 o
6 -8 5 17.602 17.265 0.279 6.359 o
6 -8 6 0.002 0.010 0.050 806.144 o
6 -8 7 4.836 4.966 0.119 37.898 o
6 -8 8 26.692 26.689 0.408 3.135 o
6 -8 9 4.616 4.727 0.119 39.595 o
6 -8 10 4.639 4.378 0.109 42.319 o
6 -8 11 13.582 13.235 0.229 9.501 o
6 -8 12 15.575 15.842 0.259 7.511 o
6 -8 13 7.151 7.304 0.219 17.845 o
6 -7 0 28.243 29.326 0.607 2.230 o
6 -7 1 21.562 21.215 0.458 3.723 o
6 -7 2 3.139 3.383 0.139 47.222 o
6 -7 3 6.609 6.359 0.139 26.405 o
6 -7 4 2.154 2.139 0.080 96.762 o
6 -7 5 12.933 12.737 0.219 10.226 o
6 -7 6 66.712 67.378 0.925 0.616 o
6 -7 7 0.623 0.428 0.060 291.112 o
6 -7 8 11.497 11.464 0.209 11.882 o
6 -7 9 11.255 11.145 0.199 12.497 o
6 -7 10 0.147 0.199 0.050 586.701 o
6 -7 11 8.452 8.160 0.159 19.170 o
6 -7 12 16.679 16.200 0.388 5.456 o
6 -7 13 0.134 0.050 0.060 482.210 o
6 -7 14 0.283 0.318 0.070 305.803 o
6 -6 0 0.017 0.030 0.070 405.330 o
6 -6 1 1.186 1.224 0.080 144.954 o
6 -6 2 55.066 54.313 0.796 0.873 o
6 -6 3 16.659 16.151 0.299 6.559 o
6 -6 4 1.777 1.582 0.060 136.439 o
6 -6 5 0.125 0.199 0.040 819.624 o
6 -6 6 23.316 22.529 0.269 4.522 o
6 -6 7 23.625 21.902 0.338 4.131 o
6 -6 8 14.097 14.130 0.239 8.820 o
6 -6 9 32.041 32.719 0.697 1.764 o
6 -6 10 12.478 12.419 0.318 8.277 o
6 -6 11 20.198 20.390 0.468 3.866 o
6 -6 12 0.371 0.338 0.080 237.876 o
6 -6 13 23.261 23.305 0.527 3.065 o
6 -6 14 16.663 16.658 0.398 5.302 o
6 -6 15 2.230 2.269 0.109 74.100 o
6 -5 0 3.407 3.244 0.109 55.352 o
6 -5 1 43.857 42.819 0.637 1.332 o
6 -5 2 0.024 0.040 0.070 401.478 o
6 -5 3 7.219 6.787 0.159 22.692 o
6 -5 4 25.487 24.270 0.289 3.931 o
6 -5 5 42.504 41.814 0.458 1.597 o
6 -5 6 4.538 4.160 0.119 41.537 o
6 -5 7 55.221 55.367 0.856 0.828 o
6 -5 8 21.361 20.927 0.378 4.297 o
6 -5 9 38.284 38.779 0.816 1.295 o
6 -5 10 5.464 5.881 0.189 24.496 o
6 -5 11 26.721 27.156 0.597 2.405 o
6 -5 12 27.614 27.743 0.607 2.306 o
6 -5 13 1.550 1.363 0.100 103.438 o
6 -5 14 3.159 2.916 0.129 51.974 o
6 -5 15 4.771 4.786 0.169 30.311 o
6 -5 16 15.813 15.742 0.378 5.810 o
6 -4 0 23.669 22.539 0.368 3.910 o
6 -4 1 34.192 33.226 0.508 2.073 o
6 -4 2 17.342 16.598 0.289 6.416 o
6 -4 4 42.563 39.913 0.975 1.019 o
6 -4 5 21.370 20.051 0.348 4.578 o
6 -4 6 33.923 32.898 0.537 2.030 o
6 -4 7 0.002 0.090 0.070 400.704 o
6 -4 8 3.587 3.264 0.109 53.693 o
6 -4 9 8.035 7.622 0.179 19.038 o
6 -4 10 10.998 10.837 0.289 10.047 o
6 -4 11 15.528 15.524 0.378 5.900 o
6 -4 12 34.836 36.013 0.766 1.491 o
6 -4 13 24.727 25.057 0.557 2.750 o
6 -4 14 1.629 1.562 0.100 99.087 o
6 -4 15 12.709 12.757 0.328 7.919 o
6 -4 16 0.787 0.826 0.080 179.260 o
6 -3 0 0.057 0.040 0.090 242.411 o
6 -3 5 87.286 79.648 1.174 0.394 o
6 -3 6 19.657 18.758 0.328 5.180 o
6 -3 7 46.123 44.740 0.697 1.191 o
6 -3 8 7.113 6.906 0.169 21.976 o
6 -3 9 31.875 31.694 0.527 2.192 o
6 -3 10 16.960 16.439 0.388 5.375 o
6 -3 11 6.481 6.707 0.209 19.967 o
6 -3 12 0.001 0.010 0.070 413.609 o
6 -3 13 7.913 8.050 0.239 15.314 o
6 -3 14 37.553 39.625 0.836 1.275 o
6 -3 15 1.823 1.791 0.109 84.253 o
6 -3 16 2.486 2.538 0.119 63.916 o
6 -2 5 1.883 1.692 0.080 109.939 o
6 -2 6 2.222 2.557 0.090 84.154 o
6 -2 7 38.287 37.475 0.597 1.639 o
6 -2 8 17.378 17.086 0.318 5.995 o
6 -2 9 4.116 3.931 0.119 44.699 o
6 -2 10 0.015 0.010 0.060 553.378 o
6 -2 11 8.670 8.797 0.249 13.759 o
6 -2 12 74.784 76.752 1.065 0.486 o
6 -2 13 0.123 0.139 0.050 625.206 o
6 -2 14 0.185 0.299 0.050 532.977 o
6 -2 15 35.535 36.819 0.537 1.864 o
6 -2 16 7.945 8.488 0.169 19.126 o
6 -1 5 47.108 43.615 0.677 1.201 o
6 -1 6 1.727 1.602 0.080 116.202 o
6 -1 7 3.260 3.353 0.080 66.676 o
6 -1 8 84.052 82.593 0.985 0.437 o
6 -1 9 11.772 11.404 0.199 11.981 o
6 -1 10 44.668 43.496 0.627 1.313 o
6 -1 11 0.820 0.806 0.060 235.163 o
6 -1 12 1.536 1.552 0.070 136.000 o
6 -1 13 6.193 6.100 0.139 27.936 o
6 -1 14 0.084 0.149 0.040 916.261 o
6 -1 15 0.218 0.249 0.050 528.391 o
6 -1 16 0.169 0.159 0.040 789.822 o
6 0 2 46.940 47.367 1.035 0.859 o
6 0 3 9.092 8.637 0.179 16.818 o
6 0 4 16.850 16.608 0.289 6.559 o
6 0 5 78.081 76.324 1.075 0.467 o
6 0 6 32.046 31.654 0.358 2.606 o
6 0 7 23.958 23.763 0.289 4.204 o
6 0 8 0.354 0.418 0.040 528.572 o
6 0 9 55.577 56.064 0.597 0.967 o
6 0 10 77.048 79.857 1.105 0.456 o
6 0 11 2.090 2.040 0.080 99.561 o
6 0 12 0.167 0.189 0.050 576.596 o
6 0 13 41.559 42.740 0.627 1.408 o
6 0 14 7.292 7.423 0.159 21.902 o
6 0 15 0.455 0.537 0.050 375.624 o
6 1 0 0.145 0.100 0.050 623.456 o
6 1 1 3.882 3.652 0.109 49.777 o
6 1 2 0.447 0.527 0.060 315.011 o
6 1 3 26.153 25.494 0.408 3.249 o
6 1 4 10.985 10.737 0.209 12.569 o
6 1 5 5.395 4.906 0.129 33.981 o
6 1 6 4.670 4.498 0.090 45.533 o
6 1 7 37.972 37.744 0.418 1.932 o
6 1 8 13.235 13.145 0.179 10.768 o
6 1 9 0.242 0.199 0.050 528.868 o
6 1 10 30.538 30.987 0.468 2.452 o
6 1 11 0.835 0.806 0.060 233.454 o
6 1 12 8.435 8.438 0.169 18.408 o
6 1 13 0.003 0.040 0.050 786.774 o
6 1 14 5.127 5.165 0.169 28.701 o
6 1 15 1.740 1.672 0.070 125.222 o
6 2 0 200.963 198.672 2.677 0.076 o
6 2 1 3.396 2.806 0.100 61.090 o
6 2 2 0.312 0.199 0.060 388.942 o
6 2 3 30.014 29.913 0.468 2.524 o
6 2 4 26.301 25.892 0.418 3.172 o
6 2 5 2.107 2.139 0.090 90.514 o
6 2 6 5.299 5.393 0.100 37.658 o
6 2 7 0.113 0.219 0.040 822.357 o
6 2 8 17.706 16.409 0.279 6.453 o
6 2 9 28.468 29.166 0.448 2.728 o
6 2 10 0.035 0.299 0.060 470.831 o
6 2 11 44.505 44.770 0.657 1.269 o
6 2 12 1.915 2.010 0.080 104.527 o
6 2 13 11.103 11.085 0.209 12.333 o
6 2 14 5.466 5.344 0.129 32.850 o
6 3 0 0.518 0.965 0.050 308.776 o
6 3 1 50.456 48.312 0.716 1.050 o
6 3 2 26.073 25.763 0.418 3.201 o
6 3 3 13.389 13.016 0.249 9.244 o
6 3 4 3.081 2.985 0.109 59.660 o
6 3 5 50.230 52.183 0.776 0.975 o
6 3 6 14.270 13.832 0.269 8.262 o
6 3 7 1.996 1.940 0.080 103.282 o
6 3 8 8.352 8.727 0.179 17.756 o
6 3 9 3.059 3.174 0.100 62.760 o
6 3 10 35.081 36.003 0.537 1.902 o
6 3 11 0.184 0.328 0.050 524.911 o
6 3 12 3.643 3.463 0.100 55.395 o
6 3 13 9.329 9.364 0.179 16.065 o
6 4 0 13.396 13.424 0.179 10.566 o
6 4 1 23.814 23.186 0.388 3.740 o
6 4 2 6.496 6.428 0.159 24.681 o
6 4 3 11.897 11.762 0.239 10.665 o
6 4 4 0.140 0.139 0.060 460.389 o
6 4 5 12.504 11.832 0.308 8.605 o
6 4 6 1.843 1.921 0.119 75.706 o
6 4 7 0.042 0.060 0.060 524.641 o
6 4 8 6.599 6.767 0.149 24.970 o
6 4 9 0.836 0.746 0.060 236.900 o
6 4 10 0.600 0.597 0.050 330.846 o
6 4 11 6.625 6.757 0.149 24.918 o
6 4 12 1.598 1.632 0.070 131.668 o
6 5 0 42.701 42.869 0.508 1.514 o
6 5 1 21.309 21.385 0.279 4.956 o
6 5 2 1.569 1.811 0.119 80.600 o
6 5 3 8.215 8.737 0.259 13.694 o
6 5 4 45.275 49.088 0.995 0.900 o
6 5 5 28.486 30.102 0.647 2.084 o
6 5 6 45.995 48.292 0.975 0.912 o
6 5 7 15.601 15.872 0.269 7.352 o
6 5 8 5.908 6.279 0.139 28.519 o
6 5 9 0.079 0.060 0.040 1004.320 o
6 5 10 3.880 3.970 0.109 48.610 o
6 6 0 0.780 0.557 0.060 256.319 o
6 6 1 12.066 12.817 0.219 10.742 o
6 6 2 4.669 4.916 0.179 28.912 o
6 6 3 0.001 0.010 0.080 316.951 o
6 6 4 0.774 0.667 0.090 160.934 o
6 6 5 9.607 10.249 0.279 11.327 o
6 6 6 18.357 19.574 0.458 4.225 o
6 6 7 0.161 0.189 0.090 223.623 o
6 6 8 1.260 1.393 0.090 123.541 o
6 7 0 0.617 0.667 0.060 272.315 o
6 7 1 2.798 3.015 0.090 71.191 o
6 7 2 1.857 2.080 0.080 105.155 o
6 7 3 3.143 3.672 0.159 40.733 o
6 7 4 0.003 0.119 0.080 306.346 o
6 7 5 0.502 0.607 0.100 153.528 o
6 8 0 11.481 12.598 0.219 11.204 o
6 8 1 0.083 0.020 0.070 386.900 o
6 8 2 7.141 7.762 0.209 18.241 o
6 9 0 0.309 0.478 0.070 287.160 o
7 -9 2 1.658 1.542 0.100 98.648 o
7 -9 3 1.334 1.373 0.090 121.318 o
7 -8 0 9.309 9.802 0.259 12.426 o
7 -8 1 12.295 12.817 0.308 8.488 o
7 -8 2 6.285 5.941 0.189 22.756 o
7 -8 3 3.011 3.125 0.129 52.308 o
7 -8 4 23.579 23.783 0.508 3.115 o
7 -8 5 2.951 2.965 0.129 53.406 o
7 -8 6 12.215 12.250 0.219 10.829 o
7 -8 7 13.009 12.857 0.219 10.145 o
7 -8 8 0.089 0.070 0.040 977.146 o
7 -8 9 7.439 7.583 0.219 17.303 o
7 -7 0 4.463 4.597 0.169 31.583 o
7 -7 1 9.762 9.463 0.249 12.607 o
7 -7 2 24.107 25.017 0.527 2.927 o
7 -7 3 0.589 0.687 0.080 199.620 o
7 -7 4 12.278 11.603 0.289 9.222 o
7 -7 5 11.173 11.284 0.279 10.119 o
7 -7 6 10.279 10.518 0.189 13.989 o
7 -7 7 0.343 0.338 0.050 447.913 o
7 -7 8 0.250 0.299 0.070 313.963 o
7 -7 9 23.236 24.251 0.537 2.981 o
7 -7 10 6.587 6.528 0.199 20.775 o
7 -7 11 0.091 0.239 0.070 355.614 o
7 -6 0 0.189 0.080 0.070 351.148 o
7 -6 1 0.082 0.159 0.080 289.536 o
7 -6 2 0.432 0.448 0.080 225.288 o
7 -6 3 12.700 12.887 0.308 8.312 o
7 -6 4 19.672 19.763 0.428 4.267 o
7 -6 6 20.361 20.499 0.468 3.840 o
7 -6 7 3.069 3.204 0.139 48.260 o
7 -6 8 3.586 3.344 0.139 44.600 o
7 -6 9 0.028 0.060 0.070 397.181 o
7 -6 10 22.927 22.430 0.508 3.234 o
7 -6 11 1.750 1.642 0.100 95.432 o
7 -6 12 0.434 0.438 0.080 225.660 o
7 -5 0 35.819 35.953 0.716 1.548 o
7 -5 1 0.160 0.766 0.080 237.562 o
7 -5 2 17.457 16.230 0.368 5.516 o
7 -5 6 0.941 1.055 0.090 142.912 o
7 -5 7 51.850 51.755 1.055 0.767 o
7 -5 8 5.470 5.473 0.179 26.111 o
7 -5 9 1.148 1.105 0.090 133.132 o
7 -5 10 8.355 8.339 0.239 14.738 o
7 -5 11 30.967 31.425 0.677 1.874 o
7 -5 12 5.533 5.483 0.179 25.947 o
7 -5 13 9.854 9.752 0.259 12.053 o
7 -4 7 2.053 2.030 0.109 78.503 o
7 -4 8 28.454 27.743 0.597 2.292 o
7 -4 9 26.749 26.500 0.577 2.492 o
7 -4 10 4.219 4.030 0.149 37.276 o
7 -4 11 6.192 5.961 0.189 22.918 o
7 -4 12 11.128 11.235 0.299 9.602 o
7 -4 13 3.086 3.055 0.129 51.998 o
7 -3 7 0.663 0.826 0.080 188.232 o
7 -3 8 0.094 0.139 0.060 480.099 o
7 -3 9 0.102 0.139 0.070 365.429 o
7 -3 10 38.711 38.948 0.816 1.283 o
7 -3 11 5.325 5.274 0.179 26.712 o
7 -3 12 4.355 4.577 0.169 31.970 o
7 -3 13 21.484 21.862 0.498 3.454 o
7 -2 7 30.322 29.674 0.637 2.037 o
7 -2 8 3.469 3.493 0.139 44.852 o
7 -2 9 0.625 0.647 0.080 198.240 o
7 -2 10 10.629 10.906 0.289 10.224 o
7 -2 11 13.605 14.280 0.358 6.840 o
7 -2 12 12.612 13.543 0.338 7.618 o
7 -2 13 3.558 3.672 0.149 41.234 o
7 -1 8 1.131 1.035 0.090 135.200 o
7 -1 9 6.761 6.627 0.199 20.406 o
7 -1 10 25.734 25.554 0.567 2.624 o
7 -1 11 11.117 11.185 0.209 12.283 o
7 -1 12 4.803 5.145 0.119 37.627 o
7 -1 13 20.858 21.584 0.338 4.605 o
7 0 5 13.807 13.892 0.338 7.175 o
7 0 6 39.022 39.874 0.816 1.266 o
7 0 7 1.796 1.921 0.109 83.591 o
7 0 8 64.522 66.612 0.925 0.638 o
7 0 9 0.090 0.119 0.050 659.649 o
7 0 10 0.237 0.269 0.050 512.793 o
7 0 11 0.047 0.060 0.040 1070.890 o
7 0 12 3.209 3.174 0.090 64.813 o
7 0 13 1.585 1.662 0.070 131.552 o
7 1 1 0.998 1.055 0.090 140.414 o
7 1 2 0.630 0.687 0.070 229.443 o
7 1 3 55.571 57.577 0.846 0.816 o
7 1 4 4.383 4.319 0.129 39.906 o
7 1 5 0.038 0.020 0.070 400.178 o
7 1 6 8.817 9.026 0.249 13.537 o
7 1 7 40.004 41.953 0.856 1.175 o
7 1 8 12.928 12.976 0.229 9.934 o
7 1 9 17.759 17.623 0.289 6.155 o
7 1 10 5.008 5.105 0.119 36.757 o
7 1 11 25.332 25.703 0.398 3.367 o
7 1 12 0.028 0.129 0.040 1037.490 o
7 2 0 0.816 0.975 0.070 197.413 o
7 2 1 6.066 5.881 0.149 27.521 o
7 2 2 0.050 0.010 0.060 533.746 o
7 2 3 0.582 0.557 0.090 175.558 o
7 2 4 7.002 7.115 0.209 18.889 o
7 2 5 12.228 12.548 0.318 8.349 o
7 2 6 0.001 0.010 0.080 317.042 o
7 2 7 7.230 7.394 0.219 17.685 o
7 2 8 21.076 21.912 0.488 3.553 o
7 2 9 1.198 1.124 0.070 164.605 o
7 2 10 0.023 0.040 0.050 763.632 o
7 2 11 2.589 2.667 0.090 76.922 o
7 3 0 11.131 10.737 0.279 10.292 o
7 3 1 20.352 18.937 0.428 4.229 o
7 3 2 3.752 4.010 0.159 37.215 o
7 3 3 4.638 4.607 0.169 31.005 o
7 3 4 13.346 13.762 0.338 7.342 o
7 3 5 0.362 0.338 0.090 199.217 o
7 3 6 5.306 5.095 0.179 26.985 o
7 3 7 2.416 2.438 0.119 65.235 o
7 3 8 7.957 8.001 0.229 15.855 o
7 3 9 30.492 31.246 0.667 1.920 o
7 3 10 0.102 0.090 0.040 936.511 o
7 4 0 1.020 0.955 0.100 125.089 o
7 4 1 0.060 0.109 0.080 297.290 o
7 4 2 9.711 10.389 0.279 11.220 o
7 4 3 17.129 18.350 0.428 4.760 o
7 4 4 0.212 0.199 0.080 266.755 o
7 4 5 1.362 1.244 0.100 109.988 o
7 4 6 10.502 10.677 0.289 10.354 o
7 4 7 1.742 1.731 0.109 86.213 o
7 4 8 6.443 6.418 0.199 21.111 o
7 4 9 3.703 3.801 0.149 40.189 o
7 5 0 1.632 1.801 0.109 87.584 o
7 5 1 0.072 0.100 0.080 296.119 o
7 5 2 4.825 4.856 0.179 28.564 o
7 5 3 13.513 14.588 0.358 6.823 o
7 5 4 0.047 0.030 0.070 395.883 o
7 5 5 2.790 2.697 0.129 55.841 o
7 5 6 0.220 0.229 0.080 263.673 o
7 5 7 1.885 2.070 0.109 80.851 o
7 6 0 8.399 8.707 0.249 14.032 o
7 6 1 5.883 6.319 0.209 21.241 o
7 6 2 11.686 12.429 0.318 8.588 o
7 6 3 0.348 0.597 0.090 190.308 o
7 6 4 41.655 44.760 0.915 1.056 o
7 6 5 5.148 5.453 0.189 25.673 o
7 7 0 0.012 0.010 0.050 793.401 o
7 7 1 1.286 1.602 0.109 96.515 o
7 7 2 0.028 0.050 0.070 398.629 o
8 -7 0 15.244 15.524 0.358 6.235 o
8 -7 1 3.374 3.582 0.139 45.148 o
8 -7 2 6.243 6.080 0.179 23.679 o
8 -6 0 4.134 4.329 0.149 36.992 o
8 1 5 16.819 17.962 0.418 4.943 o
8 1 6 39.992 43.665 0.886 1.126 o
8 1 7 2.994 3.334 0.139 48.329 o
8 1 8 1.663 1.672 0.100 97.050 o
8 2 0 1.810 2.000 0.119 75.620 o
8 2 1 13.704 14.747 0.358 6.747 o
8 2 2 0.914 0.866 0.090 148.575 o
8 2 3 4.740 4.936 0.169 30.178 o
8 2 4 6.536 6.996 0.209 19.663 o
8 2 5 8.222 8.647 0.239 14.718 o
8 2 6 0.195 0.169 0.070 339.258 o
8 2 7 18.530 19.245 0.438 4.388 o
8 3 0 1.849 2.080 0.119 74.516 o
8 3 1 0.456 0.488 0.090 186.446 o
8 3 2 0.807 0.915 0.090 152.638 o
8 3 3 0.598 0.617 0.080 201.765 o
8 3 4 2.366 2.637 0.119 64.683 o
8 3 5 6.417 6.757 0.209 20.028 o
8 3 6 3.158 3.274 0.139 47.450 o
8 4 0 0.661 0.746 0.090 165.062 o
8 4 1 9.959 10.867 0.289 10.601 o
8 4 2 5.811 6.060 0.199 22.562 o
8 4 3 0.250 0.149 0.070 329.330 o
8 4 4 0.009 0.010 0.060 556.997 o
8 4 5 0.270 0.378 0.070 302.599 o
8 5 0 2.975 3.204 0.139 48.892 o
8 5 1 1.200 1.194 0.090 129.345 o
8 5 2 1.198 1.323 0.090 127.003 o
;
_olex2_submission_special_instructions 'No special instructions were received'
loop_
_space_group_symop_id
_space_group_symop_operation_xyz
1 x,y,z
2 -x,-y,-z
loop_
_atom_site_label
_atom_site_type_symbol
_atom_site_fract_x
_atom_site_fract_y
_atom_site_fract_z
_atom_site_U_iso_or_equiv
_atom_site_adp_type
_atom_site_occupancy
_atom_site_refinement_flags_posn
S(2) S 0.456277(14) 0.648856(9) 0.371168(5) 0.012201(15) Uani 1.000000 .
O(4) O -0.24293(5) 0.72111(4) -0.010326(18) 0.01632(3) Uani 1.000000 .
N(1) N 0.14215(5) 1.02094(3) 0.357639(18) 0.01105(2) Uani 1.000000 .
N(3) N 0.08329(5) 0.71273(3) 0.169953(18) 0.01118(2) Uani 1.000000 .
C(2) C 0.21661(5) 0.80244(3) 0.295746(19) 0.00996(3) Uani 1.000000 .
C(4) C -0.13326(5) 0.82220(4) 0.10351(2) 0.01160(3) Uani 1.000000 .
C(6) C -0.06599(5) 1.14375(4) 0.30022(2) 0.01188(3) Uani 1.000000 .
C(5) C -0.21049(5) 1.05175(4) 0.17690(2) 0.01247(3) Uani 1.000000 .
H(6) H -0.0967(18) 1.3171(14) 0.3606(7) 0.0286(17) Uani 1.000000 .
H(5) H -0.373(2) 1.1413(15) 0.1303(8) 0.036(2) Uani 1.000000 .
H(1) H 0.2550(18) 1.0969(13) 0.4466(7) 0.0217(15) Uani 1.000000 .
H(3) H 0.1342(18) 0.5572(15) 0.1197(7) 0.0263(17) Uani 1.000000 .
loop_
_atom_site_aniso_label
_atom_site_aniso_U_11
_atom_site_aniso_U_22
_atom_site_aniso_U_33
_atom_site_aniso_U_12
_atom_site_aniso_U_13
_atom_site_aniso_U_23
S(2) 0.01346(2) 0.01055(2) 0.01138(2) 0.002375(14) -0.003320(14) 0.002171(15)
O(4) 0.01975(8) 0.01675(7) 0.00992(6) 0.00671(5) -0.00428(4) 0.00043(5)
N(1) 0.01177(6) 0.01002(5) 0.01006(5) 0.00178(4) -0.00128(4) 0.00113(4)
N(3) 0.01226(6) 0.01136(5) 0.00881(5) 0.00304(4) -0.00146(4) 0.00135(4)
C(2) 0.01023(6) 0.00994(6) 0.00900(6) 0.00148(4) -0.00089(4) 0.00186(5)
C(4) 0.01270(7) 0.01247(6) 0.00886(6) 0.00305(5) -0.00126(4) 0.00205(5)
C(6) 0.01282(7) 0.01023(6) 0.01164(7) 0.00238(5) -0.00075(5) 0.00182(5)
C(5) 0.01361(7) 0.01190(6) 0.01142(7) 0.00355(5) -0.00123(5) 0.00281(5)
H(6) 0.035(4) 0.023(4) 0.023(4) 0.015(3) -0.010(3) 0.001(3)
H(5) 0.035(5) 0.039(5) 0.032(5) 0.011(4) -0.009(3) 0.009(4)
H(1) 0.024(4) 0.022(4) 0.018(4) 0.004(3) 0.004(3) 0.005(3)
H(3) 0.024(4) 0.037(5) 0.017(4) -0.003(3) -0.006(3) 0.008(3)
loop_
_atom_type_symbol
_atom_type_description
_atom_type_scat_dispersion_real
_atom_type_scat_dispersion_imag
_atom_type_scat_source
_atom_type_scat_dispersion_source
C C 0.00347 0.00161
'Clementi & Roetti, C., At. Data Nucl. Data Tables 1974, 14, (177-478); Clementi & Raimondi, J. Chem. Phys., 1963, 38, (2686-2689)'
'Henke, Gullikson and Davis, At. Data and Nucl. Data Tables, 1993, 54, 2'
H H 0.00000 0.00000
'Clementi & Roetti, C., At. Data Nucl. Data Tables 1974, 14, (177-478); Clementi & Raimondi, J. Chem. Phys., 1963, 38, (2686-2689)'
'Henke, Gullikson and Davis, At. Data and Nucl. Data Tables, 1993, 54, 2'
N N 0.00653 0.00323
'Clementi & Roetti, C., At. Data Nucl. Data Tables 1974, 14, (177-478); Clementi & Raimondi, J. Chem. Phys., 1963, 38, (2686-2689)'
'Henke, Gullikson and Davis, At. Data and Nucl. Data Tables, 1993, 54, 2'
O O 0.01158 0.00611
'Clementi & Roetti, C., At. Data Nucl. Data Tables 1974, 14, (177-478); Clementi & Raimondi, J. Chem. Phys., 1963, 38, (2686-2689)'
'Henke, Gullikson and Davis, At. Data and Nucl. Data Tables, 1993, 54, 2'
loop_
_geom_angle_atom_site_label_1
_geom_angle_atom_site_label_2
_geom_angle_atom_site_label_3
_geom_angle
_geom_angle_site_symmetry_1
_geom_angle_site_symmetry_3
_geom_angle_publ_flag
C(6) N(1) C(2) 122.667(18) . . ?
H(1) N(1) C(2) 117.6(4) . . ?
H(1) N(1) C(6) 119.7(4) . . ?
C(4) N(3) C(2) 125.423(18) . . ?
H(3) N(3) C(2) 119.6(4) . . ?
H(3) N(3) C(4) 115.0(4) . . ?
N(1) C(2) S(2) 121.899(15) . . ?
N(3) C(2) S(2) 121.895(15) . . ?
N(3) C(2) N(1) 116.200(18) . . ?
N(3) C(4) O(4) 119.53(2) . . ?
C(5) C(4) O(4) 125.04(2) . . ?
C(5) C(4) N(3) 115.427(18) . . ?
C(5) C(6) N(1) 121.499(19) . . ?
H(6) C(6) N(1) 114.1(4) . . ?
H(6) C(6) C(5) 124.3(4) . . ?
C(6) C(5) C(4) 118.680(19) . . ?
H(5) C(5) C(4) 118.0(4) . . ?
H(5) C(5) C(6) 123.3(4) . . ?
loop_
_geom_bond_atom_site_label_1
_geom_bond_atom_site_label_2
_geom_bond_distance
_geom_bond_site_symmetry_2
_geom_bond_publ_flag
S(2) C(2) 1.6823(2) . ?
O(4) C(4) 1.2337(3) . ?
N(1) C(2) 1.3518(3) . ?
N(1) C(6) 1.3706(3) . ?
N(1) H(1) 0.998(8) . ?
N(3) C(2) 1.3572(3) . ?
N(3) C(4) 1.3941(3) . ?
N(3) H(3) 0.977(9) . ?
C(4) C(5) 1.4430(3) . ?
C(6) C(5) 1.3533(3) . ?
C(6) H(6) 1.077(8) . ?
C(5) H(5) 1.055(8) . ?
loop_
_refln_index_h
_refln_index_k
_refln_index_l
_refln_F_squared_meas
_refln_F_squared_sigma
0 0 2 260.96 3.46
0 0 3 937.07 12.26
0 0 5 200.62 2.29
0 0 6 616.2 6.98
0 0 7 6.61 0.11
0 0 8 158.44 1.54
0 0 9 56.02 0.65
0 0 10 16.05 0.24
0 0 11 357.23 3.75
0 0 12 52.49 0.65
0 0 13 30.42 0.69
0 0 14 5.99 0.13
0 0 15 199.77 2.68
0 0 16 32.01 0.49
0 0 17 32.23 0.5
0 0 18 1.62 0.09
0 0 19 13.75 0.32
0 1 -22 1.57 0.09
0 1 -21 1.12 0.08
0 1 -20 6.52 0.19
0 1 -19 10.07 0.26
0 1 -18 17.61 0.31
0 1 -17 30.37 0.48
0 1 -16 11.01 0.18
0 1 -15 12.39 0.16
0 1 -14 50.23 0.61
0 1 -13 2.53 0.1
0 1 -12 2.59 0.09
0 1 -11 18.64 0.27
0 1 -10 270.18 2.85
0 1 -8 56.88 0.59
0 1 -7 245.39 2.41
0 1 -6 6.85 0.13
0 1 -5 56.78 0.7
0 1 -4 31.49 0.4
0 1 -3 438.47 5.02
0 1 -2 66.3 0.77
0 1 -1 465.49 10.77
0 1 0 226.68 3.03
0 1 1 893.79 10.18
0 1 2 398.4 5.25
0 1 3 63.58 0.76
0 1 4 1.53 0.06
0 1 5 750.34 8.55
0 1 6 76.34 0.93
0 1 7 25.99 0.38
0 1 8 164.61 1.49
0 1 9 44.24 0.43
0 1 10 108.16 1.33
0 1 11 1.34 0.08
0 1 12 26.12 0.6
0 1 13 68.67 1.42
0 1 14 17.31 0.45
0 2 -22 1.5 0.09
0 2 -21 30.28 0.63
0 2 -20 1.62 0.1
0 2 -19 0.22 0.05
0 2 -18 21.56 0.26
0 2 -17 28.56 0.32
0 2 -16 27.8 0.31
0 2 -15 0.44 0.04
0 2 -14 55.5 0.56
0 2 -13 192.47 2.71
0 2 -12 5.02 0.12
0 2 -11 3.78 0.1
0 2 -10 551.16 5.76
0 2 -9 93.6 1.04
0 2 -8 8.12 0.13
0 2 -7 143.95 1.41
0 2 -6 156.67 1.82
0 2 -5 551.08 6.2
0 2 -4 220.94 2.51
0 2 -3 6.85 0.23
0 2 -2 880.95 9.99
0 2 0 598.36 6.82
0 2 1 1522.44 19.92
0 2 2 251.58 2.85
0 2 3 236.1 3.12
0 2 4 0.67 0.06
0 2 5 263.92 3.02
0 2 6 350.01 3.16
0 2 7 43.12 0.45
0 2 8 17.48 0.24
0 2 9 51.68 0.62
0 2 10 31.49 0.74
0 3 -23 3.82 0.14
0 3 -22 0.19 0.06
0 3 -21 1.93 0.07
0 3 -20 50.84 0.71
0 3 -19 5.78 0.13
0 3 -18 2.56 0.07
0 3 -17 16.81 0.21
0 3 -16 0.22 0.03
0 3 -15 24.26 0.28
0 3 -14 6.82 0.11
0 3 -13 18.02 0.33
0 3 -12 6.18 0.14
0 3 -11 110.3 1.23
0 3 -10 239.02 2.54
0 3 -9 309.19 3.24
0 3 -8 393.55 3.73
0 3 -7 82.88 0.83
0 3 -6 47.62 0.52
0 3 -5 755.51 8.58
0 3 -3 16.12 0.24
0 3 -2 172.37 2.3
0 3 -1 4.24 0.1
0 3 0 482.33 5.44
0 3 1 492.74 5.57
0 3 2 15.45 0.24
0 3 3 286.28 2.86
0 3 4 152.76 1.41
0 3 5 682.31 6.69
0 3 6 323.39 3.55
0 3 7 401.53 4.4
0 3 8 117.16 1.36
0 3 9 0.44 0.05
0 3 10 39.93 0.93
0 4 -23 16.75 0.38
0 4 -22 0.33 0.05
0 4 -21 1.92 0.08
0 4 -20 1.06 0.06
0 4 -19 17.72 0.29
0 4 -18 38.88 0.43
0 4 -17 3.26 0.08
0 4 -16 27.51 0.32
0 4 -15 52.22 0.54
0 4 -14 7.45 0.11
0 4 -13 1.23 0.05
0 4 -12 232.76 3.24
0 4 -11 0.66 0.06
0 4 -10 29.47 0.39
0 4 -9 0.5 0.05
0 4 -8 52.36 0.56
0 4 -7 111.43 1.11
0 4 -6 0.83 0.04
0 4 -5 85.91 0.99
0 4 -4 287.61 3.27
0 4 -3 68.27 0.98
0 4 -2 153.39 1.79
0 4 -1 191.47 1.93
0 4 0 11.98 0.15
0 4 1 127.1 1.28
0 4 2 22.36 0.31
0 4 3 17.19 0.25
0 4 4 37.64 0.49
0 4 5 12.75 0.21
0 4 6 141.2 1.62
0 4 7 12.22 0.22
0 4 8 19.81 0.31
0 4 9 66.43 1.05
0 4 10 29.65 0.53
0 5 -23 0.29 0.06
0 5 -22 7.2 0.15
0 5 -21 4.81 0.12
0 5 -20 26.54 0.4
0 5 -19 5.37 0.13
0 5 -18 30.52 0.35
0 5 -17 25.92 0.31
0 5 -16 14.8 0.2
0 5 -15 24.7 0.29
0 5 -14 66.85 0.68
0 5 -13 37.81 0.4
0 5 -12 6.69 0.18
0 5 -11 18.04 0.31
0 5 -10 93.3 1.06
0 5 -9 172.38 1.87
0 5 -8 13.52 0.21
0 5 -7 150.74 1.34
0 5 -6 132.8 1.18
0 5 -5 450.98 4.01
0 5 -4 38.8 0.39
0 5 -3 319.03 3.13
0 5 -2 218.14 2.17
0 5 -1 28.51 0.33
0 5 0 0.48 0.05
0 5 1 256.46 2.83
0 5 2 50.48 0.63
0 5 3 60.16 0.74
0 5 4 16.56 0.27
0 5 5 8.63 0.17
0 5 6 324.43 3.59
0 5 7 5.06 0.15
0 5 8 22.57 0.26
0 5 9 55.54 0.57
0 5 10 57.28 0.59
0 6 -22 12.36 0.22
0 6 -21 3.2 0.1
0 6 -20 0.11 0.05
0 6 -19 20.98 0.33
0 6 -18 0.64 0.06
0 6 -17 18.46 0.23
0 6 -16 2.5 0.07
0 6 -15 71.15 0.72
0 6 -14 11.35 0.16
0 6 -13 69.56 0.7
0 6 -12 62.78 0.63
0 6 -11 18.73 0.26
0 6 -10 0.1 0.06
0 6 -9 25.18 0.5
0 6 -8 59.87 1.01
0 6 -7 3.52 0.1
0 6 -6 0.89 0.06
0 6 -5 9.43 0.16
0 6 -4 542.19 5.9
0 6 -3 51.02 0.64
0 6 -2 54.56 0.68
0 6 -1 158.08 1.8
0 6 0 151.46 1.74
0 6 1 18.66 0.29
0 6 2 145.24 1.68
0 6 3 133.72 1.56
0 6 4 3.69 0.13
0 6 5 0.93 0.11
0 6 6 1.62 0.05
0 6 7 112.18 1.11
0 6 8 34.2 0.38
0 6 9 0.44 0.04
0 6 10 1.28 0.05
0 6 11 124.49 1.62
0 7 -22 9.91 0.19
0 7 -21 14.63 0.25
0 7 -20 6.74 0.14
0 7 -19 2.82 0.09
0 7 -18 11.89 0.21
0 7 -17 10.38 0.19
0 7 -16 12.28 0.17
0 7 -15 12.38 0.17
0 7 -14 11.62 0.23
0 7 -13 0.37 0.06
0 7 -12 61.09 0.88
0 7 -11 77.37 1.09
0 7 -10 1.65 0.07
0 7 -9 36.41 0.85
0 7 -8 37.46 0.86
0 7 -7 159.88 2.35
0 7 -6 31.73 0.62
0 7 -5 23.09 0.49
0 7 -4 31.12 0.48
0 7 -3 38.17 0.51
0 7 -2 3.22 0.1
0 7 -1 41.46 0.62
0 7 0 13.04 0.29
0 7 1 72.16 1.15
0 7 2 1.4 0.06
0 7 3 1.92 0.05
0 7 4 105.25 1.05
0 7 5 1.56 0.05
0 7 6 0.33 0.04
0 7 7 9.76 0.14
0 7 8 15.29 0.2
0 7 9 6.3 0.11
0 7 10 2.58 0.08
0 7 11 2.6 0.08
0 8 -21 1.45 0.1
0 8 -20 0.4 0.07
0 8 -19 0.3 0.08
0 8 -18 6.02 0.19
0 8 -17 20.92 0.46
0 8 -16 0.07 0.07
0 8 -15 1.03 0.07
0 8 -14 80.3 1.14
0 8 -13 32.34 0.51
0 8 -12 0.49 0.06
0 8 -11 31.32 0.49
0 8 -10 73.71 1.62
0 8 -6 61.89 0.92
0 8 -5 9.01 0.19
0 8 -4 9.06 0.19
0 8 -3 87.23 1.07
0 8 -2 118.21 1.17
0 8 -1 11.11 0.15
0 8 0 0.18 0.03
0 8 1 139.58 1.39
0 8 2 145.82 1.45
0 8 3 3.34 0.08
0 8 4 30.75 0.35
0 8 5 42.3 0.47
0 8 6 24.95 0.3
0 8 7 1.87 0.06
0 8 8 10.91 0.2
0 8 9 15.1 0.25
0 8 10 0.52 0.05
0 8 11 12.22 0.21
0 9 -20 0.4 0.07
0 9 -19 2.03 0.11
0 9 -18 0.99 0.09
0 9 -17 20.01 0.45
0 9 -16 3.57 0.14
0 9 -15 3.35 0.14
0 9 -14 8.32 0.23
0 9 -13 6.76 0.2
0 9 -6 102.6 1.51
0 9 -5 3.81 0.12
0 9 -4 0.37 0.06
0 9 -3 1.03 0.06
0 9 -2 11.87 0.16
0 9 -1 17.1 0.22
0 9 0 2.83 0.07
0 9 1 70.12 0.73
0 9 2 11.26 0.16
0 9 3 59.37 0.63
0 9 4 23.79 0.29
0 9 5 0.91 0.06
0 9 6 10.27 0.19
0 9 7 49.75 0.69
0 9 8 1.96 0.08
0 9 9 7.94 0.16
0 9 10 9.71 0.18
0 9 11 0.59 0.05
0 10 -18 0.74 0.08
0 10 -17 0.19 0.08
0 10 -16 48.24 0.94
0 10 -6 1.32 0.09
0 10 -5 41.91 0.67
0 10 -4 33.74 0.56
0 10 -3 2.68 0.1
0 10 -2 0.07 0.05
0 10 -1 49.27 0.53
0 10 0 15.8 0.21
0 10 1 0.16 0.06
0 10 2 0.84 0.06
0 10 3 12.65 0.22
0 10 4 8.73 0.17
0 10 5 0.2 0.06
0 10 6 0.06 0.05
0 10 7 10.09 0.19
0 10 8 0.94 0.06
0 10 9 2.44 0.08
0 11 -6 26.51 0.59
0 11 -5 1.12 0.09
0 11 -4 3.88 0.15
0 11 -3 40.33 0.85
0 11 -2 7.54 0.23
0 11 -1 0.13 0.05
0 11 0 12.27 0.21
0 11 1 0.42 0.05
0 11 2 26.65 0.4
0 11 3 2.07 0.08
0 11 4 9.06 0.17
0 11 5 9.83 0.18
0 11 6 13.21 0.23
0 12 -5 2.22 0.11
0 12 -4 3.64 0.15
0 12 -3 0.01 0.06
0 12 -2 7.79 0.23
0 12 -1 22.61 0.35
0 12 0 2.22 0.08
0 12 1 7.42 0.23
0 12 2 0.09 0.06
0 12 3 1.61 0.1
0 13 -4 3.09 0.13
1 -13 4 11.37 0.3
1 -13 5 0.08 0.06
1 -13 6 1.94 0.11
1 -13 7 0.65 0.07
1 -12 -3 3.58 0.1
1 -12 -2 19.21 0.3
1 -12 -1 0.04 0.05
1 -12 0 0.26 0.07
1 -12 1 9.98 0.28
1 -12 2 4.02 0.16
1 -12 3 6.55 0.21
1 -12 4 2.1 0.12
1 -12 5 8.85 0.25
1 -12 6 9.63 0.27
1 -12 7 5.94 0.19
1 -11 -6 5.03 0.12
1 -11 -5 2.49 0.08
1 -11 -4 0.54 0.05
1 -11 -3 1.64 0.07
1 -11 -2 0.77 0.06
1 -11 -1 42.77 0.6
1 -11 0 0.95 0.06
1 -11 1 11.15 0.3
1 -11 2 19.05 0.45
1 -11 3 2.54 0.13
1 -11 4 0.66 0.08
1 -11 5 20.56 0.48
1 -11 6 6.9 0.21
1 -11 7 8.83 0.25
1 -11 8 9.36 0.26
1 -11 16 0.6 0.07
1 -10 -9 21.34 0.33
1 -10 -8 19.86 0.31
1 -10 -7 4.81 0.12
1 -10 -6 0.16 0.05
1 -10 -5 22 0.34
1 -10 -4 43.33 0.61
1 -10 -3 0.71 0.06
1 -10 -2 1.25 0.07
1 -10 -1 20.5 0.32
1 -10 0 21.68 0.3
1 -10 1 28 0.48
1 -10 2 6.05 0.16
1 -10 3 27.17 0.47
1 -10 4 49.87 0.78
1 -10 5 12.2 0.25
1 -10 6 13 0.26
1 -10 7 95.24 1.41
1 -10 8 1.74 0.09
1 -10 12 4.99 0.16
1 -10 13 0.07 0.06
1 -10 14 2.54 0.12
1 -10 15 14.37 0.34
1 -10 16 3.98 0.15
1 -10 17 0.7 0.08
1 -10 18 11.24 0.29
1 -9 -11 11.24 0.26
1 -9 -10 0.65 0.07
1 -9 -9 1.47 0.07
1 -9 -8 7.36 0.15
1 -9 -7 1.94 0.08
1 -9 -6 7.62 0.16
1 -9 -5 0.53 0.05
1 -9 -4 5.01 0.1
1 -9 -3 1.97 0.06
1 -9 -2 19.86 0.25
1 -9 -1 22.12 0.27
1 -9 0 29.08 0.33
1 -9 1 21.23 0.26
1 -9 2 35.89 0.58
1 -9 3 7.89 0.18
1 -9 4 55.83 0.85
1 -9 5 43.56 0.68
1 -9 6 11.99 0.24
1 -9 7 2.9 0.1
1 -9 8 5.43 0.14
1 -9 9 35.65 0.51
1 -9 10 18 0.31
1 -9 11 1.29 0.08
1 -9 12 3.76 0.12
1 -9 13 20.35 0.35
1 -9 15 14.39 0.34
1 -9 16 14.69 0.35
1 -9 17 18.13 0.41
1 -9 18 3.7 0.15
1 -9 19 4.08 0.15
1 -9 20 18.48 0.42
1 -8 -13 1.67 0.09
1 -8 -12 4.37 0.15
1 -8 -11 0.12 0.06
1 -8 -10 16.87 0.36
1 -8 -9 50.31 0.69
1 -8 -8 0.19 0.04
1 -8 -7 11.09 0.16
1 -8 -6 69.1 0.72
1 -8 -5 45.55 0.49
1 -8 -4 3.76 0.08
1 -8 -3 198.72 1.95
1 -8 -2 1.31 0.05
1 -8 -1 15.15 0.18
1 -8 0 0.85 0.04
1 -8 1 37.82 0.41
1 -8 2 10.78 0.19
1 -8 3 2.52 0.09
1 -8 4 51.66 0.78
1 -8 5 59.59 0.89
1 -8 6 101.53 1.21
1 -8 7 32.29 0.35
1 -8 8 45.09 0.53
1 -8 9 11.58 0.17
1 -8 10 70.36 1
1 -8 11 0.35 0.06
1 -8 12 49.68 0.74
1 -8 13 0.31 0.06
1 -8 14 0.55 0.07
1 -8 15 27.43 0.46
1 -8 16 2.38 0.12
1 -8 17 0.16 0.07
1 -8 18 5.07 0.18
1 -8 19 12.52 0.32
1 -8 20 0.01 0.06
1 -8 21 12.23 0.31
1 -7 -13 29.66 0.58
1 -7 -12 0.92 0.07
1 -7 -11 7.53 0.2
1 -7 -10 0.01 0.05
1 -7 -9 5.58 0.14
1 -7 -8 42.84 0.47
1 -7 -7 15.95 0.21
1 -7 -6 0.28 0.05
1 -7 -5 17 0.21
1 -7 -4 192.81 1.89
1 -7 -3 38.84 0.42
1 -7 -2 66.11 0.67
1 -7 -1 81.07 1.27
1 -7 0 141.88 2.15
1 -7 1 13.2 0.26
1 -7 2 129.43 1.7
1 -7 3 63.63 1.12
1 -7 4 89.53 1.18
1 -7 5 0.17 0.05
1 -7 6 11.7 0.22
1 -7 7 156.88 2.31
1 -7 8 67.8 1.05
1 -7 9 0.43 0.05
1 -7 10 43.43 0.64
1 -7 11 94.61 1.33
1 -7 12 74.98 1.06
1 -7 13 39.53 0.6
1 -7 14 13.6 0.26
1 -7 15 61.2 0.9
1 -7 16 1.45 0.09
1 -7 17 3.85 0.15
1 -7 18 13.94 0.34
1 -7 19 7.67 0.16
1 -7 20 3.88 0.11
1 -7 21 4.74 0.12
1 -6 -12 0.08 0.06
1 -6 -11 10.22 0.2
1 -6 -10 4 0.11
1 -6 -9 1.04 0.06
1 -6 -8 19.51 0.24
1 -6 -7 7.26 0.11
1 -6 -6 72.76 0.74
1 -6 -5 29.86 0.38
1 -6 -4 28.14 0.5
1 -6 -3 119.85 1.42
1 -6 -2 2.96 0.1
1 -6 -1 0.16 0.05
1 -6 0 84.59 1.01
1 -6 1 47.04 0.48
1 -6 3 1.71 0.06
1 -6 4 0.54 0.05
1 -6 5 300.92 3.25
1 -6 6 2.21 0.08
1 -6 8 68.11 0.81
1 -6 9 129.78 1.66
1 -6 10 13.79 0.4
1 -6 11 53.65 0.78
1 -6 12 63.33 0.91
1 -6 13 9.88 0.17
1 -6 14 0.86 0.05
1 -6 15 0.4 0.05
1 -6 16 47.65 0.51
1 -6 17 2.01 0.06
1 -6 18 2.67 0.09
1 -6 19 3.98 0.11
1 -6 20 43.86 0.62
1 -6 21 12.55 0.22
1 -6 22 0.04 0.06
1 -5 -11 21.8 0.35
1 -5 -10 57.18 0.81
1 -5 -9 48.72 0.7
1 -5 -8 66.06 0.78
1 -5 -7 26.99 0.49
1 -5 -6 20.76 0.33
1 -5 -5 85.92 1.04
1 -5 -4 10.84 0.2
1 -5 -3 223.56 2.5
1 -5 -2 229.02 2.05
1 -5 -1 58.01 0.57
1 -5 0 16.1 0.2
1 -5 1 342.8 3.02
1 -5 2 664.76 5.83
1 -5 3 198.49 1.97
1 -5 4 49.29 0.59
1 -5 5 89.22 1.01
1 -5 6 82.43 0.94
1 -5 7 0.56 0.05
1 -5 8 67.81 0.73
1 -5 9 0.49 0.04
1 -5 10 142.7 1.4
1 -5 11 20.93 0.34
1 -5 12 12.25 0.19
1 -5 13 222.32 2.12
1 -5 14 0.51 0.04
1 -5 15 3.4 0.08
1 -5 16 33.78 0.37
1 -5 17 47.84 0.51
1 -5 18 1.69 0.07
1 -5 19 13.03 0.23
1 -5 20 8 0.16
1 -5 21 9.99 0.19
1 -5 22 0.08 0.04
1 -4 -11 5.5 0.13
1 -4 -10 3.86 0.1
1 -4 -9 49.34 1.15
1 -4 -8 225.15 2.87
1 -4 -7 23.09 0.34
1 -4 -6 9.39 0.18
1 -4 -5 175.67 1.79
1 -4 -4 30.72 0.33
1 -4 -3 56.93 0.55
1 -4 -2 137.83 1.25
1 -4 -1 143.78 1.46
1 -4 0 218.38 2.17
1 -4 1 48.61 0.61
1 -4 2 61.59 0.64
1 -4 3 889.27 9.56
1 -4 4 40.86 0.41
1 -4 5 14.44 0.21
1 -4 6 271.03 2.64
1 -4 7 310.54 2.68
1 -4 8 35.24 0.36
1 -4 9 13.18 0.17
1 -4 10 131.89 1.19
1 -4 11 103.78 1.18
1 -4 12 28.25 0.48
1 -4 13 3.41 0.07
1 -4 14 105.11 1.03
1 -4 15 49.87 0.52
1 -4 16 8.14 0.13
1 -4 17 5.45 0.1
1 -4 18 75.76 0.77
1 -4 19 4.21 0.11
1 -4 20 2.37 0.08
1 -4 21 11.43 0.29
1 -4 22 11.55 0.29
1 -3 -11 34.63 0.84
1 -3 -10 2.48 0.14
1 -3 -9 26.08 0.46
1 -3 -8 257.01 3.18
1 -3 -7 0.63 0.04
1 -3 -6 2.48 0.06
1 -3 -5 19.97 0.25
1 -3 -4 103.16 1.06
1 -3 -3 70.39 0.85
1 -3 -2 37.12 0.58
1 -3 -1 31.76 0.5
1 -3 0 528.81 6.93
1 -3 1 33.46 0.43
1 -3 2 43.34 0.77
1 -3 3 747.82 8.47
1 -3 4 2.52 0.08
1 -3 5 67.72 0.8
1 -3 6 6.31 0.11
1 -3 7 100.46 0.97
1 -3 8 77.21 0.72
1 -3 9 18.7 0.22
1 -3 10 162.58 1.46
1 -3 11 94.7 1.08
1 -3 12 40.79 0.58
1 -3 13 47.17 0.58
1 -3 15 10.94 0.15
1 -3 16 105.41 1.04
1 -3 17 4.77 0.09
1 -3 18 7.95 0.18
1 -3 19 15.04 0.35
1 -3 20 0.09 0.06
1 -3 21 17.24 0.39
1 -3 22 5.71 0.18
1 -2 -11 37.18 0.85
1 -2 -10 139.38 1.58
1 -2 -9 155.59 1.75
1 -2 -8 5.43 0.12
1 -2 -7 1166.58 12.78
1 -2 -6 71.96 0.86
1 -2 -5 24.71 0.35
1 -2 -4 142.13 1.66
1 -2 -3 997.79 11.33
1 -2 -2 279.31 3.17
1 -2 -1 310.28 4.06
1 -2 0 0.31 0.06
1 -2 1 345.48 3.92
1 -2 2 1032.81 11.68
1 -2 3 282.4 3.19
1 -2 4 859.95 11.26
1 -2 5 373.12 4.86
1 -2 6 426.97 5.55
1 -2 7 33 0.33
1 -2 8 971.05 8.37
1 -2 9 178.56 1.58
1 -2 10 1.36 0.05
1 -2 11 5.44 0.13
1 -2 12 94.81 1.2
1 -2 13 58.08 0.69
1 -2 15 1.14 0.06
1 -2 16 8.33 0.18
1 -2 17 24.55 0.4
1 -2 18 43.13 0.65
1 -2 19 29.52 0.62
1 -2 20 6.35 0.19
1 -2 21 8.19 0.23
1 -2 22 1.11 0.08
1 -1 -14 14.53 0.42
1 -1 -13 20.54 0.33
1 -1 -12 5.23 0.17
1 -1 -11 0.28 0.06
1 -1 -10 93.02 1.16
1 -1 -9 3.7 0.09
1 -1 -8 180.73 1.8
1 -1 -7 3.26 0.07
1 -1 -6 120.91 1.44
1 -1 -5 273.14 3.1
1 -1 -4 47.5 0.6
1 -1 -3 302.32 3.93
1 -1 -2 1526.88 19.79
1 -1 -1 133.96 1.54
1 -1 0 522.86 6.89
1 -1 1 435.47 4.96
1 -1 2 3.53 0.07
1 -1 3 1006.03 13.14
1 -1 4 7.72 0.16
1 -1 5 0.2 0.05
1 -1 6 242.73 3.2
1 -1 7 146.65 1.44
1 -1 8 274.46 2.38
1 -1 9 221.15 1.94
1 -1 10 62.82 0.6
1 -1 11 236.37 2.24
1 -1 12 1.03 0.06
1 -1 13 37.55 0.55
1 -1 14 87.97 1.22
1 -1 15 30.39 0.47
1 -1 16 2.69 0.09
1 -1 17 30.05 0.47
1 -1 18 13.77 0.33
1 -1 19 31.83 0.66
1 -1 20 2.14 0.1
1 -1 21 4.14 0.14
1 -1 22 16.23 0.37
1 0 -16 26.56 0.43
1 0 -15 15.49 0.23
1 0 -14 1.8 0.05
1 0 -13 54.65 0.83
1 0 -12 100.12 1.13
1 0 -11 2.52 0.08
1 0 -9 158.22 1.55
1 0 -8 152.8 1.5
1 0 -7 273.38 3.01
1 0 -6 220.63 2.53
1 0 -5 338.33 3.82
1 0 -4 352.06 4.56
1 0 -3 149.03 1.71
1 0 -2 1346.73 17.46
1 0 -1 1012.02 13.16
1 0 0 167.01 2.19
1 0 1 109.17 1.46
1 0 2 134.81 1.8
1 0 3 380.03 4.98
1 0 4 2.24 0.11
1 0 5 107.03 1.26
1 0 6 8.46 0.16
1 0 7 110.53 1.09
1 0 8 345.29 3.31
1 0 9 13.93 0.17
1 0 10 38.3 0.48
1 0 11 51.36 0.63
1 0 12 50.75 1.07
1 0 13 2.11 0.08
1 0 14 66.07 0.93
1 0 15 19.23 0.32
1 0 16 33.2 0.51
1 0 17 2.1 0.08
1 0 18 0.07 0.05
1 0 19 10 0.26
1 0 20 2.51 0.11
1 0 21 10.29 0.26
1 1 -20 0.97 0.08
1 1 -19 5.73 0.12
1 1 -18 33.71 0.38
1 1 -17 66.19 0.68
1 1 -16 17.76 0.22
1 1 -15 65.42 0.66
1 1 -14 27.46 0.3
1 1 -13 79.01 1.16
1 1 -12 157.86 1.73
1 1 -11 103.94 1.16
1 1 -10 41.72 0.51
1 1 -9 16.89 0.24
1 1 -8 41.61 0.49
1 1 -7 356.39 3.4
1 1 -6 347.07 3.93
1 1 -5 75.17 0.89
1 1 -4 69.63 0.96
1 1 -3 331.95 4.33
1 1 -1 992.22 11.24
1 1 0 1062.28 12.12
1 1 1 1138.03 14.97
1 1 2 306.34 4.02
1 1 3 38.23 0.48
1 1 4 1366.09 13.88
1 1 5 6.81 0.14
1 1 6 58.63 0.56
1 1 7 9.47 0.23
1 1 8 36.72 0.45
1 1 9 496.41 5.27
1 1 10 1.41 0.06
1 1 11 4.51 0.11
1 1 12 87.5 1.29
1 1 13 233.56 3.12
1 1 14 0.1 0.04
1 1 15 125.93 1.73
1 1 16 10.85 0.21
1 2 -22 9.71 0.18
1 2 -21 4 0.1
1 2 -20 0.71 0.05
1 2 -19 40.4 0.57
1 2 -18 0.87 0.05
1 2 -17 10.16 0.15
1 2 -16 5.61 0.1
1 2 -15 16.88 0.21
1 2 -14 20.37 0.21
1 2 -13 15.1 0.29
1 2 -12 42.7 0.54
1 2 -11 60.61 0.72
1 2 -10 101.4 1.13
1 2 -9 95.11 1.05
1 2 -8 17.91 0.25
1 2 -7 25.04 0.32
1 2 -6 109.64 1.29
1 2 -5 136.05 1.58
1 2 -4 126.64 1.47
1 2 -3 12.49 0.19
1 2 -2 27.65 0.36
1 2 -1 403.16 4.59
1 2 0 0.44 0.04
1 2 1 53.47 0.76
1 2 2 71.96 1.01
1 2 3 458.16 5.17
1 2 4 17.88 0.33
1 2 5 19.1 0.28
1 2 6 291.47 2.82
1 2 7 14.2 0.2
1 2 8 9.61 0.17
1 2 9 50.4 0.61
1 2 10 75.64 0.89
1 2 11 47.51 0.74
1 2 12 1.95 0.09
1 2 13 1.46 0.11
1 3 -23 9.75 0.18
1 3 -22 2.2 0.08
1 3 -21 3.77 0.1
1 3 -20 13.32 0.23
1 3 -19 3.93 0.1
1 3 -18 0.39 0.04
1 3 -17 16.26 0.21
1 3 -16 51.55 0.54
1 3 -15 43.69 0.46
1 3 -14 18 0.22
1 3 -13 25.97 0.46
1 3 -12 380.96 4.01
1 3 -11 0.17 0.05
1 3 -10 73.83 0.85
1 3 -9 197.41 2.1
1 3 -8 95.56 1.05
1 3 -7 25.7 0.33
1 3 -6 390.67 4.21
1 3 -5 32.06 0.43
1 3 -4 330.54 3.73
1 3 -3 0.21 0.06
1 3 -2 0.88 0.05
1 3 -1 1410.14 15.94
1 3 0 80.52 1.13
1 3 1 0.43 0.06
1 3 2 193.3 2.18
1 3 3 474.46 4.66
1 3 4 122.15 1.24
1 3 5 293.53 2.9
1 3 6 9.21 0.13
1 3 7 99.01 0.92
1 3 8 8.36 0.24
1 3 9 6.49 0.21
1 3 10 21.58 0.57
1 3 11 13.42 0.25
1 3 12 27.96 0.46
1 4 -23 0.05 0.05
1 4 -22 21.25 0.33
1 4 -21 0.71 0.06
1 4 -20 13.94 0.24
1 4 -19 10.5 0.19
1 4 -18 1.76 0.06
1 4 -17 0.51 0.04
1 4 -16 2.04 0.06
1 4 -15 21.5 0.25
1 4 -14 0.13 0.04
1 4 -13 15.36 0.19
1 4 -12 16.87 0.32
1 4 -11 312.62 3.31
1 4 -10 95.09 1.07
1 4 -9 7.64 0.15
1 4 -8 30.57 0.39
1 4 -7 472.77 4.48
1 4 -6 77.96 0.79
1 4 -5 92.95 1.06
1 4 -4 268.36 2.69
1 4 -3 2.63 0.07
1 4 -2 108.16 1.12
1 4 -1 15.19 0.2
1 4 0 192.09 1.92
1 4 1 219.6 2.18
1 4 2 25.16 0.31
1 4 3 114.12 1.17
1 4 4 700.17 7.62
1 4 5 275.96 3.6
1 4 6 1.9 0.08
1 4 7 90 1.29
1 4 8 122.9 2.64
1 4 9 132.08 1.9
1 4 10 26.05 0.43
1 4 11 26.69 0.44
1 4 12 29.47 0.49
1 4 13 0.89 0.07
1 5 -23 0.28 0.05
1 5 -22 3.87 0.11
1 5 -21 7.15 0.15
1 5 -20 1.93 0.08
1 5 -19 20.41 0.32
1 5 -18 23.93 0.29
1 5 -17 9.15 0.14
1 5 -16 4.94 0.09
1 5 -15 13.45 0.18
1 5 -14 131.77 1.28
1 5 -13 9.47 0.13
1 5 -12 0.97 0.08
1 5 -11 25.89 0.4
1 5 -10 65.22 0.77
1 5 -9 14.95 0.23
1 5 -8 26.79 0.35
1 5 -7 7.4 0.14
1 5 -6 202.26 1.78
1 5 -5 1.58 0.05
1 5 -4 0.27 0.04
1 5 -3 260.78 2.29
1 5 -2 23.09 0.29
1 5 -1 14.01 0.22
1 5 0 16.35 0.25
1 5 1 100.21 1.16
1 5 2 40.94 0.53
1 5 3 0.16 0.05
1 5 4 3.97 0.11
1 5 5 94.87 1.13
1 5 6 18.49 0.37
1 5 7 11.71 0.19
1 5 8 1.22 0.04
1 5 9 41.22 0.65
1 5 10 13.72 0.26
1 5 11 6.75 0.16
1 5 12 3.42 0.11
1 5 13 10.13 0.26
1 6 -22 3.62 0.1
1 6 -21 14.42 0.25
1 6 -20 16.88 0.28
1 6 -19 1.21 0.07
1 6 -18 0.78 0.06
1 6 -17 38.21 0.42
1 6 -16 22.48 0.27
1 6 -15 0.25 0.05
1 6 -14 8.95 0.13
1 6 -13 28.15 0.31
1 6 -12 32.42 0.35
1 6 -11 19.37 0.36
1 6 -10 23.03 0.36
1 6 -9 155.73 1.7
1 6 -8 48.12 0.64
1 6 -7 59.9 0.97
1 6 -6 202.77 3.2
1 6 -5 294.84 4.59
1 6 -4 26.28 0.36
1 6 -3 20.39 0.3
1 6 -2 87.09 1.03
1 6 -1 214.47 2.4
1 6 0 0.3 0.05
1 6 1 2.6 0.09
1 6 2 77.88 0.95
1 6 3 24.7 0.46
1 6 4 148.08 2.25
1 6 5 31.47 0.35
1 6 6 96.81 0.97
1 6 7 55.09 0.58
1 6 8 12.42 0.17
1 6 9 14.12 0.19
1 6 10 169.44 2.43
1 6 11 0.93 0.07
1 6 12 0.34 0.06
1 6 13 11.57 0.3
1 7 -22 0.49 0.05
1 7 -21 3.84 0.15
1 7 -20 1.78 0.08
1 7 -19 9.42 0.18
1 7 -18 0.09 0.05
1 7 -17 7.06 0.15
1 7 -16 28.58 0.33
1 7 -15 32.35 0.36
1 7 -14 1.59 0.06
1 7 -13 57.39 0.59
1 7 -12 4.04 0.08
1 7 -11 6.28 0.17
1 7 -5 7.05 0.21
1 7 -4 119.54 1.4
1 7 -3 65.51 0.81
1 7 -2 13.64 0.26
1 7 -1 23.12 0.43
1 7 0 180.84 2.72
1 7 1 37.13 0.4
1 7 2 18.36 0.22
1 7 3 18.61 0.23
1 7 4 2.53 0.06
1 7 5 63.35 0.66
1 7 6 0.24 0.03
1 7 7 13.93 0.19
1 7 8 2.66 0.07
1 7 9 90.39 0.92
1 7 10 2.21 0.08
1 7 11 42.76 0.89
1 7 12 31.27 0.68
1 7 13 3.82 0.14
1 8 -21 0.04 0.06
1 8 -20 0.07 0.04
1 8 -19 16.01 0.27
1 8 -18 6.21 0.2
1 8 -17 0.71 0.06
1 8 -16 0.6 0.06
1 8 -15 13.71 0.26
1 8 -14 30.76 0.62
1 8 -5 0.46 0.09
1 8 -4 23.63 0.32
1 8 -3 59.68 0.61
1 8 -2 4.61 0.08
1 8 -1 3.8 0.08
1 8 0 46.64 0.5
1 8 1 12.7 0.17
1 8 2 37.45 0.41
1 8 3 9.18 0.14
1 8 4 10.11 0.15
1 8 5 16.95 0.22
1 8 6 4.34 0.09
1 8 7 0.48 0.04
1 8 8 13.55 0.23
1 8 9 0.22 0.05
1 8 10 12.96 0.22
1 8 11 4.61 0.17
1 8 12 0.24 0.07
1 9 -20 1.56 0.1
1 9 -18 2.23 0.11
1 9 -17 0.06 0.07
1 9 -4 24.41 0.28
1 9 -3 6.28 0.14
1 9 -2 14.02 0.18
1 9 -1 109.07 1.09
1 9 0 29.17 0.34
1 9 1 58.39 0.62
1 9 2 55.49 0.59
1 9 3 18.08 0.23
1 9 4 0.3 0.04
1 9 5 26.09 0.39
1 9 6 19.8 0.31
1 9 7 3.92 0.1
1 9 8 1.94 0.08
1 9 9 0.84 0.06
1 9 10 20.28 0.31
1 9 11 13.8 0.35
1 10 -4 9.09 0.22
1 10 -3 0.69 0.04
1 10 -2 12.47 0.22
1 10 -1 15.72 0.21
1 10 0 18.19 0.29
1 10 1 22.08 0.34
1 10 2 0.2 0.05
1 10 3 11.91 0.21
1 10 4 11.29 0.2
1 10 5 14.48 0.25
1 10 6 3.24 0.1
1 10 7 16.21 0.27
1 10 8 4.75 0.11
1 11 -3 30.36 0.44
1 11 -2 0.71 0.06
1 11 -1 6.3 0.14
1 11 0 7.71 0.16
1 11 1 12.34 0.33
1 11 2 0.37 0.05
1 11 3 5.19 0.19
1 11 4 3.66 0.15
1 11 5 8.47 0.17
1 11 6 0.61 0.05
1 12 -3 6.13 0.2
1 12 -2 9.81 0.18
1 12 -1 0.1 0.04
1 12 0 5.32 0.12
1 12 1 0.98 0.06
1 12 2 11.44 0.2
2 -12 -2 12.8 0.33
2 -12 -1 0.88 0.09
2 -12 0 25.69 0.58
2 -12 1 3.49 0.15
2 -12 2 9.54 0.27
2 -12 3 4.97 0.18
2 -12 4 13.16 0.34
2 -12 5 3.9 0.15
2 -12 6 3.26 0.14
2 -12 7 0.64 0.08
2 -12 8 9.81 0.27
2 -12 9 10.51 0.28
2 -12 10 2.49 0.12
2 -11 -6 2.07 0.08
2 -11 -5 6.23 0.14
2 -11 -4 10.59 0.19
2 -11 -3 10.77 0.2
2 -11 -2 5.06 0.12
2 -11 -1 9.59 0.28
2 -11 0 0.21 0.07
2 -11 1 0.26 0.07
2 -11 2 15.23 0.38
2 -11 3 8.63 0.25
2 -11 4 2.26 0.12
2 -11 5 0.01 0.06
2 -11 6 12.41 0.32
2 -11 7 73.17 1.47
2 -11 8 2.69 0.13
2 -11 9 3.59 0.15
2 -11 10 29.84 0.65
2 -11 12 1.29 0.09
2 -11 13 21.34 0.46
2 -11 14 2.93 0.13
2 -11 15 2.61 0.12
2 -11 16 0.07 0.06
2 -10 -9 0.14 0.06
2 -10 -8 6.25 0.18
2 -10 -7 0.01 0.04
2 -10 -6 8.78 0.17
2 -10 -5 0.1 0.04
2 -10 -4 3.09 0.09
2 -10 -3 27.87 0.42
2 -10 -2 10.61 0.19
2 -10 -1 37.44 0.53
2 -10 0 17.52 0.42
2 -10 1 1.82 0.09
2 -10 2 8.57 0.2
2 -10 3 52.27 0.82
2 -10 4 2.09 0.1
2 -10 5 37.44 0.61
2 -10 6 1.81 0.09
2 -10 7 0.83 0.07
2 -10 8 20.93 0.33
2 -10 9 0.49 0.05
2 -10 10 0.07 0.05
2 -10 11 3.1 0.09
2 -10 12 40.77 0.8
2 -10 13 0.05 0.07
2 -10 14 14.2 0.34
2 -10 15 16.33 0.38
2 -10 16 0.6 0.08
2 -10 17 0.51 0.07
2 -10 18 4.62 0.16
2 -9 -11 35.93 0.69
2 -9 -10 7.39 0.2
2 -9 -9 0.24 0.06
2 -9 -8 6.25 0.18
2 -9 -7 32.84 0.48
2 -9 -6 19.68 0.31
2 -9 -5 18.75 0.3
2 -9 -4 3.3 0.08
2 -9 -3 46.61 0.51
2 -9 -2 5.91 0.11
2 -9 -1 0.51 0.04
2 -9 0 57.99 0.9
2 -9 1 45.01 0.72
2 -9 2 18.94 0.35
2 -9 3 6.24 0.16
2 -9 4 67.21 1.01
2 -9 5 111.89 1.64
2 -9 6 6.7 0.11
2 -9 7 3.21 0.08
2 -9 8 88.79 0.9
2 -9 9 18.83 0.24
2 -9 10 0.19 0.05
2 -9 11 14.91 0.22
2 -9 12 24.41 0.41
2 -9 13 18.73 0.42
2 -9 14 0.74 0.09
2 -9 15 4.62 0.17
2 -9 16 34.69 0.71
2 -9 17 0.96 0.09
2 -9 18 0.09 0.06
2 -9 19 9.44 0.26
2 -8 -13 9.71 0.24
2 -8 -12 1.5 0.09
2 -8 -11 2.16 0.1
2 -8 -10 14.46 0.32
2 -8 -9 0.01 0.06
2 -8 -8 0.01 0.06
2 -8 -7 7.61 0.17
2 -8 -6 10.93 0.16
2 -8 -5 0.25 0.04
2 -8 -4 3.37 0.08
2 -8 -3 0.63 0.04
2 -8 -2 72.94 0.75
2 -8 -1 9.1 0.13
2 -8 0 2.99 0.07
2 -8 1 6.86 0.17
2 -8 2 133.16 1.92
2 -8 3 16.26 0.2
2 -8 4 7.76 0.12
2 -8 5 50.05 0.53
2 -8 6 10.24 0.14
2 -8 7 18.12 0.22
2 -8 8 0.35 0.04
2 -8 9 30.22 0.34
2 -8 10 10.13 0.15
2 -8 11 14.97 0.19
2 -8 12 26.31 0.43
2 -8 13 95.38 1.36
2 -8 14 25.95 0.43
2 -8 15 8.85 0.24
2 -8 16 2.19 0.12
2 -8 17 29.13 0.61
2 -8 18 28.34 0.6
2 -8 19 2.19 0.12
2 -8 20 3.68 0.15
2 -7 -14 0.24 0.06
2 -7 -13 2.79 0.11
2 -7 -12 16.35 0.35
2 -7 -11 15.62 0.34
2 -7 -10 20.94 0.43
2 -7 -9 31.83 0.5
2 -7 -8 49.55 0.73
2 -7 -7 1.47 0.07
2 -7 -6 69.72 0.72
2 -7 -5 246.64 2.4
2 -7 -4 23.78 0.28
2 -7 -3 0.43 0.04
2 -7 -2 48.15 0.51
2 -7 -1 71.53 0.89
2 -7 0 0.62 0.04
2 -7 1 13.49 0.21
2 -7 2 2.53 0.11
2 -7 3 156.38 2.31
2 -7 4 54.94 0.87
2 -7 5 2.18 0.07
2 -7 6 203.19 1.98
2 -7 7 22.16 0.25
2 -7 8 35.42 0.38
2 -7 9 43.93 0.46
2 -7 10 136.29 1.35
2 -7 11 0.3 0.04
2 -7 12 6.04 0.15
2 -7 13 7.4 0.17
2 -7 14 30.6 0.49
2 -7 15 1.33 0.08
2 -7 16 2.69 0.13
2 -7 17 1.71 0.11
2 -7 18 7.97 0.24
2 -7 19 22.91 0.51
2 -7 20 0.8 0.09
2 -6 -14 0.84 0.07
2 -6 -13 0.11 0.05
2 -6 -12 7.43 0.2
2 -6 -11 8.63 0.18
2 -6 -10 13.88 0.25
2 -6 -9 0.68 0.06
2 -6 -8 20.78 0.34
2 -6 -7 26.19 0.41
2 -6 -6 76.18 0.9
2 -6 -5 5.77 0.12
2 -6 -4 171.36 2.58
2 -6 -3 62.44 0.73
2 -6 -2 30.32 0.35
2 -6 -1 30.81 0.35
2 -6 0 291.81 2.61
2 -6 1 40.33 0.43
2 -6 2 15.19 0.24
2 -6 3 88.87 1.03
2 -6 4 87.58 1.02
2 -6 5 141.26 1.59
2 -6 6 1.16 0.07
2 -6 7 66.41 0.8
2 -6 8 144.86 2.15
2 -6 9 57.08 0.69
2 -6 10 4.4 0.08
2 -6 11 188.29 1.85
2 -6 12 30.73 0.38
2 -6 13 51.45 0.76
2 -6 14 18.01 0.32
2 -6 15 37.76 0.6
2 -6 16 32.17 0.52
2 -6 17 2.88 0.09
2 -6 18 1.17 0.07
2 -6 19 34.6 0.5
2 -6 20 2.73 0.09
2 -6 21 6.43 0.14
2 -5 -13 0.58 0.05
2 -5 -12 1.98 0.08
2 -5 -11 16.09 0.28
2 -5 -10 16.9 0.29
2 -5 -9 0.19 0.05
2 -5 -8 9.24 0.18
2 -5 -7 120.65 1.65
2 -5 -6 34.59 0.48
2 -5 -5 24.28 0.29
2 -5 -4 110.82 1.04
2 -5 -3 27.53 0.31
2 -5 -2 86.17 0.82
2 -5 -1 0.74 0.05
2 -5 0 67.43 0.65
2 -5 1 27.41 0.3
2 -5 2 2.13 0.07
2 -5 3 194.96 2.13
2 -5 4 67.08 0.79
2 -5 5 43.01 0.53
2 -5 6 85.66 0.99
2 -5 7 33.47 0.44
2 -5 8 22.23 0.32
2 -5 9 206.82 2.29
2 -5 10 44.92 0.73
2 -5 11 9.11 0.16
2 -5 12 18.27 0.22
2 -5 13 10.65 0.15
2 -5 14 47.54 0.5
2 -5 15 6.1 0.11
2 -5 16 1.04 0.05
2 -5 17 0.09 0.05
2 -5 18 69.41 0.94
2 -5 19 1.33 0.07
2 -5 20 10.73 0.2
2 -5 21 11.48 0.29
2 -5 22 8.55 0.23
2 -4 -12 17.64 0.3
2 -4 -11 0.35 0.06
2 -4 -10 163.83 2.21
2 -4 -9 23 0.36
2 -4 -8 0.75 0.08
2 -4 -7 3.2 0.1
2 -4 -6 24.7 0.35
2 -4 -5 287.29 2.56
2 -4 -4 61.4 0.6
2 -4 -3 14.24 0.18
2 -4 -2 201.77 1.81
2 -4 -1 408.04 3.59
2 -4 0 234.79 2.09
2 -4 1 861.27 8.36
2 -4 2 158.01 1.57
2 -4 3 88.06 0.99
2 -4 4 2.15 0.19
2 -4 5 88.61 1.01
2 -4 6 239.69 2.6
2 -4 7 0.04 0.04
2 -4 8 58.95 0.61
2 -4 9 23.72 0.27
2 -4 10 107.35 1
2 -4 11 240.18 2.51
2 -4 12 41.96 0.4
2 -4 13 14.13 0.18
2 -4 14 103.82 1.02
2 -4 15 29.58 0.33
2 -4 16 33.73 0.38
2 -4 17 44.29 0.53
2 -4 18 5.31 0.17
2 -4 19 13.09 0.32
2 -4 20 4.52 0.16
2 -4 21 0.05 0.06
2 -4 22 1.81 0.09
2 -3 -12 17.05 0.24
2 -3 -11 23.65 0.26
2 -3 -10 36.82 0.62
2 -3 -9 119.14 1.38
2 -3 -8 23.96 0.35
2 -3 -7 90.97 1.05
2 -3 -6 7.78 0.15
2 -3 -5 4.91 0.11
2 -3 -4 242.04 2.39
2 -3 -3 61.49 0.59
2 -3 -2 10.71 0.16
2 -3 -1 45.15 0.56
2 -3 0 215.25 2.4
2 -3 1 558.53 6.14
2 -3 2 56.06 0.59
2 -3 3 43.05 0.42
2 -3 4 475.5 4.6
2 -3 5 120.05 1.2
2 -3 6 27.46 0.33
2 -3 7 149.44 1.33
2 -3 8 225.91 1.98
2 -3 9 31.8 0.34
2 -3 10 15.67 0.2
2 -3 11 92.77 0.88
2 -3 12 151.8 1.8
2 -3 13 8.27 0.11
2 -3 14 15.88 0.2
2 -3 15 54.29 0.79
2 -3 16 82.72 1.17
2 -3 17 2.29 0.09
2 -3 18 2.25 0.11
2 -3 19 41.5 0.84
2 -3 20 10.55 0.28
2 -3 21 0.17 0.06
2 -3 22 3.95 0.14
2 -2 -15 28.55 0.57
2 -2 -14 46.59 0.69
2 -2 -13 0.03 0.06
2 -2 -12 52.4 0.64
2 -2 -11 71.15 1.1
2 -2 -10 122.65 1.42
2 -2 -9 95.53 1.11
2 -2 -8 71.36 0.85
2 -2 -7 38.8 0.5
2 -2 -6 35.77 0.46
2 -2 -5 4.13 0.09
2 -2 -4 188.82 2.06
2 -2 -3 0.81 0.04
2 -2 -2 316.33 4.17
2 -2 -1 32.46 0.51
2 -2 0 71.44 0.86
2 -2 1 1053.22 11.92
2 -2 2 67.91 0.82
2 -2 3 14.17 0.22
2 -2 4 193.39 2.17
2 -2 5 160.41 1.59
2 -2 6 2.28 0.06
2 -2 7 185.95 1.64
2 -2 8 65.94 0.62
2 -2 9 195.84 1.73
2 -2 10 9.39 0.14
2 -2 11 0.9 0.05
2 -2 12 27.19 0.36
2 -2 13 35.02 0.45
2 -2 14 78.96 1.11
2 -2 15 15.3 0.27
2 -2 16 53.5 0.79
2 -2 17 17.59 0.31
2 -2 18 6.07 0.19
2 -2 19 4.78 0.16
2 -2 20 23.86 0.52
2 -2 21 0.17 0.06
2 -2 22 0.28 0.06
2 -1 -18 5.37 0.17
2 -1 -16 0.13 0.06
2 -1 -15 13.7 0.25
2 -1 -14 26.5 0.42
2 -1 -13 37.31 0.56
2 -1 -12 32.81 0.78
2 -1 -11 7.47 0.16
2 -1 -10 50.35 0.64
2 -1 -9 758.56 8.13
2 -1 -8 8.55 0.16
2 -1 -7 62.99 0.75
2 -1 -6 285.29 2.79
2 -1 -5 442.12 4.28
2 -1 -4 2.96 0.09
2 -1 -3 635.29 7.18
2 -1 -2 41.03 0.52
2 -1 -1 208.83 2.38
2 -1 0 223.3 2.54
2 -1 1 30.41 0.39
2 -1 2 1317.53 14.89
2 -1 3 170 1.96
2 -1 4 43.01 0.66
2 -1 5 121.75 1.2
2 -1 6 1372.75 13.09
2 -1 7 20.52 0.26
2 -1 8 136.55 1.22
2 -1 9 113.53 1.27
2 -1 10 154.58 1.71
2 -1 11 11.9 0.22
2 -1 12 72.85 0.86
2 -1 13 11.55 0.15
2 -1 14 28.58 0.45
2 -1 15 10.51 0.21
2 -1 16 4.27 0.12
2 -1 17 102.46 1.44
2 -1 18 7.89 0.22
2 -1 19 1.9 0.1
2 -1 20 3.5 0.13
2 -1 21 25.45 0.55
2 0 -20 4.44 0.16
2 0 -19 8.55 0.23
2 0 -18 3.09 0.13
2 0 -17 19.12 0.33
2 0 -16 9.19 0.19
2 0 -15 0.71 0.06
2 0 -14 6.44 0.15
2 0 -13 13.04 0.23
2 0 -12 63.88 1.41
2 0 -11 18.9 0.41
2 0 -10 12.41 0.19
2 0 -9 41.96 0.48
2 0 -8 106.49 0.96
2 0 -7 27.17 0.28
2 0 -6 21.61 0.26
2 0 -5 1.54 0.09
2 0 -4 695.34 7.89
2 0 -3 11.12 0.22
2 0 -2 15.66 0.23
2 0 -1 548.25 6.16
2 0 0 1.58 0.08
2 0 1 295.85 3.88
2 0 2 141.15 1.64
2 0 3 90.11 1.07
2 0 4 256.34 2.92
2 0 5 6.25 0.1
2 0 6 4.46 0.09
2 0 7 472.35 5.03
2 0 8 24.45 0.33
2 0 9 62.47 0.74
2 0 10 69.01 0.97
2 0 11 103.48 2.07
2 0 12 56.3 0.58
2 0 13 0.9 0.04
2 0 14 12.35 0.18
2 0 15 83.64 1.18
2 0 16 8.21 0.18
2 0 17 4.66 0.16
2 0 18 28.71 0.61
2 0 19 14.65 0.35
2 0 20 10.79 0.28
2 0 21 0.39 0.06
2 1 -21 0.07 0.06
2 1 -20 0.21 0.07
2 1 -19 74.03 1.4
2 1 -18 3.04 0.11
2 1 -17 2.02 0.06
2 1 -16 23.1 0.3
2 1 -15 53.2 0.55
2 1 -14 13.13 0.17
2 1 -13 23.36 0.31
2 1 -12 8.3 0.18
2 1 -11 119.46 1.33
2 1 -10 36.67 0.43
2 1 -9 3.98 0.08
2 1 -8 362.77 3.14
2 1 -7 202.4 1.77
2 1 -6 28.44 0.32
2 1 -5 38.53 0.6
2 1 -4 1189.97 15.51
2 1 -3 242.76 2.76
2 1 -2 366.01 5.92
2 1 -1 28.63 0.44
2 1 0 290.2 3.28
2 1 1 157.81 2.12
2 1 2 63.51 0.77
2 1 3 0.55 0.07
2 1 4 112.87 1.12
2 1 5 131.83 1.32
2 1 6 89.02 1.01
2 1 7 234.2 2.52
2 1 8 120.93 1.36
2 1 9 30.13 0.41
2 1 10 0.2 0.04
2 1 11 79.12 1.18
2 1 12 104.16 1.04
2 1 13 45.47 0.49
2 1 14 12.23 0.17
2 1 15 3.62 0.11
2 1 16 4.23 0.12
2 1 17 9.71 0.26
2 1 18 0.1 0.06
2 1 19 1.71 0.1
2 2 -22 1.84 0.11
2 2 -21 2.85 0.09
2 2 -20 11.26 0.2
2 2 -19 8.85 0.17
2 2 -18 36.29 0.4
2 2 -17 24.86 0.29
2 2 -16 0.28 0.04
2 2 -15 1.39 0.05
2 2 -14 162.68 1.57
2 2 -13 23.55 0.31
2 2 -12 4.92 0.14
2 2 -11 69.07 0.81
2 2 -10 0.17 0.05
2 2 -9 118.92 1.08
2 2 -8 15.6 0.19
2 2 -7 30.95 0.32
2 2 -6 131.56 1.16
2 2 -5 126.03 1.41
2 2 -4 983.15 12.82
2 2 -3 1215.96 13.78
2 2 -2 554.7 6.26
2 2 -1 192.33 2.21
2 2 0 11.88 0.24
2 2 1 340.4 5.48
2 2 2 840.79 9.15
2 2 3 31.44 0.33
2 2 4 13.21 0.16
2 2 5 122.9 1.2
2 2 6 67 0.78
2 2 7 218.54 2.37
2 2 8 82.53 0.96
2 2 9 77.91 0.92
2 2 10 112.53 1.65
2 2 11 86.05 0.87
2 2 12 67.97 0.7
2 2 13 209.71 2.05
2 2 14 3.34 0.07
2 2 15 0.19 0.04
2 2 16 29.98 0.63
2 3 -23 0.01 0.06
2 3 -22 1.8 0.07
2 3 -21 24.89 0.38
2 3 -20 1.47 0.07
2 3 -19 0.43 0.05
2 3 -18 1.72 0.06
2 3 -17 27.26 0.31
2 3 -16 4.3 0.09
2 3 -15 0.23 0.04
2 3 -14 1.2 0.05
2 3 -13 80.33 0.79
2 3 -12 21.86 0.39
2 3 -11 0.32 0.06
2 3 -10 89.07 1.01
2 3 -9 48.99 0.54
2 3 -8 22.82 0.25
2 3 -7 0.62 0.04
2 3 -6 173.02 1.53
2 3 -5 14.67 0.19
2 3 -4 18.54 0.23
2 3 -3 8 0.11
2 3 -2 112.11 1.11
2 3 -1 90.29 0.91
2 3 0 18.16 0.23
2 3 1 20.11 0.22
2 3 2 173.73 1.55
2 3 3 33.65 0.35
2 3 4 108.86 1
2 3 5 16.7 0.2
2 3 6 18.98 0.24
2 3 7 82.49 0.96
2 3 8 24.34 0.38
2 3 9 0.1 0.04
2 3 10 49.28 0.61
2 3 11 13.36 0.21
2 3 12 60.33 0.91
2 3 13 22 0.38
2 3 14 1.29 0.07
2 3 15 34.78 0.73
2 4 -23 2.73 0.09
2 4 -22 1.12 0.06
2 4 -21 0.39 0.05
2 4 -20 1.31 0.07
2 4 -19 9.88 0.18
2 4 -18 11.56 0.17
2 4 -17 0.4 0.04
2 4 -16 36.99 0.4
2 4 -15 23.14 0.27
2 4 -14 98.61 0.97
2 4 -13 60.6 0.61
2 4 -12 131.18 1.89
2 4 -11 59.74 0.8
2 4 -10 1.1 0.07
2 4 -9 40.79 0.51
2 4 -8 272.13 2.38
2 4 -7 3.87 0.08
2 4 -6 15.32 0.21
2 4 -5 56.88 0.66
2 4 -4 54.46 0.64
2 4 -3 511.49 4.92
2 4 -2 7.85 0.11
2 4 -1 117.06 1.06
2 4 0 256.27 2.26
2 4 1 213.65 1.89
2 4 2 12.1 0.16
2 4 3 540.65 4.72
2 4 4 14.29 0.22
2 4 5 17.98 0.26
2 4 6 21.63 0.3
2 4 7 56.44 1.29
2 4 8 29.23 0.47
2 4 9 0.62 0.06
2 4 10 0.69 0.06
2 4 11 7.62 0.17
2 4 12 78.87 1.18
2 4 13 8.11 0.19
2 4 14 30.02 0.65
2 4 15 4.88 0.17
2 5 -22 8.33 0.17
2 5 -21 0.31 0.05
2 5 -20 8.37 0.17
2 5 -19 0.88 0.06
2 5 -18 1.57 0.07
2 5 -17 2.17 0.07
2 5 -16 9.29 0.14
2 5 -15 0.49 0.04
2 5 -14 0.98 0.05
2 5 -13 111.71 1.09
2 5 -12 0.33 0.04
2 5 -11 54.1 0.83
2 5 -10 31.74 0.46
2 5 -9 106.74 1.34
2 5 -8 9.82 0.18
2 5 -7 164.38 1.8
2 5 -6 95.52 1.07
2 5 -5 13.54 0.21
2 5 -4 0.45 0.05
2 5 -3 16.4 0.24
2 5 -2 123.13 1.12
2 5 -1 21.15 0.36
2 5 0 12.85 0.17
2 5 1 0.18 0.04
2 5 2 485.07 5.3
2 5 3 28.74 0.41
2 5 4 65.86 0.82
2 5 5 146.7 2.22
2 5 6 64.41 0.8
2 5 7 10.02 0.14
2 5 8 110.67 1.62
2 5 9 41.18 0.65
2 5 10 10.76 0.23
2 5 11 4.72 0.13
2 5 12 2.27 0.09
2 5 13 67.51 1.36
2 5 14 6.55 0.2
2 5 15 0.18 0.06
2 6 -22 1.53 0.07
2 6 -21 13.12 0.23
2 6 -20 4.41 0.12
2 6 -19 0.67 0.06
2 6 -18 15.78 0.26
2 6 -17 9.72 0.15
2 6 -16 23.82 0.28
2 6 -15 33.47 0.37
2 6 -14 12.46 0.17
2 6 -13 18.87 0.23
2 6 -12 9.29 0.13
2 6 -11 9.22 0.18
2 6 -10 55.52 0.79
2 6 -9 14.53 0.39
2 6 -8 25.98 0.5
2 6 -7 38.55 0.49
2 6 -6 31.04 0.41
2 6 -5 113.95 1.28
2 6 -4 1.28 0.07
2 6 -3 16.13 0.25
2 6 -2 52.04 0.66
2 6 -1 55.28 0.7
2 6 0 0.66 0.12
2 6 1 31.62 0.49
2 6 2 12.68 0.28
2 6 3 63.32 0.65
2 6 4 1.86 0.05
2 6 5 6.01 0.1
2 6 6 20.49 0.24
2 6 7 22.89 0.27
2 6 8 0.8 0.07
2 6 9 1.36 0.08
2 6 10 10.45 0.23
2 6 11 6.93 0.21
2 6 12 0.32 0.06
2 6 13 0.34 0.06
2 6 14 6.37 0.2
2 6 15 3.97 0.15
2 7 -22 2.37 0.08
2 7 -21 1.63 0.07
2 7 -20 3.56 0.1
2 7 -19 13.83 0.24
2 7 -18 0.44 0.06
2 7 -17 10.34 0.19
2 7 -16 10.26 0.15
2 7 -15 3.85 0.08
2 7 -14 0.58 0.06
2 7 -13 0.09 0.05
2 7 -12 32.35 0.5
2 7 -11 43.89 0.64
2 7 -10 0.24 0.05
2 7 -9 0.58 0.06
2 7 -8 193.4 3.75
2 7 -7 75.72 1.69
2 7 -6 20.16 0.54
2 7 -5 74.88 1.67
2 7 -4 69.11 1.56
2 7 -3 34.02 0.5
2 7 -2 47.98 0.58
2 7 -1 37.21 0.64
2 7 0 42.69 0.45
2 7 1 0.94 0.04
2 7 2 15.99 0.2
2 7 3 99.4 0.99
2 7 4 75.8 0.77
2 7 5 5.2 0.1
2 7 6 4.19 0.09
2 7 7 57.95 0.61
2 7 8 108.11 1.22
2 7 9 24.71 0.55
2 7 10 15.03 0.37
2 7 11 18.04 0.43
2 7 12 0.72 0.08
2 7 13 0.07 0.06
2 7 14 10.61 0.28
2 8 -21 0.75 0.06
2 8 -20 2.35 0.08
2 8 -19 0.21 0.05
2 8 -18 12.51 0.22
2 8 -17 2.52 0.12
2 8 -16 5.76 0.18
2 8 -15 36.54 0.74
2 8 -14 0.02 0.05
2 8 -13 1.56 0.07
2 8 -6 43.93 0.64
2 8 -5 1.1 0.06
2 8 -4 4.36 0.11
2 8 -3 40.69 0.6
2 8 -2 57.64 0.7
2 8 -1 0.97 0.05
2 8 0 59.26 0.76
2 8 1 15.87 0.2
2 8 2 0.32 0.04
2 8 3 7.81 0.13
2 8 4 11.51 0.17
2 8 5 17.07 0.22
2 8 6 0.28 0.04
2 8 7 25.15 0.38
2 8 8 6.83 0.14
2 8 9 45.31 0.94
2 8 10 7.87 0.24
2 8 11 0.9 0.09
2 8 12 7.92 0.23
2 9 -20 0.2 0.06
2 9 -19 1.06 0.08
2 9 -18 4.08 0.15
2 9 -17 7.55 0.21
2 9 -6 32.24 0.49
2 9 -5 14.15 0.25
2 9 -4 4.06 0.11
2 9 -3 8.89 0.18
2 9 -2 48.79 0.71
2 9 -1 0.49 0.04
2 9 0 0.08 0.04
2 9 1 30.62 0.44
2 9 2 10.48 0.2
2 9 3 2.13 0.11
2 9 4 1.58 0.07
2 9 5 8.37 0.25
2 9 6 11.05 0.2
2 9 7 0.2 0.05
2 9 8 0.62 0.05
2 9 9 15.44 0.38
2 9 10 0.57 0.08
2 10 -5 17.86 0.31
2 10 -4 7.72 0.17
2 10 -3 30.43 0.59
2 10 -2 0.22 0.07
2 10 -1 76.46 1.02
2 10 0 22.65 0.35
2 10 1 0.02 0.05
2 10 2 9.7 0.18
2 10 3 30.95 0.45
2 10 4 5.3 0.13
2 10 5 1.29 0.07
2 10 6 8.58 0.17
2 10 7 0.06 0.04
2 10 8 13.25 0.34
2 11 -5 3.59 0.13
2 11 -4 11.27 0.27
2 11 -3 7.17 0.2
2 11 -2 5.12 0.16
2 11 -1 1.35 0.07
2 11 0 3.38 0.1
2 11 1 6.84 0.14
2 11 2 1.37 0.07
2 11 3 0.31 0.05
2 11 4 8.66 0.17
2 11 5 7.94 0.16
2 12 -4 2.95 0.12
2 12 -3 9.25 0.23
2 12 -2 4.43 0.15
2 12 -1 1.86 0.1
2 12 0 2.95 0.09
3 -12 -1 2.51 0.12
3 -12 0 1.35 0.1
3 -12 1 3.61 0.15
3 -12 2 0.06 0.06
3 -12 3 0.78 0.09
3 -12 4 0.04 0.07
3 -12 5 33.95 0.73
3 -12 6 0.24 0.07
3 -12 7 4.27 0.16
3 -12 8 11.75 0.31
3 -12 9 0.19 0.06
3 -12 10 1.9 0.1
3 -12 11 6.73 0.2
3 -11 -5 11.52 0.27
3 -11 -4 0.57 0.05
3 -11 -3 13.31 0.35
3 -11 -2 34.75 0.76
3 -11 -1 0.31 0.07
3 -11 0 0.5 0.08
3 -11 1 29.06 0.64
3 -11 2 20.23 0.48
3 -11 3 0.76 0.08
3 -11 4 0.71 0.08
3 -11 5 17.03 0.41
3 -11 6 18.28 0.43
3 -11 7 2.4 0.12
3 -11 8 2.08 0.08
3 -11 9 26.06 0.4
3 -11 10 8.93 0.17
3 -11 11 1.15 0.07
3 -11 12 5.07 0.12
3 -11 13 19.43 0.43
3 -11 14 0.95 0.08
3 -10 -8 1.89 0.1
3 -10 -7 1.64 0.09
3 -10 -6 0.76 0.08
3 -10 -5 30.29 0.59
3 -10 -4 2.79 0.09
3 -10 -3 0.2 0.05
3 -10 -2 9.57 0.27
3 -10 -1 1.39 0.1
3 -10 0 14.53 0.37
3 -10 1 0.01 0.06
3 -10 2 1.64 0.11
3 -10 3 2.59 0.13
3 -10 4 15.27 0.38
3 -10 5 43 0.61
3 -10 6 46.05 0.65
3 -10 7 15.18 0.26
3 -10 8 27.45 0.41
3 -10 9 0.71 0.06
3 -10 10 27.51 0.42
3 -10 11 43.76 0.63
3 -10 12 0.17 0.05
3 -10 13 0.47 0.05
3 -10 14 4.17 0.15
3 -10 15 4.89 0.17
3 -10 16 13.35 0.33
3 -10 17 4.32 0.15
3 -9 -11 1.4 0.09
3 -9 -10 1.1 0.08
3 -9 -9 6.16 0.18
3 -9 -8 16.71 0.36
3 -9 -7 0.1 0.06
3 -9 -6 0.13 0.06
3 -9 -5 3.75 0.14
3 -9 -4 41.82 0.59
3 -9 -3 31.96 0.37
3 -9 -2 0.2 0.04
3 -9 -1 34.27 0.58
3 -9 0 27.72 0.48
3 -9 1 38.08 0.62
3 -9 2 10.13 0.17
3 -9 3 100.06 1.01
3 -9 4 0.66 0.05
3 -9 5 0.57 0.04
3 -9 6 3.1 0.08
3 -9 7 21.73 0.27
3 -9 8 3.13 0.08
3 -9 9 2.76 0.07
3 -9 10 16.54 0.22
3 -9 11 16.03 0.27
3 -9 12 35.32 0.51
3 -9 13 8.88 0.17
3 -9 14 14.92 0.35
3 -9 15 1.51 0.1
3 -9 16 11.34 0.29
3 -9 17 0.19 0.07
3 -9 18 6.03 0.19
3 -8 -13 20.97 0.43
3 -8 -12 0.04 0.06
3 -8 -11 5.8 0.17
3 -8 -10 9.54 0.24
3 -8 -9 13.35 0.31
3 -8 -8 0.33 0.07
3 -8 -7 48.09 0.89
3 -8 -6 4.82 0.13
3 -8 -5 24.54 0.4
3 -8 -4 5.77 0.1
3 -8 -3 12.34 0.17
3 -8 -2 75.21 0.77
3 -8 -1 8.76 0.15
3 -8 0 2.85 0.07
3 -8 1 61.79 0.64
3 -8 2 66.96 0.69
3 -8 3 32.25 0.36
3 -8 4 80.4 0.82
3 -8 5 27.76 0.32
3 -8 6 101.23 1.02
3 -8 7 0.34 0.05
3 -8 8 27.53 0.32
3 -8 9 56.12 0.59
3 -8 10 27.25 0.32
3 -8 11 0.36 0.04
3 -8 12 38.42 0.48
3 -8 13 19.35 0.31
3 -8 14 31.32 0.46
3 -8 15 7.3 0.22
3 -8 16 10.57 0.28
3 -8 17 20.82 0.46
3 -8 18 2.54 0.12
3 -8 19 3.02 0.13
3 -7 -14 8.79 0.22
3 -7 -13 5.16 0.16
3 -7 -12 4.37 0.14
3 -7 -11 7.61 0.2
3 -7 -10 6.36 0.18
3 -7 -9 11.01 0.26
3 -7 -8 0.43 0.06
3 -7 -7 18.7 0.32
3 -7 -6 0.23 0.06
3 -7 -5 0.25 0.05
3 -7 -4 45.55 0.57
3 -7 -3 3.97 0.06
3 -7 -2 7.52 0.09
3 -7 -1 21.61 0.2
3 -7 0 86.45 0.87
3 -7 1 9.13 0.13
3 -7 2 82.15 0.83
3 -7 3 59.11 0.61
3 -7 5 0.91 0.07
3 -7 6 27.16 0.31
3 -7 7 35.69 0.39
3 -7 8 0.39 0.05
3 -7 9 0.11 0.04
3 -7 10 2.51 0.07
3 -7 11 166.01 1.64
3 -7 12 4.16 0.09
3 -7 13 2.1 0.07
3 -7 14 29.47 0.38
3 -7 15 40.14 0.8
3 -7 16 9.1 0.25
3 -7 17 35.36 0.72
3 -7 18 12.06 0.31
3 -7 19 2.28 0.12
3 -7 20 0.47 0.08
3 -6 -15 1.75 0.09
3 -6 -14 3.54 0.13
3 -6 -13 0.06 0.06
3 -6 -12 42.95 0.8
3 -6 -11 15.96 0.35
3 -6 -10 6.06 0.15
3 -6 -9 17.33 0.31
3 -6 -8 110.1 1.52
3 -6 -7 115.61 1.59
3 -6 -6 133.81 1.29
3 -6 -5 23.32 0.32
3 -6 -4 67.82 0.67
3 -6 -3 17.53 0.19
3 -6 -2 37.5 0.52
3 -6 -1 78.37 0.99
3 -6 0 0.3 0.07
3 -6 1 110.71 1.67
3 -6 2 0.94 0.08
3 -6 3 91.45 1.39
3 -6 4 260.38 3.77
3 -6 5 0.35 0.07
3 -6 6 2.53 0.09
3 -6 7 182.19 1.79
3 -6 8 129.29 1.28
3 -6 9 34.48 0.38
3 -6 10 53.2 0.56
3 -6 11 0.34 0.05
3 -6 12 44.89 0.48
3 -6 13 3.36 0.08
3 -6 14 3.2 0.08
3 -6 15 2.79 0.11
3 -6 16 15.05 0.36
3 -6 17 8.42 0.24
3 -6 18 5.84 0.19
3 -6 19 28.78 0.61
3 -5 -15 0.35 0.06
3 -5 -14 6.41 0.18
3 -5 -13 0.77 0.07
3 -5 -12 0.05 0.05
3 -5 -11 10.86 0.21
3 -5 -10 17.63 0.23
3 -5 -9 1.77 0.06
3 -5 -8 2.98 0.07
3 -5 -7 48.13 0.49
3 -5 -6 102.56 0.99
3 -5 -5 0.84 0.08
3 -5 -4 5.52 0.16
3 -5 -3 100.85 0.96
3 -5 -2 173.54 1.59
3 -5 -1 2.62 0.08
3 -5 0 13.2 0.18
3 -5 1 217.92 2.39
3 -5 2 51.72 0.64
3 -5 3 13.04 0.22
3 -5 4 75.77 0.89
3 -5 5 156.78 1.75
3 -5 6 82.07 0.96
3 -5 7 2.14 0.1
3 -5 8 37.56 0.63
3 -5 9 269.45 2.61
3 -5 10 2.56 0.07
3 -5 11 2.85 0.07
3 -5 12 114.78 1.15
3 -5 13 54.77 0.58
3 -5 14 12.98 0.18
3 -5 15 5.86 0.12
3 -5 16 28.09 0.59
3 -5 17 59.6 1.17
3 -5 18 0.87 0.08
3 -5 19 0.01 0.06
3 -5 20 36.68 0.75
3 -5 21 2.79 0.12
3 -4 -14 7.6 0.2
3 -4 -13 9.47 0.2
3 -4 -12 0.25 0.05
3 -4 -11 16.05 0.2
3 -4 -10 0.17 0.04
3 -4 -9 98.38 0.96
3 -4 -8 1.02 0.05
3 -4 -7 9.73 0.23
3 -4 -6 205.4 2.57
3 -4 -5 8.63 0.18
3 -4 -4 2.52 0.09
3 -4 -3 91.91 0.87
3 -4 -2 140.98 1.29
3 -4 -1 0.82 0.05
3 -4 0 60.39 0.66
3 -4 1 40.9 0.51
3 -4 2 192.18 2.1
3 -4 3 20.54 0.29
3 -4 4 5.09 0.12
3 -4 5 7.68 0.15
3 -4 6 110.21 1.25
3 -4 7 167.6 1.87
3 -4 8 3.89 0.11
3 -4 9 126.1 1.88
3 -4 10 39.12 0.5
3 -4 11 1.2 0.04
3 -4 12 4.14 0.07
3 -4 13 58.64 0.5
3 -4 14 3.52 0.08
3 -4 15 1.17 0.06
3 -4 16 46.43 0.7
3 -4 17 7.78 0.22
3 -4 18 29.99 0.63
3 -4 19 7.99 0.23
3 -4 20 0.56 0.07
3 -4 21 4.04 0.14
3 -3 -16 82.21 1.53
3 -3 -15 1.52 0.09
3 -3 -14 0.47 0.04
3 -3 -13 15.99 0.2
3 -3 -12 127.85 1.23
3 -3 -11 0.15 0.04
3 -3 -10 19.7 0.23
3 -3 -9 8.65 0.12
3 -3 -8 36.06 0.5
3 -3 -7 99.32 1.41
3 -3 -6 5.27 0.13
3 -3 -5 133.4 1.52
3 -3 -4 181.01 2
3 -3 -3 99.53 1.03
3 -3 -2 1.05 0.06
3 -3 -1 1205.72 10.58
3 -3 0 55.42 0.54
3 -3 1 0.69 0.05
3 -3 2 109.31 1.22
3 -3 3 243.49 2.63
3 -3 4 144.84 1.61
3 -3 5 62.97 0.74
3 -3 6 1.35 0.06
3 -3 7 134.38 1.21
3 -3 8 83 0.78
3 -3 9 52.74 0.53
3 -3 10 248.08 2.58
3 -3 11 47.01 0.49
3 -3 12 72.03 0.73
3 -3 13 1.28 0.05
3 -3 14 131.48 1.31
3 -3 15 56.54 0.6
3 -3 16 19.73 0.34
3 -3 17 1.65 0.1
3 -3 18 28.77 0.61
3 -3 19 0.67 0.08
3 -3 20 0.84 0.08
3 -3 21 0.87 0.08
3 -2 -18 5.17 0.17
3 -2 -17 7.92 0.22
3 -2 -16 3.48 0.13
3 -2 -15 11.4 0.22
3 -2 -14 2.71 0.1
3 -2 -13 0.11 0.04
3 -2 -12 0.2 0.04
3 -2 -11 98.82 0.96
3 -2 -10 0.27 0.05
3 -2 -9 4.19 0.13
3 -2 -8 64.31 0.79
3 -2 -7 18.02 0.35
3 -2 -6 72.74 0.86
3 -2 -5 1.37 0.06
3 -2 -4 43.31 0.54
3 -2 -3 98.45 1.12
3 -2 -2 57.16 0.68
3 -2 -1 38.42 0.43
3 -2 0 287.29 2.81
3 -2 1 56.87 0.55
3 -2 2 174.72 1.59
3 -2 3 5.42 0.1
3 -2 4 188.19 1.86
3 -2 5 136.62 1.21
3 -2 6 77.75 0.72
3 -2 7 17.64 0.24
3 -2 8 138.37 1.54
3 -2 9 108.24 1.23
3 -2 10 38.16 0.62
3 -2 11 26.65 0.3
3 -2 12 95.38 0.96
3 -2 13 49.61 0.53
3 -2 14 13.92 0.18
3 -2 15 48.28 0.58
3 -2 16 13.51 0.26
3 -2 17 42.95 0.87
3 -2 18 0.06 0.06
3 -2 19 11.57 0.29
3 -2 20 12.18 0.3
3 -2 21 6.58 0.19
3 -1 -20 0.13 0.06
3 -1 -19 0.12 0.06
3 -1 -18 9 0.24
3 -1 -17 16.11 0.36
3 -1 -16 4.34 0.13
3 -1 -15 18.56 0.32
3 -1 -14 59.38 0.86
3 -1 -13 22.93 0.32
3 -1 -12 4.93 0.09
3 -1 -11 214.5 2.43
3 -1 -10 56.37 0.78
3 -1 -9 0.29 0.05
3 -1 -8 3.2 0.1
3 -1 -7 80.6 0.95
3 -1 -6 126.93 1.43
3 -1 -5 11.7 0.19
3 -1 -4 32.13 0.41
3 -1 -3 160.52 1.59
3 -1 -2 143.87 1.32
3 -1 -1 322.13 3.12
3 -1 0 357.32 4.05
3 -1 1 153.21 1.79
3 -1 2 200.47 2.02
3 -1 3 12.55 0.21
3 -1 4 133.15 1.32
3 -1 5 324.52 3.11
3 -1 6 70.51 0.82
3 -1 7 88.71 1.01
3 -1 8 23.67 0.33
3 -1 9 22.49 0.33
3 -1 10 36.97 0.6
3 -1 11 6.65 0.1
3 -1 12 8.28 0.12
3 -1 13 92.27 0.93
3 -1 14 57.85 0.61
3 -1 15 0.02 0.05
3 -1 16 40.67 0.5
3 -1 17 0.17 0.06
3 -1 18 27.48 0.59
3 -1 19 4.15 0.15
3 -1 20 4.14 0.15
3 0 -21 21.8 0.47
3 0 -20 1.68 0.1
3 0 -19 0.13 0.07
3 0 -18 2.36 0.12
3 0 -17 0.87 0.07
3 0 -16 16.61 0.3
3 0 -15 4.88 0.13
3 0 -14 0.05 0.06
3 0 -13 2.4 0.09
3 0 -12 48.59 0.6
3 0 -11 219.93 2.76
3 0 -10 127.56 1.48
3 0 -9 121.03 1.4
3 0 -8 107.43 1.12
3 0 -7 33.21 0.34
3 0 -6 157.16 1.4
3 0 -5 396.46 3.43
3 0 -4 2.95 0.07
3 0 -3 1.36 0.07
3 0 -2 4.83 0.1
3 0 0 510.45 5.74
3 0 1 3.46 0.09
3 0 2 56.81 0.54
3 0 3 278.02 2.68
3 0 4 692.74 7.31
3 0 5 106.9 1.19
3 0 6 381.54 4.05
3 0 7 125.17 1.41
3 0 8 36.23 0.47
3 0 9 33.48 0.56
3 0 10 188.06 1.84
3 0 11 14.68 0.19
3 0 12 5.57 0.1
3 0 13 5.14 0.09
3 0 14 7.77 0.12
3 0 15 119.12 1.35
3 0 16 0.29 0.05
3 0 17 5.17 0.17
3 0 18 21.35 0.48
3 0 19 24.21 0.53
3 0 20 0.04 0.06
3 1 -22 0.74 0.08
3 1 -21 0.08 0.07
3 1 -20 9.46 0.25
3 1 -19 6.69 0.2
3 1 -18 0.01 0.07
3 1 -17 5.02 0.14
3 1 -16 13.41 0.26
3 1 -15 4.69 0.13
3 1 -14 5.84 0.14
3 1 -13 47.26 0.57
3 1 -12 1.19 0.06
3 1 -11 29.03 0.35
3 1 -10 8.04 0.13
3 1 -9 18.48 0.21
3 1 -8 59.32 0.58
3 1 -7 9.16 0.13
3 1 -6 71.52 0.67
3 1 -5 119.75 1.07
3 1 -4 9.17 0.14
3 1 -3 191.44 1.85
3 1 -2 16.42 0.22
3 1 -1 0.18 0.03
3 1 0 190.74 1.86
3 1 1 56.45 0.59
3 1 2 21.63 0.26
3 1 3 70.22 0.71
3 1 4 34.17 0.43
3 1 5 256.6 2.75
3 1 6 18.9 0.28
3 1 7 1.01 0.06
3 1 8 139.29 1.57
3 1 9 39.57 0.64
3 1 10 0.24 0.04
3 1 11 15.9 0.2
3 1 12 36.28 0.4
3 1 13 60.06 0.63
3 1 14 2.19 0.06
3 1 15 4.07 0.09
3 1 16 51.17 0.73
3 1 17 5.91 0.13
3 1 18 0.12 0.06
3 1 19 12.74 0.31
3 2 -22 1.96 0.11
3 2 -21 28.5 0.59
3 2 -20 2.59 0.12
3 2 -19 14.17 0.34
3 2 -18 12.91 0.22
3 2 -17 8.98 0.15
3 2 -16 3.66 0.08
3 2 -15 44.24 0.47
3 2 -14 4.22 0.08
3 2 -13 19.17 0.23
3 2 -12 0.45 0.05
3 2 -11 19.77 0.28
3 2 -10 206.55 1.84
3 2 -9 21.85 0.25
3 2 -8 21.96 0.25
3 2 -7 135.85 1.21
3 2 -6 479.51 4.13
3 2 -5 0.48 0.04
3 2 -4 425.12 4.07
3 2 -3 66.54 0.75
3 2 -2 93.49 1.04
3 2 -1 0.09 0.05
3 2 0 200.78 1.96
3 2 1 26.53 0.28
3 2 2 59.19 0.57
3 2 3 11.41 0.15
3 2 4 5.24 0.11
3 2 5 391.36 4.16
3 2 6 47.25 0.59
3 2 7 7.47 0.16
3 2 8 49.95 0.78
3 2 9 139.67 1.38
3 2 10 28.55 0.32
3 2 11 143.12 1.42
3 2 12 0.15 0.03
3 2 13 10.36 0.15
3 2 14 0.83 0.04
3 2 15 0.3 0.05
3 2 16 6.53 0.14
3 2 17 0.04 0.04
3 3 -22 2.9 0.13
3 3 -21 0.83 0.06
3 3 -20 18.46 0.3
3 3 -19 1.18 0.07
3 3 -18 3.84 0.1
3 3 -17 0.87 0.05
3 3 -16 57.47 0.59
3 3 -15 1.19 0.05
3 3 -14 33.54 0.36
3 3 -13 34.6 0.37
3 3 -12 2.93 0.07
3 3 -11 5.89 0.16
3 3 -10 7.32 0.13
3 3 -9 47.96 0.48
3 3 -8 22.09 0.25
3 3 -7 2.78 0.07
3 3 -6 44.98 0.55
3 3 -5 652.02 6.9
3 3 -4 82.59 0.94
3 3 -3 5.96 0.12
3 3 -2 140.59 1.54
3 3 -1 237.24 2.31
3 3 0 121.44 1.1
3 3 1 179.69 1.61
3 3 2 88.91 0.83
3 3 3 74.86 0.71
3 3 4 3.8 0.08
3 3 5 13.05 0.22
3 3 6 209.37 2.56
3 3 7 60.49 0.93
3 3 8 19.45 0.23
3 3 9 0.35 0.04
3 3 10 167.03 1.65
3 3 11 126.15 1.49
3 3 12 10.35 0.15
3 3 13 15.72 0.21
3 3 14 53.96 0.77
3 3 15 10.47 0.28
3 3 16 2.6 0.12
3 4 -22 4.15 0.11
3 4 -21 0.65 0.05
3 4 -20 3.9 0.11
3 4 -19 8.77 0.17
3 4 -18 1.52 0.07
3 4 -17 8.25 0.13
3 4 -16 8.46 0.13
3 4 -15 20.44 0.25
3 4 -14 2.83 0.07
3 4 -13 15.98 0.2
3 4 -12 55.39 0.56
3 4 -11 4.1 0.1
3 4 -10 4.73 0.12
3 4 -9 19.38 0.29
3 4 -8 99.4 1.13
3 4 -7 0.71 0.06
3 4 -6 5.44 0.12
3 4 -5 28.35 0.38
3 4 -4 104.02 1.17
3 4 -3 5.58 0.12
3 4 -2 13.34 0.21
3 4 -1 25.38 0.34
3 4 0 120.15 1.1
3 4 1 0.74 0.05
3 4 2 1.64 0.08
3 4 3 68.44 0.67
3 4 4 24.94 0.3
3 4 5 14.67 0.24
3 4 6 2.32 0.07
3 4 7 20.35 0.29
3 4 8 50.12 0.53
3 4 9 0.84 0.04
3 4 10 1.78 0.08
3 4 11 62.18 0.95
3 4 12 0.5 0.06
3 4 13 10.33 0.28
3 4 14 1.9 0.1
3 4 15 6.28 0.2
3 4 16 5.37 0.17
3 4 17 0.09 0.05
3 5 -22 0.4 0.05
3 5 -21 1.23 0.07
3 5 -20 0.49 0.05
3 5 -19 2.19 0.08
3 5 -18 15.4 0.26
3 5 -17 2.68 0.08
3 5 -16 9.11 0.14
3 5 -15 77.57 0.78
3 5 -14 50.42 0.52
3 5 -13 0.12 0.04
3 5 -12 18.28 0.31
3 5 -11 61.41 0.87
3 5 -10 65.23 0.92
3 5 -9 19.06 0.33
3 5 -8 11.13 0.22
3 5 -7 50.59 0.63
3 5 -6 19.68 0.3
3 5 -5 68.36 0.81
3 5 -4 91.78 1.06
3 5 -3 138.8 1.55
3 5 -2 69.99 0.83
3 5 -1 9.56 0.18
3 5 0 155.65 1.53
3 5 1 381.27 3.34
3 5 2 6.46 0.13
3 5 3 14.99 0.25
3 5 4 77.89 0.7
3 5 5 48.4 0.61
3 5 6 0.25 0.05
3 5 7 16.6 0.31
3 5 8 6.36 0.16
3 5 9 13.16 0.26
3 5 10 34.1 0.56
3 5 11 4.13 0.15
3 5 12 60.8 1.23
3 5 13 3.8 0.15
3 5 14 3.05 0.13
3 5 15 6.85 0.2
3 6 -22 6.55 0.2
3 6 -21 0.08 0.04
3 6 -20 0.16 0.05
3 6 -19 0.54 0.06
3 6 -18 8.87 0.17
3 6 -17 1.02 0.06
3 6 -16 2.09 0.07
3 6 -15 21.92 0.29
3 6 -14 8.49 0.18
3 6 -13 25.51 0.41
3 6 -12 0.98 0.07
3 6 -11 3.42 0.1
3 6 -10 38.16 0.57
3 6 -9 64.44 0.77
3 6 -8 1.62 0.05
3 6 -7 55.04 0.67
3 6 -6 10.1 0.23
3 6 -5 4.86 0.14
3 6 -4 12.86 0.4
3 6 -3 8.2 0.2
3 6 -2 31.26 0.53
3 6 -1 0.26 0.04
3 6 0 132.12 1.31
3 6 1 12 0.16
3 6 2 105.25 1.04
3 6 3 57.27 0.59
3 6 4 1.6 0.05
3 6 5 11.79 0.16
3 6 6 108.8 1.09
3 6 7 9.31 0.21
3 6 8 1.29 0.08
3 6 9 23.1 0.52
3 6 10 0.21 0.06
3 6 11 39.29 0.83
3 6 12 0.64 0.08
3 6 13 5.1 0.18
3 6 14 8.05 0.23
3 7 -21 4.04 0.1
3 7 -20 6.94 0.15
3 7 -19 0.5 0.05
3 7 -18 0.25 0.05
3 7 -17 28.85 0.61
3 7 -16 4.3 0.16
3 7 -15 1.19 0.08
3 7 -14 1 0.07
3 7 -13 24.09 0.4
3 7 -12 21.65 0.36
3 7 -11 0.1 0.05
3 7 -10 2.15 0.08
3 7 -9 57.24 0.82
3 7 -8 9.85 0.14
3 7 -7 5.69 0.09
3 7 -6 31.53 0.34
3 7 -5 32.78 0.41
3 7 -4 13.56 0.2
3 7 -3 1.42 0.07
3 7 -2 20.14 0.33
3 7 -1 39.41 0.59
3 7 0 6.74 0.15
3 7 1 3.85 0.11
3 7 2 37.53 0.41
3 7 3 16.5 0.21
3 7 4 6.47 0.11
3 7 5 0.06 0.04
3 7 6 21.25 0.26
3 7 7 3.76 0.15
3 7 8 1.66 0.11
3 7 9 0.01 0.07
3 7 10 2.06 0.11
3 7 11 2.4 0.12
3 7 12 2.65 0.13
3 7 13 0.06 0.06
3 8 -20 1.44 0.09
3 8 -19 7.93 0.23
3 8 -18 1.18 0.09
3 8 -17 0.69 0.08
3 8 -16 1.21 0.09
3 8 -15 0.51 0.07
3 8 -14 7.91 0.22
3 8 -13 2.51 0.09
3 8 -12 5.29 0.13
3 8 -11 2.63 0.09
3 8 -10 67.1 0.95
3 8 -9 2.04 0.08
3 8 -8 60.88 0.87
3 8 -7 43.75 0.63
3 8 -6 8.46 0.17
3 8 -5 1.68 0.08
3 8 -4 74.73 1.05
3 8 -3 17.47 0.3
3 8 -2 0.75 0.06
3 8 -1 8.77 0.18
3 8 0 0.18 0.06
3 8 1 66.31 0.69
3 8 2 13.04 0.18
3 8 3 7.1 0.12
3 8 4 19.36 0.24
3 8 5 42.49 0.59
3 8 6 19.92 0.31
3 8 7 68.95 1.4
3 8 8 21.3 0.49
3 8 9 4.9 0.18
3 8 10 2.29 0.12
3 8 11 5.41 0.18
3 9 -19 0.26 0.06
3 9 -18 6.26 0.19
3 9 -17 6.68 0.2
3 9 -16 4.73 0.16
3 9 -15 5.93 0.19
3 9 -14 1.88 0.1
3 9 -7 5.1 0.13
3 9 -6 5.93 0.14
3 9 -5 10.08 0.2
3 9 -4 2.59 0.1
3 9 -3 16.77 0.3
3 9 -2 32.09 0.5
3 9 -1 0.2 0.06
3 9 0 8.51 0.22
3 9 1 0.06 0.06
3 9 2 10.52 0.19
3 9 3 2.37 0.08
3 9 4 2.84 0.09
3 9 5 2.69 0.09
3 9 6 10.96 0.2
3 9 7 15.58 0.26
3 9 8 0.15 0.07
3 9 9 5.89 0.19
3 10 -7 0.16 0.06
3 10 -6 15.49 0.34
3 10 -5 11.26 0.27
3 10 -4 11.79 0.28
3 10 -3 7.97 0.21
3 10 -2 7.61 0.21
3 10 -1 17.32 0.37
3 10 0 0.33 0.07
3 10 1 2.43 0.11
3 10 2 7.61 0.15
3 10 3 5.02 0.12
3 10 4 0.94 0.06
3 10 5 2.95 0.09
3 10 6 1.14 0.06
3 11 -6 0.36 0.07
3 11 -5 3.25 0.13
3 11 -4 5.48 0.17
3 11 -3 39.69 0.75
3 11 -2 0.65 0.08
3 11 -1 7.63 0.21
3 11 0 11.99 0.28
3 11 1 9.52 0.24
3 11 2 0.31 0.05
3 11 3 8.22 0.21
3 12 -5 8.18 0.21
3 12 -4 0.27 0.07
3 12 -3 0.09 0.06
4 -12 3 8.03 0.24
4 -12 4 14.38 0.36
4 -12 5 0.53 0.08
4 -12 6 0.42 0.07
4 -12 7 0.3 0.07
4 -11 -2 2.44 0.12
4 -11 -1 0.32 0.07
4 -11 0 4.84 0.18
4 -11 1 0.28 0.07
4 -11 2 0.9 0.09
4 -11 3 21.34 0.49
4 -11 4 8.21 0.24
4 -11 5 15.44 0.26
4 -11 6 10.46 0.19
4 -11 7 4.22 0.11
4 -11 8 0.5 0.05
4 -11 9 18.49 0.3
4 -11 10 0.16 0.05
4 -11 11 5.36 0.13
4 -11 12 0.21 0.05
4 -10 -7 1.15 0.08
4 -10 -6 3.74 0.13
4 -10 -5 17.68 0.38
4 -10 -2 3.49 0.15
4 -10 -1 41.69 0.88
4 -10 0 5.43 0.19
4 -10 1 4.52 0.11
4 -10 2 14.25 0.24
4 -10 3 30.65 0.46
4 -10 4 4.18 0.11
4 -10 5 5.91 0.13
4 -10 6 20.06 0.32
4 -10 7 32.19 0.48
4 -10 8 0.28 0.06
4 -10 9 6.42 0.14
4 -10 10 19.78 0.32
4 -10 11 18.8 0.3
4 -10 12 0.89 0.06
4 -10 13 2.02 0.08
4 -10 14 20.75 0.45
4 -10 15 3.61 0.1
4 -9 -10 0.01 0.05
4 -9 -9 0.09 0.05
4 -9 -8 0.23 0.06
4 -9 -7 27.24 0.54
4 -9 -6 1.17 0.09
4 -9 -5 6.59 0.19
4 -9 -4 16.31 0.35
4 -9 -2 0.84 0.06
4 -9 -1 9.08 0.17
4 -9 0 4.34 0.11
4 -9 1 0.12 0.04
4 -9 2 2.95 0.08
4 -9 3 9.35 0.15
4 -9 4 95.98 0.98
4 -9 5 4.89 0.1
4 -9 6 3.22 0.1
4 -9 7 10.27 0.19
4 -9 8 54.85 0.77
4 -9 9 21.5 0.34
4 -9 10 23.17 0.36
4 -9 11 9.96 0.19
4 -9 12 6.9 0.15
4 -9 13 1.03 0.06
4 -9 14 2.09 0.08
4 -9 15 21.41 0.34
4 -9 16 0.22 0.07
4 -8 -12 0.39 0.06
4 -8 -11 11.89 0.28
4 -8 -10 8.21 0.21
4 -8 -9 6.31 0.18
4 -8 -8 3.23 0.13
4 -8 -7 0.01 0.06
4 -8 -6 35.56 0.68
4 -8 -5 2.91 0.09
4 -8 -4 16.01 0.22
4 -8 -3 57.28 0.65
4 -8 -2 11.3 0.18
4 -8 -1 1.41 0.06
4 -8 0 67.94 0.71
4 -8 1 112.9 1.13
4 -8 2 13.75 0.19
4 -8 3 7.19 0.12
4 -8 4 4.36 0.09
4 -8 5 40.49 0.45
4 -8 6 0.24 0.05
4 -8 7 2.63 0.07
4 -8 8 0.18 0.04
4 -8 9 43.97 0.48
4 -8 10 15.76 0.21
4 -8 11 1.11 0.06
4 -8 12 55.62 0.78
4 -8 13 2.24 0.08
4 -8 14 4.21 0.11
4 -8 15 6.56 0.14
4 -8 16 18.39 0.3
4 -8 17 0.03 0.06
4 -7 -13 5.48 0.16
4 -7 -12 2.05 0.1
4 -7 -11 0.71 0.07
4 -7 -10 3.71 0.14
4 -7 -9 38.05 0.72
4 -7 -8 0.09 0.07
4 -7 -7 2.61 0.08
4 -7 -6 33.8 0.37
4 -7 -5 14.76 0.19
4 -7 -4 23.64 0.27
4 -7 -3 6.63 0.11
4 -7 -2 35.04 0.54
4 -7 -1 58.2 0.61
4 -7 0 7.07 0.12
4 -7 1 1.43 0.06
4 -7 2 150.87 1.5
4 -7 3 13.84 0.18
4 -7 4 27.73 0.32
4 -7 5 47.09 0.5
4 -7 6 65.25 0.68
4 -7 7 43.02 0.47
4 -7 8 1.17 0.05
4 -7 9 29.1 0.33
4 -7 10 91.24 0.93
4 -7 11 6.93 0.12
4 -7 12 1.94 0.06
4 -7 13 56.03 0.78
4 -7 14 23.5 0.36
4 -7 15 8.62 0.17
4 -7 16 3.35 0.1
4 -6 -15 1.15 0.08
4 -6 -14 0.27 0.06
4 -6 -13 19.57 0.41
4 -6 -12 4.83 0.16
4 -6 -11 1.02 0.06
4 -6 -10 8.18 0.15
4 -6 -9 37.38 0.41
4 -6 -8 0.46 0.04
4 -6 -7 2.49 0.07
4 -6 -6 7.33 0.14
4 -6 -5 28.57 0.32
4 -6 -4 7.84 0.12
4 -6 -3 2.64 0.06
4 -6 -2 11.34 0.15
4 -6 -1 71.42 0.85
4 -6 0 85.77 0.87
4 -6 1 3.52 0.08
4 -6 2 68.22 0.7
4 -6 3 18.56 0.22
4 -6 4 23.03 0.27
4 -6 5 0.99 0.05
4 -6 6 34.45 0.38
4 -6 7 5.96 0.14
4 -6 8 1.4 0.05
4 -6 9 118.42 1.18
4 -6 10 14.54 0.19
4 -6 11 25.34 0.3
4 -6 12 32.93 0.37
4 -6 13 10.56 0.16
4 -6 14 2.29 0.08
4 -6 15 85.84 1.16
4 -6 16 4.63 0.17
4 -5 -16 0.01 0.06
4 -5 -15 1.68 0.1
4 -5 -14 24.62 0.5
4 -5 -13 0.31 0.05
4 -5 -12 2.01 0.07
4 -5 -11 30.1 0.34
4 -5 -10 51.48 0.54
4 -5 -9 8.81 0.13
4 -5 -8 223.22 2.13
4 -5 -7 17.23 0.21
4 -5 -6 14.57 0.18
4 -5 -5 6.67 0.11
4 -5 -4 114.5 1.11
4 -5 -3 58.68 0.59
4 -5 -2 8.63 0.15
4 -5 -1 9.42 0.16
4 -5 0 63.32 0.87
4 -5 1 108.54 1.64
4 -5 2 85.45 1.31
4 -5 3 86.56 1.33
4 -5 4 50.86 0.81
4 -5 5 176.87 1.74
4 -5 6 15.35 0.19
4 -5 7 182.21 1.79
4 -5 8 96 0.96
4 -5 9 0.27 0.05
4 -5 10 7.77 0.12
4 -5 11 53.33 0.57
4 -5 12 17.91 0.23
4 -5 13 2.46 0.08
4 -5 14 1.59 0.09
4 -5 15 1.27 0.1
4 -5 16 25.77 0.57
4 -5 17 22.61 0.51
4 -4 -16 0.54 0.08
4 -4 -15 1.4 0.07
4 -4 -14 1.77 0.07
4 -4 -13 4.7 0.11
4 -4 -12 1.63 0.06
4 -4 -11 4.86 0.09
4 -4 -10 1.85 0.06
4 -4 -9 27.84 0.31
4 -4 -8 10.21 0.14
4 -4 -7 23.28 0.26
4 -4 -6 20.76 0.24
4 -4 -5 45.44 0.47
4 -4 -4 15.69 0.32
4 -4 -3 62.1 0.86
4 -4 -2 31.36 0.43
4 -4 -1 126.67 1.45
4 -4 1 23.74 0.34
4 -4 2 136.81 1.54
4 -4 3 66.51 0.8
4 -4 4 0.55 0.08
4 -4 5 94.44 1.23
4 -4 6 68.01 1.05
4 -4 7 107.04 1.27
4 -4 8 38.48 0.41
4 -4 9 13.05 0.17
4 -4 10 150.01 1.78
4 -4 11 9.58 0.2
4 -4 12 3.12 0.11
4 -4 13 42.02 0.66
4 -4 14 46.63 0.57
4 -4 15 25.85 0.39
4 -4 16 35.41 0.52
4 -4 17 9.71 0.18
4 -4 18 41.13 0.83
4 -4 19 0.58 0.07
4 -4 20 2.87 0.12
4 -3 -18 24.78 0.51
4 -3 -17 5.39 0.17
4 -3 -16 1.4 0.1
4 -3 -15 0.1 0.05
4 -3 -14 8.19 0.15
4 -3 -13 18.58 0.23
4 -3 -12 0.38 0.04
4 -3 -11 24.83 0.29
4 -3 -10 13.9 0.18
4 -3 -9 41.57 0.44
4 -3 -8 100.29 0.98
4 -3 -7 14.06 0.17
4 -3 -6 30.34 0.53
4 -3 -5 128.18 1.66
4 -3 -4 43.33 0.56
4 -3 -3 67.05 0.81
4 -3 -2 140.43 1.59
4 -3 -1 11.63 0.2
4 -3 0 98.68 1.13
4 -3 1 9.65 0.17
4 -3 2 25.18 0.35
4 -3 3 30.64 0.4
4 -3 4 61.68 0.74
4 -3 5 17.95 0.27
4 -3 6 113.75 1.31
4 -3 7 169.2 2.49
4 -3 8 1.46 0.07
4 -3 9 26.83 0.36
4 -3 10 9.88 0.14
4 -3 11 75.59 0.77
4 -3 12 2.89 0.07
4 -3 13 19.25 0.24
4 -3 14 18.06 0.23
4 -3 15 25.36 0.39
4 -3 16 18.78 0.3
4 -3 17 0.1 0.05
4 -3 18 3.48 0.14
4 -3 19 9.77 0.26
4 -3 20 16.29 0.38
4 -2 -19 6.4 0.19
4 -2 -18 33.48 0.67
4 -2 -17 3.98 0.14
4 -2 -16 6.76 0.2
4 -2 -15 12.57 0.21
4 -2 -14 34.52 0.38
4 -2 -13 24.44 0.28
4 -2 -12 34.09 0.37
4 -2 -11 4.5 0.09
4 -2 -10 3.8 0.08
4 -2 -9 5.1 0.09
4 -2 -8 47.72 0.49
4 -2 -7 96.88 2.13
4 -2 -6 24.6 0.37
4 -2 -5 1.15 0.07
4 -2 -4 82.97 0.98
4 -2 -3 687.09 7.33
4 -2 -2 16.98 0.26
4 -2 -1 106.98 1.21
4 -2 0 185.96 1.68
4 -2 1 121.94 1.37
4 -2 2 0.23 0.04
4 -2 3 237.71 2.58
4 -2 4 23.41 0.33
4 -2 5 79.03 1.01
4 -2 6 0.68 0.05
4 -2 7 6.9 0.16
4 -2 8 348.85 3.95
4 -2 9 8.69 0.12
4 -2 10 1.32 0.05
4 -2 11 67.4 0.69
4 -2 12 158.68 1.83
4 -2 13 10.37 0.15
4 -2 14 77.76 0.94
4 -2 15 2.47 0.08
4 -2 16 40.71 0.59
4 -2 17 1.43 0.07
4 -2 18 2.23 0.08
4 -2 19 8.21 0.23
4 -1 -20 5.55 0.17
4 -1 -19 0.63 0.08
4 -1 -18 4.93 0.17
4 -1 -17 1.79 0.1
4 -1 -16 2.32 0.11
4 -1 -15 3.86 0.12
4 -1 -14 2.09 0.06
4 -1 -13 19.24 0.23
4 -1 -12 15.11 0.19
4 -1 -11 1.91 0.06
4 -1 -10 42.03 0.44
4 -1 -9 0.2 0.04
4 -1 -8 0.46 0.07
4 -1 -7 29.25 0.41
4 -1 -6 50.49 0.64
4 -1 -5 12.32 0.22
4 -1 -4 4.41 0.11
4 -1 -3 15.1 0.24
4 -1 -2 176.71 1.95
4 -1 -1 0.09 0.05
4 -1 0 0.88 0.05
4 -1 1 84.31 0.72
4 -1 2 118.06 1.31
4 -1 3 8.23 0.15
4 -1 4 0.03 0.05
4 -1 5 100.12 1.14
4 -1 6 123.06 1.4
4 -1 7 11.37 0.22
4 -1 8 5.42 0.11
4 -1 9 100.6 1
4 -1 10 76.85 0.78
4 -1 11 1.16 0.05
4 -1 12 9.71 0.14
4 -1 13 85.27 0.87
4 -1 14 3.22 0.08
4 -1 15 9.27 0.18
4 -1 16 13.53 0.24
4 -1 17 24.42 0.38
4 -1 18 6.89 0.15
4 -1 19 0.51 0.07
4 0 -21 0.39 0.07
4 0 -20 2.7 0.12
4 0 -19 1.92 0.11
4 0 -18 0.78 0.08
4 0 -17 21.66 0.47
4 0 -16 18.07 0.4
4 0 -15 0.1 0.05
4 0 -14 8.38 0.18
4 0 -13 164.6 1.59
4 0 -12 2.48 0.07
4 0 -11 34.64 0.37
4 0 -10 28.19 0.31
4 0 -9 58.09 0.92
4 0 -8 10.46 0.2
4 0 -7 67.33 0.82
4 0 -6 1.14 0.07
4 0 -5 107.74 1.23
4 0 -4 35.29 0.36
4 0 -3 6.89 0.11
4 0 -2 424.59 3.65
4 0 -1 98.29 1.09
4 0 0 17.2 0.24
4 0 1 50.55 0.49
4 0 2 302.02 3.21
4 0 3 134.88 1.49
4 0 4 194.1 2.11
4 0 5 2.2 0.08
4 0 6 79.01 0.93
4 0 7 13.76 0.28
4 0 8 0.47 0.04
4 0 9 8.21 0.12
4 0 10 2.39 0.06
4 0 11 91.5 0.93
4 0 12 7.7 0.12
4 0 13 30.7 0.35
4 0 14 65.02 0.69
4 0 15 2.02 0.08
4 0 16 5.67 0.13
4 0 17 25.48 0.4
4 0 18 6.17 0.14
4 0 19 5.79 0.18
4 1 -21 2.45 0.11
4 1 -20 1.87 0.11
4 1 -19 0.6 0.08
4 1 -18 2.38 0.12
4 1 -17 0.13 0.07
4 1 -16 2.26 0.09
4 1 -15 0.94 0.07
4 1 -14 11.18 0.22
4 1 -13 27.5 0.31
4 1 -12 138.85 1.35
4 1 -11 37.03 0.39
4 1 -10 2.19 0.11
4 1 -9 6.8 0.14
4 1 -8 159.62 1.45
4 1 -7 86.94 0.82
4 1 -6 29.54 0.32
4 1 -5 34.4 0.4
4 1 -4 30.5 0.36
4 1 -3 52.41 0.62
4 1 -2 44.86 0.54
4 1 -1 113.06 1.25
4 1 0 97.58 1.09
4 1 1 86.77 0.81
4 1 2 84.73 0.97
4 1 3 345.57 3.67
4 1 4 272.45 2.93
4 1 5 10.11 0.19
4 1 6 10.77 0.24
4 1 7 132.55 1.31
4 1 8 135.49 1.35
4 1 9 1.25 0.05
4 1 10 10.35 0.15
4 1 11 39.93 0.44
4 1 12 12.5 0.18
4 1 13 44.72 0.49
4 1 14 30.9 0.47
4 1 15 23.21 0.37
4 1 16 18.65 0.31
4 1 17 3.35 0.1
4 1 18 11.55 0.21
4 2 -21 0.01 0.06
4 2 -20 2.77 0.12
4 2 -19 5.94 0.19
4 2 -18 3.33 0.14
4 2 -17 0.33 0.07
4 2 -16 0.93 0.07
4 2 -15 33.49 0.52
4 2 -14 0.1 0.04
4 2 -13 1.04 0.05
4 2 -12 5.78 0.08
4 2 -11 37.5 0.32
4 2 -10 12.51 0.22
4 2 -9 2.92 0.09
4 2 -8 2.65 0.08
4 2 -7 99.3 1.13
4 2 -6 0.05 0.08
4 2 -5 11.12 0.19
4 2 -4 61.43 0.72
4 2 -3 18.8 0.27
4 2 -2 45.42 0.55
4 2 -1 0.14 0.05
4 2 0 17.92 0.26
4 2 1 105.12 1.08
4 2 2 10.61 0.15
4 2 3 15.8 0.25
4 2 4 115.34 1.31
4 2 5 9.19 0.21
4 2 6 46.58 0.57
4 2 7 0.95 0.05
4 2 8 23.16 0.27
4 2 9 17.19 0.22
4 2 10 11.98 0.17
4 2 11 9 0.14
4 2 12 28.42 0.33
4 2 13 11.22 0.21
4 2 14 24.27 0.38
4 2 15 0.71 0.05
4 2 16 6.71 0.14
4 2 17 18.42 0.3
4 3 -21 8.62 0.24
4 3 -20 1.21 0.09
4 3 -19 0.09 0.07
4 3 -18 12.46 0.22
4 3 -17 17.3 0.28
4 3 -16 1.08 0.05
4 3 -15 0.02 0.04
4 3 -14 6.13 0.1
4 3 -13 13.62 0.18
4 3 -12 43.44 0.42
4 3 -11 5.34 0.07
4 3 -10 53.53 0.54
4 3 -9 63.14 0.97
4 3 -8 83.67 1.25
4 3 -7 90.76 1.05
4 3 -6 304.52 3.26
4 3 -5 7.72 0.16
4 3 -4 0.46 0.08
4 3 -3 63.77 0.75
4 3 -2 158.07 1.74
4 3 0 0.07 0.06
4 3 1 11.62 0.2
4 3 2 40.75 0.43
4 3 3 189.15 2.02
4 3 4 3.13 0.12
4 3 5 90.79 0.91
4 3 6 70.82 0.72
4 3 7 52.41 0.55
4 3 8 7.41 0.12
4 3 9 216.96 2.13
4 3 10 0.29 0.04
4 3 11 0.39 0.04
4 3 12 4.78 0.12
4 3 13 4.88 0.12
4 3 14 7.63 0.16
4 3 15 1.03 0.06
4 3 16 2.81 0.09
4 4 -21 0.65 0.05
4 4 -20 2.97 0.09
4 4 -19 0.07 0.06
4 4 -18 8.44 0.17
4 4 -17 10.01 0.18
4 4 -16 17.37 0.22
4 4 -15 1.81 0.06
4 4 -14 14.22 0.19
4 4 -13 0.7 0.06
4 4 -12 4.95 0.13
4 4 -11 7.37 0.11
4 4 -10 1.27 0.05
4 4 -9 4.49 0.08
4 4 -8 1.04 0.06
4 4 -7 180.62 2.6
4 4 -6 1.29 0.09
4 4 -5 59.7 0.92
4 4 -4 71.11 0.84
4 4 -3 36.4 0.48
4 4 -2 1.6 0.08
4 4 -1 186.42 2.31
4 4 0 36.85 0.6
4 4 1 1.24 0.08
4 4 2 17.65 0.28
4 4 3 3.46 0.08
4 4 4 128.11 1.26
4 4 5 2.12 0.06
4 4 6 4.79 0.09
4 4 7 15.53 0.2
4 4 8 109.92 1.1
4 4 9 14.82 0.2
4 4 10 57.49 0.73
4 4 11 27.93 0.43
4 4 12 26.5 0.41
4 4 13 0.46 0.05
4 4 14 17.01 0.4
4 4 15 15.98 0.39
4 5 -21 0.42 0.05
4 5 -20 5.33 0.12
4 5 -19 5.28 0.12
4 5 -18 1.32 0.07
4 5 -17 0.17 0.05
4 5 -16 14.69 0.24
4 5 -15 9.73 0.2
4 5 -14 6.09 0.15
4 5 -13 5.28 0.14
4 5 -12 19.18 0.33
4 5 -11 9.72 0.17
4 5 -10 12.6 0.16
4 5 -9 11.69 0.15
4 5 -8 23.45 0.26
4 5 -7 22.81 0.26
4 5 -5 18.68 0.22
4 5 -4 42.63 0.44
4 5 -3 19.93 0.23
4 5 -2 8.94 0.12
4 5 -1 46.18 0.47
4 5 0 7.19 0.11
4 5 1 27.14 0.3
4 5 2 0.18 0.05
4 5 3 3.47 0.06
4 5 4 16.37 0.18
4 5 5 13.43 0.18
4 5 6 7.13 0.14
4 5 7 8.39 0.13
4 5 8 5.59 0.15
4 5 9 37.45 0.79
4 5 10 5.64 0.19
4 5 11 0.09 0.07
4 5 12 7.85 0.23
4 5 13 3.27 0.14
4 5 14 0 0.05
4 6 -21 1.2 0.09
4 6 -20 2.03 0.08
4 6 -19 0.1 0.07
4 6 -18 0.23 0.07
4 6 -17 35.48 0.74
4 6 -16 5.34 0.18
4 6 -15 10.24 0.27
4 6 -14 16.81 0.3
4 6 -13 16.59 0.3
4 6 -12 1.28 0.08
4 6 -11 43.19 0.65
4 6 -10 11.16 0.15
4 6 -9 5.23 0.09
4 6 -8 0.35 0.05
4 6 -7 1.24 0.05
4 6 -6 75.79 0.75
4 6 -5 36.79 0.39
4 6 -3 9.18 0.13
4 6 -2 137.11 1.32
4 6 -1 92.22 0.9
4 6 0 77.35 0.77
4 6 1 51.59 0.53
4 6 2 43.55 0.46
4 6 3 2.62 0.05
4 6 4 21.21 0.26
4 6 5 34.11 0.56
4 6 6 3 0.11
4 6 7 0.93 0.07
4 6 8 2.07 0.11
4 6 9 24.73 0.55
4 6 10 40.31 0.85
4 6 11 0.5 0.07
4 6 12 1.5 0.1
4 6 13 17.36 0.41
4 7 -20 1.98 0.11
4 7 -19 3.3 0.14
4 7 -18 2.56 0.12
4 7 -17 4.24 0.16
4 7 -16 4.54 0.16
4 7 -15 2.26 0.12
4 7 -14 2.43 0.12
4 7 -13 0.36 0.11
4 7 -12 14.31 0.27
4 7 -11 4.85 0.13
4 7 -10 8.12 0.13
4 7 -9 36.03 0.39
4 7 -8 0.49 0.04
4 7 -7 1.83 0.06
4 7 -6 0.45 0.04
4 7 -5 14.9 0.19
4 7 -4 5.22 0.09
4 7 -3 4.55 0.09
4 7 -2 17.31 0.21
4 7 -1 28.06 0.37
4 7 0 37.94 0.57
4 7 1 1.22 0.08
4 7 2 8.07 0.18
4 7 3 20.22 0.27
4 7 4 33.26 0.37
4 7 5 1.55 0.07
4 7 6 13 0.33
4 7 7 16.36 0.39
4 7 8 0.17 0.06
4 7 9 6.69 0.21
4 7 10 9.16 0.26
4 7 11 6.77 0.21
4 8 -19 8.94 0.24
4 8 -18 0.01 0.07
4 8 -17 0.66 0.08
4 8 -16 3.51 0.14
4 8 -15 10.43 0.27
4 8 -14 1.07 0.09
4 8 -13 4.84 0.17
4 8 -12 9.23 0.25
4 8 -11 21.06 0.46
4 8 -10 0.84 0.07
4 8 -9 4.76 0.09
4 8 -8 26.26 0.3
4 8 -7 6.49 0.11
4 8 -6 0.63 0.05
4 8 -5 6.01 0.15
4 8 -4 18.61 0.32
4 8 -3 8.27 0.18
4 8 -2 0.43 0.06
4 8 -1 4.03 0.12
4 8 0 38.88 0.59
4 8 1 2.4 0.1
4 8 2 1.56 0.1
4 8 3 8.98 0.17
4 8 4 21.23 0.33
4 8 5 0.14 0.06
4 8 6 2.32 0.12
4 8 7 2.2 0.11
4 8 8 2.23 0.12
4 8 9 0.09 0.06
4 9 -17 0.13 0.06
4 9 -16 0.62 0.08
4 9 -15 0.18 0.07
4 9 -14 2.92 0.13
4 9 -13 0.22 0.07
4 9 -12 12.7 0.31
4 9 -11 2.39 0.12
4 9 -10 34.26 0.7
4 9 -9 5.48 0.17
4 9 -8 1.23 0.09
4 9 -7 11.42 0.27
4 9 -6 31.85 0.62
4 9 -5 0.09 0.07
4 9 -4 7.04 0.19
4 9 -3 10.77 0.26
4 9 -2 0 0.07
4 9 -1 15.65 0.35
4 9 0 0.27 0.08
4 9 1 17.42 0.38
4 9 2 9.41 0.24
4 9 3 8.93 0.23
4 9 4 0.08 0.05
4 9 5 63.56 0.86
4 9 6 5.7 0.18
4 9 7 0.55 0.07
4 10 -8 0.36 0.08
4 10 -7 0.08 0.07
4 10 -6 0.81 0.09
4 10 -5 9.28 0.24
4 10 -4 3.6 0.14
4 10 -3 3.94 0.14
4 10 -2 8.67 0.23
4 10 -1 0.04 0.06
4 10 0 1.12 0.09
4 10 1 0.52 0.07
4 10 2 4.53 0.15
4 10 3 0.87 0.08
4 10 4 3.46 0.13
4 11 -7 2.07 0.11
4 11 -6 0.03 0.07
4 11 -5 15.41 0.34
4 11 -4 5.41 0.17
4 11 -3 1.34 0.09
4 11 -2 2.81 0.12
4 11 -1 5.57 0.17
4 11 0 3 0.12
5 -11 2 9.25 0.18
5 -11 3 2.87 0.09
5 -11 4 1.91 0.07
5 -11 5 2.38 0.08
5 -11 6 3.5 0.1
5 -11 7 1.52 0.07
5 -11 8 4.33 0.11
5 -10 -2 10.49 0.26
5 -10 -1 0.01 0.06
5 -10 0 0.37 0.07
5 -10 1 3.32 0.1
5 -10 2 26.01 0.4
5 -10 3 9.03 0.18
5 -10 4 0.45 0.06
5 -10 5 23.9 0.37
5 -10 6 2.76 0.09
5 -10 7 12.63 0.22
5 -10 8 4.75 0.12
5 -10 9 16.74 0.28
5 -10 10 0.12 0.05
5 -10 11 0.84 0.06
5 -10 12 7.39 0.15
5 -9 -8 7.39 0.2
5 -9 -7 6.47 0.18
5 -9 -6 0.65 0.07
5 -9 -5 16.76 0.38
5 -9 -4 4.72 0.16
5 -9 -3 18.66 0.41
5 -9 -2 1.07 0.09
5 -9 -1 19.42 0.43
5 -9 0 16.65 0.38
5 -9 1 12.41 0.22
5 -9 2 4.74 0.12
5 -9 3 31.28 0.46
5 -9 4 19.1 0.31
5 -9 5 7.06 0.21
5 -9 6 14.35 0.25
5 -9 7 27.18 0.41
5 -9 8 13.36 0.23
5 -9 9 1.9 0.08
5 -9 10 15.9 0.27
5 -9 11 9.19 0.18
5 -9 12 21.19 0.33
5 -9 13 0.38 0.05
5 -9 14 7.95 0.16
5 -8 -10 0.04 0.05
5 -8 -9 9.3 0.23
5 -8 -8 12.27 0.21
5 -8 -7 11.05 0.19
5 -8 -6 3.92 0.1
5 -8 -5 10.76 0.19
5 -8 -4 1.75 0.11
5 -8 -3 12.62 0.31
5 -8 -2 0.04 0.06
5 -8 -1 6.54 0.2
5 -8 0 0.14 0.07
5 -8 1 2.45 0.08
5 -8 2 72.66 0.76
5 -8 3 3.32 0.08
5 -8 4 2.38 0.07
5 -8 5 22.62 0.35
5 -8 6 26.24 0.4
5 -8 7 0.01 0.05
5 -8 8 74.55 1.02
5 -8 9 7.99 0.16
5 -8 10 0.08 0.05
5 -8 11 3.41 0.1
5 -8 12 0.41 0.05
5 -8 13 27.11 0.41
5 -8 14 1.98 0.08
5 -8 15 1.97 0.08
5 -8 16 0.04 0.06
5 -7 -12 0.28 0.06
5 -7 -11 17.52 0.38
5 -7 -10 4.09 0.1
5 -7 -9 0.01 0.05
5 -7 -8 9.33 0.17
5 -7 -7 4.38 0.11
5 -7 -6 30.08 0.42
5 -7 -5 25.43 0.37
5 -7 -4 1.11 0.06
5 -7 -3 11.03 0.22
5 -7 -2 84.07 1.19
5 -7 -1 38.42 0.59
5 -7 0 73.56 1.05
5 -7 1 28.08 0.33
5 -7 2 8.76 0.14
5 -7 3 12.25 0.17
5 -7 4 21.18 0.26
5 -7 5 22.26 0.27
5 -7 6 1.13 0.05
5 -7 7 21.82 0.27
5 -7 8 1 0.06
5 -7 9 24.53 0.37
5 -7 10 57.79 0.8
5 -7 11 2.17 0.08
5 -7 12 1.87 0.08
5 -7 13 26.44 0.4
5 -7 14 14.5 0.25
5 -7 15 4.17 0.15
5 -7 16 10.32 0.27
5 -7 17 1.51 0.09
5 -6 -14 0.22 0.06
5 -6 -13 0.34 0.05
5 -6 -12 3.37 0.09
5 -6 -11 8.71 0.16
5 -6 -10 5.35 0.12
5 -6 -9 0.06 0.05
5 -6 -8 28.02 0.4
5 -6 -7 1.04 0.05
5 -6 -6 0.15 0.04
5 -6 -5 26.56 0.3
5 -6 -4 26.26 0.3
5 -6 -3 7.76 0.17
5 -6 -2 11.56 0.23
5 -6 -1 18.78 0.32
5 -6 0 83.44 1.18
5 -6 1 2.16 0.08
5 -6 2 0.17 0.05
5 -6 3 90.24 0.91
5 -6 4 30.21 0.34
5 -6 5 2.26 0.07
5 -6 6 15.04 0.2
5 -6 7 71.73 0.74
5 -6 8 56.71 0.6
5 -6 9 7.94 0.13
5 -6 10 11.56 0.17
5 -6 11 84.2 1.14
5 -6 12 5.75 0.13
5 -6 13 2.33 0.12
5 -6 14 26.57 0.59
5 -6 15 17.08 0.41
5 -6 16 1.57 0.1
5 -6 17 0.24 0.06
5 -5 -15 13.07 0.22
5 -5 -14 0.04 0.07
5 -5 -13 2.42 0.08
5 -5 -12 18.22 0.28
5 -5 -11 18.15 0.28
5 -5 -10 14.25 0.23
5 -5 -9 13.57 0.18
5 -5 -8 0.53 0.05
5 -5 -7 19.13 0.23
5 -5 -6 0.4 0.04
5 -5 -5 4.53 0.09
5 -5 -4 0.11 0.04
5 -5 -3 63.5 0.64
5 -5 -2 14.62 0.26
5 -5 -1 23.97 0.39
5 -5 0 116.21 1.61
5 -5 1 3.27 0.11
5 -5 2 0.3 0.04
5 -5 3 22.23 0.26
5 -5 4 61.66 0.64
5 -5 5 0.46 0.07
5 -5 6 18.64 0.23
5 -5 7 40.67 0.44
5 -5 8 53.97 0.57
5 -5 9 16.45 0.21
5 -5 10 3.92 0.13
5 -5 11 1.6 0.09
5 -5 12 19.87 0.46
5 -5 13 70.96 1.43
5 -5 14 4.29 0.16
5 -5 15 20.45 0.47
5 -5 16 12.68 0.32
5 -5 17 1.55 0.1
5 -4 -16 5.03 0.12
5 -4 -15 2.45 0.08
5 -4 -14 5.02 0.12
5 -4 -13 11.75 0.2
5 -4 -12 6.43 0.13
5 -4 -11 3.75 0.1
5 -4 -10 153.55 1.49
5 -4 -9 0.22 0.05
5 -4 -8 1.93 0.06
5 -4 -7 35.61 0.38
5 -4 -6 79.49 0.79
5 -4 -5 2.81 0.07
5 -4 -4 51.4 0.53
5 -4 -3 2.58 0.06
5 -4 -2 65.14 0.78
5 -4 -1 21.7 0.35
5 -4 0 0.12 0.06
5 -4 1 191 2.58
5 -4 2 36.9 0.47
5 -4 3 34.82 0.38
5 -4 4 23.09 0.27
5 -4 5 265.86 2.58
5 -4 6 36.36 0.48
5 -4 7 27.37 0.45
5 -4 8 6.81 0.16
5 -4 9 96.67 1.42
5 -4 10 5.22 0.14
5 -4 11 4.21 0.13
5 -4 12 7.41 0.18
5 -4 13 15.19 0.37
5 -4 14 15.61 0.38
5 -4 15 1.09 0.09
5 -4 16 29.3 0.63
5 -4 17 11.11 0.29
5 -4 18 1.27 0.09
5 -3 -17 1.46 0.1
5 -3 -16 0.3 0.05
5 -3 -15 0.05 0.05
5 -3 -14 0.56 0.05
5 -3 -13 7.47 0.15
5 -3 -12 0.34 0.04
5 -3 -11 1.68 0.06
5 -3 -10 2.32 0.07
5 -3 -9 25.23 0.29
5 -3 -8 1.81 0.06
5 -3 -7 0.99 0.05
5 -3 -6 3.34 0.07
5 -3 -5 52.12 0.53
5 -3 -4 2.21 0.06
5 -3 -3 16.95 0.25
5 -3 -2 38.07 0.64
5 -3 -1 42.58 0.97
5 -3 0 43.17 0.98
5 -3 1 1.11 0.12
5 -3 2 42.37 0.69
5 -3 3 108.17 1.63
5 -3 4 8.03 0.16
5 -3 5 0.86 0.06
5 -3 6 111.56 1.62
5 -3 7 10.61 0.21
5 -3 8 55.42 0.84
5 -3 9 10.26 0.21
5 -3 10 29.08 0.48
5 -3 11 36.51 0.59
5 -3 12 15.24 0.29
5 -3 13 0.18 0.07
5 -3 14 92.61 1.27
5 -3 15 8.37 0.17
5 -3 16 12.13 0.22
5 -3 17 18.79 0.31
5 -3 18 12.77 0.22
5 -2 -18 0.68 0.08
5 -2 -17 2.05 0.11
5 -2 -16 9.97 0.18
5 -2 -15 3.58 0.1
5 -2 -14 6.74 0.14
5 -2 -13 1.68 0.06
5 -2 -12 19.57 0.24
5 -2 -11 18.7 0.23
5 -2 -10 10.78 0.15
5 -2 -9 61.41 0.62
5 -2 -8 40.86 0.43
5 -2 -7 36.22 0.39
5 -2 -6 1.68 0.05
5 -2 -5 163.85 1.57
5 -2 -4 72.34 1.13
5 -2 -3 41.96 0.69
5 -2 -2 4.86 0.13
5 -2 -1 63.59 0.86
5 -2 0 28.63 0.55
5 -2 2 1.22 0.1
5 -2 3 7.15 0.21
5 -2 4 138.28 2.94
5 -2 5 46.94 0.71
5 -2 6 42.55 0.65
5 -2 7 82.96 1.21
5 -2 8 10.15 0.17
5 -2 9 15.62 0.2
5 -2 10 52.34 0.55
5 -2 11 37.79 0.42
5 -2 12 18.38 0.23
5 -2 13 12.34 0.22
5 -2 14 0.79 0.06
5 -2 15 7.63 0.16
5 -2 16 5.32 0.13
5 -2 17 3.3 0.1
5 -2 18 2.22 0.08
5 -1 -19 9.17 0.24
5 -1 -18 3.35 0.13
5 -1 -17 1.68 0.1
5 -1 -16 2.27 0.11
5 -1 -15 31.46 0.62
5 -1 -14 10.74 0.17
5 -1 -13 0.75 0.05
5 -1 -12 1.36 0.06
5 -1 -11 0.8 0.05
5 -1 -10 26.91 0.28
5 -1 -9 15.96 0.2
5 -1 -8 3.13 0.07
5 -1 -7 21.01 0.24
5 -1 -6 52.41 0.63
5 -1 -5 151.07 2.25
5 -1 -4 137.6 1.76
5 -1 -3 128.97 1.48
5 -1 -2 54.06 0.75
5 -1 -1 2.58 0.13
5 -1 3 2.24 0.24
5 -1 4 41.08 0.65
5 -1 5 36.24 0.59
5 -1 6 161.55 1.86
5 -1 7 20.54 0.24
5 -1 8 26.45 0.3
5 -1 9 89.71 0.91
5 -1 10 57.33 0.6
5 -1 11 12.94 0.18
5 -1 12 127.99 1.28
5 -1 13 2.5 0.12
5 -1 14 12.75 0.32
5 -1 15 22.43 0.36
5 -1 16 11.4 0.21
5 -1 17 8.63 0.17
5 -1 18 0.26 0.04
5 0 -20 0.87 0.08
5 0 -19 0.27 0.07
5 0 -18 5.54 0.18
5 0 -17 1.6 0.1
5 0 -16 0.1 0.07
5 0 -15 0.04 0.05
5 0 -14 20.91 0.25
5 0 -13 0.08 0.05
5 0 -12 4.07 0.09
5 0 -11 7.8 0.12
5 0 -10 4.9 0.09
5 0 -9 12.18 0.16
5 0 -8 5.36 0.09
5 0 -7 4.98 0.11
5 0 -6 29.91 0.39
5 0 -5 13.59 0.28
5 0 -4 17.54 0.49
5 0 -3 44.98 0.84
5 0 -2 12.24 0.31
5 0 -1 37.79 0.54
5 0 0 4.18 0.11
5 0 1 21.48 0.43
5 0 2 8.91 0.24
5 0 3 52.66 0.81
5 0 4 16.03 0.31
5 0 5 13.06 0.17
5 0 6 32.47 0.36
5 0 7 58.11 0.6
5 0 8 6.76 0.11
5 0 9 24.31 0.29
5 0 10 36.43 0.41
5 0 11 36.5 0.41
5 0 12 7.17 0.12
5 0 13 0.24 0.05
5 0 14 25.68 0.4
5 0 15 9.98 0.19
5 0 16 0.05 0.04
5 0 17 1.51 0.07
5 1 -20 1.64 0.1
5 1 -19 7.33 0.21
5 1 -18 0.97 0.09
5 1 -17 3.52 0.14
5 1 -16 11.2 0.28
5 1 -15 49.2 0.95
5 1 -14 10.65 0.16
5 1 -13 52.35 0.55
5 1 -12 11.12 0.16
5 1 -11 5.87 0.1
5 1 -10 8.39 0.12
5 1 -9 70.63 0.7
5 1 -8 0.39 0.06
5 1 -7 13.6 0.24
5 1 -6 0.33 0.04
5 1 -5 15.78 0.3
5 1 -4 215.31 2.62
5 1 -3 3.13 0.1
5 1 -2 21.77 0.32
5 1 -1 109.91 1.24
5 1 0 161.35 1.78
5 1 1 0.15 0.08
5 1 2 303.97 5.81
5 1 3 1.15 0.06
5 1 4 28.41 0.37
5 1 5 3.28 0.07
5 1 6 21.74 0.26
5 1 7 20.04 0.24
5 1 8 0.77 0.05
5 1 9 22.08 0.27
5 1 10 6.79 0.12
5 1 11 61.08 0.65
5 1 12 25.93 0.4
5 1 13 22.39 0.36
5 1 14 0.57 0.05
5 1 15 31.65 0.48
5 1 16 0.29 0.05
5 1 17 16.66 0.39
5 2 -20 0.04 0.06
5 2 -19 0.54 0.08
5 2 -18 0.58 0.08
5 2 -17 0.33 0.07
5 2 -16 0.81 0.09
5 2 -15 2.21 0.1
5 2 -14 55.01 0.64
5 2 -13 0.67 0.05
5 2 -12 6.47 0.11
5 2 -11 12.3 0.24
5 2 -10 45.27 0.47
5 2 -9 0.46 0.04
5 2 -8 59.78 0.6
5 2 -7 23.86 0.26
5 2 -6 2.43 0.07
5 2 -5 0.26 0.04
5 2 -4 1.51 0.09
5 2 -3 94.01 1.39
5 2 -2 16.71 0.32
5 2 -1 0.46 0.06
5 2 0 0.41 0.06
5 2 1 252.15 2.84
5 2 2 48.23 0.7
5 2 3 23.81 0.38
5 2 4 55 0.67
5 2 5 89.02 0.9
5 2 6 17.25 0.22
5 2 7 40.46 0.44
5 2 8 34.02 0.38
5 2 9 27.73 0.33
5 2 10 0.07 0.04
5 2 11 1 0.06
5 2 12 62.43 0.88
5 2 13 13.71 0.24
5 2 14 1.32 0.07
5 2 15 2.87 0.09
5 2 16 23.91 0.37
5 3 -20 0.07 0.06
5 3 -19 3.08 0.13
5 3 -18 1.62 0.1
5 3 -17 7.4 0.21
5 3 -16 2.51 0.12
5 3 -15 1.79 0.08
5 3 -14 9.34 0.15
5 3 -13 9.89 0.15
5 3 -12 1.52 0.06
5 3 -11 17.12 0.21
5 3 -10 10.04 0.14
5 3 -9 16.62 0.2
5 3 -8 21 0.24
5 3 -7 2.51 0.06
5 3 -6 33.34 0.35
5 3 -5 1.26 0.05
5 3 -3 12.5 0.16
5 3 -2 23.26 0.26
5 3 -1 25.2 0.28
5 3 0 4.93 0.09
5 3 1 9.22 0.14
5 3 2 84.38 1.18
5 3 3 1.02 0.07
5 3 4 0.11 0.06
5 3 5 24.05 0.31
5 3 6 17.95 0.23
5 3 7 0.02 0.05
5 3 8 0.12 0.05
5 3 9 0.08 0.05
5 3 10 27.81 0.43
5 3 11 2.18 0.08
5 3 12 1.38 0.07
5 3 13 9.36 0.18
5 3 14 8.98 0.18
5 3 15 5.7 0.13
5 4 -20 5.58 0.17
5 4 -19 1.58 0.07
5 4 -18 6.34 0.14
5 4 -17 1.29 0.07
5 4 -16 1.53 0.11
5 4 -15 1.28 0.1
5 4 -14 3.02 0.11
5 4 -13 14.32 0.19
5 4 -12 21.65 0.26
5 4 -11 7.03 0.12
5 4 -10 1.83 0.06
5 4 -9 103.15 1
5 4 -8 93.62 0.92
5 4 -7 12.79 0.17
5 4 -6 23.37 0.26
5 4 -5 57.24 0.58
5 4 -4 32.33 0.35
5 4 -3 18.98 0.22
5 4 -2 18.53 0.22
5 4 -1 14.54 0.18
5 4 0 12 0.16
5 4 1 27.43 0.3
5 4 2 49.76 0.73
5 4 3 84.25 1.18
5 4 4 13.66 0.26
5 4 5 0.25 0.04
5 4 6 56.09 0.6
5 4 7 136.69 1.37
5 4 8 16.13 0.22
5 4 9 8.8 0.18
5 4 10 15.38 0.27
5 4 11 3.82 0.11
5 4 12 0.36 0.05
5 4 13 7.54 0.22
5 4 14 0.01 0.04
5 5 -20 0.6 0.08
5 5 -19 5.72 0.18
5 5 -18 2.12 0.11
5 5 -17 1.5 0.1
5 5 -16 10.47 0.27
5 5 -15 0.01 0.07
5 5 -14 0.06 0.07
5 5 -13 0.09 0.06
5 5 -12 5.7 0.1
5 5 -11 1.04 0.05
5 5 -10 2.13 0.07
5 5 -9 29.96 0.33
5 5 -8 16.87 0.21
5 5 -7 28.15 0.31
5 5 -6 4.72 0.09
5 5 -5 0.13 0.05
5 5 -4 20.35 0.24
5 5 -3 63.38 0.64
5 5 -2 0.15 0.05
5 5 -1 11.93 0.16
5 5 0 23.8 0.27
5 5 1 1.32 0.05
5 5 2 23.05 0.27
5 5 3 9.64 0.2
5 5 4 16.72 0.3
5 5 5 7.72 0.13
5 5 6 22.5 0.28
5 5 7 3.15 0.1
5 5 8 59.63 0.85
5 5 9 7.72 0.16
5 5 10 1.46 0.07
5 5 11 10.61 0.2
5 5 12 17.26 0.41
5 5 13 4.06 0.15
5 6 -19 1.64 0.1
5 6 -18 9.46 0.26
5 6 -17 0.49 0.08
5 6 -16 0.68 0.09
5 6 -15 9.65 0.26
5 6 -14 6.97 0.21
5 6 -13 0.06 0.07
5 6 -12 0.29 0.05
5 6 -11 14.74 0.19
5 6 -10 8.35 0.13
5 6 -9 1.68 0.06
5 6 -8 1.03 0.05
5 6 -7 33.36 0.37
5 6 -6 14.54 0.19
5 6 -5 0.02 0.04
5 6 -4 5.81 0.1
5 6 -3 51.91 0.54
5 6 -2 0.32 0.05
5 6 -1 0.01 0.04
5 6 0 8.37 0.13
5 6 1 8.85 0.13
5 6 2 4.15 0.09
5 6 3 0.05 0.05
5 6 4 0.76 0.07
5 6 5 13.61 0.34
5 6 6 3.96 0.11
5 6 7 4.44 0.12
5 6 8 21.63 0.49
5 6 9 1.44 0.1
5 6 10 2.26 0.11
5 6 11 0.08 0.06
5 7 -18 0.01 0.06
5 7 -17 9.97 0.27
5 7 -16 3.58 0.15
5 7 -15 0.59 0.09
5 7 -14 2.3 0.12
5 7 -13 22.2 0.49
5 7 -12 0.39 0.08
5 7 -11 1.26 0.07
5 7 -10 3.1 0.08
5 7 -9 0.16 0.04
5 7 -8 20.67 0.25
5 7 -7 1.05 0.05
5 7 -6 7.43 0.12
5 7 -5 9.77 0.14
5 7 -4 43.32 0.46
5 7 -3 2.9 0.08
5 7 -2 95.21 0.94
5 7 -1 23.13 0.27
5 7 0 2.42 0.07
5 7 1 6.72 0.14
5 7 2 30.29 0.43
5 7 3 10.82 0.25
5 7 6 0.37 0.07
5 7 7 17.15 0.41
5 7 8 7.49 0.22
5 7 9 9.57 0.26
5 8 -17 0.05 0.07
5 8 -16 2.32 0.12
5 8 -15 0.01 0.06
5 8 -14 0.97 0.09
5 8 -13 0.2 0.07
5 8 -12 6.92 0.2
5 8 -11 5.52 0.12
5 8 -10 3.22 0.09
5 8 -9 5.77 0.13
5 8 -8 0.46 0.06
5 8 -7 2.36 0.08
5 8 -6 0.61 0.06
5 8 -5 7.75 0.15
5 8 -4 3.27 0.1
5 8 -3 10.46 0.19
5 8 -2 2.42 0.09
5 8 -1 3.32 0.13
5 8 0 6.88 0.19
5 8 1 4.27 0.15
5 8 2 2.04 0.1
5 8 3 8.59 0.22
5 8 4 7.7 0.2
5 8 6 2.84 0.13
5 8 7 0.19 0.06
5 9 -14 3.3 0.13
5 9 -13 1.65 0.1
5 9 -12 7.18 0.21
5 9 -11 6.3 0.2
5 9 -10 5.18 0.12
5 9 -9 0.24 0.06
5 9 -8 6.72 0.14
5 9 -7 4.97 0.12
5 9 -6 2.85 0.13
5 9 -5 0.19 0.07
5 9 -4 4.45 0.15
5 9 -3 5.3 0.17
5 9 -2 11.18 0.27
5 9 -1 2.08 0.11
5 9 0 7.89 0.21
5 9 1 7.58 0.21
5 9 2 3.77 0.14
5 9 3 7.22 0.2
5 9 4 7 0.19
5 10 -9 5.31 0.17
5 10 -8 3.95 0.14
5 10 -7 3.55 0.13
5 10 -6 7.87 0.21
5 10 -5 1.69 0.1
5 10 -4 1.43 0.09
5 10 -3 1.36 0.09
5 10 -2 2.24 0.11
5 10 -1 7.28 0.2
5 10 0 0.65 0.07
5 10 1 0.23 0.06
6 -10 0 0.3 0.07
6 -10 1 15.04 0.35
6 -10 2 3.11 0.13
6 -10 3 0.23 0.04
6 -10 4 0.08 0.04
6 -10 5 0.65 0.05
6 -10 6 7.3 0.21
6 -10 7 0.17 0.05
6 -10 8 4.22 0.15
6 -9 -4 5.03 0.17
6 -9 -3 3.42 0.14
6 -9 -2 5.11 0.17
6 -9 -1 0.06 0.06
6 -9 0 20.24 0.44
6 -9 1 0.05 0.07
6 -9 2 5.55 0.18
6 -9 3 32.4 0.48
6 -9 4 0.35 0.05
6 -9 5 0.64 0.06
6 -9 6 23.26 0.36
6 -9 7 17.63 0.29
6 -9 8 1.22 0.07
6 -9 9 6.24 0.14
6 -9 10 0.58 0.05
6 -9 11 16.49 0.27
6 -8 -8 1.31 0.06
6 -8 -7 12.16 0.2
6 -8 -6 0.3 0.07
6 -8 -5 1.84 0.11
6 -8 -4 9.2 0.25
6 -8 -3 14.34 0.34
6 -8 -2 3.69 0.15
6 -8 -1 0.32 0.08
6 -8 0 25.16 0.53
6 -8 1 27.5 0.57
6 -8 2 1.21 0.1
6 -8 3 1.76 0.07
6 -8 4 38.33 0.55
6 -8 5 17.35 0.28
6 -8 6 0.01 0.05
6 -8 7 4.99 0.12
6 -8 8 26.82 0.41
6 -8 9 4.75 0.12
6 -8 10 4.4 0.11
6 -8 11 13.3 0.23
6 -8 12 15.92 0.26
6 -8 13 7.34 0.22
6 -7 -10 13.23 0.3
6 -7 -9 2.81 0.09
6 -7 -8 0.82 0.06
6 -7 -7 20.88 0.31
6 -7 -6 1.01 0.06
6 -7 -5 1.43 0.1
6 -7 -4 8.77 0.24
6 -7 -3 15.55 0.36
6 -7 -2 0.45 0.09
6 -7 -1 6.74 0.2
6 -7 0 29.47 0.61
6 -7 1 21.32 0.46
6 -7 2 3.4 0.14
6 -7 3 6.39 0.14
6 -7 4 2.15 0.08
6 -7 5 12.8 0.22
6 -7 6 67.71 0.93
6 -7 7 0.43 0.06
6 -7 8 11.52 0.21
6 -7 9 11.2 0.2
6 -7 10 0.2 0.05
6 -7 11 8.2 0.16
6 -7 12 16.28 0.39
6 -7 13 0.05 0.06
6 -7 14 0.32 0.07
6 -6 -12 0.36 0.05
6 -6 -11 1.84 0.07
6 -6 -10 0.31 0.05
6 -6 -9 9.7 0.18
6 -6 -8 12.89 0.22
6 -6 -7 1.2 0.06
6 -6 -6 16.91 0.27
6 -6 -5 16.64 0.26
6 -6 -4 31.62 0.64
6 -6 -3 0.09 0.08
6 -6 -2 115.67 1.62
6 -6 -1 16.49 0.3
6 -6 0 0.03 0.07
6 -6 1 1.23 0.08
6 -6 2 54.58 0.8
6 -6 3 16.23 0.3
6 -6 4 1.59 0.06
6 -6 5 0.2 0.04
6 -6 6 22.64 0.27
6 -6 7 22.01 0.34
6 -6 8 14.2 0.24
6 -6 9 32.88 0.7
6 -6 10 12.48 0.32
6 -6 11 20.49 0.47
6 -6 12 0.34 0.08
6 -6 13 23.42 0.53
6 -6 14 16.74 0.4
6 -6 15 2.28 0.11
6 -5 -14 0.24 0.04
6 -5 -13 0.33 0.05
6 -5 -12 5.85 0.13
6 -5 -11 0.18 0.05
6 -5 -10 8.73 0.17
6 -5 -9 1.83 0.07
6 -5 -8 2.49 0.11
6 -5 -7 13.75 0.23
6 -5 -6 2.86 0.08
6 -5 -5 2.09 0.06
6 -5 -4 27.38 0.45
6 -5 -3 6.65 0.16
6 -5 -2 8.51 0.19
6 -5 -1 29.26 0.47
6 -5 0 3.26 0.11
6 -5 1 43.03 0.64
6 -5 2 0.04 0.07
6 -5 3 6.82 0.16
6 -5 4 24.39 0.29
6 -5 5 42.02 0.46
6 -5 6 4.18 0.12
6 -5 7 55.64 0.86
6 -5 8 21.03 0.38
6 -5 9 38.97 0.82
6 -5 10 5.91 0.19
6 -5 11 27.29 0.6
6 -5 12 27.88 0.61
6 -5 13 1.37 0.1
6 -5 14 2.93 0.13
6 -5 15 4.81 0.17
6 -5 16 15.82 0.38
6 -4 -15 5.26 0.12
6 -4 -14 8.81 0.16
6 -4 -13 1.07 0.06
6 -4 -12 30.82 0.44
6 -4 -11 10.35 0.19
6 -4 -10 2.35 0.09
6 -4 -9 1.76 0.08
6 -4 -8 10.85 0.17
6 -4 -7 7.98 0.13
6 -4 -6 0.39 0.04
6 -4 -5 14.84 0.19
6 -4 -4 1.53 0.06
6 -4 -3 49.76 0.74
6 -4 -2 48.81 0.72
6 -4 -1 11.62 0.22
6 -4 0 22.65 0.37
6 -4 1 33.39 0.51
6 -4 2 16.68 0.29
6 -4 4 40.11 0.98
6 -4 5 20.15 0.35
6 -4 6 33.06 0.54
6 -4 7 0.09 0.07
6 -4 8 3.28 0.11
6 -4 9 7.66 0.18
6 -4 10 10.89 0.29
6 -4 11 15.6 0.38
6 -4 12 36.19 0.77
6 -4 13 25.18 0.56
6 -4 14 1.57 0.1
6 -4 15 12.82 0.33
6 -4 16 0.83 0.08
6 -3 -16 1.55 0.07
6 -3 -15 1.07 0.06
6 -3 -14 0.12 0.05
6 -3 -13 7.91 0.16
6 -3 -12 52.84 0.71
6 -3 -11 13.89 0.23
6 -3 -10 10.09 0.18
6 -3 -9 20.47 0.25
6 -3 -8 14.79 0.19
6 -3 -7 10.65 0.15
6 -3 -6 55.46 0.57
6 -3 -5 1.39 0.05
6 -3 -4 11.5 0.19
6 -3 -3 1.85 0.08
6 -3 -2 19.25 0.33
6 -3 -1 111.1 1.54
6 -3 0 0.04 0.09
6 -3 5 80.04 1.18
6 -3 6 18.85 0.33
6 -3 7 44.96 0.7
6 -3 8 6.94 0.17
6 -3 9 31.85 0.53
6 -3 10 16.52 0.39
6 -3 11 6.74 0.21
6 -3 12 0.01 0.07
6 -3 13 8.09 0.24
6 -3 14 39.82 0.84
6 -3 15 1.8 0.11
6 -3 16 2.55 0.12
6 -2 -17 0.53 0.05
6 -2 -16 0.44 0.05
6 -2 -15 1.72 0.07
6 -2 -14 0.83 0.06
6 -2 -13 0.73 0.06
6 -2 -12 4.4 0.11
6 -2 -11 3.88 0.1
6 -2 -10 3.95 0.09
6 -2 -9 2.55 0.07
6 -2 -8 4.43 0.09
6 -2 -7 6.49 0.11
6 -2 -6 6.31 0.11
6 -2 -5 0.42 0.05
6 -2 -4 29.69 0.33
6 -2 -3 8.31 0.15
6 -2 5 1.7 0.08
6 -2 6 2.57 0.09
6 -2 7 37.66 0.6
6 -2 8 17.17 0.32
6 -2 9 3.95 0.12
6 -2 10 0.01 0.06
6 -2 11 8.84 0.25
6 -2 12 77.13 1.07
6 -2 13 0.14 0.05
6 -2 14 0.3 0.05
6 -2 15 37 0.54
6 -2 16 8.53 0.17
6 -1 -17 0.25 0.05
6 -1 -16 9.32 0.17
6 -1 -15 0.23 0.05
6 -1 -14 6.19 0.13
6 -1 -13 1.61 0.07
6 -1 -12 0.64 0.06
6 -1 -11 48.82 0.58
6 -1 -10 7.93 0.13
6 -1 -9 0.19 0.04
6 -1 -8 25.9 0.3
6 -1 -7 109 1.06
6 -1 -6 2.82 0.09
6 -1 -5 89.2 1.23
6 -1 -4 2.62 0.09
6 -1 -3 37.57 0.56
6 -1 -2 0.27 0.11
6 -1 5 43.83 0.68
6 -1 6 1.61 0.08
6 -1 7 3.37 0.08
6 -1 8 83 0.99
6 -1 9 11.46 0.2
6 -1 10 43.71 0.63
6 -1 11 0.81 0.06
6 -1 12 1.56 0.07
6 -1 13 6.13 0.14
6 -1 14 0.15 0.04
6 -1 15 0.25 0.05
6 -1 16 0.16 0.04
6 0 -18 0.03 0.06
6 0 -17 12.67 0.31
6 0 -16 0.2 0.05
6 0 -15 5.03 0.12
6 0 -14 2.04 0.08
6 0 -13 0.23 0.05
6 0 -12 3.74 0.09
6 0 -11 0.22 0.05
6 0 -10 10.67 0.15
6 0 -9 7.62 0.15
6 0 -8 6.19 0.15
6 0 -7 10.62 0.21
6 0 -6 125.77 1.72
6 0 -5 32.21 0.49
6 0 -4 0.07 0.05
6 0 -3 13.51 0.24
6 0 -2 73.51 1.03
6 0 2 47.6 1.04
6 0 3 8.68 0.18
6 0 4 16.69 0.29
6 0 5 76.7 1.08
6 0 6 31.81 0.36
6 0 7 23.88 0.29
6 0 8 0.42 0.04
6 0 9 56.34 0.6
6 0 10 80.25 1.11
6 0 11 2.05 0.08
6 0 12 0.19 0.05
6 0 13 42.95 0.63
6 0 14 7.46 0.16
6 0 15 0.54 0.05
6 1 -18 1.53 0.1
6 1 -17 1.6 0.1
6 1 -16 5.93 0.13
6 1 -15 3.29 0.1
6 1 -14 0.35 0.06
6 1 -13 6.78 0.14
6 1 -12 0.82 0.06
6 1 -11 0.01 0.06
6 1 -10 0.6 0.07
6 1 -9 10.35 0.21
6 1 -8 10.67 0.21
6 1 -7 0.08 0.08
6 1 -6 2.96 0.1
6 1 -5 46.67 0.68
6 1 -4 0.99 0.07
6 1 -3 0.09 0.04
6 1 -2 10.63 0.14
6 1 -1 25.34 0.34
6 1 0 0.1 0.05
6 1 1 3.67 0.11
6 1 2 0.53 0.06
6 1 3 25.62 0.41
6 1 4 10.79 0.21
6 1 5 4.93 0.13
6 1 6 4.52 0.09
6 1 7 37.93 0.42
6 1 8 13.21 0.18
6 1 9 0.2 0.05
6 1 10 31.14 0.47
6 1 11 0.81 0.06
6 1 12 8.48 0.17
6 1 13 0.04 0.05
6 1 14 5.19 0.17
6 1 15 1.68 0.07
6 2 -18 3.05 0.13
6 2 -17 7.1 0.21
6 2 -16 19.35 0.43
6 2 -15 23.31 0.35
6 2 -14 0.01 0.07
6 2 -13 1.2 0.1
6 2 -12 16.97 0.31
6 2 -11 23.16 0.39
6 2 -10 5.48 0.15
6 2 -9 0.47 0.06
6 2 -8 5.1 0.13
6 2 -7 11.62 0.16
6 2 -6 44.98 0.47
6 2 -5 14.22 0.18
6 2 -4 44.1 0.46
6 2 -3 42.36 0.44
6 2 -2 19.5 0.23
6 2 -1 46.35 0.48
6 2 0 199.65 2.69
6 2 1 2.82 0.1
6 2 2 0.2 0.06
6 2 3 30.06 0.47
6 2 4 26.02 0.42
6 2 5 2.15 0.09
6 2 6 5.42 0.1
6 2 7 0.22 0.04
6 2 8 16.49 0.28
6 2 9 29.31 0.45
6 2 10 0.3 0.06
6 2 11 44.99 0.66
6 2 12 2.02 0.08
6 2 13 11.14 0.21
6 2 14 5.37 0.13
6 3 -15 2.27 0.12
6 3 -14 5.27 0.18
6 3 -13 1.49 0.11
6 3 -12 3.92 0.1
6 3 -11 5.62 0.11
6 3 -10 25.86 0.3
6 3 -9 0.86 0.05
6 3 -8 2.83 0.07
6 3 -7 3.81 0.08
6 3 -6 2.52 0.06
6 3 -5 20.26 0.24
6 3 -4 1.1 0.05
6 3 -3 7.55 0.12
6 3 -2 3.78 0.08
6 3 -1 69.8 0.7
6 3 0 0.97 0.05
6 3 1 48.55 0.72
6 3 2 25.89 0.42
6 3 3 13.08 0.25
6 3 4 3 0.11
6 3 5 52.44 0.78
6 3 6 13.9 0.27
6 3 7 1.95 0.08
6 3 8 8.77 0.18
6 3 9 3.19 0.1
6 3 10 36.18 0.54
6 3 11 0.33 0.05
6 3 12 3.48 0.1
6 3 13 9.41 0.18
6 4 -16 2.2 0.11
6 4 -15 0.16 0.08
6 4 -14 8.73 0.17
6 4 -13 9.43 0.18
6 4 -12 1.03 0.07
6 4 -11 0.27 0.05
6 4 -10 29.85 0.34
6 4 -9 1.13 0.06
6 4 -8 1.72 0.06
6 4 -7 4.17 0.09
6 4 -6 7.34 0.12
6 4 -5 5.27 0.1
6 4 -4 1.98 0.06
6 4 -3 0.1 0.05
6 4 -2 17.33 0.21
6 4 -1 11.48 0.16
6 4 0 13.49 0.18
6 4 1 23.3 0.39
6 4 2 6.46 0.16
6 4 3 11.82 0.24
6 4 4 0.14 0.06
6 4 5 11.89 0.31
6 4 6 1.93 0.12
6 4 7 0.06 0.06
6 4 8 6.8 0.15
6 4 9 0.75 0.06
6 4 10 0.6 0.05
6 4 11 6.79 0.15
6 4 12 1.64 0.07
6 5 -18 0 0.06
6 5 -17 0.07 0.07
6 5 -16 0.02 0.07
6 5 -15 6.07 0.19
6 5 -14 2.46 0.09
6 5 -13 0.15 0.05
6 5 -12 0.81 0.06
6 5 -11 42.81 0.59
6 5 -10 8.4 0.16
6 5 -9 33.04 0.37
6 5 -8 17.59 0.22
6 5 -7 11.48 0.16
6 5 -6 0.1 0.05
6 5 -5 35.2 0.38
6 5 -4 11.2 0.16
6 5 -3 0.61 0.05
6 5 -2 0.09 0.04
6 5 -1 0.2 0.04
6 5 0 43.08 0.51
6 5 1 21.49 0.28
6 5 2 1.82 0.12
6 5 3 8.78 0.26
6 5 4 49.33 1
6 5 5 30.25 0.65
6 5 6 48.53 0.98
6 5 7 15.95 0.27
6 5 8 6.31 0.14
6 5 9 0.06 0.04
6 5 10 3.99 0.11
6 6 -17 0.77 0.08
6 6 -16 1 0.09
6 6 -15 0.26 0.08
6 6 -14 1.33 0.1
6 6 -13 0.49 0.06
6 6 -12 2.99 0.09
6 6 -11 4.58 0.12
6 6 -10 8.02 0.16
6 6 -9 2.45 0.09
6 6 -8 1.21 0.07
6 6 -7 2.03 0.08
6 6 -6 6.55 0.14
6 6 -5 5.3 0.12
6 6 -4 6.44 0.14
6 6 -3 10.71 0.19
6 6 -2 3.88 0.11
6 6 -1 1.2 0.07
6 6 0 0.56 0.06
6 6 1 12.88 0.22
6 6 2 4.94 0.18
6 6 3 0.01 0.08
6 6 4 0.67 0.09
6 6 5 10.3 0.28
6 6 6 19.67 0.46
6 6 7 0.19 0.09
6 6 8 1.4 0.09
6 7 -16 0.23 0.07
6 7 -15 1.99 0.11
6 7 -14 1.46 0.1
6 7 -13 3.76 0.1
6 7 -12 0.2 0.05
6 7 -11 0.57 0.06
6 7 -10 4.12 0.11
6 7 -9 13.08 0.22
6 7 -8 0.14 0.06
6 7 -7 4.85 0.12
6 7 -6 11.34 0.2
6 7 -5 15.53 0.25
6 7 -4 5.76 0.13
6 7 -3 6.86 0.14
6 7 -2 6.43 0.14
6 7 -1 1.02 0.07
6 7 0 0.67 0.06
6 7 1 3.03 0.09
6 7 2 2.09 0.08
6 7 3 3.69 0.16
6 7 4 0.12 0.08
6 7 5 0.61 0.1
6 8 -15 4.15 0.15
6 8 -14 1.07 0.09
6 8 -13 3.06 0.13
6 8 -12 0.8 0.06
6 8 -11 0.3 0.05
6 8 -10 2.57 0.09
6 8 -9 0.55 0.06
6 8 -8 4.54 0.11
6 8 -7 1.44 0.07
6 8 -6 6.04 0.13
6 8 -5 1.94 0.08
6 8 -4 46.03 0.63
6 8 -3 1.19 0.07
6 8 -2 2.44 0.09
6 8 -1 11.14 0.2
6 8 0 12.66 0.22
6 8 1 0.02 0.07
6 8 2 7.8 0.21
6 9 -12 3.97 0.15
6 9 -11 1.59 0.07
6 9 -10 0.2 0.05
6 9 -9 0.01 0.05
6 9 -8 1.91 0.08
6 9 -7 2.11 0.08
6 9 -6 2.48 0.08
6 9 -5 0.89 0.06
6 9 -4 0.12 0.06
6 9 -3 2.3 0.11
6 9 -2 0.46 0.07
6 9 -1 0.01 0.06
6 9 0 0.48 0.07
7 -9 2 1.55 0.1
7 -9 3 1.38 0.09
7 -8 -4 5.2 0.17
7 -8 -3 0.22 0.07
7 -8 -2 4.17 0.15
7 -8 -1 6.78 0.2
7 -8 0 9.85 0.26
7 -8 1 12.88 0.31
7 -8 2 5.97 0.19
7 -8 3 3.14 0.13
7 -8 4 23.9 0.51
7 -8 5 2.98 0.13
7 -8 6 12.31 0.22
7 -8 7 12.92 0.22
7 -8 8 0.07 0.04
7 -8 9 7.62 0.22
7 -7 -7 0.01 0.06
7 -7 -6 6.96 0.2
7 -7 -5 2.17 0.11
7 -7 -4 0.08 0.07
7 -7 -3 1.11 0.1
7 -7 -2 22.36 0.48
7 -7 -1 5.37 0.18
7 -7 0 4.62 0.17
7 -7 1 9.51 0.25
7 -7 2 25.14 0.53
7 -7 3 0.69 0.08
7 -7 4 11.66 0.29
7 -7 5 11.34 0.28
7 -7 6 10.57 0.19
7 -7 7 0.34 0.05
7 -7 8 0.3 0.07
7 -7 9 24.37 0.54
7 -7 10 6.56 0.2
7 -7 11 0.24 0.07
7 -6 -9 11.35 0.19
7 -6 -8 0.75 0.05
7 -6 -7 1.31 0.06
7 -6 -6 14.48 0.34
7 -6 -5 5.87 0.19
7 -6 -4 8.88 0.24
7 -6 -3 12.23 0.3
7 -6 -2 10.25 0.27
7 -6 -1 17.18 0.39
7 -6 0 0.08 0.07
7 -6 1 0.16 0.08
7 -6 2 0.45 0.08
7 -6 3 12.95 0.31
7 -6 4 19.86 0.43
7 -6 6 20.6 0.47
7 -6 7 3.22 0.14
7 -6 8 3.36 0.14
7 -6 9 0.06 0.07
7 -6 10 22.54 0.51
7 -6 11 1.65 0.1
7 -6 12 0.44 0.08
7 -5 -11 4.18 0.1
7 -5 -10 0.92 0.06
7 -5 -9 1.91 0.07
7 -5 -8 15.63 0.25
7 -5 -7 3.82 0.1
7 -5 -6 1.58 0.07
7 -5 -5 9.09 0.25
7 -5 -4 74.95 1.42
7 -5 -3 0 0.07
7 -5 -2 8.33 0.23
7 -5 -1 10.6 0.27
7 -5 0 36.13 0.72
7 -5 1 0.77 0.08
7 -5 2 16.31 0.37
7 -5 6 1.06 0.09
7 -5 7 52.01 1.06
7 -5 8 5.5 0.18
7 -5 9 1.11 0.09
7 -5 10 8.38 0.24
7 -5 11 31.58 0.68
7 -5 12 5.51 0.18
7 -5 13 9.8 0.26
7 -4 -13 1.53 0.07
7 -4 -12 1.6 0.07
7 -4 -11 2.67 0.09
7 -4 -10 0.9 0.06
7 -4 -9 1.49 0.07
7 -4 -8 0.34 0.05
7 -4 -7 6.28 0.13
7 -4 -6 10.89 0.19
7 -4 -5 0.56 0.05
7 -4 -4 1.31 0.09
7 -4 -3 20.79 0.45
7 -4 -2 0.02 0.05
7 -4 -1 4.38 0.15
7 -4 7 2.04 0.11
7 -4 8 27.88 0.6
7 -4 9 26.63 0.58
7 -4 10 4.05 0.15
7 -4 11 5.99 0.19
7 -4 12 11.29 0.3
7 -4 13 3.07 0.13
7 -3 -14 23.32 0.34
7 -3 -13 0.98 0.06
7 -3 -12 8.3 0.16
7 -3 -11 0.27 0.05
7 -3 -10 9.68 0.18
7 -3 -9 0.9 0.06
7 -3 -8 5.59 0.13
7 -3 -7 0.83 0.08
7 -3 -6 5.57 0.17
7 -3 -5 20.41 0.27
7 -3 -4 2.42 0.11
7 -3 7 0.83 0.08
7 -3 8 0.14 0.06
7 -3 9 0.14 0.07
7 -3 10 39.14 0.82
7 -3 11 5.3 0.18
7 -3 12 4.6 0.17
7 -3 13 21.97 0.5
7 -2 -15 2.87 0.09
7 -2 -14 8.37 0.16
7 -2 -13 18.42 0.29
7 -2 -12 4.32 0.11
7 -2 -11 2.55 0.09
7 -2 -10 0.07 0.05
7 -2 -9 17.99 0.28
7 -2 -8 19.05 0.29
7 -2 -7 1.29 0.07
7 -2 -6 0.16 0.06
7 -2 -5 10.25 0.21
7 -2 -4 10.46 0.25
7 -2 7 29.82 0.64
7 -2 8 3.51 0.14
7 -2 9 0.65 0.08
7 -2 10 10.96 0.29
7 -2 11 14.35 0.36
7 -2 12 13.61 0.34
7 -2 13 3.69 0.15
7 -1 -15 0.77 0.06
7 -1 -14 0.61 0.06
7 -1 -13 0.35 0.06
7 -1 -12 7.75 0.16
7 -1 -11 0.76 0.07
7 -1 -10 0.04 0.07
7 -1 -9 0.86 0.09
7 -1 -8 8.8 0.23
7 -1 -7 1.04 0.08
7 -1 -6 4.49 0.13
7 -1 -5 0.07 0.09
7 -1 -4 3.79 0.12
7 -1 8 1.04 0.09
7 -1 9 6.66 0.2
7 -1 10 25.68 0.57
7 -1 11 11.24 0.21
7 -1 12 5.17 0.12
7 -1 13 21.69 0.34
7 0 -16 0.41 0.05
7 0 -15 0.08 0.05
7 0 -14 2.17 0.08
7 0 -13 15 0.24
7 0 -12 0.21 0.07
7 0 -11 4.51 0.16
7 0 -10 18.53 0.4
7 0 -9 26.88 0.54
7 0 -8 9.43 0.24
7 0 -7 72.32 1.03
7 0 -6 0.29 0.06
7 0 -5 2.77 0.1
7 0 -4 9.9 0.2
7 0 -3 25.5 0.5
7 0 5 13.96 0.34
7 0 6 40.07 0.82
7 0 7 1.93 0.11
7 0 8 66.94 0.93
7 0 9 0.12 0.05
7 0 10 0.27 0.05
7 0 11 0.06 0.04
7 0 12 3.19 0.09
7 0 13 1.67 0.07
7 1 -16 0.13 0.07
7 1 -15 0.23 0.07
7 1 -14 0.11 0.07
7 1 -13 0.66 0.08
7 1 -12 3.69 0.15
7 1 -11 0.1 0.07
7 1 -10 0.01 0.08
7 1 -9 0.32 0.08
7 1 -8 46.23 0.7
7 1 -7 0.33 0.06
7 1 -6 7.88 0.18
7 1 -5 11.64 0.23
7 1 -4 19.12 0.33
7 1 -3 0.85 0.07
7 1 1 1.06 0.09
7 1 2 0.69 0.07
7 1 3 57.86 0.85
7 1 4 4.34 0.13
7 1 5 0.02 0.07
7 1 6 9.07 0.25
7 1 7 42.16 0.86
7 1 8 13.04 0.23
7 1 9 17.71 0.29
7 1 10 5.13 0.12
7 1 11 25.83 0.4
7 1 12 0.13 0.04
7 2 -16 0.55 0.08
7 2 -15 0.82 0.09
7 2 -14 0.47 0.08
7 2 -13 1.69 0.11
7 2 -12 0.83 0.1
7 2 -11 2.23 0.12
7 2 -10 0.23 0.08
7 2 -9 3.44 0.14
7 2 -8 6.57 0.19
7 2 -7 10.64 0.22
7 2 -6 5.09 0.14
7 2 -5 5.75 0.15
7 2 -4 10.36 0.16
7 2 -3 2.19 0.07
7 2 -2 12.81 0.19
7 2 -1 0.24 0.06
7 2 0 0.98 0.07
7 2 1 5.91 0.15
7 2 2 0.01 0.06
7 2 3 0.56 0.09
7 2 4 7.15 0.21
7 2 5 12.61 0.32
7 2 6 0.01 0.08
7 2 7 7.43 0.22
7 2 8 22.02 0.49
7 2 9 1.13 0.07
7 2 10 0.04 0.05
7 2 11 2.68 0.09
7 3 -16 2.94 0.13
7 3 -15 2.63 0.12
7 3 -14 5.91 0.19
7 3 -13 1.61 0.11
7 3 -12 11.89 0.3
7 3 -11 1.61 0.11
7 3 -10 1.08 0.09
7 3 -9 1.01 0.06
7 3 -8 2.79 0.09
7 3 -7 19.41 0.3
7 3 -6 16.26 0.21
7 3 -5 2.55 0.07
7 3 -4 0.4 0.05
7 3 -3 51.52 0.54
7 3 -2 55.1 0.57
7 3 -1 25.92 0.43
7 3 0 10.79 0.28
7 3 1 19.03 0.43
7 3 2 4.03 0.16
7 3 3 4.63 0.17
7 3 4 13.83 0.34
7 3 5 0.34 0.09
7 3 6 5.12 0.18
7 3 7 2.45 0.12
7 3 8 8.04 0.23
7 3 9 31.4 0.67
7 3 10 0.09 0.04
7 4 -15 0.19 0.07
7 4 -14 0.03 0.08
7 4 -13 3.3 0.1
7 4 -12 2.85 0.09
7 4 -11 1.42 0.07
7 4 -10 3.59 0.1
7 4 -9 1 0.06
7 4 -8 0.08 0.06
7 4 -7 1.02 0.06
7 4 -6 4.72 0.11
7 4 -5 3.31 0.1
7 4 -4 0.07 0.06
7 4 -3 7.57 0.15
7 4 -2 9.43 0.17
7 4 -1 19.99 0.45
7 4 0 0.96 0.1
7 4 1 0.11 0.08
7 4 2 10.44 0.28
7 4 3 18.44 0.43
7 4 4 0.2 0.08
7 4 5 1.25 0.1
7 4 6 10.73 0.29
7 4 7 1.74 0.11
7 4 8 6.45 0.2
7 4 9 3.82 0.15
7 5 -15 1.15 0.07
7 5 -14 0.45 0.06
7 5 -13 3.53 0.1
7 5 -12 11.82 0.21
7 5 -11 0.78 0.06
7 5 -10 1.63 0.07
7 5 -9 5.16 0.12
7 5 -8 2.1 0.08
7 5 -7 0.15 0.06
7 5 -6 0.8 0.06
7 5 -5 1.56 0.07
7 5 -4 6.53 0.14
7 5 -3 1.09 0.07
7 5 -2 0.1 0.05
7 5 -1 25.73 0.56
7 5 0 1.81 0.11
7 5 1 0.1 0.08
7 5 2 4.88 0.18
7 5 3 14.66 0.36
7 5 4 0.03 0.07
7 5 5 2.71 0.13
7 5 6 0.23 0.08
7 5 7 2.08 0.11
7 6 -14 0.36 0.05
7 6 -13 8.76 0.17
7 6 -12 0.16 0.07
7 6 -11 19.97 0.31
7 6 -10 2.52 0.09
7 6 -9 0.05 0.06
7 6 -8 3.54 0.1
7 6 -7 16.55 0.27
7 6 -6 0.42 0.06
7 6 -5 2.33 0.08
7 6 -4 1.86 0.08
7 6 -3 0.12 0.05
7 6 -2 12.31 0.21
7 6 -1 0.53 0.06
7 6 0 8.75 0.25
7 6 1 6.35 0.21
7 6 2 12.49 0.32
7 6 3 0.6 0.09
7 6 4 44.98 0.92
7 6 5 5.48 0.19
7 7 -13 1.61 0.1
7 7 -12 1.11 0.06
7 7 -11 0.09 0.06
7 7 -10 1.74 0.07
7 7 -9 0.18 0.05
7 7 -8 0.18 0.05
7 7 -7 0.05 0.05
7 7 -6 4.17 0.11
7 7 -5 1.11 0.07
7 7 -4 0.01 0.05
7 7 -3 2.62 0.09
7 7 -2 0.01 0.05
7 7 -1 3.17 0.14
7 7 0 0.01 0.05
7 7 1 1.61 0.11
7 7 2 0.05 0.07
7 8 -10 1.33 0.09
7 8 -9 4.27 0.11
7 8 -8 3.19 0.09
7 8 -7 0.72 0.06
7 8 -6 10.18 0.25
7 8 -5 4.57 0.11
7 8 -4 0.31 0.05
7 8 -3 0.71 0.06
7 8 -2 3.06 0.09
8 -7 0 15.6 0.36
8 -7 1 3.6 0.14
8 -7 2 6.11 0.18
8 -6 -5 0.46 0.08
8 -6 -4 8.36 0.23
8 -6 -3 0.05 0.07
8 -6 -2 10.28 0.26
8 -6 -1 4.91 0.17
8 -6 0 4.35 0.15
8 -5 -7 0.01 0.07
8 -5 -6 18.04 0.4
8 -5 -5 6.89 0.2
8 -5 -4 9.53 0.25
8 -5 -3 3.84 0.15
8 -5 -2 4.44 0.16
8 -4 -9 0.09 0.04
8 -4 -8 0.81 0.06
8 -4 -7 8.17 0.23
8 -4 -6 19.8 0.43
8 -4 -5 7.29 0.21
8 -3 -11 0.01 0.06
8 -3 -10 0.54 0.05
8 -3 -9 2.01 0.08
8 -3 -8 0.67 0.06
8 -3 -7 4.68 0.16
8 -2 -12 2.11 0.11
8 -2 -11 0.92 0.06
8 -2 -10 6.96 0.2
8 -2 -9 0.08 0.06
8 -2 -8 1.85 0.1
8 -2 -7 2.32 0.11
8 -2 -6 1.82 0.1
8 -1 -12 0.6 0.08
8 -1 -11 7.45 0.21
8 -1 -10 1.32 0.09
8 -1 -9 4.41 0.16
8 -1 -8 0.68 0.08
8 -1 -7 4.43 0.15
8 -1 -6 0.71 0.07
8 -1 -5 0.36 0.07
8 0 -13 0.29 0.07
8 0 -12 1.37 0.09
8 0 -11 2.45 0.12
8 0 -10 1.73 0.11
8 0 -9 5 0.17
8 0 -8 0.07 0.07
8 0 -7 0.56 0.08
8 0 -6 1.22 0.09
8 0 -5 0.01 0.06
8 1 -13 3.18 0.13
8 1 -12 3.66 0.14
8 1 -11 2.05 0.11
8 1 -10 16.6 0.37
8 1 -9 24.94 0.51
8 1 -8 3.06 0.13
8 1 -7 1.08 0.09
8 1 -6 11.35 0.27
8 1 -5 7.92 0.21
8 1 -4 1.97 0.11
8 1 5 18.05 0.42
8 1 6 43.88 0.89
8 1 7 3.35 0.14
8 1 8 1.68 0.1
8 2 -13 0.42 0.07
8 2 -12 0.22 0.08
8 2 -11 0.11 0.07
8 2 -10 8.12 0.22
8 2 -9 2.25 0.11
8 2 -8 4.87 0.16
8 2 -7 1.25 0.09
8 2 -6 1.06 0.09
8 2 -5 1.95 0.11
8 2 -4 13.27 0.31
8 2 -1 5.23 0.18
8 2 0 2.01 0.12
8 2 1 14.82 0.36
8 2 2 0.87 0.09
8 2 3 4.96 0.17
8 2 4 7.03 0.21
8 2 5 8.69 0.24
8 2 6 0.17 0.07
8 2 7 19.34 0.44
8 3 -13 0.06 0.07
8 3 -12 0.35 0.08
8 3 -11 2.31 0.12
8 3 -10 1.81 0.11
8 3 -9 0.12 0.07
8 3 -8 9.28 0.24
8 3 -7 3.07 0.13
8 3 -6 0.81 0.09
8 3 -5 1.55 0.07
8 3 -4 15.66 0.25
8 3 -3 0.03 0.06
8 3 -2 0.44 0.08
8 3 -1 0.02 0.07
8 3 0 2.09 0.12
8 3 1 0.49 0.09
8 3 2 0.92 0.09
8 3 3 0.62 0.08
8 3 4 2.65 0.12
8 3 5 6.79 0.21
8 3 6 3.29 0.14
8 4 -12 0.09 0.07
8 4 -11 0.08 0.08
8 4 -10 0.1 0.07
8 4 -9 7.87 0.16
8 4 -8 1.63 0.1
8 4 -7 0.69 0.06
8 4 -6 2.38 0.08
8 4 -5 19.31 0.3
8 4 -4 4.19 0.11
8 4 -3 31.03 0.44
8 4 -2 6.62 0.2
8 4 -1 2.88 0.13
8 4 0 0.75 0.09
8 4 1 10.92 0.29
8 4 2 6.09 0.2
8 4 3 0.15 0.07
8 4 4 0.01 0.06
8 4 5 0.38 0.07
8 5 -11 0.04 0.05
8 5 -10 0.47 0.05
8 5 -9 0.08 0.05
8 5 -8 1.58 0.07
8 5 -7 0.08 0.05
8 5 -6 0.68 0.05
8 5 -5 0.36 0.05
8 5 -4 4.45 0.11
8 5 -3 1.77 0.07
8 5 -2 1.04 0.09
8 5 -1 0.95 0.09
8 5 0 3.22 0.14
8 5 1 1.2 0.09
8 5 2 1.33 0.09
8 6 -8 1.1 0.06
8 6 -7 0.16 0.05
8 6 -6 0.35 0.05
8 6 -5 0.16 0.05
8 6 -4 1.88 0.07
8 6 -3 8.8 0.24
8 6 -2 0.36 0.05
8 6 -1 1.93 0.11
9 0 -7 0.31 0.07
9 1 -7 0.5 0.07
9 2 -7 0.31 0.06
