#------------------------------------------------------------------------------
#$Date: 2020-06-06 01:23:54 +0300 (Sat, 06 Jun 2020) $
#$Revision: 252947 $
#$URL: file:///home/coder/svn-repositories/cod/cif/2/02/21/2022137.cif $
#------------------------------------------------------------------------------
#
# This file is available in the Crystallography Open Database (COD),
# http://www.crystallography.net/. The original data for this entry
# were provided by IUCr Journals, http://journals.iucr.org/.
#
# The file may be used within the scientific community so long as
# proper attribution is given to the journal article from which the
# data were obtained.
#
data_2022137
loop_
_publ_author_name
'Okuniewski, Andrzej'
'Rosiak, Damian'
'Chojnacki, Jaros\/law'
_publ_section_title
;
 Impact of the anion and chalcogen on the crystal structure and properties
 of 4,6-dimethyl-2-pyrimido(thio)nium halides
;
_journal_coeditor_code           WP3004
_journal_issue                   5
_journal_name_full               'Acta Crystallographica Section C'
_journal_page_first              468
_journal_page_last               475
_journal_paper_doi               10.1107/S2053229620005525
_journal_volume                  76
_journal_year                    2020
_chemical_formula_iupac          'C6 H9 N2 S +, F2 H -, C H4 N2 S'
_chemical_formula_moiety         'C6 H9 N2 S +, F2 H -, C H4 N2 S'
_chemical_formula_sum            'C7 H14 F2 N4 S2'
_chemical_formula_weight         256.34
_chemical_name_common
;
4,6-Dimethyl-2-pyrimidothionium bifluoride--thiourea (1/1)
;
_chemical_name_systematic
;
4,6-Dimethyl-2-sulfanylidene-2,3-dihydropyrimidin-1-ium bifluoride--thiourea
(1/1)
;
_space_group_crystal_system      monoclinic
_space_group_IT_number           11
_space_group_name_Hall           '-P 2yb'
_space_group_name_H-M_alt        'P 1 21/m 1'
_atom_sites_solution_hydrogens   mixed
_atom_sites_solution_primary     dual
_audit_creation_method
;
Olex2 1.2
(compiled 2018.05.29 svn.r3508 for OlexSys, GUI svn.r5506)
;
_cell_angle_alpha                90
_cell_angle_beta                 99.355(15)
_cell_angle_gamma                90
_cell_formula_units_Z            2
_cell_length_a                   6.3876(11)
_cell_length_b                   8.8268(13)
_cell_length_c                   10.500(2)
_cell_measurement_reflns_used    1229
_cell_measurement_temperature    120
_cell_measurement_theta_max      28.66
_cell_measurement_theta_min      3.11
_cell_volume                     584.14(17)
_computing_cell_refinement
;
X-AREA (Stoe & Cie, 2009)
;
_computing_data_collection
;
X-AREA (Stoe & Cie, 2009)
;
_computing_data_reduction
;
X-RED32 (Stoe & Cie, 2009)
;
_computing_molecular_graphics
;
OLEX2 (Dolomanov <i>et al.</i>,  2009)
;
_computing_publication_material
;
OLEX2 (Dolomanov <i>et al.</i>,  2009)
;
_computing_structure_refinement
;
SHELXL2018 (Sheldrick, 2015b)
;
_computing_structure_solution
;
SHELXT (Sheldrick, 2015a)
;
_diffrn_ambient_temperature      120.0
_diffrn_detector                 'image plate (34 cm diameter)'
_diffrn_detector_area_resol_mean 6.67
_diffrn_measured_fraction_theta_full 0.979
_diffrn_measured_fraction_theta_max 0.977
_diffrn_measurement_device       '2-circle goniometer'
_diffrn_measurement_device_type  'Stoe IPDS 2T'
_diffrn_measurement_method       'rotation method'
_diffrn_radiation_monochromator  'parabolic x-ray mirror'
_diffrn_radiation_probe          x-ray
_diffrn_radiation_type           MoK\a
_diffrn_radiation_wavelength     0.71073
_diffrn_reflns_av_R_equivalents  0.0468
_diffrn_reflns_av_unetI/netI     0.0341
_diffrn_reflns_limit_h_max       8
_diffrn_reflns_limit_h_min       -7
_diffrn_reflns_limit_k_max       11
_diffrn_reflns_limit_k_min       -10
_diffrn_reflns_limit_l_max       13
_diffrn_reflns_limit_l_min       -13
_diffrn_reflns_number            3316
_diffrn_reflns_theta_full        25.242
_diffrn_reflns_theta_max         28.413
_diffrn_reflns_theta_min         3.934
_diffrn_source                   'microfocus sealed X-ray tube'
_diffrn_source_current           1.000
_diffrn_source_power             0.050
_diffrn_source_voltage           50
_exptl_absorpt_coefficient_mu    0.46
_exptl_absorpt_correction_T_max  0.9674
_exptl_absorpt_correction_T_min  0.8528
_exptl_absorpt_correction_type   integration
_exptl_absorpt_process_details
;
[X-RED32 (Stoe & Cie, 2009), analogous to Coppens (1970)]
;
_exptl_crystal_colour            yellow
_exptl_crystal_density_diffrn    1.457
_exptl_crystal_description       plate
_exptl_crystal_F_000             268
_exptl_crystal_size_max          0.32
_exptl_crystal_size_mid          0.2
_exptl_crystal_size_min          0.07
_refine_diff_density_max         0.553
_refine_diff_density_min         -0.486
_refine_ls_extinction_method     none
_refine_ls_goodness_of_fit_ref   1.180
_refine_ls_hydrogen_treatment    mixed
_refine_ls_matrix_type           full
_refine_ls_number_parameters     80
_refine_ls_number_reflns         1532
_refine_ls_number_restraints     0
_refine_ls_restrained_S_all      1.180
_refine_ls_R_factor_all          0.0749
_refine_ls_R_factor_gt           0.0707
_refine_ls_shift/su_max          0.000
_refine_ls_shift/su_mean         0.000
_refine_ls_structure_factor_coef Fsqd
_refine_ls_weighting_details
'w=1/[\s^2^(Fo^2^)+(0.0998P)^2^+1.0253P] where P=(Fo^2^+2Fc^2^)/3'
_refine_ls_weighting_scheme      calc
_refine_ls_wR_factor_gt          0.2168
_refine_ls_wR_factor_ref         0.2199
_reflns_number_gt                1375
_reflns_number_total             1532
_reflns_threshold_expression     'I > 2\s(I)'
_cod_data_source_file            wp3004sup1.cif
_cod_data_source_block           6
_cod_original_cell_volume        584.15(17)
_cod_original_sg_symbol_H-M      'P 21/m'
_cod_database_code               2022137
_shelx_space_group_comment
;
The symmetry employed for this shelxl refinement is uniquely defined
by the following loop, which should always be used as a source of
symmetry information in preference to the above space-group names.
They are only intended as comments.
;
_shelx_estimated_absorpt_t_min   0.868
_shelx_estimated_absorpt_t_max   0.969
_shelx_hkl_file
;
  -4   4  -6   22.06    1.96
  -4   6  -4    0.95    2.25
  -2  -1 -11    0.22    1.41
   0  -2  -3 1712.56    7.48
   1  -4 -11    0.31    1.58
   2   5   4  196.91    2.21
   3  10   4   29.13    1.85
   4  -5  -9    1.26    1.80
   4   5   4   97.69    1.81
   5  -5  -9   51.70    3.33
   5   1   2  360.65    3.00
   5   6   4    2.62    1.40
   5   7   4   16.56    1.58
   5   8   4    2.96    1.47
   6   4   3   -0.36    0.99
   7   3   2    0.47    1.54
   8  -1  -2    4.69    2.02
   8   1   0   55.34    2.08
  -4   5  -5  373.99    5.32
  -4   7  -4   92.59    5.53
  -4   8  -4    4.39    4.14
  -3   1 -10   64.05    2.12
  -3   1  -6    7.58    1.05
  -3  10  -1  164.98    5.62
  -2  -1 -10  172.57    2.49
  -2  -1  -7   25.33    1.18
  -1  -1  -3 5089.82   11.78
   1  -4 -10  166.17    2.81
   1   3   3  103.08    1.71
   1   6   4  265.24    2.57
   1   7   4  104.23    1.67
   1   8   4    5.50    1.10
   1   9   4   74.30    1.97
   2  10   4    4.33    1.16
   3   2   3  249.83    2.31
   3   4   4  104.02    1.76
   4  -5 -11    2.72    1.87
   4   2   3  514.70    3.28
   5  -5 -10   51.91    3.53
   7   1   1  200.00    2.68
   7   5   3   61.96    2.52
  -3   1  -9   17.36    1.37
  -3   1  -8    2.58    1.36
  -3   1  -7   25.12    1.26
  -3   2  -4    0.47    1.21
  -2   0  -4    1.69    1.12
  -1  -2 -11    4.79    1.16
  -1   4   2   80.85    2.11
   0  -3 -11   61.66    1.89
   0   4   3 1281.97    5.74
   1  -3  -4   42.16    1.41
   1  10   4  143.69    2.58
   2  -4 -13  136.97    2.78
   2  -4  -6    1.86    1.29
   2   2   3  324.67    2.85
   3  -4  -5  540.39    5.09
   4   4   4    0.78    0.89
   5   2   3   61.69    1.52
   6  -1   0   21.03    1.60
   6   0   1  101.53    2.11
   6   3   3   44.31    1.70
   6   6   4   19.44    1.74
   7  -4  -7   24.15    3.66
   7  -2  -2    0.68    2.01
  -4   5  -9  116.15    3.36
  -4   5  -6   23.01    2.46
  -3   2 -11  155.24    2.99
  -2   0 -12   92.03    2.13
  -1  -2  -9  263.34    3.04
  -1   8   3  308.84    3.19
   0  -3  -9   57.51    1.68
   1   5   4  130.30    1.72
   2  -4 -12   65.62    1.98
   3   8   5   -1.55    1.24
   5  -4  -5  527.94    7.41
   5   4   4    3.14    1.33
   6   1   2   -0.46    1.16
   6   5   4  112.12    2.20
   7   2   2   82.56    2.00
   7   4   3   11.52    1.72
  -4   5  -7    0.54    1.81
  -4   6  -5  199.89    4.83
  -2   0 -11  183.29    2.87
  -2  11   1   21.96    2.65
  -1   7   3  135.09    2.21
   0   2   2 3301.09   10.88
   0   7   4 1987.56    6.82
   0   8   4   23.35    1.51
   1  -2  -2    0.38    1.34
   1   0   1 2980.82   13.34
   1   1   2 1372.52    6.84
   1  11   4    2.17    1.79
   2  -4 -11   46.94    1.59
   2  -4 -10    8.75    1.57
   2  -4  -8 1150.00    6.63
   2  -4  -7  133.70    2.57
   2   8   5   15.82    1.42
   3   3   4    0.94    1.13
   3   6   5   47.90    1.54
   3   7   5   86.14    1.50
   3   9   5   66.85    2.03
   4  -4  -5    5.64    2.05
   4   3   4    5.84    1.21
   4   6   5  191.07    2.38
   4   7   5   16.43    1.09
   4   9   5    6.24    1.60
   8  -2  -3   34.26    3.78
  -3   2 -10    0.46    1.16
  -3   3  -3  193.40    3.35
  -2   0 -10   22.68    1.58
  -2   0  -5   84.52    1.56
  -1  -1 -12   45.51    1.88
  -1  -1  -4  416.31    3.28
  -1   6   3  778.22    4.69
  -1  10   3  467.95    4.40
   0  -2  -4  485.56    3.59
   0   6   4   33.94    1.47
   0   9   4  378.21    3.25
   1   4   4 2669.64    7.28
   2   6   5    9.03    1.26
   2   9   5  283.10    2.83
   2  10   5   -1.51    1.49
   3  -4 -12   15.17    1.77
   3  -4  -6  305.32    3.66
   3   0   2   34.22    1.42
   4   0   2  215.99    2.52
   5   3   4 1394.20    5.41
   5   7   5    0.00    1.03
   6  -4  -6   13.66    2.56
   6   2   3    9.56    1.30
   7   3   3  340.48    3.53
  -4   6  -8   52.74    2.70
  -4   6  -7    5.35    2.18
  -4   7  -5   17.10    2.81
  -4   9  -5    7.57    4.07
  -3   2  -8  155.47    2.65
  -3   2  -7    6.26    1.41
  -3   2  -6  325.14    3.08
  -3   3 -11   52.52    2.28
  -2   0  -9  284.80    3.27
  -2   0  -8   30.36    1.54
  -2   0  -7  335.81    3.03
  -2   0  -6  492.15    3.55
  -2   1 -12  179.73    3.04
  -2   7   2 1640.73    8.20
  -2   8   2   14.87    1.84
  -1  -1 -11    8.86    1.44
   0  -2 -12  174.20    2.88
   0  10   4    2.22    1.17
   1   8   5   43.54    1.60
   3  -4 -11  148.85    2.78
   3   1   3  492.71    3.36
   3   5   5  989.10    4.10
   4  -1   1   98.59    2.39
   4   1   3   80.66    1.68
   4   5   5  237.26    2.15
   5   0   2  941.77    4.98
   7  -4  -8   -0.98    2.32
   8   0   0   41.93    2.33
   8   1   1    4.46    1.89
  -4   8  -5   42.54    4.07
  -3   4  -2  355.81    5.55
  -3   9   0   14.61    2.60
  -1  -1 -10    1.16    1.28
  -1   0 -13   -0.43    1.60
  -1  11   3  103.73    2.96
   0  -2 -11    0.18    1.18
   0   5   4    0.55    1.03
   0  11   4   17.19    2.08
   1  -3 -10  188.08    2.97
   1  -3  -6  926.39    4.64
   1   2   3  136.47    1.93
   1   7   5  405.45    2.88
   1   9   5   81.98    1.65
   1  10   5    4.46    1.51
   2   5   5  410.48    2.72
   3  -4 -10   41.70    1.98
   3  -4  -7   47.36    1.87
   3  -1   1  591.04    5.38
   4  -4 -12   12.44    1.88
   5  -1   1  406.94    3.92
   5   1   3   15.49    1.21
   5   5   5    4.52    0.97
   6   6   5   31.70    1.87
   7   0   1  280.14    3.52
   7   1   2    1.65    1.20
  -4   7  -6    8.05    2.11
  -2   1 -11   -0.37    1.25
  -2  10   2   69.85    2.68
  -1   0  -2 2670.90   10.05
  -1   5   3  465.41    3.70
   0  -2  -5    8.18    1.11
   0   3   3 4057.86    9.94
   1  -3  -9   11.01    1.02
   1  -3  -8    8.36    1.35
   1  -3  -7 1833.85    6.74
   1   6   5   78.45    1.43
   3  -4  -8  210.21    3.24
   3   2   4    1.03    1.08
   3   4   5  257.48    2.15
   3   8   6  387.44    3.43
   4  -4 -11   12.33    1.72
   4  -4  -6  173.58    3.28
   4   2   4   60.74    1.57
   4   4   5  987.60    4.09
   5  -4  -6  104.27    3.55
   6  -4  -7   92.22    4.07
   6   3   4  186.72    2.19
   7  -1   0   14.48    1.78
   7   4   4   -0.42    1.45
   8  -1  -1    2.93    1.90
  -4   8  -6   69.25    4.05
  -3   3  -9  268.09    3.59
  -3   3  -4    1.90    1.25
  -3   4 -11  126.80    2.90
  -3  10   0    4.38    2.88
  -2   1 -10  186.05    2.72
  -1   0 -12  322.90    3.60
  -1   2   1 3698.34   16.56
   1   3   4   57.79    1.45
   1   5   5   16.66    1.25
   2  -3 -12    4.23    1.18
   2  -3  -4 2334.33    9.15
   2   1   3 6705.21   12.48
   2   4   5   41.21    1.37
   2   8   6   48.29    1.69
   2   9   6   24.37    1.64
   3   7   6   15.41    0.98
   3   9   6    4.48    1.14
   4  -4 -10   74.69    2.49
   4   7   6    5.30    1.01
   5  -4 -11   12.71    1.93
   5   2   4   31.84    1.43
   5   4   5    1.14    0.84
   6  -4 -10   10.17    2.47
   6  -4  -8   21.03    2.89
   6   0   2  250.68    3.02
   6   5   5    6.26    1.05
   7   2   3    1.35    1.26
  -3   3  -8  127.12    2.44
  -2  11   2   92.57    3.32
  -1   8   4  100.80    2.19
  -1   9   4  336.82    3.62
   0  -1  -2    2.91    1.29
   0   8   5   71.61    1.82
   0   9   5    4.00    1.49
   1  -2 -12   51.73    2.00
   2  -3 -11  146.15    2.53
   2   0   2 1533.69    7.13
   2   7   6   39.79    1.60
   3  -3 -13   14.14    1.38
   3   6   6  182.15    2.10
   4  -4  -9  168.43    3.29
   4  -4  -8    0.50    1.51
   4   3   5  576.54    3.38
   4   6   6   39.18    1.24
   5  -4  -9   34.92    2.67
   5  -4  -7    8.11    1.83
   5   6   6    1.04    1.24
   5   7   6   10.55    1.19
   6  -4  -9    4.63    2.25
   6   1   3   31.67    1.46
   6   4   5    0.17    1.12
  -3   3  -7   34.71    1.41
  -3   4 -10    2.73    1.51
  -2   1  -9   19.09    1.13
  -2   1  -4  461.64    3.59
  -2   2 -11   78.87    2.12
  -1   0 -11   89.59    1.97
  -1   1 -13  204.75    2.94
  -1  10   4   34.31    1.98
   0   4   4   69.21    1.63
   0   7   5   65.75    1.52
   0  10   5    4.66    1.74
   2  -3 -10   33.72    1.80
   2   2   4  314.51    2.46
   2   6   6  352.37    2.89
   3  -3 -12   16.40    1.55
   3   3   5 2627.91    6.53
   3   5   6    1.94    1.10
   4   5   6   26.12    1.45
   5  -4  -8    1.72    1.69
   5   3   5   58.15    1.62
   6  -1   1  518.25    4.56
   6   2   4  136.26    2.33
   7   3   4   16.94    1.58
  -3   4  -9  159.71    3.19
  -2   1  -8  216.70    2.45
  -2   1  -7   38.09    1.51
  -2   1  -5 2818.98    8.12
  -1   0 -10   46.71    1.70
  -1   6   4    0.13    1.10
  -1  11   4    1.47    1.89
   0   6   5   25.30    1.43
   1  -2 -11   27.77    1.35
   1  -2  -3 1917.58    8.00
   1   4   5   25.76    1.28
   1   8   6    1.41    0.92
   1   9   6  125.08    2.21
   1  10   6   12.79    1.74
   2  -3  -5   12.07    1.23
   5   5   6    1.58    0.98
   8   1   2    0.66    1.70
  -3   5 -10    0.83    1.57
  -2   1  -6  103.96    1.75
  -2   2 -10    2.85    1.24
  -2   3 -12   65.39    1.89
  -2   9   3    1.17    1.60
  -1   1 -12   41.80    1.74
  -1   4   3 3188.25    9.30
   0   0 -13   36.05    1.49
   1  -2 -10  275.19    3.44
   1  -1 -13   95.15    2.35
   1   6   6  135.78    1.96
   2  -3  -8   55.32    1.91
   2  -3  -7  574.41    4.36
   2  -3  -6   72.40    1.80
   2   3   5   66.15    1.29
   2   5   6  358.93    2.62
   3  -3 -11   68.14    1.90
   3   8   7   15.81    1.57
   4  -2   0   19.37    2.07
   4   1   4  577.43    3.61
   4   4   6   20.99    1.29
   6   3   5    6.82    1.32
   7   1   3    0.29    1.19
   8   0   1   60.04    2.31
  -3   4  -3 1488.27    8.61
  -2  10   3  123.58    3.30
  -1   0  -9  994.27    5.51
  -1   0  -3 1103.89    5.75
  -1   2 -13    3.64    1.52
   0  -1 -10   13.94    1.06
   0   5   5  295.85    2.83
   2  -2 -12    5.12    1.54
   2   9   7   -1.54    1.55
   3   1   4  286.72    2.58
   3   4   6   64.07    1.28
   3   7   7    3.29    0.96
   4  -3 -12   42.88    1.69
   4   0   3  231.46    2.50
   4   2   5  524.02    3.42
   4   7   7   42.78    1.47
   5  -2   0    1.19    1.55
   5   0   3   16.94    1.21
   5   1   4   54.17    1.58
   5   4   6   57.13    1.72
   7   0   2    0.61    1.38
   7   2   4   73.07    2.00
  -2   2  -9  264.15    3.14
  -2   3 -11   62.60    1.84
  -2  11   3   74.51    3.43
  -1   1 -11    9.89    1.32
   0   0 -12  286.99    3.04
   0   8   6    6.73    1.28
   0   9   6  539.16    4.61
   1  -1 -12    3.27    1.42
   1   2   4  401.97    3.05
   2   4   6 2392.49    6.84
   2   7   7   -0.06    1.29
   3  -3 -10   14.98    1.19
   3   0   3 1469.30    6.15
   3   2   5  249.74    2.44
   3   6   7    0.39    1.10
   4  -3 -11   10.36    1.65
   4   6   7    5.13    0.92
   5   2   5  242.89    2.64
   5   6   7   26.89    1.59
   6   4   6   42.53    1.62
   7  -2  -1   25.04    2.61
  -3   4  -6   63.96    2.05
  -3   4  -4   94.39    2.24
  -3   9   1   44.89    3.01
  -1   0  -4 1216.51    5.48
  -1   5   4  214.65    2.50
  -1   8   5   18.32    1.47
  -1   9   5   43.03    1.90
   0  -1  -3   39.76    1.30
   0   1 -13  166.15    2.75
   0   2   3 1618.99    6.53
   0   3   4   37.58    1.35
   0   7   6  671.39    4.30
   0  10   6    0.28    1.19
   1  -2  -8    0.55    0.90
   1  -2  -4   55.73    1.40
   1   1   3 6018.34   12.23
   2  -2 -11   61.47    1.86
   2  -1   1  268.46    4.43
   2   6   7   18.30    1.31
   3  -3  -9   42.48    1.68
   4  -1   2 2318.11    8.97
   4   3   6   41.55    1.53
   4   5   7    1.84    1.16
   6   0   3   10.67    1.29
   6   1   4   40.13    1.57
   7  -1   1  219.15    3.62
   7   3   5   31.32    1.85
  -2   2  -8   55.69    1.42
  -2   3 -10  164.16    2.79
  -1   1 -10    2.48    1.17
  -1   2 -12  167.06    2.37
  -1   3 -13   20.42    1.70
  -1   7   5  120.90    2.15
   0   0 -11   17.01    1.32
   1  -2  -7  631.06    3.81
   1  -2  -6  280.72    2.69
   1   0 -13  198.25    3.40
   1   7   7   54.49    1.61
   1   9   7   -0.89    1.02
   2  -1 -13   21.34    1.69
   3  -3  -8  492.88    4.29
   3  -2 -12    2.79    1.39
   3   3   6   66.41    1.35
   3   5   7    2.50    0.78
   4  -3 -10  655.45    5.21
   4  -3  -3  113.41    3.61
   5  -3 -11    3.05    1.47
   5   3   6   48.65    1.37
   5   5   7    2.35    0.96
   6   2   5   28.45    1.60
   8  -2  -2    7.33    3.22
  -2   2  -7   14.34    1.26
  -2   4 -11   87.83    2.21
   0  -1  -5  505.48    3.52
   0  -1  -4 8478.26   14.14
   0   4   5   44.45    1.40
   0   6   6    0.05    1.19
   2  -2 -10  145.49    2.61
   2   1   4  408.30    2.85
   2   2   5  110.58    1.57
   3  -3  -7  665.05    5.24
   3  -3  -6  123.80    2.38
   3  -3  -5   13.75    1.28
   3   8   8  119.09    2.41
   4   4   7   56.74    1.64
   6  -2   0    5.28    1.73
   6   3   6   10.04    1.42
  -3   5  -7    1.51    1.41
  -3   7  -9    6.37    1.90
  -3  11   1   48.45    4.09
  -2   2  -6  997.87    5.08
  -2   2  -3  315.19    3.40
  -2   3  -9  223.81    3.05
  -2   8   4   51.70    2.26
  -2   9   4   27.11    2.19
  -2  10   4   20.42    2.39
  -1   2 -11    8.60    1.21
  -1   6   5   46.11    1.57
   0   0 -10  249.51    3.08
   0   1 -12    3.10    1.24
   0   1   2    2.96    1.29
   1   4   6  867.85    4.37
   2   3   6  767.27    4.11
   2   8   8   50.25    2.00
   3  -1   2 2651.64    9.96
   3   4   7  138.92    2.13
   3   7   8    0.46    0.94
   4  -3  -9   -0.77    1.13
   4   6   8   45.83    1.74
   5  -3 -10   35.56    1.82
   5   4   7    2.32    1.31
   6  -3 -10    0.59    1.80
   6  -1   2    0.97    1.29
   7   1   4   16.33    1.50
   7   2   5   -1.35    1.23
   8   0   2    0.11    1.50
  -3   5  -6    2.36    1.47
  -2   2  -5  118.96    1.97
  -2   5 -11    4.20    1.68
  -2  11   4   93.72    3.94
  -1   3 -12   95.34    2.09
   0   2 -13   42.75    1.74
   0   5   6  944.09    4.93
   0   9   7    6.21    1.62
   0  10   7  190.17    3.37
   1   0 -12   49.86    1.69
   2  -2  -9   35.70    1.33
   2   0   3  310.28    3.08
   2   7   8  136.98    2.49
   3  -2 -11   68.63    1.77
   3   6   8   61.45    1.66
   4  -2 -12    3.34    1.31
   4   1   5   48.90    1.54
   4   2   6   25.89    1.28
   5  -3  -9   95.17    2.37
   5  -3  -3   15.69    2.69
   5   1   5    8.49    1.15
   6   4   7   25.74    1.73
   7  -3  -8   12.54    2.57
   7  -3  -5   24.38    3.37
   7   0   3    5.61    1.42
  -3   5  -2   83.94    3.06
  -3   7   1  342.82    6.30
  -1   2 -10   89.47    2.01
  -1   4   4 1272.44    5.50
  -1   8   6   68.15    1.97
  -1   9   6  107.02    2.61
   0   1 -11   25.43    1.50
   0   8   7    7.89    1.00
   1   0   2 2803.66   10.20
   1   1 -13   89.46    2.04
   1   5   7   21.13    1.30
   2  -2  -8  183.61    2.78
   2   4   7  200.43    2.46
   3   1   5  335.53    2.93
   4  -3  -7   30.78    1.77
   4  -3  -4  495.72    5.68
   4   0   4   33.84    1.40
   4   3   7    0.78    1.03
   4   5   8   21.68    1.54
   5  -2 -12    5.83    1.63
   5   0   4   31.96    1.37
   5   2   6    1.87    0.89
   5   5   8   84.38    1.98
   6  -3  -9   54.53    2.26
   7  -3  -7   43.82    3.07
   7  -3  -6   23.35    3.01
  -3   5  -5 1076.58    6.89
  -3   6  -7    0.62    1.33
  -3   7  -8   -0.98    1.65
  -1   5   5    1.16    1.09
   0   7   7   18.26    1.13
   1   2   5  136.59    1.87
   1   8   8   10.20    1.13
   2  -2  -2   28.64    1.95
   2  -1 -11   18.45    1.35
   2   0 -13  229.04    2.72
   3  -2 -10    5.48    1.30
   3   3   7   41.76    1.47
   3   5   8    7.85    0.93
   4  -3  -6    5.54    1.17
   4  -3  -5  501.69    5.26
   5   3   7   14.57    1.36
   6  -3  -8    1.38    1.68
   6   0   4  113.45    2.56
   6   1   5   52.25    1.82
   6   2   6   -0.90    1.31
  -3   5  -4   25.45    1.62
  -3   5  -3  257.30    4.21
  -3   8  -8  114.18    3.42
  -3   9   2    6.31    2.02
  -3  10   2   33.19    3.13
  -2   3  -7  187.58    2.54
  -2   4  -9  160.35    2.53
  -2   5 -10   85.06    2.28
  -2   5   3  628.44    4.94
  -1   1  -7   92.58    1.57
  -1   3 -11   15.62    1.10
  -1   4 -12  111.13    2.07
  -1   7   6  504.55    3.72
   0   2 -12  172.45    2.46
   0   3 -13   98.91    2.22
   0   3   5  144.86    1.91
   0   6   7  242.52    2.96
   1   0 -11   29.70    1.20
   2  -2  -7   74.96    1.82
   2   5   8   56.94    1.66
   3  -1 -12   21.03    1.61
   3   0   4  115.55    1.73
   3   7   9    4.13    1.43
   4  -1 -13   10.08    1.49
   4   4   8  123.59    2.13
   5  -3  -7   60.07    2.51
   6  -3  -7    1.16    2.14
   6  -3  -4    9.62    3.03
   6   3   7   32.19    1.74
   7  -1   2    0.21    1.71
   8  -1   1    5.22    2.14
  -3   6  -6  179.14    3.42
  -3   7  -7    8.54    1.84
  -2   4   2  635.84    5.60
  -2   9   5  153.59    3.54
  -2  10   5    6.24    1.79
  -1   1  -6  895.67    4.37
  -1   2  -9  277.04    2.79
   0   1 -10   12.92    1.26
   0   2   4  501.91    3.40
   0   4   6  105.36    1.88
   1   1   4  412.38    3.11
   1   4   7  374.11    3.00
   1   6   8   -0.01    1.20
   2  -2  -6  162.81    2.22
   2   0 -12   14.28    1.43
   2   1   5 2860.37    7.74
   2   3   7  188.83    2.26
   2   8   9   31.83    1.53
   3  -2  -9   67.43    1.92
   3   4   8   41.23    1.49
   3   6   9   72.20    1.82
   4  -1   3   81.82    2.04
   5  -3  -6   33.80    2.21
   5  -2 -11    5.84    1.49
   5  -1   3   13.86    1.32
   5   4   8  103.43    2.04
   7  -2   0    3.28    2.10
   7   1   5   28.24    1.63
  -3   8   2  181.99    4.53
  -2   3  -6  765.91    4.72
  -2   4  -8   27.68    1.46
  -2   6 -10    1.07    1.49
  -1   1  -1    6.98    1.75
  -1   2   2    1.10    1.14
  -1   3 -10  292.30    3.23
   0   8   8   68.07    2.04
   0   9   8   10.50    1.66
   1   0 -10  621.74    4.61
   1   2 -13  160.65    2.66
   3  -2   0   47.96    3.23
   3   0 -13   11.73    1.64
   4  -2 -10   16.56    1.46
   4   1   6  102.22    2.06
   4   2   7    6.11    1.11
   5  -3  -5  114.11    3.41
   5  -2   1   47.59    2.33
   5   1   6   14.82    1.27
   6  -3  -5   49.96    3.14
   6  -2 -11    1.50    1.52
   7   0   4  132.44    3.07
  -3   6  -5   38.78    2.17
  -3   8  -7   17.54    1.96
  -2   5  -9   40.39    1.82
  -1   2  -8    7.50    1.13
  -1   4 -11   14.40    1.12
  -1   8   7    1.70    1.42
  -1   9   7  105.50    2.42
   0   2 -11    0.66    0.85
   0   3 -12   76.13    1.99
   0   4 -13    6.95    1.35
   0   5   7  179.00    2.39
   0   7   8   16.78    1.32
   1   5   8   24.53    1.42
   1   8   9  144.99    2.87
   2  -2  -5  137.68    1.99
   2  -2  -4  513.16    4.13
   2  -2  -3 2272.24    9.18
   2   1 -13   17.43    1.24
   2   6   9   95.59    2.11
   3  -2  -8  286.48    3.26
   3  -1 -11   18.46    1.16
   3   2   7    6.39    1.04
   3   5   9  227.93    2.75
   4  -1 -12   -0.74    0.96
   4   3   8  143.04    2.38
   4   5   9   78.26    1.79
   5   2   7   10.23    0.93
   6  -1   3   29.25    1.69
  -3   7  -6   11.55    1.70
  -2   7 -10   82.14    2.59
  -1   4   5 1600.73    6.09
  -1   7   7  203.33    2.73
   1  -1  -6 1390.11    5.56
   1   1 -11    7.47    1.10
   1   7   9    0.49    1.29
   2  -1  -9   50.54    1.70
   2   0 -11   39.79    1.63
   2   0   4   19.95    1.35
   3   1   6    6.65    0.95
   3   3   8  120.77    2.07
   4  -2  -9    2.66    1.14
   4  -2   1  169.47    3.52
   4   0   5  417.92    3.79
   5  -2 -10   67.43    2.13
   5  -1 -12    6.57    1.56
   5   0   5  474.01    4.10
   5   3   8   65.00    1.62
   6  -2 -10    7.80    1.65
   6  -2   1   13.81    1.98
   6   1   6    7.28    1.30
   6   2   7   27.65    1.66
   8  -2  -1    4.77    3.58
  -3   6  -4    2.10    1.50
  -2   4  -7  193.88    2.86
  -2   6  -9   99.79    2.40
  -1   3  -9  205.52    2.85
  -1   3   4   65.56    1.61
  -1   5 -11   25.05    1.63
  -1   5   6  262.52    2.76
   0   6   8    0.05    1.16
   1   2 -12   42.63    1.63
   1   2   6  675.24    3.94
   1   3 -13   95.62    2.30
   2  -1   2  107.41    2.25
   2   5   9   40.89    1.63
   3  -2  -7  141.15    2.38
   3  -1   3  467.85    4.06
   3   0 -12   22.77    1.57
   4   0 -13    2.79    1.15
   4   4   9   90.95    2.02
   6   0   5  176.57    2.93
  -3   7   2  265.52    5.28
  -3   8  -6  321.64    4.92
  -3   9   3  125.35    4.07
  -3  10   3   51.95    3.53
  -2   3  -4  115.73    2.11
  -2   5  -8   45.33    1.82
  -2   5   4  533.59    4.51
  -2  10   6   28.77    2.53
  -1   2  -7  148.42    2.04
  -1   4 -10   44.57    1.51
   0   0  -5 1713.44    6.29
   0   1   3   40.55    1.26
   0   2 -10  172.25    2.54
   0   3 -11   66.32    1.93
   0   3   6  449.64    3.11
   0   4 -12  226.38    3.03
   0   4   7 2689.09    8.29
   1  -1  -5  274.71    2.75
   1   0   3 1333.17    6.14
   1   6   9  139.58    2.40
   2   1 -12    2.20    1.12
   2   2   7   13.14    1.13
   2   3   8   89.15    2.13
   2   7  10   78.60    2.26
   3  -1 -10  427.86    4.13
   3   0   5  145.08    2.05
   3   1 -13   17.13    1.73
   3   6  10    7.91    1.42
   4  -1 -11   98.13    2.07
   5  -2  -9   49.57    1.98
   7  -2  -9    1.63    2.05
   7  -1   3    0.60    1.41
   8  -1   2    0.37    2.05
  -3   6  -3  263.44    4.64
  -3   7  -5   87.77    2.68
  -3   9  -6    3.49    1.89
  -2   6   5    8.44    1.24
  -2   7  -9    6.44    1.66
  -2   8   6  214.54    2.76
  -1   6 -11   -0.36    1.53
  -1   6   7  109.99    2.01
  -1   9   8   -0.28    1.63
   0   2   5    9.39    1.02
   1   1 -10   21.34    1.37
   1   1   5  992.46    4.47
   2   0 -10  171.83    2.60
   2   1   6  147.24    2.13
   2   2 -13  159.45    2.41
   2   4   9  152.96    2.42
   4  -2  -8    4.14    1.19
   4  -1   4  595.58    4.80
   4   1   7   62.07    1.83
   4   2   8  140.01    2.37
   5  -1   4   49.22    1.90
   5   1   7    1.73    1.17
   5   2   8   78.03    2.02
   6  -2  -9    1.69    1.56
   7   0   5   -0.86    1.69
  -3   8   3  173.50    4.34
  -2   3  -3  384.72    4.01
  -2   4   3 1050.51    6.67
  -1   3  -8    0.48    1.08
   0   0  -4   18.68    1.25
   0   5   8   76.47    1.67
   1  -1  -4 3412.13    9.56
   1   5   9   26.59    1.27
   1   7  10   19.86    1.50
   3  -2  -6   21.96    1.22
   3  -1  -9   14.06    1.42
   3   0 -11  157.49    2.46
   3   2   8  139.42    2.33
   3   5  10    1.21    0.96
   4   0 -12    0.71    1.26
   4   3   9  181.56    2.73
   5  -1 -11  140.04    2.64
   5   3   9   18.87    1.50
   6  -1 -11   19.84    1.96
   6  -1   4   38.04    1.89
   6   1   7    1.66    1.24
  -3   6  -2    4.39    1.82
  -3   7  -4  177.36    4.01
  -3   8  -5    1.99    1.75
  -2   5  -7    0.80    0.99
  -2   6  -8   29.15    1.59
  -1   4  -9  146.21    2.53
  -1   4   6  147.56    2.22
  -1   7   8   58.36    1.83
   0   2  -9  144.18    2.06
   0   5 -12    7.96    1.20
   1   3 -12   31.45    1.29
   2  -1  -7 2449.43    7.74
   2   1 -11   17.36    1.44
   2   5  10   83.34    1.95
   3   1   7   25.11    1.13
   3   3   9  254.40    2.89
   4  -1 -10   41.94    1.70
   4   0   6  300.29    3.42
   4   1 -13    9.27    1.65
   4   4  10   17.46    1.45
   5  -2  -8   22.40    1.62
   5  -2   2  299.17    4.85
   5   0   6   21.21    1.44
   7  -2  -8   19.29    2.10
  -3   6  -1  100.76    4.52
  -3   6   1  808.79   14.38
  -3   9  -5   50.12    3.01
  -3  10   4  188.76    5.43
  -2   3  -2 1471.99    8.65
  -2   9   7  268.72    4.17
  -2  10   7   11.64    2.19
  -1   2   3 1960.16    7.62
  -1   3   5   51.39    1.43
  -1   5   7  640.14    4.61
   0   0  -3 1081.05    5.96
   0   4 -11  100.44    1.98
   0   6   9   79.42    1.78
   1  -1  -3  545.74    4.31
   1   2   7  143.64    2.14
   1   6  10   73.26    1.92
   2   0   5  146.96    1.85
   2   2 -12    4.73    1.17
   2   3 -13   28.30    1.39
   3  -2  -5    9.39    1.18
   3  -1   4  262.75    3.18
   3   1 -12   20.72    1.21
   3   2 -13   48.18    1.97
   3   4  10    4.48    1.29
   5   0 -12    7.38    1.41
   6  -2   2  353.51    5.52
   6   0   6    1.76    1.28
  -3   9   4    3.30    2.05
  -2   5   5   25.04    1.48
  -1   6 -10   68.83    2.23
  -1   6   8    6.18    1.27
  -1   9   9  117.18    3.00
   0   4   8  421.81    3.28
   0   8  10   32.24    1.90
   1  -1  -2  760.98    6.22
   1   4   9  128.01    2.11
   2   0  -9   15.90    1.01
   2   2   8   64.10    1.57
   3   0   6 1314.48    6.06
   4  -2   2  137.14    3.27
   4   0 -11  102.70    2.27
   5  -1 -10    1.02    1.28
   8  -2  -6   40.99    3.56
  -3   7   3   39.61    2.43
  -3   8   4  168.90    4.17
  -2   8  -8   40.41    2.39
  -1   3  -7   16.07    1.02
  -1   8   9    1.01    1.57
   0   2   6   73.90    1.52
   0   5 -11   34.01    1.77
   0   7  10    5.80    1.45
   1   0   4 1274.26    5.52
   1   2 -10  229.58    2.94
   1   3 -11  132.64    2.39
   1   4 -12   77.22    1.90
   1   5  10  295.38    3.35
   2  -1  -6  278.00    2.77
   2  -1   3 6489.94   13.91
   2   1   7   26.00    1.20
   2   4  10   75.96    1.97
   3  -1  -8  166.55    2.51
   3   0 -10   42.81    1.54
   4  -2  -6   12.84    1.44
   4  -1  -9    3.58    1.23
   4  -1   5   43.71    1.73
   4   1   8    3.24    1.24
   4   2   9    0.70    0.93
   4   3  10   32.24    1.72
   5  -1   5    7.10    1.38
   5   1   8   17.21    1.55
   5   2   9    2.33    1.06
   6  -1 -10    2.85    1.34
   7  -2  -7    3.04    1.75
   7   0   6   35.60    2.10
   8  -2   0    0.93    3.29
  -3   7  -3  153.48    4.00
  -2   4   4  209.16    3.09
  -2   7   7  334.45    4.16
  -1   4  -8  107.79    2.00
  -1   7 -10   18.32    1.61
  -1   7   9  177.89    3.36
   0   4 -10  134.23    2.33
   2   3 -12    3.67    1.30
   2   4 -13  159.35    2.59
   3  -2  -4  828.69    5.57
   3  -2   1  167.59    3.92
   3   1   8    2.37    1.22
   3   2   9  106.60    1.98
   3   3 -13    1.13    1.59
   3   3  10   -1.68    1.33
   4   0   7    2.29    1.15
   4   1 -12   -1.09    1.07
   4   2 -13    5.33    1.41
   5   0 -11   35.93    2.08
   5   0   7  245.77    3.56
   6  -2  -7    0.79    1.53
   6  -1   5   53.91    2.20
   6   1   8   83.34    2.65
  -3   9  -4   21.07    2.52
  -3  10   5   14.19    2.67
  -2   4  -4  113.45    2.16
  -2   9   8    1.49    1.61
  -1   4   7  742.51    4.60
  -1   5   8   86.67    2.03
   0   6  10   31.18    1.86
   1   0  -6  536.87    3.47
   1   2   8    6.93    1.00
   1   3   9  198.14    2.85
   1   5 -12   29.07    2.00
   1   6  11    2.17    1.46
   2   0  -8   28.44    1.39
   2   0   6  523.40    3.93
   2   2 -11   34.43    1.52
   3   2 -12    1.29    0.96
   3   4  11  104.75    2.29
   5  -2   3   53.36    2.47
   5  -1  -9   12.58    1.46
   6   0 -11    6.57    1.61
   6   0   7   -0.36    1.39
   8  -2  -5    5.18    2.62
  -3   6   2   78.66    3.67
  -3   9   5   66.46    3.03
  -2   5   6  158.76    2.69
  -2   7  -7    3.16    1.26
  -1   2   4   55.79    1.39
  -1   3  -6 3564.59    9.11
  -1   3   6  953.93    4.53
  -1   6  -9  155.05    2.65
  -1   6   9    2.87    1.35
   0   3   8  718.75    4.28
   0   4   9   -0.82    1.22
   1   4  10   46.85    1.51
   2   2   9  273.70    3.08
   2   3  10  168.28    2.66
   3  -2  -3  121.67    2.80
   3  -1  -7  810.53    4.87
   3  -1   5  326.23    3.50
   3   0  -9    1.04    1.15
   3   0   7   70.64    1.97
   4   0 -10    3.84    1.29
   5  -2  -6    4.52    1.44
   5   1 -12    4.73    1.13
   6  -2   3    7.38    1.79
   6  -1  -9   50.24    2.01
   7  -1  -9   76.30    2.80
  -3   7   4   81.65    2.81
  -3   8  -3   59.66    3.31
  -3   8   5   61.36    2.97
  -2   3   1  249.44    6.30
  -2   5  -5  419.91    4.05
  -2   8  -7   69.84    3.01
  -1   4  -7  353.90    3.52
  -1   5  -8   27.68    1.54
   0   1  -5  520.44    3.54
   0   2   7  880.17    4.48
   0   5 -10   37.23    1.74
   0   5  10   39.26    1.70
   0   7 -11   19.84    1.90
   0   7  11   14.13    1.76
   1   0   5  462.34    3.26
   1   1   7  109.43    1.93
   1   3 -10  156.26    2.65
   1   4 -11   -0.22    0.92
   1   6 -12    2.11    1.54
   2  -1  -5 2447.86    7.77
   2   1   8  236.87    2.72
   2   4 -12   54.46    2.16
   2   4  11   63.65    2.10
   4  -2  -5   81.14    2.17
   4  -2   3  572.83    5.30
   4   1 -11  107.77    2.66
   4   1   9  250.21    3.16
   4   2  10    2.58    1.39
   5  -1   6   18.95    1.60
   5   1   9   58.32    2.30
   6  -2  -6    1.44    1.69
  -3   7  -2  307.52    5.57
  -2   4   5   70.21    1.92
  -2   7   8   17.59    1.69
  -2   9  -7    2.09    2.01
  -1   7  -9   -0.32    1.36
   0   3  -8  761.71    4.29
   2   2 -10  149.81    2.55
   2   3 -11  105.02    2.56
   3   1   9   21.82    1.44
   3   2  10    0.50    0.96
   3   3 -12   15.14    1.54
   4  -1   6   97.48    2.38
   4   2 -12    1.84    1.12
   5   0 -10   33.46    1.78
   5   0   8   18.23    1.55
   6  -1   6    8.78    1.60
   8  -2  -4   -0.75    2.61
   8  -2   1   80.96    5.71
  -3   9  -3   53.28    3.48
  -3  10   6   11.01    2.67
  -2   4  -3  328.44    3.78
  -1   2   5   38.50    1.37
  -1   3   7 1927.03    6.98
  -1   8  -9  142.89    3.27
   0   6 -10   71.45    2.21
   0   6  11   -2.12    1.08
   1   0  -5  103.80    1.70
   1   2   9  259.82    3.22
   1   3  10  280.67    3.11
   2   0  -7  593.01    3.78
   2   0   7  287.79    3.20
   3  -2   2  135.12    3.02
   3   2 -11   66.35    1.75
   4   0   8   63.03    1.68
   5   1 -11  145.75    2.82
   6   0 -10   30.77    1.88
   6   0   8    0.20    1.38
  -3   7   5   44.70    2.35
  -3  10  -3  118.98    4.50
  -2   3   2 1364.71    8.99
  -2   6   8   56.05    1.98
  -2   7  -6   29.74    2.11
  -1   3  -5  312.50    2.81
  -1   6  -8   -0.18    1.27
  -1   6  10  125.29    2.51
   0   1   6 4808.58    9.82
   1   4  11   16.99    1.22
   2   2  10    2.15    0.89
   2   3  11   67.18    1.96
   2   5 -12    2.02    1.30
   3  -1  -6  116.80    2.00
   3   0  -8   20.04    1.44
   3   0   8  856.93    5.80
   4  -1  -7   20.01    1.45
   4   0  -9   37.14    1.58
   5  -2  -5  210.16    3.50
   5  -2   4   28.79    2.02
   5   2 -12    3.32    1.20
   6  -2   4  123.30    3.79
   6  -1  -8   35.09    1.83
   6   1 -11   21.89    1.93
   7  -2  -5   62.15    3.10
   7  -2   3   -0.12    2.09
   7  -1  -8    6.94    1.58
  -2   4   6    0.90    1.10
  -2   6  -5    6.64    1.59
  -2   7   9   33.99    1.85
  -1   5  -7   18.36    1.37
   0   0   2    2.45    1.54
   0   2   8   18.02    1.24
   0   5  -9   64.20    2.15
   0   7 -10   10.92    1.64
   1   0   6  389.51    3.03
   1   1   8  457.78    3.42
   1   3  -9   12.48    1.15
   1   4 -10  177.99    2.59
   1   5  12   31.21    1.89
   1   6 -11   26.42    1.72
   2  -1  -4  472.14    3.94
   2  -1   5 2885.66    8.40
   2   1   9   20.18    1.29
   2   4  12   18.13    1.39
   3   4 -12   13.85    1.54
   4  -2   4   63.42    2.06
   4   1 -10   46.38    1.78
   4   1  10    0.03    1.28
   4   3 -12   43.16    2.04
   5  -1   7    2.84    1.37
   6  -2  -5  299.16    4.80
   8  -2  -3   30.11    4.21
  -3   6   4  394.99    5.69
  -2   3   3 2103.38    9.09
  -2   5  -4  176.77    2.62
  -2   8  -6   35.44    2.09
  -1   4  -6  753.38    4.59
  -1   4   9  100.13    2.13
  -1   5  10   32.40    1.54
  -1   7  -8   97.80    2.79
  -1   7  11   27.82    1.90
   0   1  -4 7640.42   13.58
   0   3  -7  509.93    3.57
   0   4  -8  411.71    3.56
   1  -1   1    6.79    1.77
   2   4 -11   43.26    1.45
   3  -2   3  501.15    4.92
   3   1  -9   15.91    1.42
   3   1  10   62.95    1.98
   3   3 -11   64.62    1.97
   4  -1   7   55.84    1.71
   4   0   9    2.91    1.34
   4   2 -11   37.65    1.57
   5   0  -9   13.77    1.45
   5   0   9   71.38    2.21
   6  -1   7    2.11    1.64
   8  -2   2    0.40    2.68
  -3   7   6   68.22    2.53
  -3   8  -2    2.75    1.73
  -2   5   8   17.49    1.44
  -2   9  -6   21.23    2.04
  -2  10  -6  206.40    4.66
  -1   3   8    7.23    1.22
  -1   6  11   29.66    1.55
  -1   8  -8    7.83    1.65
   0   0   3 1052.71    5.81
   0   3  10  235.03    3.03
   1  -1   2 1362.20    7.59
   1   0  -4 2811.63    8.62
   1   3  11   17.41    1.11
   1   4  12  145.94    2.49
   1   5 -10   28.47    1.60
   1   7 -11   26.67    1.64
   2   0  -6 2848.31    7.88
   2   0   8   23.43    1.49
   2   2  11   77.62    1.98
   3  -1   7   26.78    1.60
   3   2 -10    5.22    0.93
   5  -2   5  219.17    3.94
   5  -1  -7   24.36    1.54
   6   0  -9   71.62    2.34
   7   0  -9   26.00    1.95
  -3   6   5    2.50    1.63
  -3   7  -1  110.83    4.08
  -3   8   7   67.99    2.76
  -2   3   4 2379.92    8.74
  -2   4   7  123.72    2.74
  -2   6   9    9.11    1.26
  -1   6  -7  112.03    2.38
  -1   9  -8   52.87    2.53
   0   1   7    0.54    0.69
   0   6  -9   78.63    2.24
   1   0   7 1795.85    6.41
   1   1   9    7.38    1.19
   2  -1   6  177.56    2.62
   2   1  10  209.86    2.89
   2   5 -11   13.76    1.48
   3   0   9   26.30    1.35
   3   5 -12   22.07    1.37
   4  -2   5  489.13    4.82
   4   0  -8  291.69    3.43
   4   4 -12    9.59    1.59
   5   1 -10    2.62    0.92
   5   2 -11    3.20    1.08
   6  -2   5   26.83    2.23
   6  -1  -7    0.82    1.38
   7  -2  -4    1.48    1.90
   7  -1  -7    2.28    1.67
  -3   9  -2  249.01    6.13
  -3  10  -2   17.68    2.86
  -2   4  -2 1318.61    8.11
  -2   7  -5  343.24    4.44
   0   0   4   18.63    1.30
   1  -1   3 5110.49   12.14
   1   4  -9  105.23    2.06
   3  -2   4    0.10    1.08
   3  -1  -5  397.08    3.39
   3   0  -7  302.48    2.80
   3   4 -11  101.50    2.53
   4  -1   8    2.32    1.47
   4   1  11   68.29    1.83
   4   3 -11   10.26    1.55
   5  -2  -4  145.65    3.18
   5  -1   8   14.32    1.60
   6   1 -10    4.84    1.18
   6   2 -11    0.68    1.49
   8  -1  -6   -0.05    2.30
  -3   6   6    2.36    1.64
  -3   9   8   64.87    2.93
  -2   3   5   11.94    1.22
  -2   5   9  271.51    3.49
  -1   5  -6 1663.89    7.27
  -1   5  11   95.95    2.28
   0   7  -9  152.63    2.84
   1  -1   4  433.71    3.52
   1   2  11    8.04    1.32
   1   3  12  101.17    2.31
   2   0   9  301.13    3.56
   2   4 -10    5.33    1.16
   2   6 -11   17.05    1.58
   3   1  11    5.79    1.17
   4  -2  -3    7.69    1.55
   4   0  10   30.31    1.76
   4   2 -10   17.94    1.57
   5  -2   6    1.09    1.37
   6  -2  -4    5.96    1.81
   6  -1   8  127.87    3.19
   8  -2  -2    5.59    3.64
  -3   8   8    0.62    1.83
  -2   4   8 1106.11    6.51
  -2   5  -3  131.32    2.71
  -2   6  -4   35.30    1.67
  -2   6  10   61.69    2.05
  -2   8  -5   11.84    1.76
  -1   1   3  547.83    4.22
  -1   1   4 3697.81    9.80
  -1   4  -5   23.19    1.21
  -1   7  -7   49.03    1.86
   0   0   5 1618.36    5.96
   0   1   8    1.49    0.75
   0   2  10  189.51    2.95
   0   3  -6  502.16    3.31
   0   3  11   49.08    1.62
   0   4  -7 2857.01    8.71
   0   8  -9   79.96    2.42
   1   0   8   36.41    1.45
   1   1  10    1.83    1.05
   1   7 -10    4.29    1.37
   2  -1  -3   17.79    1.35
   2  -1   7   36.48    1.60
   2   1  11    1.05    1.29
   2   2  12   84.37    2.29
   3  -2   5  203.89    3.20
   3  -1   8    0.81    1.01
   3   0  10  107.45    2.40
   3   1  -8  202.12    2.26
   3   2  -9   81.99    1.91
   3   3 -10   14.47    1.16
   4  -2   6   22.14    1.62
   5   0  -8  115.84    2.04
   5   3 -11    4.44    1.56
   6  -2   6    1.55    1.90
   7  -2   5   -1.05    1.90
   7   0  -8    3.28    1.66
  -3   7   8   52.37    2.42
  -2   7  11    5.37    1.87
  -2   9  -5  257.63    4.62
  -2  10  -5    0.61    1.75
  -1   2   8    1.32    1.08
  -1   4  11   -0.15    1.23
  -1   8  -7  245.71    4.31
   0   1  -3   39.82    1.34
   0   6  -8   -0.17    1.38
   1  -1   5 1034.83    4.80
   1   5  -9   62.06    1.87
   1   8 -10   55.83    2.57
   2   7 -11    5.67    1.22
   3   5 -11    7.09    1.31
   4  -1   9  269.34    3.78
   4   4 -11    9.66    1.55
   5  -1  -6    8.45    1.24
   5  -1   9   84.41    2.51
   5   1  -9   14.47    1.50
   5   2 -10   77.77    2.30
   6   0  -8  259.34    3.93
   7  -1  -6    3.67    1.99
  -3   5   3  320.93    4.96
  -3   5   4  233.35    3.77
  -3   8   9    5.44    1.77
  -2   5  10   34.92    1.69
  -1   3  10  176.90    2.61
  -1   5  12   45.56    1.95
   0   0   6  406.60    3.02
   0   1   9  444.42    3.76
   1   1  -5  255.44    2.55
   1   2  12  169.29    2.71
   2   0  -5  134.80    1.86
   2   0  10   25.31    1.56
   3   1  12  307.63    3.68
   4   0  -7 1352.25    6.36
   4   0  11   86.99    2.44
   5  -2   7   13.22    1.52
   6  -1  -6   11.19    1.50
   6   1  -9   52.68    2.19
   6   2 -10   10.28    1.65
   7  -2  -3  147.38    5.00
   7   1  -9   81.11    2.60
  -3   8  -1    3.22    1.99
  -2   6  11   16.83    1.35
  -2   7  -4  127.82    3.13
  -1   1   6 1411.43    5.44
   0   2  11    0.38    1.16
   0   3  12   56.68    1.66
   0   7  -8   14.83    1.59
   1  -1   6  893.49    4.50
   1   0  -3 5954.40   13.53
   1   0   9 1217.29    6.14
   1   4  -8  552.27    3.66
   1   6  -9    3.28    1.27
   2  -1   8  186.03    2.81
   3  -2  -1 2425.12   18.54
   3  -2   6  319.15    3.84
   3  -1   9   14.26    1.27
   3   0  -6    7.65    1.11
   3   0  11  130.42    2.57
   3   4 -10   33.64    1.61
   3   6 -11   38.65    1.70
   4  -2   7    6.27    1.48
   4  -1  -5   50.50    1.62
   4   1  -8  574.23    4.27
   4   3 -10  615.70    5.20
   5   4 -11    9.33    1.68
   6  -2   7   23.71    1.98
   8  -1  -5  268.29    5.86
  -1   2   9   -0.14    0.83
  -1   4  12   45.57    2.39
   0   0   7   84.32    1.62
   0   5  -7  184.48    2.45
   2  -2   3  335.15    3.70
   2   4  -9  223.16    2.72
   2   6 -10   65.09    1.90
   3  -1  -4   71.39    1.88
   3   3  -9   47.49    1.77
   4  -1  10    2.11    1.43
   4   2  -9    2.31    0.97
   4   5 -11    5.73    1.39
   5  -2  -3   10.68    1.77
   5   0  -7    8.13    1.41
  -3   5   7  253.25    3.76
  -3   9  -1    1.51    2.25
  -2   3   8   61.38    1.90
  -2   4  10    6.30    1.41
  -2   5  11   13.20    1.78
  -2   8  -4   14.73    1.93
  -1   1   7  821.76    4.21
  -1   7  -6  242.23    3.46
   0   1  10   10.86    1.22
   0   2  -4  537.20    3.71
   0   8  -8   47.81    2.16
   0   9  -8    7.41    1.86
   1  -1   7  124.10    2.05
   1   7  -9  162.89    3.30
   2  -2   2 1016.55    7.10
   2  -2   4  376.84    3.48
   2  -1   9   15.86    1.64
   2   0  11  165.98    3.13
   2   7 -10  103.71    2.80
   3  -2   7    5.72    1.32
   3   1  -7  842.81    4.37
   3   2  -8  382.44    3.14
   5  -2   8   74.25    2.84
   5   3 -10   31.76    1.90
   6  -2  -3   62.84    2.62
   6   0  -7    3.75    1.45
   7   0  -7   52.79    2.34
  -2   6  -3   50.80    2.08
  -2   9  -4    9.17    2.17
  -2  10  -4    4.09    2.09
  -1   1   1 1787.86   13.31
  -1   2  10  263.07    3.20
   0   0   8  133.71    2.11
   0   3  -5  150.75    1.94
   0   3  13   63.51    1.81
   0   4  -6   87.42    1.58
   1   0  10   29.00    1.34
   1   1  12   22.66    1.72
   1   2  13    5.11    1.06
   1   5  -8  100.90    2.03
   2  -2   5  125.36    2.13
   2   5  -9  265.27    3.29
   2   8 -10   58.86    2.33
   3   0  12   -1.24    1.59
   3   5 -10   36.54    1.50
   4  -2   8   99.88    2.52
   4   4 -10   70.54    2.26
   4   6 -11   19.92    1.40
   5   1  -8  304.94    3.40
   5   2  -9   48.02    1.88
   6  -2   8    1.80    1.74
   6   3 -10   -2.21    1.35
   7  -1  -5  101.97    3.25
   7   1  -8    3.05    1.59
  -3   5   2  112.59    4.13
  -3   5   8  234.31    3.57
  -2   3   9  984.60    5.81
  -1   1   8  127.79    2.06
  -1   3  12   31.35    1.65
  -1   4  13   73.60    2.39
   0   6  -7  217.31    2.73
   1  -1   8  470.73    3.71
   1   9  -9   57.47    2.41
   2  -2   6 1026.93    5.60
   3  -2   8  129.52    2.64
   4  -2  -2  627.55    6.43
   4  -1  11   83.53    2.43
   4   0  -6   67.06    1.75
   5  -3   3    8.25    2.09
   5  -1  -5    1.48    1.16
   6  -1  -5    1.53    1.73
   6   1  -8   40.76    1.94
   6   2  -9    3.93    1.40
   7   2  -9    2.07    1.23
   8  -2  -1    5.14    3.88
  -3   6  10    5.72    1.58
  -3   7   0  276.56    6.02
  -2   2   4  507.91    4.03
  -2   2   6  157.75    2.19
  -2   4  -1  121.19    3.28
  -2   4  11   36.22    1.49
  -2   5  -2  293.68    3.94
  -2   5  12    2.87    1.14
  -1   2  11   24.48    1.40
   0   0   9   82.80    1.88
   1   0  11  108.18    2.28
   1   4  -7 1104.38    4.78
   2  -1  10  199.30    2.88
   2   0  -4   27.46    1.52
   2   0  12  102.03    2.51
   3  -1  11    7.65    1.40
   3   4  -9  355.13    3.50
   3   6 -10    4.97    1.13
   4  -2   9    2.95    1.64
   4   3  -9   -1.18    0.97
   4   5 -10  236.96    3.34
   5  -3   2  106.72    4.28
   5  -3   4 1104.16    9.54
   5  -2   9    7.54    1.79
   5   4 -10  166.28    3.04
   6  -3   3   42.75    3.16
   8  -1  -4   35.08    3.10
   8   0  -6   19.04    2.19
  -3   5   9  113.92    2.64
  -1   1   9  631.22    4.30
   0   2  13   45.58    1.86
   0   7  -7   16.64    1.33
   1  -1   0 1940.96   32.59
   1  -1   9    8.01    1.29
   1   1  -4 3258.29    8.67
   1   1  13  224.51    3.18
   2  -1  -2 5194.86   16.01
   2   6  -9    9.44    1.02
   3   0  -5 1107.01    5.09
   3   7 -10  123.58    2.65
   4  -3   3   79.50    2.89
   4  -3   4    3.26    1.83
   4   1  -7   20.60    1.42
   4   2  -8    4.90    0.93
   5  -3   5   50.40    2.51
   6  -3   2   28.46    3.51
   6  -3   4  189.28    4.75
   6   4 -10   10.69    1.59
  -3   6  11   37.42    2.10
  -2   2   3 2344.32    9.18
  -2   2   8  187.77    2.71
  -2   7  -3 1877.74    8.79
   0   0  10  231.29    3.10
   0   1  -2    3.01    1.41
   0   1  12    2.86    1.30
   0   8  -7    5.13    1.45
   0   9  -7    4.00    1.69
   0  10  -7  180.83    3.83
   1   2  -5   38.75    1.34
   2  -2   1  459.47    6.42
   2  -2   8   71.47    2.07
   2  -1  11   -0.31    1.37
   2   7  -9   33.72    1.90
   3  -2   9  105.00    2.40
   3   3  -8  471.03    3.51
   4  -3   5  490.94    5.64
   4  -1  -4   91.69    2.11
   4   6 -10    3.06    1.56
   5  -3   6   53.64    2.59
   5   0  -6  294.11    3.13
   5   5 -10   83.07    2.45
   6  -3   5    8.43    2.08
   7  -2  -2    1.21    2.17
   7   0  -6   41.84    2.10
  -3   4   8  287.23    3.63
  -3   5  10   52.95    2.15
  -2   2   9   41.27    1.59
  -2   3  11  132.75    2.60
  -2  11  -3   31.25    2.73
  -1   1  10   19.34    1.15
  -1   2  12   45.64    1.80
   0  -1   5  510.69    3.62
   0  -1   6 5123.77   10.51
   1  -1  10    0.77    1.35
   1   0  12  235.58    3.02
   1   8  -8   91.17    2.58
   2   1  -5 2525.69    7.28
   2   8  -9   15.93    1.67
   3  -1  12  292.49    3.98
   3   1  -6  109.83    1.86
   3   2  -7  143.22    1.93
   3   5  -9   82.96    1.86
   4  -3   6   30.56    2.14
   4  -2  10    5.12    1.85
   4   4  -9  211.29    2.83
   5   1  -7   30.50    1.69
   5   2  -8   24.68    1.62
   6  -3   6   11.82    2.57
   6   0  -6   15.20    1.53
   7   1  -7    3.22    1.50
   7   2  -8   19.79    1.89
  -4   9   6   19.29    3.00
  -4   9   7   10.34    3.16
  -3   4   9  375.34    4.02
  -2   8  -3    4.61    1.71
  -1   0   5  124.12    2.13
  -1   0   6  535.71    3.52
  -1   0   7  162.13    2.18
   0  -1   4 7644.69   14.20
   0  -1   7   -0.81    1.10
   0   0  11   16.18    1.34
   0   4  -5   44.84    1.45
   0   6  -6    1.18    1.36
   1   5  -7  717.29    4.14
   1   9  -8    1.64    1.18
   2  -2   9  275.51    3.54
   2   5  -8   16.55    1.03
   3  -2  10   -0.34    1.59
   3  -1  -3  790.50    5.40
   3   6  -9    8.83    1.44
   4  -3   2  324.87    5.24
   4  -3   7    1.51    1.37
   4   7 -10   15.25    1.41
   5  -3   7   16.10    2.04
   5   6 -10   14.73    1.78
   6   1  -7   -0.13    1.39
   6   2  -8   66.58    1.98
   7  -1  -4    0.88    1.98
  -4   8   6    9.53    2.43
  -4   8   7  163.01    4.74
  -4   8   8   17.88    2.60
  -4   9   5    0.53    2.95
  -3   5  11    8.77    1.79
  -2   2  10  144.99    2.67
  -2   3  12    4.26    1.55
  -2   4  13  170.96    2.72
  -2   9  -3  382.45    4.99
  -2  10  -3    0.80    1.72
  -1   0   4 2722.44    8.65
  -1   0   8  469.76    3.53
  -1   1  11    6.14    1.00
  -1   2  -1   74.48    2.51
  -1   2  13  171.61    2.73
  -1  10  -5    3.34    1.67
   0  -1   8    1.84    1.16
   0   1  13  126.50    2.12
   1  -2   5  138.40    2.13
   1  -2   6  743.90    4.25
   1  -1  11    9.41    1.34
   1   0  13   -0.54    1.63
   2  -1  12  188.71    3.16
   3  -3   4    2.06    1.39
   3  -3   5 2609.51   10.15
   3  -3   6   67.51    2.29
   3   4  -8  318.93    3.19
   4   3  -8  304.11    3.05
   4   5  -9    0.49    1.35
   5  -3   1   14.46    3.77
   5  -2  -2  796.74    7.34
   5  -1  -4  489.13    4.18
   5   4  -9   36.75    1.63
   6  -3   7   37.88    2.56
   7  -3   3  244.04    9.04
   7  -3   4   15.30    2.95
   7  -3   5   28.09    3.76
   8   0  -5   44.31    2.43
  -3   4  10   43.05    1.97
  -3   8   0   78.05    3.35
  -3  10   0    4.17    2.48
  -1   0   9    1.63    1.17
   0  -1   9  467.03    3.94
   0   0  12  301.48    3.30
   0   2  -3 1690.36    6.83
   0   7  -6  705.96    4.93
   1  -2   4  418.68    3.63
   1   0  -2 3337.86   12.02
   1   4  -6  163.33    2.09
   1   6  -7  131.11    2.15
   2  -2  10    3.69    1.38
   2   6  -8   50.19    1.53
   3  -3   7   24.32    1.68
   3  -2  11  144.71    2.94
   3   7  -9   15.68    1.19
   4  -3   8  140.70    3.23
   4   0  -5   56.33    1.69
   5  -3   8   87.45    2.98
   6  -2  -2  148.39    3.51
   6  -1  -4 1115.50    6.63
   6   4  -9    4.83    1.22
   8  -1  -3    4.96    2.38
  -4   7   6  103.87    3.63
  -4   7   7    0.37    1.72
  -4   8   5   28.39    3.35
  -3   3   7  816.67    5.45
  -3   3   8  428.23    4.58
  -3   4   3  297.69    4.45
  -3   5  12   19.57    2.02
  -3   9   0   12.65    2.44
  -2   1   6  272.19    2.80
  -2   1   7 2508.61    7.62
  -2   2  11   40.90    1.51
  -2   6  -2  188.09    3.00
  -1   1  12    3.13    1.00
   0   8  -6    4.11    1.54
   0  10  -6    0.34    1.66
   1  -1  12   18.95    1.93
   1   7  -7  213.08    3.01
   2   7  -8   15.14    1.56
   3  -3   3  183.01    3.32
   3   8  -9    4.01    1.23
   4   1  -6  210.55    2.56
   4   6  -9    2.09    1.36
   5   3  -8  334.05    3.46
   7   3  -8    9.93    1.88
   8   1  -6   -0.03    1.62
  -4   7   9   15.10    2.28
  -3   3   9   49.89    1.85
  -3   6   1  790.69   13.14
  -2   1   5 2387.50    7.60
  -2   1   8    2.93    0.95
  -2   1   9   43.59    1.79
  -1   0  10  442.66    4.06
   0   5  -5  302.21    2.86
   1   8  -7    1.70    1.37
   1  10  -7   11.19    1.93
   2   8  -8    7.35    1.48
   2   9  -8    3.00    1.59
   3   5  -8  205.28    2.57
   4  -3   9  118.37    3.84
   4   4  -8    0.21    1.29
   4   7  -9   12.63    1.69
   5  -3   9    4.37    2.25
   5   0  -5  449.31    3.67
   5   2  -7   70.85    1.90
   6   5  -9   55.04    2.44
   7   0  -5  495.04    4.80
   7   2  -7    4.65    1.61
  -4   6   8   10.56    2.12
  -3   3   5   12.22    1.27
  -3   3  10   16.53    1.65
  -3   4  12   18.08    1.87
  -2   2   2   22.22    1.86
  -2   2  12    1.66    1.14
  -1   0   3 4815.04   12.10
  -1   0  11   32.25    1.54
  -1  11  -4    3.03    1.90
   0  -1  11   25.74    1.50
   0   0  13   34.69    1.48
   1  -2   3  140.91    2.34
   1  -2  10   92.41    2.21
   1   9  -7  103.02    2.43
   2   5  -7  969.61    4.54
   3  -3   9  261.57    3.76
   3   0  -4 1814.16    6.88
   3   2  -6   26.63    1.34
   5   1  -6    8.08    1.37
   5   6  -9    3.79    1.21
   6   0  -5   11.56    1.50
   6   2  -7    1.94    1.46
   7   1  -6    5.28    1.58
  -4   6   7   94.96    3.27
  -4   6   9    3.78    1.68
  -4   7   5   74.23    3.71
  -2   1  10  275.01    3.15
  -2   2  13  194.78    3.03
  -2   7  -2  256.21    3.69
  -2  11  -2   78.71    3.22
  -1  10  -4  142.45    3.38
   1  -1  13  193.67    2.85
   2  -3   5   68.86    1.94
   2  -3   8   84.96    2.38
   2  -2  12   92.55    2.51
   2   0  -3   82.65    2.00
   3   1  -5  345.80    2.77
   3   6  -8   45.82    1.37
   4  -3  10   29.25    2.34
   5   4  -8    0.26    1.26
   6   1  -6   12.37    1.33
   6   4  -8   20.96    1.77
   7   4  -8    0.92    1.67
   8  -2   0    1.47    3.65
  -4   6   6   -0.18    1.45
  -4   6  10    5.10    1.98
  -3   3  11   59.48    1.67
  -2   1   4  450.88    3.70
  -2  10  -2   18.66    2.18
  -1   0  12   47.36    1.81
  -1   9  -4   65.73    2.17
   0  -1  12    4.14    1.31
   0   6  -5   25.44    1.64
   1  -2  11    5.32    1.50
   2  -3   9  204.36    3.34
   2   1  -4  461.84    3.56
   2   2  -5  141.66    1.81
   2   6  -7   29.55    1.57
   3  -3  10   -1.44    1.26
   3   7  -8   52.86    1.67
   3   8  -8   -0.99    1.48
   4  -1  -3 2628.01    9.53
   4   5  -8  312.35    3.10
   7  -2  -1   26.73    3.12
   7  -1  -3   37.35    2.30
   8   0  -4  202.45    3.82
  -4   5   9    0.71    1.74
  -3   2   8  281.81    3.31
  -3   3   4  496.34    4.55
  -3   3  12   13.76    1.72
  -2   1  12    4.00    1.44
  -2   5  -1  104.53    2.92
  -2   8  -2   17.71    1.63
  -2   9  -2   22.59    2.17
  -1  -1   7  796.06    4.38
  -1  -1   8  133.93    2.18
  -1  -1   9  858.92    5.11
   0  -2   7  986.20    4.83
   0  -2   8   25.12    1.46
   0  -1   2    2.52    1.56
   0   4  -4   66.22    1.59
   1   6  -6  164.37    2.22
   2  -3   4  122.28    2.33
   3  -3  11   57.39    2.22
   4   6  -8   12.00    1.50
   5   3  -7   77.50    2.17
   5   5  -8  163.21    2.64
   8   1  -5  326.21    4.38
   8   2  -6   45.62    2.22
  -4   5   7   57.52    2.47
  -3   2  10    5.40    1.50
  -3  11   1   38.15    3.40
  -1  -1  10   24.62    1.50
  -1   0  13  196.05    2.78
   0  -2   6   60.08    1.43
   0  -2   9  136.46    2.18
   0  -1  13  166.72    2.77
   0   7  -5   69.03    1.71
   0   8  -5   72.72    1.95
   0   9  -5    1.56    1.62
   0  10  -5    5.92    1.60
   1   4  -5 1762.46    5.92
   1   7  -6  576.44    4.24
   1  10  -6    1.63    1.73
   2   7  -7  332.13    3.09
   2   8  -7   32.31    1.75
   2   9  -7  263.51    3.64
   2  10  -7    7.92    1.69
   3  -3   2   27.50    1.96
   4   2  -6   11.76    1.10
   4   7  -8   94.58    2.39
   6   3  -7    0.28    1.34
   6   5  -8   12.76    1.33
   8  -1  -2    4.08    2.37
  -4   6   5   28.92    2.56
  -3   2  11   80.47    2.24
  -3   3  13   11.34    1.35
  -2   0   7  648.47    3.99
  -2   0   8   21.00    1.21
  -2   0   9   19.98    1.44
  -2   0  10  146.63    2.68
  -2   1  13   22.15    1.77
  -1  -1   5  283.57    2.86
  -1  -1  11    5.91    1.29
   0  -2   5    8.58    1.34
   0  -2  10  174.23    2.55
   1  -2  13    4.23    1.55
   1   8  -6   69.13    2.06
   1   9  -6  113.30    2.45
   4   0  -4    7.49    1.25
   4   1  -5   49.36    1.57
   4   4  -7   40.67    1.38
   5  -1  -3   82.27    2.09
   5   2  -6    4.28    1.35
   5   6  -8   27.98    1.46
   6  -1  -3  216.82    3.20
   6   6  -8   41.99    2.07
   7   0  -4   54.44    2.15
   7   1  -5   93.61    2.72
   7   2  -6   19.41    1.67
  -4   5   6   13.46    1.81
  -3   2  12    1.24    1.44
  -2   0   6 2768.49    7.64
  -2   0  11   45.41    1.79
  -1  -1  12    4.83    1.27
  -1  11  -3    3.13    1.90
   0  -2  11   -0.37    0.92
   1  -3   6 3717.34    9.88
   1  -3   7   17.25    1.20
   1  -3   8    0.12    0.88
   1  -3   9  190.40    3.09
   1  -2   2 1285.53    7.58
   3   6  -7  112.51    2.04
   4  -4   7   51.63    2.51
   4  -4   8  122.84    3.12
   5  -4   6   61.03    2.74
   5  -4   7    1.41    2.00
   5  -4   8  147.45    4.46
   5   4  -7   11.64    1.49
   5   7  -8  163.93    2.53
   6   2  -6    1.23    1.05
   7   4  -7   24.35    1.78
  -4   4   9  181.49    3.49
  -4   4  10   64.17    2.65
  -4   4  11   11.08    1.65
  -3  10   1  122.46    4.14
  -2   0  12    8.05    1.43
  -2  11  -1   19.60    2.65
   0   5  -4    1.03    1.09
   1  -3  10  270.16    3.50
   2  -3   3  412.89    4.31
   2  -3  12   65.31    2.11
   3  -4   7   98.38    2.75
   3  -4   8   33.03    1.89
   3  -1  -2  572.63    5.40
   3   2  -5   11.70    1.25
   3   7  -7  454.79    3.82
   3   9  -7   66.02    2.50
   4  -4   5 1079.66    8.82
   4  -4   9   88.38    3.08
   4  -3   1  121.36    5.69
   4  -2  -1  223.28    4.63
   5  -4   5    1.40    1.71
   5   0  -4  931.17    5.13
   5   1  -5    0.73    1.33
   6   0  -4   37.94    1.80
   6   1  -5    2.34    1.32
   6   4  -7   82.98    1.95
  -4   4  12   11.99    1.86
  -4   7   4   34.21    4.19
  -3   1   9   17.50    1.53
  -3   1  10  441.12    4.72
  -3   2   5   12.02    1.27
  -2   1   3   15.68    1.31
  -1  -1  13   73.30    2.18
  -1   0   2 2746.05   10.74
  -1   4  -2 4264.83   12.20
  -1   7  -3  693.99    4.61
  -1  10  -3   37.98    1.87
   0  -2   4  551.24    4.02
   0  11  -4   18.70    2.01
   1  -3   5  325.89    3.07
   1   3  -4   61.34    1.60
   1   5  -5    0.93    0.91
   2   6  -6  145.21    2.14
   3  -4   6   66.39    2.26
   3  -4   9  157.57    3.32
   3   8  -7   60.70    1.78
   4  -4  10   17.49    2.24
   4   3  -6    5.93    0.99
   5   5  -7   42.97    1.83
   6  -4   6   44.11    3.61
   6  -4   7   32.78    2.98
   6  -2  -1   25.67    2.34
   7   3  -6   35.23    2.02
   7   5  -7    5.65    1.67
   8   0  -3   26.71    2.36
   8   1  -4   37.19    2.60
   8   2  -5    7.16    1.70
  -3   1   8  210.99    2.86
  -3   1  11   18.59    1.68
  -2   0   5  115.16    1.74
  -2   0  13  193.90    2.79
  -2   6  -1    9.17    1.64
  -1   8  -3   45.17    1.78
  -1   9  -3  486.14    4.31
   0  -2  13   41.39    1.59
   0   6  -4   36.88    1.57
   1  -3  12  109.35    2.63
   2   7  -6   45.83    1.77
   2   9  -6   33.42    1.82
   2  10  -6   28.12    1.74
   3  -4  10    5.74    1.82
   3   1  -4   77.99    1.78
   4   6  -7   98.25    1.78
   4   7  -7    1.47    1.40
   4   9  -7   13.28    1.91
   5  -4   4    6.77    2.39
   5   3  -6   41.37    1.67
   6  -4   5   -0.96    2.19
   6   3  -6   58.63    1.93
   6   5  -7    5.60    1.27
  -4   3   9   -1.28    1.39
  -4   3  10  605.51    6.12
  -4   3  11    1.67    1.62
  -4   5   5  100.54    3.53
  -3   1   7  792.97    4.53
  -3   1  12   14.91    1.82
  -3   7   1  364.89    6.29
  -3   9   1   51.66    3.03
  -2  -1   9   47.52    1.74
  -2  10  -1   13.51    1.91
  -1  -2   8   -0.17    1.24
  -1  -2   9   -0.31    0.88
  -1  -2  10  241.78    3.24
  -1  -2  11   23.51    1.49
   0   2  -2 3080.80   10.34
   0  10  -4    4.63    1.48
   1   6  -5   40.32    1.26
   1  10  -5   60.05    2.12
   2  -4   7  193.42    3.30
   2  -4   8   28.94    1.78
   2  -4   9  168.01    3.08
   2   2  -4  572.98    3.66
   2   8  -6  201.29    2.41
   3  -4   5  255.40    3.43
   3  -4  11  114.15    3.22
   3   0  -3 1343.79    6.48
   4  -4   4    3.33    1.91
   4   8  -7  157.88    2.53
   5   6  -7   13.32    1.25
   5   7  -7   25.60    1.89
   7  -1  -2   44.89    2.51
   7   2  -5  105.33    2.42
  -4   3   8  276.95    3.64
  -4   4   6  163.87    3.00
  -3   8   1  471.75    6.59
  -2  -1   8    3.15    1.27
  -2  -1  10  273.32    3.31
  -2  -1  11   16.52    1.63
  -2   9  -1    6.75    1.97
  -1  -2   7  624.03    3.76
   0  -3   7  515.48    3.84
   0  -3   9   58.39    1.60
   0  -3  10  234.65    3.26
   0  -3  11   52.83    2.15
   0   8  -4   22.69    1.52
   0   9  -4  389.23    3.55
   1  -3   4   56.65    1.71
   1   7  -5  104.87    1.78
   1   8  -5   20.14    1.69
   1   9  -5   43.22    1.47
   2  -4  10   92.12    2.34
   4   4  -6  159.88    1.97
   5  -2  -1   10.04    1.96
   5   8  -7   18.36    1.40
   6   7  -7    1.54    1.41
   7   4  -6   69.55    2.46
   8   3  -5   11.47    2.04
  -3   1   6  108.35    1.93
  -2  -1   7 2535.91    7.43
  -2  -1  12    2.45    1.03
  -2   4   0 3007.33   16.60
  -2   7  -1   74.16    2.48
  -2   8  -1   73.21    2.67
  -1  -2   6  297.15    2.83
  -1  -2  13  143.68    2.67
  -1  11  -2   52.26    2.91
   0  -3  12   61.94    2.28
   0   4  -3 1228.00    5.44
   2  -4   6 1999.40    8.83
   2  -4  11   27.48    2.67
   3   6  -6    1.58    1.19
   3  10  -6    3.19    1.38
   5   2  -5  249.45    2.80
   5   4  -6  122.98    2.23
   6   2  -5  380.56    3.15
   6   4  -6   13.86    1.57
   7   0  -3   92.40    2.39
   7   1  -4    1.26    1.31
   8  -1  -1    2.91    2.40
  -4   3   7   31.87    1.83
  -3   0   9    2.68    1.24
  -3   0  10   46.32    2.01
  -3   0  11  156.03    2.74
  -3   2   4  908.37    5.54
  -2   0   4   24.20    1.49
  -1   5  -2  508.95    4.37
   0  -3   6  512.87    3.69
   0  -3  13   97.09    2.30
   1  -4   9  138.44    2.96
   2  -4  12   19.98    1.71
   2  -1  -1  794.83    8.43
   3   7  -6   82.49    1.56
   3   8  -6   37.11    1.64
   3   9  -6   15.48    1.35
   4   5  -6   18.12    1.38
   6  -4   4  307.94    8.48
   7   5  -6   17.86    1.36
   8   2  -4   -0.27    1.75
  -4   2   9    2.10    1.30
  -4   2  10   16.77    1.42
  -4   2  11   37.58    1.66
  -4   2  12    3.77    1.69
  -4   6   4  238.91    6.26
  -3   0   8   14.02    1.52
  -3   0  12   16.58    1.36
  -3   0  13   12.67    1.64
  -2  -1   6  245.59    2.69
  -1  10  -2  359.69    3.89
   0  11  -3  169.61    2.92
   1  -4   8  110.14    2.30
   1  -4  11   18.62    1.71
   1  11  -4    3.03    1.65
   2  -4   5   36.75    1.64
   4  -1  -2  613.18    5.18
   4   0  -3   26.69    1.66
   4   9  -6   34.17    1.89
   5   1  -4  490.51    3.69
   5   5  -6    1.89    1.32
   6  -1  -2   99.37    2.43
   6   1  -4  967.91    5.28
   6   5  -6   -1.28    1.40
   7   3  -5   31.78    1.71
   8  -2   1  120.02    5.77
   8   0  -2  118.93    3.38
   8   1  -3    5.81    1.90
  -5   6  10   14.03    2.56
  -4   2   8    5.59    1.36
  -4   2  13    1.35    1.39
  -2  11   0  174.74    3.61
  -1  -2   5   39.99    1.48
   1  -4  12  132.47    2.76
   1   1  -2  792.57    5.56
   1   5  -4  245.07    2.52
   1  10  -4   33.05    1.99
   2   0  -2  693.29    5.43
   2   6  -5    8.77    1.23
   2   7  -5  816.17    4.40
   2   8  -5   44.46    1.66
   2   9  -5  175.06    2.51
   4   3  -5  473.78    3.19
   4   7  -6  111.67    1.85
   4   8  -6   18.68    1.31
   5  -1  -2  203.86    3.28
   5   6  -6    5.24    1.50
   6   0  -3 1372.16    6.75
   6   6  -6    3.70    1.49
   6   7  -6   27.76    1.92
   7  -2   0    2.97    2.19
  -5   5  10   47.51    2.81
  -4   4   5    6.32    1.56
  -3   0   7  350.78    3.05
  -3   1   5  375.23    3.24
  -2  -2   9   49.21    1.82
  -2  -2  10  154.27    2.81
  -2  -2  11   57.06    2.06
  -2  -2  12    2.22    1.52
  -1  -3   9   10.75    1.44
  -1  -3  11  128.20    2.68
  -1  -3  12   33.60    1.93
  -1   6  -2  609.82    4.47
  -1   9  -2    4.04    1.55
   0  -3   5  142.62    2.14
   0   5  -3  743.28    4.21
   0  10  -3   23.15    1.67
   2  -3   2 1418.68    8.62
   3  -5   9  212.85    3.90
   3   2  -4  798.53    4.14
   4  -5   8   22.46    2.45
   4  -5   9  101.08    3.62
   4  -4   3  160.44    3.80
   5  -4   3  362.39    6.87
   5   0  -3    0.50    1.19
   5   3  -5  121.97    1.81
   5   7  -6    1.32    1.17
   5   8  -6   21.84    1.38
   7   2  -4    1.13    1.60
   7   4  -5   49.78    2.04
   8   3  -4   12.50    2.02
  -5   5   9   43.00    2.94
  -4   1  10   45.12    1.93
  -4   1  11  115.88    2.75
  -4   1  12   -0.69    1.47
  -4   2   7  184.51    2.78
  -3  -1  11   18.16    1.58
  -2  -2  13  184.79    3.19
  -2  -1   5 2430.90    7.31
  -1  -3   8    8.48    1.02
  -1  -3  13   94.75    2.58
  -1   7  -2  202.96    2.70
  -1   8  -2   80.87    2.09
   0  -4   9   -0.65    1.26
   0  -4  10  132.75    2.67
   0  -4  11  100.89    2.78
   0   9  -3   17.82    1.57
   1  -3   3  149.15    2.49
   1   6  -4   -0.24    1.24
   1   7  -4  384.40    3.11
   1   8  -4  105.87    2.17
   1   9  -4  286.24    2.84
   3  -5   8    7.31    1.57
   3  10  -5   14.16    1.52
   4  -5   7    0.92    1.87
   4   4  -5    5.93    1.39
   5  -5   8   95.87    3.72
  -4   1   9    3.34    1.45
  -4   1  13    7.50    1.43
  -3  -1   9   15.13    1.43
  -3  -1  10  440.75    4.22
  -3  -1  13   16.57    1.96
  -3   4   2   14.53    3.65
  -2  10   0  176.18    3.32
   0  -4  12  200.36    3.28
   0   6  -3  253.51    2.63
   0   7  -3  280.86    2.98
   0   8  -3   10.38    1.46
   1   3  -3 1062.23    5.15
   2  -5  10   81.04    2.72
   2  -5  11    3.85    1.92
   2  -4   4  115.14    2.31
   2  11  -4   81.60    2.09
   3  -5   7    1.12    1.52
   3   8  -5   82.90    1.95
   3   9  -5   76.13    1.71
   4   2  -4 1241.85    5.40
   5  -5   7   -0.20    2.14
   5   4  -5  549.83    3.63
   6   2  -4    7.72    1.42
   6   4  -5  417.61    3.16
   7   1  -3   39.11    1.86
   7   5  -5   44.31    1.53
  -3   0   6    5.07    0.91
  -3  10   2   36.94    2.81
  -2  -2   7   75.85    1.81
  -1  11  -1   46.91    2.11
   0   3  -2 3429.67   10.33
   1  -4   5   24.76    1.39
   1  11  -3  101.31    2.52
   2  -5   8   32.57    2.13
   2  10  -4   28.53    1.70
   3   7  -5   42.83    1.33
   4  -5   6   23.96    2.24
   4   9  -5    3.12    1.58
   5   2  -4  172.66    2.43
   6   5  -5   33.48    1.78
   7  -1  -1    1.05    1.86
   7   0  -2   57.00    2.36
   7   3  -4    7.68    1.72
   7   6  -5   84.69    1.93
   8   2  -3   34.47    1.97
  -5   4   9   36.28    2.58
  -5   5   8  128.17    3.76
  -4   1   8  508.03    4.38
  -4   5   4  214.58    4.97
  -3  -1   8  177.72    2.19
  -1  -2   4   67.48    1.75
   0  -3   4   38.65    1.56
   0  11  -2   51.06    2.02
   1  -5  10  275.93    3.55
   1  -5  11   24.46    1.75
   2  -5   7    1.73    1.23
   3  -5   6    1.78    1.43
   3  -4   3 1609.24    8.99
   4   6  -5   38.55    1.50
   4   7  -5  110.24    1.92
   5  -5   6    1.76    2.33
   5   6  -5  176.62    2.38
   5   8  -5   57.34    1.97
   5   9  -5    1.70    1.23
   6   6  -5   83.51    2.08
   6   7  -5    0.41    1.79
   8  -1   0   65.24    3.36
   8   1  -2    3.21    1.93
  -5   7   7   14.38    3.47
  -4   0  10   -0.11    1.47
  -4   0  11   94.19    2.48
  -4   0  12    0.92    1.15
  -4   0  13   -1.09    1.82
  -2  -3  10   32.12    1.92
  -2  -3  11  112.97    2.84
  -2  -3  12    5.00    1.62
  -2  -3  13   28.06    1.92
  -2   0   3   93.48    2.07
  -2   9   0  115.63    2.61
  -1  -4  12   86.70    2.35
  -1  10  -1   19.20    1.79
   1  -5   9   23.48    1.82
   1  -5  12   29.37    2.16
   1  10  -3  439.90    3.72
   5  -3   1   14.44    3.81
   5   7  -5   47.26    1.46
   6   1  -3  232.16    2.83
   6   3  -4   21.45    1.58
   7   4  -4    9.28    1.68
   8   0  -1  132.80    3.32
  -5   4   8   -1.03    1.70
  -5   6   7   13.22    2.38
  -5   8   7    9.68    3.97
  -4   0   9   31.75    1.67
  -4   1   7   20.67    1.53
  -3  -2  11   80.08    2.42
  -3  -2  12    1.13    1.56
  -3  -2  13   50.23    2.41
  -3  -1   7  797.87    4.29
  -3   1   4   72.02    1.91
  -2  -3   9 1012.20    6.07
  -2   5   0 1766.26   10.46
  -2  11   1   17.34    2.45
  -1  -4   9  122.04    2.53
  -1  -4  10  192.30    3.01
  -1  -4  13   75.43    2.52
   0  -4   6  123.11    2.20
   0  10  -2   74.87    2.18
   1  -5   8   25.85    1.68
   2  -5   6  331.35    3.96
   2   6  -4  147.50    1.87
   2   7  -4  314.87    2.81
   3  10  -4  229.26    2.70
   4  -5   5  293.76    4.82
   4   1  -3 2822.07    8.50
   4   3  -4  553.87    3.64
   5   1  -3   92.53    2.01
   7   2  -3  215.34    2.84
   8   3  -3   24.30    1.61
  -5   2  11    3.04    1.88
  -5   2  12    3.35    1.56
  -3   0   5 1034.24    4.95
  -3   2   3  127.78    2.95
  -2  -3   8   66.01    1.78
  -2   8   0  207.63    3.67
   0  -5  11   32.57    2.00
   0  -5  12    7.50    1.55
   1  -5   7   15.61    1.45
   1  -2   1   83.40    2.96
   1   9  -3   -0.19    1.33
   3   0  -2  273.14    3.44
   3   9  -4    5.81    1.63
   4  10  -4   69.39    1.89
   6  -2   0    4.67    1.97
   6   0  -2   35.21    1.86
   6   4  -4    3.04    1.47
   7   5  -4   27.61    1.37
   7   6  -4    3.31    1.74
   8   4  -3  128.28    2.75
  -5   2  10   66.70    2.80
  -4  -1  12    0.46    1.66
  -4  -1  13   10.85    1.86
  -4   0   8  319.90    3.35
  -3  -2   9   77.61    1.71
  -3   9   2    7.59    2.06
  -2   6   0  225.44    4.01
  -2   7   0   95.93    2.68
  -1  -4   8  548.77    3.76
  -1  -3   5   52.16    1.61
  -1   4  -1   53.46    1.92
  -1   9  -1    0.66    1.53
   0  -5   9   60.45    2.26
   0  -2   2 3199.72   11.06
   0   9  -2    0.66    1.41
   1  -4   4 2675.61    8.76
   1   5  -3  521.20    3.49
   1   8  -3  292.38    2.89
   1  11  -2    6.69    1.93
   3  -6  10    9.31    2.03
   4   4  -4 1112.10    4.81
   4   9  -4   11.95    1.68
   5  -5   5    3.88    2.10
   5   4  -4  191.20    2.33
   5   9  -4  107.23    2.38
   6  -1  -1    3.91    1.84
   6   5  -4    3.15    1.45
   6   8  -4   22.10    2.05
  -5   1  12    6.28    1.74
  -4   4   4 1086.45    8.88
  -3  -2   8  384.72    3.23
  -3  -1   6  113.09    1.95
  -1  11   0   96.36    2.63
   0  11  -1  190.83    2.95
   1   2  -2    1.13    1.31
   1   6  -3  765.24    4.05
   1   7  -3  146.06    2.09
   2  -6  10    1.49    1.67
   2  -4   3  341.19    4.04
   2   3  -3 2158.89    7.02
   3  -6   9   72.87    2.89
   3  -3   1  243.82    6.86
   3   2  -3  127.39    2.09
   3   7  -4   83.22    1.50
   4   8  -4   49.36    1.74
   5   0  -2  340.65    3.80
   5   5  -4  201.00    2.44
   5   8  -4  196.84    2.59
   6  -5   6    4.54    3.24
   6   2  -3   67.35    1.89
   6   6  -4    5.27    1.63
   6   7  -4  731.05    4.42
   7   1  -2   50.03    1.95
   7   3  -3   -0.04    1.65
   8  -2   2   -1.12    3.27
  -4   1   6  223.69    2.99
  -3  -3  13    2.45    2.00
  -2  -4  12   52.48    1.99
  -2  -4  13  125.52    3.36
  -2  -3   7  549.52    3.61
  -2  -2   5  150.80    1.92
  -2  10   1  398.98    4.68
  -1  -4   7  932.56    4.55
  -1  -1   2  766.55    5.47
  -1   8  -1  101.91    2.22
   0  -5   8   80.35    1.91
   0   5  -2  559.93    3.94
   0   8  -2  217.28    2.42
   1  -5   6 1708.90    7.42
   2   9  -3    2.11    1.44
   3  -6   8   59.15    3.03
   4   0  -2 9684.13   18.03
   4   6  -4  255.78    2.62
   5   6  -4  213.37    2.57
   5   7  -4   52.66    1.73
   8   1  -1    1.09    2.26
  -5   1  10    3.31    1.70
  -4  -1   9    4.51    1.43
  -4   0   7 1461.84    6.41
  -4   2   5   91.11    2.24
  -4   8   4   43.91    5.21
  -2  -4  10    7.19    1.21
  -1  -5  10   24.55    1.77
  -1  -5  11  113.14    3.23
  -1  -5  12   15.47    1.75
  -1  -2   3 2067.27    7.51
  -1   5  -1   68.74    2.12
  -1   6  -1   70.43    2.11
  -1   7  -1  162.77    2.48
   0   6  -2  147.42    2.17
   0   7  -2    0.38    1.20
   1  -6  11    0.47    1.83
   1  10  -2   47.24    1.94
   2  -6   8   24.93    2.06
   2   1  -2 4696.15   12.57
   2  11  -2   58.35    2.29
   3  -1  -1  633.66    6.44
   3  10  -3   42.90    1.70
   4   2  -3    7.07    1.35
   4  10  -3    9.51    1.92
   5   2  -3    8.45    1.42
   7  -2   1   79.78    3.77
   7   0  -1   67.81    2.31
   7   4  -3    4.37    1.93
   8   3  -2    2.08    1.68
  -5   0  12   10.71    1.85
  -5   2   8   23.59    1.90
  -4  -2  12    5.15    1.74
  -4  -2  13    3.51    1.93
  -3  -2   7  141.64    1.95
  -3   8   2  169.74    4.06
  -2  -4   9  229.60    3.03
   0  -3   3 4247.12   10.78
   0  10  -1  118.31    2.41
   1  -6   9  145.49    3.16
   1  -3   2  909.32    6.26
   2   8  -3  152.86    1.98
   3  -6   7   -1.31    1.51
   4  -6   7    5.93    2.32
   5  -1  -1  171.24    3.17
   6   3  -3   22.76    1.16
   7  -1   0   17.20    2.30
   7   5  -3    0.15    1.15
   7   6  -3   63.33    1.98
   8  -1   1    3.97    2.77
   8   0   0   48.17    2.73
   8   4  -2   10.80    2.00
  -5   0  11    4.45    2.24
  -5   3   7   68.61    2.49
  -4  -2  11   36.36    1.70
  -4  -1   8  575.14    4.08
  -3  -3   9   39.66    1.51
  -3   0   4 1819.15    7.07
  -2  -3   6   69.66    1.43
  -1  -5   9   59.52    1.83
  -1  -4   6  134.19    1.89
  -1  10   0  149.81    2.62
   0  -6  11   -1.25    1.45
   1   9  -2   54.64    1.79
   2  -6   7   12.73    1.60
   2   7  -3    9.39    1.04
   3  -5   4   39.41    2.16
   3   3  -3   69.75    1.48
   4  -5   4   99.99    3.29
   4   9  -3  125.51    2.35
   5  -2   0    0.39    2.07
   5   3  -3   19.38    1.49
   5   9  -3    0.12    1.60
   6   1  -2   67.64    2.13
   6   4  -3   -0.24    1.56
   6   8  -3  279.18    3.08
   7   2  -2    0.74    1.41
  -5   0  10   17.73    1.73
  -5   5   6    1.93    2.02
  -5   6   6    3.05    2.62
  -3  -1   5  317.66    2.73
  -2   9   1   38.68    2.29
  -2  11   2   75.96    2.87
  -1  -5   8  112.91    2.36
  -1  -3   4   49.12    1.33
   0  -6  10   48.37    2.42
   1  -6   8    0.26    1.12
   1  -5   5   16.57    1.44
   1  11  -1   65.80    2.08
   3   8  -3  166.20    2.03
   4  -1  -1  162.51    3.10
   4   3  -3  115.95    2.04
   4   8  -3    7.16    1.57
   5   8  -3    8.63    1.65
   6   5  -3    1.95    1.48
   6   6  -3  241.46    2.80
   6   7  -3   38.22    1.61
   8   2  -1    0.62    1.93
  -6   4  10    7.87    2.86
  -5   1   8  332.59    3.79
  -4  -2   9    2.62    1.42
  -4   0   6   63.80    1.81
  -4   3   4  556.51    5.63
  -3  -4  11  115.12    2.93
  -3  -3   8  537.42    3.69
  -3  -2   6   28.77    1.40
  -2  -5  11   13.70    1.88
  -2  -5  12    1.23    1.42
  -2  -2   4  572.61    3.77
  -2  -1   3   17.97    1.45
   0  -6   9   82.18    2.60
   0  -5   6  874.98    4.62
   0   9  -1    5.01    1.42
   0  11   0    1.55    1.79
   1   3  -2   53.67    1.53
   1   8  -2  132.22    2.19
   3   1  -2  570.11    4.32
   3   7  -3   37.14    1.23
   4   4  -3   40.68    1.66
   4   7  -3 1397.32    5.28
   5  -6   7   20.59    3.49
   5   1  -2  203.46    2.66
   5   4  -3   33.19    1.49
   5   7  -3   79.02    2.05
   7   3  -2  393.74    3.52
  -5  -1  11  141.90    3.03
  -5   0   9   10.17    1.66
  -5   7   6    0.98    3.61
  -4   1   5   53.72    1.76
  -3  -4  10   34.46    2.06
  -3   1   3  784.54    5.68
  -3   7   2  262.57    5.11
  -2  -5  10   30.69    2.03
  -1  -6  11   28.31    1.92
  -1  -6  12    2.79    2.02
  -1   9   0   49.97    1.99
  -1  11   1   61.08    2.29
   1  -6   7  116.18    2.38
   1  -4   3 1276.34    6.53
   1   7  -2    6.80    1.39
   2  -5   4  186.02    2.84
   2   9  -2   64.64    1.82
   2  11  -1   19.21    1.93
   4  -6   6   38.39    2.95
   4   1  -2  689.63    4.49
   4   6  -3    3.29    1.40
   4  10  -2  119.98    2.29
   5   5  -3    4.99    1.11
   5   6  -3    0.13    1.10
   6  -5   5    6.19    3.91
   6   0  -1  185.93    2.83
   6   2  -2  166.48    2.45
   7   1  -1    2.51    1.55
   7   4  -2   13.05    1.71
   7   6  -2    0.91    1.72
   8   1   0   62.94    3.07
   8   3  -1    3.65    1.67
  -6   2  11    3.12    1.96
  -6   3  10    0.16    2.13
  -4  -3  11    2.94    1.41
  -4  -2   8    4.74    1.27
  -3  -3   7 1003.32    4.87
  -2  -3   5   11.60    1.29
  -1  -6  10  124.69    2.84
  -1  -4   5 1378.06    5.35
   0  -6   8   -1.01    1.53
   0   8  -1   62.02    1.91
   1   6  -2  231.24    2.54
   1  10  -1  112.29    2.17
   2  -7  10   83.00    3.01
   2  -6   6  323.01    3.87
   2   2  -2   19.90    1.46
   5  -5   4  515.22   10.12
   5   9  -2   24.11    1.84
   6   8  -2    2.64    1.78
   7   5  -2  100.52    1.82
   8   4  -1    4.05    1.93
  -6   4   9    1.95    2.45
  -6   5   9   61.22    3.85
  -5  -1  10    1.30    1.06
  -5   3   6   36.38    2.49
  -3  -4   9  326.66    3.47
  -2   0   2  706.63    5.49
  -2   8   1 3846.11   12.53
   1  -7  10   16.12    2.03
   1   5  -2  326.11    2.77
   2  -7   9    7.31    1.98
   2   8  -2   12.45    1.54
   3  -7   9    8.50    2.26
   3  -4   2  304.99    5.24
   3   9  -2    8.04    1.25
   3  11  -1   42.61    1.70
   4  -4   2  161.23    6.48
   4  -2   0    6.94    2.05
   4   9  -2   42.11    1.74
   6   3  -2  240.62    2.60
   6   7  -2   -1.27    1.68
  -6   1  11   18.39    2.46
  -6   2  10    7.07    2.08
  -5  -2  12    4.47    1.85
  -5   0   8  160.56    2.62
  -5   1   7   20.77    1.76
  -3  -5  12   24.48    2.15
  -2  -4   6   -0.19    1.32
  -2  10   2   55.72    2.42
  -1  -6   9    3.19    1.22
  -1   8   0  671.62    4.68
   0  -7  11   25.95    2.02
   0  -6   7  279.26    3.36
   0  -5   5  305.70    3.04
   0  10   0  493.62    3.98
   1  -7   9    0.72    1.52
   1  -6   6  128.68    2.49
   1   9  -1   28.25    1.67
   1  11   0  103.55    2.47
   2  10  -1  365.70    3.25
   3  -7   8    1.17    2.22
   5   2  -2  806.48    4.48
   5   8  -2  199.39    2.44
   6   4  -2  475.49    3.48
   6   5  -2  272.27    2.71
   6   6  -2   53.32    2.03
   7   0   0    0.76    1.75
   8   0   1   69.18    2.97
   8   2   0   -1.31    1.93
  -6   3   9   61.72    2.93
  -5  -2  11    3.87    1.69
  -5  -1   9    9.98    1.31
  -4  -2   7  182.24    2.65
  -4  -1   6  228.06    2.74
  -3  -5  11   11.27    1.87
  -3  -4   8  239.97    2.89
  -3  -2   5   10.55    1.28
  -3  -1   4   78.56    1.83
  -2  -6  11   18.68    2.10
  -1  -5   6  288.87    2.85
  -1  10   1  114.08    2.47
   0  -7  10    7.92    1.86
   0   7  -1  547.73    3.72
   1  -5   4  161.75    2.50
   2  -7   8  124.68    3.21
   2   3  -2 1340.38    5.80
   2   7  -2 1162.34    4.63
   3  -6   5   55.59    2.56
   3   2  -2  381.48    3.42
   3  10  -1  118.03    2.38
   4   8  -2 1201.65    4.70
   4  10  -1  134.23    2.58
   5  -6   6   -0.04    2.67
   5   0  -1  193.94    2.88
   5   7  -2  167.60    2.29
   7   3  -1    5.39    1.73
   8  -1   2    0.09    2.72
  -6   1  10    2.11    1.86
  -6   2   9    2.18    2.16
  -5  -2  10   77.31    2.53
  -4  -4  11   12.58    1.95
  -4   0   5   57.79    1.76
  -3  -5  10   41.65    2.21
  -3  -3   6  119.54    1.80
  -3   6   2   68.78    3.42
  -3   9   3  131.24    3.55
  -2   2   1 2127.54   22.80
  -2  11   3   79.67    2.96
  -1  -6   8    6.47    1.19
  -1  -3   3 1061.85    5.32
   0   6  -1   31.66    1.49
   0  11   1  196.46    2.98
   1  -7   8   96.82    3.00
   2  -6   5    7.33    1.57
   2   4  -2  690.35    4.04
   2  11   0  188.75    2.80
   3   7  -2  268.72    2.58
   4   7  -2  113.96    1.99
   5   3  -2   59.47    1.54
   5   6  -2  374.12    2.96
   6   1  -1    3.30    1.38
   7   4  -1   77.92    2.08
   7   5  -1    0.33    1.52
   7   6  -1    5.07    1.69
   8   3   0   26.95    1.88
  -6   0  11    3.48    2.03
  -5  -1   8  362.01    3.69
  -5   0   7    9.73    1.49
  -4  -3   8  340.92    3.28
  -2  -5   7  967.08    5.09
  -2   7   1   74.76    2.38
  -1  -7  11   25.12    2.23
  -1  -4   4 1428.92    5.76
  -1   7   0  437.53    3.79
  -1  11   2    8.16    2.12
   0  -7   9  143.21    2.95
   0   5  -1 2619.17    8.41
   0   9   0    1.87    1.43
   1   8  -1  571.15    3.79
   2  -7   7    1.24    1.75
   2  -4   2 1320.60    8.51
   2  -3   1  776.17    8.99
   2   9  -1   41.54    1.61
   3  -7   7    5.45    2.31
   3   3  -2  578.42    3.84
   3  11   0  111.38    2.47
   4  -3   1  107.01    5.99
   4   3  -2   66.60    1.83
   5   4  -2  305.93    2.57
   5   5  -2   23.50    1.34
   5   9  -1    9.59    1.34
   6  -2   1   14.02    2.21
   6   8  -1    8.78    1.37
   7  -3   3  343.15    8.71
   7  -1   1  210.74    3.83
   8   1   1    5.77    2.30
  -5  -3  11    4.36    1.84
  -3  -5   9  101.42    2.22
  -3  -4   7   48.49    1.30
  -3   0   3 1352.79    6.54
  -2  -2   3 2503.59    7.96
  -1  -7  10    4.27    1.72
  -1  -6   7  159.63    2.54
  -1  -2   2    0.59    0.93
   0  -6   6    1.23    1.08
   0  -4   3 1153.83    5.69
   0  -3   2 2781.29    9.62
   1  10   0  129.77    2.05
   3  -5   3  290.74    4.48
   3   9  -1   40.51    1.78
   4   0  -1   35.41    1.81
   4   4  -2   25.64    1.60
   4   9  -1  137.97    1.98
   6  -3   2   32.08    3.43
   6   2  -1   24.56    1.57
   6   7  -1    2.15    1.67
   7  -2   2   98.67    3.82
   7   1   0   15.57    1.74
  -6  -1  11   19.19    2.10
  -6   0  10   20.28    1.73
  -6   3   8    2.05    2.06
  -5   1   6    9.39    1.48
  -4  -2   6   12.69    1.43
  -4   1   4   84.95    2.39
  -3  10   4  291.58    5.35
  -2  -4   5   63.02    1.39
  -2   9   2   62.11    2.26
  -1  -5   5    0.87    1.39
  -1   6   0  939.09    5.70
  -1   9   1   29.82    1.87
   0  -7   8   13.33    1.37
   0  -5   4    0.44    1.20
   1  -7   7   58.83    2.15
   1  -6   5   83.03    2.02
   1   7  -1  455.14    3.41
   1  11   1   53.32    2.33
   2  -5   3  124.67    2.77
   2   8  -1 3761.80    8.55
   2  10   0  184.30    2.64
   3   0  -1  955.14    6.50
   4  -7   7   43.22    3.91
   5   8  -1   32.90    1.40
   6   6  -1   32.75    1.81
   8   2   1   99.43    3.13
  -4  -5  11    5.12    1.93
  -4  -1   5   53.85    1.78
  -4   9   5    0.34    3.28
  -3  -6  11   37.36    1.84
  -3  -5   8  273.60    3.20
  -3  -3   5   12.71    1.31
  -2  -7  11    7.23    1.91
  -2  -5   6  219.08    2.51
  -2   6   1 2724.48   11.66
  -1  -7   9  152.88    3.11
   0   8   0 5561.48   11.55
   0  10   1  111.92    2.37
   3   8  -1  468.13    3.23
   4   8  -1    2.14    1.13
   4  10   0    2.16    1.37
   5   1  -1  154.45    2.35
   5   7  -1  172.95    2.36
   6   0   0  338.36    3.90
   6   3  -1    4.27    1.06
   6   4  -1   83.00    2.03
   6   5  -1   40.00    1.37
   7   2   0    3.10    1.57
   7   6   0   -0.74    1.66
   8   0   2    0.06    2.14
   8   3   1   20.01    2.03
  -6  -1  10    2.01    1.92
  -6   0   9   97.57    2.70
  -5  -1   7   33.76    1.81
  -5   4   5  545.18    6.80
  -4  -5  10  238.84    3.80
  -4  -4   8    1.12    1.32
  -3  -6  10    2.95    1.90
  -3  -4   6  337.17    2.87
  -3   5   2   82.27    4.23
  -1   5   0  839.33    5.92
   1  -8   9  147.86    3.25
   1   6  -1  467.09    3.49
   1   9   0   47.52    1.64
   2  -8   9   30.05    2.66
   2  -7   6   35.32    2.21
   2  11   1   16.66    1.80
   3  -7   6   13.18    2.35
   4  -5   3   62.75    3.46
   5  -1   0   68.05    2.19
   5   9   0    1.70    1.59
   6   8   0   41.72    1.63
   7   3   0   34.58    1.91
   7   4   0    3.83    1.63
   7   5   0    0.94    1.57
  -6  -2  11    4.31    1.92
  -5  -4  11   10.09    1.93
  -5  -3   9  105.65    2.58
  -5   0   6  304.70    3.35
  -2  -7  10  109.58    2.78
  -2  -1   2 4862.24   12.74
  -2  10   3  115.27    3.09
  -1  -7   8   55.45    2.15
  -1  -6   6  158.18    2.09
  -1   3   0 3814.17   16.00
  -1  10   2   46.53    2.05
   0  -8  10   29.01    1.85
   0  -6   5   25.61    1.65
   0  -2   1   67.10    2.41
   0  11   2   54.03    2.11
   1  -7   6  229.47    3.24
   1  -4   2 3120.61   11.08
   1   2  -1 3467.22   11.65
   2   7  -1   59.39    1.48
   3   7  -1  358.38    2.87
   4   7  -1    1.20    0.98
   4   9   0    4.15    1.67
   5   2  -1   16.40    1.54
   5   6  -1    2.17    1.11
   6   7   0   62.70    2.06
   7   0   1  293.03    4.03
  -5  -4  10  159.08    3.37
  -5   5   5   70.03    4.12
  -4  -5   9    0.05    1.62
  -4   0   4   18.11    1.54
  -4   7   4   35.34    4.33
  -3  -6   9    8.97    1.33
  -3  -5   7  277.27    2.76
  -3   2   2  382.19    6.03
  -3   8   3  166.45    3.75
  -2  -6   7   26.31    1.45
  -1   4   0  629.36    5.40
  -1   8   1  557.34    4.35
  -1  11   3   99.38    2.88
   0  -8   9   83.59    2.85
   1  -5   3  213.35    2.89
   1   5  -1  653.33    3.96
   1  10   1   22.92    1.77
   2  -8   8   46.52    2.72
   2  -6   4   38.78    1.87
   2   1  -1  904.12    6.16
   2   9   0   91.56    1.71
   3  -6   4    0.67    1.59
   3   9   0   11.99    1.52
   4   1  -1  197.71    2.69
   5  -6   5  143.53    6.19
   5   3  -1  831.97    4.44
   5   4  -1   92.43    1.90
   5   5  -1  183.11    2.12
   5   8   0   50.98    1.88
   8   1   2    0.78    2.08
  -6   0   8  317.14    4.43
  -6   3   7    5.12    2.57
  -6   4   7   82.58    3.96
  -5  -2   7   62.16    1.99
  -5   2   5  233.99    3.46
  -4  -4   7   49.22    2.07
  -4  -3   6    5.72    1.36
  -3  -1   3  823.86    4.82
  -2  -4   4  216.60    2.42
  -2   5   1   92.70    3.16
  -2   8   2   14.16    2.22
  -1  -8  10   56.64    2.80
   0   7   0    1.80    1.37
   0   9   1    2.64    1.53
   1  -8   8   10.10    1.85
   1  -6   4  194.82    2.71
   1   3  -1 3470.95   10.41
   1   8   0  658.74    4.03
   1  11   2  109.31    2.56
   2  10   1   13.97    1.77
   3   1  -1  657.91    4.82
   3  10   1  155.15    2.73
   4  -7   6    7.58    2.75
   4  10   1   -2.43    1.35
   6   1   0   22.62    1.60
   6   6   0    7.52    1.53
   6   8   1    7.89    1.82
   7   6   1   64.02    2.05
  -6   2   7   -1.73    1.91
  -5  -3   8  328.38    3.30
  -5  -1   6    6.65    1.56
  -4  -2   5   82.80    1.67
  -3  -6   8   61.32    1.95
  -2  -5   5   25.85    1.23
  -2  -3   3 2230.83    7.27
  -1  -7   7  199.41    2.72
  -1  -5   4  184.71    2.20
  -1  -4   3 2871.15    8.05
  -1  -1   1 1732.17    9.48
   0  -8   8   58.61    2.49
   0  -7   6  720.25    4.73
   2  11   2  121.58    2.66
   4   2  -1  279.43    2.91
   4   4  -1 1561.22    5.73
   4   8   0   25.31    1.39
   5   7   0   30.14    1.71
   5   9   1   87.52    1.93
   6   2   0    6.30    1.37
   6   5   0    8.01    1.38
   7  -1   2    1.93    2.14
   7   5   1   53.55    1.93
  -6  -2   9    4.08    1.66
  -6   5   7    3.52    2.78
  -5  -4   9   32.81    1.68
  -5   1   5    1.54    1.52
  -4  -5   8  305.17    3.12
  -3  -7  10  126.59    2.89
  -3  -5   6   52.11    1.66
  -3  -4   5  381.05    2.87
  -3  -3   4  503.82    3.41
  -2  -7   8   20.77    1.44
  -2  -6   6  145.07    2.31
  -1  -8   9    1.25    1.30
  -1  -6   5   53.53    1.82
   0  10   2   72.77    2.23
   1  -3   1  950.25    7.62
   2  -8   7   80.21    3.22
   2  -7   5  336.01    4.27
   2   4  -1  209.93    2.62
   2   8   0  111.29    1.98
   3   8   0   75.72    1.55
   4  -6   4    0.80    2.45
   4   3  -1  766.93    4.17
   5   0   0   79.50    2.11
   6   3   0    0.99    1.24
   6   4   0   16.84    1.13
   6   7   1  357.07    3.33
   7   2   1   75.35    2.13
   7   3   1   30.57    1.88
   7   4   1  123.10    2.43
  -6  -3  10    0.44    1.76
  -6   1   7    1.56    1.70
  -5  -5  10   79.33    2.92
  -4  -1   4  104.83    2.34
  -3  -7   9   17.02    1.88
  -3   9   4    4.39    2.11
  -2  -8  10   64.54    2.95
  -1  -3   2   51.41    1.51
  -1   7   1  460.69    3.99
  -1   9   2   49.75    2.01
   0  -5   3  780.87    4.61
   0   6   0 3955.78   10.00
   0  11   3  165.02    3.04
   1  -8   7  232.40    3.46
   1  -7   5  472.52    4.18
   1   7   0  468.69    3.47
   1   9   1    0.74    1.47
   2   3  -1  185.39    2.56
   3  -8   7   16.90    2.49
   3   2  -1 1977.69    7.27
   3   3  -1  808.98    4.51
   4  -1   0   16.91    1.93
   4   7   0    5.95    1.46
   4   9   1   14.10    1.30
   4  10   2    0.76    1.99
   5   6   0   -0.06    1.10
   5   8   1    5.26    1.64
  -6   0   7    1.58    1.59
  -5  -4   8   -2.25    1.52
  -5   0   5  399.94    3.74
  -4  -6   9    3.27    1.25
  -3  -6   7   94.25    1.82
  -3   1   2  393.06    4.63
  -3  10   5   17.79    3.01
  -2   4   1  143.39    4.34
  -2   9   3    0.54    1.67
  -1  -8   8   96.19    2.73
  -1  -7   6  637.68    4.44
  -1  10   3  448.53    4.20
   0  -8   7    9.95    1.77
   0  -4   2  172.51    2.71
   0   8   1   62.89    1.93
   1  10   2  369.21    3.42
   2   7   0   94.73    1.95
   2   9   1    3.85    1.43
   3   7   0  288.31    2.64
   3   9   1    0.28    1.19
   5  -2   1   37.46    2.36
   5   5   0   21.23    1.57
   5   9   2   22.58    2.26
   6   6   1    1.14    1.59
   7  -2   3    0.80    2.60
  -7   2   9    2.36    2.34
  -6  -3   9   58.77    2.30
  -6  -2   8   66.93    2.32
  -5  -5   9   51.89    2.20
  -5  -2   6    3.54    1.11
  -4  -5   7   60.27    1.58
  -3  -2   3  130.50    2.10
  -2  -8   9   13.55    1.70
  -2  -2   2   27.35    1.55
  -2  10   4   25.26    2.46
  -1  11   4   -0.65    1.97
   1  11   3    0.54    1.50
   2  10   2    4.00    1.85
   2  11   3   36.15    2.34
   3  10   2   23.91    1.74
   4   6   0   57.91    1.77
   4   8   1   38.49    1.77
   5   1   0   79.28    1.92
   5   4   0  502.31    3.32
   6   0   1  122.78    2.50
   7   0   2   -0.50    1.93
   7   5   2    9.80    1.74
  -7   1   9   80.79    3.55
  -6  -4  10   11.51    2.02
  -4  -7  10   13.15    2.21
  -2  -5   4  622.84    3.74
  -2   1   1  764.21    8.52
  -2   7   2 1409.99    7.81
   0   5   0    1.26    1.24
   1  -8   6    0.23    1.63
   1   6   0  928.19    4.72
   2  -8   6   41.27    2.38
   5   2   0    1.20    1.30
   5   3   0   48.14    1.74
   5   7   1   60.79    1.53
   6   5   1   53.08    1.43
   6   7   2    5.55    1.68
   7   1   2    0.54    1.74
   7   4   2  413.39    3.69
  -7   0   9   25.53    2.30
  -6  -1   7    2.26    1.68
  -5  -4   7    9.81    1.55
  -4  -2   4 1182.24    5.26
  -4   1   3 2531.28   10.27
  -3  -6   6    2.45    1.46
  -3  -5   5   77.75    1.48
  -3  -4   4 1683.14    5.87
  -3   7   3   33.41    2.40
  -2  -8   8    7.45    2.00
  -2  -4   3 1044.22    4.88
   0   9   2   -0.49    1.44
   0  11   4   15.19    2.35
   1  -9   8   52.26    2.86
   1   8   1   90.00    1.71
   2   8   1   86.64    1.97
   3   8   1    2.74    1.36
   4  -7   5   14.07    3.18
   4   9   2  205.92    2.44
   5   8   2  120.15    2.28
   6   1   1  505.55    3.96
   6   4   1   41.18    1.61
   7   2   2   90.92    2.24
   7   3   2    2.38    1.57
  -6  -4   9    4.43    1.87
  -6  -3   8    3.16    1.66
  -6   1   6   13.52    2.16
  -6   2   6    2.14    1.80
  -6   3   6   56.45    2.94
  -6   6   7    2.70    4.44
  -5  -5   8   97.10    2.29
  -4  -7   9   12.80    2.07
  -4  -5   6   22.38    1.66
  -3  -8   9    5.45    2.05
  -3  -7   7  497.21    3.93
  -3   0   2  260.31    3.40
  -2  -7   6   41.64    1.52
  -1  -7   5  143.21    2.38
  -1  -5   3  427.58    3.18
  -1   6   1  443.57    4.02
  -1   8   2  126.65    2.39
   0  -9   8    4.64    2.02
   0  -8   6    5.48    1.68
   0   7   1  651.50    4.26
   0  10   3   22.77    1.87
   1  -6   3    0.13    1.33
   2  -6   3   45.61    1.96
   3  -8   6  359.46    6.00
   3   9   2  386.76    3.32
   3  10   3  188.72    3.39
   4   0   0  254.34    3.64
   4   7   1  198.92    2.49
   5  -7   6    8.18    3.87
   5   6   1   -0.16    1.07
   6   2   1   12.27    1.34
   6   3   1  147.04    1.91
   6   6   2  150.76    2.39
  -5  -6   9    2.61    1.91
  -4   0   3   31.36    1.86
  -4   8   5   25.97    2.99
   1  -7   4  167.07    2.71
   1  -5   2  487.78    4.46
   1   5   0  780.45    4.35
   1   9   2    1.64    1.21
   1  10   3   42.20    2.07
   1  11   4    3.89    1.93
   2  -7   4  119.54    2.81
   2  -5   2  213.16    3.55
   2   9   2   22.29    1.64
   2  10   3    1.58    1.82
   3  -1   0  147.81    3.40
   4   4   0  155.91    2.03
   7  -1   3    0.86    1.90
   7   5   3  131.28    2.50
  -7   1   8    3.48    2.24
  -7   2   8   18.10    2.65
  -7   3   8    7.31    3.00
  -6   0   6   15.95    1.84
  -6   4   6   11.58    2.91
  -4  -7   8  119.87    2.70
  -4   9   6    5.73    3.24
  -3  -8   8    2.13    1.65
  -3  -3   3   62.50    1.48
  -3   4   2    9.52    3.23
  -2  -8   7   26.65    1.59
  -1  -9   8    0.13    1.39
  -1  -8   6   71.00    2.17
  -1  -4   2   86.40    1.98
   0  -6   3  250.60    2.86
   0  -3   1 2438.34    9.87
   1  -9   7    0.92    1.97
   2  -9   7   -0.12    2.11
   3  -6   3  269.76    4.61
   3   7   1  123.28    1.95
   4   1   0   23.50    1.52
   4   2   0   29.55    1.57
   4   3   0   32.62    1.57
   4   8   2    6.71    1.19
   4   9   3    4.66    1.82
   5  -1   1  389.83    4.32
   5   5   1   23.39    1.26
   5   7   2  161.56    2.07
   6   5   2   34.97    1.67
   6   7   3    4.84    1.19
   7   4   3   13.11    1.76
  -7  -2   9    0.70    2.06
  -7   0   8    2.65    2.09
  -6  -4   8   23.73    1.95
  -5  -6   8   28.38    1.88
  -5  -5   7   40.83    1.86
  -5  -4   6  128.87    2.35
  -5   2   4  129.39    2.98
  -3  -6   5    3.37    1.38
  -2   8   3  151.40    2.92
   0  -9   7    5.50    1.42
   0  -7   4 1932.05    7.37
   1  -8   5   40.73    2.02
   1   7   1  131.38    1.92
   2  -8   5    9.09    2.27
   2   7   1   70.09    1.83
   3  -7   4  219.37    4.11
   4   6   1   17.63    1.14
   5   4   1   51.95    1.65
   5   8   3    2.03    1.25
   6  -1   2    0.12    1.82
   7   0   3    5.48    1.80
   7   3   3  252.23    3.91
  -7  -1   8    5.78    1.87
  -7   4   8   -0.08    2.78
  -5   0   4  856.32    5.38
  -5   3   4   94.45    3.36
  -4  -6   6   -0.30    1.42
  -4  -1   3 2769.59    8.43
  -3  -7   6   92.71    2.08
  -3  -5   4  161.28    1.94
  -3  -1   2  399.19    3.53
  -3   8   4  161.00    3.38
  -3  10   6    7.93    2.46
  -2  -9   8    4.74    2.04
  -2  -7   5  519.63    3.51
  -2  -6   4  148.30    1.98
  -2   9   4   27.38    2.19
  -2  10   5    8.71    2.19
   0  -8   5   74.45    1.97
   0  -5   2  561.23    4.15
   0   8   2  199.61    2.44
   2   4   0 3304.74    8.83
   3  -5   2   79.00    3.23
   3   8   2    3.25    1.09
   3   9   3   93.65    2.30
   3  10   4   33.28    2.34
   5  -3   2  126.07    4.17
   5   6   2  194.98    2.37
   6  -3   3   47.14    3.12
   6   4   2  120.96    2.07
   6   6   3    1.68    1.49
   7   1   3    0.21    1.58
   7   2   3   -0.28    1.45
  -5  -3   5   98.84    1.75
  -4  -7   7   -0.21    1.62
  -4  -5   5  106.08    1.73
  -3   9   5   70.29    2.92
  -2  -5   3  521.78    3.35
  -2   6   2    4.59    1.74
  -1  -7   4  398.74    3.34
  -1   5   1  694.93    5.39
   0   6   1   27.39    1.56
   0   9   3   18.11    1.59
   0  10   4    4.06    1.75
   1   8   2   79.34    1.93
   2   8   2   13.51    1.49
   2   9   3  498.23    3.74
   3   3   0  951.43    4.81
   4  -8   6   74.35    5.02
   4   7   2  898.52    4.09
   5   0   1    7.25    1.32
   5   3   1   13.67    1.10
   6   0   2  264.34    3.41
   6   3   2   36.88    1.60
   7  -2   4   71.44    3.30
  -7  -2   8   20.03    2.33
  -6  -5   8   15.34    2.00
  -6  -4   7   95.53    2.54
  -6  -2   6    1.38    1.29
  -5  -5   6    3.85    1.50
  -5  -1   4  495.19    3.98
  -4  -8   8   18.15    1.97
  -4  -4   4 1104.92    4.86
  -3  -4   3  303.42    2.75
  -1  -8   5   15.93    1.79
  -1   7   2    4.19    1.28
   0  -9   6  511.09    5.14
   1  -9   6  155.44    3.27
   1   9   3  503.00    3.67
   1  10   4  144.36    2.50
   2  -9   6   17.40    2.78
   2  -1   0   22.45    2.78
   3  -8   5    0.44    2.41
   3   0   0  508.57    4.87
   3   2   0   47.73    1.74
   4   8   3   95.80    1.80
   4   9   4   91.68    1.97
   5   2   1   30.98    1.22
   5   7   3   50.51    1.48
   5   8   4    1.53    1.40
   6   1   2    1.12    1.34
   6   2   2  367.87    3.13
   6   5   3    3.84    1.41
   7   4   4    2.60    1.60
  -7   1   7    1.10    2.14
  -5  -7   8  211.35    3.39
  -5   7   6    0.57    3.40
  -3  -9   8   62.95    2.72
  -3  -2   2  390.35    3.39
  -2  -1   1  896.63    5.99
   1  -4   1   55.98    2.15
   1   3   0 3863.26   11.09
   1   6   1   54.03    1.42
   2   3   0 2267.39    7.77
   3   1   0  191.72    2.81
   3   7   2  383.19    3.05
   4   4   1  401.34    3.03
   5   5   2  162.68    1.99
   6   6   4   40.52    1.87
   7  -3   5   26.43    3.77
   7  -1   4   15.22    2.40
   7   3   4   13.14    1.76
  -7   0   7   74.09    2.78
  -7   2   7    0.93    2.11
  -6  -3   6   62.02    2.12
  -6   1   5    0.50    1.81
  -5  -2   4  192.76    2.68
  -5   8   7    4.65    3.79
  -4  -6   5   33.59    1.65
  -3  -8   6   39.85    1.78
  -3  -6   4  497.62    3.28
  -1  -9   6  122.42    2.56
  -1  -5   2  375.28    3.26
  -1  -3   1 3554.17   10.53
   1  -7   3  482.65    4.01
   3   8   3   88.49    1.96
   3   9   4   36.69    2.08
   4   6   2   16.53    1.16
   5   6   3   18.56    1.58
   6  -4   4  329.71    9.31
   6   4   3   -0.22    1.29
  -7  -1   7    4.90    1.80
  -6  -6   8   48.07    2.39
  -6  -5   7    8.66    1.97
  -6  -1   5    0.76    1.46
  -6   2   5  300.64    4.30
  -3   6   3  244.61    4.39
  -2  -8   5   46.01    1.85
  -2  -7   4  284.92    2.62
  -2  -6   3  407.72    3.14
   0  -8   4   23.18    1.63
   0  -7   3  284.15    3.07
   0  -4   1 3460.90   10.78
   0   7   2    1.00    1.28
   0  10   5    6.53    2.06
   1  -8   4    5.91    1.61
   1  10   5    1.62    1.97
   2   2   0  352.65    3.66
   2   7   2  229.36    2.46
   2  10   5   -1.18    1.58
   4   7   3   46.30    1.68
   4   8   4    5.08    1.52
   5   4   2  492.78    3.24
   5   7   4   17.33    1.54
   6  -2   3    8.45    2.10
   7   0   4  138.65    3.03
   7   1   4   16.18    1.73
  -7  -4   8    1.25    1.98
  -7  -2   7    3.53    1.92
  -7   3   7   41.02    3.63
  -6  -4   6   14.71    1.80
  -5  -7   7   38.09    2.01
  -5  -6   6    4.14    1.54
  -5  -3   4   92.04    1.90
  -4  -5   4  187.04    2.09
  -3  -9   7   72.51    2.17
  -3  -5   3  318.94    2.77
  -3  -3   2  580.52    3.78
  -2  -9   6   33.58    2.05
  -2   7   3   10.06    1.58
  -1 -10   7   17.86    2.25
   0  -9   5    2.42    1.67
   0   8   3   12.23    1.59
   0   9   4  487.77    4.07
   1  -9   5   80.23    2.59
   1  -6   2  549.07    4.39
   1   2   0 6153.27   15.71
   1   7   2  152.12    2.04
   1   9   4   82.73    2.24
   2  -8   4   13.49    1.96
   2  -7   3 1810.44    8.51
   2   8   3    5.10    1.16
   2   9   4    9.37    1.46
   3  -9   6    2.02    2.59
   6   3   3   45.08    1.59
   6   5   4  105.86    1.98
   6   6   5   24.13    1.75
  -5  -5   5   71.08    1.61
  -4   9   7   13.15    3.21
  -2  -2   1 2159.46    8.02
  -2   8   4   46.94    2.37
  -1  -8   4  109.83    2.26
  -1  -7   3  162.47    2.41
   0  -6   2  148.94    2.34
   1   5   1   68.69    1.74
   1   8   3   37.51    1.37
   2   0   0 1791.30   11.14
   2   1   0   10.04    1.25
   3   9   5   85.21    2.55
   4   2   1  159.52    2.30
   4   5   2  153.97    1.87
   5   3   2  116.41    1.88
   5   5   3   55.44    1.68
   6   2   3   10.97    1.37
   7  -2   5   -1.65    2.45
   7   3   5   27.57    1.75
  -7  -3   7   39.07    2.04
  -6  -6   7    0.74    1.94
  -6   3   5   58.99    2.97
  -4  -8   6    3.48    1.85
  -4  -7   5  121.73    2.14
  -4  -4   3   42.65    1.68
  -3  -8   5   81.07    2.11
  -3   9   6   15.54    2.62
  -2  -5   2  987.22    4.70
  -1   4   1   92.58    2.34
  -1   6   2  210.15    2.82
  -1  10   6    0.39    2.05
   0 -10   6    1.09    1.78
   2  -9   5  363.61    4.97
   2  -6   2  139.19    2.88
   2  10   6  230.85    3.81
   3   7   3  201.97    2.40
   3   8   4   16.22    1.63
   4  -7   4   77.90    4.58
   4   6   3  169.85    2.17
   4   8   5   42.64    1.93
   5   2   2  281.45    2.74
   5   6   4    2.75    1.36
   5   7   5   -2.08    1.33
   6   0   3   11.04    1.79
   6   1   3   29.79    1.55
   6   4   4  349.12    3.07
   7   2   5   -2.01    1.53
  -7   0   6   38.70    2.36
  -6  -5   6    2.23    1.64
  -6  -3   5   55.70    1.64
  -5  -8   7   13.49    1.82
  -5  -7   6   -1.80    1.67
  -5  -4   4  175.67    2.31
  -4  -6   4  306.69    2.79
  -4   8   6   23.34    2.78
  -3  -4   2   19.97    1.42
  -3   7   4   89.38    2.83
  -2  -8   4   48.54    1.96
  -1 -10   6    0.88    1.99
  -1  -6   2  221.74    2.66
  -1  -4   1  103.67    2.14
   0  10   6   -1.03    2.18
   1  10   6   16.07    2.07
   2   9   5  396.65    4.03
   4   0   1  548.83    4.31
   4   1   1   93.32    1.96
   4   7   4   86.04    1.59
   7  -1   5   29.85    2.30
   7   0   5    0.71    1.76
   7   1   5   29.58    1.87
  -7  -2   6   19.94    1.90
  -7   1   6    7.18    2.17
  -5  -6   5  108.66    1.93
  -5  -1   3   87.68    2.15
  -5   0   3    1.84    1.44
  -4  -1   2  640.55    4.30
  -4   0   2 9999.00   18.53
  -4   7   5   87.71    3.52
  -3  -6   3  240.62    2.24
  -3   8   5   65.35    2.63
  -2  -9   5  138.01    2.25
  -2  -7   3   13.93    1.46
  -2  -3   1  213.09    2.69
  -2   5   2  741.19    6.26
  -2  10   7   14.70    2.67
   0   6   2  145.57    2.31
   1   6   2  577.76    3.82
   2   4   1  123.59    2.05
   2   7   3 1947.95    6.30
   3  -8   4   13.95    2.39
   3   3   1  295.91    2.83
   3   9   6    3.73    1.99
   4  -8   5   45.27    3.95
   4   4   2  150.33    1.87
   5  -1   2  345.09    3.62
   5   0   2  780.49    4.72
   5   1   2  337.40    3.02
   5   4   3  294.31    2.47
  -6  -6   6    0.22    1.64
  -6  -4   5  393.48    3.36
  -5  -5   4  179.25    2.31
  -5  -2   3   13.24    1.64
  -4  -5   3  108.43    1.96
  -4  -2   2  602.13    3.88
   0  -9   4  471.94    4.08
   0  -8   3   11.61    1.64
   0  -5   1 2668.38    8.78
   0   9   5    1.36    1.81
   1  -8   3   28.85    1.71
   1   9   5   85.38    1.96
   3   8   5    0.85    1.53
   4   8   6   72.27    2.05
   5   5   4  547.39    3.35
   5   6   5  145.02    2.15
   6   4   5   -0.81    1.20
  -7  -5   7    3.17    1.55
   1   7   3  573.32    3.58
   1   8   4    4.62    1.11
   4   5   3   68.20    1.37
   6   5   6    6.46    1.03
   0   0   0    0.00    0.00
_computing_structure_solution     'SHELXT 2014/5 (Sheldrick, 2014)'
_computing_structure_solution     'SHELXT 2018/2 (Sheldrick, 2018)'
;
_shelx_hkl_checksum              68184
_shelx_res_file
;
TITL 6_a.res in P2(1)/m
    6.res
    created by SHELXL-2018/3 at 23:42:17 on 17-Dec-2019
REM Old TITL tiopyra1_a.res in P2(1)/m
REM SHELXT solution in P2(1)/m: R1 0.137, Rweak 0.008, Alpha 0.036
REM <I/s> 1.126 for 4 systematic absences, Orientation as input
REM Formula found by SHELXT: C9 S2 N2 F2
CELL 0.71073 6.3876 8.8268 10.5003 90 99.355 90
ZERR 2 0.0011 0.0013 0.002 0 0.015 0
LATT 1
SYMM -X,0.5+Y,-Z
SFAC C H F N S
UNIT 14 28 4 8 4
EQIV $1 1-X,1-Y,2-Z
L.S. 20
PLAN  2
SIZE 0.07 0.2 0.32
TEMP -153.15
HTAB N1T F1
HTAB N1T S1T_$1
HTAB N2 F1
BOND $H
list 4
fmap 2 53
acta
OMIT -2 58
OMIT -2 1 4
OMIT 2 1 1
REM <olex2.extras>
REM <HklSrc "%.\\6.hkl">
REM </olex2.extras>
WGHT    0.099800    1.025300
FVAR       1.49107
S1T   5    0.545589    0.750000    1.047959    10.50000    0.04862    0.02264 =
         0.03789    0.00000    0.00438    0.00000
S1    5    0.357827    0.250000    0.635247    10.50000    0.04335    0.04479 =
         0.03762    0.00000    0.00231    0.00000
F1    3    0.238854    0.623084    0.551312    11.00000    0.07361    0.03020 =
         0.04437   -0.00313    0.00917   -0.00824
N1T   4    0.405105    0.619552    0.822632    11.00000    0.03332    0.02073 =
         0.04111   -0.00068    0.00311   -0.00061
AFIX  93
H1TA  2    0.355387    0.620829    0.739409    11.00000   -1.20000
H1TB  2    0.429412    0.532580    0.863319    11.00000   -1.20000
AFIX   0
N2    4    0.225582    0.380267    0.408409    11.00000    0.03326    0.02761 =
         0.04209   -0.00229    0.00658   -0.00113
AFIX  43
H2    2    0.252236    0.466934    0.449253    11.00000   -1.20000
AFIX   0
C1T   1    0.443785    0.750000    0.887382    10.50000    0.02601    0.02234 =
         0.03539    0.00000    0.00374    0.00000
C4    1    0.103544    0.250000    0.214714    10.50000    0.02640    0.02444 =
         0.03916    0.00000    0.00619    0.00000
AFIX  43
H4    2    0.046347    0.250000    0.125352    10.50000   -1.20000
AFIX   0
C3    1    0.145661    0.384922    0.280518    11.00000    0.02730    0.02587 =
         0.04140    0.00013    0.00825   -0.00196
C7    1    0.104898    0.537523    0.222215    11.00000    0.03808    0.02324 =
         0.05150    0.00172    0.00682   -0.00080
AFIX 137
H7A   2   -0.001766    0.589839    0.263414    11.00000   -1.50000
H7B   2    0.052706    0.527184    0.129569    11.00000   -1.50000
H7C   2    0.236850    0.596255    0.235186    11.00000   -1.50000
AFIX   0
C1    1    0.267228    0.250000    0.477671    10.50000    0.03313    0.03632 =
         0.03753    0.00000    0.00562    0.00000
H1    2    0.260522    0.750000    0.544755    10.50000    0.08399
HKLF 4
REM  6_a.res in P2(1)/m
REM wR2 = 0.2199, GooF = S = 1.180, Restrained GooF = 1.180 for all data
REM R1 = 0.0707 for 1375 Fo > 4sig(Fo) and 0.0749 for all 1532 data
REM 80 parameters refined using 0 restraints
END
WGHT      0.0998      1.0253
REM Highest difference peak  0.553,  deepest hole -0.486,  1-sigma level  0.098
Q1    1   0.4031  0.7500  1.0501  10.50000  0.05    0.55
Q2    1   0.1263  0.7500  0.3600  10.50000  0.05    0.53
;
_shelx_res_checksum              33010
loop_
_space_group_symop_operation_xyz
'x, y, z'
'-x, y+1/2, -z'
'-x, -y, -z'
'x, -y-1/2, z'
loop_
_atom_site_type_symbol
_atom_site_label
_atom_site_fract_x
_atom_site_fract_y
_atom_site_fract_z
_atom_site_U_iso_or_equiv
_atom_site_adp_type
_atom_site_calc_flag
_atom_site_occupancy
_atom_site_disorder_assembly
_atom_site_disorder_group
S S1T 0.5456(2) 0.750000 1.04796(11) 0.0367(4) Uani d 1 . .
S S1 0.3578(2) 0.250000 0.63525(12) 0.0424(4) Uani d 1 . .
F F1 0.2389(4) 0.6231(2) 0.5513(2) 0.0494(6) Uani d 1 . .
N N1T 0.4051(4) 0.6196(3) 0.8226(3) 0.0321(6) Uani d 1 . .
H H1TA 0.355387 0.620829 0.739409 0.038 Uiso calc 1 . .
H H1TB 0.429412 0.532580 0.863319 0.038 Uiso calc 1 . .
N N2 0.2256(4) 0.3803(3) 0.4084(3) 0.0343(6) Uani d 1 . .
H H2 0.252236 0.466934 0.449253 0.041 Uiso calc 1 . .
C C1T 0.4438(6) 0.750000 0.8874(4) 0.0281(8) Uani d 1 . .
C C4 0.1035(6) 0.250000 0.2147(4) 0.0299(9) Uani d 1 . .
H H4 0.046347 0.250000 0.125352 0.036 Uiso calc 1 . .
C C3 0.1457(5) 0.3849(4) 0.2805(3) 0.0312(7) Uani d 1 . .
C C7 0.1049(5) 0.5375(4) 0.2222(4) 0.0377(7) Uani d 1 . .
H H7A -0.001766 0.589839 0.263414 0.056 Uiso calc 1 . .
H H7B 0.052706 0.527184 0.129569 0.056 Uiso calc 1 . .
H H7C 0.236850 0.596255 0.235186 0.056 Uiso calc 1 . .
C C1 0.2672(7) 0.250000 0.4777(5) 0.0357(10) Uani d 1 . .
H H1 0.261(15) 0.750000 0.545(8) 0.08(3) Uiso d 1 . .
loop_
_atom_site_aniso_label
_atom_site_aniso_U_11
_atom_site_aniso_U_22
_atom_site_aniso_U_33
_atom_site_aniso_U_12
_atom_site_aniso_U_13
_atom_site_aniso_U_23
S1T 0.0486(7) 0.0226(6) 0.0379(6) 0.000 0.0044(5) 0.000
S1 0.0433(7) 0.0448(8) 0.0376(6) 0.000 0.0023(5) 0.000
F1 0.0736(16) 0.0302(11) 0.0444(12) -0.0082(11) 0.0092(10) -0.0031(9)
N1T 0.0333(13) 0.0207(12) 0.0411(14) -0.0006(10) 0.0031(10) -0.0007(10)
N2 0.0333(13) 0.0276(14) 0.0421(14) -0.0011(10) 0.0066(11) -0.0023(10)
C1T 0.0260(18) 0.0223(19) 0.035(2) 0.000 0.0037(15) 0.000
C4 0.0264(18) 0.024(2) 0.039(2) 0.000 0.0062(16) 0.000
C3 0.0273(13) 0.0259(15) 0.0414(16) -0.0020(11) 0.0083(11) 0.0001(11)
C7 0.0381(16) 0.0232(15) 0.0515(19) -0.0008(12) 0.0068(13) 0.0017(13)
C1 0.033(2) 0.036(2) 0.038(2) 0.000 0.0056(17) 0.000
loop_
_atom_type_symbol
_atom_type_description
_atom_type_scat_dispersion_real
_atom_type_scat_dispersion_imag
_atom_type_scat_source
C C 0.0033 0.0016 'International Tables Vol C Tables 4.2.6.8 and 6.1.1.4'
H H 0.0000 0.0000 'International Tables Vol C Tables 4.2.6.8 and 6.1.1.4'
F F 0.0171 0.0103 'International Tables Vol C Tables 4.2.6.8 and 6.1.1.4'
N N 0.0061 0.0033 'International Tables Vol C Tables 4.2.6.8 and 6.1.1.4'
S S 0.1246 0.1234 'International Tables Vol C Tables 4.2.6.8 and 6.1.1.4'
loop_
_geom_angle_atom_site_label_1
_geom_angle_atom_site_label_2
_geom_angle_atom_site_label_3
_geom_angle_site_symmetry_1
_geom_angle_site_symmetry_3
_geom_angle
_geom_angle_publ_flag
H1TA N1T H1TB . . 120.0 ?
C1T N1T H1TA . . 120.0 ?
C1T N1T H1TB . . 120.0 ?
C3 N2 H2 . . 117.9 ?
C3 N2 C1 . . 124.2(3) ?
C1 N2 H2 . . 117.9 ?
N1T C1T S1T . . 120.7(2) ?
N1T C1T S1T 4_575 . 120.7(2) ?
N1T C1T N1T 4_575 . 118.5(4) ?
C3 C4 H4 4_565 . 120.4 ?
C3 C4 H4 . . 120.4 ?
C3 C4 C3 4_565 . 119.1(4) ?
N2 C3 C4 . . 118.7(3) ?
N2 C3 C7 . . 116.6(3) ?
C4 C3 C7 . . 124.7(3) ?
C3 C7 H7A . . 109.5 ?
C3 C7 H7B . . 109.5 ?
C3 C7 H7C . . 109.5 ?
H7A C7 H7B . . 109.5 ?
H7A C7 H7C . . 109.5 ?
H7B C7 H7C . . 109.5 ?
N2 C1 S1 4_565 . 122.5(2) ?
N2 C1 S1 . . 122.5(2) ?
N2 C1 N2 . 4_565 115.0(4) ?
loop_
_geom_bond_atom_site_label_1
_geom_bond_atom_site_label_2
_geom_bond_site_symmetry_2
_geom_bond_distance
_geom_bond_publ_flag
S1T C1T . 1.706(4) ?
S1 C1 . 1.662(5) ?
F1 H1 . 1.132(14) ?
N1T H1TA . 0.8800 ?
N1T H1TB . 0.8800 ?
N1T C1T . 1.340(3) ?
N2 H2 . 0.8800 ?
N2 C3 . 1.357(4) ?
N2 C1 . 1.363(4) ?
C4 H4 . 0.9500 ?
C4 C3 4_565 1.381(4) ?
C4 C3 . 1.381(4) ?
C3 C7 . 1.485(4) ?
C7 H7A . 0.9800 ?
C7 H7B . 0.9800 ?
C7 H7C . 0.9800 ?
loop_
_geom_hbond_atom_site_label_D
_geom_hbond_atom_site_label_H
_geom_hbond_atom_site_label_A
_geom_hbond_site_symmetry_A
_geom_hbond_distance_DH
_geom_hbond_distance_HA
_geom_hbond_distance_DA
_geom_hbond_angle_DHA
_geom_hbond_publ_flag
N1T H1TA F1 . 0.88 1.99 2.874(4) 179.2 yes
N1T H1TB S1T 3_667 0.88 2.66 3.528(3) 169.9 yes
N2 H2 F1 . 0.88 1.76 2.610(4) 162.7 yes

_cod_database_fobs_code 2022137
