#------------------------------------------------------------------------------
#$Date: 2022-04-12 05:18:35 +0300 (Tue, 12 Apr 2022) $
#$Revision: 274469 $
#$URL: file:///home/coder/svn-repositories/cod/cif/2/02/25/2022594.cif $
#------------------------------------------------------------------------------
#
# This file is available in the Crystallography Open Database (COD),
# http://www.crystallography.net/. The original data for this entry
# were provided by IUCr Journals, http://journals.iucr.org/.
#
# The file may be used within the scientific community so long as
# proper attribution is given to the journal article from which the
# data were obtained.
#
data_2022594
loop_
_publ_author_name
'Kiriukhina, Galina V.'
'Yakubovich, Olga V.'
'Verchenko, Polina A.'
'Volkov, Anatoly S.'
'Dimitrova, Olga V.'
_publ_section_title
;
 Novel first-row transition-metal phosphates: hydrothermal synthesis and
 crystal structures
;
_journal_coeditor_code           OV3158
_journal_issue                   5
_journal_name_full               'Acta Crystallographica Section C'
_journal_page_first
;
;
_journal_paper_doi               10.1107/S2053229622003692
_journal_volume                  78
_journal_year                    2022
_chemical_formula_iupac          'Na2 Cu Ni (P O4)2'
_chemical_formula_moiety         'Na2 Cu Ni P2 O8'
_chemical_formula_sum            'Cu Na2 Ni O8 P2'
_chemical_formula_weight         358.17
_chemical_name_common            'Sodium copper nickel phosphate'
_chemical_name_systematic        'Sodium copper nickel diorthophosphate'
_space_group_crystal_system      monoclinic
_space_group_IT_number           14
_space_group_name_Hall           '-P 2yn'
_space_group_name_H-M_alt        'P 1 21/n 1'
_atom_sites_solution_primary     direct
_atom_sites_solution_secondary   difmap
_audit_creation_method           SHELXL-2018/3
_cell_angle_alpha                90
_cell_angle_beta                 97.104(3)
_cell_angle_gamma                90
_cell_formula_units_Z            2
_cell_length_a                   5.13000(10)
_cell_length_b                   8.6729(2)
_cell_length_c                   6.8473(2)
_cell_measurement_reflns_used    2144
_cell_measurement_temperature    293(2)
_cell_measurement_theta_max      30.5200
_cell_measurement_theta_min      4.6160
_cell_volume                     302.311(13)
_computing_cell_refinement
;
CrysAlis PRO (Rigaku OD, 2018)
;
_computing_data_collection
;
CrysAlis PRO (Rigaku OD, 2018)
;
_computing_data_reduction
;
CrysAlis PRO (Rigaku OD, 2018)
;
_computing_molecular_graphics
;
DIAMOND (Brandenburg, 2006)
;
_computing_publication_material
;
WinGX (Farrugia, 2012)
;
_computing_structure_refinement
;
SHELXL2018 (Sheldrick, 2015<i>b</i>)
;
_computing_structure_solution
;
SHELXT (Sheldrick, 2015<i>a</i>)
;
_diffrn_ambient_temperature      293(2)
_diffrn_detector_area_resol_mean 16.0630
_diffrn_measured_fraction_theta_full 0.998
_diffrn_measured_fraction_theta_max 0.971
_diffrn_measurement_device_type  'Rigaku OD Xcalibur Sapphire3'
_diffrn_measurement_method       '\w scans'
_diffrn_radiation_type           MoK\a
_diffrn_radiation_wavelength     0.71073
_diffrn_reflns_av_R_equivalents  0.0361
_diffrn_reflns_av_unetI/netI     0.0271
_diffrn_reflns_limit_h_max       7
_diffrn_reflns_limit_h_min       -7
_diffrn_reflns_limit_k_max       12
_diffrn_reflns_limit_k_min       -12
_diffrn_reflns_limit_l_max       9
_diffrn_reflns_limit_l_min       -9
_diffrn_reflns_number            4614
_diffrn_reflns_theta_full        25.242
_diffrn_reflns_theta_max         29.993
_diffrn_reflns_theta_min         4.643
_diffrn_source                   'fine-focus sealed X-ray tube'
_exptl_absorpt_coefficient_mu    7.318
_exptl_absorpt_correction_T_max  0.605
_exptl_absorpt_correction_T_min  0.447
_exptl_absorpt_correction_type   gaussian
_exptl_absorpt_process_details
;
(CrysAlis PRO; Rigaku OD, 2018)
;
_exptl_crystal_colour            'light green'
_exptl_crystal_density_diffrn    3.935
_exptl_crystal_description       asymmetric
_exptl_crystal_F_000             346
_exptl_crystal_size_max          0.150
_exptl_crystal_size_mid          0.118
_exptl_crystal_size_min          0.094
_refine_diff_density_max         0.578
_refine_diff_density_min         -0.500
_refine_ls_extinction_coef       0.0151(18)
_refine_ls_extinction_expression Fc^*^=kFc[1+0.001xFc^2^\l^3^/sin(2\q)]^-1/4^
_refine_ls_extinction_method
;
SHELXL2018 (Sheldrick, 2015<i>b</i>)
;
_refine_ls_goodness_of_fit_ref   1.130
_refine_ls_hydrogen_treatment    undef
_refine_ls_matrix_type           full
_refine_ls_number_parameters     68
_refine_ls_number_reflns         863
_refine_ls_number_restraints     0
_refine_ls_restrained_S_all      1.130
_refine_ls_R_factor_all          0.0303
_refine_ls_R_factor_gt           0.0240
_refine_ls_shift/su_max          0.000
_refine_ls_shift/su_mean         0.000
_refine_ls_structure_factor_coef Fsqd
_refine_ls_weighting_details
'w=1/[\s^2^(Fo^2^)+(0.0260P)^2^+0.2500P] where P=(Fo^2^+2Fc^2^)/3'
_refine_ls_weighting_scheme      calc
_refine_ls_wR_factor_gt          0.0607
_refine_ls_wR_factor_ref         0.0649
_reflns_number_gt                741
_reflns_number_total             863
_reflns_threshold_expression     'I > 2\s(I)'
_cod_data_source_file            ov3158sup1.cif
_cod_data_source_block           I
_cod_original_sg_symbol_H-M      'P 21/n'
_cod_database_code               2022594
_shelx_space_group_comment
;
The symmetry employed for this shelxl refinement is uniquely defined
by the following loop, which should always be used as a source of
symmetry information in preference to the above space-group names.
They are only intended as comments.
;
_shelx_hkl_file
;
   0   0   1 28.8188 85.6577   6
   0   0  -1 146.249 80.5722  10
   0   0   2 7258.48 700.051   7
   0   0   2 6464.04 764.509  10
   0   0   2 6016.13 689.391   6
   0   0  -2 6544.62 526.547   5
   0   0   2 6406.97 699.073   9
   0   0  -2 7134.09 757.934   6
   0   0   2 7586.09 866.421   1
   0   0   3 102.722 261.032   9
   0   0  -3 202.020 201.010   5
   0   0  -3 683.181 349.991   4
   0   0   4 740828. 7585.64   2
   0   0   4 728613. 10179.5   9
   0   0  -4 716042. 10676.6   4
   0   0  -4 720139. 7334.28   5
   0   0  -5 48.7772 304.588   4
   0   0   5 311.540 256.271   2
   0   0   5-570.291 394.665   9
   0   0  -5-99.0215 189.187   5
   0   0   5-46.9075 287.487   8
   0   0  -6 35095.7 3018.67   4
   0   0   6 39658.8 2018.45   3
   0   0   6 39956.6 2962.80   9
   0   0   6 38844.9 3018.43   8
   0   0  -7-350.633 474.226   4
   0   0   7-346.986 382.217   8
   0   0   7 618.028 477.796   9
   0   0   8 42139.8 3781.95   8
   0   0   8 37401.3 3335.34   9
   0   0  -8 35509.4 3655.95   4
   0   0   9-1036.99 721.754   8
   0   0  -9-18.2986 501.377   4
   0   1   1 792.246 223.971   8
   0  -1  -1 499.813 178.176   8
   0   1  -1 904.294 195.329   3
   0  -1   1 788.746 201.097   7
   0  -1   1 743.781 244.178  10
   0  -1   1 617.945 197.853   6
   0  -1  -1 498.106 164.672   4
   0  -1  -1 465.932 206.796   1
   0   1   1 611.187 157.515   9
   0   1   1 784.221 244.417   1
   0   1   1 1279.85 240.157   4
   0   1  -1 374.375 140.683   7
   0   1  -1 754.295 208.495   6
   0  -1  -1 872.547 174.604   9
   0   1  -1 714.733 266.121  10
   0   1   2 78926.8 2429.48   8
   0   1  -2 73953.4 1243.34   5
   0   1  -2 76665.5 2480.59   6
   0   1   2 74157.1 2043.39   9
   0  -1  -2 77302.8 2416.36   4
   0   1   2 87280.9 2556.66   4
   0  -1   2 79751.0 2842.52  10
   0  -1   2 79793.4 2225.48   7
   0   1  -2 81199.4 2887.90  10
   0  -1   2 76033.0 1904.68   3
   0  -1  -2 76305.3 2674.73   1
   0  -1   2 78297.1 1385.06   5
   0  -1  -2 84166.9 2499.96   8
   0  -1  -2 80884.8 2223.43   9
   0   1   2 81577.9 2744.26   1
   0  -1   2 82546.3 2580.06   6
   0   1   2 80709.0 2509.18   6
   0   1  -2 73085.5 2171.02   7
   0  -1   3 369.830 343.122  10
   0  -1   3 374.891 227.835   3
   0   1  -3 119.787 108.212   5
   0   1  -3 479.291 322.454   6
   0   1   3 501.772 262.736   9
   0   1   3 276.534 268.753   8
   0   1  -3 194.715 259.117   7
   0  -1  -3 519.723 350.920   4
   0  -1   4 121239. 4841.57  10
   0   1  -4 117270. 2194.92   5
   0  -1   4 113402. 4396.76   9
   0   1   4 115402. 4154.93   8
   0  -1  -4 111924. 3475.22   5
   0   1   4 120086. 3868.58   9
   0  -1  -4 113779. 4249.01   4
   0   1  -4 112318. 4230.63   6
   0  -1   4 112099. 2979.94   3
   0   1  -5 8994.92 1389.55   4
   0   1   5 7819.37 1239.94   8
   0   1  -5 8716.47 652.539   5
   0  -1  -5 7821.49 1014.16   5
   0  -1   5 7693.27 1398.88  10
   0   1   5 6651.30 1049.76   9
   0  -1   5 7233.98 832.476   3
   0  -1   5 7729.27 1287.80   9
   0  -1  -5 7716.67 1301.04   4
   0  -1   6 129004. 3696.36   3
   0   1   6 127259. 5461.01   8
   0   1  -6 122740. 5650.55   4
   0   1   6 128615. 4983.30   9
   0  -1  -6 131848. 5831.64   4
   0  -1  -6 132774. 4265.91   5
   0  -1   6 132463. 5739.41   9
   0  -1   7 277.857 426.665   9
   0   1   7-299.615 344.890   9
   0  -1  -7-49.5930 459.227   4
   0   1   7-104.702 326.757   8
   0   1  -7 1390.05 802.465   4
   0  -1   7 556.958 467.128   8
   0   1  -8 22771.0 2946.26   4
   0   1   8 20161.6 2342.67   9
   0  -1  -8 26150.6 3168.46   4
   0   1   8 18626.5 2526.81   8
   0  -1   8 25470.5 2901.70   9
   0  -1   8 23893.6 2864.63   8
   0   1  -9 1267.02 778.779   4
   0  -1   9 2362.48 1028.91   8
   0  -1  -9 140.798 743.654   4
   0   1   9-789.228 577.703   8
   0  -2   0 146961. 3138.36   8
   0   2   0 131246. 2958.74   8
   0  -2   1 24782.6 1441.82  10
   0  -2  -1 22413.8 1084.97   4
   0   2   1 27641.2 1196.50   4
   0  -2   1 27222.2 1323.87   7
   0  -2  -1 24865.3 1281.35   1
   0  -2   1 26358.9 1279.15   6
   0   2  -1 25092.0 1282.54   7
   0   2  -1 23422.8 1190.73   6
   0  -2  -1 27837.2 1434.00   8
   0   2   1 22149.8 1274.90   8
   0  -2  -1 25105.8 1108.87   9
   0   2  -1 27374.5 1522.28  10
   0   2   1 24664.6 1269.56   1
   0  -2  -2 711982. 6620.17   9
   0  -2   2 687556. 9137.08  10
   0  -2   2 719740. 7482.62   7
   0  -2  -2 672198. 7483.30   4
   0   2   2 681538. 6479.28   9
   0   2  -2 732864. 7197.20   3
   0  -2   2 683492. 5130.27   5
   0   2   2 694039. 8115.37   8
   0   2  -2 663701. 7264.75   7
   0   2  -2 688341. 7811.85   6
   0  -2  -2 710573. 8432.86   1
   0   2   3 80641.3 3193.98   8
   0  -2   3 81721.1 1692.95   5
   0   2   3 79917.8 2587.95   9
   0   2  -3 80971.3 2893.62   7
   0   2  -3 85315.1 3269.99   6
   0  -2  -3 79818.1 3461.87   1
   0  -2  -3 83484.4 3143.62   4
   0  -2   3 86644.7 3782.55  10
   0   2  -4 101077. 4090.55   6
   0   2   4 105674. 3454.75   9
   0  -2  -4 101650. 4511.22   1
   0  -2   4 110190. 4833.16  10
   0   2  -4 101894. 3763.17   7
   0  -2  -4 112368. 4249.99   4
   0   2   4 107970. 4163.91   8
   0  -2  -5 1552.84 642.588   4
   0   2   5 1437.66 490.213   9
   0   2   5 1296.28 543.162   8
   0  -2   5 2518.16 803.320   9
   0   2  -5 1857.54 704.939   6
   0  -2  -5 1380.74 565.717   5
   0  -2   5 714.463 529.703  10
   0  -2  -6 166198. 5467.22   5
   0   2  -6 152903. 6333.44   4
   0  -2  -6 174345. 6721.76   4
   0   2   6 165582. 5477.66   9
   0  -2   6 146127. 6848.97  10
   0   2   6 167419. 6377.05   8
   0  -2   6 170642. 6917.09   9
   0   2   7 4298.99 1163.27   8
   0   2   7 4214.19 981.498   9
   0  -2  -7 3771.35 1143.66   4
   0  -2   7 4355.03 1220.08   9
   0   2  -7 3774.51 1135.24   4
   0   2   8 74732.1 5146.51   8
   0  -2  -8 73067.3 5307.97   4
   0  -2   8 73460.8 5219.08   9
   0   2  -8 71313.1 5208.81   4
   0  -2   8 66236.1 4846.76   8
   0   2   9 2619.47 1046.33   8
   0  -2   9 2896.98 1149.26   8
   0   3   0 467.077 276.107   8
   0  -3   0 127.814 189.435  10
   0   3  -1 18374.8 1334.01   7
   0  -3   1 19945.6 1487.04  10
   0   3   1 17523.1 1376.15   8
   0  -3  -1 17224.2 1227.21   1
   0   3  -1 18461.7 1227.87   6
   0  -3   1 20324.7 1295.23   6
   0  -3  -1 19097.0 1195.08   9
   0   3   1 21590.6 1216.95   4
   0  -3   2 123.401 222.064  10
   0  -3  -2 47.5114 163.060   4
   0   3   2 44.8889 188.627   8
   0   3  -2 448.571 324.856   7
   0   3  -2-37.0769 183.388   6
   0   3   2 466.638 234.657   9
   0  -3  -2 2.35334 238.677   1
   0  -3   3 1075.64 262.758   5
   0   3  -3 771.110 346.955   6
   0   3   3 947.681 332.057   9
   0   3  -3 1179.68 414.989   7
   0  -3  -3 1099.71 392.491   4
   0  -3  -3 1033.21 470.670   1
   0  -3   3 380.660 348.347  10
   0   3   3 576.673 372.329   8
   0  -3  -4 12890.1 1651.26   1
   0   3   4 14510.2 1310.17   9
   0  -3  -4 12843.0 1481.93   4
   0   3   4 13679.2 1591.65   8
   0  -3   4 11827.8 1690.99  10
   0   3  -4 13585.0 1557.40   6
   0  -3   4 12202.2 736.212   5
   0   3  -4 14707.6 1492.10   7
   0   3  -5 19163.3 2051.11   6
   0   3  -5 21034.9 1960.03   7
   0  -3   5 16929.3 2215.86  10
   0  -3  -5 16477.8 2096.26   1
   0  -3  -5 15615.7 1845.17   4
   0   3   5 15401.2 1874.96   8
   0   3   5 17288.1 1597.20   9
   0  -3  -5 18966.3 1984.16   5
   0  -3  -6 4803.77 1097.93   5
   0   3   6 4266.62 1118.79   8
   0  -3  -6 5070.23 1205.34   4
   0  -3   6 6010.24 1512.93  10
   0   3   6 3880.05 819.726   9
   0   3  -6 3227.63 928.953   6
   0  -3   6 5112.86 1326.34   9
   0  -3  -7 4406.25 1261.33   4
   0   3  -7 7150.96 1551.73   4
   0   3   7 5195.90 1323.06   8
   0   3   7 4673.98 1011.55   9
   0  -3   7 2260.39 972.198   9
   0  -3   7 4203.58 1328.76  10
   0  -3  -8 2350.63 981.894   4
   0   3  -8 898.394 701.102   4
   0  -3   8 1396.91 826.542   9
   0   3   8 2311.67 986.387   8
   0   3   9 214.549 547.609   8
   0  -3   9-674.038 715.988   9
   0  -3   9-101.152 257.760   8
   0   4   0 31510.2 1705.17   6
   0  -4   0 32256.7 1976.53  10
   0   4   0 31806.2 2096.35   8
   0  -4  -1 7866.21 957.028   1
   0   4  -1 7500.33 890.442   6
   0   4   1 7399.45 1046.08   8
   0   4  -1 6787.12 941.924   7
   0  -4   1 8340.74 1086.45  10
   0   4  -2 595164. 8459.70   6
   0   4  -2 579818. 8772.74   7
   0  -4   2 604420. 10192.8  10
   0   4   2 625046. 9769.22   8
   0  -4  -2 615737. 9142.48   1
   0   4   3 5415.96 794.961   9
   0  -4   3 4109.95 986.071  10
   0   4   3 5525.24 1014.47   8
   0   4  -3 5156.99 926.333   6
   0  -4  -3 6057.41 921.486   4
   0  -4  -3 4413.59 912.346   1
   0   4  -3 6165.26 981.165   7
   0   4  -4 82135.8 3915.22   6
   0   4   4 80140.0 3210.91   9
   0  -4   4 77145.3 2270.95   5
   0   4   4 83057.5 4180.30   8
   0  -4  -4 79217.3 4166.48   1
   0  -4  -4 83771.8 3812.69   4
   0   4  -4 80212.6 3682.02   7
   0  -4   4 77961.3 4480.22  10
   0   4  -5 6078.02 1219.91   6
   0  -4   5 7432.90 1589.53  10
   0   4  -5 7555.89 1228.33   7
   0   4   5 7497.32 1097.67   9
   0  -4  -5 8564.02 1585.42   1
   0   4   5 6266.00 1266.34   8
   0  -4  -5 7789.84 1317.40   4
   0   4   6 171769. 7077.02   8
   0  -4   6 171459. 7914.91  10
   0   4  -6 177386. 6378.01   7
   0   4   6 173556. 5613.13   9
   0  -4  -6 166925. 6588.25   5
   0  -4  -6 172952. 6794.70   4
   0   4  -6 167989. 6797.49   6
   0  -4   7-139.725 411.267  10
   0   4   7 246.820 502.388   8
   0   4  -7 805.267 578.591   6
   0  -4   7 547.200 606.986   9
   0  -4  -7-185.735 332.850   5
   0  -4  -7 1351.13 710.464   4
   0  -4   8 81074.9 6339.04  10
   0  -4   8 78236.4 5903.36   9
   0   4  -8 80456.9 5693.27   4
   0  -4  -8 81835.4 5639.55   4
   0   4   8 79831.0 5649.04   8
   0   4   9 56.3463 275.944   8
   0  -4   9-796.332 727.742   9
   0   5   0-96.9760 341.822   7
   0   5   0 7.72276 174.537   6
   0  -5   0 208.645 241.124  10
   0   5  -1 6378.73 910.298   6
   0  -5   1 4325.82 880.732  10
   0   5  -1 4910.01 947.402   7
   0  -5  -1 6265.37 940.681   1
   0   5   1 6207.70 1070.60   8
   0   5  -2 41140.8 2418.80   6
   0  -5   2 38465.4 2808.25  10
   0  -5  -2 36771.8 2423.02   1
   0   5  -2 38110.4 2510.60   7
   0   5   2 40832.8 2796.09   8
   0   5  -3 9612.67 1316.92   7
   0  -5  -3 7081.05 1201.54   1
   0   5   3 8209.40 1353.67   8
   0  -5   3 6592.18 1291.18  10
   0   5  -3 7628.16 1152.18   6
   0  -5  -4 37836.5 2686.92   4
   0  -5   4 32608.5 3041.51  10
   0   5  -4 31714.4 2534.39   6
   0  -5  -4 32629.1 2803.02   1
   0   5   4 32377.8 2777.77   8
   0   5  -4 34113.6 2603.06   7
   0   5  -5 1494.72 700.907   6
   0  -5   5 744.837 648.883  10
   0  -5  -5 1457.73 731.690   1
   0  -5  -5 1016.85 514.485   4
   0   5  -5 1307.03 610.023   7
   0   5   5 2017.68 614.007   9
   0   5   5 1087.59 633.545   8
   0  -5  -6 70791.9 4438.52   4
   0  -5   6 71962.2 5285.59  10
   0  -5  -6 67111.6 4885.76   1
   0  -5  -6 56638.4 4176.13   5
   0   5  -6 71113.6 4547.24   6
   0   5   6 70742.3 3648.71   9
   0   5  -6 75284.1 4314.80   7
   0   5   6 69624.1 4712.99   8
   0   5  -7 22175.0 2755.68   6
   0  -5  -7 22394.2 2724.85   4
   0  -5   7 23357.4 3260.71  10
   0   5   7 21460.8 2834.90   8
   0  -5   7 21568.2 3013.72   9
   0  -5  -7 20883.5 2631.79   5
   0   5   8 5177.67 1474.62   8
   0   5  -8 6291.54 1721.57   4
   0  -5  -8 8748.77 1893.33   4
   0  -5   8 7175.18 1946.24  10
   0  -5   8 5569.54 1770.54   9
   0   6   0 632518. 9343.98   6
   0  -6   0 643412. 10990.8  10
   0   6   0 629136. 11311.1   7
   0   6  -1 26176.1 1964.92   6
   0   6   1 23549.0 2273.48   8
   0  -6  -1 25902.1 2090.67   1
   0  -6   1 25575.6 2281.41  10
   0   6  -1 26093.7 2281.36   7
   0  -6  -2 40357.1 2746.88   1
   0   6   2 33994.4 2812.98   8
   0   6  -2 36646.5 2685.18   7
   0  -6   2 39282.7 3036.12  10
   0   6  -2 30160.2 2235.01   6
   0  -6   3 67771.7 4304.62  10
   0  -6  -3 72310.6 3957.42   1
   0   6   3 78577.1 4431.00   8
   0   6  -3 76890.8 4022.68   7
   0   6  -3 78502.7 3835.54   6
   0  -6  -4 311496. 8990.15   1
   0   6   4 325355. 9397.08   8
   0   6  -4 330744. 8622.12   7
   0  -6   4 310699. 9901.73  10
   0   6  -4 323540. 8414.03   6
   0  -6   5 7071.19 1632.66  10
   0  -6  -5 8268.70 1679.89   1
   0   6  -5 7985.12 1453.19   6
   0   6   5 6589.14 1503.46   8
   0   6  -5 8794.45 1476.95   7
   0   6  -6 54116.1 3815.40   7
   0   6  -6 47445.5 3832.14   6
   0  -6  -6 48979.5 3770.55   4
   0  -6  -6 44179.5 4091.92   1
   0  -6   6 51275.3 4619.90  10
   0   6   6 51364.6 4260.00   8
   0  -6  -7 6330.66 1584.22   5
   0   6   7 4861.62 1479.71   8
   0   6  -7 2318.55 1056.79   6
   0  -6  -7 3770.58 1181.23   4
   0  -6   7 3390.74 1288.18  10
   0  -6   8 36761.9 4327.34   9
   0   6  -8 42504.9 4304.89   4
   0  -6  -8 36483.5 3834.07   4
   0   6   8 33749.6 3914.70   8
   0   7   0 158.479 367.646   7
   0  -7   0 78.8381 276.634  10
   0  -7   0 193.633 357.955   1
   0   7   0-86.0668 277.228   6
   0  -7  -1-286.446 335.011  10
   0  -7  -1 56.8938 256.169   1
   0   7  -1 518.658 572.227   7
   0  -7   1 217.903 320.406  10
   0   7  -1 39.0520 297.277   6
   0   7   1 228.738 367.261   8
   0   7  -2 12339.5 1508.24   6
   0   7  -2 12260.5 1713.24   7
   0  -7  -2 11327.6 1598.91   1
   0  -7   2 8990.23 1582.13  10
   0   7   2 10663.8 1722.61   8
   0  -7   3 8706.82 1631.87  10
   0   7   3 7773.48 1543.47   8
   0  -7  -3 8230.37 1461.27   1
   0   7  -3 8685.21 1355.53   6
   0   7  -3 7450.67 1373.03   7
   0  -7   4 3078.79 1118.52  10
   0   7  -4 2258.20 822.614   6
   0   7  -4 2478.11 827.850   7
   0  -7  -4 2597.86 938.324   1
   0   7   4 3389.90 1171.26   8
   0   7  -5 6276.52 1317.18   6
   0  -7   5 5089.74 1420.86  10
   0  -7  -5 4873.81 1370.26   1
   0   7  -5 6348.99 1325.93   7
   0   7   5 6374.02 1541.74   8
   0  -7   6 8862.02 2020.34  10
   0  -7  -6 9925.45 2009.86   1
   0   7  -6 8004.57 1616.39   6
   0   7   6 10090.4 2024.08   8
   0  -7   7 4433.39 1506.84  10
   0   7   7 2917.85 1193.94   8
   0  -7  -7 3540.64 1357.68   5
   0   7  -7 2456.95 975.158   6
   0   8   0 166599. 6916.63   7
   0  -8   0 164816. 6120.76   1
   0  -8   0 167059. 6609.77  10
   0   8   0 162356. 5505.22   6
   0  -8   1 8204.98 1550.47  10
   0   8  -1 8798.35 1623.71   7
   0  -8  -1 7865.33 1374.78   1
   0   8   1 9039.14 1331.81   6
   0  -8  -1 8772.87 1529.83  10
   0   8   1 8184.56 1622.86   7
   0   8  -1 9998.62 1399.30   6
   0   8  -2 153388. 6504.91   7
   0   8   2 154994. 7121.67   8
   0  -8   2 147873. 6737.74  10
   0  -8  -2 154192. 6206.48   1
   0   8  -2 155743. 5645.12   6
   0  -8   3 3255.30 1115.14  10
   0   8  -3 6035.02 1186.21   6
   0   8  -3 5997.92 1312.52   7
   0   8   3 5635.97 1430.51   8
   0  -8  -3 3920.83 1085.14   1
   0   8   4 56520.3 4537.64   8
   0   8  -4 56213.5 4052.41   7
   0   8  -4 55534.2 3779.33   6
   0  -8   4 58396.6 4750.56  10
   0  -8  -4 60048.0 4345.57   1
   0   8   5-778.355 622.465   8
   0   8  -5-156.135 384.522   6
   0   8  -5 93.2049 342.442   7
   0  -8  -5-37.4972 347.725   1
   0  -8   6 51047.3 4947.13  10
   0   8  -6 53305.6 4265.82   6
   0   8   6 54396.6 4905.28   8
   0  -8  -6 50739.5 4671.82   1
   0   8   7 756.190 681.466   8
   0   8  -7 537.682 467.488   6
   0  -9   0 522.295 453.569  10
   0   9   0 76.7617 313.821   6
   0   9   0 173.291 462.771   7
   0  -9   0 17.9534 322.468   1
   0  -9   1 5897.41 1387.18  10
   0  -9  -1 5179.77 1235.06   1
   0   9  -1 5526.79 1102.48   6
   0   9  -1 4457.16 1248.37   7
   0   9   1 6335.50 1513.24   7
   0   9   1 5459.83 1092.73   6
   0  -9  -1 5087.25 1226.28  10
   0  -9   2 579.557 559.221  10
   0   9  -2 877.858 637.011   7
   0   9   2-260.731 497.394   7
   0  -9  -2 909.720 570.087  10
   0   9   2 811.975 853.428   8
   0   9  -2 796.736 465.618   6
   0  -9  -2 96.0797 442.247   1
   0   9   3 815.684 740.945   8
   0  -9  -3 876.875 652.217   1
   0   9  -3-67.8363 277.928   6
   0   9  -3 918.006 625.623   7
   0  -9   3 335.967 529.728  10
   0   9   4 96.5133 433.183   8
   0  -9   4 633.278 603.916  10
   0  -9  -4 636.068 579.965   1
   0   9  -4 217.795 411.807   7
   0  -9   5 645.421 611.369  10
   0  -9  -5 10.9368 388.308   1
   0   9   5-507.111 612.271   8
   0  -9  -6-179.358 457.792   1
   0   9   6-1080.89 827.188   8
   0 -10   0 60684.9 4284.38   1
   0 -10   0 54883.3 4425.57  10
   0  10   0 57077.4 4688.70   7
   0 -10   1 14048.9 2277.70  10
   0 -10  -1 13640.2 2224.16  10
   0 -10   1 12788.6 1991.81   1
   0  10   1 12793.4 2314.45   7
   0  10  -1 16660.5 2504.14   7
   0 -10  -1 15411.5 2209.10   1
   0  10   2 75802.0 5654.95   7
   0  10  -2 61688.4 4725.28   7
   0 -10  -2 77376.0 5192.47  10
   0 -10  -2 69170.6 4752.60   1
   0 -10   2 72418.8 5343.42  10
   0 -10  -3 23561.1 2899.42   1
   0 -10   3 25005.1 3281.33  10
   0  10  -3 21245.4 2786.39   7
   0 -10  -3 25793.6 3062.88  10
   0  10   3 27837.0 3578.06   8
   0  10   4 33911.3 4011.36   8
   0 -10   4 32014.7 3871.48  10
   0  10  -4 33911.8 3523.71   7
   0 -10  -4 30101.1 3415.78   1
   0 -10  -5 4593.49 1538.81   1
   0 -11   0 24.8801 231.438  10
   0  11   0 417.331 584.698   7
   0 -11  -1 275.610 390.438  10
   0  11   1-510.199 700.842   7
   0 -11   1 662.371 592.671  10
   0  11  -1 847.321 905.648   7
   0 -11  -2 3202.33 1152.79  10
   0 -11   2 256.068 440.564  10
   0  11  -2 2261.11 1028.68   7
   0  11   2 2164.11 1128.22   7
   0 -11  -3 11001.2 2145.45  10
   0  11  -3 7919.04 1801.21   7
   0 -11   3 12365.8 2422.34  10
   0 -11  -4 3894.85 1286.57  10
   0 -12   0 38432.0 4189.88  10
   0 -12  -1 40800.1 4264.00  10
   0 -12  -2 36756.8 4039.37  10
  -1   0   9 5333.51 1477.78   9
   1   0  -9 8212.37 1952.84   4
   1   0  -8 137.084 409.994   4
  -1   0   8-488.719 468.707   8
  -1   0   7 16240.3 2193.26   9
   1   0  -7 20377.6 2521.38   4
  -1   0   7 22028.3 2290.19   8
  -1   0   6-105.275 269.555   8
   1   0  -6 89.3728 438.568   4
  -1   0   6 220.014 408.122   9
  -1   0   5 77039.8 3995.61   9
   1   0  -5 73877.8 2086.03   5
   1   0  -5 73993.1 3908.97   6
  -1   0   5 80589.4 3436.94   8
  -1   0   4 212.564 174.042   7
  -1   0   4 592.285 267.899   8
   1   0  -4 186.261 345.588   6
  -1   0   4-43.3070 243.166   9
   1   0  -3 55350.1 2600.88   6
  -1   0   3 54118.4 1929.04   8
   1   0  -3 56055.3 2705.41   1
  -1   0   3 53738.7 2631.13   9
  -1   0   2 350.684 137.620   8
   1   0  -2 443.415 177.142   5
  -1   0   2 411.356 300.628   9
   1   0  -2 425.344 271.216   1
   1   0  -2 1127.62 369.929   6
  -1   0   2 392.329 282.915   1
   1   0  -2 747.193 342.125   2
  -1   0   2 331.618 213.243   6
   1   0  -1 14995.2 952.139   9
  -1   0   1 14399.5 548.496   7
  -1   0   1 12801.0 761.385   5
   1   0  -1 13661.0 775.145   5
   1   0  -1 14046.8 563.693   7
   1   0  -1 15720.6 848.593   1
  -1   0   1 15240.3 926.301   6
   1   0  -1 14280.3 896.173   6
  -1   0   1 13395.2 898.570   9
  -1   0   1 14741.5 821.705   1
  -1   0   0 463.927 195.456   5
   1   0   0 119.091 121.862   7
   1   0   0 525.953 134.067   9
  -1   0   0 452.436 168.591   7
   1   0   0 396.665 183.881   5
  -1   0   0 484.570 146.221   9
   1   0   1 1090.45 263.051   4
  -1   0  -1 1178.78 284.853   4
   1   0   1 699.630 285.386   7
   1   0   1 1396.34 358.536   5
  -1   0  -1 997.464 320.968   7
   1   0   1 1117.24 245.324  10
  -1   0  -1 1074.26 327.338   5
  -1   0  -1 1178.99 249.024  10
   1   0   2 359.113 212.266  10
  -1   0  -2 344.305 224.310  10
  -1   0  -2 112.236 216.498   4
   1   0   2 505.203 318.542   5
  -1   0  -2 607.877 312.699   5
  -1   0  -3 42139.5 2068.99   5
   1   0   3 44787.7 2369.63  10
  -1   0  -3 42431.0 2328.21   4
  -1   0  -4 342.694 365.869   5
  -1   0  -4-67.0436 352.055   4
   1   0   4-64.4855 211.830   9
   1   0   4 261.286 219.280  10
   1   0   5 958.893 508.092   8
  -1   0  -5 958.261 400.527   5
   1   0   5 1325.98 450.364   9
  -1   0  -5 665.418 536.414   4
  -1   0  -6 126.482 233.902   5
   1   0   6-51.9575 331.545   8
   1   0   6 73.1865 259.996   9
  -1   0  -6 91.8547 349.923   4
   1   0   7 214.953 291.646   9
   1   0   7 450.121 583.342   8
  -1   0  -7 882.018 648.669   4
   1   0   8 363.728 503.727   8
  -1   0  -8 96.2774 400.343   4
   1   0   9 2814.00 1160.06   8
   1   1  -9 250.857 478.805   4
  -1   1   9-1145.07 687.469   9
   1  -1  -9-427.740 598.699   4
  -1  -1   8 70915.7 4559.72   8
  -1  -1   8 86005.6 5601.11   9
   1  -1  -8 76344.0 5321.67   4
  -1   1   8 76858.7 4901.53   9
   1   1  -8 75212.1 5323.74   4
  -1   1   8 73283.7 4618.94   8
   1  -1  -7 1889.31 796.481   4
  -1  -1   7 1619.84 664.613   9
  -1  -1   7 2622.41 826.790   8
  -1   1   7 1523.14 693.783   8
   1   1  -7 3043.09 1040.05   4
  -1   1   7 2328.75 804.896   9
  -1   1   6 108141. 4580.00   8
  -1  -1   6 102236. 5285.97   9
  -1  -1   6 116047. 4743.27   8
   1  -1  -6 102614. 5044.03   4
  -1   1   6 102347. 4836.15   9
   1   1  -6 103614. 5220.16   6
   1  -1  -6 108197. 3511.98   5
   1  -1  -5 11848.1 1547.51   4
  -1   1   5 11371.7 1476.29   9
   1   1  -5 11220.1 1553.18   6
  -1  -1   5 11787.4 1666.82   9
  -1   1   5 9471.43 1207.65   8
  -1   1   4 177991. 4450.58   8
  -1  -1   4 174385. 5763.18   9
  -1   1   4 169335. 5083.15   9
   1   1  -4 167795. 5380.53   6
  -1  -1   4 171306. 3576.68   7
   1  -1  -4 170058. 5169.67   6
   1  -1  -4 174087. 5690.70   1
   1  -1  -3 71103.3 2854.19   6
  -1  -1   3 70603.3 1760.43   7
   1  -1  -3 66403.2 3031.40   1
   1  -1  -3 72442.4 2394.54   2
  -1   1   3 68963.5 2289.30   8
  -1   1   3 70052.9 2882.78   9
   1   1  -3 64207.4 2915.32   6
  -1  -1   3 65395.2 3146.26   9
  -1  -1   3 72067.5 3259.08  10
  -1  -1   2 697530. 7477.64   1
   1   1  -2 693114. 8342.79   6
  -1   1   2 667017. 5729.82   8
  -1   1   2 701720. 4665.74   3
   1  -1  -2 688980. 8065.74   1
   1  -1  -2 672270. 7200.12   6
  -1  -1   2 676759. 8318.23  10
  -1  -1   2 703447. 8708.00   9
  -1   1   2 712779. 7490.96   6
  -1   1   2 677739. 7691.83   9
   1   1  -2 674047. 4556.69   5
   1  -1  -2 692995. 5531.87   8
   1   1  -1 77142.1 2411.87   2
  -1   1   1 79199.0 1844.00   3
  -1   1   1 76005.5 1761.70   6
   1  -1  -1 83850.3 2270.00   9
   1   1  -1 79871.8 2112.32  10
  -1  -1   1 74623.5 2048.25  10
  -1  -1   1 73293.7 1868.80   5
   1   1  -1 74218.6 2372.81   6
  -1   1   1 74425.9 2154.02   9
   1  -1  -1 71038.8 1674.08   6
  -1   1   1 74514.2 1945.13   7
   1   1  -1 77427.3 1960.74   5
   1  -1  -1 78116.8 1600.39   8
  -1  -1   1 68538.0 2240.60   9
  -1  -1   1 77430.6 1606.55   1
  -1   1   1 80230.5 2259.88   1
  -1  -1   1 84622.6 2509.33   2
  -1  -1   1 78217.6 1533.86   8
  -1  -1   1 83551.7 2518.80   6
   1  -1  -1 76639.5 1824.25   3
   1  -1  -1 75734.0 2206.95   1
   1   1   0 193473. 3328.60   2
   1  -1   0 198786. 3525.58   7
  -1   1   0 185738. 3069.91   9
  -1  -1   0 183238. 3532.46   5
   1   1   0 207134. 3733.39   5
   1  -1   0 209687. 3570.37   5
   1  -1   0 194589. 3344.44   3
   1  -1   0 200630. 3177.63   9
  -1  -1   0 203244. 3001.94   8
   1   1   0 182569. 2843.41   8
  -1  -1   0 185527. 2526.63   9
  -1   1   0 184368. 3366.63   7
  -1  -1   0 203185. 3354.89   2
   1  -1   1 86971.8 2415.77   5
  -1   1  -1 79176.6 1946.20   4
  -1  -1  -1 74954.0 2565.57   5
   1   1   1 79032.5 2402.68   8
   1   1   1 88937.9 2465.97   4
  -1   1  -1 80267.8 2312.38   5
   1   1   1 90083.6 2858.36   5
  -1  -1  -1 79664.2 1579.34  10
  -1   1  -1 83452.7 2383.91  10
   1   1   1 85541.6 1912.18   2
   1  -1   1 76279.2 2334.96  10
  -1  -1  -1 84587.5 2521.03   8
   1  -1   1 83609.4 1988.43   4
  -1   1  -1 83024.1 2603.94   7
   1  -1   1 92414.5 2741.29   7
  -1  -1  -2 372728. 6028.08   4
   1  -1   2 385406. 5554.58   6
   1  -1   2 359649. 6221.41  10
  -1   1  -2 366063. 5278.44   5
  -1   1  -2 362580. 6290.12   7
  -1  -1  -2 367482. 5284.70  10
  -1  -1  -2 362204. 6222.11   5
   1   1   2 356338. 3154.87   9
  -1   1  -2 361047. 5478.82   4
   1  -1   2 384347. 5519.85   5
   1   1   2 359240. 6261.82   8
  -1  -1  -3 685.481 360.532   4
   1   1   3 890.325 260.595   9
   1   1   3 262.568 283.935   8
  -1   1  -3 365.121 266.835   7
  -1  -1  -3 691.495 360.539   5
  -1   1  -3 621.647 323.960   5
  -1   1  -3 513.825 330.119   4
   1  -1   3 845.243 414.249  10
   1   1   4 232669. 4683.10   9
   1   1   4 218254. 6366.95   8
   1  -1   4 215695. 6424.41  10
  -1  -1  -4 238463. 5896.72   5
  -1  -1  -4 220564. 6230.53   4
  -1   1  -4 227489. 4805.89   5
  -1   1  -4 226263. 6171.37   4
  -1  -1  -5 24667.5 2011.34   5
  -1  -1  -5 23099.6 2272.80   4
   1  -1   5 24846.2 1951.98   3
   1  -1   5 26041.5 2499.96  10
   1   1   5 25396.6 1813.05   9
   1  -1   5 28688.1 2370.38   9
   1   1   5 27149.1 2486.41   8
  -1   1  -5 22639.9 2235.37   4
  -1   1  -5 25186.4 1689.90   5
   1  -1   6 173141. 5420.23   3
   1  -1   6 156846. 6798.72  10
  -1  -1  -6 177571. 5563.39   5
  -1   1  -6 164266. 6632.35   4
  -1  -1  -6 168130. 6795.92   4
   1  -1   6 173607. 6303.75   9
   1   1   6 176966. 5284.88   9
   1   1   6 161109. 6654.49   8
   1  -1   7 3861.81 993.256   9
  -1   1  -7 4717.05 1272.17   4
  -1  -1  -7 5138.94 1348.47   4
   1  -1   7 4093.03 1184.19   8
   1   1   7 5069.40 1301.12   8
  -1   1  -8 116016. 6744.01   4
   1   1   8 110054. 6508.11   8
   1  -1   8 122449. 6898.00   8
  -1  -1  -8 119780. 6881.44   4
   1  -1   9 1018.64 729.044   8
   1   1   9-64.3935 345.555   8
  -1  -2   9 6524.25 1737.74   9
   1  -2  -9 6668.83 1765.45   4
   1  -2  -8 8845.10 1849.05   4
   1   2  -8 7481.99 1749.79   4
  -1  -2   8 10734.6 2076.35   9
  -1   2   8 9759.38 1757.33   8
  -1  -2   8 9527.53 1716.60   8
  -1   2   8 10531.0 1831.36   9
  -1  -2   7 5638.59 1416.85   9
   1  -2  -7 4075.12 1177.37   4
  -1   2   7 5211.52 1184.97   9
   1   2  -7 5158.47 1307.01   6
  -1   2   7 4852.42 1140.15   8
  -1  -2   6 115883. 5912.07   9
  -1   2   6 100753. 4611.17   8
   1  -2  -6 105557. 5115.15   4
   1   2  -6 107924. 5416.05   6
  -1   2   6 105733. 4816.16   9
  -1   2   5 12778.3 1493.79   8
  -1   2   5 10067.5 1366.35   9
   1   2  -5 11604.8 1661.84   6
   1  -2  -5 10486.8 1445.12   4
  -1  -2   5 9784.72 1623.14  10
   1  -2  -5 11838.9 1753.20   1
  -1  -2   5 10267.1 1658.58   9
  -1  -2   4 46850.1 3131.60   9
   1  -2  -4 44857.9 2971.61   1
   1   2  -4 45846.7 2900.25   6
  -1  -2   4 47926.1 1909.68   7
   1  -2  -4 48132.7 2697.08   4
  -1  -2   4 50330.7 3276.29  10
  -1   2   4 52052.4 2608.87   8
  -1   2   4 49938.7 2741.68   9
   1  -2  -4 49768.0 2046.67   2
   1   2  -3 11524.2 827.761   3
  -1  -2   3 10636.7 750.209   7
  -1   2   3 11022.8 1050.12   8
   1  -2  -3 10010.7 1038.35   4
   1   2  -3 9481.89 1211.50   6
  -1   2   3 10564.1 1138.64   9
   1  -2  -3 12656.3 1392.58   1
  -1  -2   3 10168.5 1318.82  10
  -1  -2   3 11183.6 1382.44   9
   1   2  -3 11321.8 796.894   7
   1   2  -2 8687.58 1028.03   6
   1  -2  -2 8737.41 801.676   8
  -1   2   2 8122.66 789.376   8
   1  -2  -2 9585.65 1068.74   1
  -1   2   2 8271.56 905.438   9
  -1   2   2 9096.69 824.492   6
   1   2  -2 8926.18 603.716   7
  -1  -2   2 9424.49 666.441   5
  -1  -2   2 10844.1 1130.29  10
   1  -2  -2 9201.47 775.968   4
  -1   2   1 8992.77 869.697   9
  -1   2   1 9630.32 907.654   7
   1  -2  -1 7967.90 465.357   4
  -1  -2   1 8784.57 800.706   5
   1  -2  -1 8893.40 905.967   1
   1   2  -1 8911.21 949.974   6
  -1   2   1 9814.03 851.383   3
  -1  -2   1 8389.51 745.782   8
   1   2  -1 8117.49 747.108   8
  -1   2   1 8620.86 562.997   6
  -1   2   1 9126.75 813.361   8
   1  -2  -1 8594.56 773.702   8
   1   2  -1 9037.92 823.931  10
  -1  -2   1 9735.72 868.033  10
  -1  -2   0 56695.7 2038.20   8
   1   2   0 50345.3 1897.22   8
  -1   2   0 51646.0 2106.79   7
  -1   2   0 51320.6 2002.69   3
   1  -2   0 57510.5 2267.99   7
  -1  -2   0 49612.4 2111.89   5
  -1  -2   0 55690.5 2070.46   2
   1  -2   0 48703.8 2003.90   3
  -1  -2   0 51546.4 1430.20  10
   1  -2   0 54312.8 2046.62   9
   1  -2   1 1599.53 274.289   6
   1   2   1 2069.33 361.154   1
   1   2   1 1686.99 451.217   8
   1  -2   1 2654.15 564.463   3
  -1   2  -1 1476.15 450.514   7
  -1  -2  -1 1658.65 512.801   5
   1  -2   1 1983.84 470.085  10
  -1  -2  -1 2601.74 413.052   1
  -1  -2  -1 2362.61 377.534   2
   1  -2   1 2610.90 487.647   5
  -1   2  -2 135015. 3362.67   4
   1  -2   2 138259. 3838.28   3
  -1  -2  -2 131102. 4142.54   5
  -1  -2  -2 130325. 3800.47   4
   1  -2   2 134886. 4238.77  10
   1   2   2 131484. 3990.28   8
   1  -2   2 136950. 3417.77   5
  -1  -2  -2 130405. 1921.50   9
  -1   2  -2 136824. 4095.92   7
   1  -2   2 141889. 3422.79   6
   1   2   3 1733.04 288.886   9
   1   2   3 2878.41 701.383   8
  -1   2  -3 2102.07 614.813   7
  -1  -2  -3 1375.58 500.066   4
   1  -2   3 2147.47 557.905   3
   1  -2   3 1903.92 632.912  10
  -1   2  -3 1984.03 455.765   5
  -1   2  -3 1704.09 498.614   4
  -1  -2  -3 1109.94 470.467   5
   1  -2   4 55038.5 2816.91   3
   1  -2   4 55446.3 3462.39  10
  -1   2  -4 57601.6 3294.86   7
   1   2   4 51697.1 3182.08   8
  -1   2  -4 56831.9 2348.69   5
   1   2   4 57957.0 2110.81   9
  -1   2  -4 54223.6 3036.62   4
  -1  -2  -4 58313.0 3184.16   5
  -1  -2  -4 50619.7 3038.68   4
   1  -2   5 199.843 448.073  10
  -1  -2  -5 641.022 399.021   5
  -1   2  -5 675.051 483.727   4
  -1  -2  -5 733.947 487.246   4
   1   2   5 560.521 313.213   9
  -1   2  -5 689.030 316.085   5
   1  -2   5 208.079 380.835   3
   1   2   5 177.032 400.628   8
  -1   2  -6 16164.5 2124.09   4
   1  -2   6 16470.7 2322.35  10
   1   2   6 19123.4 2342.47   8
  -1  -2  -6 17130.7 1932.30   5
   1  -2   6 15872.3 1713.58   3
   1  -2   6 16148.8 2098.94   9
  -1  -2  -6 20980.7 2446.10   4
   1   2   6 18325.1 1591.52   9
   1  -2   7 10206.4 1763.27   9
   1  -2   7 8601.30 1818.48  10
  -1   2  -7 11555.6 1983.39   4
  -1  -2  -7 10516.7 1907.82   4
   1   2   7 10994.9 1943.24   8
  -1  -2  -8 15924.7 2571.23   4
   1  -2   8 17439.2 2644.00   8
  -1   2  -8 14830.8 2408.62   4
   1  -2   8 12361.7 2085.93   9
   1   2   8 11325.3 2156.66   8
   1  -2   9 2375.83 1039.83   8
   1   2   9 2497.77 1084.22   8
   1  -3  -9 2926.84 1186.54   4
  -1  -3   9 2483.62 1193.23   9
  -1  -3   8 33973.2 3836.70   9
   1  -3  -8 33933.3 3521.85   4
  -1   3   8 32727.7 3127.43   9
  -1   3   8 31554.5 3208.33   8
   1   3  -8 32601.2 3607.21   6
   1  -3  -7 5970.17 1383.26   4
  -1   3   7 8661.47 1496.38   9
  -1  -3   7 4710.65 1401.90   9
  -1   3   7 8161.37 1528.35   8
   1   3  -7 4708.07 1303.90   6
  -1  -3   6 168207. 7383.57   9
   1  -3  -6 152298. 7004.76   1
  -1   3   6 167527. 6207.92   8
  -1   3   6 165629. 6039.28   9
   1  -3  -6 160138. 6316.49   4
  -1  -3   6 167571. 7554.55  10
   1   3  -6 161419. 6821.08   6
  -1  -3   5 643.242 461.637   9
   1  -3  -5 269.102 257.332   2
   1  -3  -5 204.675 468.495   1
  -1  -3   5 332.061 453.671  10
  -1   3   5 544.425 421.642   9
   1   3  -5 324.596 382.924   6
   1  -3  -5 328.198 360.536   4
  -1   3   5 704.826 468.331   8
  -1   3   4 378894. 7615.80   8
  -1  -3   4 383848. 9352.59  10
   1   3  -4 363556. 8542.54   6
   1   3  -4 408049. 6226.34   7
   1  -3  -4 381589. 8883.60   1
  -1  -3   4 367851. 5749.06   7
   1  -3  -4 391691. 7635.38   4
  -1   3   4 378935. 7771.44   9
   1   3  -3 3101.18 769.125   6
   1  -3  -3 3145.28 605.511   4
   1   3  -3 3056.32 502.235   7
   1  -3  -3 3246.70 768.586   1
  -1   3   3 2141.42 583.596   9
  -1  -3   3 2243.99 677.289  10
  -1  -3   3 2805.12 471.041   7
  -1  -3   3 2741.56 370.619   5
  -1   3   3 2832.26 629.892   8
  -1  -3   2 102032. 2791.98   5
  -1   3   2 108081. 3468.99   9
   1  -3  -2 113235. 2761.10   4
  -1  -3   2 110163. 3847.30  10
  -1   3   2 108533. 3428.87   8
   1   3  -2 111981. 3917.18   6
   1  -3  -2 113241. 3923.90   1
  -1   3   2 114999. 2950.14   6
   1   3  -2 111673. 2822.25   7
  -1   3   1 5286.02 806.134   7
   1  -3  -1 6635.51 919.923   1
   1   3  -1 6549.17 803.482  10
   1   3  -1 6179.50 878.831   6
  -1   3   1 5435.91 433.954   4
  -1  -3   1 6983.01 834.909  10
  -1  -3   0 995395. 6526.51   1
  -1   3   0 979574. 10627.3   7
  -1  -3   0 990898. 8201.59  10
   1   3   0 999999. 10149.8   8
   1  -3   1 15352.9 896.558   6
   1   3   1 19480.4 1113.14   1
  -1   3  -1 15497.6 838.137   6
  -1   3  -1 15499.8 1415.85   7
  -1  -3  -1 16424.1 1064.89   1
   1  -3   1 16852.6 1481.06  10
   1   3   1 17458.6 1451.02   8
  -1   3  -2 115012. 4085.29   7
   1   3   2 113701. 4052.85   8
  -1   3  -2 105927. 2941.80   6
  -1  -3  -2 108122. 4192.23   5
  -1  -3  -2 107283. 3441.48   1
   1  -3   2 110652. 4224.67  10
  -1  -3  -2 108879. 2475.45   2
  -1  -3  -2 110926. 2172.69   9
   1  -3   2 107687. 3765.87   3
   1  -3   2 117213. 3213.30   6
  -1  -3  -3 45912.8 2686.22   4
   1  -3   3 41147.7 2886.88  10
   1  -3   3 42141.8 2500.03   3
  -1  -3  -3 43761.4 2851.52   5
  -1   3  -3 41859.3 2274.17   6
  -1  -3  -3 42560.2 1653.86   9
  -1  -3  -3 45383.0 2688.52   1
  -1   3  -3 42125.4 2669.68   7
   1   3   3 42384.6 2753.24   8
   1   3   3 46714.3 1585.85   9
   1   3   4 312794. 8172.52   8
  -1   3  -4 291115. 7613.63   7
   1  -3   4 300251. 8513.81  10
   1   3   4 316016. 4806.41   9
  -1   3  -4 300488. 7224.78   4
   1  -3   4 302194. 7000.58   3
  -1  -3  -4 298393. 7537.24   4
  -1  -3  -4 308376. 7892.83   5
   1   3   5 28.3445 125.500   9
  -1   3  -5 812.888 496.982   4
  -1  -3  -5 938.081 510.568   4
   1  -3   5 478.094 401.451  10
  -1  -3  -5 1088.75 574.955   5
   1   3   5 212.255 372.706   8
   1  -3   5 647.187 459.911   3
  -1   3  -5 700.635 458.434   7
   1  -3   6 51124.2 3208.39   3
   1  -3   6 49486.9 4138.33  10
  -1  -3  -6 42545.6 3309.21   5
   1   3   6 43529.5 3657.82   8
  -1  -3  -6 44561.0 3558.35   4
  -1   3  -6 41340.1 3391.44   4
   1  -3   7 1113.14 768.869  10
  -1   3  -7 1323.55 739.134   4
   1  -3   7 1148.14 670.126   9
   1   3   7 525.896 606.903   8
  -1  -3  -7 1519.93 693.394   5
  -1  -3  -7 662.354 574.291   4
  -1  -3  -8 25619.4 3234.64   4
   1   3   8 29739.2 3557.88   8
  -1   3  -8 32258.2 3580.27   4
   1  -3   8 30530.3 3432.61   9
  -1   4   8 16816.3 2265.02   9
  -1  -4   8 16701.5 2786.27   9
   1  -4  -8 15165.1 2394.82   4
   1   4  -8 16345.8 2617.60   6
  -1   4   8 16840.5 2417.43   8
  -1  -4   7-440.353 635.047   9
  -1   4   7-81.4810 245.180   8
   1  -4  -7 940.291 606.828   4
  -1   4   7 152.930 301.034   9
  -1  -4   7 745.259 681.085  10
   1   4  -7-57.7502 375.654   6
  -1  -4   6 34131.6 3510.30  10
  -1   4   6 32581.0 2868.36   8
   1  -4  -6 34327.8 2931.79   4
   1   4  -6 33521.4 3190.32   6
   1  -4  -6 28775.4 3128.64   1
  -1  -4   6 36534.6 3594.35   9
  -1   4   6 33978.9 2823.98   9
   1  -4  -5 3537.32 1003.59   1
  -1   4   5 4200.47 954.151   8
   1   4  -5 4623.77 1110.11   6
  -1  -4   5 4877.79 1313.59  10
   1  -4  -5 4327.92 958.751   4
  -1  -4   5 3880.28 1208.33   9
   1  -4  -5 4312.52 617.517   2
   1   4  -5 4953.57 851.983   7
  -1   4   5 4515.78 993.282   9
   1   4  -4 69493.2 2849.94   7
  -1   4   4 68545.2 3532.46   8
  -1  -4   4 69031.1 1448.55   5
   1  -4  -4 68605.9 3221.19   4
   1   4  -4 65534.5 3779.04   6
  -1  -4   4 64948.5 3996.56  10
  -1  -4   4 71053.5 1547.35   5
   1  -4  -4 67094.1 3922.72   1
  -1   4   4 71305.2 3459.51   9
   1   4  -3 52794.0 3122.94   6
  -1   4   3 59688.9 3062.52   8
  -1  -4   3 53067.6 2039.12   5
   1  -4  -3 49112.2 3042.69   1
   1   4  -3 58373.7 2523.46   7
  -1  -4   3 53459.4 3247.80  10
  -1   4   3 52968.8 2812.46   9
   1  -4  -3 56778.6 2497.34   4
  -1   4   2 37841.4 1680.02   4
  -1   4   2 36801.9 2250.35   9
  -1  -4   2 39753.9 2532.60  10
  -1   4   2 36607.9 2302.48   8
   1   4  -2 36801.0 1973.48   7
   1  -4  -2 35748.8 2376.42   1
   1   4  -2 37018.4 2451.43   6
  -1   4   1 4400.06 469.756   4
   1   4  -1 4603.21 854.882   6
  -1  -4   1 3628.76 695.324  10
  -1   4   1 2984.58 720.581   7
   1  -4  -1 4580.07 848.759   1
  -1  -4   0 20389.4 1411.77  10
  -1   4   0 20000.8 937.079   6
  -1   4   0 19039.1 1709.93   7
   1   4   0 17409.7 1566.03   8
  -1  -4   0 20048.1 1152.85   1
  -1   4  -1 979.081 250.682   6
   1  -4   1 934.174 262.709   6
  -1   4  -1 859.015 426.170   7
  -1  -4  -1 1336.68 365.971   1
   1  -4   1 797.517 398.518  10
   1   4   1 843.808 387.465   8
   1   4   2 8938.45 1263.46   8
   1  -4   2 10046.2 1400.22  10
  -1   4  -2 8823.46 1256.81   7
  -1  -4  -2 10411.2 1151.22   1
  -1   4  -2 11151.6 1024.45   6
  -1  -4  -2 9496.50 825.845   9
  -1  -4  -3 14956.1 1591.05   1
   1  -4   3 13223.3 1768.27  10
   1   4   3 13471.3 1676.08   8
  -1  -4  -3 15654.0 894.342   2
  -1   4  -3 10781.3 1446.71   7
  -1  -4  -3 14483.8 1843.46   5
  -1  -4  -3 14088.0 1025.76   9
  -1   4  -3 15089.9 1404.93   6
  -1  -4  -4 7407.61 1385.92   5
  -1   4  -4 10526.3 1549.42   7
  -1   4  -4 8744.12 1230.43   6
   1   4   4 11035.2 1627.54   8
   1  -4   4 8845.75 1561.16  10
  -1  -4  -4 10099.8 1448.14   4
   1   4   5 16221.8 1284.10   9
  -1   4  -5 16167.0 1958.46   4
   1  -4   5 15601.9 2244.99  10
  -1  -4  -5 15047.4 2010.61   5
   1   4   5 12769.4 1918.89   8
  -1  -4  -5 15640.4 1995.67   4
  -1   4  -5 15927.9 2041.40   7
   1   4   6 36683.8 3475.55   8
   1  -4   6 28871.9 3292.81  10
  -1  -4  -6 29089.7 2925.08   4
  -1  -4  -6 34330.0 3170.24   5
  -1   4  -6 34308.2 3188.27   7
  -1   4  -6 27953.4 2819.50   4
  -1  -4  -7 4142.80 1230.48   4
   1  -4   7 5161.52 1408.68   9
  -1   4  -7 5296.21 1372.25   4
   1  -4   7 3932.98 1366.30  10
  -1  -4  -7 2534.09 980.357   5
   1   4   7 6774.74 1649.05   8
   1  -4   8 26003.2 3329.12   9
  -1  -4  -8 28093.9 3397.91   4
   1   4   8 25103.7 3323.09   8
  -1   4  -8 31465.2 3581.32   4
   1  -4   8 29382.0 3823.62  10
   1   5  -8 75533.7 5659.51   6
  -1  -5   8 80372.0 6427.47  10
   1  -5  -8 72669.1 5171.06   4
  -1  -5   8 74932.4 6018.37   9
  -1  -5   7 1196.92 836.776   9
   1  -5  -7 1355.74 696.661   4
  -1   5   7 653.156 492.493   9
  -1   5   7 1542.97 740.426   8
   1   5  -7 2463.67 1059.06   6
  -1  -5   7 566.614 671.899  10
   1  -5  -7 669.489 701.590   1
  -1  -5   6 82849.0 5610.30   9
  -1   5   6 84399.2 4885.43   8
   1  -5  -6 86912.6 4660.27   4
   1   5  -6 86556.9 5279.62   6
   1  -5  -6 72758.4 5110.88   1
  -1  -5   6 83376.0 5590.46  10
  -1   5   6 88404.9 4631.11   9
   1   5  -5 7386.38 1442.61   6
   1  -5  -5 6724.18 1185.69   4
  -1   5   5 7857.69 1300.70   9
  -1   5   5 5807.21 1245.53   8
   1   5  -5 9553.45 1239.74   7
  -1  -5   5 6327.98 1463.57  10
   1  -5  -5 4931.08 1268.08   1
   1  -5  -4 92229.7 3802.97   4
  -1   5   4 91923.3 4436.44   8
  -1   5   4 88025.3 4069.90   9
  -1  -5   4 92721.4 2725.13   5
   1  -5  -4 90384.9 4779.55   1
   1   5  -4 93400.8 3727.11   7
  -1  -5   4 84392.3 4774.66  10
   1   5  -4 89645.3 4612.69   6
  -1   5   3 13174.2 1508.67   9
   1   5  -3 16822.9 1858.20   6
   1   5  -3 14427.4 1437.43   7
  -1  -5   3 16668.2 1952.64  10
   1  -5  -3 14178.1 1771.30   1
  -1   5   3 14930.6 1717.73   8
  -1   5   2 257418. 6886.51   8
   1  -5  -2 262449. 6967.57   1
   1   5  -2 268277. 6076.55   7
   1   5  -2 256294. 6828.81   6
  -1  -5   2 269659. 7079.78  10
  -1  -5   1 1360.37 495.578  10
   1  -5  -1 885.478 502.757   1
   1   5  -1 1615.22 507.073   7
  -1   5   1 1568.78 600.772   7
   1   5  -1 2382.97 700.634   6
  -1   5   1 843.082 252.233   4
  -1   5   0 121170. 2816.77   6
  -1  -5   0 127324. 3438.83   1
   1   5   0 121204. 4627.72   8
   1  -5   0 122277. 4724.39  10
  -1   5   0 125804. 4828.48   7
  -1  -5   0 123819. 4003.58  10
   1   5   0 124831. 4451.26   6
   1   5   1 10660.9 1425.80   8
  -1   5  -1 12053.2 952.713   6
  -1   5  -1 10518.8 1412.72   7
  -1  -5  -1 11983.5 1167.96   1
   1  -5   1 11697.2 1522.26  10
  -1   5  -2 633756. 8013.68   6
  -1   5  -2 625769. 11139.8   7
   1  -5   2 599154. 11579.7  10
  -1  -5  -2 601515. 9178.77   1
   1   5   2 587188. 10941.4   8
  -1  -5  -3 2864.24 769.938   1
   1  -5   3 2891.28 909.959  10
   1   5   3 3813.06 965.149   8
  -1   5  -3 3070.12 684.035   6
  -1   5  -3 4704.70 1071.50   7
  -1  -5  -3 4306.20 613.920   2
   1  -5   4 41352.8 3542.89  10
   1   5   4 44320.6 3445.78   8
  -1  -5  -4 40102.2 3382.15   5
  -1   5  -4 40056.4 3164.69   7
  -1   5  -4 38620.1 2619.38   6
  -1  -5  -4 41154.2 3091.31   1
   1  -5   5 5542.74 1411.89  10
   1   5   5 4758.64 1296.73   8
  -1  -5  -5 4282.87 1203.99   5
  -1   5  -5 5237.69 1231.78   7
  -1   5  -5 5050.38 1090.20   6
   1   5   6 149596. 7301.13   8
  -1   5  -6 145678. 6554.51   4
  -1   5  -6 166629. 7181.86   7
   1  -5   6 150393. 7773.20  10
  -1  -5  -6 150881. 6858.28   4
  -1  -5  -6 155814. 7131.21   5
   1   5   7 986.496 700.352   8
   1  -5   7 196.257 419.002  10
  -1   5  -7 726.389 354.954   4
  -1  -5  -7 2022.59 993.644   4
  -1  -5  -7 2017.96 898.819   5
  -1  -5  -8 20909.8 3018.65   4
  -1   5  -8 17006.1 2678.37   4
   1   5   8 16605.0 2803.39   8
   1  -5   8 16651.8 2809.75   9
   1  -5   8 18069.2 3146.60  10
   1   6  -8 1365.79 800.025   6
   1  -6  -8 1991.99 931.359   4
  -1   6   7 416.659 476.287   8
  -1  -6   7 1738.69 962.179   9
  -1   6   7 1809.87 744.893   9
   1  -6  -7 180.667 560.688   1
   1  -6  -7 2223.36 857.072   4
  -1  -6   7 1033.76 733.461  10
   1   6  -7 1654.46 1075.86   6
  -1  -6   6-651.590 633.515  10
  -1   6   6 705.775 512.401   9
  -1   6   6 735.170 564.528   8
   1   6  -6-71.7735 321.390   6
   1  -6  -6-168.473 509.128   1
   1  -6  -6 959.581 563.179   4
   1   6  -5 12676.4 1946.44   6
  -1  -6   5 11481.2 2003.57  10
  -1   6   5 9899.01 1697.81   8
   1   6  -5 11153.0 1462.88   7
  -1   6   5 12807.4 1752.58   9
   1  -6  -5 10677.7 1513.90   4
   1  -6  -5 10362.2 1854.77   1
   1  -6  -4 2498.84 889.015   1
  -1  -6   4 2877.63 969.463  10
   1   6  -4 2472.21 828.469   6
   1   6  -4 3897.95 852.519   7
  -1   6   4 2522.99 860.451   8
  -1   6   3 2277.21 782.675   8
  -1  -6   3 3370.39 985.409  10
   1   6  -3 2218.87 696.708   7
   1  -6  -3 3120.35 988.662   1
   1   6  -3 2805.30 851.203   6
   1  -6  -2 34287.3 2741.80   1
  -1  -6   2 32893.4 2668.67  10
  -1   6   2 33887.7 2823.68   7
   1   6  -2 33727.3 2422.99   7
   1   6  -2 33605.7 2622.54   6
  -1   6   2 29456.2 2572.29   8
   1   6  -1 12407.3 1563.49   6
  -1  -6   1 12549.0 1527.25  10
  -1   6   1 12866.8 1734.31   7
   1   6  -1 13245.8 1562.44   7
   1  -6  -1 12247.3 1596.86   1
  -1   6   0 635.584 299.852   6
   1   6   0 19.3040 300.429   8
  -1   6   0 507.122 474.804   7
   1   6   0 453.859 386.903   6
  -1  -6   0 352.524 335.096   1
   1  -6   0-373.097 352.882  10
  -1  -6   0 85.6297 273.914  10
  -1   6  -1 498.536 445.165   7
  -1   6  -1 317.770 199.071   6
   1   6   1 338.644 519.471   8
   1  -6   1 515.454 402.297  10
  -1  -6  -1 176.257 285.939   1
  -1  -6  -1-140.751 204.504  10
  -1   6  -2 18125.3 2063.02   7
  -1  -6  -2 19963.7 1820.54   1
   1   6   2 20176.0 2205.01   8
   1  -6   2 20320.3 2303.53  10
  -1   6  -2 18537.3 1459.64   6
   1  -6   3 214.053 582.733  10
   1   6   3 617.806 627.221   8
  -1   6  -3 241.826 320.575   6
  -1  -6  -3-125.439 301.115   1
  -1   6  -3 76.4027 341.375   7
   1  -6   4 3022.39 1017.34  10
   1   6   4 1385.53 692.190   8
  -1   6  -4 2004.19 666.371   6
  -1   6  -4 1776.17 721.430   7
  -1  -6  -4 2062.17 860.121   5
  -1  -6  -4 2004.04 771.926   1
   1   6   5 574.461 549.537   8
   1  -6   5 155.732 388.578  10
  -1  -6  -5 287.282 507.532   1
  -1   6  -5 55.4174 342.800   7
  -1  -6  -5 157.345 519.087   5
  -1   6  -5 355.150 384.126   6
  -1   6  -6 3734.30 1088.64   4
   1   6   6 4257.93 1366.64   8
  -1   6  -6 7798.62 1638.20   7
  -1  -6  -6 4901.26 1393.92   5
   1  -6   6 3567.08 1300.29  10
  -1   6  -7 11317.5 2085.98   7
  -1   6  -7 8895.10 1824.56   4
   1   6   7 6243.25 1642.54   8
   1  -6   7 10211.6 2228.85  10
  -1  -6  -7 9766.65 1992.59   5
  -1   6  -8 1572.76 914.915   4
   1  -6   8 4364.04 1409.82   9
   1   7  -7 4646.53 1432.05   6
  -1   7   7 3930.14 1346.37   8
   1  -7  -7 3722.50 1501.25   1
  -1  -7   7 6187.67 1830.59   9
  -1  -7   7 4466.11 1735.52  10
  -1  -7   6 30333.3 3614.33  10
   1   7  -6 35746.2 3561.95   6
   1  -7  -6 36072.7 3845.94   1
  -1   7   6 34522.8 3546.84   8
   1   7  -5-173.544 410.362   6
   1  -7  -5 631.011 633.773   1
  -1   7   5 913.891 552.825   8
  -1  -7   5 787.577 683.739  10
   1   7  -4 74447.5 4003.97   7
   1  -7  -4 70194.5 4666.47   1
   1   7  -4 77475.6 4635.66   6
  -1  -7   4 80173.4 5136.91  10
  -1   7   4 79743.4 4882.18   8
   1  -7  -3 4056.04 1106.84   1
  -1   7   3 4289.97 1186.44   8
   1   7  -3 5103.76 1169.99   6
   1   7  -3 3968.62 941.739   7
  -1  -7   3 3264.18 1003.70  10
   1  -7  -2 128126. 5661.79   1
  -1  -7   2 138402. 5887.91  10
   1   7  -2 143176. 5509.33   7
  -1   7   2 135502. 6156.66   7
   1   7  -2 137780. 5630.75   6
   1  -7  -1 601.776 505.583   1
  -1   7   1 335.050 494.099   7
   1   7  -1 227.212 359.342   6
   1   7  -1 990.271 495.083   7
  -1   7   1 108.890 171.623   6
  -1  -7   1 985.213 545.524  10
   1   7   0 117186. 4959.43   6
  -1  -7   0 119361. 4243.32   1
  -1  -7   0 121503. 4898.04  10
   1  -7   0 120238. 5477.86  10
  -1   7   0 114735. 3501.95   6
  -1   7   0 112016. 5424.27   7
   1   7   0 114189. 5488.60   8
  -1  -7  -1 50827.7 3109.35  10
   1  -7   1 52014.8 3724.32  10
   1   7   1 49888.0 3653.95   8
  -1  -7  -1 44819.1 2700.52   1
  -1   7  -1 45490.1 2266.85   6
  -1   7  -1 53701.8 3757.88   7
  -1   7  -2 129786. 5907.71   7
   1   7   2 123982. 5955.60   8
  -1  -7  -2 133016. 4995.91   1
   1  -7   2 132261. 6287.56  10
  -1   7  -2 142656. 4315.04   6
   1   7   3 34674.8 3274.38   8
  -1   7  -3 36447.6 2448.81   6
   1  -7   3 38213.7 3595.16  10
  -1   7  -3 37483.0 3281.07   7
  -1  -7  -3 38623.1 2964.23   1
   1   7   4 138524. 6835.42   8
  -1   7  -4 148738. 5436.63   6
  -1  -7  -4 140456. 7158.91   5
   1  -7   4 147961. 7449.87  10
  -1  -7  -4 138252. 6108.16   1
  -1   7  -4 157918. 6953.95   7
   1   7   5 9144.17 1846.13   8
  -1  -7  -5 7683.75 1845.41   5
   1  -7   5 7647.86 1803.07  10
  -1   7  -5 7097.81 1565.56   7
  -1   7  -5 8498.03 1441.06   6
  -1  -7  -5 7492.79 1621.95   1
  -1  -7  -6 58558.9 4974.13   5
   1  -7   6 53251.9 4996.29  10
  -1   7  -6 58879.8 4615.40   7
   1   7   6 57659.2 4942.31   8
  -1  -7  -7 6036.38 1691.26   5
   1   7   7 4479.27 1528.61   8
  -1   7  -7 5839.79 1537.57   4
  -1   8   7 4271.55 1421.47   8
   1   8  -7 7484.01 1792.17   6
   1  -8  -6 1956.05 945.778   1
  -1   8   6 5619.03 1523.20   8
   1   8  -6 4244.19 1328.82   6
  -1  -8   6 4535.02 1509.44  10
   1   8  -5 7443.18 1634.33   6
  -1   8   5 9794.24 1960.30   8
   1  -8  -5 8399.23 1872.09   1
  -1  -8   5 10234.2 2046.85  10
  -1  -8   4 7500.33 1702.36  10
   1   8  -4 8915.32 1662.87   6
   1   8  -4 7599.29 1379.58   7
   1  -8  -4 4483.99 1321.64   1
  -1   8   4 7635.68 1668.36   8
   1   8  -3 55316.1 3696.34   7
  -1   8   3 51813.1 4173.35   8
   1  -8  -3 43497.2 3695.15   1
  -1  -8   3 48049.3 3921.82  10
  -1   8   3 51822.3 4196.97   7
   1   8  -3 48614.4 3649.64   6
   1   8  -2 5063.40 1208.91   6
  -1   8   2 5872.80 1403.31   7
   1   8  -2 9124.84 1555.94   7
  -1  -8   2 7297.63 1475.14  10
   1  -8  -2 6452.93 1439.27   1
  -1  -8   1 13165.9 1577.37   1
   1  -8  -1 9534.89 1653.80   1
  -1  -8   1 10608.8 1690.19  10
   1   8  -1 12268.1 1752.14   6
  -1   8   1 12355.4 2011.71   7
   1  -8  -1 11608.1 1833.13  10
   1   8  -1 12625.5 1849.68   7
   1  -8   0 3057.58 981.882  10
   1   8   0 3279.46 1050.48   7
  -1  -8   0 3195.16 897.423  10
   1   8   0 2705.19 875.257   6
  -1  -8   0 2355.12 687.201   1
  -1   8   0 1750.02 798.728   7
   1  -8   0 2071.41 796.102   1
   1   8   1 2416.76 844.078   6
   1  -8   1 2606.05 907.068  10
   1   8   1 1754.55 807.989   8
  -1   8  -1 1444.15 726.467   7
  -1  -8  -1 884.538 589.624  10
  -1  -8  -1 1716.84 628.059   1
  -1  -8  -2 5593.34 1161.48  10
   1   8   2 2085.12 932.243   8
  -1   8  -2 4123.87 1173.75   7
  -1  -8  -2 4072.45 994.085   1
   1  -8   2 4171.39 1263.66  10
   1   8   3 558.498 673.774   8
   1  -8   3 284.271 452.857  10
  -1  -8  -3-145.248 368.035   1
  -1   8  -3-84.9958 354.847   7
   1  -8   4 812.498 671.452  10
   1   8   4-267.718 563.001   8
  -1  -8  -4-163.968 416.799   1
  -1   8  -4-600.817 594.256   7
  -1  -8  -4 1300.10 863.747   5
  -1  -8  -5 13643.5 2227.46   1
   1   8   5 16642.6 2665.96   8
  -1   8  -5 14718.5 2344.06   7
   1  -8   5 17109.8 2838.78  10
  -1  -8  -5 16202.6 2729.42   5
   1   8   6 8044.75 2031.56   8
  -1  -8  -6 6330.64 1790.44   5
   1  -8   6 10076.9 2334.11  10
  -1   8  -6 10100.2 2040.74   7
  -1   9   6 60985.6 5302.56   8
   1  -9  -6 66855.9 5663.30   1
   1   9  -6 56050.3 4731.84   6
   1   9  -5 12.2636 328.996   6
  -1   9   5 1007.17 745.576   8
   1  -9  -5 394.410 673.742   1
  -1  -9   5 705.027 696.682  10
  -1   9   4 104358. 6485.03   8
   1  -9  -4 100129. 6159.35   1
  -1   9   4 112478. 6908.58   7
  -1  -9   4 103340. 6410.81  10
   1   9  -4 104799. 5826.96   6
  -1   9   3 2125.83 990.624   7
   1   9  -3 1274.01 672.394   6
  -1  -9   3 1141.89 737.040  10
   1  -9  -3 21.6509 548.737   1
   1   9  -3 1188.91 658.324   7
   1   9  -2 77602.3 4772.61   7
  -1  -9   2 69857.7 4779.73  10
   1   9  -2 81086.8 4777.46   6
   1  -9  -2 64828.1 4646.67   1
  -1   9   2 67617.3 5053.60   7
   1  -9  -1 16462.9 2293.65   1
  -1  -9   1 24176.9 2263.34   1
   1   9  -1 17648.6 2368.60   7
  -1  -9   1 23123.6 2622.15  10
  -1   9   1 27287.8 3163.89   7
   1  -9  -1 21059.2 2661.67  10
   1   9  -1 20775.9 2401.63   6
   1  -9   0 182471. 7809.53  10
   1  -9   0 167842. 7231.10   1
  -1  -9   0 179632. 6188.86   1
  -1   9   0 196498. 8291.19   7
   1   9   0 178703. 7597.61   7
  -1  -9   0 191687. 7297.88  10
   1   9   0 178943. 6935.29   6
  -1  -9  -1 13199.8 1900.07  10
   1  -9   1 10855.4 1973.19  10
   1   9   1 10120.8 2015.43   8
  -1   9  -1 13786.0 2214.17   7
   1   9   1 15282.2 2073.22   6
  -1  -9  -1 13441.9 1757.76   1
  -1  -9  -2 8792.81 1566.42  10
   1   9   2 7920.38 1819.47   8
  -1   9  -2 5291.98 1427.28   7
   1  -9   2 6711.51 1626.62  10
  -1  -9  -2 4639.12 1091.71   1
  -1   9  -3 24454.3 2989.78   7
   1   9   3 27248.9 3341.45   8
  -1  -9  -3 30941.0 2940.91   1
   1  -9   3 28337.9 3436.81  10
  -1  -9  -4 123568. 7591.37   5
  -1   9  -4 124698. 6850.90   7
   1  -9   4 124641. 7541.92  10
   1   9   4 129436. 7473.42   8
  -1  -9  -5 4793.02 1615.97   5
   1   9   5 2940.87 1214.55   8
  -1   9  -5 3855.73 1249.02   7
   1  -9   5 3610.85 1393.71  10
  -1  10   5 5952.08 1737.78   8
  -1 -10   5 5515.94 1652.25  10
   1 -10  -5 5298.82 1677.47   1
   1  10  -4 14873.1 2292.13   6
  -1  10   4 19273.2 3041.61   7
  -1 -10   4 11861.1 2301.81  10
   1 -10  -4 18144.0 2821.50   1
  -1  10   3 5626.92 1622.98   7
   1 -10  -3 5010.13 1496.18   1
   1  10  -3 7591.06 1776.92   6
   1  10  -3 7810.40 1655.31   7
  -1 -10   3 3504.96 1134.12  10
   1 -10  -2 16799.4 2535.67  10
   1  10  -2 17219.5 2441.98   7
   1  10  -2 17014.0 2294.14   6
   1 -10  -2 17506.0 2560.37   1
  -1  10   2 13877.5 2486.08   7
  -1 -10   2 17724.2 2572.14  10
   1 -10  -1 180.104 474.663   1
  -1  10   1 1362.15 810.248   7
   1  10  -1 880.917 653.502   7
  -1 -10   1 746.170 589.338  10
   1  10  -1 408.984 441.474   6
   1 -10  -1 1522.71 810.287  10
   1  10   0 3602.37 1203.22   7
   1 -10   0 3899.54 1265.16   1
   1 -10   0 2490.07 1058.04  10
  -1 -10   0 4196.37 1174.90  10
  -1  10   0 4993.27 1447.38   7
   1  10   0 4576.32 1176.55   6
   1 -10   1-244.350 376.995  10
   1  10   1-55.8935 311.485   6
   1  10   1 355.036 525.768   7
  -1  10  -1 317.247 574.161   7
  -1 -10  -1-386.082 442.178  10
  -1 -10  -2 1379.94 704.527  10
   1 -10   2 1181.71 881.158  10
   1  10   2 1049.93 764.311   8
  -1  10  -2 1229.04 604.500   7
   1  10   2 1004.91 653.232   6
   1  10   3 1318.17 865.519   8
  -1 -10  -3 2091.56 858.297  10
  -1  10  -3 1501.71 877.189   7
   1 -10   3 2719.24 1230.54  10
   1  10   4 863.375 760.742   8
  -1  10  -4-22.8811 413.017   7
   1 -10   4 1564.10 931.420  10
  -1  10  -5 11523.9 2253.88   7
   1 -11  -4 29864.1 3759.64   1
   1 -11  -3 1307.15 906.783   1
  -1 -11   3 834.587 686.116  10
   1 -11  -3 2415.65 1058.72  10
   1 -11  -2 106616. 6654.30   1
   1  11  -2 106157. 6419.86   7
  -1 -11   2 103617. 6573.67  10
  -1  11   2 122240. 7708.01   7
   1 -11  -2 116645. 7082.09  10
   1 -11  -1 10042.5 2090.48   1
  -1 -11   1 10261.3 2008.53  10
   1 -11  -1 12480.8 2327.66  10
  -1  11   1 15468.6 2760.38   7
   1  11  -1 7594.73 1794.06   7
   1 -11   0 11812.3 2150.31   1
  -1  11   0 13819.6 2503.39   7
   1  11   0 11359.8 2239.51   7
  -1 -11   0 17302.0 2579.75  10
   1 -11   0 14419.0 2526.51  10
   1 -11   1-719.383 679.061   1
  -1  11  -1 916.438 786.377   7
   1  11   1-1191.41 819.018   7
  -1 -11  -1 159.479 350.519  10
   1 -11   1 706.664 651.323  10
  -1  11  -2 131867. 7638.57   7
   1  11   2 138666. 8091.56   7
   1 -11   2 123428. 7660.36  10
  -1  11  -3 578.913 639.133   7
  -1 -12   2 6.37000 348.119  10
   1  12  -2 1117.60 811.153   7
   1 -12  -1 2402.35 1164.03   1
  -1 -12   1 148.542 298.641  10
   1  12  -1 3475.65 1293.83   7
   1 -12   0-786.480 750.178   1
   1 -12   1 54.4952 628.505   1
   2   0  -9 858.372 707.208   4
  -2   0   9 475.737 553.870   9
  -2   0   8 55664.1 4581.37   9
   2   0  -8 51937.6 4448.72   4
  -2   0   7 1161.75 676.804   9
   2   0  -7 481.148 499.012   6
  -2   0   6 209941. 7652.23   9
   2   0  -6 209053. 7534.24   6
  -2   0   6 204268. 5325.09   8
  -2   0   5-316.998 385.754   9
  -2   0   5 0.67515 140.340   8
   2   0  -5-537.878 452.407   6
  -2   0   4 357205. 4620.56   8
   2   0  -4 335898. 5118.45   5
   2   0  -4 336414. 7276.07   2
   2   0  -4 342713. 7914.02   6
   2   0  -4 348840. 7869.82   1
  -2   0   4 350277. 8233.47   9
   2   0  -3 50.8327 218.865   1
   2   0  -3 198.807 176.558   5
  -2   0   3 434.715 312.160   9
   2   0  -3 503.336 306.943   6
   2   0  -3 325.436 134.800   3
  -2   0   3 127.881 88.0388   7
   2   0  -3 311.076 352.865   2
   2   0  -2 11535.3 1240.83   2
   2   0  -2 15340.5 1190.94   1
  -2   0   2 14493.8 759.342   7
   2   0  -2 13909.7 1284.55   6
  -2   0   2 13360.6 1301.34   9
   2   0  -1 166.375 94.7680   8
   2   0  -1 447.907 236.342   1
  -2   0   1 547.355 259.020   9
  -2   0   1 125.843 296.872   5
  -2   0   1 441.373 194.213   7
  -2   0   1 150.108 168.092   6
   2   0  -1 293.731 185.789   7
   2   0  -1 128.242 187.471   6
   2   0   0 593372. 6229.38   9
  -2   0   0 565316. 7869.47   5
  -2   0   0 575551. 7142.23   7
   2   0   0 601514. 7433.65   7
  -2   0   0 575622. 6177.89   9
   2   0   1 2.46011 80.8557   9
   2   0   1-48.6669 128.488  10
  -2   0  -1 258.918 367.257   5
  -2   0  -1 466.339 347.654   7
   2   0   2 1687.64 397.658  10
  -2   0  -2 2705.22 576.562   4
  -2   0  -2 1997.46 607.749   5
   2   0   2 3382.05 429.035   9
  -2   0  -3 400.049 415.121   5
  -2   0  -3 235.463 290.472   4
   2   0   3 99.0491 189.936  10
   2   0   4 659466. 12054.3   8
  -2   0  -4 668209. 10793.8   5
   2   0   4 661819. 10600.7  10
  -2   0  -4 664972. 11222.2   4
  -2   0  -5 720.028 581.721   4
   2   0   5 77.7152 203.537   9
   2   0   5-16.2438 359.167   8
  -2   0  -5 434.205 413.519   5
  -2   0  -6 7466.78 1492.34   4
   2   0   6 6270.14 1425.90   8
  -2   0  -6 6200.14 1150.96   5
  -2   0  -7 340.673 460.777   4
   2   0   7 508.444 551.332   8
   2   0   8 138859. 7764.65   8
  -2   0  -8 142649. 7623.40   4
  -2   1   9-1088.04 792.303   9
  -2  -1   9 471.255 560.006   9
   2   1  -9 1657.33 998.577   4
   2  -1  -9 276.327 535.346   4
  -2  -1   8 40190.9 3990.80   9
   2   1  -8 37857.8 3841.96   4
   2   1  -8 32848.0 3598.17   6
   2  -1  -8 36570.2 3675.96   4
  -2   1   8 31167.2 3354.47   9
  -2   1   7 294.618 394.174   9
  -2  -1   7-275.065 506.539   9
   2  -1  -7 461.071 491.090   4
   2   1  -7 755.475 464.108   6
   2  -1  -6 55401.8 3722.87   4
  -2   1   6 50132.4 2707.74   8
  -2  -1   6 50069.5 2691.72   8
   2   1  -6 45258.6 3613.01   6
   2  -1  -6 47748.2 3555.80   6
  -2  -1   6 48647.0 3846.25   9
  -2   1   6 47469.1 3539.24   9
  -2   1   5 9165.10 1458.85   9
  -2  -1   5 12836.0 1847.81   9
  -2   1   5 8727.79 977.631   8
  -2  -1   5 7891.54 925.559   8
   2  -1  -5 9840.92 1460.81   6
   2  -1  -5 9415.10 1526.49   1
   2   1  -5 11733.3 1703.03   6
   2  -1  -5 8786.36 1235.24   2
  -2  -1   4 114354. 4918.23   9
  -2   1   4 113064. 2830.79   8
   2   1  -4 110709. 2515.80   5
   2   1  -4 114362. 4742.12   6
   2  -1  -4 104948. 3896.41   2
   2  -1  -4 105759. 4440.74   1
   2  -1  -4 108502. 4311.92   6
  -2   1   4 102218. 4361.80   9
  -2  -1   3 30810.4 2304.07   9
  -2  -1   3 31794.8 1077.11   8
  -2   1   3 31366.2 1126.15   8
   2  -1  -3 34280.3 2110.42   6
   2   1  -3 31912.4 1529.67   5
   2   1  -3 33543.5 2067.66   1
  -2   1   3 34078.3 1578.92   7
   2  -1  -3 29201.4 2057.79   1
   2   1  -3 32292.5 2259.11   2
   2  -1  -3 31660.0 2025.62   2
   2   1  -3 29886.8 2215.30   6
  -2   1   3 30670.8 2177.65   9
  -2  -1   2 70059.9 3042.06   9
  -2  -1   2 70689.9 2463.25   5
   2   1  -2 72830.5 2513.58   5
  -2  -1   2 72649.7 2330.19   1
   2  -1  -2 73757.2 2232.56   3
   2  -1  -2 69227.2 2800.91   1
  -2   1   2 68429.8 2184.27   7
   2  -1  -2 65853.9 1321.50   8
   2   1  -2 73254.1 3211.30   2
   2   1  -2 71626.1 2351.30   1
   2  -1  -2 67852.3 2525.22   6
   2   1  -2 68002.7 3065.58   6
  -2   1   2 68548.5 2872.38   9
   2   1  -1 9238.39 617.957   8
  -2  -1   1 9316.21 645.106   8
  -2  -1   1 9642.88 994.158   5
   2  -1  -1 9765.58 833.114   6
   2   1  -1 10497.0 774.288   7
   2   1  -1 9875.78 652.110   1
  -2   1   1 9639.93 891.657   7
   2  -1  -1 9289.09 927.787   1
   2  -1  -1 10514.2 960.007   7
   2   1  -1 10003.2 1120.40   2
  -2  -1   1 10619.1 995.443   9
   2   1  -1 10434.4 812.850  10
   2   1  -1 8400.00 1001.68   6
  -2   1   1 9370.54 804.625   6
  -2   1   1 8156.55 904.726   9
   2   1   0 187205. 3502.67   9
  -2   1   0 176197. 4461.41   5
   2   1   0 175962. 3511.59   8
  -2  -1   0 171794. 4533.33   5
   2   1   0 191645. 4237.16   7
  -2   1   0 177348. 4228.52   7
   2   1   0 179860. 4341.63   2
   2  -1   0 176151. 2983.58   4
  -2   1   0 176728. 3834.49   9
  -2  -1   0 171821. 3156.33   9
   2  -1   1 2622.92 498.374  10
   2  -1   1 2031.96 422.119   9
   2   1   1 2882.27 325.601   9
   2   1   1 2683.30 568.540   8
  -2   1  -1 2847.47 619.463   5
  -2  -1  -1 3967.47 777.668   5
  -2   1  -1 3298.95 687.356   7
   2  -1   1 3202.83 486.626   4
  -2  -1  -1 2099.43 265.038   9
  -2   1  -2 4949.48 726.896   4
  -2   1  -2 3606.12 732.366   5
   2   1   2 3522.11 734.394   8
  -2   1  -2 3768.00 812.081   7
  -2  -1  -2 3461.60 777.331   5
   2  -1   2 4339.15 731.413  10
  -2  -1  -2 4651.13 560.243  10
  -2   1  -3 7794.99 1118.24   5
   2   1   3 8931.69 1308.00   8
  -2   1  -3 10251.6 1442.85   7
   2  -1   3 8516.28 1160.69  10
  -2  -1  -3 6722.25 1152.77   5
   2   1   3 8881.50 573.785   9
  -2  -1  -3 11532.5 1374.56   4
  -2   1  -3 8212.04 1112.30   4
   2   1   4 1598.93 353.087   9
  -2   1  -4 1930.69 664.456   4
  -2  -1  -4 1225.99 530.570   4
   2   1   4 2334.37 741.793   8
  -2   1  -4 2120.87 653.415   5
  -2  -1  -4 1730.53 633.096   5
   2  -1   4 2081.11 682.798  10
  -2   1  -5 18156.7 2056.25   4
  -2   1  -5 21495.8 1960.58   5
   2   1   5 18301.0 2231.85   8
  -2  -1  -5 18908.1 2145.40   4
  -2  -1  -5 18156.5 1969.04   5
   2   1   5 20656.0 1371.14   9
   2  -1   5 19724.6 2180.95  10
  -2   1  -6 571.826 479.567   4
   2  -1   6 951.680 476.973   9
   2   1   6 1148.19 692.655   8
  -2  -1  -6 201.977 382.284   4
  -2   1  -6 1663.26 638.075   5
  -2  -1  -6 620.734 499.822   5
   2  -1   6 2222.50 835.074  10
   2  -1   6 443.377 447.789   3
  -2  -1  -7-233.141 339.330   4
  -2   1  -7 1663.09 786.923   4
   2   1   7 205.356 454.762   8
   2  -1   7 522.699 636.252   8
   2  -1   7 310.069 526.234   3
   2   1   8 34287.9 3843.55   8
   2  -1   8 27281.4 3504.40   8
  -2   1  -8 34400.4 3766.11   4
  -2  -1  -8 31745.3 3639.68   4
   2  -2  -9 1025.16 757.089   4
  -2  -2   9-146.949 477.153   9
  -2   2   9 376.057 506.587   9
  -2  -2   8 96450.5 6408.15   9
   2  -2  -8 92040.8 5769.60   4
   2   2  -8 92015.3 6123.93   6
  -2   2   8 85721.7 5483.52   9
  -2   2   7 1084.70 634.822   9
  -2  -2   7 732.896 705.291   9
   2  -2  -7 879.017 562.474   4
   2   2  -7 979.218 640.732   6
   2  -2  -6 89843.6 4666.45   4
  -2  -2   6 80876.5 5123.36   9
  -2   2   6 87355.2 3732.87   8
   2   2  -6 84753.4 5088.91   6
   2  -2  -6 85515.4 5127.91   1
  -2   2   6 84212.6 4681.41   9
  -2  -2   5 17395.7 2200.05   9
   2  -2  -5 11750.3 1743.27   1
  -2   2   5 14586.7 1358.22   8
   2  -2  -5 15540.3 1542.90   2
   2   2  -5 11347.3 1733.82   6
   2  -2  -5 15370.3 1723.88   4
  -2   2   5 12828.8 1716.95   9
   2   2  -4 166094. 5982.84   6
  -2   2   4 168114. 5640.83   9
   2  -2  -4 162414. 5108.91   6
  -2   2   4 162230. 3913.12   8
  -2  -2   4 160671. 6140.44   9
   2  -2  -4 163030. 4702.57   2
   2  -2  -4 156173. 5602.75   1
   2  -2  -3 6685.11 1069.20   1
  -2  -2   3 6521.94 1141.35   9
  -2  -2   3 9384.95 802.172   8
  -2  -2   3 8611.09 780.742   5
   2   2  -3 9527.48 858.513   5
  -2   2   3 7301.48 920.844   7
   2   2  -3 9234.94 1322.22   6
  -2   2   3 7910.10 784.470   8
  -2   2   3 10600.4 1308.83   9
   2  -2  -3 8037.07 735.226   8
   2  -2  -3 7544.78 959.596   6
  -2  -2   2 451649. 5113.76   8
   2   2  -2 440058. 8347.00   6
  -2  -2   2 456440. 6507.50   5
   2  -2  -2 455082. 7792.55   1
   2   2  -2 472100. 6750.34   5
   2   2  -2 438623. 3571.11   7
  -2  -2   2 450679. 8094.90   9
  -2  -2   2 448940. 7158.29  10
  -2  -2   2 446094. 5368.20   1
  -2   2   2 446682. 6768.20   7
   2  -2  -2 427498. 5867.85   6
  -2   2   2 458649. 6138.83   6
   2  -2  -2 452905. 5397.80   8
  -2   2   2 449410. 7746.52   9
  -2  -2   1 102046. 3285.03   9
   2  -2  -1 94056.9 2060.72   6
   2  -2  -1 103632. 3518.31   1
   2   2  -1 97938.9 2611.23   8
  -2  -2   1 100876. 2674.11   8
   2   2  -1 98688.4 2595.53  10
  -2  -2   1 100970. 3433.98   5
   2  -2  -1 97488.7 3184.32   3
  -2   2   1 97405.1 3225.02   7
  -2  -2   1 101178. 2578.73  10
   2   2  -1 96449.5 3637.80   2
   2   2  -1 100496. 3734.77   6
  -2   2   1 103525. 2214.23   6
  -2   2   1 103110. 3416.83   9
  -2  -2   0 151061. 3156.08   9
   2   2   0 146645. 3623.55   8
  -2  -2   0 147846. 4536.23   5
   2  -2   0 146511. 4208.10   3
  -2   2   0 154997. 4329.36   7
   2  -2   0 142530. 2047.55   4
   2  -2   0 144740. 2201.90   6
   2   2   0 139965. 4138.64   2
   2   2   1 127502. 2804.78   1
  -2   2  -1 127015. 4098.16   5
  -2  -2  -1 124497. 4416.34   5
  -2   2  -1 122694. 4198.56   7
   2  -2   1 132614. 3969.87  10
   2   2   1 123234. 3805.45   8
  -2  -2  -1 123746. 1655.28   9
   2   2   1 128600. 3661.53   2
  -2   2  -1 121520. 2687.44   4
   2  -2   1 128464. 4198.74   3
  -2   2  -2 644349. 9431.81   5
   2   2   2 606897. 9617.76   8
   2  -2   2 607676. 9779.68   3
  -2  -2  -2 602516. 10443.2   5
  -2   2  -2 616806. 10265.8   7
  -2  -2  -2 634374. 6108.18  10
   2   2   2 633609. 7469.96   2
  -2   2  -2 632289. 7753.02   4
   2  -2   2 622079. 9636.27  10
   2  -2   3 2216.45 688.628  10
  -2   2  -3 2589.83 629.996   4
   2   2   3 2634.06 452.008   2
   2   2   3 2509.49 745.039   8
  -2   2  -3 2891.36 710.620   5
   2  -2   3 2285.91 686.449   3
  -2   2  -3 2578.86 764.892   7
  -2  -2  -3 2700.57 786.101   4
  -2  -2  -3 3225.28 855.167   5
  -2   2  -4 80554.6 3571.85   5
   2   2   4 73992.9 4150.51   8
   2  -2   4 77195.1 3887.91   3
  -2  -2  -4 80595.6 4211.70   5
  -2   2  -4 75387.8 3688.71   4
  -2   2  -4 73531.6 4232.42   7
  -2  -2  -4 73177.3 3957.04   4
   2  -2   4 78660.3 4193.76  10
  -2  -2  -5 377.308 529.169   4
   2  -2   5 1491.09 688.847  10
  -2   2  -5 1648.87 683.045   4
   2   2   5 1119.05 606.570   8
  -2   2  -5 890.500 439.923   5
   2  -2   5 1096.81 571.887   3
  -2  -2  -5 1055.44 597.858   5
   2   2   6 190032. 7842.91   8
  -2  -2  -6 191830. 7016.31   5
   2  -2   6 189687. 6756.05   3
  -2   2  -6 199988. 7519.19   4
   2  -2   6 206557. 8074.05  10
  -2  -2  -6 185783. 7480.43   4
  -2  -2  -7 850.782 633.540   4
  -2   2  -7 435.806 516.539   4
   2   2   7 775.244 628.086   8
   2  -2   7-469.390 459.113   3
  -2  -2  -7 1148.30 855.619   5
   2  -2   7 240.118 438.308  10
   2   2   8 25226.0 3348.89   8
   2  -2   8 25237.8 3376.93   8
  -2  -2  -8 36597.1 3951.90   4
  -2   2  -8 33865.6 3715.16   4
   2  -3  -9 2800.70 1121.67   4
  -2   3   9 1971.55 919.028   9
  -2   3   8 985.579 619.245   9
  -2  -3   8 1672.69 955.156   9
   2  -3  -8 1509.78 802.582   4
   2   3  -8 2122.92 982.297   6
  -2   3   7 500.694 459.411   9
  -2  -3   7 411.898 495.256   9
   2  -3  -7 876.228 545.619   4
   2  -3  -7-525.688 616.392   1
   2   3  -7 295.827 330.242   6
   2   3  -6 833.868 580.390   6
  -2   3   6 1115.70 617.212   9
  -2  -3   6 993.482 770.455   9
   2  -3  -6 338.657 390.984   4
  -2   3   6 711.061 408.367   8
   2  -3  -6-6.62508 405.405   1
   2  -3  -5 547.559 646.895   1
   2   3  -5 282.349 438.473   6
  -2   3   5 329.979 345.636   9
  -2  -3   5 433.099 511.813   9
   2  -3  -5 469.243 390.667   4
  -2   3   5 470.827 316.877   8
  -2  -3   5 856.245 567.442  10
   2  -3  -5-2.00594 286.717   2
   2   3  -4 3991.57 1006.74   6
  -2   3   4 4083.50 947.214   9
  -2   3   4 5797.97 891.421   8
  -2  -3   4 5484.55 489.535   5
   2  -3  -4 4758.92 823.254   4
   2  -3  -4 6333.48 1220.69   1
  -2  -3   4 4089.40 999.830  10
  -2  -3   4 4060.06 1023.98   9
   2   3  -3 8995.90 1363.43   6
  -2  -3   3 8156.66 1317.69   9
  -2   3   3 7196.43 919.113   8
   2   3  -3 8248.90 510.419   7
  -2   3   3 8413.83 1122.15   7
  -2  -3   3 8357.93 857.965   5
  -2  -3   3 7916.02 1191.22  10
   2  -3  -3 7551.67 1215.26   1
   2  -3  -3 8445.74 906.058   4
  -2   3   3 9013.72 1272.61   9
  -2   3   2 1382.40 321.084   6
  -2   3   2 1565.89 530.491   9
   2   3  -2 2870.70 771.153   6
  -2  -3   2 2257.32 718.481   9
   2  -3  -2 2372.51 354.860   4
   2  -3  -2 2153.74 613.687   1
  -2  -3   2 1838.51 376.258   1
  -2  -3   2 2143.57 550.567   5
  -2   3   2 2026.15 587.085   7
  -2  -3   2 1701.09 492.165  10
   2   3  -1 2944.97 710.901   6
  -2  -3   1 2457.50 592.099   9
   2   3  -1 3443.85 612.824   8
  -2  -3   1 2419.90 476.435  10
  -2   3   1 3237.28 674.948   9
  -2  -3   1 3554.75 737.253   5
   2  -3  -1 4037.94 800.194   1
  -2   3   1 3406.72 727.696   7
   2   3  -1 3473.14 552.129  10
  -2   3   1 3443.66 314.263   6
   2   3   0 12102.5 1197.47   8
  -2  -3   0 13554.6 1504.29   5
   2  -3   0 10911.8 1280.10   3
  -2   3   0 12725.4 1420.83   7
  -2  -3   0 12051.5 1051.17   9
  -2  -3   0 12230.3 769.436  10
   2   3   1 5065.91 867.885   8
   2   3   1 4900.37 508.921   1
   2  -3   1 5114.83 939.607   3
  -2   3  -1 4761.69 928.215   7
  -2  -3  -1 4646.18 1008.90   5
  -2  -3  -1 5190.85 418.740  10
  -2  -3  -1 4882.73 468.199   9
   2  -3   1 4927.75 446.379   6
  -2   3  -1 5206.58 517.353   4
   2  -3   1 6533.79 996.351  10
   2  -3   2 2252.52 436.119   6
  -2   3  -2 1573.29 378.537   4
   2   3   2 1950.52 676.464   8
   2  -3   2 2447.17 707.810   3
  -2   3  -2 2547.23 704.757   7
  -2  -3  -2 1668.22 665.057   5
  -2  -3  -2 1907.21 363.085  10
   2  -3   2 2179.88 681.092  10
  -2   3  -3 2657.19 662.327   4
   2   3   3 2993.85 867.298   8
   2  -3   3 1624.89 676.004   3
  -2   3  -3 1359.60 598.046   7
  -2  -3  -3 2939.53 878.888   5
   2  -3   3 2444.12 761.956  10
  -2   3  -4 2960.39 778.753   4
   2   3   4 2494.24 839.614   8
   2  -3   4 2657.89 817.131   3
  -2   3  -4 2662.85 884.919   7
  -2  -3  -4 3477.31 1042.99   5
  -2  -3  -4 1766.31 715.991   4
   2  -3   4 2331.10 857.115  10
  -2  -3  -5 3707.13 1068.74   4
  -2   3  -5 5360.85 1138.19   4
   2   3   5 4541.04 1203.66   8
   2  -3   5 4706.76 1129.40   3
  -2   3  -5 4374.49 1164.09   7
  -2  -3  -5 4419.10 1085.15   5
   2  -3   5 4177.63 1124.72  10
  -2   3  -6 11942.0 1889.10   4
   2   3   6 6342.07 1511.06   8
   2  -3   6 10013.2 1898.33  10
   2  -3   6 9249.99 1552.89   3
  -2  -3  -6 9335.26 1692.10   5
  -2  -3  -6 11241.7 1896.55   4
  -2  -3  -7 975.638 693.258   4
   2  -3   7 897.317 578.939   9
   2   3   7-220.907 402.208   8
  -2   3  -7 322.488 472.459   4
   2  -3   7 1230.35 647.235   3
  -2  -3  -7 847.021 754.580   5
   2  -3   7 1737.34 880.574  10
  -2  -3  -8 179.549 510.613   4
   2   3   8-237.842 493.114   8
   2  -3   8-379.469 563.624  10
  -2   3  -8 1129.62 742.007   4
  -2   4   9 5345.16 1475.04   9
   2  -4  -9 4531.49 1397.33   4
  -2  -4   8 30998.8 3856.68   9
  -2   4   8 25158.0 3062.89   9
   2   4  -8 30204.2 3686.56   6
   2  -4  -8 27255.7 3090.55   4
   2  -4  -7 204.065 660.329   1
   2   4  -7-93.0270 438.293   6
   2  -4  -7 1511.46 703.665   4
  -2  -4   7 2197.38 1123.70   9
  -2   4   7 1789.00 812.473   9
  -2   4   6 68769.1 3816.37   8
  -2  -4   6 66431.3 4917.57   9
   2  -4  -6 69785.8 4056.24   4
  -2  -4   6 65599.3 4833.45  10
   2  -4  -6 63186.5 4651.39   1
   2   4  -6 72949.5 4944.06   6
  -2   4   6 73317.9 4550.69   9
   2   4  -5 1129.49 675.883   6
   2  -4  -5 1636.06 583.305   4
   2  -4  -5 493.851 630.862   1
  -2   4   5 1923.31 621.644   8
  -2  -4   5 1532.56 803.458  10
  -2   4   5 1602.43 673.164   9
  -2  -4   5 2202.90 896.799   9
  -2   4   4 103131. 4044.77   8
  -2  -4   4 104701. 2616.79   5
   2   4  -4 101306. 2441.36   7
   2  -4  -4 98560.5 4912.02   1
  -2  -4   4 99833.5 5236.25   9
  -2  -4   4 99969.7 4924.41  10
   2   4  -4 98686.9 5016.80   6
   2  -4  -4 104814. 3777.47   4
  -2   4   4 100958. 4659.19   9
   2   4  -3 2875.29 847.947   6
   2  -4  -3 4235.66 637.924   4
   2  -4  -3 2972.29 832.931   1
  -2  -4   3 4115.91 1025.60   9
  -2   4   3 3239.05 708.600   8
  -2   4   3 3867.12 901.670   9
  -2  -4   3 3014.14 608.332   5
   2   4  -3 3427.05 520.221   7
  -2   4   3 3111.35 818.546   7
  -2  -4   3 2874.08 795.575  10
   2  -4  -2 458085. 9346.43   1
   2  -4  -2 477813. 4532.03   4
  -2  -4   2 481915. 8154.79   5
  -2   4   2 463820. 9088.05   7
   2   4  -2 475968. 6513.74   7
  -2   4   2 457015. 5696.19   6
  -2  -4   2 479059. 8373.90  10
   2   4  -2 475399. 9876.38   6
  -2   4   2 472551. 8971.11   9
  -2  -4   1 114.912 91.3887   1
   2  -4  -1-276.323 360.613   1
   2   4  -1 143.201 292.630   6
   2   4  -1 204.366 190.306   8
  -2   4   1-441.366 374.242   7
  -2  -4   1 625.149 440.997   5
  -2  -4   1 283.119 273.009  10
  -2  -4   0 260920. 6936.52   5
   2   4   0 262296. 6191.98   8
  -2   4   0 265399. 6872.62   7
  -2  -4   0 271272. 4613.42  10
   2   4   1 24581.5 2029.48   8
  -2  -4  -1 23149.3 2241.70   5
   2   4   1 22944.3 1158.75   1
  -2   4  -1 24358.7 1067.40   4
   2  -4   1 19309.7 1898.42  10
  -2  -4  -1 23704.3 1232.49  10
   2  -4   1 22514.8 799.361   6
  -2   4  -1 24453.3 2183.44   7
   2   4   2 440729. 9285.72   8
  -2   4  -2 435747. 6283.96   4
  -2  -4  -2 404265. 9740.36   5
   2  -4   2 420048. 9102.05   3
   2  -4   2 422499. 9521.35  10
  -2   4  -2 410635. 9398.96   7
   2  -4   2 406461. 5811.21   6
  -2  -4  -2 427735. 3357.09   9
   2   4   3 13477.5 1810.02   8
  -2  -4  -3 12385.1 1837.71   5
   2  -4   3 13465.1 1742.95   3
  -2   4  -3 14387.8 1873.93   7
   2  -4   3 15618.4 1981.77  10
  -2   4  -3 14075.9 1379.90   4
   2   4   4 52809.5 3798.86   8
  -2  -4  -4 42781.2 3476.94   5
   2  -4   4 45764.6 3273.18   3
  -2   4  -4 45384.5 3544.66   7
   2  -4   4 47264.4 3718.83  10
  -2   4  -4 43044.3 2812.24   4
  -2   4  -5 4179.79 1016.69   4
   2   4   5 6205.11 1498.46   8
  -2   4  -5 5330.34 1372.65   7
   2  -4   5 5899.75 1265.27   3
  -2  -4  -5 3587.95 1140.06   5
   2  -4   5 2891.05 1014.53  10
   2   4   6 160999. 7717.93   8
  -2  -4  -6 167782. 7459.59   5
  -2   4  -6 155001. 7484.52   7
   2  -4   6 154988. 6558.34   3
  -2   4  -6 165469. 6913.74   4
   2  -4   6 161566. 7843.66  10
  -2  -4  -6 161740. 7322.98   4
  -2  -4  -7 10285.2 2019.67   4
  -2   4  -7 9343.52 1829.08   4
   2   4   7 12922.3 2392.63   8
  -2  -4  -7 11920.6 2065.22   5
   2  -4   7 7985.93 1914.33  10
  -2   4  -8 22090.7 3031.60   4
   2  -4   8 26681.9 3654.74  10
  -2   5   8 13393.5 2203.12   9
   2  -5  -8 12558.7 2103.41   4
  -2  -5   8 16532.2 2914.57   9
   2  -5  -8 14420.5 2765.05   1
   2   5  -8 11734.5 2364.40   6
   2   5  -7 9676.74 2026.20   6
  -2   5   7 7213.25 1558.53   9
  -2  -5   7 9945.87 2137.41   9
   2  -5  -7 7072.36 1777.73   1
   2  -5  -7 10992.0 1820.68   4
  -2  -5   7 8192.97 1886.38  10
  -2   5   6 23696.0 2434.43   8
   2  -5  -6 20938.6 2791.29   1
  -2  -5   6 24886.8 3063.75  10
  -2   5   6 24519.2 2715.97   9
   2  -5  -6 23455.1 2348.22   4
  -2  -5   6 27567.0 3302.09   9
   2   5  -6 25612.0 3015.38   6
  -2   5   5 56223.3 3822.92   9
  -2  -5   5 50055.8 4174.08   9
  -2   5   5 51345.9 3352.19   8
   2   5  -5 52145.9 4031.18   6
  -2  -5   5 48111.4 3904.26  10
   2  -5  -5 47854.2 3886.19   1
   2  -5  -5 55263.1 3163.09   4
  -2  -5   4 58596.1 4182.42   9
  -2   5   4 54203.2 3284.32   8
  -2  -5   4 60934.4 2421.09   5
   2   5  -4 65342.7 2535.48   7
   2  -5  -4 54458.3 3851.57   1
  -2   5   4 52682.0 3550.58   7
  -2  -5   4 66644.4 4160.32  10
  -2   5   4 60700.3 3782.84   9
   2  -5  -4 60507.8 2832.75   4
   2   5  -4 51714.9 3795.72   6
  -2  -5   3 88572.0 3495.02   5
   2  -5  -3 88198.4 4630.88   1
   2   5  -3 95218.3 3263.92   7
  -2   5   3 80441.7 4231.94   7
  -2  -5   3 82880.8 4221.68  10
  -2   5   3 83847.3 4199.47   9
   2   5  -3 88081.4 4669.58   6
   2  -5  -3 89175.0 2777.98   4
  -2  -5   2 32333.7 2367.37  10
   2  -5  -2 31856.0 2685.07   1
  -2  -5   2 31002.7 2256.26   5
  -2   5   2 31883.4 2624.66   7
   2   5  -2 36181.7 2131.77   7
  -2   5   2 26916.4 1370.93   6
   2   5  -2 28393.0 2568.20   6
   2  -5  -1 13205.6 1669.29   1
  -2  -5   1 15440.3 873.986   1
   2   5  -1 13532.5 1567.09   8
  -2  -5   1 14500.6 1683.54   5
  -2   5   1 12620.4 1659.05   7
  -2  -5   1 15248.9 1457.38  10
   2   5  -1 13040.0 1687.36   6
   2   5   0 59185.1 3489.30   6
   2   5   0 56153.8 3211.28   8
  -2  -5   0 53704.5 3491.40   5
  -2   5   0 54752.3 3422.17   7
  -2  -5   0 56649.3 1694.66   1
  -2  -5   0 59620.3 2559.34  10
   2  -5   0 58607.9 3507.62  10
   2   5   1 17026.0 1870.96   8
   2  -5   1 14482.8 1802.66  10
  -2   5  -1 15744.7 883.511   4
  -2  -5  -1 13586.2 1867.45   5
  -2   5  -1 14388.5 1817.18   7
  -2  -5  -1 16253.2 1251.07  10
  -2  -5  -1 16029.3 1168.55   1
  -2  -5  -2 4021.98 1142.87   5
  -2   5  -2 3000.13 546.261   4
   2   5   2 3847.37 969.728   8
  -2   5  -2 3371.13 956.467   7
   2  -5   2 3001.48 901.431  10
  -2   5  -3 514.418 342.760   4
   2   5   3-86.7800 359.609   8
  -2   5  -3 278.549 349.563   7
  -2  -5  -3 1096.79 863.779   5
   2  -5   3 334.051 436.395  10
   2  -5   4 895.213 627.146  10
  -2   5  -4 991.839 531.267   4
   2   5   4 1494.07 781.241   8
  -2   5  -4 986.557 699.731   7
  -2  -5  -4 1122.12 755.969   5
   2   5   5 14925.8 2310.06   8
  -2   5  -5 16827.0 2414.48   7
  -2  -5  -5 15691.7 2347.43   5
   2  -5   5 14836.3 2358.49  10
  -2   5  -5 14157.7 1854.66   4
   2   5   6 1252.80 805.735   8
   2  -5   6 294.363 549.026  10
  -2   5  -6 448.070 523.531   7
  -2  -5  -6 316.049 500.302   5
  -2   5  -7 12789.9 2178.13   4
   2   5   7 13137.0 2472.53   8
  -2  -5  -7 11805.1 2162.66   5
   2  -5   7 13358.5 2524.23  10
  -2   5  -8 16306.2 2635.95   4
  -2   6   8 16230.3 2522.35   9
   2   6  -7 10324.2 2161.42   6
  -2   6   7 8135.92 1714.46   9
  -2  -6   7 5576.37 1616.51  10
   2  -6  -7 8354.83 2044.49   1
  -2  -6   7 8335.00 1993.47   9
  -2  -6   6 99160.9 6460.60   9
  -2   6   6 100923. 5396.80   8
   2   6  -6 102845. 6252.95   6
   2  -6  -6 89030.1 5940.92   1
  -2  -6   6 92787.7 6050.28  10
  -2   6   6 106679. 5781.64   9
  -2   6   5 2931.77 996.406   9
   2   6  -5 3770.23 1161.63   6
   2  -6  -5 4055.32 880.895   4
  -2  -6   5 4655.46 1358.53   9
  -2   6   5 4316.49 1080.46   8
   2  -6  -5 3050.71 1133.15   1
  -2  -6   5 3982.23 1116.75  10
  -2   6   4 139173. 5791.98   8
   2  -6  -4 134895. 6375.14   1
   2   6  -4 149749. 6659.65   6
  -2   6   4 141360. 6285.26   7
  -2  -6   4 143836. 6385.56  10
  -2   6   4 140768. 6018.25   9
   2   6  -3 1071.62 622.394   6
  -2  -6   3 248.185 371.093  10
   2  -6  -3 273.709 437.704   1
   2   6  -3 77.0947 268.384   7
  -2  -6   3 244.469 319.411   5
  -2   6   3 444.231 535.539   7
  -2  -6   2 55903.7 3368.30  10
   2  -6  -2 53576.8 3711.57   1
  -2  -6   2 55078.4 3284.45   5
  -2   6   2 55898.1 3768.96   7
   2   6  -2 61899.8 3151.94   7
   2   6  -2 62527.7 4007.39   6
   2  -6  -1 75834.2 4346.72   1
   2   6  -1 78073.3 4120.36   8
  -2  -6   1 83674.4 2483.02   1
  -2  -6   1 77266.9 4189.69   5
  -2   6   1 79686.7 4451.25   7
  -2  -6   1 83468.4 3734.09  10
   2   6  -1 83036.2 4472.61   6
   2   6   0 410004. 9540.59   8
  -2  -6   0 409762. 10153.9   5
  -2  -6   0 425956. 5664.36   1
  -2   6   0 398043. 9926.76   7
   2  -6   0 397589. 9880.00  10
  -2  -6   0 417855. 7708.58  10
   2   6   0 408806. 9719.79   6
   2  -6   1 106383. 5216.73  10
   2   6   1 121791. 5374.57   8
  -2  -6  -1 121204. 5800.79   5
  -2   6  -1 119169. 5538.93   7
  -2  -6  -1 117231. 3461.16   1
  -2  -6  -1 112185. 3790.79  10
  -2   6  -2 2693.08 544.474   4
   2   6   2 4738.88 1152.94   8
  -2  -6  -2 2134.87 896.574   5
  -2  -6  -2 2527.41 623.660   1
  -2   6  -2 3529.83 1048.49   7
   2  -6   2 3369.53 1076.80  10
  -2  -6  -2 3465.47 693.715  10
   2   6   3 49592.0 3801.20   8
  -2  -6  -3 45678.4 3858.78   5
  -2   6  -3 50996.1 3905.39   7
   2  -6   3 48365.4 3928.41  10
  -2   6  -3 46972.8 2631.89   4
   2   6   4 248737. 9077.38   8
  -2  -6  -4 242264. 9191.71   5
  -2   6  -4 241866. 8850.84   7
   2  -6   4 227901. 9059.74  10
  -2   6  -4 247411. 6940.52   4
   2   6   5 28745.3 3305.54   8
  -2  -6  -5 31043.4 3468.34   5
  -2   6  -5 27843.9 3168.27   7
  -2   6  -5 25850.6 2537.83   4
   2  -6   5 27868.7 3386.68  10
  -2   6  -6 9429.36 1694.07   4
   2   6   6 8080.53 1903.34   8
  -2   6  -6 9576.71 1966.61   7
  -2  -6  -6 9962.85 2060.69   5
   2  -6   6 10284.4 2192.94  10
  -2   6  -7 5697.62 1451.70   4
   2   6   7 7391.82 1951.82   8
  -2   6  -7 6808.65 1743.70   7
  -2  -6  -7 6273.46 1690.79   5
   2  -6   7 6483.55 1860.12  10
   2   7  -7 15445.5 2630.13   6
  -2  -7   7 15108.5 2777.01   9
  -2   7   7 13207.6 2213.27   9
   2  -7  -7 14865.4 2733.71   1
  -2  -7   7 18114.2 2961.13  10
   2   7  -6 15471.8 2477.76   6
  -2  -7   6 15027.1 2643.77   9
  -2   7   6 12527.3 2054.88   8
  -2   7   6 13839.2 2311.98   7
  -2  -7   6 11754.8 2241.47  10
   2  -7  -6 9053.62 1967.97   1
  -2   7   5 19473.0 2462.90   8
  -2  -7   5 19913.9 2843.62   9
  -2   7   5 20959.3 2706.25   7
   2  -7  -5 19916.1 2786.94   1
  -2  -7   5 24295.8 2962.96  10
   2   7  -5 19562.5 2661.31   6
   2  -7  -4 69659.5 4873.86   1
  -2   7   4 70211.7 4768.32   7
  -2  -7   4 73435.3 4769.11  10
   2   7  -4 79323.7 5076.08   6
   2  -7  -3 28620.8 3028.64   1
  -2  -7   3 33851.7 2578.94   5
   2   7  -3 31905.2 2451.89   7
  -2   7   3 32380.6 3153.95   7
  -2  -7   3 28466.5 2769.83  10
   2   7  -3 34401.2 3211.82   6
   2  -7  -2 18298.7 2344.00   1
  -2  -7   2 24726.4 2390.21   5
   2   7  -2 20758.6 2435.79   6
  -2   7   2 17355.1 2308.87   7
   2   7  -2 22223.0 2106.28   7
  -2  -7   2 26399.5 2468.81  10
   2  -7  -1 32514.8 3037.37   1
  -2  -7   1 35087.0 1874.20   1
  -2  -7   1 33335.1 2958.49   5
  -2   7   1 33661.0 3144.35   7
  -2  -7   1 34000.3 2608.20  10
   2   7  -1 34381.8 3055.87   6
   2   7   0 6376.09 1324.07   6
   2   7   0 10368.7 1708.24   8
  -2  -7   0 8397.38 933.283   1
  -2   7   0 6117.20 1370.87   7
  -2  -7   0 8861.99 1670.64   5
  -2  -7   0 8873.79 1258.02  10
   2  -7   0 8198.04 1551.67  10
   2   7   1-64.0344 534.458   8
  -2  -7  -1 177.574 361.110  10
  -2  -7  -1 382.991 248.781   1
  -2   7  -1-54.2686 320.409   7
  -2  -7  -1 123.855 445.920   5
   2  -7   1 143.598 335.120  10
   2   7   2 3074.33 1022.66   8
  -2  -7  -2 3311.69 1238.13   5
  -2   7  -2 4323.30 1233.54   7
  -2  -7  -2 3788.33 804.167   1
   2  -7   2 2904.34 1076.15  10
  -2  -7  -2 3519.46 765.260  10
   2   7   3 934.713 768.988   8
  -2   7  -3 2631.01 1007.51   7
  -2  -7  -3 1563.49 616.863   1
  -2  -7  -3 1772.37 957.270   5
   2  -7   3 3344.37 1170.49  10
   2  -7   4 9687.49 1985.81  10
   2   7   4 6431.43 1550.61   8
  -2   7  -4 5792.73 1503.84   7
  -2  -7  -4 8841.09 1949.62   5
   2  -7   5 10676.8 2214.33  10
   2   7   5 11880.3 2272.67   8
  -2   7  -5 11204.3 2126.68   7
  -2  -7  -5 11445.3 2271.46   5
   2   7   6 18554.5 2986.68   8
   2  -7   6 14587.8 2691.24  10
  -2   7  -6 17855.0 2773.84   7
  -2  -7  -6 14476.7 2618.60   5
  -2   7  -7 1688.84 1122.40   7
  -2  -7  -7 2977.68 1272.67   5
  -2   8   7 71.0122 426.166   7
  -2  -8   6 42203.2 4520.08   9
   2   8  -6 39478.8 4061.14   6
  -2   8   6 33365.0 3601.31   8
  -2   8   6 43932.4 4345.11   7
   2  -8  -6 38111.8 4215.11   1
  -2  -8   6 29972.2 3652.53  10
  -2   8   5 583.597 563.714   8
  -2  -8   5 459.772 507.842  10
   2   8  -5 1124.85 696.964   6
   2  -8  -5 281.080 616.889   1
  -2   8   5 297.978 496.208   7
   2  -8  -4 81498.0 5563.46   1
  -2   8   4 82517.0 5544.31   7
  -2  -8   4 78413.9 5174.85  10
   2   8  -4 79966.7 5273.88   6
   2   8  -3 526.794 547.653   6
   2  -8  -3 470.437 632.594   1
   2   8  -3-58.6723 280.089   7
  -2   8   3 98.7385 467.417   7
  -2  -8   3 664.455 561.463   5
  -2  -8   3-226.814 312.156  10
   2  -8  -2 99488.4 5771.76   1
  -2  -8   2 100739. 5141.50   5
  -2   8   2 97621.5 5771.07   7
   2   8  -2 106939. 5047.90   7
  -2  -8   2 104145. 5227.81  10
   2   8  -2 110486. 5861.85   6
   2   8  -1 7322.87 1526.80   6
   2  -8  -1 5571.99 1383.28   1
  -2   8   1 6119.05 1489.63   7
   2   8  -1 9237.28 1561.68   7
  -2  -8   1 6965.70 1494.14   5
  -2  -8   1 6197.42 1200.62  10
   2  -8  -1 6214.99 1419.03  10
   2  -8   0 29167.8 3077.99  10
   2   8   0 37187.1 3409.26   8
  -2  -8   0 31135.3 3234.54   5
  -2   8   0 26321.8 2989.45   7
  -2  -8   0 28143.9 2438.34  10
   2   8   0 33201.2 3105.90   6
   2   8   1-632.135 511.030   6
   2   8   1 303.697 452.371   8
  -2   8  -1 721.465 628.009   7
  -2  -8  -1-215.559 619.577   5
  -2  -8  -1 332.473 254.532  10
   2  -8   1 166.938 410.401  10
   2   8   2 177715. 7775.48   8
  -2  -8  -2 185834. 8430.05   5
  -2   8  -2 172731. 7774.11   7
   2  -8   2 161852. 7752.59  10
   2   8   3 2058.91 876.533   8
  -2   8  -3 1846.37 889.810   7
  -2  -8  -3 1459.12 927.890   5
   2  -8   3 1996.74 962.072  10
   2   8   4 42310.1 4156.20   8
  -2  -8  -4 38456.8 4128.26   5
  -2   8  -4 40455.6 3957.99   7
   2  -8   4 35220.1 3973.77  10
   2   8   5 3273.61 1272.39   8
   2  -8   5 5440.11 1626.68  10
  -2   8  -5 4460.25 1415.23   7
  -2  -8  -5 4898.65 1637.97   5
  -2   8  -6 78502.1 5982.42   7
   2   9  -6 3239.67 1216.86   6
  -2   9   6 897.042 729.337   7
  -2  -9   6 2689.88 1239.83  10
   2   9  -5 13569.4 2340.13   6
  -2  -9   5 12387.7 2309.97  10
   2  -9  -5 11189.1 2326.16   1
  -2   9   5 10913.3 2286.77   7
  -2   9   4-632.014 568.301   7
  -2  -9   4-135.663 250.284  10
   2  -9  -4-708.733 630.099   1
   2   9  -3 13389.4 2196.08   6
   2  -9  -3 11383.9 2148.96   1
  -2   9   3 12348.2 2295.33   7
  -2  -9   3 13927.1 2131.27  10
   2   9  -2 2962.10 1019.73   6
   2  -9  -2 4010.38 1333.36   1
  -2   9   2 2543.29 1052.12   7
   2   9  -2 4730.42 1198.70   7
  -2  -9   2 3876.56 1092.46  10
   2   9  -1 135.825 465.754   6
   2  -9  -1 689.753 586.481   1
  -2   9   1-233.305 519.602   7
   2   9  -1 428.245 506.552   7
  -2  -9   1 570.113 623.693   5
  -2  -9   1 749.083 568.143  10
   2  -9  -1 1158.92 721.727  10
   2  -9   0 79.3103 439.228   1
   2   9   0 77.2195 382.137   6
  -2   9   0 581.028 590.858   7
  -2  -9   0 372.495 641.374   5
  -2  -9   0-348.737 392.690  10
   2  -9   0 365.779 451.115  10
   2   9   1 2701.81 1026.70   6
   2   9   1 2880.17 1168.18   8
  -2   9  -1 1277.34 746.541   7
  -2  -9  -1 2778.93 1160.09   5
   2  -9   1 1942.41 863.048  10
   2   9   2 171.172 501.627   8
  -2   9  -2-529.184 520.306   7
  -2  -9  -2 610.536 634.057   5
   2  -9   2-188.198 414.207  10
   2   9   3 1302.70 843.239   8
   2  -9   3 77.1640 430.622  10
  -2   9  -3-377.121 532.264   7
  -2  -9  -3-144.736 650.915   5
   2   9   4 28.0571 430.254   8
  -2   9  -4 181.565 551.631   7
  -2  -9  -4 931.028 872.032   5
   2  -9   4 1400.14 870.460  10
  -2   9  -5 6849.03 1789.44   7
   2  10  -5 327.188 492.884   6
  -2 -10   5-408.856 422.845  10
   2 -10  -4 37033.3 4187.21   1
  -2  10   4 35121.4 4127.17   7
  -2 -10   4 35756.3 3832.37  10
   2  10  -4 31377.5 3577.34   6
   2  10  -3 5704.81 1498.76   6
  -2  10   3 2516.82 1141.32   7
   2 -10  -3 3101.10 1349.21   1
  -2 -10   3 3412.34 1144.55  10
   2 -10  -2 60384.2 5070.29   1
  -2 -10   2 69297.0 4831.14   5
  -2  10   2 70623.8 5575.16   7
   2  10  -2 62423.9 4482.75   7
  -2 -10   2 75352.7 5034.90  10
   2 -10  -2 72144.6 5486.30  10
   2  10  -2 76515.1 5331.90   6
   2 -10  -1 17191.8 2680.82   1
  -2  10   1 21880.7 3091.73   7
   2  10  -1 19676.8 2613.22   7
  -2 -10   1 18169.0 2657.50   5
   2  10  -1 21179.6 2797.93   6
   2 -10  -1 19330.8 2842.55  10
   2 -10   0 47602.4 4387.21   1
  -2 -10   0 46867.5 4393.07   5
  -2  10   0 51756.2 4736.20   7
   2  10   0 51914.6 4362.93   7
   2 -10   0 45342.9 4336.34  10
   2  10   0 53212.2 4357.87   6
   2  10   1 50181.0 4657.19   8
  -2 -10  -1 49196.1 4699.39   5
  -2  10  -1 55816.7 4900.55   7
   2 -10   1 49123.3 4672.24  10
   2  10   1 46193.3 4054.66   6
   2  10   2 101288. 6759.27   8
  -2 -10  -2 95277.6 6786.82   5
  -2  10  -2 115142. 7086.63   7
   2 -10   2 116413. 7364.57  10
   2  10   2 105732. 6284.42   6
   2 -10   3 25788.4 3586.65  10
   2  10   3 24925.8 3456.45   8
  -2  10  -3 19651.7 2970.60   7
  -2 -10  -3 21190.7 3313.44   5
  -2  10  -4 55562.0 5080.38   7
   2  11  -4 6978.25 1729.14   6
  -2 -11   4 7706.51 1890.22  10
   2  11  -3 33500.7 3754.38   6
   2  11  -2 1254.18 827.786   6
   2 -11  -2 55.3087 558.170   1
   2 -11  -1 24788.0 3402.91   1
  -2 -11   1 26689.5 3379.78   5
  -2  11   1 25245.4 3495.37   7
   2  11  -1 29201.2 3392.56   7
   2  11  -1 27268.3 3308.18   6
   2 -11  -1 19310.1 2995.89  10
   2  11   0 355.583 490.091   6
   2 -11   0-136.721 550.144   1
   2 -11   0-871.554 713.635  10
  -2  11   0 636.267 713.376   7
   2  11   0-1703.57 895.141   7
  -2 -11   0 199.213 603.718   5
   2 -11   1 2537.59 1127.87   1
   2  11   1 4111.85 1295.50   6
  -2  11  -1 5341.33 1716.30   7
   2  11   1 4080.07 1389.73   7
  -2 -11  -1 5742.74 1765.37   5
   2  11   2 53.1830 485.511   6
   2  11   3-83.3258 284.954   6
  -3   0   8-82.4927 382.041   9
   3   0  -8 1035.46 743.764   6
  -3   0   7 10581.9 2007.93   9
   3   0  -7 8062.33 1686.58   6
   3   0  -6-266.241 449.291   6
  -3   0   6 1736.02 796.206   9
  -3   0   5 1317.87 735.992   9
   3   0  -5 1639.22 713.311   2
   3   0  -5 630.727 468.376   1
   3   0  -5 1538.96 674.060   6
   3   0  -4 357.228 381.897   6
   3   0  -4 60.3044 427.995   1
  -3   0   4 237.774 457.963   9
   3   0  -4-2.82294 390.197   2
  -3   0   3 84251.2 1994.33   7
   3   0  -3 79865.0 3328.22   1
   3   0  -3 76913.2 3818.59   2
   3   0  -3 81741.8 3851.98   6
  -3   0   3 79379.5 3865.49   9
  -3   0   2 705.982 350.823   9
   3   0  -2 101.351 244.279   6
  -3   0   2 829.338 470.554   5
  -3   0   2 166.513 164.773   7
   3   0  -2 12.6293 128.723   7
   3   0  -2 191.672 351.750   2
   3   0  -2 385.439 306.026   1
   3   0  -1 44034.8 2025.34   1
  -3   0   1 44272.5 2654.45   5
   3   0  -1 42910.7 1605.01   8
  -3   0   1 47498.3 2243.49   7
   3   0  -1 46074.2 2533.48   6
  -3   0   1 44550.8 2351.71   9
  -3   0   0 421.080 248.052   9
   3   0   0 20.4487 186.918   6
   3   0   0 355.484 238.035   8
  -3   0   0 519.002 558.818   5
  -3   0   0 196.695 277.127   7
  -3   0  -1 37207.4 2690.84   5
  -3   0  -1 38697.6 2583.87   7
   3   0   1 37057.9 1638.09  10
   3   0   2 23.0768 86.4783   9
  -3   0  -2-215.153 428.254   5
   3   0   2 60.1975 144.863  10
  -3   0  -3 47464.4 3260.00   5
   3   0   3 45216.2 3155.64   8
   3   0   3 50773.0 2495.79  10
  -3   0  -4 756.200 477.282   4
   3   0   4 708.490 378.370  10
   3   0   4 114.447 397.576   8
  -3   0  -4 395.392 422.107   5
  -3   0  -5 3618.66 1002.09   4
   3   0   5 5369.53 1342.08   8
  -3   0  -5 4394.64 1117.72   5
  -3   0  -6-253.163 391.154   4
   3   0   6 171.863 481.468   8
  -3   0  -6 596.958 502.445   5
  -3   0  -7 697.954 583.885   4
   3   0   7 52.0790 596.691   8
   3  -1  -9 3945.99 1384.25   4
   3   1  -8 88400.3 6115.34   6
  -3   1   8 102446. 6446.06   9
   3  -1  -8 94931.0 5951.59   4
  -3  -1   8 94410.1 6394.52   9
  -3  -1   7 986.990 809.350   9
  -3   1   7 2535.47 985.765   9
   3  -1  -7 1160.33 691.483   6
   3   1  -7 2189.90 969.280   6
  -3  -1   6 36599.2 3477.25   9
   3  -1  -6 40272.5 3358.59   6
   3   1  -6 37034.7 3454.24   6
   3  -1  -6 34958.8 3237.37   1
  -3   1   6 34039.9 3251.80   9
   3  -1  -5 5999.61 1250.36   6
   3  -1  -5 6736.87 1281.78   2
   3   1  -5 6948.86 1399.23   6
  -3   1   5 5675.56 1272.03   9
  -3  -1   5 4783.70 1188.91   9
   3  -1  -5 5386.68 1232.16   1
  -3  -1   4 220301. 7262.26   9
  -3   1   4 239339. 4296.49   7
   3  -1  -4 228697. 6710.94   1
   3  -1  -4 235479. 6806.72   2
   3  -1  -4 241478. 6803.01   6
   3   1  -4 224966. 7081.82   2
   3   1  -4 227402. 7290.81   6
   3   1  -4 228501. 6291.62   1
  -3   1   4 224097. 7101.62   9
   3   1  -3 591.438 560.924   2
   3  -1  -3 191.934 291.632   1
  -3   1   3 676.066 436.112   9
   3  -1  -3 795.522 456.048   6
  -3  -1   3 135.775 268.905   5
   3  -1  -3 1749.52 417.580   3
   3   1  -3 700.164 441.651   6
  -3   1   3 148.357 175.250   7
   3   1  -3 312.612 306.065   1
  -3  -1   3 775.580 524.681   9
   3  -1  -2 232312. 2746.98   8
  -3  -1   2 246254. 6027.87   5
   3  -1  -2 251699. 5433.82   3
   3  -1  -2 251072. 5803.34   1
  -3   1   2 244612. 4998.05   7
   3   1  -2 237757. 3879.33   7
   3   1  -2 248811. 4618.68   1
   3   1  -2 240689. 6665.73   2
   3  -1  -2 252581. 5668.36   6
   3   1  -2 234763. 6508.11   6
  -3   1   2 247323. 6279.76   9
  -3  -1   2 251424. 6240.57   9
  -3  -1   1 711.947 319.010   9
   3  -1  -1 520.707 316.762   1
   3   1  -1 982.277 291.474  10
   3  -1  -1 1187.41 405.707   6
   3   1  -1 1051.66 484.594   6
   3   1  -1 916.977 261.471   8
  -3   1   1 920.969 521.364   5
   3   1  -1 813.068 255.140   1
  -3  -1   1 1472.66 552.104   5
  -3   1   1 1688.15 530.041   9
  -3   1   1 1080.64 411.272   7
   3   1  -1 1184.71 521.656   2
  -3   1   0 322700. 7496.80   5
   3   1   0 319207. 5705.21   8
  -3  -1   0 313266. 7505.00   5
  -3   1   0 317594. 6832.98   7
   3   1   0 310828. 7026.57   2
   3   1   0 317338. 3256.61  10
  -3   1   0 322406. 6201.53   9
   3  -1   0 329625. 5863.68   6
  -3  -1   0 334069. 5437.18   9
   3   1   1 55.1405 94.1889   9
   3   1   1 255.065 245.072   8
  -3  -1  -1 22.6049 122.738   9
  -3   1  -1 298.898 495.410   5
  -3  -1  -1-749.991 535.973   5
  -3   1  -1 129.068 323.361   7
   3  -1   1 139.451 158.095  10
   3   1   2 439543. 4275.66   9
  -3   1  -2 445716. 9383.54   5
   3   1   2 450808. 8993.71   8
  -3  -1  -2 438060. 9669.80   5
  -3   1  -2 459991. 9920.07   7
   3  -1   2 446369. 7609.36  10
  -3   1  -3 67095.8 3807.52   5
   3   1   3 58551.7 3605.95   8
  -3  -1  -3 58617.0 3705.25   5
  -3   1  -3 57577.5 3798.55   7
   3  -1   3 59393.3 3063.39  10
  -3   1  -3 60001.3 3191.67   4
  -3   1  -4 42378.2 3150.04   5
   3   1   4 38566.8 3212.08   8
  -3  -1  -4 37278.8 3100.01   5
  -3  -1  -4 41912.3 3138.99   4
   3  -1   4 42890.2 2883.19  10
  -3   1  -4 42344.0 2943.27   4
  -3   1  -5 8649.64 1526.29   4
  -3  -1  -5 7525.20 1479.75   4
   3   1   5 5070.69 1311.00   8
  -3   1  -5 10717.9 1676.54   5
  -3  -1  -5 7201.99 1462.90   5
   3  -1   5 12178.9 1705.69  10
  -3   1  -6 114153. 5449.04   5
   3   1   6 119933. 6607.04   8
   3  -1   6 117006. 6575.08   8
  -3  -1  -6 121512. 5951.07   5
   3  -1   6 119748. 5808.22  10
  -3  -1  -6 107809. 5888.27   4
  -3   1  -6 115798. 5932.39   4
  -3  -1  -7 16166.2 2513.57   4
  -3   1  -7 14390.5 2305.68   4
   3   1   7 12728.5 2325.47   8
   3  -1   7 15339.4 2576.78   8
   3  -1   7 12326.5 2003.90   3
   3  -2  -9 1403.73 807.544   4
  -3   2   8 5099.83 1493.48   9
  -3  -2   8 6032.26 1677.08   9
   3  -2  -8 3608.41 1177.95   4
   3   2  -8 5829.65 1691.98   6
   3   2  -7 3233.41 1169.77   6
  -3   2   7 3063.42 1131.22   9
  -3  -2   7 3832.73 1331.93   9
   3  -2  -7 4094.26 1075.77   4
   3  -2  -7 4911.41 1421.67   1
   3   2  -6 120.457 365.202   6
   3  -2  -6 426.501 544.961   2
   3  -2  -6-34.4033 351.536   1
  -3   2   6-77.6801 360.337   9
  -3  -2   6 952.501 692.803   9
   3  -2  -6 16.8185 252.495   4
   3  -2  -6-170.593 316.208   6
  -3   2   5 10189.5 1679.39   9
  -3  -2   5 9660.46 1729.08   9
   3   2  -5 7467.41 1482.64   6
  -3   2   5 8310.57 1046.79   7
   3  -2  -5 6494.33 1341.59   1
   3  -2  -5 6604.56 1210.15   2
   3  -2  -5 7826.65 1306.28   6
  -3  -2   4 32652.0 2921.38   9
  -3   2   4 32229.1 1986.53   7
   3  -2  -4 30389.3 2591.64   1
   3  -2  -4 34783.0 2606.74   2
   3  -2  -4 36365.5 2535.97   6
   3   2  -4 33636.9 2943.40   6
  -3   2   4 28568.7 2572.48   9
  -3  -2   3 20421.8 2080.01   9
  -3  -2   3 18842.6 1579.69   5
   3  -2  -3 15695.7 837.531   8
  -3  -2   3 17529.4 764.576   8
   3  -2  -3 17904.6 1842.21   1
  -3   2   3 17319.9 1450.20   7
   3  -2  -3 18399.7 1583.22   6
   3   2  -3 14921.2 1834.13   6
  -3   2   3 17803.2 1901.22   9
  -3  -2   2 137655. 4763.58   9
   3  -2  -2 133868. 3110.88   8
  -3  -2   2 139800. 2896.90   8
  -3  -2   2 136551. 4598.44   5
   3  -2  -2 145860. 4887.07   1
   3  -2  -2 141490. 4330.96   3
   3   2  -2 137235. 2922.11   7
  -3   2   2 139054. 4235.51   7
   3   2  -2 140568. 5313.98   2
   3  -2  -2 144458. 3833.47   6
   3   2  -2 149742. 5540.58   6
  -3   2   2 141649. 4951.82   9
   3  -2  -1 2703.81 687.540   1
  -3   2   1 3603.12 763.281   9
  -3  -2   1 4379.72 763.052   9
   3   2  -1 4865.78 978.455   6
   3   2  -1 4665.53 651.243   8
   3  -2  -1 5427.14 950.577   3
  -3  -2   1 5258.49 984.884   5
  -3   2   1 3413.83 736.809   7
   3   2  -1 4171.34 361.383   1
   3   2  -1 3420.90 489.586  10
   3  -2  -1 4005.79 580.565   6
   3   2  -1 5724.43 1098.10   2
   3   2   0 24328.7 1695.59   8
   3  -2   0 24447.6 1233.94   4
  -3  -2   0 22659.1 2105.85   5
   3  -2   0 21876.1 1943.46   3
  -3   2   0 21621.8 1912.00   7
   3   2   0 20906.5 1902.72   2
   3  -2   0 22538.7 1334.13   6
  -3  -2   0 24160.3 1449.31   9
  -3   2  -1 20951.9 2047.44   5
   3   2   1 15341.8 1519.73   8
  -3  -2  -1 19262.5 2053.29   5
  -3   2  -1 18120.3 1893.93   7
   3   2   1 18025.0 1705.58   2
   3  -2   1 18610.2 1640.44  10
  -3  -2  -1 17923.4 942.218   9
  -3   2  -2 27056.3 2362.64   5
   3   2   2 28748.5 2344.97   8
  -3  -2  -2 29521.9 2637.76   5
  -3   2  -2 26930.0 2467.10   7
   3   2   2 24414.7 1880.01   2
   3  -2   2 25251.2 2073.02  10
  -3   2  -3 807.001 432.351   4
   3   2   3 832.781 510.291   8
  -3   2  -3 1844.34 736.640   5
  -3   2  -3 1704.41 806.318   7
  -3  -2  -3 671.821 470.010   5
   3  -2   3 1002.76 462.699  10
   3   2   3 861.066 438.164   2
  -3   2  -4 397.039 353.370   4
   3  -2   4 77.1451 266.501  10
   3   2   4 863.790 536.215   8
   3  -2   4 751.234 677.745   3
  -3   2  -4 731.602 515.861   5
  -3   2  -4 773.681 689.237   7
  -3  -2  -4-271.004 533.340   5
   3   2   4 644.087 319.548   2
   3   2   5 276.629 400.481   8
  -3   2  -5-21.6424 293.631   5
   3  -2   5 1.94526 392.131   3
  -3  -2  -5 144.156 448.021   5
  -3   2  -5 205.496 298.894   4
   3  -2   5-135.259 304.703  10
  -3  -2  -6 8190.76 1690.51   4
  -3   2  -6 9019.17 1666.34   4
   3  -2   6 8460.25 1614.77  10
   3   2   6 7458.90 1688.53   8
  -3   2  -6 8710.49 1510.99   5
   3  -2   6 7404.43 1541.31   3
  -3  -2  -6 8849.46 1696.14   5
  -3  -2  -7 78.2254 363.936   4
  -3   2  -7 798.537 615.534   4
   3   2   7 787.812 692.038   8
   3  -2   7-512.922 613.224   8
   3  -2   7 868.524 599.228   3
  -3  -2  -7-71.3475 371.496   5
   3  -2   7-2.55039 269.050  10
   3  -3  -9 5026.54 1472.99   4
  -3   3   8 4925.67 1447.90   9
  -3  -3   8 3459.15 1268.23   9
   3  -3  -8 3676.04 1170.23   4
   3   3  -8 5015.50 1546.87   6
   3   3  -7 1855.03 921.949   6
  -3   3   7 707.463 690.942   9
  -3  -3   7 1033.56 690.806   9
   3  -3  -7 2354.20 862.540   4
   3  -3  -7-160.426 425.669   1
  -3  -3   6 191576. 8397.89   9
   3  -3  -6 203243. 6886.55   4
   3  -3  -6 189299. 6496.52   2
   3  -3  -6 177764. 7704.07   1
   3   3  -6 202699. 8446.82   6
  -3   3   6 193724. 7828.81   9
   3   3  -5 187.971 635.629   6
  -3   3   5 406.729 567.553   9
  -3  -3   5 660.997 533.978   9
   3  -3  -5 236.093 287.688   4
   3  -3  -5-292.597 400.950   1
  -3   3   5-221.812 278.231   7
   3  -3  -5 603.027 496.954   2
  -3  -3   4 59364.8 4047.53   9
   3  -3  -4 54126.1 3632.90   1
  -3   3   4 62284.2 3193.40   7
   3  -3  -4 60560.2 3122.12   6
   3   3  -4 52766.9 3811.00   6
  -3   3   4 52229.2 3597.64   9
   3  -3  -4 59638.7 2860.96   4
  -3   3   3 215.926 392.253   9
   3   3  -3 788.039 527.451   6
  -3  -3   3 158.917 339.370   9
  -3  -3   3 456.195 352.699   5
  -3   3   3 878.858 444.884   7
   3  -3  -3 790.208 540.831   1
   3  -3  -3 622.636 303.624   6
  -3  -3   2 126259. 4810.82   9
   3  -3  -2 125760. 4932.65   1
  -3  -3   2 135742. 4725.32   5
   3   3  -2 123640. 3153.72   7
  -3   3   2 132784. 4609.82   7
   3  -3  -2 133648. 3231.69   6
  -3   3   2 121713. 3197.22   6
  -3   3   2 129381. 4939.18   9
   3   3  -2 129669. 5455.64   6
  -3  -3   1 20357.8 1694.53   9
   3  -3  -1 18618.1 1858.33   1
   3   3  -1 20251.0 1538.10   8
  -3  -3   1 19598.5 1927.34   5
   3  -3  -1 16544.2 1718.29   3
  -3   3   1 17947.0 1755.04   7
   3  -3  -1 19094.5 612.567   4
   3   3  -1 18039.0 1120.42  10
   3  -3  -1 21033.4 951.222   6
   3   3  -1 20755.6 2108.59   6
  -3   3   1 21136.8 1941.61   9
  -3  -3   0 272239. 5086.50   9
   3   3   0 270930. 6110.41   8
  -3  -3   0 260306. 7410.53   5
   3  -3   0 253119. 6877.58   3
  -3   3   0 264292. 7025.65   7
   3   3   0 261926. 6994.62   2
   3  -3   0 268067. 3014.26   6
   3   3   1 10493.5 1348.66   8
  -3  -3  -1 11012.3 1649.29   5
   3  -3   1 9682.60 1470.23   3
   3   3   1 9858.42 739.115   1
  -3   3  -1 8247.32 1351.04   7
   3  -3   1 9312.57 731.934   6
   3   3   1 11510.6 1459.45   2
   3  -3   1 11145.1 1408.48  10
  -3  -3  -1 9510.52 651.478   9
   3   3   2 12906.9 1660.04   8
   3  -3   2 14872.7 1867.98   3
  -3   3  -2 13884.2 1854.17   7
  -3  -3  -2 11949.1 1823.32   5
   3  -3   2 15133.2 1762.83  10
   3   3   2 13594.3 1477.87   2
  -3   3  -2 11931.0 1134.15   4
  -3   3  -3 927.401 383.700   4
   3   3   3 771.002 492.416   8
   3  -3   3 1527.02 705.306   3
  -3   3  -3 1347.65 668.023   7
  -3  -3  -3 604.196 652.348   5
   3  -3   3 1646.79 660.664  10
   3   3   4 394107. 10686.4   8
  -3  -3  -4 397189. 10801.3   5
   3  -3   4 371168. 10015.9   3
  -3   3  -4 389691. 11111.7   7
   3  -3   4 384250. 10204.1  10
  -3   3  -4 384741. 8597.05   4
  -3   3  -5 3616.97 962.747   4
   3   3   5 3050.00 1065.88   8
   3  -3   5 2705.60 961.696   3
  -3   3  -5 4733.80 1386.78   7
  -3  -3  -5 2412.17 901.753   5
   3  -3   5 4504.63 1223.47  10
   3   3   6 23967.2 3076.32   8
  -3  -3  -6 25000.3 2930.87   5
   3  -3   6 21407.3 2635.08   3
   3  -3   6 21093.0 2761.20  10
  -3   3  -6 21902.6 2556.17   4
  -3   3  -7 954.382 635.556   4
   3   3   7 467.123 558.616   8
  -3  -3  -7-208.998 468.705   5
   3  -3   7-380.840 496.188   3
   3  -3   7 353.627 383.271  10
   3  -3   8 110888. 7121.73  10
   3   4  -8 7201.45 1885.98   6
  -3   4   8 7863.74 1789.32   9
   3  -4  -8 9205.56 2214.87   1
  -3  -4   8 9004.25 2121.52   9
   3   4  -7 1393.99 902.812   6
  -3  -4   7 794.961 688.951   9
   3  -4  -7-110.188 293.615   4
  -3   4   7 43.5211 368.367   9
   3  -4  -7 159.076 463.542   1
   3   4  -6 17544.1 2595.18   6
   3  -4  -6 15967.7 2397.26   1
  -3  -4   6 16622.3 2597.52   9
   3  -4  -6 17618.7 1995.10   4
  -3   4   6 15068.8 2260.10   9
  -3  -4   5 12211.7 2066.97   9
   3  -4  -5 12456.4 1982.21   1
  -3   4   5 14932.5 1814.87   7
   3   4  -5 15817.3 2333.05   6
   3  -4  -5 14828.1 1605.53   4
  -3   4   5 14557.2 2069.28   9
  -3  -4   4 60720.0 4266.70   9
  -3  -4   4 65413.5 2864.38   5
   3  -4  -4 64472.1 4175.06   1
  -3   4   4 62990.8 3606.58   7
   3   4  -4 61760.5 4306.78   6
   3  -4  -4 67585.8 2888.82   4
  -3   4   4 61693.0 4023.00   9
  -3   4   3 5098.05 1136.86   9
   3   4  -3 7939.96 1506.05   6
  -3  -4   3 7582.40 1374.86   9
  -3  -4   3 6962.28 1078.29   5
   3  -4  -3 5398.68 1211.54   1
  -3   4   3 6670.45 1181.46   7
  -3  -4   3 8136.45 1241.84  10
   3  -4  -3 7357.40 749.306   4
  -3  -4   2 48044.8 3140.77   9
   3  -4  -2 42266.9 3094.84   1
  -3  -4   2 43145.5 2811.30   5
  -3   4   2 44104.3 2937.20   7
  -3  -4   2 42776.6 2427.19  10
   3   4  -2 44345.6 3386.05   6
  -3   4   2 44833.2 3085.66   9
   3  -4  -1 236.005 412.291   1
  -3  -4   1 747.031 377.148   9
   3   4  -1 118.388 305.095   6
   3   4  -1 122.481 300.742   8
  -3  -4   1 536.158 581.410   5
  -3   4   1 380.734 453.134   7
  -3  -4   1 430.321 212.758  10
   3   4  -1 228.559 163.350  10
  -3  -4   0 30707.5 1862.04   9
   3   4   0 31828.6 2301.47   8
  -3  -4   0 31912.9 2735.16   5
   3  -4   0 27788.0 2463.61   3
  -3   4   0 30255.9 2555.30   7
   3  -4   0 29579.8 2442.37  10
   3   4   0 30827.4 2640.79   6
  -3  -4  -1 5323.39 561.151   9
   3   4   1 5813.69 1088.57   8
   3  -4   1 5288.91 1188.46   3
  -3   4  -1 3877.51 989.439   7
  -3  -4  -1 8321.23 1527.04   5
   3  -4   1 6167.25 1153.94  10
   3   4   1 5890.02 451.137   1
   3   4   2 19509.4 2121.25   8
  -3  -4  -2 20761.5 2462.01   5
   3  -4   2 17170.1 2098.22   3
  -3   4  -2 20238.2 2323.40   7
   3  -4   2 17456.4 2072.77  10
  -3   4  -2 20412.9 1381.59   4
   3   4   3 11117.8 1749.17   8
   3  -4   3 6966.23 1428.07   3
  -3   4  -3 11149.0 1856.56   7
  -3  -4  -3 9148.39 1741.72   5
  -3   4  -3 9052.29 1130.77   4
   3  -4   3 7005.50 1383.01  10
  -3   4  -4 2372.43 724.456   4
   3   4   4 1588.38 759.334   8
   3  -4   4 1235.55 737.218   3
  -3   4  -4 2461.01 940.263   7
  -3  -4  -4 1723.85 866.459   5
   3  -4   4 3229.84 1013.51  10
  -3   4  -5 7294.12 1330.76   4
   3   4   5 9016.89 1804.31   8
  -3   4  -5 8187.33 1833.98   7
   3  -4   5 6176.98 1462.89   3
  -3  -4  -5 7085.15 1642.32   5
   3  -4   5 7224.90 1588.55  10
  -3   4  -6 849.631 558.397   4
   3   4   6 4710.47 1448.35   8
  -3   4  -6 1554.31 911.064   7
   3  -4   6 2805.26 1045.94   3
  -3  -4  -6 4007.93 1269.05   5
   3  -4   6 2633.81 1039.29  10
  -3   4  -7 2.50325 343.591   4
   3   4   7-1309.72 888.198   8
  -3  -4  -7 334.676 538.747   5
   3  -4   7-446.657 451.805  10
  -3   5   8 73489.7 5608.20   9
   3   5  -7-245.730 600.390   6
  -3   5   7-47.7316 451.211   9
  -3  -5   7 540.849 618.815   9
   3  -5  -7 550.094 747.334   1
  -3  -5   6 60596.4 5033.24   9
  -3   5   6 58948.9 4075.60   7
   3  -5  -6 56565.1 4682.49   1
   3   5  -6 69560.5 5251.21   6
  -3   5   6 63899.1 4740.03   9
  -3   5   5 268.175 396.008   9
   3   5  -5 785.647 619.537   6
  -3  -5   5 397.382 521.740   9
   3  -5  -5 1188.70 693.576   1
  -3   5   5 1281.38 624.659   7
  -3  -5   5 354.316 439.524  10
  -3  -5   4 125924. 6349.29   9
   3  -5  -4 107916. 5719.41   1
  -3   5   4 116211. 5380.89   7
  -3  -5   4 124879. 5659.34  10
   3   5  -4 116883. 6171.40   6
  -3   5   4 122335. 5849.50   9
  -3   5   3 674.332 595.751   9
   3   5  -3 538.229 642.858   6
  -3  -5   3 142.796 461.308   9
   3  -5  -3 37.9653 551.961   1
  -3  -5   3 26.3952 259.615   5
  -3   5   3 457.918 423.771   7
  -3  -5   3 260.554 259.116  10
  -3  -5   2 221226. 7132.52   9
   3  -5  -2 205075. 7317.68   1
  -3  -5   2 221827. 6741.93   5
  -3   5   2 206611. 6986.35   7
  -3  -5   2 216315. 5852.21  10
   3   5  -2 215829. 7812.20   6
   3  -5  -1-143.219 464.768   1
  -3  -5   1 137.014 258.938   9
   3   5  -1 228.252 444.544   6
   3   5  -1 355.201 342.502   8
  -3  -5   1 141.267 428.111   5
  -3   5   1 88.9869 343.219   7
  -3  -5   1 326.552 244.629  10
  -3  -5   0 43658.4 2439.06   9
   3   5   0 43022.5 2920.74   8
  -3  -5   0 48321.9 3631.38   5
  -3   5   0 40903.4 3211.41   7
  -3  -5   0 44795.7 1774.17  10
   3  -5   0 43566.5 3213.01  10
   3   5   0 44613.2 3385.84   6
  -3  -5  -1 2924.80 507.545   9
   3   5   1 1946.21 710.434   8
  -3   5  -1 4007.22 1078.71   7
  -3  -5  -1 2307.08 886.173   5
   3  -5   1 2811.74 900.510  10
   3   5   2 201146. 7132.16   8
  -3  -5  -2 191748. 7840.67   5
   3  -5   2 176894. 6995.96   3
  -3   5  -2 186350. 7313.07   7
   3  -5   2 196161. 7337.70  10
   3   5   3 15511.7 2169.38   8
  -3  -5  -3 18766.1 2574.33   5
   3  -5   3 16543.8 2230.63   3
  -3   5  -3 13592.0 2115.52   7
   3  -5   3 15020.8 2202.96  10
  -3   5  -3 15111.4 1418.93   4
   3   5   4 40386.0 3736.41   8
  -3  -5  -4 46374.4 4185.98   5
   3  -5   4 43868.7 3761.16   3
  -3   5  -4 43705.1 3968.47   7
   3  -5   4 52296.4 4281.55  10
  -3   5  -4 53354.8 3146.74   4
  -3   5  -5 853.886 462.799   4
   3   5   5 313.928 630.121   8
  -3   5  -5 625.904 672.938   7
   3  -5   5 1334.79 734.373   3
  -3  -5  -5 1432.34 841.478   5
   3  -5   5 1272.87 775.585  10
   3   5   6 143855. 7958.28   8
  -3  -5  -6 141935. 7668.89   5
  -3   5  -6 144490. 8104.84   7
   3  -5   6 142451. 7840.60  10
  -3  -5  -7 7856.61 1916.00   5
   3  -5   7 4913.14 1529.43  10
   3   6  -7 3706.68 1375.70   6
  -3   6   7 3580.93 1227.55   9
  -3  -6   7 3930.66 1415.78   9
   3  -6  -7 4114.90 1502.46   1
  -3  -6   6 22344.3 3139.01   9
  -3   6   6 22529.5 2734.58   7
   3  -6  -6 24177.8 3233.38   1
  -3  -6   6 23931.2 3048.61  10
   3   6  -6 25611.0 3276.50   6
  -3   6   6 25533.2 3093.41   9
  -3   6   5 7020.87 1593.57   9
   3   6  -5 7115.01 1693.51   6
  -3  -6   5 5494.89 1537.29   9
   3  -6  -5 6517.69 1599.22   1
  -3   6   5 3973.31 1118.20   7
  -3  -6   5 8476.23 1708.98  10
  -3   6   4 4599.56 1179.42   9
   3   6  -4 3285.62 1102.06   6
  -3  -6   4 2622.89 986.210   9
  -3   6   4 2824.26 1002.60   7
  -3  -6   4 4302.07 1122.49  10
   3  -6  -4 2700.44 1082.58   1
  -3  -6   3 12372.5 1934.59   9
  -3  -6   3 13582.7 1664.74   5
  -3   6   3 13694.8 1999.58   7
   3  -6  -3 13433.1 2097.86   1
  -3  -6   3 16294.0 1935.73  10
   3   6  -3 15227.1 2255.09   6
   3   6  -2-238.698 408.479   6
  -3  -6   2 579.296 362.633   9
   3  -6  -2-563.197 522.296   1
  -3  -6   2 526.843 498.637   5
  -3   6   2-114.653 395.109   7
  -3  -6   2-175.442 274.465  10
   3  -6  -1 1321.35 805.875   1
  -3  -6   1 1103.98 560.157   9
   3   6  -1 1953.23 872.393   6
   3   6  -1 1991.84 683.488   8
  -3  -6   1 793.966 573.119   5
  -3   6   1 940.033 639.872   7
  -3  -6   1 1735.64 503.437  10
  -3  -6   0 5211.15 938.426   9
   3   6   0 3644.34 1055.27   6
   3   6   0 3023.57 896.574   8
  -3   6   0 3289.93 1059.53   7
  -3  -6   0 5019.64 1293.36   5
   3  -6   0 4233.10 1103.08  10
   3   6   1 11694.9 1742.36   8
  -3   6  -1 11316.7 1882.51   7
  -3  -6  -1 14631.2 2211.04   5
   3  -6   1 12152.8 1903.44  10
   3   6   2 552.586 495.670   8
  -3   6  -2 600.115 574.802   7
  -3  -6  -2 1027.19 784.858   5
   3  -6   2 1049.71 645.693  10
   3   6   3 5032.78 1315.94   8
  -3   6  -3 4133.16 1265.89   7
  -3  -6  -3 2996.28 1216.79   5
   3  -6   3 3579.46 1154.46  10
   3   6   4 719.207 679.594   8
  -3   6  -4 1279.64 812.413   7
  -3  -6  -4 1139.78 836.367   5
   3  -6   4 646.655 603.501  10
   3   6   5-37.5648 455.238   8
  -3   6  -5 2092.50 1008.68   7
  -3  -6  -5 1121.56 895.122   5
   3  -6   5 228.178 466.184  10
   3   6   6 1229.47 913.116   8
  -3   6  -6 421.290 530.130   7
  -3  -6  -6 1236.26 936.292   5
   3  -6   6 774.250 706.001  10
  -3   7   7 610.242 581.728   9
  -3  -7   6 39279.8 4302.91   9
  -3   7   6 37182.5 3784.06   7
   3  -7  -6 44651.3 4527.68   1
  -3  -7   6 39483.3 4020.22  10
   3   7  -6 35160.9 3973.44   6
  -3   7   6 38505.2 3935.45   9
   3   7  -5 1540.00 933.769   6
  -3  -7   5 3548.43 1253.25   9
   3  -7  -5 2635.92 1133.11   1
  -3   7   5 2170.80 919.472   7
  -3  -7   5 667.902 561.744  10
  -3  -7   4 132372. 6985.65   9
   3  -7  -4 104419. 6340.08   1
  -3   7   4 120820. 6399.31   7
  -3  -7   4 123374. 6042.76  10
   3   7  -4 125542. 6917.52   6
   3   7  -3 708.267 645.541   6
  -3  -7   3-577.171 477.975   9
   3  -7  -3-39.0875 458.138   1
  -3  -7   3 999.919 553.628   5
  -3   7   3 508.247 521.495   7
  -3  -7   3 1.70475 260.903  10
  -3  -7   2 111308. 5599.93   9
   3  -7  -2 107105. 6042.03   1
  -3  -7   2 107595. 5333.51   5
  -3   7   2 106020. 5796.94   7
   3   7  -2 114128. 4676.60   7
  -3  -7   2 109505. 4739.81  10
   3   7  -2 111983. 6196.98   6
  -3  -7   1 14641.4 1924.29   9
   3  -7  -1 12659.0 2061.83   1
   3   7  -1 13267.5 2102.35   6
   3   7  -1 15448.5 2049.15   8
  -3   7   1 15060.3 2201.88   7
  -3  -7   1 10925.8 1833.35   5
   3   7   0 122232. 5826.95   8
  -3  -7   0 123737. 6433.00   5
  -3   7   0 124289. 6353.19   7
   3  -7   0 126856. 6336.37  10
   3   7   0 129856. 6392.95   6
   3   7   1 8456.67 1652.48   8
  -3   7  -1 8717.42 1772.42   7
  -3  -7  -1 11177.2 2037.94   5
   3  -7   1 10944.8 1927.28  10
   3   7   2 141536. 6727.81   8
  -3  -7  -2 132710. 7260.48   5
  -3   7  -2 135472. 6978.86   7
   3  -7   2 130611. 6837.82  10
   3   7   3 4884.34 1309.62   8
  -3   7  -3 2348.86 990.552   7
  -3  -7  -3 4142.08 1459.78   5
   3  -7   3 2746.56 1041.56  10
   3   7   4 55246.4 4746.32   8
  -3  -7  -4 47314.6 4569.48   5
  -3   7  -4 46674.9 4397.65   7
   3  -7   4 43547.3 4334.39  10
   3   7   5 7803.59 1939.77   8
  -3   7  -5 8647.34 2004.64   7
  -3  -7  -5 13923.8 2554.04   5
   3  -7   5 9622.58 2169.67  10
  -3   8   6 2464.83 1091.19   7
  -3  -8   6 2941.15 1153.10  10
  -3  -8   5 21341.0 3094.78   9
   3  -8  -5 27285.2 3564.20   1
  -3   8   5 28836.2 3468.85   7
  -3  -8   5 25019.0 3061.35  10
   3   8  -5 30499.3 3664.47   6
   3   8  -4 7770.63 1844.44   6
  -3  -8   4 7480.55 1773.65   9
  -3   8   4 8131.15 1803.35   7
  -3  -8   4 3900.21 1169.49  10
   3  -8  -4 8285.57 1888.56   1
   3   8  -3 10828.6 2066.64   6
  -3  -8   3 9727.38 1926.18   9
   3  -8  -3 9688.48 2007.80   1
  -3   8   3 10210.5 1969.07   7
  -3  -8   3 10946.3 1736.78  10
   3   8  -2 6303.67 1639.68   6
   3  -8  -2 5988.10 1535.57   1
  -3  -8   2 6659.63 1450.34   5
  -3   8   2 5554.41 1504.65   7
   3   8  -1 8099.09 1736.24   6
   3  -8  -1 8468.45 1842.04   1
  -3   8   1 7823.41 1740.70   7
  -3  -8   1 9092.86 1828.14   5
   3  -8  -1 8056.00 1720.85  10
   3   8   0-444.920 565.263   6
   3   8   0 414.648 508.328   8
  -3   8   0 206.870 453.509   7
   3  -8   0-2.46042 179.311  10
   3   8   1 6556.31 1511.89   6
   3   8   1 6221.18 1453.09   8
  -3   8  -1 5640.71 1497.30   7
  -3  -8  -1 5975.19 1569.60   5
   3  -8   1 5937.92 1529.22  10
   3   8   2 2648.76 1027.54   8
  -3   8  -2 5490.31 1552.77   7
  -3  -8  -2 6183.95 1642.79   5
   3  -8   2 2087.81 917.482  10
   3   8   3 1494.97 865.298   8
  -3   8  -3 1794.80 849.308   7
  -3  -8  -3 1183.93 835.100   5
   3  -8   3 159.349 426.807  10
   3   8   4 9359.65 2083.16   8
  -3   8  -4 7462.27 1861.59   7
  -3  -8  -4 4519.72 1527.55   5
   3  -8   4 5769.33 1743.40  10
  -3   8  -5 2831.21 1230.41   7
   3  -8   5 1628.53 956.124  10
   3   9  -5-744.179 728.741   6
  -3  -9   5 1400.08 907.828   9
  -3   9   5 238.563 498.822   7
  -3  -9   4 39432.3 4113.16   9
   3  -9  -4 41825.5 4482.96   1
  -3   9   4 37993.3 4100.65   7
   3   9  -4 38452.9 4091.83   6
   3   9  -3-168.476 462.604   6
  -3  -9   3 13.2359 298.284   9
   3  -9  -3 46.3747 477.955   1
  -3   9   3 533.324 599.137   7
   3  -9  -2 31292.0 3689.51   1
  -3  -9   2 31625.8 3223.50   5
  -3   9   2 27522.7 3373.08   7
   3  -9  -2 25257.6 3235.38  10
   3   9  -2 31715.5 3586.82   6
   3   9  -1 4879.01 1468.59   6
   3  -9  -1 5216.33 1582.73   1
  -3   9   1 4032.85 1359.85   7
  -3  -9   1 3728.11 1239.62   5
   3   9  -1 4619.76 1170.92   7
   3  -9  -1 2997.67 1124.97  10
   3  -9   0 135289. 7503.12   1
   3   9   0 144890. 7363.48   8
  -3  -9   0 134807. 7335.61   5
  -3   9   0 141734. 7697.09   7
   3  -9   0 134755. 7400.46  10
   3   9   0 144445. 7399.63   6
   3   9   1 14027.5 2340.27   6
   3   9   1 15918.4 2480.35   8
  -3   9  -1 12413.0 2307.52   7
  -3  -9  -1 12693.2 2392.90   5
   3  -9   1 11741.4 2247.63  10
   3   9   2 26838.9 3344.50   8
  -3  -9  -2 35060.2 4057.27   5
  -3   9  -2 26499.3 3433.01   7
   3  -9   2 28076.3 3619.47  10
   3   9   3 6796.72 1843.78   8
  -3   9  -3 7131.19 1813.52   7
  -3  -9  -3 5719.02 1725.54   5
   3  -9   3 6527.23 1796.48  10
  -3 -10   4 19318.9 3009.94   9
   3  10  -3 4160.90 1406.54   6
  -3 -10   3 3585.32 1240.63   9
  -3  10   3 1854.63 1013.85   7
   3  10  -2 6710.33 1728.52   6
   3 -10  -2 5218.25 1659.33   1
  -3  10   2 4501.82 1526.77   7
  -3 -10   2 5384.20 1425.30   5
   3 -10  -2 5147.73 1603.92  10
   3 -10  -1 23468.0 3315.83  10
   3  10  -1 19999.9 2968.79   6
   3 -10  -1 20438.2 3123.74   1
  -3  10   1 21692.0 3199.90   7
  -3 -10   1 18358.3 2722.88   5
   3 -10   0 9562.90 2107.76   1
   3  10   0 8546.54 1945.09   6
  -3  10   0 8481.32 2010.24   7
  -3 -10   0 8358.26 1943.45   5
   3 -10   0 9492.14 2116.99  10
   3  10   1 2.87872 417.033   6
   3  10   1-1031.18 717.005   8
  -3  10  -1-763.096 732.545   7
  -3 -10  -1-1274.65 937.362   5
   3 -10   1-327.496 538.252  10
   3  10   2 2329.45 1032.45   6
   3  10   2 1639.35 914.194   8
  -3 -10  -2 1471.10 975.487   5
  -3 -11   1 4792.71 1526.51   5
   3  11   0 13391.2 2323.29   7
  -4   0   8 8834.24 2063.80   9
   4   0  -8 6625.10 1704.55   6
  -4   0   7 1006.76 735.378   9
   4   0  -7-112.420 243.866   6
   4   0  -6 184349. 7828.18   6
  -4   0   6 173731. 7931.26   9
   4   0  -5 184.599 375.792   6
   4   0  -5 112.143 429.978   2
  -4   0   5-122.735 473.335   9
   4   0  -5-265.479 369.889   1
   4   0  -4 36689.3 3147.17   2
   4   0  -4 39672.0 2764.21   1
   4   0  -4 33590.3 2903.50   6
  -4   0   4 33058.4 2983.34   9
   4   0  -3 452.185 377.904   6
  -4   0   3 785.848 520.275   9
   4   0  -3 36.4502 231.069   1
  -4   0   3 440.973 222.919   7
   4   0  -3-431.155 554.060   2
   4   0  -2 182502. 2290.34   8
  -4   0   2 180147. 6298.95   5
   4   0  -2 182016. 4904.12   1
  -4   0   2 186040. 4728.90   7
   4   0  -2 175354. 6417.88   2
   4   0  -2 186641. 6076.96   6
  -4   0   2 181826. 5948.14   9
  -4   0   1 226.222 390.894   9
   4   0  -1 364.213 383.301   6
   4   0  -1 166.272 308.821   1
   4   0  -1 521.713 233.098   8
  -4   0   1 361.122 556.696   5
  -4   0   1 458.874 399.115   7
  -4   0   0 451561. 10441.3   5
   4   0   0 441111. 7670.11   8
  -4   0   0 455902. 9237.47   7
   4   0   0 447633. 6243.72  10
   4   0   0 444969. 8911.02   6
  -4   0   0 444972. 7878.07   9
   4   0   1 76.7939 225.709   8
  -4   0  -1 535.910 578.714   5
   4   0   1 230.192 165.765  10
   4   0   2 5372.45 1132.04   8
  -4   0  -2 4893.49 1211.58   5
   4   0   2 5561.97 717.000  10
   4   0   3-23.3324 468.205   8
  -4   0  -3 63.8351 499.849   5
  -4   0  -4 359597. 10613.9   5
   4   0   4 364721. 10685.5   8
   4   0   5 562.617 610.960   8
  -4   0  -5 77.2164 444.730   5
   4   0   6 6614.02 1703.57   8
  -4   0  -6 9786.11 1877.09   5
  -4   1   8 5908.25 1710.82   9
   4  -1  -8 4586.45 1455.07   4
   4  -1  -8 2731.94 1117.64   6
   4   1  -8 3683.85 1328.72   6
   4   1  -7-136.233 434.588   6
  -4   1   7 2179.32 1003.48   9
  -4  -1   7 1018.32 955.697   9
   4  -1  -7 983.452 663.296   6
   4  -1  -6 21831.5 2613.97   6
   4  -1  -6 21041.0 2529.03   2
   4   1  -6 20757.2 2729.37   6
   4  -1  -6 22216.5 2637.96   1
  -4   1   6 19450.5 2659.74   9
  -4  -1   6 22510.4 2877.12   9
   4  -1  -5 951.221 561.460   6
   4   1  -5-325.630 454.394   6
  -4   1   5 206.992 391.642   9
  -4  -1   5 365.496 466.588   9
   4  -1  -5 1229.64 635.557   1
   4  -1  -5 1558.34 727.535   2
   4  -1  -4 82449.8 4195.98   1
   4  -1  -4 82177.7 4619.03   2
   4   1  -4 75798.0 4613.16   2
   4  -1  -4 81481.0 4269.05   6
   4   1  -4 86381.8 4874.02   6
   4   1  -4 89254.5 3944.60   1
  -4   1   4 83641.0 4742.84   9
  -4  -1   4 85137.3 4766.81   9
   4   1  -3 5742.03 893.450   1
   4  -1  -3 4283.17 932.399   6
  -4   1   3 4325.81 1019.63   9
   4   1  -3 5201.58 1151.03   6
  -4  -1   3 4039.65 985.929   9
  -4  -1   3 5877.58 1111.48   5
   4  -1  -3 6684.63 1021.32   3
  -4   1   3 5586.47 804.981   7
   4  -1  -3 3302.57 961.771   2
   4   1  -3 5599.21 1276.65   2
   4  -1  -3 5689.74 1041.03   1
   4   1  -2 204816. 2934.15   8
  -4  -1   2 199422. 6566.63   5
   4  -1  -2 202874. 3027.65   8
   4  -1  -2 204071. 5953.66   3
   4  -1  -2 196261. 5646.02   1
  -4   1   2 206137. 5380.98   7
   4   1  -2 209009. 4654.39   1
   4   1  -2 186002. 6741.54   2
   4  -1  -2 212476. 5936.99   6
   4   1  -2 200417. 6753.87   6
  -4   1   2 194160. 6311.53   9
  -4  -1   2 194840. 6093.26   9
  -4   1   1 984.202 466.972   9
  -4  -1   1 899.995 440.861   9
   4  -1  -1 1292.60 474.787   6
   4  -1  -1 870.679 433.086   1
   4   1  -1 1473.90 648.893   6
   4   1  -1 2067.66 469.813   8
  -4   1   1 2157.97 866.461   5
   4   1  -1 1158.79 350.557   1
  -4  -1   1 920.319 533.477   5
  -4   1   1 1136.81 469.323   7
   4   1  -1 1434.55 676.888   2
  -4   1   0 53624.2 3633.74   5
   4   1   0 64499.5 2928.62   8
  -4  -1   0 58748.4 3833.96   5
   4  -1   0 61921.1 2774.33  10
  -4   1   0 58039.3 3403.31   7
   4   1   0 54259.5 3428.85   2
   4   1   0 60925.9 1526.43  10
   4  -1   0 63685.6 3093.86   6
  -4   1   0 63446.8 3201.92   9
   4   1   0 57002.3 3408.32   6
  -4  -1   0 56971.1 2684.84   9
   4   1   1 3938.33 866.744   8
  -4   1  -1 3445.44 1034.21   5
  -4  -1  -1 2524.14 932.937   5
  -4   1  -1 3275.45 938.823   7
   4  -1   1 3787.33 717.268  10
  -4   1  -2 56856.4 3964.95   5
   4   1   2 66650.4 3833.56   8
  -4  -1  -2 62872.9 4251.99   5
  -4   1  -2 62811.5 4138.53   7
   4  -1   2 67129.1 3078.39  10
   4   1   3 966.331 687.439   8
  -4   1  -3 383.557 538.853   5
  -4  -1  -3 1094.48 716.696   5
   4  -1   3 1685.40 557.325  10
   4   1   4 6444.29 1470.37   8
   4  -1   4 8779.42 1671.48   8
  -4   1  -4 11676.2 1918.36   5
  -4  -1  -4 7534.71 1546.81   5
   4   1   5 4688.04 1368.40   8
   4  -1   5 2661.90 1026.59   8
  -4   1  -5 6267.64 1473.86   5
  -4  -1  -5 2785.02 1036.32   5
  -4   1  -6 2509.56 1008.94   4
   4   1   6 5629.64 1560.29   8
   4  -1   6 2251.12 1094.69   8
  -4   1  -6 5086.69 1385.24   5
  -4  -1  -6 2546.64 1050.61   5
  -4   1  -7 3669.77 1238.63   4
   4  -1   7 2639.25 1064.94   3
   4   2  -8 86562.3 6459.02   6
   4   2  -7 6083.19 1653.39   6
  -4   2   7 6929.81 1682.38   9
  -4  -2   7 9186.52 2001.92   9
   4  -2  -7 4489.19 1389.58   1
   4  -2  -7 8266.49 1685.61   6
   4  -2  -6 27918.5 2879.43   2
   4  -2  -6 35219.7 3190.13   6
   4  -2  -6 30641.4 3217.73   1
   4   2  -6 30333.6 3382.91   6
  -4   2   6 34025.4 3534.04   9
  -4  -2   6 31683.9 3464.96   9
  -4   2   5 952.251 634.398   9
  -4  -2   5-33.3226 476.985   9
   4   2  -5 107.054 403.311   6
   4  -2  -5-111.150 440.820   1
   4  -2  -5 106.648 417.687   2
   4  -2  -5 336.509 363.594   6
  -4  -2   4 170502. 5613.57   5
   4  -2  -4 154822. 6120.75   1
   4  -2  -4 164344. 6496.46   2
   4  -2  -4 183116. 6005.18   6
   4   2  -4 163551. 6978.22   6
  -4   2   4 162013. 6755.65   9
  -4  -2   4 168367. 6836.90   9
   4   2  -3 7681.25 1529.79   2
  -4   2   3 8920.19 1549.13   9
   4   2  -3 11797.1 1817.85   6
  -4  -2   3 11136.0 1514.64   5
   4  -2  -3 11333.0 1575.42   1
   4  -2  -3 11439.2 1391.19   3
  -4   2   3 10451.1 1247.79   7
   4  -2  -3 10101.8 1295.07   6
  -4  -2   3 11019.5 1604.47   9
   4   2  -2 155306. 3385.99   8
  -4  -2   2 150016. 5788.90   5
   4  -2  -2 154331. 5467.78   1
   4  -2  -2 143566. 5133.31   3
  -4   2   2 151833. 5008.87   7
   4   2  -2 134762. 5895.75   2
   4   2  -2 153981. 3326.99   1
   4  -2  -2 152024. 4553.52   6
   4   2  -2 140032. 5975.50   6
  -4   2   2 147573. 5652.48   9
  -4  -2   2 144692. 5233.93   9
  -4   2   1 579.889 466.555   9
  -4  -2   1 407.691 322.257   9
   4  -2  -1 547.746 382.460   1
   4  -2  -1 1078.28 410.709   6
   4   2  -1 1123.69 578.895   6
   4   2  -1 768.823 211.991   1
   4   2  -1 526.597 302.003   8
   4  -2  -1 226.908 422.444   3
  -4  -2   1 886.969 566.213   5
  -4   2   1 968.368 563.749   7
   4   2  -1-41.2349 433.095   2
   4   2   0 118254. 2561.44   1
   4   2   0 114893. 4126.53   8
  -4  -2   0 106681. 5232.16   5
   4  -2   0 106357. 4928.10   3
  -4   2   0 112727. 4932.24   7
   4   2   0 105818. 4919.23   2
   4  -2   0 116253. 4308.71  10
   4  -2   0 117118. 3756.41   6
   4   2   0 109855. 5023.43   6
  -4  -2   0 118625. 3699.09   9
  -4  -2  -1 1397.37 354.110   9
   4   2   1 1150.69 531.230   8
  -4   2  -1 360.460 545.753   5
  -4  -2  -1 960.886 626.510   5
  -4   2  -1 1608.15 679.689   7
   4  -2   1 1405.63 507.213  10
   4   2   1 371.896 461.905   2
  -4   2  -2 201831. 7499.14   5
   4   2   2 208414. 6859.81   8
  -4  -2  -2 189981. 7513.47   5
  -4   2  -2 198776. 7540.04   7
   4   2   2 209516. 6506.08   2
   4  -2   2 202138. 6181.10  10
   4   2   3 3979.32 1081.62   8
  -4   2  -3 2285.10 886.952   5
  -4  -2  -3 2916.88 1015.54   5
  -4   2  -3 1512.51 832.514   7
   4  -2   3 2691.21 759.165  10
   4   2   3 3352.15 806.974   2
  -4   2  -4 32383.7 3173.04   5
   4   2   4 28403.7 2994.10   8
  -4  -2  -4 33587.8 3421.20   5
   4  -2   4 28608.8 3117.91   3
  -4   2  -4 29575.5 3315.54   7
   4  -2   4 31258.6 2717.41  10
  -4   2  -5 431.350 422.233   4
   4   2   5 353.016 478.133   8
  -4   2  -5-126.936 440.706   5
   4  -2   5-510.516 556.906   3
  -4  -2  -5 356.496 532.813   5
  -4   2  -6 125928. 6514.19   5
   4   2   6 128945. 7429.73   8
   4  -2   6 121790. 7314.93   8
  -4  -2  -6 115141. 6668.57   5
   4  -2   6 115446. 6647.70   3
  -4   2  -6 115281. 6085.40   4
  -4   2  -7 424.123 425.453   4
   4  -2   7-207.099 480.256   3
  -4  -2  -7-278.973 394.833   5
   4  -3  -8 831.484 777.763   1
   4   3  -7 1535.82 851.893   6
  -4   3   7-768.569 606.274   9
  -4  -3   7 1181.83 770.011   9
   4  -3  -7 1766.32 919.239   1
   4   3  -6 570.933 748.799   6
  -4   3   6 1688.76 928.296   9
   4  -3  -6 36.6460 441.305   1
  -4  -3   6 881.615 673.445   9
   4  -3  -6 208.598 462.544   2
  -4   3   5-127.439 420.997   9
  -4  -3   5-252.421 455.721   9
   4  -3  -5-382.397 539.062   1
   4  -3  -5-363.419 451.573   2
   4  -3  -5-16.5581 171.340   6
   4  -3  -4 8607.67 1579.67   1
  -4   3   4 7317.59 1524.70   9
   4   3  -4 6886.24 1541.84   6
  -4  -3   4 5067.89 1269.92   9
  -4  -3   4 7249.85 1184.23   5
  -4   3   4 7621.47 1161.69   7
   4  -3  -4 6181.73 1057.00   6
  -4   3   3 11087.5 1716.26   9
   4   3  -3 9449.32 1741.58   6
  -4  -3   3 10955.0 1660.43   9
  -4   3   3 11402.1 1468.19   7
  -4  -3   3 8956.73 1390.81   5
   4  -3  -3 10440.6 1616.85   1
   4  -3  -3 11321.0 1248.02   6
  -4  -3   2 10557.6 1458.55   9
  -4   3   2 10467.1 1586.96   9
   4   3  -2 9979.58 1701.33   6
   4   3  -2 12178.1 1180.46   8
   4  -3  -2 8034.37 1385.33   1
  -4   3   2 10620.4 1449.31   7
  -4  -3   2 10064.4 1545.89   5
   4  -3  -2 10030.8 1475.44   3
   4  -3  -2 9575.53 1000.48   6
  -4   3   1 2309.23 730.286   9
   4  -3  -1 1772.15 390.114   6
   4   3  -1 2176.37 815.839   2
   4  -3  -1 918.153 541.213   1
  -4  -3   1 1638.91 522.896   9
   4   3  -1 2356.86 871.373   6
   4   3  -1 1796.19 529.773   8
  -4  -3   1 3131.64 949.095   5
   4  -3  -1 2525.59 848.530   3
  -4   3   1 1784.55 661.324   7
   4   3   0 1929.02 720.678   2
  -4  -3   0 679.308 318.132   9
   4   3   0 1241.95 617.515   6
   4   3   0 1159.11 493.610   8
   4  -3   0 1132.23 690.035   3
  -4  -3   0-605.307 578.275   5
  -4   3   0 925.721 539.394   7
   4  -3   0 1574.53 606.875  10
   4   3   1 492.883 525.509   2
   4   3   1 1673.82 629.308   8
   4  -3   1 361.832 434.957   3
  -4  -3  -1-21.6430 553.108   5
  -4   3  -1 1790.33 863.731   7
   4  -3   1 621.510 388.234  10
   4   3   2 1000.90 525.157   2
   4   3   2 574.729 419.063   8
   4  -3   2 1268.68 765.598   3
  -4  -3  -2-349.127 548.427   5
  -4   3  -2 791.146 551.212   7
   4  -3   2 725.414 447.477  10
   4   3   3 10412.6 1453.24   2
   4   3   3 8252.61 1538.56   8
   4  -3   3 8567.18 1707.56   3
  -4   3  -3 10378.4 1952.82   7
  -4  -3  -3 9229.54 1786.67   5
   4  -3   3 10463.7 1644.41  10
   4   3   4-948.396 634.919   8
   4  -3   4-11.7590 573.429   3
  -4   3  -4 219.452 650.411   7
  -4  -3  -4 188.511 479.139   5
   4  -3   4-135.939 333.428  10
  -4   3  -5 6564.72 1316.54   4
   4   3   5 3967.69 1259.62   8
   4  -3   5 3100.42 1141.97   3
  -4  -3  -5 2869.48 1132.77   5
   4  -3   5 5898.61 1358.90  10
  -4   3  -6 2962.64 980.223   4
   4   3   6 4294.37 1404.54   8
   4  -3   6 5162.19 1452.29   3
  -4  -3  -6 4216.71 1380.15   5
  -4  -3  -7 110.951 403.675   5
   4   4  -7 5908.57 1679.14   6
  -4   4   7 4796.27 1454.32   9
  -4  -4   7 4093.61 1409.99   9
   4  -4  -7 3065.21 1250.84   1
  -4  -4   6 40970.2 4149.37   9
   4  -4  -6 39654.4 3416.35   2
   4  -4  -6 37435.0 3817.95   1
   4   4  -6 39839.3 4131.07   6
  -4   4   6 31569.1 3519.08   9
  -4   4   5 6101.92 1511.40   9
   4   4  -5 7972.01 1760.06   6
  -4  -4   5 6167.79 1535.77   9
   4  -4  -5 5652.17 1429.06   1
  -4  -4   4 127530. 6345.74   9
   4  -4  -4 120158. 6074.37   1
  -4   4   4 124207. 5165.90   7
   4   4  -4 124666. 6651.22   6
  -4   4   4 114734. 6023.92   9
  -4   4   3 4294.16 1159.68   9
   4   4  -3 4768.20 1309.96   6
  -4  -4   3 3941.48 1044.53   9
  -4  -4   3 4066.45 966.563   5
   4  -4  -3 2551.85 938.337   1
  -4   4   3 4268.61 987.538   7
  -4  -4   2 115112. 4999.75   9
   4   4  -2 120783. 4225.45   8
   4  -4  -2 103920. 5235.48   1
  -4  -4   2 117610. 5308.09   5
  -4   4   2 117443. 5185.83   7
   4   4  -2 107741. 5776.07   6
  -4   4   2 115897. 5477.10   9
   4  -4  -1 1236.45 683.120   1
  -4  -4   1 369.856 318.747   9
   4   4  -1 584.333 497.509   6
   4   4  -1 136.668 234.161   8
  -4  -4   1 1623.15 758.402   5
   4  -4  -1 1239.51 656.443   3
  -4   4   1 739.185 558.854   7
   4   4   0 44087.0 2902.09   8
  -4  -4   0 37576.4 3293.51   5
   4  -4   0 40003.0 3276.47   3
  -4   4   0 41585.1 3293.43   7
   4  -4   0 41193.9 3086.39  10
   4   4   0 43890.0 3513.73   6
  -4  -4   0 42331.8 2214.11   9
   4   4   1-20.1505 245.620   8
   4  -4   1 303.800 510.584   3
  -4  -4  -1-267.234 541.218   5
  -4   4  -1 387.105 504.840   7
   4  -4   1 62.6730 245.893  10
   4   4   2 262594. 8367.13   8
  -4  -4  -2 246943. 9117.48   5
   4  -4   2 230969. 8438.82   3
  -4   4  -2 250312. 8939.82   7
   4  -4   2 259432. 8264.62  10
   4   4   3 5473.67 1328.19   8
   4  -4   3 3860.30 1266.47   3
  -4   4  -3 4308.35 1290.03   7
  -4  -4  -3 7269.05 1735.37   5
   4  -4   3 3401.22 1028.88  10
   4   4   4 26791.6 3135.35   8
  -4  -4  -4 26456.9 3199.07   5
   4  -4   4 26246.8 3075.63   3
  -4   4  -4 27232.7 3346.77   7
   4  -4   4 27929.4 3008.09  10
   4   4   5 10511.1 2108.60   8
  -4   4  -5 8783.76 1981.80   7
   4  -4   5 11764.0 2182.17   3
  -4  -4  -5 10662.0 2142.37   5
   4  -4   5 12309.2 2150.58  10
   4   4   6 78122.3 6091.60   8
  -4  -4  -6 78095.4 5847.38   5
   4  -4   6 76974.0 5646.52   3
  -4   5   7 4812.83 1519.42   9
   4  -5  -7 5422.83 1673.02   1
   4   5  -6 21115.9 3101.86   6
  -4   5   6 18358.9 2760.97   9
  -4  -5   6 20173.3 2982.94   9
   4  -5  -6 19921.9 2895.22   1
  -4   5   5 10780.2 2007.97   9
   4   5  -5 11056.8 2149.65   6
  -4  -5   5 11523.3 2141.70   9
   4  -5  -5 14027.9 2345.23   1
  -4  -5   4 34387.5 3406.65   9
   4  -5  -4 33858.7 3421.67   1
  -4   5   4 34610.2 2987.71   7
   4   5  -4 33950.4 3601.12   6
  -4   5   4 32936.3 3351.87   9
  -4   5   3 6678.72 1484.54   9
   4   5  -3 6025.43 1534.65   6
  -4  -5   3 4493.66 1177.99   9
   4  -5  -3 5603.54 1393.25   1
  -4  -5   3 4885.22 1079.84   5
  -4   5   3 5122.57 1187.88   7
  -4  -5   2 114384. 5250.51   9
   4  -5  -2 107599. 5695.28   1
  -4  -5   2 114474. 5419.85   5
  -4   5   2 106774. 5320.40   7
   4   5  -2 111799. 6142.60   6
  -4  -5   1 29242.0 2319.71   9
   4  -5  -1 25252.8 2711.94   1
   4   5  -1 33451.3 2591.92   8
  -4  -5   1 29987.2 2937.82   5
  -4   5   1 27433.5 2781.20   7
   4   5  -1 28941.0 3036.90   6
   4   5   0 22654.9 2234.90   8
  -4  -5   0 24541.5 2784.63   5
  -4   5   0 23253.1 2617.62   7
   4  -5   0 24698.0 2601.62  10
   4   5   0 21452.9 2590.17   6
   4   5   1 36660.1 3042.67   8
  -4  -5  -1 34469.0 3452.52   5
   4  -5   1 30241.4 3071.15   3
  -4   5  -1 32787.5 3219.75   7
   4  -5   1 30197.3 2903.54  10
   4   5   2 36325.1 3276.39   8
  -4  -5  -2 32921.2 3514.49   5
   4  -5   2 29562.3 3192.99   3
  -4   5  -2 34557.2 3461.00   7
   4  -5   2 33090.8 3186.33  10
   4   5   3 4053.95 1236.29   8
  -4   5  -3 2767.94 1061.04   7
   4  -5   3 3398.33 1195.64   3
  -4  -5  -3 3443.12 1283.36   5
   4  -5   3 3270.04 1123.14  10
   4   5   4 2282.66 913.811   8
  -4   5  -4 2636.44 1103.14   7
   4  -5   4 4639.07 1412.07   3
  -4  -5  -4 1991.33 1076.87   5
   4  -5   4 2581.15 1016.08  10
   4   5   5 11254.1 2267.45   8
  -4   5  -5 7479.67 1920.68   7
  -4  -5  -5 7817.92 1886.23   5
   4  -5   5 10326.0 2095.97   3
   4  -5   5 7572.12 1729.14  10
  -4  -5  -6 2044.38 1013.30   5
   4  -5   6 3130.20 1225.02   3
  -4  -6   6 95952.6 6657.90   9
   4  -6  -6 96146.8 6661.43   1
   4   6  -6 96829.9 6799.31   6
  -4   6   6 93600.0 6364.58   9
  -4   6   5 5710.01 1523.04   9
   4   6  -5 7328.79 1898.24   6
  -4  -6   5 9817.37 2026.77   9
   4  -6  -5 9443.28 2026.11   1
  -4   6   5 5706.76 1373.80   7
  -4  -6   4 24020.8 2973.68   9
   4  -6  -4 18960.7 2742.34   1
  -4   6   4 23569.9 2695.14   7
   4   6  -4 19506.3 2860.91   6
  -4   6   4 25868.9 3068.16   9
   4   6  -3-58.1430 351.821   6
  -4  -6   3-476.289 490.257   9
   4  -6  -3 646.583 677.779   1
  -4  -6   3-192.026 356.510   5
  -4   6   3 100.410 469.405   7
  -4  -6   2 76283.8 4490.04   9
   4  -6  -2 79158.7 5192.36   1
  -4  -6   2 79040.5 4676.94   5
  -4   6   2 76707.3 4876.57   7
   4   6  -2 74673.0 5244.52   6
   4  -6  -1 443.443 735.654   1
  -4  -6   1 378.427 307.735   9
   4   6  -1 374.735 516.149   6
   4   6  -1-8.19434 216.263   8
  -4  -6   1-374.879 496.893   5
  -4   6   1 1022.97 628.357   7
   4   6   0 170516. 6583.96   8
  -4  -6   0 161050. 7438.13   5
  -4   6   0 161581. 7266.40   7
   4  -6   0 170264. 7259.62  10
   4   6   0 153092. 7172.83   6
   4   6   1 551.573 458.715   8
  -4   6  -1 1222.20 727.872   7
  -4  -6  -1 1600.96 870.752   5
   4  -6   1 671.401 560.428  10
   4   6   2 46267.7 3866.73   8
  -4  -6  -2 43848.2 4217.20   5
  -4   6  -2 38206.8 3803.32   7
   4  -6   2 41475.6 3812.16  10
   4   6   3 8512.83 1796.79   8
  -4   6  -3 7318.50 1791.26   7
  -4  -6  -3 5939.12 1646.54   5
   4  -6   3 6330.63 1569.57  10
   4   6   4 202442. 9155.51   8
  -4  -6  -4 176392. 8967.18   5
  -4   6  -4 196040. 9381.44   7
   4  -6   4 197530. 9024.33  10
   4   6   5 18837.9 3014.90   8
  -4   6  -5 18844.2 3118.63   7
  -4  -6  -5 20960.2 3179.04   5
   4  -6   5 16539.2 2682.42  10
   4   7  -5 13919.6 2591.34   6
   4  -7  -5 16249.6 2765.44   1
  -4  -7   5 11979.7 2288.61   9
  -4   7   5 12924.2 2184.75   7
   4   7  -4 5094.89 1544.05   6
  -4  -7   4 4384.78 1325.23   9
  -4   7   4 4860.23 1339.68   7
   4  -7  -4 4710.91 1478.17   1
   4   7  -3 4664.60 1409.32   6
  -4  -7   3 7838.13 1681.85   9
   4  -7  -3 8881.29 1909.01   1
  -4   7   3 6929.92 1641.67   7
   4   7  -2 6621.49 1736.37   6
  -4  -7   2 7525.71 1489.25   9
   4  -7  -2 5271.08 1493.28   1
  -4  -7   2 8400.81 1591.27   5
  -4   7   2 8143.11 1717.56   7
   4  -7  -1 18615.6 2654.56   1
   4   7  -1 19565.2 2372.91   8
  -4  -7   1 14273.0 2219.89   5
  -4   7   1 16632.2 2461.39   7
   4   7  -1 19701.9 2754.12   6
   4  -7  -1 15114.6 2311.19  10
   4   7   0 26538.3 2809.49   8
  -4  -7   0 27275.8 3215.41   5
  -4   7   0 28182.2 3223.53   7
   4  -7   0 26720.0 3086.61  10
   4   7   0 26113.0 3155.85   6
   4   7   1 16566.4 2320.73   8
   4   7   1 17270.6 2568.76   6
  -4   7  -1 12025.6 2208.96   7
  -4  -7  -1 15824.2 2582.55   5
   4  -7   1 13406.1 2224.58  10
   4   7   2 6788.37 1597.86   8
  -4   7  -2 8175.45 1889.01   7
  -4  -7  -2 6886.55 1743.08   5
   4  -7   2 6842.05 1686.38  10
   4   7   3 2163.37 1029.23   8
  -4   7  -3 2357.20 1116.86   7
  -4  -7  -3 1770.49 1196.75   5
   4  -7   3 2286.09 1024.07  10
   4   7   4 3234.67 1268.92   8
  -4   7  -4 2556.66 1187.04   7
  -4  -7  -4 2862.84 1308.77   5
   4  -7   5 4578.60 1516.78  10
  -4  -8   5 1254.62 813.899   9
  -4   8   5 390.195 493.687   7
  -4  -8   4 67389.3 5300.26   9
   4  -8  -4 80881.8 6218.91   1
  -4   8   4 68429.0 5305.49   7
   4   8  -4 71160.7 5804.43   6
   4  -8  -3 3601.64 1414.21   1
  -4   8   3 4011.85 1275.50   7
   4  -8  -2 59041.0 5058.40   1
  -4  -8   2 58436.8 4397.48   5
  -4   8   2 55385.7 4715.79   7
   4   8  -2 58252.4 5032.79   6
   4   8  -1 1192.34 781.966   6
   4  -8  -1 495.339 630.970   1
   4   8  -1 1477.10 809.828   8
  -4  -8   1 2889.59 1089.68   5
  -4   8   1 1153.99 735.284   7
   4  -8  -1 1347.06 778.836  10
   4  -8   0 83929.6 5940.08   1
   4   8   0 84513.0 5378.95   8
  -4  -8   0 83143.5 5831.12   5
  -4   8   0 82414.3 5853.27   7
   4  -8   0 76818.0 5553.41  10
   4   8   0 86616.4 5907.94   6
   4   8   1 4911.36 1427.62   6
   4   8   1 8025.76 1704.91   8
  -4   8  -1 8706.52 1945.85   7
  -4  -8  -1 9187.47 2034.42   5
   4  -8   1 5944.42 1583.53  10
   4   8   2 61942.0 4954.06   8
  -4  -8  -2 62451.5 5545.85   5
  -4   8  -2 53610.9 4950.17   7
   4  -8   2 56376.3 4995.91  10
   4   8   3 363.479 511.075   8
  -4   8  -3 1183.54 799.944   7
  -4  -8  -3 2811.81 1260.45   5
   4  -8   3 1706.01 947.411  10
  -4  -9   4-533.043 612.180   9
  -4   9   4 569.427 615.248   7
   4   9  -3 1110.61 833.346   6
  -4   9   3-233.597 449.054   7
   4   9  -2 172.939 512.699   6
   4  -9  -2-103.338 602.552   1
  -4  -9   2 1410.80 782.257   5
  -4   9   2 433.132 606.230   7
   4  -9  -2 856.924 680.642  10
   4   9  -1 3071.42 1332.40   6
   4  -9  -1 4911.87 1604.51   1
  -4  -9   1 3616.02 1303.50   5
  -4   9   1 2370.37 1104.49   7
   4  -9  -1 2908.68 1183.89  10
   4  -9   0 424.967 724.218   1
   4   9   0 441.323 605.650   6
   4   9   0-195.568 495.744   8
  -4   9   0 909.399 755.422   7
  -4  -9   0-464.471 648.199   5
   4  -9   0 930.714 800.775  10
   4   9   1 3380.95 1278.64   6
   4   9   1 3551.19 1321.57   8
  -4   9  -1 3412.64 1312.52   7
  -4  -9  -1 3207.56 1266.90   5
   4  -9   1 3107.64 1214.58  10
   4   9   2 2700.25 1122.25   8
   4  -9   2 616.425 597.012  10
  -4 -10   1-1038.34 805.286   5
  -5   0   7 3110.23 1252.91   9
   5   0  -7 3188.26 1210.09   6
   5   0  -6-12.5462 294.474   6
   5   0  -6 285.402 527.043   2
  -5   0   6 131.486 337.517   9
   5   0  -5 17944.2 2592.95   2
   5   0  -5 21407.7 2640.56   6
  -5   0   5 18359.3 2611.07   9
   5   0  -4 576.119 489.079   6
  -5   0   4 506.341 567.912   9
   5   0  -4 421.643 611.828   2
  -5   0   3 6544.35 1352.91   9
   5   0  -3 6601.18 1309.99   6
   5   0  -3 5926.28 1044.69   1
   5   0  -3 5321.49 1388.78   2
  -5   0   2 370.497 379.864   9
   5   0  -2 363.885 373.329   6
  -5   0   2 112.814 506.256   5
   5   0  -2-396.289 325.112   1
   5   0  -2 223.308 527.043   2
  -5   0   1 7014.05 1231.30   9
   5   0  -1 9036.02 1483.24   6
   5   0  -1 7565.64 1086.43   1
  -5   0   1 5892.66 1435.96   5
   5   0  -1 7811.42 1543.58   2
  -5   0   0-297.831 291.870   9
   5   0   0-577.923 400.638   6
   5   0   0 52.4122 357.705   8
  -5   0   0 332.984 557.903   5
   5   0   0-291.909 281.689   1
   5   0   1 3822.04 961.125   6
   5   0   1 4186.21 945.833   8
  -5   0  -1 4155.13 1275.73   5
   5   0   2-169.471 328.176   8
  -5   0  -2 731.038 792.817   5
   5   0   3 22056.7 2651.00   8
  -5   0  -3 17112.7 2528.85   5
   5   0   4-203.492 402.573   8
  -5   0  -4 35.2635 573.856   5
   5   0   5 948.448 707.479   8
  -5   0  -5 2050.80 1064.65   5
  -5   0  -6 1446.88 862.368   5
   5   1  -7 7151.80 1822.28   6
   5  -1  -7 5534.95 1477.63   6
   5  -1  -6 32893.1 3496.08   2
   5  -1  -6 33916.6 3420.42   6
   5   1  -6 33344.6 3661.14   6
   5  -1  -6 40761.4 3645.02   1
  -5   1   6 33196.1 3710.99   9
  -5  -1   6 38388.1 3989.44   9
   5  -1  -5 34.4017 180.097   6
   5   1  -5-132.903 446.929   6
   5   1  -5-698.135 695.741   2
  -5   1   5-154.537 591.427   9
  -5  -1   5 437.391 497.478   9
   5  -1  -5-183.375 326.546   1
   5  -1  -5 171.027 460.321   2
   5  -1  -4 91385.3 4672.62   1
   5  -1  -4 93923.4 5585.72   2
   5   1  -4 102557. 5977.31   2
   5  -1  -4 107169. 5230.21   6
   5   1  -4 95148.7 5520.75   6
  -5   1   4 106154. 5852.90   9
  -5  -1   4 104372. 5677.10   9
   5  -1  -3 8856.47 1394.81   1
   5  -1  -3 8060.41 1388.58   6
  -5   1   3 8842.43 1628.48   9
  -5  -1   3 7560.55 1465.53   9
   5   1  -3 8467.55 1620.29   6
  -5  -1   3 10475.9 1740.45   5
   5  -1  -3 6842.58 1207.47   3
   5  -1  -3 7899.25 1625.07   2
   5   1  -3 4908.26 1359.26   2
  -5  -1   2 76386.9 4762.32   5
   5  -1  -2 69583.9 4076.32   3
   5  -1  -2 79159.3 3883.46   1
  -5   1   2 74182.8 3726.98   7
   5   1  -2 62975.7 4471.70   2
   5  -1  -2 69271.3 3839.43   6
   5   1  -2 74550.4 4590.54   6
  -5   1   2 72825.8 4301.81   9
  -5  -1   2 69854.6 4025.90   9
  -5   1   1-102.214 214.796   9
  -5  -1   1-110.105 241.623   9
   5  -1  -1-85.4404 241.943   6
   5   1  -1 511.983 447.724   6
   5  -1  -1-161.080 278.262   1
  -5   1   1 520.824 530.642   5
  -5  -1   1 284.256 574.903   5
  -5   1   1 470.149 389.027   7
   5   1  -1 379.061 567.911   2
  -5   1   0 45852.7 3912.32   5
   5   1   0 49644.0 2903.54   8
  -5  -1   0 54041.2 4207.18   5
   5  -1   0 49220.6 2931.56   8
  -5   1   0 45277.2 3413.90   7
   5   1   0 40667.7 3425.05   2
   5  -1   0 48082.6 3100.35   6
   5   1   0 51754.3 3661.58   6
  -5  -1   0 48186.3 2818.11   9
   5  -1   1 1434.79 594.400   6
   5   1   1 64.2822 306.079   6
   5   1   1 1825.01 642.268   8
   5  -1   1 1246.14 512.039   8
  -5   1  -1 1304.32 917.520   5
  -5  -1  -1 2941.63 1172.57   5
  -5   1  -1 1776.30 775.682   7
   5   1   1 2120.61 856.632   2
  -5   1  -2 106156. 6123.69   5
   5   1   2 118635. 5551.09   8
  -5  -1  -2 106111. 6220.41   5
   5  -1   2 111525. 5437.89   8
   5   1   2 106488. 5332.48   2
   5   1   3 2099.76 825.661   8
   5  -1   3 2676.21 945.978   8
  -5   1  -3 2631.86 1250.33   5
  -5  -1  -3 2646.18 1120.74   5
   5   1   3 1761.65 721.558   2
  -5   1  -4 56490.5 4691.05   5
   5   1   4 56837.6 4529.46   8
  -5  -1  -4 55005.6 4753.91   5
   5  -1   4 50942.2 4346.97   8
   5   1   5 3296.07 1205.61   8
   5  -1   5 3612.07 1330.23   8
  -5   1  -5 3564.18 1265.08   5
  -5  -1  -5 4467.62 1507.42   5
  -5   1  -6 81922.6 5918.72   5
  -5  -1  -6 71627.7 5668.70   5
   5   2  -7 1898.94 960.854   6
   5  -2  -7-647.983 554.465   1
   5   2  -6 9922.17 2019.82   6
  -5   2   6 8799.10 1926.15   9
  -5  -2   6 7371.14 1794.66   9
   5  -2  -6 9937.60 1882.41   1
   5  -2  -6 8346.87 1814.10   2
   5   2  -5 1900.80 905.138   6
  -5   2   5 2804.91 1085.14   9
  -5  -2   5 1647.19 857.496   9
   5  -2  -5 2330.84 897.786   1
   5  -2  -5 1961.71 883.548   2
  -5   2   4 13849.2 2173.95   9
   5   2  -4 9572.02 1864.61   6
   5   2  -4 12132.0 2144.17   2
  -5  -2   4 12854.6 2052.58   9
   5  -2  -4 15123.1 2025.09   1
   5  -2  -4 12970.8 2084.98   2
   5   2  -3 2104.66 964.469   2
  -5   2   3 2270.43 870.413   9
  -5  -2   3 1832.37 834.064   9
   5   2  -3 4087.84 1166.65   6
  -5  -2   3 3159.14 1027.63   5
   5  -2  -3 5108.35 1124.39   3
   5  -2  -3 2710.97 833.167   1
  -5  -2   2 20200.4 2503.95   5
   5  -2  -2 15235.9 1876.87   1
   5  -2  -2 15960.1 2008.79   3
  -5   2   2 18595.5 1993.85   7
   5   2  -2 15763.5 2294.44   2
   5   2  -2 19019.0 2445.97   6
  -5   2   2 15259.5 2075.19   9
  -5  -2   2 16051.5 1924.08   9
   5   2  -1 10591.7 1764.10   6
   5  -2  -1 12087.2 1644.79   1
  -5  -2   1 15063.0 2234.59   5
   5  -2  -1 14583.9 2021.01   3
  -5   2   1 14001.6 1860.09   7
  -5   2   1 11937.1 1752.61   9
  -5  -2   1 12413.1 1546.64   9
   5   2  -1 11136.3 1929.82   2
   5   2   0 11744.6 1833.67   6
   5   2   0 12347.5 1520.10   8
   5  -2   0 11393.4 1885.11   3
  -5  -2   0 11771.6 2110.95   5
  -5   2   0 10132.4 1687.72   7
   5  -2   0 9656.68 1336.49  10
   5   2   0 10226.8 1789.16   2
   5   2   1 9231.88 1458.76   8
  -5   2  -1 7624.07 1699.67   5
   5  -2   1 7965.02 1650.92   3
  -5  -2  -1 8207.11 1749.46   5
  -5   2  -1 7358.13 1545.74   7
   5   2   1 7850.75 1515.02   2
   5   2   2 5774.21 1261.41   8
  -5   2  -2 9339.40 1884.09   5
   5  -2   2 8922.19 1845.45   3
  -5  -2  -2 9340.63 1894.87   5
  -5   2  -2 7978.31 1741.95   7
   5   2   2 7351.02 1433.48   2
   5   2   3 6062.25 1381.93   8
  -5   2  -3 5574.52 1549.87   5
   5  -2   3 6140.92 1608.94   3
  -5  -2  -3 7471.50 1809.98   5
  -5   2  -3 6046.35 1623.54   7
   5   2   4 900.508 660.795   8
   5  -2   4 929.431 926.519   8
  -5   2  -4 2109.16 1132.40   5
   5  -2   4 162.635 569.101   3
  -5  -2  -4 1188.14 730.107   5
   5   2   5 5006.38 1473.89   8
   5  -2   5 4249.67 1324.43   8
  -5   2  -5 5781.62 1616.80   5
   5  -2   5 5628.04 1589.70   3
  -5  -2  -5 3607.93 1356.57   5
  -5   2  -6 1625.58 940.993   5
   5  -3  -7 3064.90 1221.80   1
   5  -3  -6 108171. 6312.05   2
   5   3  -6 115493. 7220.26   6
  -5   3   6 123228. 7311.49   9
  -5  -3   6 129409. 7410.58   9
  -5   3   5 7758.49 1775.96   9
   5   3  -5 7486.71 1800.56   6
  -5  -3   5 8068.80 1744.10   9
   5  -3  -5 8189.20 1703.26   1
   5  -3  -5 8126.69 1730.20   2
   5  -3  -4 25802.2 2822.87   1
   5   3  -4 30013.1 3394.47   6
  -5   3   4 30567.8 3273.92   9
  -5  -3   4 28535.9 3016.57   9
  -5   3   3 431.213 476.223   9
  -5  -3   3-239.601 368.014   9
   5   3  -3 1112.59 707.982   6
  -5  -3   3 817.976 573.822   5
  -5   3   3 565.056 413.612   7
   5  -3  -3-488.718 515.542   1
  -5  -3   2 169714. 7171.73   5
   5  -3  -2 156313. 6417.87   1
   5  -3  -2 149634. 6265.45   3
  -5   3   2 158657. 6144.27   7
   5   3  -2 139876. 6934.41   2
   5   3  -2 156852. 7299.63   6
  -5   3   2 149276. 6575.00   9
  -5  -3   2 156288. 5933.40   9
   5   3  -1 2564.55 1064.20   2
  -5  -3   1 1916.04 632.286   9
   5   3  -1 3127.58 1058.69   6
   5  -3  -1 4222.70 1061.13   1
  -5  -3   1 3650.73 1167.02   5
   5  -3  -1 2154.95 785.472   3
  -5   3   1 1807.76 734.807   7
   5   3   0 178102. 5925.76   8
  -5  -3   0 172820. 7720.43   5
   5  -3   0 162712. 7163.53   3
  -5   3   0 176482. 7177.74   7
   5   3   0 165787. 7172.44   2
   5  -3   0 176717. 6279.59  10
   5   3   0 173618. 7391.49   6
   5   3   1-149.279 430.550   2
   5   3   1 639.004 711.180   6
   5   3   1 684.091 480.623   8
   5  -3   1 971.624 683.327   3
  -5  -3  -1 1290.81 772.714   5
  -5   3  -1 788.430 589.654   7
   5  -3   1 720.580 459.189  10
   5   3   2 51392.2 3864.17   8
  -5  -3  -2 58369.7 4794.74   5
   5  -3   2 50804.2 4307.18   3
  -5   3  -2 50527.3 4328.90   7
   5   3   2 56549.4 3953.51   2
   5   3   3 11373.5 2006.13   8
   5  -3   3 9863.70 2041.08   3
  -5  -3  -3 7407.42 1802.31   5
  -5   3  -3 11548.9 2209.16   7
   5   3   4 133414. 7202.04   8
  -5  -3  -4 119118. 7201.30   5
   5  -3   4 140529. 7693.34   3
  -5   3  -4 135253. 7894.66   7
   5   3   5 5708.18 1623.91   8
   5  -3   5 5135.48 1552.34   3
  -5  -3  -5 3233.83 1235.65   5
   5   4  -6 1709.95 1078.19   6
  -5   4   6 3666.86 1295.06   9
  -5  -4   6 1238.88 854.613   9
   5  -4  -6 1390.62 844.207   1
   5  -4  -6 4164.00 1286.95   2
  -5   4   5 6532.49 1665.65   9
   5   4  -5 8918.97 1977.54   6
  -5  -4   5 4744.57 1370.11   9
   5  -4  -5 6205.46 1579.15   1
   5  -4  -5 8258.75 1760.33   2
  -5   4   4 7432.84 1712.77   9
   5   4  -4 7866.80 1826.34   6
  -5  -4   4 6171.76 1446.26   9
   5  -4  -4 7466.08 1621.40   1
  -5   4   3 556.088 599.419   9
  -5  -4   3 373.013 382.898   9
   5   4  -3 147.523 455.360   6
  -5  -4   3 641.772 569.728   5
  -5   4   3 1336.78 640.054   7
   5  -4  -3 1059.03 630.824   1
   5  -4  -2 26475.7 2867.82   1
  -5  -4   2 32655.6 3197.21   5
  -5   4   2 32202.4 2955.27   7
   5   4  -2 34251.5 3557.30   6
  -5  -4   2 28545.1 2550.52   9
   5  -4  -1 1438.95 719.835   1
   5   4  -1 986.146 688.192   6
  -5  -4   1 2786.47 1080.86   5
   5  -4  -1 760.137 639.535   3
  -5   4   1 2040.21 795.640   7
   5  -4  -1 2384.27 829.278  10
   5   4   0 43524.0 3098.41   8
  -5  -4   0 48081.3 4140.51   5
   5  -4   0 34872.1 3425.92   3
  -5   4   0 40654.1 3580.64   7
   5  -4   0 43674.5 3377.42  10
   5   4   0 41361.3 3760.60   6
   5   4   1 2245.80 924.565   6
   5   4   1 1417.61 673.397   8
  -5  -4  -1 1573.58 877.532   5
   5  -4   1 1075.35 787.248   3
  -5   4  -1 2216.80 973.702   7
   5  -4   1 1945.68 686.471  10
   5   4   2 11535.6 1929.03   8
   5  -4   2 13865.6 2353.71   3
  -5  -4  -2 16408.4 2640.01   5
  -5   4  -2 12429.2 2195.85   7
   5  -4   2 14048.6 2027.53  10
   5   4   3-41.5632 366.260   8
   5  -4   3-460.853 663.658   3
  -5  -4  -3 273.060 494.644   5
  -5   4  -3 81.9612 491.555   7
   5   4   4 15132.8 2508.76   8
   5  -4   4 10386.2 2161.27   3
  -5  -4  -4 14454.2 2589.06   5
  -5   4  -4 12748.0 2499.93   7
  -5  -5   6 3460.48 1303.01   9
   5  -5  -6 3269.92 1331.33   1
  -5   5   5 621.569 636.458   9
   5   5  -5 2756.45 1142.58   6
  -5  -5   5 1164.47 729.727   9
   5  -5  -5 3191.92 1197.05   1
  -5  -5   4 112340. 6330.26   9
   5  -5  -4 107714. 6443.08   1
   5   5  -4 114022. 7124.49   6
  -5   5   4 111387. 6634.84   9
  -5  -5   3 2295.46 856.822   9
   5   5  -3 1560.96 903.971   6
  -5  -5   3 2814.12 1075.88   5
   5  -5  -3 2921.91 1055.87   1
  -5   5   3 4182.12 1118.76   7
   5  -5  -2 39722.9 3721.48   1
  -5  -5   2 50336.2 4047.22   5
  -5   5   2 41630.5 3579.24   7
   5   5  -2 39857.3 3987.52   6
  -5  -5   2 41498.8 3167.06   9
   5  -5  -1 321.446 541.497   1
   5   5  -1 617.812 567.807   6
  -5  -5   1 535.319 589.732   5
  -5   5   1 668.171 543.615   7
   5  -5  -1-68.2035 266.582  10
   5   5   0 122226. 5491.53   8
  -5  -5   0 111266. 6486.03   5
   5  -5   0 108353. 6293.57   3
  -5   5   0 115097. 6297.02   7
   5  -5   0 109462. 5749.61  10
   5   5   0 121684. 6710.97   6
   5   5   1-162.354 425.482   6
   5   5   1 137.276 311.168   8
  -5  -5  -1 694.135 556.124   5
  -5   5  -1-611.600 577.655   7
   5  -5   1 154.894 493.292   3
   5  -5   1 415.021 417.055  10
   5   5   2 100875. 5791.59   8
  -5  -5  -2 88955.5 6214.20   5
   5  -5   2 93996.3 6178.90   3
  -5   5  -2 95416.2 6235.27   7
   5  -5   2 90213.8 5478.97  10
   5   5   3 2662.21 1094.91   8
  -5  -5  -3 6089.38 1710.58   5
  -5   5  -3 3077.18 1211.57   7
   5  -5   3 6769.75 1796.31   3
   5  -5   3 3912.87 1230.18  10
   5   5   4 14620.2 2543.18   8
  -5  -5  -4 11270.2 2416.41   5
   5  -5   4 13549.3 2574.56   3
  -5  -6   5 71.8272 427.461   9
   5  -6  -5-66.8710 472.401   1
   5   6  -4 303.471 555.894   6
  -5  -6   4 135.357 358.592   9
  -5  -6   3 856.900 602.214   9
   5   6  -3 2550.53 1127.88   6
   5  -6  -3 1637.57 1042.63   1
  -5   6   3 673.067 613.146   7
   5   6  -2 9011.92 2026.48   6
   5  -6  -2 9712.93 1992.25   1
  -5  -6   2 10412.8 1933.31   5
  -5   6   2 6285.01 1474.96   7
   5   6  -1 15237.4 2540.72   6
   5  -6  -1 19726.9 2768.35   1
  -5  -6   1 19868.3 2726.76   5
  -5   6   1 17982.5 2555.22   7
   5  -6  -1 13556.2 2197.55  10
   5   6   0 9939.85 2028.32   6
   5   6   0 12536.8 1901.06   8
  -5  -6   0 10368.6 2057.47   5
  -5   6   0 10170.4 2028.58   7
   5  -6   0 12481.4 2103.58  10
   5   6   1 2662.45 1117.82   6
   5   6   1 2995.74 1000.13   8
  -5  -6  -1 2519.24 1177.66   5
  -5   6  -1 2381.48 1124.44   7
   5  -6   1 2720.14 1023.02  10
   5   6   2 11879.7 2079.81   8
  -5  -6  -2 9249.93 2118.99   5
  -5   6  -2 10799.2 2214.98   7
   5  -6   2 6473.02 1618.78  10
   5   6   3 10208.0 2075.34   8
  -5  -6  -3 9385.36 2173.70   5
  -5   6  -3 11040.8 2321.34   7
   5  -6   3 8057.53 1803.39  10
  -5  -7   5 15681.8 2655.95   9
  -5  -7   4 31221.6 3617.80   9
   5  -7  -4 31360.2 3882.95   1
   5   7  -3 3617.01 1381.54   6
   5  -7  -3 4189.36 1468.45   1
  -5   7   3 2684.07 1116.70   7
   5  -7  -2 56223.0 4954.42   1
  -5  -7   2 58902.5 4597.34   5
  -5   7   2 45730.6 4254.22   7
   5   7  -2 49398.6 4819.13   6
   5   7  -1 6841.33 1762.67   6
   5  -7  -1 7273.16 1791.13   1
  -5  -7   1 4674.99 1388.09   5
  -5   7   1 7121.63 1744.00   7
   5  -7  -1 6955.63 1659.38  10
   5  -7   0 31262.1 3687.61   1
  -5  -7   0 24008.4 3218.38   5
  -5   7   0 28746.1 3475.33   7
   5  -7   0 23931.6 3101.73  10
   5   7   0 23264.0 3175.32   6
   5   7   1 75.7278 448.323   6
   5   7   1 582.793 579.170   8
  -5  -7  -1 467.852 630.212   5
  -5   7  -1 252.521 511.600   7
   5  -7   1 257.295 453.611  10
   5   7   2 50856.5 4480.53   8
  -5  -7  -2 50273.8 5010.83   5
  -5   7  -2 45436.1 4671.73   7
   5  -7   2 50365.2 4630.33  10
   5   7   2 49885.6 4835.75   6
   5   7   3 7778.04 1939.33   8
   5  -7   3 6399.24 1727.25  10
  -5   8   3 4009.69 1321.71   7
  -5  -8   2 6110.56 1580.90   5
  -5   8   2 9783.91 2103.25   7
   5  -8  -2 7273.39 1850.67  10
   5  -8  -1 16549.3 2850.69   1
  -5  -8   1 20240.8 2905.55   5
  -5   8   1 16730.5 2744.97   7
   5  -8  -1 16352.2 2708.01  10
  -5  -8   0 2127.72 1018.25   5
   5  -8   0 2279.27 1018.06  10
   5   8   1 18995.9 2758.98   8
   5  -8   1 19056.3 2912.67  10
   5   8   2-297.061 462.504   8
   5  -8   2 708.206 633.677  10
  -5  -9   1 1185.40 843.001   5
   6   0  -5-777.483 751.725   2
  -6   0   5-660.131 689.657   9
   6   0  -4 3606.82 1210.49   6
  -6   0   4 5214.74 1444.74   9
   6   0  -4 7697.65 1825.83   2
  -6   0   3 735.031 569.618   9
   6   0  -3 1201.56 676.549   6
   6   0  -3-132.027 477.089   2
   6   0  -2 185197. 8393.00   2
   6   0  -2 176513. 7243.30   6
  -6   0   2 166773. 7012.92   9
  -6   0   1 55.0975 253.510   9
  -6   0   1-86.1227 540.750   5
   6   0  -1 439.419 633.083   2
  -6   0   0 44984.7 4366.34   5
   6   0   0 39859.2 3830.34   2
  -6   0  -1-76.9669 426.552   5
   6   0   1 745.388 611.938   2
  -6   0  -2 85867.1 6202.64   5
   6   0   2 76013.0 4798.95   8
   6   0   2 75234.1 5132.75   2
   6   0   3-232.991 411.064   8
  -6   0  -3 1160.72 902.661   5
   6   0   4 67805.2 5295.80   8
   6   1  -6 913.360 699.581   6
   6   1  -5 1058.08 694.876   6
  -6   1   5 669.159 657.864   9
   6   1  -5-540.867 722.626   2
  -6  -1   5 389.301 465.146   9
   6  -1  -5 62.8306 432.875   2
   6   1  -4 7037.28 1833.15   2
  -6   1   4 8496.81 1859.50   9
   6   1  -4 6786.42 1580.73   6
  -6  -1   4 7366.63 1656.74   9
   6  -1  -4 5988.32 1612.62   2
   6   1  -3 8713.49 1976.60   2
  -6   1   3 14168.1 2236.83   9
  -6  -1   3 10622.8 1843.04   9
   6   1  -3 10628.9 1922.07   6
   6  -1  -3 10612.7 2078.26   2
  -6   1   2 9136.36 1708.71   9
  -6  -1   2 7321.84 1474.37   9
   6   1  -2 5641.00 1372.01   6
  -6  -1   2 11806.5 2187.67   5
   6  -1  -2 9989.80 1809.36   3
   6  -1  -2 9503.53 1927.15   2
   6   1  -2 7986.71 1835.83   2
  -6   1   1-199.332 381.461   9
   6   1  -1 426.806 452.094   6
   6  -1  -1 1186.61 721.999   3
  -6  -1   1 1540.51 970.317   5
   6   1  -1 1876.83 891.458   2
  -6   1   0 60106.2 5065.41   5
  -6  -1   0 59081.7 4980.58   5
   6   1   0 54671.3 4482.49   2
   6   1   0 59981.6 4432.94   6
   6   1   1 557.166 508.898   6
  -6   1  -1 1990.49 1024.95   5
  -6  -1  -1 2002.94 1164.41   5
   6   1   1 929.997 652.095   2
  -6   1  -2 31543.6 3805.82   5
  -6  -1  -2 26894.3 3542.87   5
   6   1   2 24767.4 2754.90   8
   6  -1   2 27094.1 2901.98   8
   6   1   2 28915.1 3150.21   2
   6   1   2 28809.9 3201.61   6
   6   1   3-34.4184 301.406   8
   6  -1   3 804.684 619.822   8
  -6   1  -3-32.2246 570.577   5
  -6  -1  -3 1674.61 1024.84   5
   6   1   4 18282.0 2752.67   8
   6  -1   4 21488.3 3048.36   8
   6   2  -6 5285.28 1574.60   6
   6   2  -5-300.345 477.880   6
  -6   2   5 397.618 583.203   9
   6  -2  -5 479.524 643.997   2
   6  -2  -4 100168. 6414.71   2
   6   2  -4 98545.4 6576.99   2
   6   2  -4 88940.9 6026.11   6
  -6   2   4 89168.2 5960.43   9
  -6  -2   4 85978.7 5551.36   9
  -6   2   3 205.262 454.241   9
   6   2  -3 378.357 623.009   2
  -6  -2   3-299.141 403.061   9
   6   2  -3 917.055 670.117   6
  -6  -2   3-447.704 598.904   5
   6  -2  -3 1742.59 931.804   2
  -6  -2   2 27268.9 3241.95   5
   6  -2  -2 33275.0 3266.35   3
   6   2  -2 21681.3 2961.05   2
   6   2  -2 26613.6 3136.67   6
  -6   2   2 24079.8 2839.38   9
   6   2  -1 645.161 741.637   2
   6   2  -1 1510.11 808.440   6
  -6  -2   1 2072.57 1066.98   5
   6  -2  -1 846.438 643.519   3
  -6   2   1 1759.66 769.468   7
  -6  -2   0 78685.9 5763.41   5
   6  -2   0 79376.6 5538.38   3
  -6   2   0 89894.9 5504.66   7
   6   2   0 80116.0 5492.41   2
   6   2   0 91061.7 5673.94   6
   6   2   1 1014.81 474.201   6
   6  -2   1 1485.72 863.674   3
  -6  -2  -1 2755.05 1234.06   5
  -6   2  -1 2418.87 1012.81   7
   6   2   1 872.550 739.149   2
   6   2   2 77201.3 4958.90   8
  -6  -2  -2 76497.6 5955.32   5
   6  -2   2 71532.2 4818.43   8
   6  -2   2 73049.4 5693.12   3
   6   2   2 75655.5 5105.72   2
   6   2   2 69677.7 5172.14   6
   6   2   3 6502.05 1584.48   8
   6  -2   3 8686.97 1813.22   8
  -6   2  -3 7649.09 1944.25   5
   6  -2   3 7556.91 1905.16   3
  -6  -2  -3 6122.87 1742.50   5
   6   2   4 30757.7 3619.97   8
   6  -2   4 29386.3 3572.71   8
   6   3  -5 539.160 696.876   6
  -6  -3   5 509.252 478.097   9
   6  -3  -5-666.075 677.217   2
  -6   3   4 761.847 656.936   9
   6   3  -4-290.892 413.156   6
  -6  -3   4 547.547 440.670   9
   6  -3  -4-771.912 666.585   2
  -6   3   3 3930.60 1163.69   9
  -6  -3   3 5144.31 1271.22   9
   6   3  -3 3531.35 1237.24   6
  -6  -3   3 3538.95 1156.20   5
   6  -3  -3 3730.11 1169.26   1
   6   3  -2 5225.61 1545.48   2
   6   3  -2 3573.00 1232.18   6
  -6  -3   2 2837.23 1180.90   5
   6  -3  -2 4737.06 1207.09   1
   6  -3  -2 4426.08 1234.43   3
   6   3  -1 1699.11 920.327   2
   6   3  -1-430.908 512.246   6
   6  -3  -1-331.635 479.555   1
  -6  -3   1-230.375 482.845   5
   6  -3  -1-155.466 519.687   3
  -6   3   1 673.002 548.594   7
   6   3   0 491.230 551.636   2
   6  -3   0 65.4455 286.049   1
   6   3   0 618.404 566.688   6
  -6  -3   0 2041.74 1041.74   5
   6  -3   0 672.422 666.967   3
  -6   3   0 1994.24 901.417   7
   6   3   1 2518.21 1044.33   2
   6   3   1 2870.89 1140.65   6
  -6  -3  -1 2928.61 1210.70   5
   6  -3   1 3234.57 1226.94   3
  -6   3  -1 1720.30 940.908   7
   6   3   2-612.655 590.923   6
   6   3   2-324.674 476.965   8
   6  -3   2-285.125 633.948   3
  -6  -3  -2 884.149 878.941   5
  -6   3  -2 554.645 615.807   7
   6   3   3 125.221 464.539   8
   6  -3   3 988.360 715.081   8
  -6  -4   5 6240.64 1559.33   9
   6  -4  -5 6875.31 1765.51   1
   6  -4  -4 59654.6 4761.58   1
   6   4  -4 67551.9 5634.79   6
  -6   4   4 62616.2 5250.57   9
  -6  -4   4 61035.9 4710.53   9
  -6   4   3 526.584 585.691   9
   6   4  -3 4883.07 1476.45   6
  -6  -4   3 4388.70 1292.40   5
   6  -4  -3 2491.93 1030.57   1
  -6  -4   2 34402.0 3687.26   5
   6  -4  -2 27291.4 3080.46   1
   6  -4  -2 33565.4 3472.75   3
   6   4  -2 28330.2 3506.80   6
   6   4  -1 11508.7 2252.14   6
   6  -4  -1 7704.99 1622.16   1
  -6  -4   1 7857.61 1822.82   5
  -6   4   1 7620.96 1679.04   7
   6  -4  -1 9802.91 1953.70   3
   6  -4   0 62736.6 4674.55   1
  -6  -4   0 64727.4 5347.17   5
   6  -4   0 57823.0 4888.33   3
  -6   4   0 63412.2 4912.03   7
   6   4   0 72402.8 5476.89   6
   6   4   1-336.506 591.798   6
   6  -4   1-865.169 709.928   3
  -6   4  -1-685.066 558.096   7
  -6  -4  -2 34624.8 4153.60   5
   6  -4   2 39953.5 4319.59   3
  -6   4  -2 28261.8 3621.51   7
   6   4   2 33035.0 3793.31   6
   6   4   3-191.746 307.086   8
   6  -5  -4 2780.27 1136.27   1
   6   5  -3 17205.5 2921.59   6
   6  -5  -3 11498.5 2186.28   1
   6   5  -2 7770.42 1901.33   6
   6  -5  -2 5517.58 1518.95   1
  -6  -5   2 5832.63 1558.68   5
   6  -5  -2 5049.28 1363.18  10
   6   5  -1 15318.5 2657.68   6
   6  -5  -1 19084.9 2761.69   1
  -6  -5   1 16722.5 2700.57   5
  -6   5   1 18497.8 2635.79   7
   6  -5   0 25604.2 3199.18   1
  -6  -5   0 26832.8 3504.98   5
   6  -5   0 28931.5 3578.07   3
  -6   5   0 26818.2 3321.80   7
   6   5   0 26457.8 3443.56   6
   6   5   1 10665.5 2198.22   6
  -6  -5  -1 12856.2 2580.61   5
  -6   5  -1 14008.0 2501.20   7
   6  -5   1 9760.05 2139.63   3
   6   5   3 12401.4 2348.98   8
   6  -6  -3 7616.25 1889.52   1
  -6  -6   2 93289.3 6198.26   5
   6  -6  -2 87864.1 6217.09   1
  -6   6   2 96455.2 6177.36   7
   6  -6  -2 84397.0 5875.55  10
   6  -6  -1 398.604 693.555   1
  -6  -6   1 1692.38 921.059   5
  -6   6   1 3076.67 1190.42   7
   6  -6  -1 2804.26 1082.37  10
   6  -6   0 29484.9 3623.78   1
  -6  -6   0 27155.1 3604.03   5
  -6   6   0 28402.2 3548.29   7
  -6   7   2 13971.6 2496.94   7
   6  -7  -1 6376.17 1652.09  10
  -7  -1   4 62452.0 5099.76   9
  -7   1   3 4219.32 1308.64   9
   7  -1  -1 11577.3 2246.10   3
   7  -1   0 75519.2 5974.24   3
   7   1   0 71822.1 5682.85   2
   7   1   1 9275.16 2089.79   2
  -7   2   3-1093.91 710.941   9
  -7  -2   2 926.841 736.368   5
   7  -2  -1 1661.82 932.264   3
   7   2   1 4331.21 1453.51   2
   7   3  -2 76485.9 5983.58   6
   7   3  -1 1221.61 875.488   6
   7  -3  -1-289.875 483.376   3
   7   3   0 8955.28 2116.75   6
   0   0   0    0.00    0.00   0
TITL 8574-5_full in P2(1)/n
REM P2(1)/n (#14 in standard setting)
CELL 0.71073   5.130037   8.672865   6.847268  90.0000  97.1045  90.0000
ZERR    1.00   0.000131   0.000218   0.000178   0.0000   0.0026   0.0000
LATT  1
SYMM -x+1/2, y+1/2,-z+1/2
SFAC O Na P Ni Cu
UNIT 8.00 2.00 2.00 1.00 1.00
TREF
HKLF 4
END
;
_shelx_hkl_checksum              80086
_shelx_res_file
;
TITL shelxt_a.res in P2(1)/n
    shelx.res
    created by SHELXL-2018/3 at 12:52:49 on 12-Oct-2021
CELL  0.71073   5.1300   8.6729   6.8473   90.000   97.104   90.000
ZERR    2.00   0.0001   0.0002   0.0002    0.000    0.003    0.000
LATT   1
SYMM  1/2 - X, 1/2 + Y, 1/2 - Z
SFAC  O    NA   P    NI  CU
UNIT  16 4 4 2  2
MERG   2
FMAP   2
PLAN   20
OMIT -3 60
OMIT  0 1 1
ACTA
BOND
LIST   6
L.S.  8
WGHT    0.026000    0.250000
EXTI    0.015105
FVAR       7.10076
CU1   5    1.000000    0.500000    0.500000    10.50000    0.00967    0.00842 =
         0.00947    0.00193   -0.00285   -0.00294
NI1   4    1.000000    0.500000    0.000000    10.50000    0.00848    0.00941 =
         0.00895    0.00068    0.00037   -0.00042
P1    3    0.550353    0.317725    0.217632    11.00000    0.00706    0.00646 =
         0.00726   -0.00004    0.00019   -0.00067
NA1   2    0.539411    0.353107    0.711803    11.00000    0.01212    0.01393 =
         0.01262   -0.00010    0.00112    0.00091
O1    1    0.551610    0.137232    0.240453    11.00000    0.01235    0.00570 =
         0.01068   -0.00119    0.00008    0.00051
O2    1    0.690223    0.387639    0.408575    11.00000    0.01174    0.01215 =
         0.00896   -0.00083    0.00054   -0.00415
O3    1    0.704274    0.352057    0.045820    11.00000    0.01240    0.01409 =
         0.00984   -0.00002    0.00246   -0.00318
O4    1    0.270154    0.379562    0.192763    11.00000    0.00996    0.00916 =
         0.01260    0.00046    0.00035    0.00147
HKLF 4
REM  shelxt_a.res in P2(1)/n
REM wR2 = 0.0649, GooF = S = 1.130, Restrained GooF = 1.130 for all data
REM R1 = 0.0240 for 741 Fo > 4sig(Fo) and 0.0303 for all 863 data
REM 68 parameters refined using 0 restraints
END
WGHT      0.0249      0.2535
REM Highest difference peak  0.578,  deepest hole -0.500,  1-sigma level  0.131
Q1    1   0.4179  0.3333  0.2508  11.00000  0.05    0.58
Q2    1   0.5732  0.3928  0.3164  11.00000  0.05    0.55
Q3    1   0.4391  0.3205  0.7820  11.00000  0.05    0.48
Q4    1   0.7290  0.4529  0.3973  11.00000  0.05    0.48
Q5    1   1.1459  0.4188  0.0095  11.00000  0.05    0.47
Q6    1   0.7061  0.3229  0.1479  11.00000  0.05    0.44
Q7    1   0.5461  0.2267  0.2342  11.00000  0.05    0.43
Q8    1   1.1270  0.4180  0.4786  11.00000  0.05    0.42
Q9    1   0.2907  0.4162  0.5800  11.00000  0.05    0.39
Q10   1   0.4537  0.3369  0.6396  11.00000  0.05    0.38
Q11   1   0.3873  0.2802  0.7273  11.00000  0.05    0.38
Q12   1   1.1777  0.4996  0.4468  11.00000  0.05    0.38
Q13   1   0.6459  0.3806  0.4551  11.00000  0.05    0.38
Q14   1   0.6739  0.4332 -0.0220  11.00000  0.05    0.37
Q15   1   0.7414  0.3468  0.3637  11.00000  0.05    0.36
Q16   1   1.0147  0.5020  0.3573  11.00000  0.05    0.36
Q17   1   1.1753  0.5033 -0.0548  11.00000  0.05    0.35
Q18   1   0.5328  0.0977  0.0961  11.00000  0.05    0.33
Q19   1   0.5397  0.2427  0.6707  11.00000  0.05    0.33
Q20   1   1.0716  0.4977  0.1394  11.00000  0.05    0.32
;
_shelx_res_checksum              18770
loop_
_space_group_symop_operation_xyz
'x, y, z'
'-x+1/2, y+1/2, -z+1/2'
'-x, -y, -z'
'x-1/2, -y-1/2, z-1/2'
loop_
_atom_site_type_symbol
_atom_site_label
_atom_site_fract_x
_atom_site_fract_y
_atom_site_fract_z
_atom_site_U_iso_or_equiv
_atom_site_adp_type
_atom_site_calc_flag
_atom_site_occupancy
_atom_site_disorder_assembly
_atom_site_disorder_group
Cu Cu1 1.000000 0.500000 0.500000 0.00953(16) Uani d 1 . .
Ni Ni1 1.000000 0.500000 0.000000 0.00901(16) Uani d 1 . .
P P1 0.55035(13) 0.31773(8) 0.21763(10) 0.00698(18) Uani d 1 . .
Na Na1 0.5394(2) 0.35311(14) 0.71180(17) 0.0129(3) Uani d 1 . .
O O1 0.5516(4) 0.1372(2) 0.2405(3) 0.0097(4) Uani d 1 . .
O O2 0.6902(4) 0.3876(2) 0.4086(3) 0.0110(4) Uani d 1 . .
O O3 0.7043(4) 0.3521(2) 0.0458(3) 0.0120(4) Uani d 1 . .
O O4 0.2702(4) 0.3796(2) 0.1928(3) 0.0107(4) Uani d 1 . .
loop_
_atom_site_aniso_label
_atom_site_aniso_U_11
_atom_site_aniso_U_22
_atom_site_aniso_U_33
_atom_site_aniso_U_12
_atom_site_aniso_U_13
_atom_site_aniso_U_23
Cu1 0.0097(3) 0.0084(3) 0.0095(3) -0.00294(17) -0.00285(18) 0.00193(17)
Ni1 0.0085(3) 0.0094(3) 0.0090(3) -0.00042(18) 0.00037(19) 0.00068(18)
P1 0.0071(3) 0.0065(3) 0.0073(3) -0.0007(3) 0.0002(2) 0.0000(2)
Na1 0.0121(5) 0.0139(6) 0.0126(5) 0.0009(4) 0.0011(4) -0.0001(5)
O1 0.0123(9) 0.0057(9) 0.0107(9) 0.0005(7) 0.0001(7) -0.0012(7)
O2 0.0117(9) 0.0122(10) 0.0090(9) -0.0041(8) 0.0005(7) -0.0008(7)
O3 0.0124(9) 0.0141(10) 0.0098(9) -0.0032(8) 0.0025(8) 0.0000(8)
O4 0.0100(9) 0.0092(10) 0.0126(9) 0.0015(7) 0.0003(7) 0.0005(7)
loop_
_atom_type_symbol
_atom_type_description
_atom_type_scat_dispersion_real
_atom_type_scat_dispersion_imag
_atom_type_scat_source
O O 0.0106 0.0060 'International Tables Vol C Tables 4.2.6.8 and 6.1.1.4'
Na Na 0.0362 0.0249 'International Tables Vol C Tables 4.2.6.8 and 6.1.1.4'
P P 0.1023 0.0942 'International Tables Vol C Tables 4.2.6.8 and 6.1.1.4'
Ni Ni 0.3393 1.1124 'International Tables Vol C Tables 4.2.6.8 and 6.1.1.4'
Cu Cu 0.3201 1.2651 'International Tables Vol C Tables 4.2.6.8 and 6.1.1.4'
loop_
_geom_angle_atom_site_label_1
_geom_angle_atom_site_label_2
_geom_angle_atom_site_label_3
_geom_angle_site_symmetry_1
_geom_angle_site_symmetry_2
_geom_angle_site_symmetry_3
_geom_angle
_geom_angle_publ_flag
O2 Cu1 O2 . . 3_766 180.0 ?
O2 Cu1 O1 . . 4_666 89.22(8) ?
O2 Cu1 O1 3_766 . 4_666 90.78(8) ?
O2 Cu1 O1 . . 2_655 90.78(8) ?
O2 Cu1 O1 3_766 . 2_655 89.22(8) ?
O1 Cu1 O1 4_666 . 2_655 180.0 ?
O2 Cu1 Na1 . . . 46.29(6) ?
O2 Cu1 Na1 3_766 . . 133.71(6) ?
O1 Cu1 Na1 4_666 . . 54.83(6) ?
O1 Cu1 Na1 2_655 . . 125.17(6) ?
O2 Cu1 Na1 . . 3_766 133.71(6) ?
O2 Cu1 Na1 3_766 . 3_766 46.29(6) ?
O1 Cu1 Na1 4_666 . 3_766 125.17(6) ?
O1 Cu1 Na1 2_655 . 3_766 54.83(6) ?
Na1 Cu1 Na1 . . 3_766 180.0 ?
O2 Cu1 Na1 . . 3_666 54.47(6) ?
O2 Cu1 Na1 3_766 . 3_666 125.53(6) ?
O1 Cu1 Na1 4_666 . 3_666 128.14(6) ?
O1 Cu1 Na1 2_655 . 3_666 51.86(6) ?
Na1 Cu1 Na1 . . 3_666 73.69(3) ?
Na1 Cu1 Na1 3_766 . 3_666 106.31(3) ?
O2 Cu1 Na1 . . 1_655 125.53(6) ?
O2 Cu1 Na1 3_766 . 1_655 54.47(6) ?
O1 Cu1 Na1 4_666 . 1_655 51.86(6) ?
O1 Cu1 Na1 2_655 . 1_655 128.14(6) ?
Na1 Cu1 Na1 . . 1_655 106.31(3) ?
Na1 Cu1 Na1 3_766 . 1_655 73.69(3) ?
Na1 Cu1 Na1 3_666 . 1_655 180.0 ?
O3 Ni1 O3 3_765 . . 180.0 ?
O3 Ni1 O4 3_765 . 3_665 92.09(7) ?
O3 Ni1 O4 . . 3_665 87.91(7) ?
O3 Ni1 O4 3_765 . 1_655 87.91(7) ?
O3 Ni1 O4 . . 1_655 92.09(7) ?
O4 Ni1 O4 3_665 . 1_655 180.00(9) ?
O3 Ni1 O1 3_765 . 4_665 92.89(7) ?
O3 Ni1 O1 . . 4_665 87.11(7) ?
O4 Ni1 O1 3_665 . 4_665 83.98(7) ?
O4 Ni1 O1 1_655 . 4_665 96.02(7) ?
O3 Ni1 O1 3_765 . 2_655 87.11(7) ?
O3 Ni1 O1 . . 2_655 92.89(7) ?
O4 Ni1 O1 3_665 . 2_655 96.02(7) ?
O4 Ni1 O1 1_655 . 2_655 83.98(7) ?
O1 Ni1 O1 4_665 . 2_655 180.00(8) ?
O3 Ni1 Na1 3_765 . 3_766 47.82(6) ?
O3 Ni1 Na1 . . 3_766 132.18(6) ?
O4 Ni1 Na1 3_665 . 3_766 125.78(6) ?
O4 Ni1 Na1 1_655 . 3_766 54.22(6) ?
O1 Ni1 Na1 4_665 . 3_766 124.96(5) ?
O1 Ni1 Na1 2_655 . 3_766 55.04(5) ?
O3 Ni1 Na1 3_765 . 1_554 132.18(6) ?
O3 Ni1 Na1 . . 1_554 47.82(6) ?
O4 Ni1 Na1 3_665 . 1_554 54.22(6) ?
O4 Ni1 Na1 1_655 . 1_554 125.78(6) ?
O1 Ni1 Na1 4_665 . 1_554 55.04(5) ?
O1 Ni1 Na1 2_655 . 1_554 124.96(5) ?
Na1 Ni1 Na1 3_766 . 1_554 180.0 ?
O3 Ni1 Na1 3_765 . 4_665 128.96(6) ?
O3 Ni1 Na1 . . 4_665 51.04(6) ?
O4 Ni1 Na1 3_665 . 4_665 136.75(6) ?
O4 Ni1 Na1 1_655 . 4_665 43.25(6) ?
O1 Ni1 Na1 4_665 . 4_665 81.29(5) ?
O1 Ni1 Na1 2_655 . 4_665 98.71(5) ?
Na1 Ni1 Na1 3_766 . 4_665 95.566(17) ?
Na1 Ni1 Na1 1_554 . 4_665 84.434(17) ?
O3 Ni1 Na1 3_765 . 2_655 51.04(6) ?
O3 Ni1 Na1 . . 2_655 128.96(6) ?
O4 Ni1 Na1 3_665 . 2_655 43.25(6) ?
O4 Ni1 Na1 1_655 . 2_655 136.75(6) ?
O1 Ni1 Na1 4_665 . 2_655 98.71(5) ?
O1 Ni1 Na1 2_655 . 2_655 81.29(5) ?
Na1 Ni1 Na1 3_766 . 2_655 84.434(17) ?
Na1 Ni1 Na1 1_554 . 2_655 95.566(17) ?
Na1 Ni1 Na1 4_665 . 2_655 180.0 ?
O4 P1 O3 . . . 114.60(11) ?
O4 P1 O2 . . . 106.92(11) ?
O3 P1 O2 . . . 110.34(11) ?
O4 P1 O1 . . . 110.70(11) ?
O3 P1 O1 . . . 105.95(11) ?
O2 P1 O1 . . . 108.21(11) ?
O4 P1 Na1 . . 4_665 167.91(8) ?
O3 P1 Na1 . . 4_665 63.93(8) ?
O2 P1 Na1 . . 4_665 84.27(8) ?
O1 P1 Na1 . . 4_665 60.21(8) ?
O4 P1 Na1 . . 3_666 60.80(8) ?
O3 P1 Na1 . . 3_666 92.51(8) ?
O2 P1 Na1 . . 3_666 62.82(8) ?
O1 P1 Na1 . . 3_666 161.51(8) ?
Na1 P1 Na1 4_665 . 3_666 130.34(4) ?
O4 P1 Na1 . . 4_565 50.45(8) ?
O3 P1 Na1 . . 4_565 128.29(8) ?
O2 P1 Na1 . . 4_565 121.36(8) ?
O1 P1 Na1 . . 4_565 60.25(8) ?
Na1 P1 Na1 4_665 . 4_565 119.94(5) ?
Na1 P1 Na1 3_666 . 4_565 109.06(3) ?
O4 P1 Na1 . . . 87.02(8) ?
O3 P1 Na1 . . . 145.36(8) ?
O2 P1 Na1 . . . 35.12(8) ?
O1 P1 Na1 . . . 89.50(7) ?
Na1 P1 Na1 4_665 . . 100.32(3) ?
Na1 P1 Na1 3_666 . . 74.16(4) ?
Na1 P1 Na1 4_565 . . 86.34(3) ?
O2 Na1 O3 . . 1_556 138.99(8) ?
O2 Na1 O4 . . 4_666 80.53(8) ?
O3 Na1 O4 1_556 . 4_666 85.83(8) ?
O2 Na1 O1 . . 4_566 120.39(8) ?
O3 Na1 O1 1_556 . 4_566 99.53(8) ?
O4 Na1 O1 4_666 . 4_566 122.76(8) ?
O2 Na1 O4 . . 3_666 87.29(8) ?
O3 Na1 O4 1_556 . 3_666 71.01(7) ?
O4 Na1 O4 4_666 . 3_666 127.62(5) ?
O1 Na1 O4 4_566 . 3_666 107.36(7) ?
O2 Na1 O1 . . 4_666 67.66(7) ?
O3 Na1 O1 1_556 . 4_666 71.81(7) ?
O4 Na1 O1 4_666 . 4_666 61.51(7) ?
O1 Na1 O1 4_566 . 4_666 170.55(10) ?
O4 Na1 O1 3_666 . 4_666 66.71(6) ?
O2 Na1 O2 . . 3_666 78.17(8) ?
O3 Na1 O2 1_556 . 3_666 113.87(8) ?
O4 Na1 O2 4_666 . 3_666 158.08(8) ?
O1 Na1 O2 4_566 . 3_666 65.60(6) ?
O4 Na1 O2 3_666 . 3_666 56.51(6) ?
O1 Na1 O2 4_666 . 3_666 113.86(7) ?
O2 Na1 O3 . . 4_566 88.46(7) ?
O3 Na1 O3 1_556 . 4_566 123.88(7) ?
O4 Na1 O3 4_666 . 4_566 72.68(7) ?
O1 Na1 O3 4_566 . 4_566 57.16(6) ?
O4 Na1 O3 3_666 . 4_566 158.03(8) ?
O1 Na1 O3 4_666 . 4_566 130.64(7) ?
O2 Na1 O3 3_666 . 4_566 101.52(7) ?
O2 Na1 P1 . . 4_566 117.36(6) ?
O3 Na1 P1 1_556 . 4_566 101.08(6) ?
O4 Na1 P1 4_666 . 4_566 90.26(6) ?
O1 Na1 P1 4_566 . 4_566 32.58(5) ?
O4 Na1 P1 3_666 . 4_566 139.05(6) ?
O1 Na1 P1 4_666 . 4_566 150.91(7) ?
O2 Na1 P1 3_666 . 4_566 94.94(5) ?
O3 Na1 P1 4_566 . 4_566 31.36(4) ?
O2 Na1 P1 . . 3_666 95.62(7) ?
O3 Na1 P1 1_556 . 3_666 83.58(6) ?
O4 Na1 P1 4_666 . 3_666 158.79(7) ?
O1 Na1 P1 4_566 . 3_666 77.24(5) ?
O4 Na1 P1 3_666 . 3_666 31.19(4) ?
O1 Na1 P1 4_666 . 3_666 97.64(6) ?
O2 Na1 P1 3_666 . 3_666 31.39(4) ?
O3 Na1 P1 4_566 . 3_666 128.30(6) ?
P1 Na1 P1 4_566 . 3_666 109.77(4) ?
O2 Na1 P1 . . 4_666 71.90(6) ?
O3 Na1 P1 1_556 . 4_666 77.05(6) ?
O4 Na1 P1 4_666 . 4_666 29.98(5) ?
O1 Na1 P1 4_566 . 4_666 151.92(7) ?
O4 Na1 P1 3_666 . 4_666 97.93(5) ?
O1 Na1 P1 4_666 . 4_666 31.53(4) ?
O2 Na1 P1 3_666 . 4_666 141.56(6) ?
O3 Na1 P1 4_566 . 4_666 101.21(6) ?
P1 Na1 P1 4_566 . 4_666 119.94(5) ?
P1 Na1 P1 3_666 . 4_666 129.05(4) ?
O2 Na1 Ni1 . . 1_556 101.57(6) ?
O3 Na1 Ni1 1_556 . 1_556 40.29(5) ?
O4 Na1 Ni1 4_666 . 1_556 92.18(6) ?
O1 Na1 Ni1 4_566 . 1_556 127.48(6) ?
O4 Na1 Ni1 3_666 . 1_556 40.92(4) ?
O1 Na1 Ni1 4_666 . 1_556 43.21(4) ?
O2 Na1 Ni1 3_666 . 1_556 97.06(5) ?
O3 Na1 Ni1 4_566 . 1_556 160.37(6) ?
P1 Na1 Ni1 4_566 . 1_556 140.84(4) ?
P1 Na1 Ni1 3_666 . 1_556 68.01(3) ?
P1 Na1 Ni1 4_666 . 1_556 66.82(3) ?
P1 O1 Cu1 . . 2_645 120.42(11) ?
P1 O1 Ni1 . . 2_645 128.63(11) ?
Cu1 O1 Ni1 2_645 . 2_645 108.98(8) ?
P1 O1 Na1 . . 4_665 87.21(9) ?
Cu1 O1 Na1 2_645 . 4_665 89.29(7) ?
Ni1 O1 Na1 2_645 . 4_665 107.54(8) ?
P1 O1 Na1 . . 4_565 88.22(9) ?
Cu1 O1 Na1 2_645 . 4_565 85.90(7) ?
Ni1 O1 Na1 2_645 . 4_565 81.74(7) ?
Na1 O1 Na1 4_665 . 4_565 170.55(10) ?
P1 O2 Cu1 . . . 139.94(12) ?
P1 O2 Na1 . . . 122.52(11) ?
Cu1 O2 Na1 . . . 97.40(8) ?
P1 O2 Na1 . . 3_666 85.79(9) ?
Cu1 O2 Na1 . . 3_666 89.35(8) ?
Na1 O2 Na1 . . 3_666 101.83(8) ?
P1 O3 Ni1 . . . 135.00(12) ?
P1 O3 Na1 . . 1_554 126.59(11) ?
Ni1 O3 Na1 . . 1_554 91.89(8) ?
P1 O3 Na1 . . 4_665 84.71(9) ?
Ni1 O3 Na1 . . 4_665 91.90(7) ?
Na1 O3 Na1 1_554 . 4_665 124.25(9) ?
P1 O4 Ni1 . . 1_455 142.67(12) ?
P1 O4 Na1 . . 4_565 99.56(10) ?
Ni1 O4 Na1 1_455 . 4_565 99.56(8) ?
P1 O4 Na1 . . 3_666 88.02(9) ?
Ni1 O4 Na1 1_455 . 3_666 84.86(7) ?
Na1 O4 Na1 4_565 . 3_666 159.84(9) ?
? ? ? ? ? ? ? ?
loop_
_geom_bond_atom_site_label_1
_geom_bond_atom_site_label_2
_geom_bond_site_symmetry_1
_geom_bond_site_symmetry_2
_geom_bond_distance
_geom_bond_publ_flag
Cu1 O2 . . 1.9029(19) y
Cu1 O2 . 3_766 1.9029(19) y
Cu1 O1 . 4_666 2.0223(18) y
Cu1 O1 . 2_655 2.0223(18) y
Cu1 Na1 . . 3.1870(12) y
Cu1 Na1 . 3_766 3.1870(12) y
Cu1 Na1 . 3_666 3.2235(11) y
Cu1 Na1 . 1_655 3.2235(11) y
Ni1 O3 . 3_765 2.0406(19) y
Ni1 O3 . . 2.0406(19) y
Ni1 O4 . 3_665 2.0740(19) y
Ni1 O4 . 1_655 2.0740(19) y
Ni1 O1 . 4_665 2.1821(19) y
Ni1 O1 . 2_655 2.1821(19) y
Ni1 Na1 . 3_766 3.1539(11) y
Ni1 Na1 . 1_554 3.1539(11) y
Ni1 Na1 . 4_665 3.3838(12) y
Ni1 Na1 . 2_655 3.3838(12) y
P1 O4 . . 1.5239(19) y
P1 O3 . . 1.5251(19) y
P1 O2 . . 1.5362(19) y
P1 O1 . . 1.573(2) y
P1 Na1 . 4_665 2.9182(13) y
P1 Na1 . 3_666 2.9412(14) y
P1 Na1 . 4_565 3.0069(13) y
P1 Na1 . . 3.4050(12) y
Na1 O2 . . 2.323(2) y
Na1 O3 . 1_556 2.338(2) y
Na1 O4 . 4_666 2.351(2) y
Na1 O1 . 4_566 2.536(2) y
Na1 O4 . 3_666 2.569(2) y
Na1 O1 . 4_666 2.612(2) y
Na1 O2 . 3_666 2.624(2) y
Na1 O3 . 4_566 2.633(2) y
? ? ? ? ? ?

_cod_database_fobs_code 2022594
