#------------------------------------------------------------------------------
#$Date: 2020-04-10 08:24:37 +0300 (Fri, 10 Apr 2020) $
#$Revision: 250634 $
#$URL: file:///home/coder/svn-repositories/cod/cif/2/02/20/2022055.cif $
#------------------------------------------------------------------------------
#
# This file is available in the Crystallography Open Database (COD),
# http://www.crystallography.net/. The original data for this entry
# were provided by IUCr Journals, http://journals.iucr.org/.
#
# The file may be used within the scientific community so long as
# proper attribution is given to the journal article from which the
# data were obtained.
#
data_2022055
loop_
_publ_author_name
'Jha, Kunal Kumar'
'Gruza, Barbara'
'Kumar, Prashant'
'Chodkiewicz, Michal Leszek'
'Dominiak, Paulina Maria'
_publ_section_title
;
 TAAM: a reliable and user friendly tool for hydrogen-atom location using
 routine X-ray diffraction data
;
_journal_issue                   3
_journal_name_full
'Acta Crystallographica Section B Structural Science, Crystal Engineering and Materials'
_journal_paper_doi               10.1107/S2052520620002917
_journal_volume                  76
_journal_year                    2020
_chemical_formula_moiety         'C H O2, H2 O'
_chemical_formula_sum            'C H3 O3'
_chemical_formula_weight         63.03
_space_group_crystal_system      monoclinic
_space_group_IT_number           14
_space_group_name_Hall           '-P 2ybc'
_space_group_name_H-M_alt        'P 1 21/c 1'
_symmetry_Int_Tables_number      14
_audit_creation_date             2019-09-27
_audit_creation_method
;
Olex2 1.2
(compiled 2018.05.29 svn.r3508 for OlexSys, GUI svn.r5506)
;
_cell_angle_alpha                90.00
_cell_angle_beta                 103.917(1)
_cell_angle_gamma                90.00
_cell_formula_units_Z            4
_cell_length_a                   6.0903(2)
_cell_length_b                   3.4959(1)
_cell_length_c                   11.8348(3)
_cell_measurement_temperature    100(1)
_cell_volume                     244.579(12)
_computing_molecular_graphics    'Olex2 (Dolomanov et al., 2009)'
_computing_publication_material  'Olex2 (Dolomanov et al., 2009)'
_computing_structure_refinement  'olex2.refine (Bourhis et al., 2015)'
_diffrn_ambient_temperature      100(1)
_diffrn_measured_fraction_theta_full 0.6443
_diffrn_measured_fraction_theta_max 0.6443
_diffrn_measurement_device_type  'APEX II CCD detector'
_diffrn_radiation_type           'Mo K\a'
_diffrn_radiation_wavelength     0.71073
_diffrn_reflns_av_R_equivalents  0.0000
_diffrn_reflns_av_unetI/netI     0.0302
_diffrn_reflns_limit_h_max       13
_diffrn_reflns_limit_h_min       -14
_diffrn_reflns_limit_k_max       7
_diffrn_reflns_limit_k_min       0
_diffrn_reflns_limit_l_max       27
_diffrn_reflns_limit_l_min       0
_diffrn_reflns_number            2282
_diffrn_reflns_theta_full        58.5076
_diffrn_reflns_theta_max         58.51
_diffrn_reflns_theta_min         3.45
_exptl_absorpt_coefficient_mu    0.181
_exptl_crystal_density_diffrn    1.7117
_exptl_crystal_F_000             132.1419
_refine_diff_density_max         0.1799
_refine_diff_density_min         -0.2144
_refine_diff_density_rms         0.0448
_refine_ls_d_res_high            0.4167
_refine_ls_d_res_low             5.9115
_refine_ls_goodness_of_fit_ref   1.1995
_refine_ls_hydrogen_treatment    refall
_refine_ls_matrix_type           full
_refine_ls_number_constraints    0
_refine_ls_number_parameters     49
_refine_ls_number_reflns         2282
_refine_ls_number_restraints     0
_refine_ls_restrained_S_all      1.1995
_refine_ls_R_factor_all          0.0205
_refine_ls_R_factor_gt           0.0205
_refine_ls_shift/su_max          0.0004
_refine_ls_shift/su_mean         0.0001
_refine_ls_structure_factor_coef Fsqd
_refine_ls_weighting_details
'w=1/[\s^2^(Fo^2^)+(0.0109P)^2^] where P=(Fo^2^+2Fc^2^)/3'
_refine_ls_weighting_scheme      calc
_refine_ls_wR_factor_gt          0.0515
_refine_ls_wR_factor_ref         0.0515
_reflns_Friedel_coverage         0.0
_reflns_limit_h_max              13
_reflns_limit_h_min              -14
_reflns_limit_k_max              7
_reflns_limit_k_min              0
_reflns_limit_l_max              27
_reflns_limit_l_min              0
_reflns_number_gt                2282
_reflns_number_total             2282
_reflns_threshold_expression     I>=2u(I)
_iucr_refine_instructions_details
;
TITL oxa08
CELL 0.71073 6.0903 3.4959 11.8348 90 103.917 90
ZERR 4 0 0 0 0 0 0
LATT 1
SYMM -X,0.5+Y,0.5-Z
SFAC C H O
UNIT 4 12 12

FREE O3 H1
ACTA 
BOND $H
WGHT 0.010865 0
FVAR 1.015267
REM <olex2.extras>
REM <HklSrc "%.\\8c697e987307cd0377073e3d78efde82.hkl">
REM </olex2.extras>

O1    3     0.43477  0.44412  0.34990  11.00000  0.01294  0.01855  0.00845 =
 -0.00087  0.00209  0.00430 
O2    3     0.24252  0.74233  0.46368  11.00000  0.01113  0.01824  0.00917 =
 -0.00069  0.00105  0.00537 
C1    1     0.40307  0.55874  0.44795  11.00000  0.00914  0.01148  0.00802 =
 -0.00010  0.00124  0.00173 
O3    3     0.12997  0.63085  0.17844  11.00000  0.01066  0.01808  0.00934 =
 0.00112  0.00055 -0.00156 
H3a   2     0.01146  0.45857  0.15006  11.00000  0.02397 
H3b   2     0.18715  0.68992  0.11307  11.00000  0.02387 
H1    2     0.30338  0.52522  0.28291  11.00000  0.03513 
HKLF 4

END
Q1 1 0.45 0.458333 0.416667 11 0.05 0.18
Q2 1 0.325 0.708333 0.458333 11 0.05 0.18
Q3 1 0.25 0.583333 0.25 11 0.05 0.14
Q4 1 0.225 0.208333 0.333333 11 0.05 0.14
Q5 1 0.175 0.75 0.166667 11 0.05 0.13
Q6 1 0.15 0.958333 0.097222 11 0.05 0.13
Q7 1 0 0.5 0.5 11 0.05 0.13
Q8 1 0.4 0.416667 0.180556 11 0.05 0.12
Q9 1 -0.175 0.458333 0.125 11 0.05 0.12
Q10 1 0.5 0.875 0.527778 11 0.05 0.12
Q11 1 0.05 0.541667 0.180556 11 0.05 0.11
Q12 1 0.125 0.625 0.305556 11 0.05 0.11
Q13 1 0.25 0.875 0.263889 11 0.05 0.1
Q14 1 0.575 0.25 0.333333 11 0.05 0.09
Q15 1 0.35 1.083333 0.180556 11 0.05 0.09
Q16 1 0.375 1 0.569444 11 0.05 0.09
Q17 1 -0.025 0.916667 0.083333 11 0.05 0.09
Q18 1 0.6 0.625 0.430556 11 0.05 0.08
Q19 1 0.175 0.583333 0.027778 11 0.05 0.08
Q20 1 0.3 0.25 0.25 11 0.05 0.08

  REM The information below was added by Olex2.
  REM
  REM R1 = 0.0205 for 2282 Fo > 4sig(Fo) and 0.0205 for all 2282 data
  REM 49 parameters refined using 0 restraints
  REM Highest difference peak 0.1799, deepest hole -0.2144
  REM Mean Shift 0.0001, Max Shift 0.0004.

  REM +++ Tabular Listing of Refinement Information +++
  REM R1_all = 0.0205
  REM R1_gt = 0.0205
  REM wR_ref = 0.0515
  REM GOOF = 1.1995
  REM Shift_max = 0.0004
  REM Shift_mean = 0.0001
  REM Reflections_all = 2282
  REM Reflections_gt = 2282
  REM Parameters = 49
  REM Hole = -0.2144
  REM Peak = 0.1799
  REM Flack = n/a

  
;
_cod_data_source_file            61_TAAM_iso_max.cif
_cod_data_source_block           61_TAAM_iso_max
_cod_original_cell_volume        244.58(1)
_cod_database_code               2022055
_olex2_refinement_description
;
;
_iucr_refine_fcf_details
;
data_oxa08
_computing_structure_refinement   'olex2.refine (Bourhis et al., 2015)'
_shelx_refln_list_code            4
loop_
  _space_group_symop_id
  _space_group_symop_operation_xyz
  1  x,y,z
  2  -x,y+1/2,-z+1/2
  3  -x,-y,-z
  4  x,-y-1/2,z-1/2

_space_group_crystal_system       monoclinic
_space_group_IT_number            14
_space_group_name_H-M_alt         'P 1 21/c 1'
_space_group_name_Hall            '-P 2ybc'
_symmetry_space_group_name_H-M    'P 1 21/c 1'
_symmetry_space_group_name_Hall   '-P 2ybc'
_symmetry_Int_Tables_number       14
_cell_length_a                    6.0903
_cell_length_b                    3.4959
_cell_length_c                    11.8348
_cell_angle_alpha                 90
_cell_angle_beta                  103.917
_cell_angle_gamma                 90
_cell_volume                      244.578966
loop_
  _refln_index_h
  _refln_index_k
  _refln_index_l
  _refln_F_squared_calc
  _refln_F_squared_meas
  _refln_F_squared_sigma
  _refln_F_squared_weight
  _refln_observed_status
-14 0 10 1.179 1.281 0.427 34.979 o
-14 1 6 3.799 4.802 0.592 18.112 o
-14 1 7 7.102 7.169 0.660 14.460 o
-14 1 12 1.326 1.475 0.417 36.613 o
-14 2 6 8.481 9.042 0.621 16.177 o
-13 0 6 34.298 38.127 1.261 3.667 o
-13 0 8 3.350 3.279 0.534 22.306 o
-13 0 12 11.373 11.875 0.796 9.837 o
-13 0 16 9.417 9.818 0.679 13.518 o
-13 0 18 1.022 1.232 0.378 44.522 o
-13 1 2 14.249 14.329 0.689 12.798 o
-13 1 4 1.147 1.242 0.194 168.726 o
-13 1 5 9.686 9.653 0.466 27.994 o
-13 1 8 3.585 4.104 0.446 31.768 o
-13 1 10 3.361 3.454 0.281 79.240 o
-13 1 12 3.319 3.560 0.281 79.235 o
-13 1 15 1.500 1.659 0.330 58.484 o
-13 1 16 3.969 4.278 0.592 18.116 o
-13 1 17 1.981 2.076 0.427 34.921 o
-13 2 1 4.031 3.861 0.631 15.969 o
-13 2 3 0.995 0.902 0.223 127.855 o
-13 2 5 1.239 1.455 0.233 117.242 o
-13 2 8 2.243 2.319 0.475 28.156 o
-13 2 10 3.950 4.269 0.631 15.966 o
-13 2 14 2.928 3.512 0.553 20.785 o
-13 2 16 3.421 3.289 0.262 91.194 o
-13 3 4 4.444 4.511 0.708 12.661 o
-13 3 5 2.261 2.707 0.572 19.432 o
-13 3 6 4.120 4.046 0.660 14.593 o
-13 3 7 2.331 2.668 0.437 33.350 o
-13 3 9 1.905 1.610 0.417 36.579 o
-13 3 10 4.147 4.046 0.563 20.024 o
-13 3 12 0.827 0.689 0.223 127.952 o
-12 0 2 9.029 8.984 0.359 46.084 o
-12 0 4 41.072 39.893 1.038 5.012 o
-12 0 6 4.247 4.036 0.262 90.274 o
-12 0 10 2.638 2.687 0.504 24.987 o
-12 0 12 8.224 9.061 0.766 10.706 o
-12 0 14 5.397 5.937 0.718 12.291 o
-12 0 16 17.663 19.277 0.912 7.327 o
-12 1 1 1.946 1.843 0.272 85.957 o
-12 1 2 1.043 1.203 0.204 153.183 o
-12 1 5 19.135 19.529 0.893 7.591 o
-12 1 6 4.482 4.608 0.291 73.228 o
-12 1 7 1.548 1.533 0.349 52.183 o
-12 1 8 11.662 12.302 0.456 28.411 o
-12 1 9 11.210 12.098 0.601 16.904 o
-12 1 10 2.795 3.134 0.378 44.257 o
-12 1 11 0.998 1.106 0.272 86.312 o
-12 1 12 6.559 6.762 0.378 43.008 o
-12 1 15 13.335 14.572 0.485 24.766 o
-12 1 16 1.700 1.795 0.466 29.372 o
-12 1 19 1.449 1.310 0.194 168.423 o
-12 1 20 3.403 3.725 0.563 20.058 o
-12 2 1 13.114 14.174 1.028 5.913 o
-12 2 2 5.038 5.375 0.369 45.885 o
-12 2 5 7.808 7.742 0.398 38.579 o
-12 2 7 3.320 3.037 0.359 49.047 o
-12 2 8 4.136 4.715 0.349 51.371 o
-12 2 9 4.093 4.831 0.689 13.384 o
-12 2 11 8.502 8.984 0.572 18.960 o
-12 2 12 1.147 1.145 0.378 44.517 o
-12 2 13 4.856 4.696 0.679 13.752 o
-12 2 18 5.203 5.258 0.621 16.412 o
-12 3 3 3.084 3.085 0.407 38.169 o
-12 3 7 1.245 1.300 0.233 117.274 o
-12 3 14 3.697 2.988 0.631 15.987 o
-12 3 16 1.512 1.659 0.427 34.958 o
-12 4 5 2.264 2.066 0.572 19.439 o
-12 4 9 1.428 1.504 0.194 168.346 o
-12 4 13 2.318 2.348 0.437 33.362 o
-12 4 14 7.484 7.519 0.572 19.086 o
-11 0 2 3.723 3.454 0.194 162.725 o
-11 0 4 9.307 9.343 0.563 19.518 o
-11 0 8 84.824 84.956 3.822 0.413 o
-11 0 10 7.863 7.936 0.437 32.232 o
-11 0 12 2.392 2.057 0.475 28.155 o
-11 0 14 32.727 33.567 1.164 4.299 o
-11 1 2 5.787 5.986 0.252 94.280 o
-11 1 3 13.403 13.825 0.407 33.994 o
-11 1 4 34.997 34.353 0.883 6.918 o
-11 1 5 2.085 2.134 0.155 259.177 o
-11 1 7 1.354 1.533 0.184 186.474 o
-11 1 8 1.243 1.543 0.165 232.728 o
-11 1 9 6.239 5.530 0.514 23.749 o
-11 1 10 3.555 3.337 0.223 124.556 o
-11 1 11 4.028 3.716 0.640 15.492 o
-11 1 12 13.065 12.020 0.495 24.176 o
-11 1 14 6.339 7.131 0.369 45.230 o
-11 1 15 5.947 5.986 0.766 10.784 o
-11 1 16 2.389 2.299 0.495 25.991 o
-11 1 18 8.858 9.575 0.776 10.422 o
-11 1 19 10.762 10.875 0.757 10.880 o
-11 2 1 2.729 2.823 0.281 79.694 o
-11 2 3 1.296 1.397 0.175 207.789 o
-11 2 4 11.006 10.672 0.466 27.635 o
-11 2 5 2.128 2.193 0.184 184.802 o
-11 2 6 6.190 6.044 0.592 17.988 o
-11 2 7 7.893 8.120 0.456 29.618 o
-11 2 10 1.047 0.834 0.165 233.583 o
-11 2 11 2.134 2.270 0.475 28.162 o
-11 2 12 2.496 2.600 0.514 24.062 o
-11 2 15 9.782 11.273 0.834 9.004 o
-11 2 18 2.209 2.241 0.184 184.610 o
-11 2 19 0.963 0.854 0.155 263.674 o
-11 2 21 3.522 3.648 0.262 90.994 o
-11 2 22 1.677 1.319 0.388 42.285 o
-11 3 1 0.945 1.184 0.281 80.474 o
-11 3 2 3.080 3.541 0.310 65.359 o
-11 3 4 4.576 4.453 0.786 10.291 o
-11 3 5 6.269 6.209 0.427 34.149 o
-11 3 6 2.885 2.590 0.456 30.551 o
-11 3 7 3.345 3.522 0.320 61.425 o
-11 3 10 12.052 12.088 0.922 7.362 o
-11 3 11 3.936 4.375 0.718 12.331 o
-11 3 13 2.347 2.833 0.233 116.090 o
-11 3 16 3.658 3.754 0.233 114.293 o
-11 3 17 4.364 4.657 0.243 104.290 o
-11 4 1 1.287 1.436 0.243 108.068 o
-11 4 2 2.736 2.115 0.563 20.102 o
-11 4 3 5.252 4.715 0.718 12.306 o
-11 4 6 6.472 5.530 0.766 10.779 o
-11 4 9 2.321 2.086 0.175 205.217 o
-11 4 10 3.561 3.415 0.621 16.487 o
-11 4 12 3.086 2.872 0.204 149.833 o
-11 4 13 5.743 5.103 0.252 94.890 o
-11 4 15 0.673 0.514 0.146 300.620 o
-11 4 16 0.514 0.601 0.146 300.770 o
-11 5 4 3.407 3.396 0.262 91.167 o
-11 5 6 3.192 3.172 0.466 29.259 o
-11 5 12 0.852 0.640 0.175 208.718 o
-10 0 4 8.361 8.062 0.592 17.807 o
-10 0 6 11.470 11.535 0.543 20.531 o
-10 0 8 17.296 17.113 1.184 4.443 o
-10 0 10 11.357 11.981 0.485 25.409 o
-10 0 12 11.677 10.914 0.737 11.412 o
-10 0 16 2.884 2.581 0.485 27.009 o
-10 1 1 3.389 3.434 0.204 148.803 o
-10 1 2 0.467 0.572 0.107 558.741 o
-10 1 3 2.275 2.183 0.136 335.044 o
-10 1 4 0.737 0.728 0.126 399.496 o
-10 1 5 9.368 9.440 0.301 63.254 o
-10 1 7 46.203 45.975 1.145 4.085 o
-10 1 8 19.311 19.355 0.601 15.719 o
-10 1 9 9.822 9.478 0.504 24.018 o
-10 1 10 6.072 5.792 0.388 41.211 o
-10 1 11 1.897 1.707 0.204 152.250 o
-10 1 12 3.802 4.094 0.407 38.016 o
-10 1 13 10.980 11.535 0.407 35.298 o
-10 1 14 17.080 17.172 2.086 1.455 o
-10 1 17 14.482 15.183 0.912 7.443 o
-10 1 18 2.378 2.096 0.213 138.183 o
-10 1 19 1.834 1.979 0.310 65.910 o
-10 1 22 10.908 11.002 0.640 15.043 o
-10 1 24 4.411 4.113 0.456 30.365 o
-10 2 2 10.967 10.740 0.349 46.917 o
-10 2 3 47.970 48.876 1.154 3.968 o
-10 2 4 27.345 27.776 0.669 11.874 o
-10 2 7 1.288 1.591 0.165 232.601 o
-10 2 8 9.102 8.916 0.340 51.062 o
-10 2 9 12.940 12.971 0.660 14.021 o
-10 2 10 0.873 0.825 0.155 263.834 o
-10 2 11 11.353 11.448 0.689 13.027 o
-10 2 12 4.714 5.210 0.893 7.980 o
-10 2 13 11.230 11.768 0.407 35.171 o
-10 2 14 13.510 13.563 0.504 23.107 o
-10 2 16 0.727 0.951 0.194 169.121 o
-10 2 17 3.407 3.657 0.679 13.791 o
-10 2 21 1.001 1.057 0.223 127.822 o
-10 2 23 0.646 0.679 0.165 234.110 o
-10 3 1 2.563 2.726 0.601 17.595 o
-10 3 2 7.975 8.305 0.417 35.104 o
-10 3 3 3.562 3.531 0.310 65.189 o
-10 3 4 10.383 10.274 0.611 16.520 o
-10 3 6 10.726 10.332 0.417 34.066 o
-10 3 7 0.515 0.757 0.204 153.551 o
-10 3 8 5.688 6.034 0.281 76.746 o
-10 3 9 0.918 0.922 0.155 263.692 o
-10 3 10 7.719 8.169 0.359 46.856 o
-10 3 14 8.037 7.819 0.320 58.007 o
-10 3 15 2.519 2.464 0.194 166.203 o
-10 3 17 1.389 1.688 0.175 207.432 o
-10 3 19 0.826 0.592 0.155 264.060 o
-10 3 20 6.974 6.752 0.291 70.630 o
-10 3 21 2.750 3.037 0.204 150.247 o
-10 3 22 1.014 0.960 0.184 187.124 o
-10 4 2 10.188 10.235 0.660 14.257 o
-10 4 3 6.497 6.306 0.359 47.705 o
-10 4 6 3.250 3.454 0.320 61.465 o
-10 4 8 3.035 3.095 0.204 149.732 o
-10 4 9 3.203 3.182 0.378 44.194 o
-10 4 10 6.992 7.111 0.340 52.668 o
-10 4 13 7.411 8.392 0.747 11.290 o
-10 4 16 10.164 10.342 0.359 45.187 o
-10 4 17 0.806 0.805 0.155 263.944 o
-10 4 19 1.102 1.135 0.213 139.603 o
-10 5 2 6.640 6.956 0.291 70.826 o
-10 5 4 2.271 2.503 0.194 166.581 o
-10 5 5 2.815 3.454 0.272 85.210 o
-10 5 6 5.808 5.986 0.330 56.526 o
-10 5 10 0.597 0.834 0.184 187.471 o
-10 5 11 1.131 1.184 0.165 233.214 o
-10 5 12 14.011 14.009 0.679 13.172 o
-10 5 14 0.914 0.747 0.194 169.070 o
-10 6 1 3.499 3.667 0.504 24.922 o
-10 6 2 2.120 1.950 0.194 167.230 o
-10 6 3 1.187 0.931 0.165 233.320 o
-10 6 5 1.051 0.951 0.165 233.499 o
-10 6 6 0.807 0.796 0.165 233.894 o
-10 6 8 1.720 1.484 0.175 207.052 o
-9 0 2 3.672 4.230 0.330 57.705 o
-9 0 4 56.164 56.783 1.319 3.015 o
-9 0 6 23.804 24.341 0.708 11.203 o
-9 0 8 4.236 4.880 0.757 11.096 o
-9 0 10 50.931 51.146 2.037 1.431 o
-9 0 14 1.758 1.785 0.417 36.583 o
-9 0 22 6.785 6.840 0.611 16.832 o
-9 0 24 3.823 3.405 0.495 25.892 o
-9 1 1 0.494 0.504 0.116 469.713 o
-9 1 2 1.350 1.630 0.146 297.807 o
-9 1 4 10.219 10.313 0.320 55.526 o
-9 1 5 2.868 3.172 0.184 182.188 o
-9 1 6 21.473 21.256 0.631 14.124 o
-9 1 7 16.902 16.890 0.563 18.211 o
-9 1 8 4.708 4.046 0.378 43.838 o
-9 1 9 17.151 16.745 0.669 13.229 o
-9 1 10 0.992 1.271 0.194 168.838 o
-9 1 11 6.597 6.199 0.873 8.315 o
-9 1 14 13.388 12.796 0.825 9.107 o
-9 1 16 2.696 2.513 0.650 15.071 o
-9 1 17 34.569 36.575 1.057 5.044 o
-9 1 18 6.421 6.684 0.340 53.034 o
-9 1 19 2.646 3.172 0.243 106.750 o
-9 1 20 4.117 3.852 0.543 21.476 o
-9 1 21 6.801 6.529 0.601 17.378 o
-9 1 23 2.057 1.892 0.427 34.922 o
-9 2 1 4.686 4.783 0.407 37.828 o
-9 2 3 0.748 0.456 0.146 300.556 o
-9 2 5 5.869 6.277 0.272 81.744 o
-9 2 6 33.939 33.703 1.135 4.481 o
-9 2 7 9.782 9.517 0.495 24.931 o
-9 2 8 54.636 53.620 1.290 3.170 o
-9 2 9 1.249 1.717 0.184 186.490 o
-9 2 10 5.192 4.957 0.233 111.341 o
-9 2 12 3.109 3.221 0.213 136.549 o
-9 2 13 30.406 30.249 1.193 4.163 o
-9 2 14 4.529 5.171 0.330 57.240 o
-9 2 15 0.502 0.582 0.165 234.264 o
-9 2 16 9.327 10.284 0.398 37.706 o
-9 2 17 8.114 8.596 0.863 8.466 o
-9 2 18 14.338 15.018 0.485 24.506 o
-9 2 19 3.754 3.764 0.272 84.550 o
-9 2 21 6.743 6.849 0.398 38.988 o
-9 2 22 2.673 2.581 0.446 31.902 o
-9 2 23 7.377 7.800 0.611 16.779 o
-9 2 24 3.257 3.289 0.485 26.969 o
-9 3 1 2.644 2.716 0.233 115.886 o
-9 3 2 83.612 82.929 1.901 1.438 o
-9 3 3 12.229 12.437 0.718 11.964 o
-9 3 4 20.764 20.558 0.601 15.472 o
-9 3 6 1.053 1.184 0.146 299.259 o
-9 3 7 19.727 19.704 0.524 19.915 o
-9 3 8 6.439 6.306 0.407 37.341 o
-9 3 9 1.244 1.232 0.194 168.648 o
-9 3 10 4.979 4.696 0.272 83.282 o
-9 3 11 1.041 1.125 0.175 208.290 o
-9 3 12 40.497 41.280 0.951 5.800 o
-9 3 13 6.658 6.578 0.340 52.951 o
-9 3 14 6.000 5.753 0.272 81.874 o
-9 3 15 2.290 2.619 0.194 166.455 o
-9 3 16 2.864 2.775 0.243 106.735 o
-9 3 18 2.720 2.687 0.204 150.564 o
-9 3 21 0.394 0.543 0.146 300.934 o
-9 3 22 2.388 2.406 0.252 99.218 o
-9 4 1 11.494 11.972 0.475 26.362 o
-9 4 2 3.656 3.900 0.262 90.801 o
-9 4 3 20.896 21.023 0.543 18.390 o
-9 4 6 7.830 7.819 0.310 61.577 o
-9 4 7 0.797 0.834 0.136 344.395 o
-9 4 8 4.094 4.210 0.213 134.115 o
-9 4 9 1.744 1.795 0.146 296.144 o
-9 4 10 0.561 0.572 0.126 400.143 o
-9 4 11 5.544 6.073 0.330 56.627 o
-9 4 12 5.734 6.025 0.291 71.909 o
-9 4 13 7.534 7.189 0.330 55.333 o
-9 4 20 5.468 5.588 0.262 88.370 o
-9 4 21 0.704 0.854 0.146 300.312 o
-9 5 1 1.553 1.504 0.155 261.755 o
-9 5 9 3.597 3.522 0.252 97.954 o
-9 5 10 0.842 0.796 0.126 399.068 o
-9 5 12 3.036 3.221 0.281 79.463 o
-9 5 15 2.219 2.183 0.175 205.340 o
-9 5 16 8.257 8.207 0.417 35.046 o
-9 6 1 1.592 1.533 0.175 207.229 o
-9 6 3 3.975 3.997 0.272 84.320 o
-9 6 5 3.399 3.376 0.310 65.276 o
-9 6 6 0.561 0.669 0.175 208.923 o
-9 6 11 7.373 6.772 0.543 21.179 o
-9 6 12 2.501 2.852 0.243 106.984 o
-8 0 2 3.543 3.240 0.640 15.508 o
-8 0 4 4.395 4.259 0.660 14.584 o
-8 0 8 49.358 49.701 1.863 1.697 o
-8 0 10 6.296 6.898 0.834 9.100 o
-8 0 12 2.939 3.085 0.660 14.624 o
-8 0 26 6.542 6.762 0.553 20.517 o
-8 1 1 28.522 30.463 0.757 9.479 o
-8 1 3 18.917 19.054 0.504 21.485 o
-8 1 4 29.473 28.920 0.708 10.583 o
-8 1 5 22.357 22.149 0.563 17.002 o
-8 1 6 1.676 1.853 0.146 296.292 o
-8 1 7 54.992 56.152 1.446 2.602 o
-8 1 8 6.019 5.559 0.543 21.322 o
-8 1 9 13.333 12.874 0.699 12.548 o
-8 1 10 35.585 34.140 1.737 2.018 o
-8 1 12 1.759 1.620 0.175 206.863 o
-8 1 15 15.209 15.823 0.466 26.051 o
-8 1 16 8.322 8.402 0.310 60.990 o
-8 1 17 6.758 6.374 0.310 62.814 o
-8 1 18 10.213 10.216 0.796 9.889 o
-8 1 21 4.085 3.997 0.582 18.722 o
-8 1 24 8.712 8.916 0.640 15.223 o
-8 2 1 39.364 39.669 0.941 5.966 o
-8 2 2 15.983 15.901 0.456 26.811 o
-8 2 3 6.860 6.529 0.272 80.586 o
-8 2 4 16.012 16.017 0.495 23.193 o
-8 2 5 32.717 32.607 0.873 7.181 o
-8 2 6 55.917 55.270 1.290 3.141 o
-8 2 7 6.225 5.908 0.320 59.671 o
-8 2 8 6.589 6.432 0.310 62.904 o
-8 2 9 1.277 1.513 0.165 232.693 o
-8 2 10 11.183 10.633 0.388 38.696 o
-8 2 11 19.552 19.713 0.747 10.573 o
-8 2 12 8.120 7.528 0.475 27.335 o
-8 2 13 1.957 2.125 0.184 185.162 o
-8 2 14 11.096 11.040 0.766 10.600 o
-8 2 16 36.359 37.370 1.019 5.332 o
-8 2 17 1.922 2.008 0.194 167.463 o
-8 2 18 13.477 13.000 0.601 16.669 o
-8 2 19 3.426 3.337 0.223 124.727 o
-8 2 23 2.646 2.920 0.485 27.012 o
-8 3 2 8.325 8.566 0.291 68.565 o
-8 3 3 6.828 7.208 0.310 62.494 o
-8 3 5 0.927 1.038 0.155 263.584 o
-8 3 6 33.186 32.490 0.786 8.555 o
-8 3 7 10.493 10.943 0.378 40.759 o
-8 3 8 21.487 20.771 0.611 14.946 o
-8 3 9 5.226 5.074 0.272 82.907 o
-8 3 10 9.240 9.605 0.456 29.231 o
-8 3 11 5.793 5.549 0.301 67.655 o
-8 3 12 49.935 48.876 1.252 3.437 o
-8 3 13 1.419 1.698 0.194 168.255 o
-8 3 14 1.259 1.009 0.155 263.003 o
-8 3 16 17.317 17.696 0.543 19.270 o
-8 3 17 15.962 16.231 0.534 20.245 o
-8 3 19 0.927 1.222 0.194 168.905 o
-8 3 20 7.634 8.159 0.320 58.160 o
-8 3 22 23.070 23.798 0.970 6.346 o
-8 3 23 2.790 2.959 0.611 17.035 o
-8 4 1 21.608 21.867 0.621 14.465 o
-8 4 2 19.366 19.520 0.689 12.293 o
-8 4 3 15.511 15.678 0.495 23.335 o
-8 4 4 10.870 10.817 0.524 22.125 o
-8 4 5 3.128 3.376 0.204 149.328 o
-8 4 6 4.721 4.822 0.281 77.971 o
-8 4 7 2.875 2.581 0.184 182.870 o
-8 4 8 4.071 4.181 0.252 97.230 o
-8 4 11 22.044 22.682 0.563 17.009 o
-8 4 12 16.822 16.784 0.534 20.058 o
-8 4 13 10.707 10.536 0.340 49.578 o
-8 4 15 2.824 2.697 0.213 137.298 o
-8 4 16 2.557 2.649 0.175 203.928 o
-8 4 18 4.788 4.928 0.291 72.940 o
-8 4 20 0.276 0.427 0.126 400.775 o
-8 4 21 6.753 6.898 0.427 33.994 o
-8 5 1 4.700 5.016 0.243 103.652 o
-8 5 2 26.821 26.883 0.660 12.263 o
-8 5 5 1.492 1.475 0.194 168.296 o
-8 5 7 4.561 4.608 0.281 78.159 o
-8 5 8 7.762 7.247 0.504 24.416 o
-8 5 10 2.216 2.319 0.165 229.505 o
-8 5 12 1.057 0.621 0.126 398.633 o
-8 5 15 0.657 0.582 0.155 264.266 o
-8 5 19 0.963 1.164 0.126 397.959 o
-8 6 4 0.665 0.873 0.184 187.417 o
-8 6 11 0.680 0.631 0.155 264.213 o
-8 6 13 1.472 1.358 0.136 341.348 o
-8 6 14 0.511 0.359 0.116 469.859 o
-8 6 15 4.025 4.036 0.194 161.257 o
-8 7 2 1.537 1.232 0.175 207.556 o
-7 0 2 14.360 15.086 0.970 6.602 o
-7 0 4 41.012 41.154 1.533 2.503 o
-7 0 6 253.421 254.432 5.704 0.159 o
-7 0 10 1.465 1.940 0.514 24.103 o
-7 0 12 5.337 6.170 0.388 41.344 o
-7 0 14 10.190 11.632 0.669 13.823 o
-7 0 16 7.047 8.702 1.096 5.279 o
-7 0 18 7.493 8.052 1.135 4.925 o
-7 1 1 17.242 17.996 0.543 19.258 o
-7 1 2 85.514 87.653 2.697 0.783 o
-7 1 3 3.783 3.318 0.281 79.048 o
-7 1 6 18.911 19.510 0.922 7.148 o
-7 1 7 51.401 49.769 1.261 3.365 o
-7 1 9 10.088 10.158 0.456 29.002 o
-7 1 10 29.090 28.852 0.805 8.532 o
-7 1 11 45.640 46.005 1.174 3.926 o
-7 1 12 2.969 3.143 0.281 79.513 o
-7 1 13 9.079 8.916 0.427 33.258 o
-7 1 14 14.978 14.921 0.534 20.506 o
-7 1 15 12.713 13.252 0.611 16.226 o
-7 1 16 5.812 5.637 0.437 32.801 o
-7 1 17 22.068 20.965 1.135 4.747 o
-7 1 20 4.281 3.590 0.805 9.810 o
-7 1 21 2.910 2.639 0.776 10.575 o
-7 1 25 7.036 6.743 0.631 15.818 o
-7 2 3 22.763 22.595 0.776 9.619 o
-7 2 4 3.524 3.114 0.213 136.007 o
-7 2 5 10.030 9.672 0.427 32.918 o
-7 2 6 2.263 2.202 0.262 92.185 o
-7 2 7 18.838 18.753 0.640 14.123 o
-7 2 9 16.993 14.824 1.232 4.118 o
-7 2 10 76.844 72.005 2.716 0.793 o
-7 2 11 22.108 21.101 0.601 15.272 o
-7 2 12 7.904 8.227 0.320 57.961 o
-7 2 13 5.137 5.035 0.272 83.002 o
-7 2 14 3.322 3.405 0.243 106.067 o
-7 2 15 40.577 39.068 1.096 4.585 o
-7 2 16 11.687 12.030 0.378 39.975 o
-7 2 17 2.003 2.348 0.204 151.770 o
-7 2 18 4.597 4.414 0.437 33.053 o
-7 2 20 23.033 22.934 0.689 11.883 o
-7 2 21 11.774 12.146 0.621 15.861 o
-7 2 22 4.534 4.919 0.621 16.439 o
-7 2 23 3.604 3.279 0.553 20.765 o
-7 2 24 4.560 3.842 0.543 21.455 o
-7 2 25 2.489 2.348 0.446 31.922 o
-7 2 26 6.426 7.043 0.563 19.825 o
-7 3 1 1.918 1.940 0.155 260.060 o
-7 3 2 1.970 1.795 0.155 260.125 o
-7 3 3 1.990 2.183 0.194 167.248 o
-7 3 4 75.133 76.613 1.737 1.729 o
-7 3 5 33.795 32.403 0.815 8.022 o
-7 3 6 15.806 15.600 0.417 31.388 o
-7 3 9 9.630 9.313 0.534 21.596 o
-7 3 10 10.889 10.691 0.320 54.846 o
-7 3 12 1.019 1.106 0.136 343.426 o
-7 3 13 7.294 7.179 0.262 85.260 o
-7 3 14 22.464 21.615 0.650 13.275 o
-7 3 15 4.783 4.812 0.223 121.520 o
-7 3 16 22.014 22.430 0.582 16.080 o
-7 3 18 9.549 9.624 0.349 48.041 o
-7 3 20 2.477 2.173 0.223 126.446 o
-7 3 21 2.558 2.765 0.204 150.748 o
-7 3 22 2.708 2.678 0.233 115.845 o
-7 3 24 2.422 1.834 0.291 74.800 o
-7 4 1 20.953 21.052 0.747 10.458 o
-7 4 2 6.689 7.092 0.252 92.301 o
-7 4 3 0.604 0.708 0.107 557.843 o
-7 4 4 2.105 2.222 0.136 335.957 o
-7 4 5 23.137 21.828 0.621 14.294 o
-7 4 6 4.242 4.249 0.223 122.888 o
-7 4 7 4.498 4.676 0.272 83.680 o
-7 4 8 25.672 24.632 0.582 15.390 o
-7 4 9 5.123 5.433 0.213 130.794 o
-7 4 11 14.270 12.951 0.388 36.842 o
-7 4 12 3.310 3.551 0.213 136.000 o
-7 4 14 3.208 2.969 0.407 38.161 o
-7 4 15 12.567 12.078 0.369 41.409 o
-7 4 16 9.318 9.605 0.504 24.079 o
-7 4 17 3.385 3.958 0.223 124.367 o
-7 4 19 0.690 0.495 0.136 344.977 o
-7 4 21 7.491 7.499 0.291 69.850 o
-7 4 22 9.363 9.410 0.301 63.272 o
-7 5 1 3.889 4.210 0.223 123.463 o
-7 5 2 19.073 19.102 0.815 9.023 o
-7 5 3 3.485 3.308 0.175 200.119 o
-7 5 4 1.630 1.426 0.213 139.170 o
-7 5 5 1.018 1.048 0.155 263.419 o
-7 5 6 7.705 8.110 0.320 58.130 o
-7 5 7 0.593 0.708 0.126 399.908 o
-7 5 10 5.260 5.646 0.243 102.483 o
-7 5 11 9.193 8.683 0.310 60.194 o
-7 5 12 24.291 24.739 0.650 12.941 o
-7 5 14 1.103 1.242 0.146 299.064 o
-7 5 17 2.346 2.280 0.165 229.178 o
-7 5 18 3.687 3.793 0.204 147.879 o
-7 5 19 0.560 0.475 0.126 400.252 o
-7 5 20 3.233 3.425 0.301 69.549 o
-7 5 21 0.691 0.543 0.165 234.130 o
-7 6 1 16.269 15.969 0.582 17.257 o
-7 6 2 2.873 3.066 0.534 22.328 o
-7 6 4 0.737 0.757 0.155 264.068 o
-7 6 5 1.234 1.232 0.262 92.740 o
-7 6 6 5.944 6.345 0.291 71.629 o
-7 6 7 2.339 2.086 0.359 49.284 o
-7 6 8 4.046 4.599 0.320 60.988 o
-7 6 9 2.015 1.940 0.213 138.628 o
-7 6 11 1.887 1.601 0.146 295.969 o
-7 6 13 0.432 0.524 0.126 400.455 o
-7 6 16 1.654 1.543 0.194 168.084 o
-7 7 4 0.647 0.582 0.165 234.151 o
-7 7 5 2.291 1.872 0.252 99.419 o
-7 7 6 0.847 0.699 0.165 233.903 o
-6 0 2 179.728 184.397 3.706 0.362 o
-6 0 4 3.393 2.736 0.475 28.084 o
-6 0 6 162.629 162.083 3.279 0.460 o
-6 0 8 1.098 1.213 0.204 153.144 o
-6 0 10 286.592 290.182 6.684 0.117 o
-6 0 14 24.561 26.233 1.057 5.349 o
-6 0 16 127.681 123.103 3.095 0.557 o
-6 0 18 14.600 14.640 0.679 13.117 o
-6 0 20 9.588 8.712 1.019 6.088 o
-6 0 22 2.661 2.086 0.679 13.812 o
-6 1 1 1.217 1.378 0.136 342.303 o
-6 1 2 7.093 6.587 0.291 70.599 o
-6 1 3 1.085 1.028 0.165 233.398 o
-6 1 4 33.009 31.685 0.844 7.617 o
-6 1 5 96.541 96.288 2.115 1.145 o
-6 1 6 151.564 151.383 3.366 0.454 o
-6 1 8 2.843 2.910 0.194 165.208 o
-6 1 9 42.938 44.675 1.096 4.476 o
-6 1 10 50.069 51.758 1.290 3.243 o
-6 1 11 4.137 3.784 0.291 73.658 o
-6 1 12 42.042 41.076 1.271 3.504 o
-6 1 13 4.895 4.793 0.291 72.915 o
-6 1 14 21.956 21.091 0.669 12.670 o
-6 1 15 3.302 3.512 0.272 84.915 o
-6 1 19 11.330 11.050 0.524 22.048 o
-6 1 20 27.308 27.950 1.669 2.220 o
-6 1 21 12.361 10.778 1.145 4.808 o
-6 1 26 1.605 2.115 0.446 31.975 o
-6 1 27 1.712 1.921 0.407 38.340 o
-6 2 1 70.508 69.880 2.212 1.165 o
-6 2 2 38.214 38.534 1.154 4.236 o
-6 2 3 59.574 63.720 1.494 2.389 o
-6 2 4 4.973 5.210 0.223 120.826 o
-6 2 5 4.260 4.181 0.252 97.046 o
-6 2 6 0.903 0.980 0.136 343.942 o
-6 2 8 13.082 14.155 0.446 28.937 o
-6 2 9 31.167 32.190 0.825 8.003 o
-6 2 10 9.307 9.866 0.524 22.378 o
-6 2 12 8.816 8.547 0.514 23.338 o
-6 2 14 6.564 6.364 0.291 71.132 o
-6 2 15 2.668 2.736 0.184 183.162 o
-6 2 17 9.170 9.216 0.310 59.996 o
-6 2 18 19.023 18.258 0.485 23.042 o
-6 2 19 2.504 2.299 0.252 99.181 o
-6 2 20 20.017 20.645 0.776 9.805 o
-6 2 21 1.499 1.562 0.456 30.645 o
-6 2 25 11.386 11.525 0.699 12.675 o
-6 3 1 12.635 13.117 0.660 14.036 o
-6 3 2 11.614 11.496 0.359 44.101 o
-6 3 3 1.418 1.261 0.136 341.761 o
-6 3 4 4.276 4.734 0.378 43.856 o
-6 3 6 6.064 6.131 0.369 45.479 o
-6 3 7 7.161 7.664 0.340 52.450 o
-6 3 8 39.837 41.319 1.106 4.508 o
-6 3 9 31.091 32.306 0.854 7.542 o
-6 3 10 0.521 0.495 0.097 675.620 o
-6 3 11 4.378 3.871 0.233 113.311 o
-6 3 13 6.481 6.413 0.475 27.630 o
-6 3 14 54.479 51.767 1.222 3.480 o
-6 3 15 11.892 12.272 0.378 39.822 o
-6 3 16 1.756 1.552 0.155 261.138 o
-6 3 17 0.581 0.873 0.155 264.187 o
-6 3 18 8.677 8.207 0.320 57.442 o
-6 3 19 15.029 15.066 0.485 24.350 o
-6 3 20 0.861 0.922 0.155 263.780 o
-6 3 22 4.790 5.093 0.320 60.576 o
-6 3 24 17.679 17.599 1.446 3.000 o
-6 3 25 2.005 2.008 0.398 40.203 o
-6 4 1 7.944 7.606 0.320 58.138 o
-6 4 3 7.325 6.830 0.233 105.866 o
-6 4 4 41.808 40.058 1.096 4.549 o
-6 4 5 38.207 36.002 0.825 7.543 o
-6 4 6 1.897 1.824 0.126 390.916 o
-6 4 8 6.869 6.510 0.262 86.225 o
-6 4 10 1.791 1.901 0.146 295.757 o
-6 4 11 6.402 6.694 0.262 86.683 o
-6 4 12 11.293 10.575 0.330 51.774 o
-6 4 13 13.310 14.009 0.495 23.943 o
-6 4 14 13.593 12.932 0.388 37.157 o
-6 4 15 22.240 21.993 0.669 12.607 o
-6 4 16 0.527 0.611 0.126 400.178 o
-6 4 18 6.306 6.151 0.262 87.120 o
-6 4 19 0.831 1.096 0.136 343.980 o
-6 4 21 1.365 1.261 0.136 341.966 o
-6 4 22 0.519 0.543 0.126 400.266 o
-6 4 23 3.429 3.599 0.213 135.775 o
-6 5 2 0.623 0.679 0.116 469.045 o
-6 5 3 1.193 1.203 0.136 342.700 o
-6 5 4 36.782 36.390 1.319 3.359 o
-6 5 6 6.757 6.413 0.252 92.686 o
-6 5 7 2.725 2.843 0.175 203.202 o
-6 5 8 15.226 15.425 0.446 28.135 o
-6 5 9 1.350 1.290 0.136 341.967 o
-6 5 10 14.951 14.543 0.689 12.750 o
-6 5 11 0.490 0.524 0.126 400.345 o
-6 5 13 0.555 0.553 0.126 400.179 o
-6 5 14 2.439 2.299 0.291 74.720 o
-6 5 15 1.458 1.513 0.146 297.648 o
-6 5 16 7.428 7.897 0.369 44.709 o
-6 5 18 1.418 1.368 0.165 232.566 o
-6 5 20 2.439 2.319 0.243 107.217 o
-6 5 21 3.188 3.434 0.184 181.042 o
-6 6 1 1.787 1.814 0.155 260.664 o
-6 6 2 4.136 4.463 0.252 97.029 o
-6 6 4 2.868 2.484 0.340 54.912 o
-6 6 5 9.454 9.498 0.349 48.128 o
-6 6 8 0.498 0.485 0.126 400.367 o
-6 6 10 5.153 4.715 0.281 77.695 o
-6 6 11 10.011 9.847 0.398 37.547 o
-6 6 12 4.032 4.744 0.223 122.829 o
-6 6 13 0.728 0.728 0.146 300.378 o
-6 6 14 0.862 0.960 0.136 344.077 o
-6 6 15 3.618 3.483 0.291 74.000 o
-6 6 16 2.039 1.882 0.272 85.917 o
-6 6 17 1.393 1.009 0.136 342.332 o
-6 7 1 5.690 5.326 0.301 67.792 o
-6 7 6 1.198 1.281 0.184 186.795 o
-6 7 7 2.532 2.270 0.757 11.128 o
-6 7 9 2.552 2.319 0.514 24.065 o
-6 7 11 1.569 1.213 0.146 297.773 o
-5 0 2 87.711 89.632 2.008 1.288 o
-5 0 4 18.992 18.346 0.553 18.364 o
-5 0 6 119.303 119.348 2.678 0.721 o
-5 0 8 278.420 280.170 7.422 0.099 o
-5 0 10 100.054 104.029 2.454 0.881 o
-5 0 12 45.082 44.511 2.134 1.331 o
-5 0 18 25.922 26.437 0.941 6.605 o
-5 0 20 97.497 97.054 2.678 0.770 o
-5 1 1 56.087 57.084 1.310 3.051 o
-5 1 2 252.180 253.326 5.578 0.165 o
-5 1 3 47.267 51.263 1.242 3.504 o
-5 1 4 90.126 90.700 2.086 1.201 o
-5 1 5 30.250 31.006 0.805 8.414 o
-5 1 6 4.290 4.143 0.184 176.728 o
-5 1 7 0.821 0.815 0.223 127.934 o
-5 1 8 17.255 17.482 0.534 19.927 o
-5 1 9 261.933 266.957 6.054 0.142 o
-5 1 10 26.589 25.593 0.766 9.540 o
-5 1 12 24.629 24.196 0.708 11.147 o
-5 1 13 9.559 8.993 0.369 43.616 o
-5 1 14 25.602 25.011 0.757 9.833 o
-5 1 15 39.200 37.962 1.213 3.871 o
-5 1 16 54.364 52.534 1.455 2.595 o
-5 1 17 15.971 14.484 1.028 5.876 o
-5 1 18 0.560 0.640 0.204 153.556 o
-5 1 19 40.039 40.514 1.222 3.786 o
-5 2 1 9.573 9.731 0.320 56.244 o
-5 2 2 0.709 0.592 0.175 208.848 o
-5 2 3 4.600 4.191 0.272 83.789 o
-5 2 4 30.170 29.095 0.825 8.128 o
-5 2 5 175.644 173.948 3.929 0.335 o
-5 2 6 78.847 80.959 1.892 1.475 o
-5 2 7 21.306 23.274 0.912 7.180 o
-5 2 8 1.978 1.911 0.223 126.986 o
-5 2 11 40.126 40.504 1.145 4.248 o
-5 2 12 23.759 23.875 0.757 9.977 o
-5 2 13 72.149 71.850 2.212 1.159 o
-5 2 15 12.293 11.778 0.504 23.469 o
-5 2 16 3.312 3.434 0.301 69.516 o
-5 2 17 7.864 7.199 0.417 35.263 o
-5 2 18 4.573 4.191 0.301 68.762 o
-5 2 19 10.881 10.332 0.495 24.698 o
-5 2 22 9.902 10.109 0.718 12.103 o
-5 2 23 7.289 7.548 0.650 14.874 o
-5 2 24 1.760 1.669 0.427 34.945 o
-5 3 1 19.882 19.743 0.669 12.900 o
-5 3 3 6.263 5.928 0.233 108.725 o
-5 3 4 11.614 11.361 0.524 21.989 o
-5 3 5 3.521 3.425 0.340 54.653 o
-5 3 6 4.714 4.385 0.310 64.521 o
-5 3 7 15.842 16.434 0.514 21.645 o
-5 3 8 2.256 2.193 0.165 229.573 o
-5 3 10 6.381 5.675 0.233 108.740 o
-5 3 11 0.525 0.475 0.126 400.324 o
-5 3 12 0.690 0.640 0.107 557.584 o
-5 3 14 0.762 0.669 0.126 399.506 o
-5 3 15 2.283 2.134 0.175 205.249 o
-5 3 18 12.683 12.379 0.378 39.420 o
-5 3 19 5.619 5.947 0.262 88.015 o
-5 3 21 0.835 0.980 0.194 169.048 o
-5 3 23 3.648 4.084 0.281 78.907 o
-5 3 24 8.207 8.479 0.592 17.804 o
-5 4 1 3.316 3.434 0.155 250.940 o
-5 4 3 23.091 23.148 0.611 14.613 o
-5 4 4 23.471 22.207 0.786 9.379 o
-5 4 5 13.845 13.155 0.592 17.145 o
-5 4 7 1.174 1.038 0.107 552.899 o
-5 4 8 24.369 23.352 0.572 16.119 o
-5 4 10 23.380 21.838 0.669 12.514 o
-5 4 11 0.361 0.340 0.097 676.781 o
-5 4 12 1.894 1.756 0.126 391.181 o
-5 4 13 14.706 14.426 0.417 32.022 o
-5 4 14 6.868 7.092 0.330 55.723 o
-5 4 15 12.829 12.942 0.437 30.361 o
-5 4 17 2.474 2.367 0.184 183.970 o
-5 4 18 16.274 15.978 0.650 14.072 o
-5 4 19 0.463 0.485 0.165 234.323 o
-5 4 22 2.535 2.590 0.543 21.559 o
-5 4 23 8.717 8.615 0.650 14.789 o
-5 4 24 6.036 6.122 0.611 16.882 o
-5 5 1 2.799 2.503 0.146 289.499 o
-5 5 2 4.165 3.958 0.194 160.992 o
-5 5 3 3.166 3.143 0.272 85.102 o
-5 5 4 63.704 65.088 1.523 2.274 o
-5 5 6 8.676 8.295 0.310 60.757 o
-5 5 7 2.638 2.532 0.165 227.851 o
-5 5 8 6.024 5.966 0.233 109.115 o
-5 5 9 2.796 2.639 0.146 289.132 o
-5 5 10 3.378 3.483 0.184 180.466 o
-5 5 12 11.083 11.593 0.340 48.984 o
-5 5 13 4.181 4.540 0.233 113.125 o
-5 5 14 48.105 47.023 1.504 2.521 o
-5 5 16 0.762 0.621 0.126 399.577 o
-5 5 17 0.536 0.621 0.126 400.145 o
-5 5 18 1.255 1.455 0.223 127.608 o
-5 5 19 0.997 1.106 0.136 343.491 o
-5 5 20 2.722 2.425 0.524 23.177 o
-5 5 22 3.760 3.095 0.990 6.505 o
-5 6 3 19.544 19.811 0.699 11.960 o
-5 6 4 2.658 2.610 0.194 165.832 o
-5 6 5 1.479 1.630 0.175 207.334 o
-5 6 6 0.907 0.854 0.204 153.362 o
-5 6 7 1.625 1.727 0.194 168.011 o
-5 6 8 11.145 11.496 0.456 28.624 o
-5 6 9 2.382 2.445 0.243 107.213 o
-5 6 10 9.302 9.566 0.310 59.744 o
-5 6 11 0.702 0.679 0.116 468.759 o
-5 6 13 1.595 1.475 0.155 261.685 o
-5 6 15 4.038 3.842 0.272 84.331 o
-5 6 17 0.766 0.776 0.146 300.273 o
-5 6 18 3.338 3.425 0.213 136.054 o
-5 7 2 0.937 0.747 0.155 263.796 o
-5 7 7 2.365 1.921 0.223 126.661 o
-5 7 9 2.299 1.921 0.194 166.990 o
-5 7 10 2.077 1.630 0.194 167.509 o
-5 7 11 2.477 2.241 0.204 151.233 o
-4 0 2 963.505 951.661 22.440 0.010 o
-4 0 4 117.077 121.841 2.668 0.727 o
-4 0 6 42.758 45.112 1.087 4.543 o
-4 0 8 573.495 585.293 14.174 0.027 o
-4 0 10 1.243 2.251 0.398 40.249 o
-4 0 12 244.023 239.899 6.403 0.133 o
-4 0 14 1.791 2.163 0.291 74.933 o
-4 0 16 56.553 53.756 1.824 1.728 o
-4 0 18 130.731 131.106 7.393 0.113 o
-4 1 1 91.846 88.313 1.969 1.316 o
-4 1 2 55.590 56.356 1.300 3.100 o
-4 1 3 2.074 1.601 0.097 648.006 o
-4 1 4 34.209 33.907 0.815 7.961 o
-4 1 6 179.667 178.023 3.968 0.327 o
-4 1 7 87.570 88.012 1.969 1.333 o
-4 1 8 174.754 173.900 3.881 0.342 o
-4 1 9 45.554 45.956 1.193 3.820 o
-4 1 11 1.995 1.931 0.155 259.826 o
-4 1 12 81.754 81.871 1.921 1.424 o
-4 1 13 15.921 15.406 0.466 25.921 o
-4 1 14 16.907 17.036 0.592 16.608 o
-4 1 16 21.929 21.644 0.611 14.843 o
-4 1 17 4.331 4.647 0.262 89.938 o
-4 1 18 1.090 1.087 0.184 186.999 o
-4 1 19 51.327 53.436 1.407 2.776 o
-4 1 20 12.012 11.264 0.427 32.133 o
-4 1 21 1.393 1.368 0.233 117.192 o
-4 1 22 22.276 20.558 0.708 11.451 o
-4 2 1 54.738 52.582 1.213 3.515 o
-4 2 2 14.327 12.699 0.378 38.529 o
-4 2 3 78.205 77.593 1.795 1.619 o
-4 2 4 60.403 62.197 1.494 2.388 o
-4 2 5 5.663 5.860 0.291 72.022 o
-4 2 6 5.129 6.568 0.466 28.925 o
-4 2 7 6.862 7.005 0.485 26.480 o
-4 2 8 78.885 82.327 1.989 1.354 o
-4 2 9 14.430 14.620 0.679 13.128 o
-4 2 10 31.330 31.802 0.922 6.601 o
-4 2 11 7.854 7.887 0.398 38.545 o
-4 2 12 0.679 0.631 0.165 234.102 o
-4 2 13 3.081 3.017 0.262 91.509 o
-4 2 14 22.188 22.314 1.213 4.173 o
-4 2 15 34.593 32.675 0.970 5.922 o
-4 2 16 10.116 9.711 0.388 39.297 o
-4 2 17 7.238 7.228 0.378 42.722 o
-4 2 18 7.438 7.431 0.495 25.384 o
-4 2 19 6.208 5.559 0.650 14.950 o
-4 2 21 4.326 3.978 0.407 37.948 o
-4 2 24 2.400 1.785 0.407 38.295 o
-4 2 25 3.156 2.610 0.446 31.867 o
-4 2 27 6.509 6.607 0.514 23.679 o
-4 3 1 4.756 4.919 0.330 57.201 o
-4 3 2 13.250 15.018 0.485 24.737 o
-4 3 3 20.734 22.119 0.757 10.197 o
-4 3 4 238.906 240.423 5.472 0.174 o
-4 3 5 27.880 27.960 0.737 10.038 o
-4 3 6 8.705 7.955 0.330 54.417 o
-4 3 7 5.353 5.433 0.378 43.527 o
-4 3 9 35.914 36.245 0.912 6.478 o
-4 3 10 62.665 62.808 1.669 1.964 o
-4 3 11 20.263 20.063 0.699 11.901 o
-4 3 12 11.849 11.681 0.398 36.533 o
-4 3 13 0.945 1.057 0.116 466.802 o
-4 3 14 31.722 29.900 0.999 5.733 o
-4 3 15 5.808 5.559 0.243 101.762 o
-4 3 16 3.975 3.803 0.213 134.694 o
-4 3 17 14.156 14.863 0.446 28.532 o
-4 3 18 2.505 2.435 0.165 228.442 o
-4 3 20 6.256 5.384 0.281 76.538 o
-4 3 21 1.561 1.009 0.184 186.540 o
-4 4 2 5.086 4.793 0.233 111.633 o
-4 4 3 59.922 60.887 2.173 1.239 o
-4 4 4 0.719 0.951 0.136 344.443 o
-4 4 5 11.032 11.525 0.592 17.478 o
-4 4 6 28.502 28.416 0.844 7.895 o
-4 4 7 9.054 8.654 0.340 51.166 o
-4 4 8 4.253 4.230 0.184 176.704 o
-4 4 9 2.194 1.989 0.116 452.909 o
-4 4 10 2.946 3.007 0.213 136.928 o
-4 4 12 0.319 0.427 0.136 345.560 o
-4 4 13 27.710 25.835 0.669 11.932 o
-4 4 14 22.096 21.275 0.582 16.150 o
-4 4 15 0.878 0.669 0.146 300.170 o
-4 4 16 1.930 1.640 0.213 138.842 o
-4 4 17 4.708 4.666 0.281 78.036 o
-4 4 18 2.078 2.076 0.165 230.236 o
-4 4 20 4.439 4.414 0.252 96.749 o
-4 4 22 2.686 3.386 0.514 24.040 o
-4 4 23 5.066 5.384 0.621 16.415 o
-4 5 2 21.984 21.567 0.582 16.145 o
-4 5 3 2.450 2.319 0.184 184.066 o
-4 5 6 5.422 4.725 0.233 111.163 o
-4 5 8 7.962 7.509 0.291 69.415 o
-4 5 10 11.900 11.390 0.320 53.731 o
-4 5 11 1.350 1.193 0.116 463.922 o
-4 5 12 7.645 7.761 0.262 84.409 o
-4 5 13 0.521 0.621 0.116 469.469 o
-4 5 14 12.940 12.369 0.398 35.962 o
-4 5 17 1.734 1.475 0.175 207.036 o
-4 5 18 11.714 12.447 0.456 28.381 o
-4 5 22 5.664 5.384 0.563 19.919 o
-4 6 2 4.781 4.909 0.252 96.123 o
-4 6 3 12.995 13.272 0.407 34.255 o
-4 6 4 3.325 4.172 0.291 73.975 o
-4 6 5 5.631 5.879 0.281 76.858 o
-4 6 6 1.572 1.610 0.204 152.616 o
-4 6 7 9.586 8.741 0.310 59.850 o
-4 6 8 1.464 1.222 0.233 117.193 o
-4 6 11 0.515 0.679 0.126 400.127 o
-4 6 12 4.276 4.434 0.233 113.069 o
-4 6 13 19.698 19.772 0.543 18.705 o
-4 6 14 4.719 4.841 0.873 8.339 o
-4 6 16 1.032 1.087 0.233 117.400 o
-4 6 18 3.879 4.046 0.291 73.726 o
-4 6 19 0.605 0.563 0.136 345.068 o
-4 7 2 4.584 4.657 0.243 104.023 o
-4 7 3 4.909 4.899 0.252 95.987 o
-4 7 4 2.637 2.416 0.184 183.579 o
-4 7 6 0.833 0.650 0.184 187.381 o
-4 7 7 2.691 3.037 0.262 91.740 o
-4 7 8 1.952 2.163 0.223 126.906 o
-4 7 9 7.449 7.034 0.815 9.516 o
-4 7 11 0.825 0.621 0.165 233.967 o
-3 0 2 15.156 14.766 0.417 31.792 o
-3 0 4 83.715 85.839 1.863 1.480 o
-3 0 6 11.768 12.593 0.349 45.866 o
-3 0 8 22.057 22.294 0.854 8.110 o
-3 0 10 3.355 4.133 0.330 57.818 o
-3 0 12 148.647 146.803 3.910 0.357 o
-3 0 14 19.285 17.793 0.553 18.361 o
-3 0 16 13.646 13.068 0.466 26.782 o
-3 0 18 31.693 32.830 0.941 6.336 o
-3 0 20 9.604 8.275 0.534 21.655 o
-3 0 22 95.274 93.309 3.046 0.617 o
-3 1 1 326.208 325.864 7.266 0.098 o
-3 1 2 33.765 33.509 0.776 8.665 o
-3 1 3 156.117 160.842 3.706 0.383 o
-3 1 4 229.093 230.896 5.404 0.180 o
-3 1 5 201.852 212.192 5.287 0.194 o
-3 1 6 0.251 0.388 0.068 1380.250 o
-3 1 7 341.721 352.437 7.858 0.084 o
-3 1 8 10.098 8.828 0.320 56.188 o
-3 1 9 63.060 61.401 1.426 2.557 o
-3 1 10 3.006 3.997 0.194 163.746 o
-3 1 11 162.101 158.581 3.696 0.382 o
-3 1 12 54.286 52.359 1.281 3.223 o
-3 1 13 0.688 0.572 0.116 469.003 o
-3 1 16 31.573 31.656 0.834 7.838 o
-3 1 17 58.702 58.772 1.562 2.241 o
-3 1 18 38.566 38.224 0.980 5.623 o
-3 1 20 1.970 2.260 0.204 151.862 o
-3 1 21 7.840 6.985 0.388 40.551 o
-3 1 22 1.944 1.863 0.262 92.399 o
-3 2 1 83.379 83.307 1.882 1.462 o
-3 2 2 171.579 178.896 4.026 0.322 o
-3 2 3 294.571 294.975 6.937 0.109 o
-3 2 4 26.764 26.505 0.912 6.968 o
-3 2 5 2.743 2.668 0.262 91.816 o
-3 2 6 140.853 141.991 3.337 0.473 o
-3 2 7 167.482 172.134 4.046 0.323 o
-3 2 8 284.864 293.752 6.820 0.113 o
-3 2 9 49.569 52.058 1.329 3.087 o
-3 2 10 10.715 11.496 0.437 31.150 o
-3 2 11 22.860 23.128 0.708 11.317 o
-3 2 12 2.084 1.795 0.204 151.998 o
-3 2 13 53.140 53.222 1.572 2.275 o
-3 2 14 0.774 0.873 0.281 80.522 o
-3 2 15 28.325 28.425 0.893 7.156 o
-3 2 16 14.484 14.543 0.553 19.296 o
-3 2 18 42.744 41.222 1.378 3.026 o
-3 2 20 3.660 3.192 0.369 46.447 o
-3 2 21 10.845 10.934 0.776 10.351 o
-3 3 1 3.366 3.551 0.417 36.370 o
-3 3 2 252.702 253.908 6.549 0.126 o
-3 3 3 3.791 3.250 0.407 38.074 o
-3 3 4 44.279 44.016 2.125 1.345 o
-3 3 5 21.697 21.091 0.582 16.218 o
-3 3 7 3.902 3.784 0.243 105.303 o
-3 3 8 17.320 18.249 0.543 19.225 o
-3 3 9 5.095 4.763 0.291 72.796 o
-3 3 10 20.466 20.596 0.563 17.418 o
-3 3 11 1.366 1.242 0.223 127.606 o
-3 3 12 41.405 41.416 1.581 2.360 o
-3 3 13 9.207 8.780 0.378 41.738 o
-3 3 14 69.040 66.388 1.853 1.602 o
-3 3 15 1.502 1.620 0.146 297.326 o
-3 3 17 1.151 1.145 0.136 342.942 o
-3 3 18 3.553 3.754 0.204 148.183 o
-3 3 19 10.118 9.634 0.349 47.725 o
-3 3 20 4.201 3.793 0.272 84.233 o
-3 3 21 5.989 6.374 0.310 63.295 o
-3 3 22 9.851 10.313 0.747 11.196 o
-3 4 1 20.931 21.178 1.077 5.265 o
-3 4 2 10.222 10.526 0.446 30.131 o
-3 4 3 58.565 59.548 1.358 2.830 o
-3 4 4 28.403 28.765 1.407 3.075 o
-3 4 6 24.902 24.778 0.931 6.784 o
-3 4 7 16.682 15.940 0.621 15.285 o
-3 4 8 0.506 0.553 0.116 469.612 o
-3 4 9 0.565 0.601 0.116 469.364 o
-3 4 10 37.373 37.283 1.145 4.325 o
-3 4 11 3.750 3.667 0.175 198.563 o
-3 4 12 2.958 2.804 0.155 254.262 o
-3 4 13 31.851 31.569 0.912 6.711 o
-3 4 14 5.825 5.957 0.252 94.250 o
-3 4 16 4.002 3.628 0.243 105.279 o
-3 4 17 10.433 9.711 0.466 27.846 o
-3 4 18 4.103 3.706 0.262 90.528 o
-3 4 20 9.312 9.032 1.048 5.759 o
-3 4 23 7.066 7.179 0.660 14.461 o
-3 4 24 3.632 3.522 0.543 21.504 o
-3 5 2 2.479 2.328 0.136 333.257 o
-3 5 3 4.559 4.307 0.204 145.424 o
-3 5 4 9.465 9.284 0.301 63.236 o
-3 5 5 1.098 1.145 0.126 397.435 o
-3 5 6 35.785 34.576 0.931 6.284 o
-3 5 7 4.100 3.861 0.184 177.784 o
-3 5 8 0.609 0.446 0.107 558.422 o
-3 5 9 4.458 4.424 0.204 145.524 o
-3 5 10 4.413 3.861 0.330 57.521 o
-3 5 11 1.355 1.475 0.126 395.386 o
-3 5 12 12.410 12.835 0.398 36.083 o
-3 5 14 1.537 1.543 0.184 186.237 o
-3 5 16 17.572 17.317 1.057 5.527 o
-3 5 17 1.036 1.087 0.301 70.433 o
-3 5 18 1.266 1.397 0.223 127.618 o
-3 5 20 2.388 2.678 0.194 166.244 o
-3 5 22 1.674 1.242 0.369 46.847 o
-3 6 1 8.293 8.770 0.291 68.497 o
-3 6 2 1.785 2.154 0.184 185.424 o
-3 6 3 0.910 1.048 0.146 299.738 o
-3 6 4 1.159 1.038 0.146 299.177 o
-3 6 5 0.757 0.572 0.136 344.772 o
-3 6 6 0.857 0.854 0.146 300.040 o
-3 6 7 0.779 0.776 0.155 264.001 o
-3 6 9 3.944 3.978 0.272 84.349 o
-3 6 10 2.915 2.726 0.252 98.782 o
-3 6 12 3.764 3.172 0.310 65.180 o
-3 6 13 1.785 1.572 0.165 231.597 o
-3 6 17 7.078 6.791 0.340 52.704 o
-3 7 1 0.850 0.737 0.126 399.136 o
-3 7 2 5.500 6.054 0.320 60.011 o
-3 7 4 4.644 4.327 0.281 78.198 o
-3 7 5 1.710 1.756 0.204 152.416 o
-3 7 12 6.371 6.500 0.621 16.343 o
-3 7 13 4.196 4.269 0.291 73.493 o
-3 7 14 1.388 1.038 0.175 207.910 o
-2 0 2 633.705 609.139 15.697 0.022 o
-2 0 4 2037.570 1918.430 65.078 0.001 o
-2 0 6 174.685 175.724 3.929 0.335 o
-2 0 8 457.009 461.094 10.293 0.049 o
-2 0 10 195.836 189.723 5.219 0.201 o
-2 0 12 15.198 16.580 0.737 11.142 o
-2 0 14 54.875 57.191 1.368 2.852 o
-2 0 16 11.430 12.040 0.456 28.496 o
-2 0 18 5.242 5.103 0.330 56.969 o
-2 0 20 16.455 16.531 0.611 15.729 o
-2 0 22 4.045 4.589 1.378 3.358 o
-2 1 1 179.902 188.530 4.366 0.277 o
-2 1 2 550.551 562.552 13.136 0.031 o
-2 1 3 21.385 20.412 0.495 21.469 o
-2 1 4 351.813 359.257 7.936 0.082 o
-2 1 5 21.407 20.470 0.485 22.166 o
-2 1 6 6.322 5.617 0.165 202.058 o
-2 1 7 35.188 34.140 0.786 8.386 o
-2 1 8 285.438 292.200 6.684 0.117 o
-2 1 9 23.013 22.837 0.592 15.470 o
-2 1 10 31.454 32.917 0.805 8.298 o
-2 1 11 85.002 81.367 1.853 1.497 o
-2 1 12 8.833 9.022 0.301 63.932 o
-2 1 13 33.519 32.626 0.815 8.031 o
-2 1 14 19.003 18.317 0.543 18.945 o
-2 1 15 11.256 11.467 0.369 42.236 o
-2 1 16 0.993 0.970 0.116 466.776 o
-2 1 17 29.308 30.589 0.776 9.027 o
-2 1 18 8.557 8.101 0.291 68.567 o
-2 1 19 1.755 1.581 0.252 99.740 o
-2 1 20 1.084 0.980 0.165 233.434 o
-2 1 21 56.062 55.105 1.494 2.455 o
-2 1 22 11.421 11.428 0.621 15.913 o
-2 2 1 150.213 150.830 3.337 0.462 o
-2 2 2 472.442 475.180 10.681 0.045 o
-2 2 3 9.880 9.333 0.281 70.687 o
-2 2 4 24.384 23.148 0.601 14.850 o
-2 2 5 3.045 3.269 0.165 225.045 o
-2 2 6 69.155 70.317 1.659 1.920 o
-2 2 7 34.953 33.965 0.893 6.801 o
-2 2 8 30.524 28.940 0.786 8.815 o
-2 2 9 17.119 16.085 0.475 24.614 o
-2 2 10 88.329 89.700 2.202 1.104 o
-2 2 11 14.354 13.815 0.456 27.544 o
-2 2 12 109.966 106.756 2.542 0.812 o
-2 2 13 30.346 30.492 0.922 6.656 o
-2 2 14 13.494 13.330 0.446 28.937 o
-2 2 15 2.194 2.096 0.175 205.497 o
-2 2 16 37.225 38.612 1.019 5.293 o
-2 2 17 55.042 53.465 1.368 2.871 o
-2 2 18 27.288 28.843 0.922 6.782 o
-2 2 19 7.927 8.169 0.359 46.767 o
-2 2 20 6.697 7.228 0.466 28.683 o
-2 2 22 9.351 8.731 1.339 3.540 o
-2 3 1 138.585 141.118 10.584 0.056 o
-2 3 2 65.364 66.844 1.688 1.898 o
-2 3 3 1.515 1.659 0.213 139.170 o
-2 3 4 8.750 9.226 0.437 31.906 o
-2 3 5 5.619 6.325 0.437 32.778 o
-2 3 6 362.067 361.372 10.361 0.052 o
-2 3 7 80.356 80.144 2.086 1.248 o
-2 3 8 27.124 24.778 0.669 12.037 o
-2 3 9 7.981 8.052 0.369 44.468 o
-2 3 10 21.620 22.905 0.951 6.637 o
-2 3 11 19.754 21.014 0.863 8.040 o
-2 3 12 83.657 82.414 3.066 0.624 o
-2 3 13 3.658 3.493 0.272 84.701 o
-2 3 14 4.807 4.919 0.213 132.023 o
-2 3 15 11.369 10.914 0.388 38.562 o
-2 3 16 32.716 32.587 0.863 7.320 o
-2 3 17 4.443 4.453 0.243 104.317 o
-2 3 18 9.210 9.362 0.407 36.218 o
-2 3 19 1.409 1.281 0.281 80.376 o
-2 3 20 15.537 14.902 0.650 14.170 o
-2 4 1 17.161 16.473 0.475 24.555 o
-2 4 2 60.910 61.197 1.407 2.638 o
-2 4 3 31.996 31.753 0.766 9.016 o
-2 4 4 0.431 0.650 0.136 345.278 o
-2 4 5 34.197 33.344 0.863 7.239 o
-2 4 6 3.651 3.706 0.291 73.929 o
-2 4 7 37.004 37.826 1.077 4.820 o
-2 4 10 23.528 23.672 0.611 14.527 o
-2 4 11 17.593 17.152 0.446 27.139 o
-2 4 13 10.682 10.740 0.359 44.813 o
-2 4 14 8.494 8.828 0.301 64.319 o
-2 4 15 10.253 10.177 0.398 37.405 o
-2 4 16 14.579 14.601 0.475 25.408 o
-2 4 17 10.964 10.963 0.592 17.508 o
-2 4 20 2.549 2.872 0.243 106.941 o
-2 4 21 2.213 2.173 0.495 26.000 o
-2 4 23 3.196 3.929 0.582 18.752 o
-2 4 24 5.972 6.500 0.601 17.419 o
-2 5 2 15.980 15.134 0.534 20.331 o
-2 5 3 3.420 3.143 0.252 98.254 o
-2 5 4 3.427 3.376 0.204 148.785 o
-2 5 5 4.305 3.696 0.204 146.688 o
-2 5 7 0.278 0.398 0.116 470.312 o
-2 5 8 1.170 1.087 0.126 397.246 o
-2 5 9 0.906 0.951 0.126 398.582 o
-2 5 10 3.168 3.056 0.184 181.586 o
-2 5 11 0.556 0.543 0.107 558.440 o
-2 5 12 0.890 0.970 0.107 555.367 o
-2 5 13 5.846 5.792 0.243 101.535 o
-2 5 14 2.450 2.299 0.320 61.835 o
-2 5 16 13.021 13.767 0.485 24.913 o
-2 5 19 1.516 1.319 0.213 139.291 o
-2 5 20 5.024 5.375 0.340 53.877 o
-2 5 21 1.367 1.349 0.204 152.901 o
-2 5 22 1.806 1.465 0.446 31.980 o
-2 6 1 0.615 0.582 0.136 345.034 o
-2 6 3 16.049 14.940 0.728 11.424 o
-2 6 5 8.972 8.547 0.359 46.213 o
-2 6 7 3.596 3.182 0.204 148.651 o
-2 6 8 1.955 2.086 0.194 167.366 o
-2 6 9 3.157 2.687 0.524 23.156 o
-2 6 11 6.122 6.461 0.291 71.446 o
-2 6 12 0.436 0.504 0.126 400.467 o
-2 6 14 1.542 1.319 0.165 232.377 o
-2 6 15 5.855 6.015 0.340 53.425 o
-2 7 1 6.009 6.801 0.349 50.384 o
-2 7 6 3.205 2.920 0.553 20.786 o
-2 7 7 4.610 4.967 0.669 14.154 o
-2 7 8 3.648 3.677 0.349 51.635 o
-2 7 10 1.356 1.484 0.223 127.546 o
-2 7 11 3.134 3.124 0.543 21.531 o
-1 0 2 775.205 764.034 17.298 0.017 o
-1 0 4 870.377 826.618 19.044 0.014 o
-1 0 6 206.225 202.403 4.317 0.270 o
-1 0 8 504.240 496.291 11.069 0.042 o
-1 0 10 3.977 3.357 0.184 178.932 o
-1 0 12 113.695 111.490 2.513 0.816 o
-1 0 14 49.690 50.603 1.222 3.566 o
-1 0 16 21.660 22.081 0.631 14.060 o
-1 0 18 59.829 60.198 1.581 2.181 o
-1 0 20 40.803 40.824 1.242 3.669 o
-1 1 1 2926.970 2743.920 72.567 0.001 o
-1 1 2 141.470 152.780 3.444 0.445 o
-1 1 3 334.632 346.994 7.509 0.091 o
-1 1 4 240.895 252.307 6.335 0.135 o
-1 1 5 1.426 1.135 0.078 1023.690 o
-1 1 6 0.618 0.524 0.068 1371.270 o
-1 1 7 422.248 425.984 9.498 0.057 o
-1 1 8 93.138 94.774 2.144 1.133 o
-1 1 9 172.798 173.512 3.910 0.339 o
-1 1 11 75.012 74.275 1.698 1.801 o
-1 1 12 85.835 87.566 1.999 1.309 o
-1 1 13 5.306 5.656 0.213 130.134 o
-1 1 14 44.677 45.510 1.096 4.429 o
-1 1 15 10.079 10.351 0.340 50.036 o
-1 1 16 6.282 6.170 0.243 100.584 o
-1 1 17 1.612 1.775 0.136 339.799 o
-1 1 18 14.861 15.066 0.514 21.947 o
-1 1 19 9.601 9.614 0.398 37.727 o
-1 1 20 2.823 2.493 0.407 38.227 o
-1 1 21 12.950 13.058 0.660 14.018 o
-1 1 22 12.102 12.350 0.631 15.366 o
-1 2 1 141.221 141.303 3.153 0.519 o
-1 2 2 8.165 8.130 0.262 83.441 o
-1 2 3 171.165 173.415 3.764 0.361 o
-1 2 4 222.712 234.214 6.519 0.131 o
-1 2 5 484.493 494.826 11.225 0.041 o
-1 2 6 17.168 19.131 0.563 18.017 o
-1 2 7 1.195 1.300 0.213 139.504 o
-1 2 8 46.782 46.334 1.125 4.189 o
-1 2 9 7.785 8.052 0.252 89.928 o
-1 2 10 185.067 183.669 4.143 0.301 o
-1 2 11 69.904 72.926 1.707 1.818 o
-1 2 12 34.226 33.567 0.873 7.098 o
-1 2 13 13.011 12.806 0.378 39.157 o
-1 2 14 1.081 1.349 0.146 298.983 o
-1 2 15 12.325 11.875 0.437 30.659 o
-1 2 18 5.670 5.510 0.262 88.196 o
-1 2 19 4.105 4.210 0.281 78.591 o
-1 2 20 48.049 46.160 1.407 2.843 o
-1 2 21 1.064 1.281 0.340 55.261 o
-1 3 2 31.621 32.413 0.999 5.704 o
-1 3 3 14.016 13.330 0.514 22.243 o
-1 3 4 56.333 56.977 1.484 2.472 o
-1 3 5 0.726 1.106 0.194 169.076 o
-1 3 6 105.148 106.765 2.581 0.800 o
-1 3 7 1.464 1.669 0.204 152.687 o
-1 3 8 6.744 6.461 0.262 86.410 o
-1 3 9 1.032 1.087 0.146 299.424 o
-1 3 10 31.787 31.656 0.844 7.674 o
-1 3 11 42.358 41.503 1.184 3.963 o
-1 3 13 1.175 1.096 0.165 233.212 o
-1 3 14 26.507 26.116 0.679 11.742 o
-1 3 15 5.876 5.811 0.272 81.966 o
-1 3 16 114.578 114.488 2.940 0.626 o
-1 3 17 11.383 11.555 0.349 46.423 o
-1 3 18 1.244 1.222 0.184 186.776 o
-1 3 19 3.913 4.210 0.243 105.062 o
-1 3 21 12.665 11.719 0.805 9.574 o
-1 4 1 5.752 5.840 0.252 94.418 o
-1 4 2 9.556 9.896 0.378 41.376 o
-1 4 4 0.354 0.340 0.087 835.272 o
-1 4 5 60.511 60.877 2.125 1.289 o
-1 4 6 80.749 82.143 2.765 0.757 o
-1 4 7 29.120 30.113 0.815 8.323 o
-1 4 8 7.911 7.577 0.631 15.759 o
-1 4 9 1.335 0.970 0.155 262.888 o
-1 4 11 2.797 3.007 0.165 226.471 o
-1 4 12 20.486 20.393 0.582 16.434 o
-1 4 14 3.394 3.619 0.204 148.621 o
-1 4 15 37.705 38.690 1.145 4.307 o
-1 4 16 4.297 4.793 0.291 73.283 o
-1 4 17 10.332 11.428 0.427 32.596 o
-1 4 20 9.920 8.450 0.757 10.941 o
-1 4 21 2.262 2.406 0.485 27.041 o
-1 5 1 9.972 10.701 0.378 41.035 o
-1 5 2 70.308 72.451 1.659 1.906 o
-1 5 3 1.218 1.193 0.165 233.069 o
-1 5 4 4.764 5.122 0.272 83.283 o
-1 5 6 32.163 30.075 0.728 9.871 o
-1 5 7 0.930 0.660 0.194 169.087 o
-1 5 8 0.759 0.601 0.116 468.689 o
-1 5 9 6.964 6.878 0.281 75.206 o
-1 5 10 14.142 14.843 0.446 28.539 o
-1 5 11 1.592 1.300 0.126 394.552 o
-1 5 12 14.020 14.125 0.398 35.144 o
-1 5 14 1.816 1.669 0.175 206.714 o
-1 5 15 1.126 1.038 0.155 263.231 o
-1 6 1 2.325 1.960 0.514 24.079 o
-1 6 2 6.683 7.606 0.349 49.941 o
-1 6 4 1.725 1.504 0.485 27.077 o
-1 6 6 8.673 9.207 1.659 2.310 o
-1 6 7 9.065 8.760 0.757 10.960 o
-1 6 8 2.593 2.387 0.233 116.072 o
-1 6 10 0.503 0.417 0.126 400.422 o
-1 6 13 3.380 3.299 0.204 148.944 o
-1 6 15 5.119 4.957 0.281 77.630 o
-1 6 16 0.575 0.456 0.136 345.206 o
-1 6 19 2.386 1.999 0.213 138.226 o
-1 7 3 3.294 3.512 0.592 18.147 o
-1 7 4 3.423 3.958 0.640 15.503 o
-1 7 6 4.025 4.327 0.621 16.463 o
-1 7 11 4.455 5.617 0.631 15.933 o
-1 7 14 3.863 3.822 0.349 51.564 o
0 0 2 137.096 140.391 2.998 0.568 o
0 0 4 62.684 69.288 1.523 2.265 o
0 0 6 1025.970 1012.510 23.313 0.010 o
0 0 8 291.236 288.921 7.519 0.096 o
0 0 10 392.305 410.025 9.226 0.061 o
0 0 12 14.377 14.504 0.427 30.857 o
0 0 14 50.421 53.446 1.426 2.719 o
0 0 16 10.486 9.837 0.504 23.899 o
0 0 20 9.737 9.313 0.514 23.178 o
0 0 22 16.148 16.725 1.349 3.449 o
0 1 1 455.934 448.268 9.469 0.056 o
0 1 2 90.579 89.225 2.154 1.140 o
0 1 3 19.653 17.957 0.475 23.718 o
0 1 4 1532.040 1490.180 34.188 0.004 o
0 1 5 63.857 71.850 1.591 2.089 o
0 1 6 300.776 311.496 6.917 0.109 o
0 1 7 38.027 36.507 0.854 7.128 o
0 1 8 27.541 27.213 0.640 12.790 o
0 1 9 38.552 37.739 0.873 6.821 o
0 1 10 143.190 148.763 3.328 0.471 o
0 1 11 205.396 208.903 4.686 0.236 o
0 1 13 26.300 26.146 0.699 11.208 o
0 1 14 8.580 8.964 0.281 72.412 o
0 1 15 3.710 3.444 0.194 162.770 o
0 1 16 3.609 3.735 0.233 114.362 o
0 1 17 19.296 20.587 0.553 18.139 o
0 1 18 25.598 24.817 0.699 11.318 o
0 1 19 48.958 48.867 1.261 3.406 o
0 1 20 3.262 3.221 0.320 61.498 o
0 1 21 15.621 15.978 0.563 18.446 o
0 1 22 4.190 3.463 0.369 46.315 o
0 2 0 12.488 13.543 0.398 35.907 o
0 2 1 75.087 74.440 1.814 1.614 o
0 2 2 126.163 128.400 2.940 0.605 o
0 2 4 181.601 181.991 3.997 0.321 o
0 2 5 48.471 48.915 1.154 3.958 o
0 2 6 5.609 5.336 0.223 119.511 o
0 2 7 135.599 139.401 3.124 0.533 o
0 2 8 0.388 0.330 0.078 1056.320 o
0 2 9 58.051 55.318 1.416 2.668 o
0 2 10 27.672 26.184 0.650 12.517 o
0 2 11 1.457 1.494 0.116 462.039 o
0 2 12 15.985 17.259 0.475 24.750 o
0 2 13 9.818 9.789 0.320 56.036 o
0 2 14 57.938 56.589 1.378 2.788 o
0 2 15 95.682 94.192 2.290 1.011 o
0 2 16 2.859 2.678 0.155 254.999 o
0 2 18 11.885 11.496 0.466 27.362 o
0 2 19 12.185 12.069 0.553 19.739 o
0 2 20 24.741 23.778 0.786 9.274 o
0 2 21 12.738 12.496 1.931 1.703 o
0 3 1 49.512 51.224 1.281 3.295 o
0 3 2 110.697 115.594 2.920 0.637 o
0 3 3 82.242 82.967 1.785 1.599 o
0 3 4 55.286 55.842 1.436 2.631 o
0 3 5 15.282 16.114 0.475 25.062 o
0 3 7 0.871 0.883 0.107 555.790 o
0 3 8 97.172 95.744 2.251 1.034 o
0 3 9 40.977 40.378 0.970 5.609 o
0 3 10 1.477 1.154 0.116 463.163 o
0 3 11 1.293 1.591 0.146 298.043 o
0 3 12 6.883 6.626 0.330 55.838 o
0 3 14 27.683 27.349 0.660 12.153 o
0 3 16 1.090 1.135 0.116 465.774 o
0 3 17 5.224 5.307 0.262 88.771 o
0 3 18 4.603 4.666 0.262 89.684 o
0 3 20 12.511 12.437 0.427 31.801 o
0 4 0 2.755 2.280 0.243 107.007 o
0 4 1 11.768 12.302 0.378 39.874 o
0 4 2 56.850 57.268 1.310 3.040 o
0 4 3 3.830 3.890 0.204 147.488 o
0 4 4 12.130 11.380 0.398 36.483 o
0 4 5 75.616 75.876 1.834 1.580 o
0 4 6 6.151 5.743 0.281 76.474 o
0 4 8 5.384 5.637 0.291 72.303 o
0 4 9 6.560 6.190 0.262 86.797 o
0 4 10 16.414 15.794 0.466 25.740 o
0 4 11 0.559 0.650 0.194 169.277 o
0 4 12 24.122 23.468 0.582 15.703 o
0 4 13 6.048 6.025 0.243 101.057 o
0 4 15 25.951 26.252 0.873 7.573 o
0 4 16 16.619 17.308 0.456 26.427 o
0 4 17 0.797 0.601 0.136 344.659 o
0 4 18 2.427 1.999 0.165 229.354 o
0 4 19 3.500 3.114 0.757 11.115 o
0 4 20 4.004 4.327 0.863 8.535 o
0 5 2 7.415 7.519 0.417 35.330 o
0 5 3 1.123 1.135 0.165 233.263 o
0 5 4 24.192 23.963 1.028 5.665 o
0 5 5 3.227 3.425 0.475 28.073 o
0 5 6 72.953 71.665 1.591 2.024 o
0 5 8 6.370 6.849 0.301 66.817 o
0 5 11 3.780 3.929 0.262 90.695 o
0 5 12 7.888 7.800 0.281 73.802 o
0 5 13 0.989 1.154 0.136 343.444 o
0 5 14 13.806 14.281 0.437 29.867 o
0 5 15 1.809 1.785 0.194 167.755 o
0 5 16 23.603 24.360 0.631 13.725 o
0 5 18 0.880 0.990 0.233 117.467 o
0 5 19 1.809 1.853 0.223 127.134 o
0 5 20 2.609 2.978 0.349 51.928 o
0 5 22 2.870 3.192 0.495 25.950 o
0 6 0 17.307 17.851 0.970 6.528 o
0 6 1 5.902 6.801 0.330 56.289 o
0 6 2 9.406 8.984 0.524 22.418 o
0 6 3 3.936 3.939 0.291 73.724 o
0 6 4 0.690 0.650 0.175 208.841 o
0 6 5 28.716 27.562 0.728 10.221 o
0 6 8 0.837 1.135 0.155 263.652 o
0 6 10 11.630 11.952 0.359 43.965 o
0 6 11 1.439 1.242 0.155 262.360 o
0 6 12 4.677 4.492 0.252 96.461 o
0 6 13 4.657 5.142 0.243 103.627 o
0 6 14 0.290 0.543 0.155 264.602 o
0 6 15 1.709 2.105 0.184 185.583 o
0 6 16 1.832 2.018 0.407 38.329 o
0 7 1 8.615 8.343 1.135 4.919 o
0 7 8 1.037 0.883 0.204 153.283 o
0 7 9 6.885 6.985 0.359 47.434 o
0 7 10 1.851 1.533 0.291 74.998 o
0 7 14 0.740 0.834 0.194 169.145 o
1 0 0 372.783 381.309 8.227 0.076 o
1 0 2 10.817 10.284 0.320 55.066 o
1 0 4 1788.380 1730.300 54.542 0.002 o
1 0 6 205.615 223.688 5.258 0.194 o
1 0 8 70.294 69.841 1.572 2.091 o
1 0 10 679.568 682.298 15.833 0.021 o
1 0 12 7.046 6.306 0.252 92.352 o
1 0 14 84.828 85.412 2.037 1.275 o
1 0 16 11.873 11.943 0.990 6.406 o
1 0 18 86.276 85.674 2.231 1.090 o
1 0 20 88.684 85.286 2.581 0.843 o
1 1 0 1574.950 1564.730 35.876 0.004 o
1 1 1 38.317 38.088 0.912 6.353 o
1 1 2 425.654 433.483 9.993 0.053 o
1 1 3 793.464 794.234 18.122 0.016 o
1 1 4 64.649 66.727 1.533 2.236 o
1 1 5 120.760 112.926 2.581 0.768 o
1 1 6 207.001 212.357 4.734 0.231 o
1 1 7 17.543 18.423 0.466 25.078 o
1 1 8 96.936 92.339 2.066 1.194 o
1 1 9 183.340 191.168 4.269 0.286 o
1 1 10 68.862 74.168 1.678 1.873 o
1 1 12 1.789 2.105 0.126 390.686 o
1 1 13 7.232 6.917 0.233 105.963 o
1 1 14 124.850 127.265 3.095 0.558 o
1 1 15 4.304 4.133 0.223 122.882 o
1 1 16 23.181 23.604 0.660 12.775 o
1 1 17 3.738 3.599 0.213 135.274 o
1 1 18 3.992 4.094 0.243 105.039 o
1 1 19 11.104 11.361 0.553 19.901 o
1 1 20 5.004 4.928 0.378 43.673 o
1 1 21 9.389 9.886 0.466 28.028 o
1 2 0 318.214 323.672 7.412 0.095 o
1 2 1 268.889 266.656 5.937 0.146 o
1 2 3 353.320 354.581 7.926 0.082 o
1 2 4 19.460 18.869 0.466 24.477 o
1 2 5 86.523 89.923 2.037 1.261 o
1 2 6 158.528 160.550 3.580 0.404 o
1 2 7 79.351 79.514 1.795 1.609 o
1 2 8 5.634 5.763 0.213 129.258 o
1 2 9 6.862 7.237 0.301 66.310 o
1 2 10 5.042 4.725 0.243 103.400 o
1 2 11 8.646 8.848 0.320 57.240 o
1 2 12 14.260 14.669 0.407 33.492 o
1 2 13 26.360 27.581 0.766 9.494 o
1 2 14 6.664 6.917 0.262 86.227 o
1 2 15 0.837 0.786 0.146 300.139 o
1 2 16 5.420 5.928 0.243 102.057 o
1 2 17 4.080 4.084 0.349 51.473 o
1 2 18 0.194 0.388 0.126 400.893 o
1 2 19 5.731 6.587 0.291 71.700 o
1 3 0 18.125 18.850 0.679 12.734 o
1 3 1 31.190 31.346 0.757 9.275 o
1 3 2 46.454 46.034 1.077 4.516 o
1 3 4 7.990 8.091 0.281 73.540 o
1 3 5 21.628 20.499 0.543 18.308 o
1 3 6 44.590 43.599 1.174 3.965 o
1 3 7 17.991 18.792 0.485 23.229 o
1 3 8 25.979 24.642 0.631 13.442 o
1 3 9 10.337 10.051 0.301 62.042 o
1 3 10 0.668 0.766 0.107 557.366 o
1 3 11 15.355 15.057 0.495 23.431 o
1 3 12 33.906 33.664 0.825 7.827 o
1 3 13 28.372 28.163 0.669 11.757 o
1 3 14 14.342 14.989 0.514 22.045 o
1 3 15 0.861 0.980 0.146 299.908 o
1 3 17 1.547 1.562 0.184 186.210 o
1 3 18 36.308 34.469 0.912 6.497 o
1 3 19 14.542 15.144 0.718 11.791 o
1 4 0 17.075 18.055 0.495 22.741 o
1 4 1 0.439 0.708 0.116 469.582 o
1 4 2 54.405 55.823 1.290 3.158 o
1 4 3 14.626 14.824 0.427 30.717 o
1 4 4 2.896 2.891 0.262 91.662 o
1 4 5 50.630 51.340 1.300 3.197 o
1 4 6 8.027 8.305 0.388 40.284 o
1 4 7 1.248 1.446 0.184 186.650 o
1 4 8 58.564 57.734 1.339 2.909 o
1 4 9 11.903 11.855 0.378 39.915 o
1 4 11 1.280 1.271 0.107 550.895 o
1 4 12 1.514 1.649 0.126 393.987 o
1 4 13 7.986 7.761 0.262 83.945 o
1 4 14 1.820 1.737 0.136 338.874 o
1 4 15 17.763 18.646 0.524 20.387 o
1 4 16 12.783 13.146 0.378 39.186 o
1 4 17 4.018 3.599 0.194 161.828 o
1 4 18 0.869 0.766 0.213 139.798 o
1 4 19 4.245 4.172 0.398 39.795 o
1 4 22 7.534 7.538 0.660 14.437 o
1 5 0 4.384 4.550 0.320 60.863 o
1 5 2 12.077 12.728 0.427 31.890 o
1 5 3 0.549 0.543 0.126 400.203 o
1 5 4 89.778 87.508 2.270 1.048 o
1 5 5 4.195 4.259 0.233 113.296 o
1 5 7 0.939 0.873 0.175 208.533 o
1 5 8 8.026 7.955 0.262 83.756 o
1 5 9 0.718 0.728 0.107 557.199 o
1 5 10 2.265 2.503 0.194 166.591 o
1 5 11 0.956 0.825 0.155 263.709 o
1 5 12 21.990 22.556 0.553 17.534 o
1 5 14 19.426 20.548 0.534 19.275 o
1 5 16 6.859 7.111 0.388 40.823 o
1 5 20 2.204 1.436 0.446 31.962 o
1 6 0 6.250 6.073 0.330 56.296 o
1 6 1 5.898 6.859 0.340 53.227 o
1 6 2 2.675 2.629 0.233 115.896 o
1 6 4 5.228 5.656 0.330 56.858 o
1 6 5 11.659 11.981 0.417 33.513 o
1 6 6 3.859 4.201 0.243 105.125 o
1 6 8 12.069 12.195 0.417 33.343 o
1 6 9 11.696 12.011 0.378 39.975 o
1 6 10 6.454 6.616 0.272 80.973 o
1 6 13 2.235 2.464 0.194 166.670 o
1 6 15 11.948 11.952 0.398 36.442 o
1 6 16 1.194 1.232 0.175 208.039 o
1 6 17 1.688 1.950 0.291 74.987 o
1 6 18 2.077 2.493 0.572 19.438 o
1 7 0 2.047 2.144 0.243 107.522 o
1 7 1 1.638 1.921 0.233 116.917 o
1 7 2 0.719 0.854 0.194 169.152 o
1 7 4 1.720 1.552 0.504 25.036 o
1 7 5 3.801 3.949 0.631 15.973 o
1 7 9 4.529 4.569 0.524 23.041 o
1 7 11 2.682 2.639 0.194 165.763 o
1 7 13 2.579 2.425 0.272 85.585 o
2 0 0 20.367 24.341 0.805 9.063 o
2 0 2 3650.350 3272.180 78.650 0.001 o
2 0 4 5.163 8.159 0.223 117.556 o
2 0 6 3.511 4.259 0.194 162.268 o
2 0 8 93.192 104.010 2.464 0.889 o
2 0 10 29.903 34.266 0.863 7.405 o
2 0 12 75.713 76.962 1.882 1.510 o
2 0 14 98.677 100.110 2.513 0.854 o
2 0 16 35.508 33.616 0.960 5.985 o
2 0 18 5.016 4.666 0.980 6.625 o
2 0 20 17.768 18.472 1.038 5.718 o
2 1 0 368.291 371.510 8.217 0.076 o
2 1 1 66.936 67.852 1.543 2.190 o
2 1 2 2.960 2.619 0.126 378.339 o
2 1 3 452.341 463.966 10.410 0.048 o
2 1 4 9.235 9.187 0.262 81.122 o
2 1 5 17.243 19.956 0.534 19.716 o
2 1 6 416.168 416.729 9.333 0.059 o
2 1 7 30.842 30.647 0.718 10.172 o
2 1 8 46.208 47.149 1.087 4.442 o
2 1 9 182.725 179.556 4.016 0.319 o
2 1 10 41.776 44.423 1.038 4.937 o
2 1 11 1.897 1.775 0.136 338.375 o
2 1 12 23.043 23.904 0.844 8.215 o
2 1 13 117.583 121.172 3.085 0.570 o
2 1 14 3.098 3.289 0.194 164.312 o
2 1 15 5.133 4.996 0.291 72.694 o
2 1 16 0.491 0.349 0.107 559.060 o
2 1 17 4.416 4.608 0.243 104.256 o
2 1 18 21.238 21.314 0.747 10.435 o
2 1 19 32.505 32.646 0.922 6.547 o
2 1 20 26.177 25.069 0.844 8.065 o
2 2 0 512.046 520.690 11.846 0.037 o
2 2 1 1.752 1.562 0.097 654.438 o
2 2 2 3.244 2.910 0.126 373.860 o
2 2 3 17.560 17.026 0.446 27.169 o
2 2 4 1.082 0.960 0.097 668.750 o
2 2 5 153.302 150.810 3.376 0.451 o
2 2 6 9.349 10.342 0.330 53.227 o
2 2 7 58.063 56.181 1.319 2.995 o
2 2 8 54.494 55.037 1.310 3.085 o
2 2 9 74.600 77.166 1.766 1.683 o
2 2 10 75.909 74.789 1.834 1.581 o
2 2 11 31.563 31.122 0.796 8.514 o
2 2 12 0.437 0.330 0.107 559.270 o
2 2 13 35.184 35.333 0.893 6.764 o
2 2 14 1.575 1.775 0.126 393.224 o
2 2 15 12.461 12.670 0.349 45.404 o
2 2 16 12.602 13.223 0.427 31.649 o
2 2 17 45.668 44.229 1.203 3.779 o
2 2 18 2.059 2.047 0.194 167.246 o
2 2 20 1.712 2.018 0.233 116.844 o
2 3 0 12.017 13.514 1.125 4.965 o
2 3 1 28.206 29.337 0.844 7.888 o
2 3 2 90.812 89.758 2.047 1.237 o
2 3 3 4.794 4.812 0.427 34.498 o
2 3 4 210.861 215.209 4.860 0.220 o
2 3 5 7.310 7.490 0.252 91.094 o
2 3 6 2.281 2.503 0.146 292.233 o
2 3 7 28.842 28.241 0.699 10.910 o
2 3 8 1.648 1.785 0.136 339.607 o
2 3 9 1.501 1.504 0.136 340.918 o
2 3 10 2.327 2.280 0.146 292.552 o
2 3 12 3.790 3.871 0.165 220.603 o
2 3 14 8.125 8.518 0.272 77.960 o
2 3 15 5.099 4.734 0.213 131.602 o
2 3 16 3.759 3.764 0.233 114.166 o
2 3 18 1.258 1.387 0.155 262.606 o
2 3 21 1.705 1.824 0.534 22.380 o
2 4 0 12.531 13.281 0.737 11.334 o
2 4 2 1.965 2.377 0.233 116.560 o
2 4 3 54.151 54.872 1.319 3.053 o
2 4 4 53.765 53.931 1.242 3.386 o
2 4 5 19.283 19.093 0.534 19.432 o
2 4 6 3.421 3.696 0.213 135.711 o
2 4 7 18.549 18.549 0.495 22.353 o
2 4 8 5.116 5.103 0.213 131.170 o
2 4 9 7.041 6.354 0.204 135.788 o
2 4 10 1.706 1.610 0.107 544.390 o
2 4 11 0.216 0.378 0.087 835.900 o
2 4 12 34.632 34.576 0.796 8.240 o
2 4 13 11.332 11.234 0.427 32.338 o
2 4 14 7.971 7.616 0.291 69.356 o
2 4 15 5.556 5.937 0.243 101.854 o
2 4 17 6.038 6.490 0.272 81.468 o
2 4 18 11.026 11.739 0.504 23.675 o
2 4 19 3.695 4.269 0.301 69.172 o
2 4 22 2.340 2.668 0.437 33.350 o
2 5 0 11.415 11.467 0.485 25.445 o
2 5 1 3.891 3.754 0.184 178.593 o
2 5 2 1.728 1.659 0.155 261.064 o
2 5 3 1.337 1.174 0.107 550.807 o
2 5 4 2.856 2.988 0.155 254.304 o
2 5 5 1.288 1.145 0.146 298.703 o
2 5 6 1.826 1.892 0.136 338.443 o
2 5 8 70.632 70.860 1.678 1.873 o
2 5 9 5.651 6.015 0.272 82.085 o
2 5 10 3.720 3.560 0.175 198.861 o
2 5 12 0.814 0.902 0.116 467.826 o
2 5 13 1.628 1.513 0.136 340.336 o
2 5 14 17.960 18.559 0.631 14.613 o
2 5 15 1.116 1.164 0.146 299.127 o
2 5 16 6.783 7.043 0.378 42.896 o
2 5 18 15.395 16.473 0.640 14.523 o
2 5 19 0.939 0.766 0.165 233.760 o
2 6 0 0.805 0.931 0.155 263.856 o
2 6 1 0.603 0.708 0.126 399.884 o
2 6 2 7.006 7.121 0.281 75.047 o
2 6 3 12.674 12.845 0.349 45.212 o
2 6 4 6.847 7.150 0.320 58.967 o
2 6 7 5.731 5.142 0.223 119.462 o
2 6 8 0.726 0.796 0.116 468.437 o
2 6 9 0.533 0.514 0.126 400.268 o
2 6 11 3.408 3.153 0.291 74.175 o
2 6 12 7.578 8.305 0.320 58.149 o
2 6 13 0.654 0.902 0.126 399.481 o
2 6 14 4.274 4.511 0.233 113.018 o
2 6 16 1.110 0.912 0.165 233.445 o
2 7 0 1.191 1.290 0.213 139.509 o
2 7 1 2.361 2.105 0.233 116.369 o
2 7 3 2.210 2.134 0.514 24.080 o
2 7 4 4.297 4.715 0.417 36.177 o
2 7 6 2.139 2.144 0.194 167.062 o
2 7 7 3.076 3.211 0.310 65.415 o
2 7 13 0.768 0.708 0.175 208.759 o
3 0 0 392.030 389.516 8.663 0.069 o
3 0 2 179.304 184.280 4.395 0.275 o
3 0 4 18.358 20.422 0.621 14.895 o
3 0 6 582.563 570.973 13.039 0.030 o
3 0 8 13.481 10.264 0.359 43.393 o
3 0 10 1.296 1.057 0.146 298.800 o
3 0 12 273.327 279.268 6.626 0.121 o
3 0 14 3.642 3.570 0.747 11.401 o
3 0 16 10.798 11.448 0.543 20.615 o
3 0 18 9.169 9.149 0.922 7.424 o
3 0 20 37.208 34.751 1.164 4.221 o
3 1 0 105.325 108.686 2.610 0.783 o
3 1 1 433.626 429.874 10.720 0.047 o
3 1 2 435.402 441.458 9.915 0.053 o
3 1 3 38.557 40.562 0.980 5.588 o
3 1 4 12.277 11.826 0.301 59.179 o
3 1 5 4.514 5.084 0.155 238.890 o
3 1 6 4.920 4.657 0.175 191.871 o
3 1 7 26.656 28.949 0.699 11.063 o
3 1 8 35.735 38.534 0.912 6.442 o
3 1 9 2.032 1.407 0.116 457.475 o
3 1 10 83.444 85.626 1.960 1.364 o
3 1 11 13.189 14.057 0.466 26.773 o
3 1 12 10.565 11.419 0.369 42.588 o
3 1 13 36.350 37.312 0.951 6.004 o
3 1 14 0.706 0.485 0.107 557.888 o
3 1 15 3.058 3.318 0.184 181.531 o
3 1 16 57.860 56.114 1.416 2.665 o
3 1 17 1.304 1.426 0.155 262.458 o
3 1 18 2.965 2.794 0.310 65.517 o
3 1 19 6.833 7.761 0.524 22.747 o
3 2 0 1.450 1.921 0.107 545.598 o
3 2 1 8.109 7.722 0.243 96.167 o
3 2 2 275.151 275.911 6.180 0.135 o
3 2 3 104.206 103.321 2.338 0.946 o
3 2 4 90.939 90.651 2.066 1.217 o
3 2 5 60.803 60.538 1.416 2.613 o
3 2 6 41.764 43.890 1.038 4.944 o
3 2 7 3.832 3.793 0.175 198.031 o
3 2 8 103.355 100.779 2.280 0.991 o
3 2 9 2.433 2.299 0.136 333.660 o
3 2 10 11.129 10.924 0.349 46.766 o
3 2 11 8.925 8.925 0.330 53.973 o
3 2 12 21.869 22.372 0.640 13.652 o
3 2 13 2.852 2.988 0.165 226.306 o
3 2 14 8.061 7.781 0.262 83.827 o
3 2 15 1.181 1.368 0.146 298.692 o
3 2 16 2.068 1.863 0.184 185.197 o
3 2 17 6.511 6.946 0.427 34.036 o
3 2 18 20.646 21.198 1.203 4.258 o
3 2 19 14.792 12.767 0.631 15.148 o
3 2 20 6.435 7.994 0.844 8.884 o
3 3 0 70.263 68.600 1.950 1.458 o
3 3 1 2.252 1.785 0.340 55.086 o
3 3 2 19.564 19.820 0.543 18.724 o
3 3 3 97.023 96.976 2.260 1.026 o
3 3 4 108.089 105.882 2.551 0.811 o
3 3 6 20.532 20.460 0.543 18.503 o
3 3 7 2.256 1.931 0.146 293.716 o
3 3 8 114.724 110.432 2.522 0.810 o
3 3 9 34.340 34.761 0.863 7.202 o
3 3 11 15.674 15.193 0.407 32.812 o
3 3 12 32.185 32.238 0.757 9.179 o
3 3 13 12.155 12.466 0.349 45.662 o
3 3 14 48.575 48.149 1.562 2.349 o
3 3 15 4.435 4.463 0.291 73.299 o
3 3 16 7.739 8.207 0.301 65.229 o
3 3 17 7.154 7.441 0.281 74.742 o
3 3 18 1.989 2.464 0.233 116.512 o
3 4 0 6.150 6.636 0.281 76.080 o
3 4 2 2.324 2.134 0.281 79.990 o
3 4 3 17.659 18.588 0.504 21.803 o
3 4 4 37.597 36.749 0.902 6.521 o
3 4 5 0.200 0.320 0.107 559.868 o
3 4 7 54.416 53.824 1.213 3.510 o
3 4 8 19.899 20.014 0.495 21.869 o
3 4 9 10.041 10.090 0.291 66.012 o
3 4 10 11.276 10.516 0.349 46.800 o
3 4 12 1.739 1.901 0.126 391.742 o
3 4 13 13.009 13.107 0.495 24.086 o
3 4 14 3.032 3.163 0.175 201.821 o
3 4 16 2.200 2.522 0.165 229.251 o
3 4 17 15.355 17.298 0.534 20.257 o
3 4 18 9.761 9.963 0.592 17.642 o
3 5 0 16.907 16.493 0.776 10.038 o
3 5 1 9.069 9.129 0.272 76.368 o
3 5 2 2.919 2.978 0.155 254.037 o
3 5 5 1.996 1.989 0.146 294.733 o
3 5 6 15.616 15.668 0.417 31.447 o
3 5 7 4.707 4.560 0.213 132.596 o
3 5 8 1.683 1.572 0.126 393.189 o
3 5 9 0.415 0.330 0.107 559.336 o
3 5 12 1.619 1.523 0.155 261.557 o
3 5 14 1.694 1.678 0.155 261.135 o
3 5 15 2.026 2.008 0.165 230.467 o
3 5 16 4.129 4.404 0.223 122.944 o
3 5 18 13.900 14.892 0.504 22.916 o
3 5 19 0.391 0.621 0.194 169.345 o
3 6 1 1.042 0.931 0.126 398.107 o
3 6 2 1.302 1.378 0.126 395.917 o
3 6 3 0.591 0.534 0.116 469.387 o
3 6 4 1.005 1.154 0.155 263.349 o
3 6 5 3.282 3.832 0.281 79.182 o
3 6 6 0.760 0.718 0.126 399.444 o
3 6 7 14.511 14.310 0.543 19.950 o
3 6 9 0.680 0.640 0.116 468.910 o
3 6 10 1.962 2.144 0.155 259.582 o
3 6 11 2.632 2.290 0.204 150.984 o
3 6 12 2.704 2.784 0.165 227.197 o
3 6 13 3.822 4.307 0.252 97.405 o
3 6 15 0.790 0.825 0.136 344.423 o
3 6 17 5.620 4.987 0.543 21.365 o
3 7 0 1.088 1.552 0.165 232.987 o
3 7 2 3.666 3.754 0.233 114.283 o
3 7 3 4.801 4.899 0.252 96.107 o
3 7 8 1.116 0.960 0.184 187.033 o
3 7 9 1.936 1.872 0.204 152.120 o
3 7 10 1.425 1.242 0.136 341.770 o
3 7 11 2.651 2.377 0.184 183.590 o
3 7 12 0.858 0.718 0.155 263.932 o
4 0 0 44.081 42.027 1.504 2.569 o
4 0 4 34.738 36.914 0.951 6.062 o
4 0 6 11.595 12.951 0.427 32.004 o
4 0 8 1.540 0.873 0.126 395.990 o
4 0 10 4.590 4.812 0.291 73.100 o
4 0 12 3.176 2.978 0.291 74.314 o
4 0 16 47.522 47.023 1.640 2.161 o
4 1 0 2.014 2.406 0.116 452.591 o
4 1 1 150.621 149.636 3.318 0.467 o
4 1 2 188.321 183.757 4.094 0.306 o
4 1 3 209.159 206.604 4.802 0.226 o
4 1 4 3.206 2.998 0.136 325.359 o
4 1 5 91.845 88.711 1.989 1.294 o
4 1 6 37.496 40.116 1.028 5.181 o
4 1 7 9.145 8.256 0.262 81.945 o
4 1 8 26.723 27.882 0.689 11.368 o
4 1 9 20.397 19.616 0.514 20.432 o
4 1 11 126.660 129.370 2.930 0.607 o
4 1 12 11.129 11.050 0.388 38.633 o
4 1 13 6.190 6.277 0.291 71.464 o
4 1 14 2.353 2.484 0.165 228.844 o
4 1 15 9.002 9.216 0.330 53.829 o
4 1 16 3.412 3.211 0.204 148.966 o
4 1 17 8.316 8.275 0.854 8.657 o
4 2 0 115.591 117.689 2.649 0.741 o
4 2 1 74.282 74.091 1.678 1.840 o
4 2 2 285.162 290.415 6.481 0.123 o
4 2 3 55.349 54.096 1.378 2.830 o
4 2 4 16.833 14.475 0.475 24.885 o
4 2 5 0.405 0.582 0.087 834.067 o
4 2 6 7.470 6.859 0.252 91.327 o
4 2 7 152.376 150.199 3.832 0.367 o
4 2 8 0.635 0.699 0.116 468.967 o
4 2 9 13.896 14.038 0.398 35.216 o
4 2 10 39.752 40.252 0.970 5.649 o
4 2 11 1.177 1.203 0.146 298.923 o
4 2 12 100.587 98.432 2.454 0.886 o
4 2 13 26.301 26.573 0.650 12.640 o
4 2 14 11.086 11.079 0.456 28.685 o
4 2 15 25.677 26.136 0.912 7.008 o
4 2 16 2.499 2.028 0.194 166.596 o
4 2 17 5.107 5.287 0.485 26.755 o
4 2 18 5.087 5.423 0.446 31.529 o
4 2 19 2.768 2.222 0.534 22.346 o
4 3 0 5.320 5.782 0.310 63.852 o
4 3 1 36.065 35.905 0.844 7.372 o
4 3 2 0.922 1.048 0.107 554.860 o
4 3 3 1.395 1.523 0.126 395.034 o
4 3 4 49.174 48.314 1.116 4.178 o
4 3 5 3.278 3.677 0.175 200.195 o
4 3 6 104.637 104.233 2.338 0.944 o
4 3 8 54.541 51.787 1.281 3.223 o
4 3 9 6.097 5.617 0.194 152.595 o
4 3 10 9.981 9.721 0.281 70.332 o
4 3 11 0.412 0.407 0.087 834.671 o
4 3 13 13.038 13.107 0.369 40.885 o
4 3 16 22.247 23.594 0.611 14.688 o
4 3 17 2.903 2.949 0.213 137.027 o
4 3 18 32.752 32.141 3.211 0.611 o
4 3 19 2.353 2.387 0.504 25.003 o
4 4 0 65.910 68.231 1.543 2.197 o
4 4 1 0.670 0.650 0.146 300.527 o
4 4 2 0.592 0.582 0.146 300.684 o
4 4 3 2.721 3.007 0.184 182.734 o
4 4 4 1.548 1.552 0.116 461.085 o
4 4 5 20.566 20.296 0.485 22.402 o
4 4 6 13.661 13.417 0.504 23.093 o
4 4 7 40.634 39.466 0.912 6.238 o
4 4 8 20.596 20.422 0.572 16.904 o
4 4 9 1.017 0.718 0.107 555.357 o
4 4 10 1.369 1.368 0.116 463.173 o
4 4 11 0.475 0.534 0.097 675.773 o
4 4 13 0.523 0.504 0.107 558.658 o
4 4 14 21.414 21.470 0.660 13.035 o
4 4 15 5.051 5.113 0.349 51.033 o
4 4 17 18.035 19.044 0.524 20.299 o
4 4 20 1.955 1.620 0.340 55.142 o
4 5 1 2.034 2.406 0.155 258.878 o
4 5 2 0.831 0.844 0.107 556.180 o
4 5 3 3.644 3.289 0.204 148.459 o
4 5 4 22.046 22.284 0.883 7.621 o
4 5 5 2.070 2.037 0.146 294.309 o
4 5 6 9.612 9.440 0.330 53.353 o
4 5 8 2.135 1.834 0.126 389.139 o
4 5 10 14.690 15.299 0.417 31.866 o
4 5 11 7.478 8.130 0.281 74.060 o
4 5 12 1.843 1.785 0.146 295.780 o
4 5 16 7.647 8.178 0.291 69.396 o
4 5 17 1.154 1.242 0.155 262.980 o
4 6 0 0.877 0.912 0.136 344.100 o
4 6 1 3.705 3.852 0.213 135.117 o
4 6 2 0.558 0.582 0.116 469.415 o
4 6 3 0.710 0.524 0.116 469.011 o
4 6 5 2.649 2.474 0.184 183.490 o
4 6 7 0.796 0.689 0.116 468.366 o
4 6 8 1.948 1.999 0.184 185.283 o
4 6 9 1.693 2.066 0.146 295.819 o
4 6 14 1.406 1.310 0.252 99.923 o
4 7 1 4.631 5.103 0.252 96.182 o
4 7 2 0.833 0.873 0.175 208.633 o
4 7 5 0.936 0.621 0.155 263.891 o
4 7 6 6.531 6.529 0.330 56.044 o
4 7 7 0.443 0.766 0.155 264.391 o
4 7 8 3.730 3.357 0.223 124.306 o
5 0 0 60.300 59.587 1.795 1.749 o
5 0 2 669.949 660.538 15.338 0.022 o
5 0 4 12.365 12.234 0.427 31.878 o
5 0 6 6.454 6.655 0.272 80.953 o
5 0 8 142.891 139.896 3.046 0.547 o
5 0 10 71.203 70.656 1.950 1.451 o
5 0 12 17.049 16.056 0.611 15.693 o
5 0 14 14.896 15.270 0.543 19.826 o
5 0 16 15.293 14.969 0.834 8.820 o
5 1 0 0.506 0.563 0.078 1053.440 o
5 1 1 103.869 107.250 2.387 0.912 o
5 1 2 56.137 57.394 1.455 2.557 o
5 1 3 2.180 1.834 0.136 336.658 o
5 1 4 37.337 38.253 0.922 6.275 o
5 1 5 1.477 1.213 0.087 812.567 o
5 1 6 81.014 80.241 2.076 1.256 o
5 1 7 4.995 4.987 0.233 111.624 o
5 1 8 1.555 1.213 0.136 341.304 o
5 1 9 1.728 1.911 0.146 295.985 o
5 1 11 29.109 28.319 0.805 8.545 o
5 1 12 54.268 53.523 1.242 3.382 o
5 1 13 16.482 15.872 0.543 19.544 o
5 1 15 17.115 17.414 0.592 16.562 o
5 2 0 23.888 24.176 0.592 15.258 o
5 2 1 25.074 24.778 0.825 8.465 o
5 2 2 3.651 3.599 0.175 199.038 o
5 2 3 24.444 24.370 0.611 14.371 o
5 2 4 61.993 59.354 1.465 2.466 o
5 2 5 15.480 13.951 0.475 25.273 o
5 2 6 47.103 47.887 1.242 3.531 o
5 2 7 4.438 4.113 0.223 122.684 o
5 2 8 13.707 14.145 0.437 29.918 o
5 2 9 10.454 10.623 0.466 27.752 o
5 2 10 40.216 39.689 0.912 6.249 o
5 2 11 10.444 10.740 0.407 35.612 o
5 2 12 21.327 21.169 0.611 14.942 o
5 2 14 5.901 5.899 0.320 59.846 o
5 2 16 11.763 11.846 0.553 19.801 o
5 2 17 24.394 25.622 1.067 5.266 o
5 2 18 3.287 2.988 0.553 20.782 o
5 2 19 2.429 2.988 0.563 20.099 o
5 3 0 122.407 121.298 2.940 0.614 o
5 3 1 25.074 26.718 0.815 8.603 o
5 3 2 5.259 5.607 0.243 102.512 o
5 3 3 4.753 4.298 0.213 132.766 o
5 3 4 4.039 3.784 0.301 69.125 o
5 3 5 40.814 39.980 0.990 5.438 o
5 3 6 90.675 88.323 1.960 1.331 o
5 3 7 4.405 4.579 0.262 89.902 o
5 3 8 3.189 3.095 0.155 252.454 o
5 3 10 37.644 37.205 0.854 7.130 o
5 3 11 21.096 21.014 0.524 19.519 o
5 3 12 0.699 0.757 0.107 557.224 o
5 3 13 4.382 4.502 0.223 122.460 o
5 3 14 29.537 28.881 0.737 9.890 o
5 3 15 0.774 0.863 0.223 127.941 o
5 3 16 32.552 33.722 1.921 1.671 o
5 3 19 4.488 4.560 0.679 13.762 o
5 4 0 8.727 8.566 0.301 64.230 o
5 4 1 4.571 4.123 0.184 175.826 o
5 4 3 1.106 1.290 0.107 552.398 o
5 4 4 25.400 25.078 0.611 14.207 o
5 4 5 18.418 18.588 0.466 24.811 o
5 4 6 8.552 8.402 0.272 77.499 o
5 4 7 18.677 18.384 0.485 23.111 o
5 4 9 7.407 7.257 0.378 42.662 o
5 4 10 15.723 16.095 0.640 14.512 o
5 4 11 2.717 2.852 0.165 227.033 o
5 4 12 0.513 0.679 0.107 558.334 o
5 4 14 2.485 2.493 0.175 204.318 o
5 4 15 11.736 12.922 0.388 37.984 o
5 4 16 1.250 1.436 0.175 207.827 o
5 4 17 4.683 5.084 0.902 7.811 o
5 4 18 7.311 7.703 0.369 44.788 o
5 5 0 4.883 4.967 0.204 143.841 o
5 5 2 4.636 4.928 0.223 121.674 o
5 5 3 1.196 1.213 0.116 464.880 o
5 5 4 3.401 3.337 0.165 223.472 o
5 5 6 6.313 6.393 0.310 63.090 o
5 5 7 1.356 1.446 0.146 298.073 o
5 5 8 7.311 7.363 0.369 44.850 o
5 5 9 0.373 0.388 0.116 470.141 o
5 5 14 2.800 2.823 0.184 182.764 o
5 5 15 0.824 1.116 0.146 299.847 o
5 5 16 2.479 2.813 0.204 150.827 o
5 6 0 6.569 7.247 0.407 37.205 o
5 6 1 4.434 4.870 0.213 132.832 o
5 6 2 4.222 4.307 0.204 146.196 o
5 6 3 2.091 2.173 0.155 259.089 o
5 6 4 1.634 1.513 0.184 186.126 o
5 6 5 7.684 7.664 0.378 42.500 o
5 6 6 2.742 3.017 0.223 125.743 o
5 6 7 11.646 11.525 0.340 48.629 o
5 6 8 0.742 1.077 0.146 300.046 o
5 6 9 2.203 2.290 0.175 205.254 o
5 6 12 0.590 0.592 0.184 187.542 o
5 7 0 1.773 1.979 0.184 185.582 o
5 7 1 8.534 8.198 0.349 48.943 o
5 7 2 1.483 1.785 0.213 139.146 o
5 7 3 2.044 1.863 0.378 44.422 o
5 7 4 1.296 0.990 0.184 186.844 o
5 7 5 0.855 0.786 0.155 263.889 o
5 7 7 0.851 0.863 0.155 263.837 o
6 0 0 227.489 230.460 6.830 0.121 o
6 0 2 29.601 28.571 1.087 4.978 o
6 0 4 1.221 1.562 0.146 298.304 o
6 0 6 42.528 44.200 1.087 4.558 o
6 0 8 15.506 15.542 0.417 31.513 o
6 0 10 33.827 33.771 0.980 5.826 o
6 0 12 92.048 88.672 2.775 0.735 o
6 0 14 3.680 4.152 0.388 41.882 o
6 1 0 0.510 0.553 0.116 469.602 o
6 1 1 183.202 184.125 4.492 0.264 o
6 1 2 58.969 60.431 1.358 2.820 o
6 1 3 22.898 22.498 0.631 13.905 o
6 1 4 55.375 54.872 1.378 2.826 o
6 1 5 58.758 58.704 1.446 2.555 o
6 1 6 21.208 21.043 0.563 17.269 o
6 1 7 11.921 12.098 0.466 27.288 o
6 1 8 41.276 41.552 1.232 3.709 o
6 1 9 34.581 35.207 0.893 6.791 o
6 1 11 31.544 32.083 0.815 8.149 o
6 1 12 0.708 0.485 0.155 264.263 o
6 1 13 13.542 13.262 0.951 6.895 o
6 1 15 1.868 2.183 0.204 152.024 o
6 1 16 25.789 25.515 1.901 1.727 o
6 2 1 9.708 8.964 0.281 71.110 o
6 2 3 13.225 13.320 0.514 22.375 o
6 2 4 47.154 47.276 1.135 4.113 o
6 2 5 96.911 95.317 2.687 0.767 o
6 2 6 2.455 2.280 0.184 184.094 o
6 2 7 1.140 1.106 0.136 343.043 o
6 2 8 5.343 4.637 0.485 26.764 o
6 2 9 34.167 33.849 0.796 8.288 o
6 2 10 1.423 1.572 0.146 297.666 o
6 2 11 5.453 5.549 0.320 60.160 o
6 2 12 3.417 3.386 0.243 105.987 o
6 2 13 7.090 6.558 0.378 42.877 o
6 2 14 32.939 31.996 1.087 4.884 o
6 2 15 15.297 15.784 0.815 9.215 o
6 2 16 8.103 7.965 0.766 10.721 o
6 3 2 0.593 0.456 0.136 345.178 o
6 3 3 0.681 0.873 0.233 117.539 o
6 3 7 5.050 4.715 0.233 111.749 o
6 3 8 6.010 5.937 0.213 128.154 o
6 3 9 2.998 3.075 0.223 125.419 o
6 3 10 32.582 32.093 0.757 9.158 o
6 3 11 1.639 1.513 0.165 231.981 o
6 3 12 1.552 1.135 0.136 341.478 o
6 3 13 0.594 0.592 0.184 187.540 o
6 3 15 12.109 12.661 1.106 5.141 o
6 3 16 5.139 6.044 0.369 45.766 o
6 3 18 7.804 8.828 0.737 11.569 o
6 4 0 16.505 15.843 0.427 29.880 o
6 4 2 26.059 25.428 0.669 12.107 o
6 4 4 6.311 5.986 0.223 117.428 o
6 4 5 14.097 14.087 0.485 24.657 o
6 4 6 0.816 0.699 0.107 556.721 o
6 4 7 1.961 2.028 0.136 337.350 o
6 4 9 7.572 7.819 0.330 55.133 o
6 4 10 18.596 18.384 0.495 22.361 o
6 4 11 1.877 1.863 0.146 295.493 o
6 4 14 3.016 3.143 0.252 98.563 o
6 4 15 4.616 4.628 0.262 89.690 o
6 4 16 4.183 3.687 0.340 54.435 o
6 5 0 26.555 26.223 0.640 12.953 o
6 5 1 4.191 4.123 0.204 146.468 o
6 5 3 0.620 0.805 0.155 264.182 o
6 5 4 15.093 15.454 0.437 29.277 o
6 5 6 44.882 47.499 1.096 4.403 o
6 5 7 2.957 3.095 0.272 85.231 o
6 5 8 0.587 0.592 0.136 345.074 o
6 5 9 1.236 1.436 0.136 342.125 o
6 5 12 0.501 0.601 0.126 400.243 o
6 5 13 1.599 1.543 0.155 261.584 o
6 5 14 7.990 8.198 0.378 42.300 o
6 5 16 3.220 3.522 0.262 91.252 o
6 6 0 11.408 11.467 0.340 48.809 o
6 6 1 2.125 2.406 0.272 85.784 o
6 6 2 4.575 4.899 0.243 103.884 o
6 6 3 5.464 5.336 0.369 45.774 o
6 6 5 1.253 1.261 0.213 139.481 o
6 6 7 1.966 1.979 0.146 294.884 o
6 6 8 0.905 0.786 0.136 344.191 o
6 6 9 0.456 0.524 0.136 345.333 o
6 6 10 6.687 6.956 0.262 86.175 o
6 6 11 4.823 4.734 0.223 121.517 o
6 6 12 1.407 1.300 0.136 341.729 o
6 7 0 1.907 1.901 0.204 152.136 o
6 7 1 0.604 0.679 0.184 187.511 o
6 7 2 0.605 0.553 0.184 187.544 o
6 7 7 1.951 1.562 0.252 99.660 o
7 0 0 106.029 108.686 2.619 0.777 o
7 0 2 34.847 36.138 1.125 4.514 o
7 0 4 268.143 259.884 21.809 0.013 o
7 0 8 43.418 42.929 1.096 4.484 o
7 0 10 59.342 56.958 2.115 1.308 o
7 0 12 17.687 15.862 1.213 4.239 o
7 0 14 11.568 11.021 1.087 5.335 o
7 1 0 82.295 82.754 1.834 1.532 o
7 1 1 1.111 1.048 0.097 667.890 o
7 1 3 7.432 7.519 0.243 97.558 o
7 1 4 34.357 34.043 0.815 7.949 o
7 1 5 40.405 40.708 1.009 5.265 o
7 1 6 1.066 0.970 0.116 466.383 o
7 1 7 1.457 1.310 0.155 262.237 o
7 1 8 46.230 45.180 1.116 4.273 o
7 1 10 3.379 3.318 0.243 106.055 o
7 1 11 15.816 15.716 1.232 4.123 o
7 1 12 15.537 14.184 1.067 5.473 o
7 1 13 14.567 14.678 0.660 13.858 o
7 1 14 23.764 22.779 1.669 2.239 o
7 2 0 35.569 35.983 0.931 6.268 o
7 2 1 10.739 10.866 0.504 23.786 o
7 2 2 6.081 6.820 0.243 100.390 o
7 2 3 4.925 4.957 0.252 95.936 o
7 2 5 0.795 0.854 0.136 344.376 o
7 2 6 5.872 5.462 0.262 88.003 o
7 2 7 3.237 3.250 0.262 91.332 o
7 2 8 7.005 7.111 0.398 38.886 o
7 2 9 20.331 20.509 0.543 18.533 o
7 2 10 0.847 0.999 0.175 208.560 o
7 2 11 10.682 10.216 0.417 34.097 o
7 2 13 4.043 4.007 0.592 18.117 o
7 2 14 6.334 6.374 0.708 12.601 o
7 2 15 10.689 11.681 0.796 9.858 o
7 2 16 1.128 1.416 0.466 29.396 o
7 3 0 0.655 0.601 0.087 831.615 o
7 3 1 27.834 28.057 0.737 10.038 o
7 3 2 22.525 21.731 0.699 11.676 o
7 3 3 15.014 14.940 0.592 16.934 o
7 3 4 14.161 14.155 0.378 38.244 o
7 3 5 1.049 1.116 0.126 397.703 o
7 3 6 6.646 6.636 0.330 55.958 o
7 3 7 3.402 3.046 0.175 200.832 o
7 3 8 12.288 12.166 0.369 41.532 o
7 3 9 10.002 9.614 0.553 20.107 o
7 3 10 1.788 1.999 0.223 127.096 o
7 3 12 3.387 3.570 0.281 79.196 o
7 3 13 1.581 1.368 0.446 31.991 o
7 3 16 2.215 2.028 0.330 58.344 o
7 3 18 3.227 3.590 0.611 17.018 o
7 4 0 9.736 9.818 0.310 59.276 o
7 4 1 1.468 1.562 0.175 207.407 o
7 4 2 1.688 1.804 0.146 296.340 o
7 4 3 1.202 1.125 0.126 397.012 o
7 4 4 2.481 2.561 0.233 116.092 o
7 4 5 20.153 20.664 0.543 18.551 o
7 4 6 29.896 30.550 0.873 7.338 o
7 4 9 9.932 10.497 0.407 35.818 o
7 4 12 4.901 4.812 0.252 96.044 o
7 4 13 0.309 0.543 0.175 209.090 o
7 4 14 6.866 7.131 0.378 42.857 o
7 4 15 3.009 3.328 0.621 16.500 o
7 4 16 1.229 1.378 0.194 168.597 o
7 5 0 13.824 13.359 0.388 36.953 o
7 5 2 12.500 13.097 0.437 30.434 o
7 5 3 1.481 1.552 0.155 261.878 o
7 5 4 2.436 2.396 0.378 44.351 o
7 5 6 1.104 0.931 0.194 168.881 o
7 5 8 3.591 3.706 0.213 135.428 o
7 5 10 20.851 21.237 0.543 18.380 o
7 5 11 1.351 1.426 0.155 262.349 o
7 5 12 1.338 1.310 0.146 298.329 o
7 5 14 2.708 2.843 0.437 33.318 o
7 6 0 0.834 0.931 0.146 300.009 o
7 6 2 2.105 2.115 0.369 46.762 o
7 6 4 4.059 3.919 0.243 105.061 o
7 6 5 4.143 3.978 0.204 146.732 o
7 6 6 3.362 3.376 0.204 148.906 o
7 6 7 3.554 3.299 0.272 84.827 o
7 6 8 2.927 2.959 0.213 136.987 o
7 6 9 4.891 4.870 0.233 111.871 o
7 6 10 2.025 2.037 0.175 205.929 o
7 7 1 0.611 0.669 0.175 208.890 o
7 7 3 4.937 4.569 0.272 83.369 o
8 0 0 27.169 27.669 1.407 3.086 o
8 0 2 15.342 15.396 1.077 5.373 o
8 0 4 64.011 65.514 2.212 1.185 o
8 0 6 4.929 4.482 0.504 24.805 o
8 0 8 28.206 27.911 0.912 6.898 o
8 1 1 0.407 0.485 0.107 559.117 o
8 1 2 2.027 2.319 0.146 293.871 o
8 1 3 84.313 81.667 1.834 1.525 o
8 1 4 32.812 32.908 0.796 8.392 o
8 1 6 4.326 4.104 0.213 133.783 o
8 1 8 19.235 17.948 0.563 17.803 o
8 1 9 9.486 8.654 0.340 50.914 o
8 1 10 18.960 17.919 0.611 15.393 o
8 1 11 6.333 5.588 0.427 34.193 o
8 1 12 4.175 4.307 0.863 8.534 o
8 2 0 41.051 41.280 1.125 4.351 o
8 2 1 21.078 21.198 0.611 14.969 o
8 2 3 4.912 5.006 0.262 89.232 o
8 2 4 14.168 14.057 0.417 32.287 o
8 2 5 7.484 7.800 0.310 61.834 o
8 2 7 35.342 34.489 0.863 7.164 o
8 2 8 4.305 3.628 0.262 90.395 o
8 2 10 14.779 14.543 0.514 22.008 o
8 3 0 17.381 17.249 0.466 25.284 o
8 3 2 9.681 9.847 0.475 26.900 o
8 3 3 0.613 0.650 0.165 234.151 o
8 3 4 10.467 10.827 0.514 22.981 o
8 3 5 17.711 17.705 0.485 23.428 o
8 3 6 14.127 13.213 0.437 29.932 o
8 3 8 3.453 3.231 0.184 180.607 o
8 3 10 2.877 2.445 0.378 44.293 o
8 3 11 5.610 5.840 0.349 50.716 o
8 3 12 3.134 2.522 0.223 125.581 o
8 3 13 6.376 6.209 0.669 14.089 o
8 3 14 5.166 5.433 0.330 56.932 o
8 3 16 2.565 2.299 0.466 29.323 o
8 4 1 2.267 2.445 0.272 85.718 o
8 4 2 14.223 14.232 0.427 30.954 o
8 4 3 2.489 2.542 0.184 183.758 o
8 4 4 2.407 2.454 0.165 228.723 o
8 4 5 2.778 2.619 0.175 203.365 o
8 4 6 3.794 3.929 0.291 73.800 o
8 4 7 4.288 4.317 0.310 64.731 o
8 4 9 12.762 13.320 0.485 25.010 o
8 4 10 5.894 6.199 0.504 24.657 o
8 4 12 6.027 6.102 0.340 53.334 o
8 4 15 2.161 2.028 0.204 151.772 o
8 5 0 1.074 1.193 0.194 168.805 o
8 5 2 6.319 6.335 0.534 22.043 o
8 5 3 3.831 4.259 0.262 90.524 o
8 5 4 0.879 0.960 0.146 299.892 o
8 5 6 7.034 6.694 0.388 40.832 o
8 5 7 2.058 1.814 0.204 152.017 o
8 5 8 20.114 21.567 0.572 16.891 o
8 5 9 2.840 2.639 0.194 165.473 o
8 5 10 0.871 0.990 0.146 299.879 o
8 6 2 4.869 4.763 0.291 72.941 o
8 6 3 1.405 1.426 0.175 207.610 o
8 6 4 2.657 2.872 0.184 183.034 o
9 0 0 17.291 16.958 0.582 17.073 o
9 0 2 46.856 45.539 1.145 4.077 o
9 0 4 4.488 4.443 0.262 89.889 o
9 0 6 27.107 25.108 0.776 9.315 o
9 1 0 32.395 32.452 0.796 8.429 o
9 1 2 4.936 4.395 0.272 83.441 o
9 1 3 26.016 26.369 0.699 11.222 o
9 1 4 2.457 1.989 0.213 138.155 o
9 1 5 6.218 5.578 0.330 56.429 o
9 1 6 7.787 7.247 0.340 52.240 o
9 1 7 12.670 12.961 0.893 7.820 o
9 1 8 1.675 1.222 0.233 117.089 o
9 1 9 1.758 2.028 0.194 167.666 o
9 1 10 9.168 8.557 0.747 11.242 o
9 2 0 1.681 1.882 0.175 206.766 o
9 2 1 3.628 3.560 0.223 124.306 o
9 2 2 36.344 35.178 1.271 3.609 o
9 2 3 5.155 5.258 0.310 64.082 o
9 2 4 35.734 35.381 1.009 5.463 o
9 2 5 3.100 3.299 0.252 98.442 o
9 2 6 3.103 3.007 0.252 98.549 o
9 2 7 1.531 1.698 0.252 99.807 o
9 2 8 2.263 1.669 0.233 116.599 o
9 2 9 15.461 15.668 0.951 6.842 o
9 2 10 1.922 2.047 0.495 26.013 o
9 3 0 2.119 1.766 0.504 25.022 o
9 3 1 6.577 5.850 0.349 50.348 o
9 3 2 2.477 1.960 0.514 24.074 o
9 3 3 14.027 14.795 0.534 20.661 o
9 3 4 6.711 6.287 1.067 5.577 o
9 3 5 1.364 1.436 0.340 55.225 o
9 3 6 15.986 16.337 0.572 17.809 o
9 3 8 16.051 14.222 0.728 11.442 o
9 3 10 3.058 3.473 0.291 74.259 o
9 3 11 4.040 3.968 0.572 19.360 o
9 4 1 2.183 2.260 0.165 229.685 o
9 4 2 12.711 13.126 0.388 37.511 o
9 4 6 4.979 4.802 0.272 83.237 o
9 4 7 17.537 19.733 1.193 4.360 o
9 4 8 12.500 13.029 1.659 2.302 o
9 4 9 5.265 5.578 0.349 50.883 o
9 4 10 0.948 1.184 0.213 139.669 o
9 5 1 0.846 0.873 0.146 300.041 o
9 5 2 4.329 4.278 0.223 122.728 o
9 5 3 1.462 1.824 0.165 232.026 o
9 5 4 1.095 1.067 0.146 299.299 o
9 5 5 1.057 0.951 0.243 108.229 o
9 5 8 5.182 4.870 0.272 83.035 o
9 6 1 1.625 1.203 0.194 168.299 o
9 6 3 1.097 1.164 0.136 343.088 o
10 0 0 7.041 7.548 0.495 25.424 o
10 0 2 2.685 3.027 0.184 182.793 o
10 0 4 13.985 13.252 0.563 18.825 o
10 0 6 17.032 15.387 0.941 6.952 o
10 1 0 9.444 9.595 0.301 63.111 o
10 1 1 32.146 31.646 0.805 8.295 o
10 1 3 8.441 8.372 0.378 42.105 o
10 1 4 9.206 9.333 0.660 14.327 o
10 1 5 3.707 3.978 0.301 69.233 o
10 1 6 7.963 7.587 0.330 54.974 o
10 1 8 1.304 1.232 0.310 66.063 o
10 1 10 5.160 5.006 0.611 16.939 o
10 2 0 9.480 9.614 0.398 37.768 o
10 2 1 1.712 1.640 0.291 75.018 o
10 2 2 28.567 28.503 0.796 8.751 o
10 2 3 7.838 8.605 0.427 33.587 o
10 2 4 1.533 1.310 0.243 107.994 o
10 2 5 10.216 10.158 1.087 5.348 o
10 2 6 7.005 7.761 0.504 24.471 o
10 2 7 3.765 3.687 0.301 69.272 o
10 2 8 3.327 2.930 0.543 21.527 o
10 2 10 6.623 6.772 0.650 14.915 o
10 3 0 0.705 0.844 0.223 127.966 o
10 3 2 18.470 19.500 0.970 6.490 o
10 3 3 3.794 4.016 0.912 7.655 o
10 3 4 3.541 2.687 0.437 33.255 o
10 3 6 13.459 13.000 1.523 2.725 o
10 3 7 11.453 11.457 0.883 8.026 o
10 3 8 24.528 23.526 0.970 6.315 o
10 4 0 2.404 2.687 0.504 24.996 o
10 4 1 5.232 4.191 0.931 7.331 o
10 4 3 1.498 1.397 0.417 36.607 o
10 4 5 1.074 0.999 0.262 92.807 o
10 4 7 6.858 6.752 0.786 10.240 o
10 5 0 1.876 2.251 0.184 185.193 o
10 5 1 2.528 2.396 0.223 126.290 o
10 5 5 0.796 0.796 0.233 117.519 o
10 5 6 1.059 1.077 0.204 153.213 o
11 0 0 32.536 33.354 0.854 7.454 o
11 0 2 24.822 24.380 0.660 12.582 o
11 0 6 2.665 2.357 0.543 21.558 o
11 1 1 3.789 4.220 0.262 90.573 o
11 1 2 8.161 7.984 0.417 35.097 o
11 1 3 11.055 11.380 0.485 25.518 o
11 1 4 1.674 1.746 0.184 185.906 o
11 1 5 12.158 11.894 0.407 34.820 o
11 1 6 3.470 3.687 0.243 105.791 o
11 1 7 4.893 4.210 0.301 68.587 o
11 2 1 11.831 12.505 0.572 18.504 o
11 2 3 1.041 0.873 0.243 108.244 o
11 2 4 7.137 6.568 0.388 40.821 o
11 2 6 18.930 19.199 0.631 14.488 o
11 2 7 15.955 15.590 0.543 19.645 o
11 3 0 19.360 17.075 1.290 3.740 o
11 3 2 1.198 1.028 0.233 117.348 o
11 3 3 1.545 1.329 0.243 107.985 o
11 3 4 3.176 2.231 0.427 34.828 o
11 3 6 2.216 2.484 0.631 16.018 o
11 4 1 3.351 3.425 0.669 14.195 o
11 4 2 3.256 3.085 0.660 14.619 o
11 4 4 6.125 6.025 0.776 10.515 o
12 0 2 19.661 18.588 1.048 5.588 o
12 0 4 7.332 6.684 0.679 13.657 o
12 1 0 8.313 8.469 0.301 64.633 o
12 1 1 3.357 3.522 0.223 124.695 o
12 1 2 8.338 8.072 0.417 35.043 o
12 1 3 3.565 3.386 0.213 135.729 o
12 1 4 0.502 0.543 0.175 208.996 o
12 2 3 2.164 2.173 0.524 23.199 o
12 2 4 3.899 4.550 0.679 13.774 o
12 2 5 2.647 3.415 0.611 17.033 o
12 3 0 4.373 4.812 0.815 9.572 o
12 3 3 2.376 3.143 0.640 15.530 o
12 3 4 4.610 4.385 0.776 10.549 o
12 3 5 3.529 3.279 0.592 18.144 o
12 4 0 3.923 3.037 0.621 16.483 o
13 2 1 3.065 1.999 0.563 20.095 o
13 2 2 2.159 2.076 0.543 21.576 o
13 2 3 4.206 4.783 0.689 13.382 o
;
_olex2_submission_special_instructions 'No special instructions were received'
loop_
_space_group_symop_id
_space_group_symop_operation_xyz
1 x,y,z
2 -x,y+1/2,-z+1/2
3 -x,-y,-z
4 x,-y-1/2,z-1/2
loop_
_atom_site_label
_atom_site_type_symbol
_atom_site_fract_x
_atom_site_fract_y
_atom_site_fract_z
_atom_site_U_iso_or_equiv
_atom_site_adp_type
_atom_site_occupancy
_atom_site_refinement_flags_posn
O1 O 0.43477(3) 0.44412(6) 0.349896(15) 0.01340(3) Uani 1.000000 .
O2 O 0.24252(3) 0.74233(6) 0.463682(15) 0.01308(3) Uani 1.000000 .
C1 C 0.40307(3) 0.55874(6) 0.447954(18) 0.00969(3) Uani 1.000000 .
O3 O 0.12997(3) 0.63085(6) 0.178436(16) 0.01301(3) Uani 1.000000 .
H3a H 0.0115(11) 0.459(2) 0.1501(5) 0.0240(15) Uiso 1.000000 .
H3b H 0.1871(11) 0.6899(19) 0.1131(6) 0.0239(14) Uiso 1.000000 .
H1 H 0.3034(14) 0.525(3) 0.2829(7) 0.035(2) Uiso 1.000000 .
loop_
_atom_site_aniso_label
_atom_site_aniso_U_11
_atom_site_aniso_U_22
_atom_site_aniso_U_33
_atom_site_aniso_U_12
_atom_site_aniso_U_13
_atom_site_aniso_U_23
O1 0.01294(6) 0.01855(7) 0.00845(6) 0.00430(5) 0.00209(5) -0.00087(4)
O2 0.01113(6) 0.01824(7) 0.00917(6) 0.00537(5) 0.00105(5) -0.00069(5)
C1 0.00914(6) 0.01148(6) 0.00802(7) 0.00173(5) 0.00124(5) -0.00010(5)
O3 0.01066(6) 0.01808(7) 0.00934(6) -0.00156(5) 0.00055(5) 0.00112(5)
loop_
_atom_type_symbol
_atom_type_description
_atom_type_scat_dispersion_real
_atom_type_scat_dispersion_imag
_atom_type_scat_source
_atom_type_scat_dispersion_source
C C 0.00347 0.00161
'Clementi & Roetti, C., At. Data Nucl. Data Tables 1974, 14, (177-478); Clementi & Raimondi, J. Chem. Phys., 1963, 38, (2686-2689)'
'Henke, Gullikson and Davis, At. Data and Nucl. Data Tables, 1993, 54, 2'
H H 0.00000 0.00000
'Clementi & Roetti, C., At. Data Nucl. Data Tables 1974, 14, (177-478); Clementi & Raimondi, J. Chem. Phys., 1963, 38, (2686-2689)'
'Henke, Gullikson and Davis, At. Data and Nucl. Data Tables, 1993, 54, 2'
N N 0.00653 0.00323
'Clementi & Roetti, C., At. Data Nucl. Data Tables 1974, 14, (177-478); Clementi & Raimondi, J. Chem. Phys., 1963, 38, (2686-2689)'
'Henke, Gullikson and Davis, At. Data and Nucl. Data Tables, 1993, 54, 2'
O O 0.01158 0.00611
'Clementi & Roetti, C., At. Data Nucl. Data Tables 1974, 14, (177-478); Clementi & Raimondi, J. Chem. Phys., 1963, 38, (2686-2689)'
'Henke, Gullikson and Davis, At. Data and Nucl. Data Tables, 1993, 54, 2'
loop_
_geom_angle_atom_site_label_1
_geom_angle_atom_site_label_2
_geom_angle_atom_site_label_3
_geom_angle
_geom_angle_site_symmetry_1
_geom_angle_site_symmetry_3
_geom_angle_publ_flag
H1 O1 C1 110.8(4) . . ?
O2 C1 O1 126.961(19) . . ?
C1 C1 O1 112.68(2) 3_666 . ?
C1 C1 O2 120.36(2) 3_666 . ?
H3b O3 H3a 104.5(5) . . ?
loop_
_geom_bond_atom_site_label_1
_geom_bond_atom_site_label_2
_geom_bond_distance
_geom_bond_site_symmetry_2
_geom_bond_publ_flag
O1 C1 1.2854(3) . ?
O1 H1 1.022(8) . ?
O2 C1 1.2207(3) . ?
C1 C1 1.5429(4) 3_666 ?
O3 H3a 0.938(7) . ?
O3 H3b 0.944(7) . ?
loop_
_refln_index_h
_refln_index_k
_refln_index_l
_refln_F_squared_meas
_refln_F_squared_sigma
-14 0 10 1.32 0.44
-14 1 6 4.95 0.61
-14 1 7 7.39 0.68
-14 1 12 1.52 0.43
-14 2 6 9.32 0.64
-13 0 6 39.3 1.3
-13 0 8 3.38 0.55
-13 0 12 12.24 0.82
-13 0 16 10.12 0.7
-13 0 18 1.27 0.39
-13 1 2 14.77 0.71
-13 1 4 1.28 0.2
-13 1 5 9.95 0.48
-13 1 8 4.23 0.46
-13 1 10 3.56 0.29
-13 1 12 3.67 0.29
-13 1 15 1.71 0.34
-13 1 16 4.41 0.61
-13 1 17 2.14 0.44
-13 2 1 3.98 0.65
-13 2 3 0.93 0.23
-13 2 5 1.5 0.24
-13 2 8 2.39 0.49
-13 2 10 4.4 0.65
-13 2 14 3.62 0.57
-13 2 16 3.39 0.27
-13 3 4 4.65 0.73
-13 3 5 2.79 0.59
-13 3 6 4.17 0.68
-13 3 7 2.75 0.45
-13 3 9 1.66 0.43
-13 3 10 4.17 0.58
-13 3 12 0.71 0.23
-12 0 2 9.26 0.37
-12 0 4 41.12 1.07
-12 0 6 4.16 0.27
-12 0 10 2.77 0.52
-12 0 12 9.34 0.79
-12 0 14 6.12 0.74
-12 0 16 19.87 0.94
-12 1 1 1.9 0.28
-12 1 2 1.24 0.21
-12 1 5 20.13 0.92
-12 1 6 4.75 0.3
-12 1 7 1.58 0.36
-12 1 8 12.68 0.47
-12 1 9 12.47 0.62
-12 1 10 3.23 0.39
-12 1 11 1.14 0.28
-12 1 12 6.97 0.39
-12 1 15 15.02 0.5
-12 1 16 1.85 0.48
-12 1 19 1.35 0.2
-12 1 20 3.84 0.58
-12 2 1 14.61 1.06
-12 2 2 5.54 0.38
-12 2 5 7.98 0.41
-12 2 7 3.13 0.37
-12 2 8 4.86 0.36
-12 2 9 4.98 0.71
-12 2 11 9.26 0.59
-12 2 12 1.18 0.39
-12 2 13 4.84 0.7
-12 2 18 5.42 0.64
-12 3 3 3.18 0.42
-12 3 7 1.34 0.24
-12 3 14 3.08 0.65
-12 3 16 1.71 0.44
-12 4 5 2.13 0.59
-12 4 9 1.55 0.2
-12 4 13 2.42 0.45
-12 4 14 7.75 0.59
-11 0 2 3.56 0.2
-11 0 4 9.63 0.58
-11 0 8 87.57 3.94
-11 0 10 8.18 0.45
-11 0 12 2.12 0.49
-11 0 14 34.6 1.2
-11 1 2 6.17 0.26
-11 1 3 14.25 0.42
-11 1 4 35.41 0.91
-11 1 5 2.2 0.16
-11 1 7 1.58 0.19
-11 1 8 1.59 0.17
-11 1 9 5.7 0.53
-11 1 10 3.44 0.23
-11 1 11 3.83 0.66
-11 1 12 12.39 0.51
-11 1 14 7.35 0.38
-11 1 15 6.17 0.79
-11 1 16 2.37 0.51
-11 1 18 9.87 0.8
-11 1 19 11.21 0.78
-11 2 1 2.91 0.29
-11 2 3 1.44 0.18
-11 2 4 11 0.48
-11 2 5 2.26 0.19
-11 2 6 6.23 0.61
-11 2 7 8.37 0.47
-11 2 10 0.86 0.17
-11 2 11 2.34 0.49
-11 2 12 2.68 0.53
-11 2 15 11.62 0.86
-11 2 18 2.31 0.19
-11 2 19 0.88 0.16
-11 2 21 3.76 0.27
-11 2 22 1.36 0.4
-11 3 1 1.22 0.29
-11 3 2 3.65 0.32
-11 3 4 4.59 0.81
-11 3 5 6.4 0.44
-11 3 6 2.67 0.47
-11 3 7 3.63 0.33
-11 3 10 12.46 0.95
-11 3 11 4.51 0.74
-11 3 13 2.92 0.24
-11 3 16 3.87 0.24
-11 3 17 4.8 0.25
-11 4 1 1.48 0.25
-11 4 2 2.18 0.58
-11 4 3 4.86 0.74
-11 4 6 5.7 0.79
-11 4 9 2.15 0.18
-11 4 10 3.52 0.64
-11 4 12 2.96 0.21
-11 4 13 5.26 0.26
-11 4 15 0.53 0.15
-11 4 16 0.62 0.15
-11 5 4 3.5 0.27
-11 5 6 3.27 0.48
-11 5 12 0.66 0.18
-10 0 4 8.31 0.61
-10 0 6 11.89 0.56
-10 0 8 17.64 1.22
-10 0 10 12.35 0.5
-10 0 12 11.25 0.76
-10 0 16 2.66 0.5
-10 1 1 3.54 0.21
-10 1 2 0.59 0.11
-10 1 3 2.25 0.14
-10 1 4 0.75 0.13
-10 1 5 9.73 0.31
-10 1 7 47.39 1.18
-10 1 8 19.95 0.62
-10 1 9 9.77 0.52
-10 1 10 5.97 0.4
-10 1 11 1.76 0.21
-10 1 12 4.22 0.42
-10 1 13 11.89 0.42
-10 1 14 17.7 2.15
-10 1 17 15.65 0.94
-10 1 18 2.16 0.22
-10 1 19 2.04 0.32
-10 1 22 11.34 0.66
-10 1 24 4.24 0.47
-10 2 2 11.07 0.36
-10 2 3 50.38 1.19
-10 2 4 28.63 0.69
-10 2 7 1.64 0.17
-10 2 8 9.19 0.35
-10 2 9 13.37 0.68
-10 2 10 0.85 0.16
-10 2 11 11.8 0.71
-10 2 12 5.37 0.92
-10 2 13 12.13 0.42
-10 2 14 13.98 0.52
-10 2 16 0.98 0.2
-10 2 17 3.77 0.7
-10 2 21 1.09 0.23
-10 2 23 0.7 0.17
-10 3 1 2.81 0.62
-10 3 2 8.56 0.43
-10 3 3 3.64 0.32
-10 3 4 10.59 0.63
-10 3 6 10.65 0.43
-10 3 7 0.78 0.21
-10 3 8 6.22 0.29
-10 3 9 0.95 0.16
-10 3 10 8.42 0.37
-10 3 14 8.06 0.33
-10 3 15 2.54 0.2
-10 3 17 1.74 0.18
-10 3 19 0.61 0.16
-10 3 20 6.96 0.3
-10 3 21 3.13 0.21
-10 3 22 0.99 0.19
-10 4 2 10.55 0.68
-10 4 3 6.5 0.37
-10 4 6 3.56 0.33
-10 4 8 3.19 0.21
-10 4 9 3.28 0.39
-10 4 10 7.33 0.35
-10 4 13 8.65 0.77
-10 4 16 10.66 0.37
-10 4 17 0.83 0.16
-10 4 19 1.17 0.22
-10 5 2 7.17 0.3
-10 5 4 2.58 0.2
-10 5 5 3.56 0.28
-10 5 6 6.17 0.34
-10 5 10 0.86 0.19
-10 5 11 1.22 0.17
-10 5 12 14.44 0.7
-10 5 14 0.77 0.2
-10 6 1 3.78 0.52
-10 6 2 2.01 0.2
-10 6 3 0.96 0.17
-10 6 5 0.98 0.17
-10 6 6 0.82 0.17
-10 6 8 1.53 0.18
-9 0 2 4.36 0.34
-9 0 4 58.53 1.36
-9 0 6 25.09 0.73
-9 0 8 5.03 0.78
-9 0 10 52.72 2.1
-9 0 14 1.84 0.43
-9 0 22 7.05 0.63
-9 0 24 3.51 0.51
-9 1 1 0.52 0.12
-9 1 2 1.68 0.15
-9 1 4 10.63 0.33
-9 1 5 3.27 0.19
-9 1 6 21.91 0.65
-9 1 7 17.41 0.58
-9 1 8 4.17 0.39
-9 1 9 17.26 0.69
-9 1 10 1.31 0.2
-9 1 11 6.39 0.9
-9 1 14 13.19 0.85
-9 1 16 2.59 0.67
-9 1 17 37.7 1.09
-9 1 18 6.89 0.35
-9 1 19 3.27 0.25
-9 1 20 3.97 0.56
-9 1 21 6.73 0.62
-9 1 23 1.95 0.44
-9 2 1 4.93 0.42
-9 2 3 0.47 0.15
-9 2 5 6.47 0.28
-9 2 6 34.74 1.17
-9 2 7 9.81 0.51
-9 2 8 55.27 1.33
-9 2 9 1.77 0.19
-9 2 10 5.11 0.24
-9 2 12 3.32 0.22
-9 2 13 31.18 1.23
-9 2 14 5.33 0.34
-9 2 15 0.6 0.17
-9 2 16 10.6 0.41
-9 2 17 8.86 0.89
-9 2 18 15.48 0.5
-9 2 19 3.88 0.28
-9 2 21 7.06 0.41
-9 2 22 2.66 0.46
-9 2 23 8.04 0.63
-9 2 24 3.39 0.5
-9 3 1 2.8 0.24
-9 3 2 85.48 1.96
-9 3 3 12.82 0.74
-9 3 4 21.19 0.62
-9 3 6 1.22 0.15
-9 3 7 20.31 0.54
-9 3 8 6.5 0.42
-9 3 9 1.27 0.2
-9 3 10 4.84 0.28
-9 3 11 1.16 0.18
-9 3 12 42.55 0.98
-9 3 13 6.78 0.35
-9 3 14 5.93 0.28
-9 3 15 2.7 0.2
-9 3 16 2.86 0.25
-9 3 18 2.77 0.21
-9 3 21 0.56 0.15
-9 3 22 2.48 0.26
-9 4 1 12.34 0.49
-9 4 2 4.02 0.27
-9 4 3 21.67 0.56
-9 4 6 8.06 0.32
-9 4 7 0.86 0.14
-9 4 8 4.34 0.22
-9 4 9 1.85 0.15
-9 4 10 0.59 0.13
-9 4 11 6.26 0.34
-9 4 12 6.21 0.3
-9 4 13 7.41 0.34
-9 4 20 5.76 0.27
-9 4 21 0.88 0.15
-9 5 1 1.55 0.16
-9 5 9 3.63 0.26
-9 5 10 0.82 0.13
-9 5 12 3.32 0.29
-9 5 15 2.25 0.18
-9 5 16 8.46 0.43
-9 6 1 1.58 0.18
-9 6 3 4.12 0.28
-9 6 5 3.48 0.32
-9 6 6 0.69 0.18
-9 6 11 6.98 0.56
-9 6 12 2.94 0.25
-8 0 2 3.34 0.66
-8 0 4 4.39 0.68
-8 0 8 51.23 1.92
-8 0 10 7.11 0.86
-8 0 12 3.18 0.68
-8 0 26 6.97 0.57
-8 1 1 31.4 0.78
-8 1 3 19.64 0.52
-8 1 4 29.81 0.73
-8 1 5 22.83 0.58
-8 1 6 1.91 0.15
-8 1 7 57.88 1.49
-8 1 8 5.73 0.56
-8 1 9 13.27 0.72
-8 1 10 35.19 1.79
-8 1 12 1.67 0.18
-8 1 15 16.31 0.48
-8 1 16 8.66 0.32
-8 1 17 6.57 0.32
-8 1 18 10.53 0.82
-8 1 21 4.12 0.6
-8 1 24 9.19 0.66
-8 2 1 40.89 0.97
-8 2 2 16.39 0.47
-8 2 3 6.73 0.28
-8 2 4 16.51 0.51
-8 2 5 33.61 0.9
-8 2 6 56.97 1.33
-8 2 7 6.09 0.33
-8 2 8 6.63 0.32
-8 2 9 1.56 0.17
-8 2 10 10.96 0.4
-8 2 11 20.32 0.77
-8 2 12 7.76 0.49
-8 2 13 2.19 0.19
-8 2 14 11.38 0.79
-8 2 16 38.52 1.05
-8 2 17 2.07 0.2
-8 2 18 13.4 0.62
-8 2 19 3.44 0.23
-8 2 23 3.01 0.5
-8 3 2 8.83 0.3
-8 3 3 7.43 0.32
-8 3 5 1.07 0.16
-8 3 6 33.49 0.81
-8 3 7 11.28 0.39
-8 3 8 21.41 0.63
-8 3 9 5.23 0.28
-8 3 10 9.9 0.47
-8 3 11 5.72 0.31
-8 3 12 50.38 1.29
-8 3 13 1.75 0.2
-8 3 14 1.04 0.16
-8 3 16 18.24 0.56
-8 3 17 16.73 0.55
-8 3 19 1.26 0.2
-8 3 20 8.41 0.33
-8 3 22 24.53 1
-8 3 23 3.05 0.63
-8 4 1 22.54 0.64
-8 4 2 20.12 0.71
-8 4 3 16.16 0.51
-8 4 4 11.15 0.54
-8 4 5 3.48 0.21
-8 4 6 4.97 0.29
-8 4 7 2.66 0.19
-8 4 8 4.31 0.26
-8 4 11 23.38 0.58
-8 4 12 17.3 0.55
-8 4 13 10.86 0.35
-8 4 15 2.78 0.22
-8 4 16 2.73 0.18
-8 4 18 5.08 0.3
-8 4 20 0.44 0.13
-8 4 21 7.11 0.44
-8 5 1 5.17 0.25
-8 5 2 27.71 0.68
-8 5 5 1.52 0.2
-8 5 7 4.75 0.29
-8 5 8 7.47 0.52
-8 5 10 2.39 0.17
-8 5 12 0.64 0.13
-8 5 15 0.6 0.16
-8 5 19 1.2 0.13
-8 6 4 0.9 0.19
-8 6 11 0.65 0.16
-8 6 13 1.4 0.14
-8 6 14 0.37 0.12
-8 6 15 4.16 0.2
-8 7 2 1.27 0.18
-7 0 2 15.55 1
-7 0 4 42.42 1.58
-7 0 6 262.26 5.88
-7 0 10 2 0.53
-7 0 12 6.36 0.4
-7 0 14 11.99 0.69
-7 0 16 8.97 1.13
-7 0 18 8.3 1.17
-7 1 1 18.55 0.56
-7 1 2 90.35 2.78
-7 1 3 3.42 0.29
-7 1 6 20.11 0.95
-7 1 7 51.3 1.3
-7 1 9 10.47 0.47
-7 1 10 29.74 0.83
-7 1 11 47.42 1.21
-7 1 12 3.24 0.29
-7 1 13 9.19 0.44
-7 1 14 15.38 0.55
-7 1 15 13.66 0.63
-7 1 16 5.81 0.45
-7 1 17 21.61 1.17
-7 1 20 3.7 0.83
-7 1 21 2.72 0.8
-7 1 25 6.95 0.65
-7 2 3 23.29 0.8
-7 2 4 3.21 0.22
-7 2 5 9.97 0.44
-7 2 6 2.27 0.27
-7 2 7 19.33 0.66
-7 2 9 15.28 1.27
-7 2 10 74.22 2.8
-7 2 11 21.75 0.62
-7 2 12 8.48 0.33
-7 2 13 5.19 0.28
-7 2 14 3.51 0.25
-7 2 15 40.27 1.13
-7 2 16 12.4 0.39
-7 2 17 2.42 0.21
-7 2 18 4.55 0.45
-7 2 20 23.64 0.71
-7 2 21 12.52 0.64
-7 2 22 5.07 0.64
-7 2 23 3.38 0.57
-7 2 24 3.96 0.56
-7 2 25 2.42 0.46
-7 2 26 7.26 0.58
-7 3 1 2 0.16
-7 3 2 1.85 0.16
-7 3 3 2.25 0.2
-7 3 4 78.97 1.79
-7 3 5 33.4 0.84
-7 3 6 16.08 0.43
-7 3 9 9.6 0.55
-7 3 10 11.02 0.33
-7 3 12 1.14 0.14
-7 3 13 7.4 0.27
-7 3 14 22.28 0.67
-7 3 15 4.96 0.23
-7 3 16 23.12 0.6
-7 3 18 9.92 0.36
-7 3 20 2.24 0.23
-7 3 21 2.85 0.21
-7 3 22 2.76 0.24
-7 3 24 1.89 0.3
-7 4 1 21.7 0.77
-7 4 2 7.31 0.26
-7 4 3 0.73 0.11
-7 4 4 2.29 0.14
-7 4 5 22.5 0.64
-7 4 6 4.38 0.23
-7 4 7 4.82 0.28
-7 4 8 25.39 0.6
-7 4 9 5.6 0.22
-7 4 11 13.35 0.4
-7 4 12 3.66 0.22
-7 4 14 3.06 0.42
-7 4 15 12.45 0.38
-7 4 16 9.9 0.52
-7 4 17 4.08 0.23
-7 4 19 0.51 0.14
-7 4 21 7.73 0.3
-7 4 22 9.7 0.31
-7 5 1 4.34 0.23
-7 5 2 19.69 0.84
-7 5 3 3.41 0.18
-7 5 4 1.47 0.22
-7 5 5 1.08 0.16
-7 5 6 8.36 0.33
-7 5 7 0.73 0.13
-7 5 10 5.82 0.25
-7 5 11 8.95 0.32
-7 5 12 25.5 0.67
-7 5 14 1.28 0.15
-7 5 17 2.35 0.17
-7 5 18 3.91 0.21
-7 5 19 0.49 0.13
-7 5 20 3.53 0.31
-7 5 21 0.56 0.17
-7 6 1 16.46 0.6
-7 6 2 3.16 0.55
-7 6 4 0.78 0.16
-7 6 5 1.27 0.27
-7 6 6 6.54 0.3
-7 6 7 2.15 0.37
-7 6 8 4.74 0.33
-7 6 9 2 0.22
-7 6 11 1.65 0.15
-7 6 13 0.54 0.13
-7 6 16 1.59 0.2
-7 7 4 0.6 0.17
-7 7 5 1.93 0.26
-7 7 6 0.72 0.17
-6 0 2 190.07 3.82
-6 0 4 2.82 0.49
-6 0 6 167.07 3.38
-6 0 8 1.25 0.21
-6 0 10 299.11 6.89
-6 0 14 27.04 1.09
-6 0 16 126.89 3.19
-6 0 18 15.09 0.7
-6 0 20 8.98 1.05
-6 0 22 2.15 0.7
-6 1 1 1.42 0.14
-6 1 2 6.79 0.3
-6 1 3 1.06 0.17
-6 1 4 32.66 0.87
-6 1 5 99.25 2.18
-6 1 6 156.04 3.47
-6 1 8 3 0.2
-6 1 9 46.05 1.13
-6 1 10 53.35 1.33
-6 1 11 3.9 0.3
-6 1 12 42.34 1.31
-6 1 13 4.94 0.3
-6 1 14 21.74 0.69
-6 1 15 3.62 0.28
-6 1 19 11.39 0.54
-6 1 20 28.81 1.72
-6 1 21 11.11 1.18
-6 1 26 2.18 0.46
-6 1 27 1.98 0.42
-6 2 1 72.03 2.28
-6 2 2 39.72 1.19
-6 2 3 65.68 1.54
-6 2 4 5.37 0.23
-6 2 5 4.31 0.26
-6 2 6 1.01 0.14
-6 2 8 14.59 0.46
-6 2 9 33.18 0.85
-6 2 10 10.17 0.54
-6 2 12 8.81 0.53
-6 2 14 6.56 0.3
-6 2 15 2.82 0.19
-6 2 17 9.5 0.32
-6 2 18 18.82 0.5
-6 2 19 2.37 0.26
-6 2 20 21.28 0.8
-6 2 21 1.61 0.47
-6 2 25 11.88 0.72
-6 3 1 13.52 0.68
-6 3 2 11.85 0.37
-6 3 3 1.3 0.14
-6 3 4 4.88 0.39
-6 3 6 6.32 0.38
-6 3 7 7.9 0.35
-6 3 8 42.59 1.14
-6 3 9 33.3 0.88
-6 3 10 0.51 0.1
-6 3 11 3.99 0.24
-6 3 13 6.61 0.49
-6 3 14 53.36 1.26
-6 3 15 12.65 0.39
-6 3 16 1.6 0.16
-6 3 17 0.9 0.16
-6 3 18 8.46 0.33
-6 3 19 15.53 0.5
-6 3 20 0.95 0.16
-6 3 22 5.25 0.33
-6 3 24 18.14 1.49
-6 3 25 2.07 0.41
-6 4 1 7.84 0.33
-6 4 3 7.04 0.24
-6 4 4 41.29 1.13
-6 4 5 37.11 0.85
-6 4 6 1.88 0.13
-6 4 8 6.71 0.27
-6 4 10 1.96 0.15
-6 4 11 6.9 0.27
-6 4 12 10.9 0.34
-6 4 13 14.44 0.51
-6 4 14 13.33 0.4
-6 4 15 22.67 0.69
-6 4 16 0.63 0.13
-6 4 18 6.34 0.27
-6 4 19 1.13 0.14
-6 4 21 1.3 0.14
-6 4 22 0.56 0.13
-6 4 23 3.71 0.22
-6 5 2 0.7 0.12
-6 5 3 1.24 0.14
-6 5 4 37.51 1.36
-6 5 6 6.61 0.26
-6 5 7 2.93 0.18
-6 5 8 15.9 0.46
-6 5 9 1.33 0.14
-6 5 10 14.99 0.71
-6 5 11 0.54 0.13
-6 5 13 0.57 0.13
-6 5 14 2.37 0.3
-6 5 15 1.56 0.15
-6 5 16 8.14 0.38
-6 5 18 1.41 0.17
-6 5 20 2.39 0.25
-6 5 21 3.54 0.19
-6 6 1 1.87 0.16
-6 6 2 4.6 0.26
-6 6 4 2.56 0.35
-6 6 5 9.79 0.36
-6 6 8 0.5 0.13
-6 6 10 4.86 0.29
-6 6 11 10.15 0.41
-6 6 12 4.89 0.23
-6 6 13 0.75 0.15
-6 6 14 0.99 0.14
-6 6 15 3.59 0.3
-6 6 16 1.94 0.28
-6 6 17 1.04 0.14
-6 7 1 5.49 0.31
-6 7 6 1.32 0.19
-6 7 7 2.34 0.78
-6 7 9 2.39 0.53
-6 7 11 1.25 0.15
-5 0 2 92.39 2.07
-5 0 4 18.91 0.57
-5 0 6 123.02 2.76
-5 0 8 288.79 7.65
-5 0 10 107.23 2.53
-5 0 12 45.88 2.2
-5 0 18 27.25 0.97
-5 0 20 100.04 2.76
-5 1 1 58.84 1.35
-5 1 2 261.12 5.75
-5 1 3 52.84 1.28
-5 1 4 93.49 2.15
-5 1 5 31.96 0.83
-5 1 6 4.27 0.19
-5 1 7 0.84 0.23
-5 1 8 18.02 0.55
-5 1 9 275.17 6.24
-5 1 10 26.38 0.79
-5 1 12 24.94 0.73
-5 1 13 9.27 0.38
-5 1 14 25.78 0.78
-5 1 15 39.13 1.25
-5 1 16 54.15 1.5
-5 1 17 14.93 1.06
-5 1 18 0.66 0.21
-5 1 19 41.76 1.26
-5 2 1 10.03 0.33
-5 2 2 0.61 0.18
-5 2 3 4.32 0.28
-5 2 4 29.99 0.85
-5 2 5 179.3 4.05
-5 2 6 83.45 1.95
-5 2 7 23.99 0.94
-5 2 8 1.97 0.23
-5 2 11 41.75 1.18
-5 2 12 24.61 0.78
-5 2 13 74.06 2.28
-5 2 15 12.14 0.52
-5 2 16 3.54 0.31
-5 2 17 7.42 0.43
-5 2 18 4.32 0.31
-5 2 19 10.65 0.51
-5 2 22 10.42 0.74
-5 2 23 7.78 0.67
-5 2 24 1.72 0.44
-5 3 1 20.35 0.69
-5 3 3 6.11 0.24
-5 3 4 11.71 0.54
-5 3 5 3.53 0.35
-5 3 6 4.52 0.32
-5 3 7 16.94 0.53
-5 3 8 2.26 0.17
-5 3 10 5.85 0.24
-5 3 11 0.49 0.13
-5 3 12 0.66 0.11
-5 3 14 0.69 0.13
-5 3 15 2.2 0.18
-5 3 18 12.76 0.39
-5 3 19 6.13 0.27
-5 3 21 1.01 0.2
-5 3 23 4.21 0.29
-5 3 24 8.74 0.61
-5 4 1 3.54 0.16
-5 4 3 23.86 0.63
-5 4 4 22.89 0.81
-5 4 5 13.56 0.61
-5 4 7 1.07 0.11
-5 4 8 24.07 0.59
-5 4 10 22.51 0.69
-5 4 11 0.35 0.1
-5 4 12 1.81 0.13
-5 4 13 14.87 0.43
-5 4 14 7.31 0.34
-5 4 15 13.34 0.45
-5 4 17 2.44 0.19
-5 4 18 16.47 0.67
-5 4 19 0.5 0.17
-5 4 22 2.67 0.56
-5 4 23 8.88 0.67
-5 4 24 6.31 0.63
-5 5 1 2.58 0.15
-5 5 2 4.08 0.2
-5 5 3 3.24 0.28
-5 5 4 67.09 1.57
-5 5 6 8.55 0.32
-5 5 7 2.61 0.17
-5 5 8 6.15 0.24
-5 5 9 2.72 0.15
-5 5 10 3.59 0.19
-5 5 12 11.95 0.35
-5 5 13 4.68 0.24
-5 5 14 48.47 1.55
-5 5 16 0.64 0.13
-5 5 17 0.64 0.13
-5 5 18 1.5 0.23
-5 5 19 1.14 0.14
-5 5 20 2.5 0.54
-5 5 22 3.19 1.02
-5 6 3 20.42 0.72
-5 6 4 2.69 0.2
-5 6 5 1.68 0.18
-5 6 6 0.88 0.21
-5 6 7 1.78 0.2
-5 6 8 11.85 0.47
-5 6 9 2.52 0.25
-5 6 10 9.86 0.32
-5 6 11 0.7 0.12
-5 6 13 1.52 0.16
-5 6 15 3.96 0.28
-5 6 17 0.8 0.15
-5 6 18 3.53 0.22
-5 7 2 0.77 0.16
-5 7 7 1.98 0.23
-5 7 9 1.98 0.2
-5 7 10 1.68 0.2
-5 7 11 2.31 0.21
-4 0 2 980.94 23.13
-4 0 4 125.59 2.75
-4 0 6 46.5 1.12
-4 0 8 603.3 14.61
-4 0 10 2.32 0.41
-4 0 12 247.28 6.6
-4 0 14 2.23 0.3
-4 0 16 55.41 1.88
-4 0 18 135.14 7.62
-4 1 1 91.03 2.03
-4 1 2 58.09 1.34
-4 1 3 1.65 0.1
-4 1 4 34.95 0.84
-4 1 6 183.5 4.09
-4 1 7 90.72 2.03
-4 1 8 179.25 4
-4 1 9 47.37 1.23
-4 1 11 1.99 0.16
-4 1 12 84.39 1.98
-4 1 13 15.88 0.48
-4 1 14 17.56 0.61
-4 1 16 22.31 0.63
-4 1 17 4.79 0.27
-4 1 18 1.12 0.19
-4 1 19 55.08 1.45
-4 1 20 11.61 0.44
-4 1 21 1.41 0.24
-4 1 22 21.19 0.73
-4 2 1 54.2 1.25
-4 2 2 13.09 0.39
-4 2 3 79.98 1.85
-4 2 4 64.11 1.54
-4 2 5 6.04 0.3
-4 2 6 6.77 0.48
-4 2 7 7.22 0.5
-4 2 8 84.86 2.05
-4 2 9 15.07 0.7
-4 2 10 32.78 0.95
-4 2 11 8.13 0.41
-4 2 12 0.65 0.17
-4 2 13 3.11 0.27
-4 2 14 23 1.25
-4 2 15 33.68 1
-4 2 16 10.01 0.4
-4 2 17 7.45 0.39
-4 2 18 7.66 0.51
-4 2 19 5.73 0.67
-4 2 21 4.1 0.42
-4 2 24 1.84 0.42
-4 2 25 2.69 0.46
-4 2 27 6.81 0.53
-4 3 1 5.07 0.34
-4 3 2 15.48 0.5
-4 3 3 22.8 0.78
-4 3 4 247.82 5.64
-4 3 5 28.82 0.76
-4 3 6 8.2 0.34
-4 3 7 5.6 0.39
-4 3 9 37.36 0.94
-4 3 10 64.74 1.72
-4 3 11 20.68 0.72
-4 3 12 12.04 0.41
-4 3 13 1.09 0.12
-4 3 14 30.82 1.03
-4 3 15 5.73 0.25
-4 3 16 3.92 0.22
-4 3 17 15.32 0.46
-4 3 18 2.51 0.17
-4 3 20 5.55 0.29
-4 3 21 1.04 0.19
-4 4 2 4.94 0.24
-4 4 3 62.76 2.24
-4 4 4 0.98 0.14
-4 4 5 11.88 0.61
-4 4 6 29.29 0.87
-4 4 7 8.92 0.35
-4 4 8 4.36 0.19
-4 4 9 2.05 0.12
-4 4 10 3.1 0.22
-4 4 12 0.44 0.14
-4 4 13 26.63 0.69
-4 4 14 21.93 0.6
-4 4 15 0.69 0.15
-4 4 16 1.69 0.22
-4 4 17 4.81 0.29
-4 4 18 2.14 0.17
-4 4 20 4.55 0.26
-4 4 22 3.49 0.53
-4 4 23 5.55 0.64
-4 5 2 22.23 0.6
-4 5 3 2.39 0.19
-4 5 6 4.87 0.24
-4 5 8 7.74 0.3
-4 5 10 11.74 0.33
-4 5 11 1.23 0.12
-4 5 12 8 0.27
-4 5 13 0.64 0.12
-4 5 14 12.75 0.41
-4 5 17 1.52 0.18
-4 5 18 12.83 0.47
-4 5 22 5.55 0.58
-4 6 2 5.06 0.26
-4 6 3 13.68 0.42
-4 6 4 4.3 0.3
-4 6 5 6.06 0.29
-4 6 6 1.66 0.21
-4 6 7 9.01 0.32
-4 6 8 1.26 0.24
-4 6 11 0.7 0.13
-4 6 12 4.57 0.24
-4 6 13 20.38 0.56
-4 6 14 4.99 0.9
-4 6 16 1.12 0.24
-4 6 18 4.17 0.3
-4 6 19 0.58 0.14
-4 7 2 4.8 0.25
-4 7 3 5.05 0.26
-4 7 4 2.49 0.19
-4 7 6 0.67 0.19
-4 7 7 3.13 0.27
-4 7 8 2.23 0.23
-4 7 9 7.25 0.84
-4 7 11 0.64 0.17
-3 0 2 15.22 0.43
-3 0 4 88.48 1.92
-3 0 6 12.98 0.36
-3 0 8 22.98 0.88
-3 0 10 4.26 0.34
-3 0 12 151.32 4.03
-3 0 14 18.34 0.57
-3 0 16 13.47 0.48
-3 0 18 33.84 0.97
-3 0 20 8.53 0.55
-3 0 22 96.18 3.14
-3 1 1 335.89 7.49
-3 1 2 34.54 0.8
-3 1 3 165.79 3.82
-3 1 4 238 5.57
-3 1 5 218.72 5.45
-3 1 6 0.4 0.07
-3 1 7 363.28 8.1
-3 1 8 9.1 0.33
-3 1 9 63.29 1.47
-3 1 10 4.12 0.2
-3 1 11 163.46 3.81
-3 1 12 53.97 1.32
-3 1 13 0.59 0.12
-3 1 16 32.63 0.86
-3 1 17 60.58 1.61
-3 1 18 39.4 1.01
-3 1 20 2.33 0.21
-3 1 21 7.2 0.4
-3 1 22 1.92 0.27
-3 2 1 85.87 1.94
-3 2 2 184.4 4.15
-3 2 3 304.05 7.15
-3 2 4 27.32 0.94
-3 2 5 2.75 0.27
-3 2 6 146.36 3.44
-3 2 7 177.43 4.17
-3 2 8 302.79 7.03
-3 2 9 53.66 1.37
-3 2 10 11.85 0.45
-3 2 11 23.84 0.73
-3 2 12 1.85 0.21
-3 2 13 54.86 1.62
-3 2 14 0.9 0.29
-3 2 15 29.3 0.92
-3 2 16 14.99 0.57
-3 2 18 42.49 1.42
-3 2 20 3.29 0.38
-3 2 21 11.27 0.8
-3 3 1 3.66 0.43
-3 3 2 261.72 6.75
-3 3 3 3.35 0.42
-3 3 4 45.37 2.19
-3 3 5 21.74 0.6
-3 3 7 3.9 0.25
-3 3 8 18.81 0.56
-3 3 9 4.91 0.3
-3 3 10 21.23 0.58
-3 3 11 1.28 0.23
-3 3 12 42.69 1.63
-3 3 13 9.05 0.39
-3 3 14 68.43 1.91
-3 3 15 1.67 0.15
-3 3 17 1.18 0.14
-3 3 18 3.87 0.21
-3 3 19 9.93 0.36
-3 3 20 3.91 0.28
-3 3 21 6.57 0.32
-3 3 22 10.63 0.77
-3 4 1 21.83 1.11
-3 4 2 10.85 0.46
-3 4 3 61.38 1.4
-3 4 4 29.65 1.45
-3 4 6 25.54 0.96
-3 4 7 16.43 0.64
-3 4 8 0.57 0.12
-3 4 9 0.62 0.12
-3 4 10 38.43 1.18
-3 4 11 3.78 0.18
-3 4 12 2.89 0.16
-3 4 13 32.54 0.94
-3 4 14 6.14 0.26
-3 4 16 3.74 0.25
-3 4 17 10.01 0.48
-3 4 18 3.82 0.27
-3 4 20 9.31 1.08
-3 4 23 7.4 0.68
-3 4 24 3.63 0.56
-3 5 2 2.4 0.14
-3 5 3 4.44 0.21
-3 5 4 9.57 0.31
-3 5 5 1.18 0.13
-3 5 6 35.64 0.96
-3 5 7 3.98 0.19
-3 5 8 0.46 0.11
-3 5 9 4.56 0.21
-3 5 10 3.98 0.34
-3 5 11 1.52 0.13
-3 5 12 13.23 0.41
-3 5 14 1.59 0.19
-3 5 16 17.85 1.09
-3 5 17 1.12 0.31
-3 5 18 1.44 0.23
-3 5 20 2.76 0.2
-3 5 22 1.28 0.38
-3 6 1 9.04 0.3
-3 6 2 2.22 0.19
-3 6 3 1.08 0.15
-3 6 4 1.07 0.15
-3 6 5 0.59 0.14
-3 6 6 0.88 0.15
-3 6 7 0.8 0.16
-3 6 9 4.1 0.28
-3 6 10 2.81 0.26
-3 6 12 3.27 0.32
-3 6 13 1.62 0.17
-3 6 17 7 0.35
-3 7 1 0.76 0.13
-3 7 2 6.24 0.33
-3 7 4 4.46 0.29
-3 7 5 1.81 0.21
-3 7 12 6.7 0.64
-3 7 13 4.4 0.3
-3 7 14 1.07 0.18
-2 0 2 627.88 16.18
-2 0 4 1977.45 67.08
-2 0 6 181.13 4.05
-2 0 8 475.28 10.61
-2 0 10 195.56 5.38
-2 0 12 17.09 0.76
-2 0 14 58.95 1.41
-2 0 16 12.41 0.47
-2 0 18 5.26 0.34
-2 0 20 17.04 0.63
-2 0 22 4.73 1.42
-2 1 1 194.33 4.5
-2 1 2 579.86 13.54
-2 1 3 21.04 0.51
-2 1 4 370.31 8.18
-2 1 5 21.1 0.5
-2 1 6 5.79 0.17
-2 1 7 35.19 0.81
-2 1 8 301.19 6.89
-2 1 9 23.54 0.61
-2 1 10 33.93 0.83
-2 1 11 83.87 1.91
-2 1 12 9.3 0.31
-2 1 13 33.63 0.84
-2 1 14 18.88 0.56
-2 1 15 11.82 0.38
-2 1 16 1 0.12
-2 1 17 31.53 0.8
-2 1 18 8.35 0.3
-2 1 19 1.63 0.26
-2 1 20 1.01 0.17
-2 1 21 56.8 1.54
-2 1 22 11.78 0.64
-2 2 1 155.47 3.44
-2 2 2 489.8 11.01
-2 2 3 9.62 0.29
-2 2 4 23.86 0.62
-2 2 5 3.37 0.17
-2 2 6 72.48 1.71
-2 2 7 35.01 0.92
-2 2 8 29.83 0.81
-2 2 9 16.58 0.49
-2 2 10 92.46 2.27
-2 2 11 14.24 0.47
-2 2 12 110.04 2.62
-2 2 13 31.43 0.95
-2 2 14 13.74 0.46
-2 2 15 2.16 0.18
-2 2 16 39.8 1.05
-2 2 17 55.11 1.41
-2 2 18 29.73 0.95
-2 2 19 8.42 0.37
-2 2 20 7.45 0.48
-2 2 22 9 1.38
-2 3 1 145.46 10.91
-2 3 2 68.9 1.74
-2 3 3 1.71 0.22
-2 3 4 9.51 0.45
-2 3 5 6.52 0.45
-2 3 6 372.49 10.68
-2 3 7 82.61 2.15
-2 3 8 25.54 0.69
-2 3 9 8.3 0.38
-2 3 10 23.61 0.98
-2 3 11 21.66 0.89
-2 3 12 84.95 3.16
-2 3 13 3.6 0.28
-2 3 14 5.07 0.22
-2 3 15 11.25 0.4
-2 3 16 33.59 0.89
-2 3 17 4.59 0.25
-2 3 18 9.65 0.42
-2 3 19 1.32 0.29
-2 3 20 15.36 0.67
-2 4 1 16.98 0.49
-2 4 2 63.08 1.45
-2 4 3 32.73 0.79
-2 4 4 0.67 0.14
-2 4 5 34.37 0.89
-2 4 6 3.82 0.3
-2 4 7 38.99 1.11
-2 4 10 24.4 0.63
-2 4 11 17.68 0.46
-2 4 13 11.07 0.37
-2 4 14 9.1 0.31
-2 4 15 10.49 0.41
-2 4 16 15.05 0.49
-2 4 17 11.3 0.61
-2 4 20 2.96 0.25
-2 4 21 2.24 0.51
-2 4 23 4.05 0.6
-2 4 24 6.7 0.62
-2 5 2 15.6 0.55
-2 5 3 3.24 0.26
-2 5 4 3.48 0.21
-2 5 5 3.81 0.21
-2 5 7 0.41 0.12
-2 5 8 1.12 0.13
-2 5 9 0.98 0.13
-2 5 10 3.15 0.19
-2 5 11 0.56 0.11
-2 5 12 1 0.11
-2 5 13 5.97 0.25
-2 5 14 2.37 0.33
-2 5 16 14.19 0.5
-2 5 19 1.36 0.22
-2 5 20 5.54 0.35
-2 5 21 1.39 0.21
-2 5 22 1.51 0.46
-2 6 1 0.6 0.14
-2 6 3 15.4 0.75
-2 6 5 8.81 0.37
-2 6 7 3.28 0.21
-2 6 8 2.15 0.2
-2 6 9 2.77 0.54
-2 6 11 6.66 0.3
-2 6 12 0.52 0.13
-2 6 14 1.36 0.17
-2 6 15 6.2 0.35
-2 7 1 7.01 0.36
-2 7 6 3.01 0.57
-2 7 7 5.12 0.69
-2 7 8 3.79 0.36
-2 7 10 1.53 0.23
-2 7 11 3.22 0.56
-1 0 2 787.54 17.83
-1 0 4 852.05 19.63
-1 0 6 208.63 4.45
-1 0 8 511.56 11.41
-1 0 10 3.46 0.19
-1 0 12 114.92 2.59
-1 0 14 52.16 1.26
-1 0 16 22.76 0.65
-1 0 18 62.05 1.63
-1 0 20 42.08 1.28
-1 1 1 2828.34 74.8
-1 1 2 157.48 3.55
-1 1 3 357.67 7.74
-1 1 4 260.07 6.53
-1 1 5 1.17 0.08
-1 1 6 0.54 0.07
-1 1 7 439.09 9.79
-1 1 8 97.69 2.21
-1 1 9 178.85 4.03
-1 1 11 76.56 1.75
-1 1 12 90.26 2.06
-1 1 13 5.83 0.22
-1 1 14 46.91 1.13
-1 1 15 10.67 0.35
-1 1 16 6.36 0.25
-1 1 17 1.83 0.14
-1 1 18 15.53 0.53
-1 1 19 9.91 0.41
-1 1 20 2.57 0.42
-1 1 21 13.46 0.68
-1 1 22 12.73 0.65
-1 2 1 145.65 3.25
-1 2 2 8.38 0.27
-1 2 3 178.75 3.88
-1 2 4 241.42 6.72
-1 2 5 510.05 11.57
-1 2 6 19.72 0.58
-1 2 7 1.34 0.22
-1 2 8 47.76 1.16
-1 2 9 8.3 0.26
-1 2 10 189.32 4.27
-1 2 11 75.17 1.76
-1 2 12 34.6 0.9
-1 2 13 13.2 0.39
-1 2 14 1.39 0.15
-1 2 15 12.24 0.45
-1 2 18 5.68 0.27
-1 2 19 4.34 0.29
-1 2 20 47.58 1.45
-1 2 21 1.32 0.35
-1 3 2 33.41 1.03
-1 3 3 13.74 0.53
-1 3 4 58.73 1.53
-1 3 5 1.14 0.2
-1 3 6 110.05 2.66
-1 3 7 1.72 0.21
-1 3 8 6.66 0.27
-1 3 9 1.12 0.15
-1 3 10 32.63 0.87
-1 3 11 42.78 1.22
-1 3 13 1.13 0.17
-1 3 14 26.92 0.7
-1 3 15 5.99 0.28
-1 3 16 118.01 3.03
-1 3 17 11.91 0.36
-1 3 18 1.26 0.19
-1 3 19 4.34 0.25
-1 3 21 12.08 0.83
-1 4 1 6.02 0.26
-1 4 2 10.2 0.39
-1 4 4 0.35 0.09
-1 4 5 62.75 2.19
-1 4 6 84.67 2.85
-1 4 7 31.04 0.84
-1 4 8 7.81 0.65
-1 4 9 1 0.16
-1 4 11 3.1 0.17
-1 4 12 21.02 0.6
-1 4 14 3.73 0.21
-1 4 15 39.88 1.18
-1 4 16 4.94 0.3
-1 4 17 11.78 0.44
-1 4 20 8.71 0.78
-1 4 21 2.48 0.5
-1 5 1 11.03 0.39
-1 5 2 74.68 1.71
-1 5 3 1.23 0.17
-1 5 4 5.28 0.28
-1 5 6 31 0.75
-1 5 7 0.68 0.2
-1 5 8 0.62 0.12
-1 5 9 7.09 0.29
-1 5 10 15.3 0.46
-1 5 11 1.34 0.13
-1 5 12 14.56 0.41
-1 5 14 1.72 0.18
-1 5 15 1.07 0.16
-1 6 1 2.02 0.53
-1 6 2 7.84 0.36
-1 6 4 1.55 0.5
-1 6 6 9.49 1.71
-1 6 7 9.03 0.78
-1 6 8 2.46 0.24
-1 6 10 0.43 0.13
-1 6 13 3.4 0.21
-1 6 15 5.11 0.29
-1 6 16 0.47 0.14
-1 6 19 2.06 0.22
-1 7 3 3.62 0.61
-1 7 4 4.08 0.66
-1 7 6 4.46 0.64
-1 7 11 5.79 0.65
-1 7 14 3.94 0.36
0 0 2 144.71 3.09
0 0 4 71.42 1.57
0 0 6 1043.66 24.03
0 0 8 297.81 7.75
0 0 10 422.64 9.51
0 0 12 14.95 0.44
0 0 14 55.09 1.47
0 0 16 10.14 0.52
0 0 20 9.6 0.53
0 0 22 17.24 1.39
0 1 1 462.06 9.76
0 1 2 91.97 2.22
0 1 3 18.51 0.49
0 1 4 1536.03 35.24
0 1 5 74.06 1.64
0 1 6 321.08 7.13
0 1 7 37.63 0.88
0 1 8 28.05 0.66
0 1 9 38.9 0.9
0 1 10 153.34 3.43
0 1 11 215.33 4.83
0 1 13 26.95 0.72
0 1 14 9.24 0.29
0 1 15 3.55 0.2
0 1 16 3.85 0.24
0 1 17 21.22 0.57
0 1 18 25.58 0.72
0 1 19 50.37 1.3
0 1 20 3.32 0.33
0 1 21 16.47 0.58
0 1 22 3.57 0.38
0 2 0 13.96 0.41
0 2 1 76.73 1.87
0 2 2 132.35 3.03
0 2 4 187.59 4.12
0 2 5 50.42 1.19
0 2 6 5.5 0.23
0 2 7 143.69 3.22
0 2 8 0.34 0.08
0 2 9 57.02 1.46
0 2 10 26.99 0.67
0 2 11 1.54 0.12
0 2 12 17.79 0.49
0 2 13 10.09 0.33
0 2 14 58.33 1.42
0 2 15 97.09 2.36
0 2 16 2.76 0.16
0 2 18 11.85 0.48
0 2 19 12.44 0.57
0 2 20 24.51 0.81
0 2 21 12.88 1.99
0 3 1 52.8 1.32
0 3 2 119.15 3.01
0 3 3 85.52 1.84
0 3 4 57.56 1.48
0 3 5 16.61 0.49
0 3 7 0.91 0.11
0 3 8 98.69 2.32
0 3 9 41.62 1
0 3 10 1.19 0.12
0 3 11 1.64 0.15
0 3 12 6.83 0.34
0 3 14 28.19 0.68
0 3 16 1.17 0.12
0 3 17 5.47 0.27
0 3 18 4.81 0.27
0 3 20 12.82 0.44
0 4 0 2.35 0.25
0 4 1 12.68 0.39
0 4 2 59.03 1.35
0 4 3 4.01 0.21
0 4 4 11.73 0.41
0 4 5 78.21 1.89
0 4 6 5.92 0.29
0 4 8 5.81 0.3
0 4 9 6.38 0.27
0 4 10 16.28 0.48
0 4 11 0.67 0.2
0 4 12 24.19 0.6
0 4 13 6.21 0.25
0 4 15 27.06 0.9
0 4 16 17.84 0.47
0 4 17 0.62 0.14
0 4 18 2.06 0.17
0 4 19 3.21 0.78
0 4 20 4.46 0.89
0 5 2 7.75 0.43
0 5 3 1.17 0.17
0 5 4 24.7 1.06
0 5 5 3.53 0.49
0 5 6 73.87 1.64
0 5 8 7.06 0.31
0 5 11 4.05 0.27
0 5 12 8.04 0.29
0 5 13 1.19 0.14
0 5 14 14.72 0.45
0 5 15 1.84 0.2
0 5 16 25.11 0.65
0 5 18 1.02 0.24
0 5 19 1.91 0.23
0 5 20 3.07 0.36
0 5 22 3.29 0.51
0 6 0 18.4 1
0 6 1 7.01 0.34
0 6 2 9.26 0.54
0 6 3 4.06 0.3
0 6 4 0.67 0.18
0 6 5 28.41 0.75
0 6 8 1.17 0.16
0 6 10 12.32 0.37
0 6 11 1.28 0.16
0 6 12 4.63 0.26
0 6 13 5.3 0.25
0 6 14 0.56 0.16
0 6 15 2.17 0.19
0 6 16 2.08 0.42
0 7 1 8.6 1.17
0 7 8 0.91 0.21
0 7 9 7.2 0.37
0 7 10 1.58 0.3
0 7 14 0.86 0.2
1 0 0 393.04 8.48
1 0 2 10.6 0.33
1 0 4 1783.53 56.22
1 0 6 230.57 5.42
1 0 8 71.99 1.62
1 0 10 703.29 16.32
1 0 12 6.5 0.26
1 0 14 88.04 2.1
1 0 16 12.31 1.02
1 0 18 88.31 2.3
1 0 20 87.91 2.66
1 1 0 1612.87 36.98
1 1 1 39.26 0.94
1 1 2 446.82 10.3
1 1 3 818.67 18.68
1 1 4 68.78 1.58
1 1 5 116.4 2.66
1 1 6 218.89 4.88
1 1 7 18.99 0.48
1 1 8 95.18 2.13
1 1 9 197.05 4.4
1 1 10 76.45 1.73
1 1 12 2.17 0.13
1 1 13 7.13 0.24
1 1 14 131.18 3.19
1 1 15 4.26 0.23
1 1 16 24.33 0.68
1 1 17 3.71 0.22
1 1 18 4.22 0.25
1 1 19 11.71 0.57
1 1 20 5.08 0.39
1 1 21 10.19 0.48
1 2 0 333.63 7.64
1 2 1 274.86 6.12
1 2 3 365.49 8.17
1 2 4 19.45 0.48
1 2 5 92.69 2.1
1 2 6 165.49 3.69
1 2 7 81.96 1.85
1 2 8 5.94 0.22
1 2 9 7.46 0.31
1 2 10 4.87 0.25
1 2 11 9.12 0.33
1 2 12 15.12 0.42
1 2 13 28.43 0.79
1 2 14 7.13 0.27
1 2 15 0.81 0.15
1 2 16 6.11 0.25
1 2 17 4.21 0.36
1 2 18 0.4 0.13
1 2 19 6.79 0.3
1 3 0 19.43 0.7
1 3 1 32.31 0.78
1 3 2 47.45 1.11
1 3 4 8.34 0.29
1 3 5 21.13 0.56
1 3 6 44.94 1.21
1 3 7 19.37 0.5
1 3 8 25.4 0.65
1 3 9 10.36 0.31
1 3 10 0.79 0.11
1 3 11 15.52 0.51
1 3 12 34.7 0.85
1 3 13 29.03 0.69
1 3 14 15.45 0.53
1 3 15 1.01 0.15
1 3 17 1.61 0.19
1 3 18 35.53 0.94
1 3 19 15.61 0.74
1 4 0 18.61 0.51
1 4 1 0.73 0.12
1 4 2 57.54 1.33
1 4 3 15.28 0.44
1 4 4 2.98 0.27
1 4 5 52.92 1.34
1 4 6 8.56 0.4
1 4 7 1.49 0.19
1 4 8 59.51 1.38
1 4 9 12.22 0.39
1 4 11 1.31 0.11
1 4 12 1.7 0.13
1 4 13 8 0.27
1 4 14 1.79 0.14
1 4 15 19.22 0.54
1 4 16 13.55 0.39
1 4 17 3.71 0.2
1 4 18 0.79 0.22
1 4 19 4.3 0.41
1 4 22 7.77 0.68
1 5 0 4.69 0.33
1 5 2 13.12 0.44
1 5 3 0.56 0.13
1 5 4 90.2 2.34
1 5 5 4.39 0.24
1 5 7 0.9 0.18
1 5 8 8.2 0.27
1 5 9 0.75 0.11
1 5 10 2.58 0.2
1 5 11 0.85 0.16
1 5 12 23.25 0.57
1 5 14 21.18 0.55
1 5 16 7.33 0.4
1 5 20 1.48 0.46
1 6 0 6.26 0.34
1 6 1 7.07 0.35
1 6 2 2.71 0.24
1 6 4 5.83 0.34
1 6 5 12.35 0.43
1 6 6 4.33 0.25
1 6 8 12.57 0.43
1 6 9 12.38 0.39
1 6 10 6.82 0.28
1 6 13 2.54 0.2
1 6 15 12.32 0.41
1 6 16 1.27 0.18
1 6 17 2.01 0.3
1 6 18 2.57 0.59
1 7 0 2.21 0.25
1 7 1 1.98 0.24
1 7 2 0.88 0.2
1 7 4 1.6 0.52
1 7 5 4.07 0.65
1 7 9 4.71 0.54
1 7 11 2.72 0.2
1 7 13 2.5 0.28
2 0 0 25.09 0.83
2 0 2 3372.85 81.07
2 0 4 8.41 0.23
2 0 6 4.39 0.2
2 0 8 107.21 2.54
2 0 10 35.32 0.89
2 0 12 79.33 1.94
2 0 14 103.19 2.59
2 0 16 34.65 0.99
2 0 18 4.81 1.01
2 0 20 19.04 1.07
2 1 0 382.94 8.47
2 1 1 69.94 1.59
2 1 2 2.7 0.13
2 1 3 478.24 10.73
2 1 4 9.47 0.27
2 1 5 20.57 0.55
2 1 6 429.55 9.62
2 1 7 31.59 0.74
2 1 8 48.6 1.12
2 1 9 185.08 4.14
2 1 10 45.79 1.07
2 1 11 1.83 0.14
2 1 12 24.64 0.87
2 1 13 124.9 3.18
2 1 14 3.39 0.2
2 1 15 5.15 0.3
2 1 16 0.36 0.11
2 1 17 4.75 0.25
2 1 18 21.97 0.77
2 1 19 33.65 0.95
2 1 20 25.84 0.87
2 2 0 536.71 12.21
2 2 1 1.61 0.1
2 2 2 3 0.13
2 2 3 17.55 0.46
2 2 4 0.99 0.1
2 2 5 155.45 3.48
2 2 6 10.66 0.34
2 2 7 57.91 1.36
2 2 8 56.73 1.35
2 2 9 79.54 1.82
2 2 10 77.09 1.89
2 2 11 32.08 0.82
2 2 12 0.34 0.11
2 2 13 36.42 0.92
2 2 14 1.83 0.13
2 2 15 13.06 0.36
2 2 16 13.63 0.44
2 2 17 45.59 1.24
2 2 18 2.11 0.2
2 2 20 2.08 0.24
2 3 0 13.93 1.16
2 3 1 30.24 0.87
2 3 2 92.52 2.11
2 3 3 4.96 0.44
2 3 4 221.83 5.01
2 3 5 7.72 0.26
2 3 6 2.58 0.15
2 3 7 29.11 0.72
2 3 8 1.84 0.14
2 3 9 1.55 0.14
2 3 10 2.35 0.15
2 3 12 3.99 0.17
2 3 14 8.78 0.28
2 3 15 4.88 0.22
2 3 16 3.88 0.24
2 3 18 1.43 0.16
2 3 21 1.88 0.55
2 4 0 13.69 0.76
2 4 2 2.45 0.24
2 4 3 56.56 1.36
2 4 4 55.59 1.28
2 4 5 19.68 0.55
2 4 6 3.81 0.22
2 4 7 19.12 0.51
2 4 8 5.26 0.22
2 4 9 6.55 0.21
2 4 10 1.66 0.11
2 4 11 0.39 0.09
2 4 12 35.64 0.82
2 4 13 11.58 0.44
2 4 14 7.85 0.3
2 4 15 6.12 0.25
2 4 17 6.69 0.28
2 4 18 12.1 0.52
2 4 19 4.4 0.31
2 4 22 2.75 0.45
2 5 0 11.82 0.5
2 5 1 3.87 0.19
2 5 2 1.71 0.16
2 5 3 1.21 0.11
2 5 4 3.08 0.16
2 5 5 1.18 0.15
2 5 6 1.95 0.14
2 5 8 73.04 1.73
2 5 9 6.2 0.28
2 5 10 3.67 0.18
2 5 12 0.93 0.12
2 5 13 1.56 0.14
2 5 14 19.13 0.65
2 5 15 1.2 0.15
2 5 16 7.26 0.39
2 5 18 16.98 0.66
2 5 19 0.79 0.17
2 6 0 0.96 0.16
2 6 1 0.73 0.13
2 6 2 7.34 0.29
2 6 3 13.24 0.36
2 6 4 7.37 0.33
2 6 7 5.3 0.23
2 6 8 0.82 0.12
2 6 9 0.53 0.13
2 6 11 3.25 0.3
2 6 12 8.56 0.33
2 6 13 0.93 0.13
2 6 14 4.65 0.24
2 6 16 0.94 0.17
2 7 0 1.33 0.22
2 7 1 2.17 0.24
2 7 3 2.2 0.53
2 7 4 4.86 0.43
2 7 6 2.21 0.2
2 7 7 3.31 0.32
2 7 13 0.73 0.18
3 0 0 401.5 8.93
3 0 2 189.95 4.53
3 0 4 21.05 0.64
3 0 6 588.54 13.44
3 0 8 10.58 0.37
3 0 10 1.09 0.15
3 0 12 287.86 6.83
3 0 14 3.68 0.77
3 0 16 11.8 0.56
3 0 18 9.43 0.95
3 0 20 35.82 1.2
3 1 0 112.03 2.69
3 1 1 443.1 11.05
3 1 2 455.04 10.22
3 1 3 41.81 1.01
3 1 4 12.19 0.31
3 1 5 5.24 0.16
3 1 6 4.8 0.18
3 1 7 29.84 0.72
3 1 8 39.72 0.94
3 1 9 1.45 0.12
3 1 10 88.26 2.02
3 1 11 14.49 0.48
3 1 12 11.77 0.38
3 1 13 38.46 0.98
3 1 14 0.5 0.11
3 1 15 3.42 0.19
3 1 16 57.84 1.46
3 1 17 1.47 0.16
3 1 18 2.88 0.32
3 1 19 8 0.54
3 2 0 1.98 0.11
3 2 1 7.96 0.25
3 2 2 284.4 6.37
3 2 3 106.5 2.41
3 2 4 93.44 2.13
3 2 5 62.4 1.46
3 2 6 45.24 1.07
3 2 7 3.91 0.18
3 2 8 103.88 2.35
3 2 9 2.37 0.14
3 2 10 11.26 0.36
3 2 11 9.2 0.34
3 2 12 23.06 0.66
3 2 13 3.08 0.17
3 2 14 8.02 0.27
3 2 15 1.41 0.15
3 2 16 1.92 0.19
3 2 17 7.16 0.44
3 2 18 21.85 1.24
3 2 19 13.16 0.65
3 2 20 8.24 0.87
3 3 0 70.71 2.01
3 3 1 1.84 0.35
3 3 2 20.43 0.56
3 3 3 99.96 2.33
3 3 4 109.14 2.63
3 3 6 21.09 0.56
3 3 7 1.99 0.15
3 3 8 113.83 2.6
3 3 9 35.83 0.89
3 3 11 15.66 0.42
3 3 12 33.23 0.78
3 3 13 12.85 0.36
3 3 14 49.63 1.61
3 3 15 4.6 0.3
3 3 16 8.46 0.31
3 3 17 7.67 0.29
3 3 18 2.54 0.24
3 4 0 6.84 0.29
3 4 2 2.2 0.29
3 4 3 19.16 0.52
3 4 4 37.88 0.93
3 4 5 0.33 0.11
3 4 7 55.48 1.25
3 4 8 20.63 0.51
3 4 9 10.4 0.3
3 4 10 10.84 0.36
3 4 12 1.96 0.13
3 4 13 13.51 0.51
3 4 14 3.26 0.18
3 4 16 2.6 0.17
3 4 17 17.83 0.55
3 4 18 10.27 0.61
3 5 0 17 0.8
3 5 1 9.41 0.28
3 5 2 3.07 0.16
3 5 5 2.05 0.15
3 5 6 16.15 0.43
3 5 7 4.7 0.22
3 5 8 1.62 0.13
3 5 9 0.34 0.11
3 5 12 1.57 0.16
3 5 14 1.73 0.16
3 5 15 2.07 0.17
3 5 16 4.54 0.23
3 5 18 15.35 0.52
3 5 19 0.64 0.2
3 6 1 0.96 0.13
3 6 2 1.42 0.13
3 6 3 0.55 0.12
3 6 4 1.19 0.16
3 6 5 3.95 0.29
3 6 6 0.74 0.13
3 6 7 14.75 0.56
3 6 9 0.66 0.12
3 6 10 2.21 0.16
3 6 11 2.36 0.21
3 6 12 2.87 0.17
3 6 13 4.44 0.26
3 6 15 0.85 0.14
3 6 17 5.14 0.56
3 7 0 1.6 0.17
3 7 2 3.87 0.24
3 7 3 5.05 0.26
3 7 8 0.99 0.19
3 7 9 1.93 0.21
3 7 10 1.28 0.14
3 7 11 2.45 0.19
3 7 12 0.74 0.16
4 0 0 43.32 1.55
4 0 4 38.05 0.98
4 0 6 13.35 0.44
4 0 8 0.9 0.13
4 0 10 4.96 0.3
4 0 12 3.07 0.3
4 0 16 48.47 1.69
4 1 0 2.48 0.12
4 1 1 154.24 3.42
4 1 2 189.41 4.22
4 1 3 212.96 4.95
4 1 4 3.09 0.14
4 1 5 91.44 2.05
4 1 6 41.35 1.06
4 1 7 8.51 0.27
4 1 8 28.74 0.71
4 1 9 20.22 0.53
4 1 11 133.35 3.02
4 1 12 11.39 0.4
4 1 13 6.47 0.3
4 1 14 2.56 0.17
4 1 15 9.5 0.34
4 1 16 3.31 0.21
4 1 17 8.53 0.88
4 2 0 121.31 2.73
4 2 1 76.37 1.73
4 2 2 299.35 6.68
4 2 3 55.76 1.42
4 2 4 14.92 0.49
4 2 5 0.6 0.09
4 2 6 7.07 0.26
4 2 7 154.82 3.95
4 2 8 0.72 0.12
4 2 9 14.47 0.41
4 2 10 41.49 1
4 2 11 1.24 0.15
4 2 12 101.46 2.53
4 2 13 27.39 0.67
4 2 14 11.42 0.47
4 2 15 26.94 0.94
4 2 16 2.09 0.2
4 2 17 5.45 0.5
4 2 18 5.59 0.46
4 2 19 2.29 0.55
4 3 0 5.96 0.32
4 3 1 37.01 0.87
4 3 2 1.08 0.11
4 3 3 1.57 0.13
4 3 4 49.8 1.15
4 3 5 3.79 0.18
4 3 6 107.44 2.41
4 3 8 53.38 1.32
4 3 9 5.79 0.2
4 3 10 10.02 0.29
4 3 11 0.42 0.09
4 3 13 13.51 0.38
4 3 16 24.32 0.63
4 3 17 3.04 0.22
4 3 18 33.13 3.31
4 3 19 2.46 0.52
4 4 0 70.33 1.59
4 4 1 0.67 0.15
4 4 2 0.6 0.15
4 4 3 3.1 0.19
4 4 4 1.6 0.12
4 4 5 20.92 0.5
4 4 6 13.83 0.52
4 4 7 40.68 0.94
4 4 8 21.05 0.59
4 4 9 0.74 0.11
4 4 10 1.41 0.12
4 4 11 0.55 0.1
4 4 13 0.52 0.11
4 4 14 22.13 0.68
4 4 15 5.27 0.36
4 4 17 19.63 0.54
4 4 20 1.67 0.35
4 5 1 2.48 0.16
4 5 2 0.87 0.11
4 5 3 3.39 0.21
4 5 4 22.97 0.91
4 5 5 2.1 0.15
4 5 6 9.73 0.34
4 5 8 1.89 0.13
4 5 10 15.77 0.43
4 5 11 8.38 0.29
4 5 12 1.84 0.15
4 5 16 8.43 0.3
4 5 17 1.28 0.16
4 6 0 0.94 0.14
4 6 1 3.97 0.22
4 6 2 0.6 0.12
4 6 3 0.54 0.12
4 6 5 2.55 0.19
4 6 7 0.71 0.12
4 6 8 2.06 0.19
4 6 9 2.13 0.15
4 6 14 1.35 0.26
4 7 1 5.26 0.26
4 7 2 0.9 0.18
4 7 5 0.64 0.16
4 7 6 6.73 0.34
4 7 7 0.79 0.16
4 7 8 3.46 0.23
5 0 0 61.42 1.85
5 0 2 680.86 15.81
5 0 4 12.61 0.44
5 0 6 6.86 0.28
5 0 8 144.2 3.14
5 0 10 72.83 2.01
5 0 12 16.55 0.63
5 0 14 15.74 0.56
5 0 16 15.43 0.86
5 1 0 0.58 0.08
5 1 1 110.55 2.46
5 1 2 59.16 1.5
5 1 3 1.89 0.14
5 1 4 39.43 0.95
5 1 5 1.25 0.09
5 1 6 82.71 2.14
5 1 7 5.14 0.24
5 1 8 1.25 0.14
5 1 9 1.97 0.15
5 1 11 29.19 0.83
5 1 12 55.17 1.28
5 1 13 16.36 0.56
5 1 15 17.95 0.61
5 2 0 24.92 0.61
5 2 1 25.54 0.85
5 2 2 3.71 0.18
5 2 3 25.12 0.63
5 2 4 61.18 1.51
5 2 5 14.38 0.49
5 2 6 49.36 1.28
5 2 7 4.24 0.23
5 2 8 14.58 0.45
5 2 9 10.95 0.48
5 2 10 40.91 0.94
5 2 11 11.07 0.42
5 2 12 21.82 0.63
5 2 14 6.08 0.33
5 2 16 12.21 0.57
5 2 17 26.41 1.1
5 2 18 3.08 0.57
5 2 19 3.08 0.58
5 3 0 125.03 3.03
5 3 1 27.54 0.84
5 3 2 5.78 0.25
5 3 3 4.43 0.22
5 3 4 3.9 0.31
5 3 5 41.21 1.02
5 3 6 91.04 2.02
5 3 7 4.72 0.27
5 3 8 3.19 0.16
5 3 10 38.35 0.88
5 3 11 21.66 0.54
5 3 12 0.78 0.11
5 3 13 4.64 0.23
5 3 14 29.77 0.76
5 3 15 0.89 0.23
5 3 16 34.76 1.98
5 3 19 4.7 0.7
5 4 0 8.83 0.31
5 4 1 4.25 0.19
5 4 3 1.33 0.11
5 4 4 25.85 0.63
5 4 5 19.16 0.48
5 4 6 8.66 0.28
5 4 7 18.95 0.5
5 4 9 7.48 0.39
5 4 10 16.59 0.66
5 4 11 2.94 0.17
5 4 12 0.7 0.11
5 4 14 2.57 0.18
5 4 15 13.32 0.4
5 4 16 1.48 0.18
5 4 17 5.24 0.93
5 4 18 7.94 0.38
5 5 0 5.12 0.21
5 5 2 5.08 0.23
5 5 3 1.25 0.12
5 5 4 3.44 0.17
5 5 6 6.59 0.32
5 5 7 1.49 0.15
5 5 8 7.59 0.38
5 5 9 0.4 0.12
5 5 14 2.91 0.19
5 5 15 1.15 0.15
5 5 16 2.9 0.21
5 6 0 7.47 0.42
5 6 1 5.02 0.22
5 6 2 4.44 0.21
5 6 3 2.24 0.16
5 6 4 1.56 0.19
5 6 5 7.9 0.39
5 6 6 3.11 0.23
5 6 7 11.88 0.35
5 6 8 1.11 0.15
5 6 9 2.36 0.18
5 6 12 0.61 0.19
5 7 0 2.04 0.19
5 7 1 8.45 0.36
5 7 2 1.84 0.22
5 7 3 1.92 0.39
5 7 4 1.02 0.19
5 7 5 0.81 0.16
5 7 7 0.89 0.16
6 0 0 237.55 7.04
6 0 2 29.45 1.12
6 0 4 1.61 0.15
6 0 6 45.56 1.12
6 0 8 16.02 0.43
6 0 10 34.81 1.01
6 0 12 91.4 2.86
6 0 14 4.28 0.4
6 1 0 0.57 0.12
6 1 1 189.79 4.63
6 1 2 62.29 1.4
6 1 3 23.19 0.65
6 1 4 56.56 1.42
6 1 5 60.51 1.49
6 1 6 21.69 0.58
6 1 7 12.47 0.48
6 1 8 42.83 1.27
6 1 9 36.29 0.92
6 1 11 33.07 0.84
6 1 12 0.5 0.16
6 1 13 13.67 0.98
6 1 15 2.25 0.21
6 1 16 26.3 1.96
6 2 1 9.24 0.29
6 2 3 13.73 0.53
6 2 4 48.73 1.17
6 2 5 98.25 2.77
6 2 6 2.35 0.19
6 2 7 1.14 0.14
6 2 8 4.78 0.5
6 2 9 34.89 0.82
6 2 10 1.62 0.15
6 2 11 5.72 0.33
6 2 12 3.49 0.25
6 2 13 6.76 0.39
6 2 14 32.98 1.12
6 2 15 16.27 0.84
6 2 16 8.21 0.79
6 3 2 0.47 0.14
6 3 3 0.9 0.24
6 3 7 4.86 0.24
6 3 8 6.12 0.22
6 3 9 3.17 0.23
6 3 10 33.08 0.78
6 3 11 1.56 0.17
6 3 12 1.17 0.14
6 3 13 0.61 0.19
6 3 15 13.05 1.14
6 3 16 6.23 0.38
6 3 18 9.1 0.76
6 4 0 16.33 0.44
6 4 2 26.21 0.69
6 4 4 6.17 0.23
6 4 5 14.52 0.5
6 4 6 0.72 0.11
6 4 7 2.09 0.14
6 4 9 8.06 0.34
6 4 10 18.95 0.51
6 4 11 1.92 0.15
6 4 14 3.24 0.26
6 4 15 4.77 0.27
6 4 16 3.8 0.35
6 5 0 27.03 0.66
6 5 1 4.25 0.21
6 5 3 0.83 0.16
6 5 4 15.93 0.45
6 5 6 48.96 1.13
6 5 7 3.19 0.28
6 5 8 0.61 0.14
6 5 9 1.48 0.14
6 5 12 0.62 0.13
6 5 13 1.59 0.16
6 5 14 8.45 0.39
6 5 16 3.63 0.27
6 6 0 11.82 0.35
6 6 1 2.48 0.28
6 6 2 5.05 0.25
6 6 3 5.5 0.38
6 6 5 1.3 0.22
6 6 7 2.04 0.15
6 6 8 0.81 0.14
6 6 9 0.54 0.14
6 6 10 7.17 0.27
6 6 11 4.88 0.23
6 6 12 1.34 0.14
6 7 0 1.96 0.21
6 7 1 0.7 0.19
6 7 2 0.57 0.19
6 7 7 1.61 0.26
7 0 0 112.03 2.7
7 0 2 37.25 1.16
7 0 4 267.88 22.48
7 0 8 44.25 1.13
7 0 10 58.71 2.18
7 0 12 16.35 1.25
7 0 14 11.36 1.12
7 1 0 85.3 1.89
7 1 1 1.08 0.1
7 1 3 7.75 0.25
7 1 4 35.09 0.84
7 1 5 41.96 1.04
7 1 6 1 0.12
7 1 7 1.35 0.16
7 1 8 46.57 1.15
7 1 10 3.42 0.25
7 1 11 16.2 1.27
7 1 12 14.62 1.1
7 1 13 15.13 0.68
7 1 14 23.48 1.72
7 2 0 37.09 0.96
7 2 1 11.2 0.52
7 2 2 7.03 0.25
7 2 3 5.11 0.26
7 2 5 0.88 0.14
7 2 6 5.63 0.27
7 2 7 3.35 0.27
7 2 8 7.33 0.41
7 2 9 21.14 0.56
7 2 10 1.03 0.18
7 2 11 10.53 0.43
7 2 13 4.13 0.61
7 2 14 6.57 0.73
7 2 15 12.04 0.82
7 2 16 1.46 0.48
7 3 0 0.62 0.09
7 3 1 28.92 0.76
7 3 2 22.4 0.72
7 3 3 15.4 0.61
7 3 4 14.59 0.39
7 3 5 1.15 0.13
7 3 6 6.84 0.34
7 3 7 3.14 0.18
7 3 8 12.54 0.38
7 3 9 9.91 0.57
7 3 10 2.06 0.23
7 3 12 3.68 0.29
7 3 13 1.41 0.46
7 3 16 2.09 0.34
7 3 18 3.7 0.63
7 4 0 10.12 0.32
7 4 1 1.61 0.18
7 4 2 1.86 0.15
7 4 3 1.16 0.13
7 4 4 2.64 0.24
7 4 5 21.3 0.56
7 4 6 31.49 0.9
7 4 9 10.82 0.42
7 4 12 4.96 0.26
7 4 13 0.56 0.18
7 4 14 7.35 0.39
7 4 15 3.43 0.64
7 4 16 1.42 0.2
7 5 0 13.77 0.4
7 5 2 13.5 0.45
7 5 3 1.6 0.16
7 5 4 2.47 0.39
7 5 6 0.96 0.2
7 5 8 3.82 0.22
7 5 10 21.89 0.56
7 5 11 1.47 0.16
7 5 12 1.35 0.15
7 5 14 2.93 0.45
7 6 0 0.96 0.15
7 6 2 2.18 0.38
7 6 4 4.04 0.25
7 6 5 4.1 0.21
7 6 6 3.48 0.21
7 6 7 3.4 0.28
7 6 8 3.05 0.22
7 6 9 5.02 0.24
7 6 10 2.1 0.18
7 7 1 0.69 0.18
7 7 3 4.71 0.28
8 0 0 28.52 1.45
8 0 2 15.87 1.11
8 0 4 67.53 2.28
8 0 6 4.62 0.52
8 0 8 28.77 0.94
8 1 1 0.5 0.11
8 1 2 2.39 0.15
8 1 3 84.18 1.89
8 1 4 33.92 0.82
8 1 6 4.23 0.22
8 1 8 18.5 0.58
8 1 9 8.92 0.35
8 1 10 18.47 0.63
8 1 11 5.76 0.44
8 1 12 4.44 0.89
8 2 0 42.55 1.16
8 2 1 21.85 0.63
8 2 3 5.16 0.27
8 2 4 14.49 0.43
8 2 5 8.04 0.32
8 2 7 35.55 0.89
8 2 8 3.74 0.27
8 2 10 14.99 0.53
8 3 0 17.78 0.48
8 3 2 10.15 0.49
8 3 3 0.67 0.17
8 3 4 11.16 0.53
8 3 5 18.25 0.5
8 3 6 13.62 0.45
8 3 8 3.33 0.19
8 3 10 2.52 0.39
8 3 11 6.02 0.36
8 3 12 2.6 0.23
8 3 13 6.4 0.69
8 3 14 5.6 0.34
8 3 16 2.37 0.48
8 4 1 2.52 0.28
8 4 2 14.67 0.44
8 4 3 2.62 0.19
8 4 4 2.53 0.17
8 4 5 2.7 0.18
8 4 6 4.05 0.3
8 4 7 4.45 0.32
8 4 9 13.73 0.5
8 4 10 6.39 0.52
8 4 12 6.29 0.35
8 4 15 2.09 0.21
8 5 0 1.23 0.2
8 5 2 6.53 0.55
8 5 3 4.39 0.27
8 5 4 0.99 0.15
8 5 6 6.9 0.4
8 5 7 1.87 0.21
8 5 8 22.23 0.59
8 5 9 2.72 0.2
8 5 10 1.02 0.15
8 6 2 4.91 0.3
8 6 3 1.47 0.18
8 6 4 2.96 0.19
9 0 0 17.48 0.6
9 0 2 46.94 1.18
9 0 4 4.58 0.27
9 0 6 25.88 0.8
9 1 0 33.45 0.82
9 1 2 4.53 0.28
9 1 3 27.18 0.72
9 1 4 2.05 0.22
9 1 5 5.75 0.34
9 1 6 7.47 0.35
9 1 7 13.36 0.92
9 1 8 1.26 0.24
9 1 9 2.09 0.2
9 1 10 8.82 0.77
9 2 0 1.94 0.18
9 2 1 3.67 0.23
9 2 2 36.26 1.31
9 2 3 5.42 0.32
9 2 4 36.47 1.04
9 2 5 3.4 0.26
9 2 6 3.1 0.26
9 2 7 1.75 0.26
9 2 8 1.72 0.24
9 2 9 16.15 0.98
9 2 10 2.11 0.51
9 3 0 1.82 0.52
9 3 1 6.03 0.36
9 3 2 2.02 0.53
9 3 3 15.25 0.55
9 3 4 6.48 1.1
9 3 5 1.48 0.35
9 3 6 16.84 0.59
9 3 8 14.66 0.75
9 3 10 3.58 0.3
9 3 11 4.09 0.59
9 4 1 2.33 0.17
9 4 2 13.53 0.4
9 4 6 4.95 0.28
9 4 7 20.34 1.23
9 4 8 13.43 1.71
9 4 9 5.75 0.36
9 4 10 1.22 0.22
9 5 1 0.9 0.15
9 5 2 4.41 0.23
9 5 3 1.88 0.17
9 5 4 1.1 0.15
9 5 5 0.98 0.25
9 5 8 5.02 0.28
9 6 1 1.24 0.2
9 6 3 1.2 0.14
10 0 0 7.78 0.51
10 0 2 3.12 0.19
10 0 4 13.66 0.58
10 0 6 15.86 0.97
10 1 0 9.89 0.31
10 1 1 32.62 0.83
10 1 3 8.63 0.39
10 1 4 9.62 0.68
10 1 5 4.1 0.31
10 1 6 7.82 0.34
10 1 8 1.27 0.32
10 1 10 5.16 0.63
10 2 0 9.91 0.41
10 2 1 1.69 0.3
10 2 2 29.38 0.82
10 2 3 8.87 0.44
10 2 4 1.35 0.25
10 2 5 10.47 1.12
10 2 6 8 0.52
10 2 7 3.8 0.31
10 2 8 3.02 0.56
10 2 10 6.98 0.67
10 3 0 0.87 0.23
10 3 2 20.1 1
10 3 3 4.14 0.94
10 3 4 2.77 0.45
10 3 6 13.4 1.57
10 3 7 11.81 0.91
10 3 8 24.25 1
10 4 0 2.77 0.52
10 4 1 4.32 0.96
10 4 3 1.44 0.43
10 4 5 1.03 0.27
10 4 7 6.96 0.81
10 5 0 2.32 0.19
10 5 1 2.47 0.23
10 5 5 0.82 0.24
10 5 6 1.11 0.21
11 0 0 34.38 0.88
11 0 2 25.13 0.68
11 0 6 2.43 0.56
11 1 1 4.35 0.27
11 1 2 8.23 0.43
11 1 3 11.73 0.5
11 1 4 1.8 0.19
11 1 5 12.26 0.42
11 1 6 3.8 0.25
11 1 7 4.34 0.31
11 2 1 12.89 0.59
11 2 3 0.9 0.25
11 2 4 6.77 0.4
11 2 6 19.79 0.65
11 2 7 16.07 0.56
11 3 0 17.6 1.33
11 3 2 1.06 0.24
11 3 3 1.37 0.25
11 3 4 2.3 0.44
11 3 6 2.56 0.65
11 4 1 3.53 0.69
11 4 2 3.18 0.68
11 4 4 6.21 0.8
12 0 2 19.16 1.08
12 0 4 6.89 0.7
12 1 0 8.73 0.31
12 1 1 3.63 0.23
12 1 2 8.32 0.43
12 1 3 3.49 0.22
12 1 4 0.56 0.18
12 2 3 2.24 0.54
12 2 4 4.69 0.7
12 2 5 3.52 0.63
12 3 0 4.96 0.84
12 3 3 3.24 0.66
12 3 4 4.52 0.8
12 3 5 3.38 0.61
12 4 0 3.13 0.64
13 2 1 2.06 0.58
13 2 2 2.14 0.56
13 2 3 4.93 0.71
