#------------------------------------------------------------------------------
#$Date: 2020-05-14 06:46:01 +0300 (Thu, 14 May 2020) $
#$Revision: 252048 $
#$URL: file:///home/coder/svn-repositories/cod/cif/2/02/21/2022112.cif $
#------------------------------------------------------------------------------
#
# This file is available in the Crystallography Open Database (COD),
# http://www.crystallography.net/. The original data for this entry
# were provided by IUCr Journals, http://journals.iucr.org/.
#
# The file may be used within the scientific community so long as
# proper attribution is given to the journal article from which the
# data were obtained.
#
data_2022112
loop_
_publ_author_name
'Bosch, Eric'
'Battle, Jessica D.'
'Groeneman, Ryan H.'
_publ_section_title
;
 Crystal structure and photoreactivity of a halogen-bonded cocrystal based
 upon 1,2-diiodoperchlorobenzene and 1,2-bis(pyridin-4-yl)ethylene
;
_journal_coeditor_code           OV3139
_journal_issue                   6
_journal_name_full               'Acta Crystallographica Section C'
_journal_page_first
;
;
_journal_paper_doi               10.1107/S2053229620006233
_journal_volume                  76
_journal_year                    2020
_chemical_formula_iupac          'C6 Cl4 I2, 0.5C12 H10 N2'
_chemical_formula_moiety         'C6 Cl4 I2, 0.5(C12 H10 N2)'
_chemical_formula_sum            'C12 H5 Cl4 I2 N'
_chemical_formula_weight         558.77
_chemical_name_common
(<i>E</i>)-1,2-Bis(pyridin-4-yl)ethene--1,2-diiodoperchlorobenzene
_chemical_name_systematic
;
1,2-Diiodo-3,4,5,6-chlorobenzene--<i>trans</i>-1,2-bis(pyridin-4-yl)thylene
(2/1)
;
_space_group_crystal_system      triclinic
_space_group_IT_number           2
_space_group_name_Hall           '-P 1'
_space_group_name_H-M_alt        'P -1'
_atom_sites_solution_hydrogens   geom
_audit_creation_method           SHELXL-2018/3
_cell_angle_alpha                78.864(12)
_cell_angle_beta                 83.719(12)
_cell_angle_gamma                87.935(12)
_cell_formula_units_Z            2
_cell_length_a                   4.1177(13)
_cell_length_b                   13.502(4)
_cell_length_c                   14.151(4)
_cell_measurement_reflns_used    5904
_cell_measurement_temperature    290(2)
_cell_measurement_theta_max      27.48
_cell_measurement_theta_min      2.32
_cell_volume                     767.2(4)
_computing_cell_refinement
;
SAINT (Bruker, 2016)
;
_computing_data_collection
;
APEX2 (Bruker, 2016)
;
_computing_data_reduction
;
SAINT (Bruker, 2016)
;
_computing_molecular_graphics
;
SHELXTL (Bruker, 2016) and X-SEED (Barbour, 2001)
;
_computing_publication_material
;
SHELXTL (Bruker, 2016)
;
_computing_structure_refinement
;
SHELXL2018 (Sheldrick, 2015b)
;
_computing_structure_solution
;
SHELXT2018 (Sheldrick, 2015a)
;
_diffrn_ambient_temperature      290(2)
_diffrn_detector_area_resol_mean 8
_diffrn_measured_fraction_theta_full 0.992
_diffrn_measured_fraction_theta_max 0.987
_diffrn_measurement_device_type  'Bruker SMART APEX CCD area detector'
_diffrn_measurement_method       '\w and \f scans'
_diffrn_radiation_type           MoK\a
_diffrn_radiation_wavelength     0.71073
_diffrn_reflns_av_R_equivalents  0.0309
_diffrn_reflns_av_unetI/netI     0.0294
_diffrn_reflns_limit_h_max       5
_diffrn_reflns_limit_h_min       -5
_diffrn_reflns_limit_k_max       17
_diffrn_reflns_limit_k_min       -17
_diffrn_reflns_limit_l_max       18
_diffrn_reflns_limit_l_min       -18
_diffrn_reflns_number            11912
_diffrn_reflns_theta_full        25.242
_diffrn_reflns_theta_max         27.510
_diffrn_reflns_theta_min         2.325
_diffrn_source                   'sealed tube'
_exptl_absorpt_coefficient_mu    4.779
_exptl_absorpt_correction_T_max  1.0000
_exptl_absorpt_correction_T_min  0.7829
_exptl_absorpt_correction_type   multi-scan
_exptl_absorpt_process_details
;
(SADABS; Bruker, 2016)
;
_exptl_crystal_colour            yellow
_exptl_crystal_density_diffrn    2.419
_exptl_crystal_description       rod
_exptl_crystal_F_000             516
_exptl_crystal_size_max          0.152
_exptl_crystal_size_mid          0.078
_exptl_crystal_size_min          0.053
_refine_diff_density_max         0.719
_refine_diff_density_min         -0.585
_refine_ls_extinction_method     none
_refine_ls_goodness_of_fit_ref   1.111
_refine_ls_hydrogen_treatment    constr
_refine_ls_matrix_type           full
_refine_ls_number_parameters     191
_refine_ls_number_reflns         3508
_refine_ls_number_restraints     4
_refine_ls_restrained_S_all      1.113
_refine_ls_R_factor_all          0.0393
_refine_ls_R_factor_gt           0.0288
_refine_ls_shift/su_max          0.002
_refine_ls_shift/su_mean         0.000
_refine_ls_structure_factor_coef Fsqd
_refine_ls_weighting_details
'w=1/[\s^2^(Fo^2^)+(0.0213P)^2^+0.6010P] where P=(Fo^2^+2Fc^2^)/3'
_refine_ls_weighting_scheme      calc
_refine_ls_wR_factor_gt          0.0586
_refine_ls_wR_factor_ref         0.0654
_reflns_number_gt                2928
_reflns_number_total             3508
_reflns_threshold_expression     'I > 2\s(I)'
_cod_data_source_file            ov3139sup1.cif
_cod_data_source_block           I
_cod_database_code               2022112
_shelx_space_group_comment
;
The symmetry employed for this shelxl refinement is uniquely defined
by the following loop, which should always be used as a source of
symmetry information in preference to the above space-group names.
They are only intended as comments.
;
_shelx_hkl_file
;
  -1   0   0   11.80    2.90
  -1   0   0    8.50    2.10
  -1   0   0   10.10    2.10
   1   0   0   13.40    2.30
   1   0   0   11.80    2.10
   1   0   0   10.00    2.60
  -2   0   0 2010.00   41.40
  -2   0   0 1937.01   41.80
  -2   0   0 1944.41   46.10
   2   0   0 1941.21   46.20
   2   0   0 2023.60   42.30
   2   0   0 2014.90   41.40
  -3   0   0    6.90    3.90
  -3   0   0    5.30    4.70
   3   0   0    5.50    3.10
   3   0   0    5.00    4.20
   3   0   0    8.80    3.80
  -4   0   0  453.15   23.40
   4   0   0  410.96   26.90
   4   0   0  431.06   24.30
  -5   0   0   38.50   11.30
   5   0   0   46.70   13.80
   5   0   0   51.39   11.10
   5   0   0   34.50    9.20
   5  -1   0    8.60    6.40
   5  -1   0   28.30    8.00
  -5   1   0   32.20    9.40
   4  -1   0  333.77   21.80
   4  -1   0  323.17   23.30
   3  -1   0    0.80    2.30
   3  -1   0    0.90    2.30
   3  -1   0    0.30    2.20
  -3   1   0    1.30    2.60
  -3   1   0    1.20    2.50
   2  -1   0  141.49   10.70
   2  -1   0  126.09    8.80
   2  -1   0  124.69    9.10
  -2   1   0  145.09    9.20
  -2   1   0  141.69   10.60
  -2   1   0  133.99    9.60
   1  -1   0   12.70    2.50
   1  -1   0   14.30    2.60
   1  -1   0   12.90    2.30
  -1   1   0   12.40    2.50
  -1   1   0    8.30    2.00
  -1  -1   0   79.29    4.70
  -1  -1   0   82.79    6.00
  -1  -1   0   89.19    5.30
   1   1   0   78.89    5.10
   1   1   0   79.59    4.70
   1   1   0   76.09    5.80
  -2  -1   0   36.90    5.00
  -2  -1   0   29.60    5.30
   2   1   0   37.10    4.80
   2   1   0   37.10    6.10
   2   1   0   37.40    4.70
  -3  -1   0 2790.92   60.49
  -3  -1   0 2769.62   68.19
   3   1   0 2801.62   59.89
   3   1   0 2793.52   60.49
   3   1   0 2788.32   68.69
  -4  -1   0    2.20    3.90
   4   1   0    1.70    3.00
   4   1   0   -3.70    2.60
   4   1   0    0.90    3.90
  -5  -1   0  150.78   19.30
   5   1   0  148.99   16.40
   5   1   0  162.18   16.00
   5   1   0  195.68   23.40
   5  -2   0    1.30    3.90
   5  -2   0   -0.10    4.90
  -5   2   0  -10.90    4.70
   4  -2   0  254.87   20.40
   4  -2   0  240.88   18.40
   3  -2   0   21.00    6.50
   3  -2   0   18.90    5.20
   3  -2   0   14.30    5.70
  -3   2   0   18.90    6.10
  -3   2   0   26.60    7.20
   2  -2   0 1321.67   35.40
   2  -2   0 1356.76   34.60
   2  -2   0 1390.76   33.00
  -2   2   0 1310.27   35.00
  -2   2   0 1321.57   34.30
  -1   2   0 5556.94   82.29
   0  -2   0  124.79    3.80
   0  -2   0  124.69    5.70
   0   2   0  124.69    3.90
   0   2   0  127.39    5.60
  -1  -2   0    7.10    2.50
  -1  -2   0    6.20    2.30
   1   2   0    5.30    1.90
   1   2   0    2.70    1.60
   1   2   0    3.50    1.20
   1   2   0    4.00    1.80
  -2  -2   0  132.69    9.10
  -2  -2   0  130.69   10.50
   2   2   0  133.39    9.10
   2   2   0  127.39   10.60
   2   2   0  140.99   11.20
   2   2   0  133.69    8.40
  -3  -2   0   35.70    7.40
  -3  -2   0   32.30    6.60
   3   2   0   40.60    6.90
   3   2   0   27.00    7.60
   3   2   0   29.90    6.00
   3   2   0   44.30    8.90
  -4  -2   0  141.09   13.60
   4   2   0  142.09   13.20
   4   2   0  119.69   12.50
   4   2   0  146.39   16.50
  -5  -2   0   -6.00    5.50
  -5  -2   0    2.50    3.30
   5   2   0   -5.00    4.30
   5   2   0   -3.70    3.80
   5   2   0    1.70    7.30
   5  -3   0  100.59   14.40
  -5   3   0   94.39   15.70
   4  -3   0    8.90    5.30
   4  -3   0   13.70    6.10
   4  -3   0   18.70    6.60
  -4   3   0    5.30    4.50
   3  -3   0  689.53   26.40
   3  -3   0  719.23   28.60
   3  -3   0  689.03   29.60
  -3   3   0  729.83   29.70
  -3   3   0  708.73   29.10
   2  -3   0  141.49    9.40
   2  -3   0  150.88   10.90
   2  -3   0  132.89    9.90
  -2   3   0  130.09   10.30
  -2   3   0  131.69   10.00
   0  -3   0 1688.73   26.10
   0  -3   0 1709.33   32.40
   0   3   0 1692.23   26.50
   0   3   0 1692.63   31.80
  -1  -3   0 4326.37   67.39
  -1  -3   0 4312.37   70.49
   1   3   0 3912.41   67.49
   1   3   0 4091.79   59.39
   1   3   0 4318.07   66.79
   1   3   0 4198.28   69.49
  -2  -3   0  155.28   10.50
   2   3   0  142.79   11.40
   2   3   0  142.29   11.50
   2   3   0  151.88   10.00
  -3  -3   0  505.55   23.10
  -3  -3   0  474.05   25.40
   3   3   0  464.65   21.10
   3   3   0  481.65   25.80
   3   3   0  465.85   20.10
   3   3   0  472.85   25.70
  -4  -3   0   12.20    5.30
   4   3   0   16.20    5.40
   4   3   0   22.50    7.20
   4   3   0    5.10    4.40
  -5  -3   0   12.70    6.80
   5   3   0    8.50    5.40
   5   3   0   14.50   10.20
   5   3   0    8.60    5.50
   5  -4   0  123.09   15.40
   5  -4   0  118.29   15.60
  -5   4   0   98.09   16.10
   4  -4   0  109.59   13.40
   4  -4   0  107.69   13.00
   4  -4   0  105.09   11.70
  -4   4   0   96.19   13.30
   3  -4   0 1040.20   33.80
   3  -4   0 1068.99   36.90
   3  -4   0 1012.30   35.70
  -3   4   0 1084.49   36.90
  -3   4   0 1047.90   37.10
   2  -4   0  280.27   15.00
   2  -4   0  283.27   14.00
   2  -4   0  277.57   14.40
  -2   4   0  284.57   15.50
  -2   4   0  292.77   14.70
   1  -4   0   33.00    3.30
   1  -4   0   36.80    5.20
  -1   4   0   23.30    3.90
  -1   4   0   42.40    3.80
   0  -4   0 2002.40   31.50
   0  -4   0 2081.59   40.30
   0   4   0 1985.70   32.00
   0   4   0 1992.70   41.60
  -1  -4   0  108.49    7.50
  -1  -4   0  119.19    7.80
   1   4   0  110.89    8.30
   1   4   0  112.59    7.70
   1   4   0  109.59    7.40
  -2  -4   0 4772.52   83.29
   2   4   0 4732.53   81.09
   2   4   0 4569.54   73.49
   2   4   0 4781.02   87.49
   2   4   0 4563.44   86.39
  -3  -4   0   72.49    9.00
  -3  -4   0   64.09   10.30
   3   4   0   72.99    8.00
   3   4   0   81.79   10.80
   3   4   0   66.49    8.20
   3   4   0   86.09   11.40
  -4  -4   0  468.95   37.60
  -4  -4   0  453.05   28.20
   4   4   0  436.86   22.40
   4   4   0  460.95   24.00
  -5  -4   0    5.40    5.40
   5   4   0   -4.60    4.00
   5   4   0   -5.70    9.00
   5   4   0   -1.40    4.30
   5  -5   0   13.80    7.60
   5  -5   0   21.80    9.20
  -5   5   0    9.90    7.60
   4  -5   0   63.29   11.20
   4  -5   0   88.79   12.40
   4  -5   0  111.39   12.30
  -4   5   0   96.09   12.50
   3  -5   0   69.29    9.50
   3  -5   0   66.59    8.40
   3  -5   0   68.59    9.30
  -3   5   0   61.19    9.60
  -3   5   0   62.29    9.10
   2  -5   0 3543.55   65.49
   2  -5   0 3467.85   68.39
  -2   5   0 3522.25   69.99
  -2   5   0 3510.15   65.19
   1  -5   0 1356.26   31.30
   1  -5   0 1386.76   26.20
   1  -5   0 1378.06   34.40
  -1   5   0 1391.66   26.30
  -1   5   0 1361.46   31.80
   0  -5   0 3680.53   54.19
   0   5   0 3783.02   64.69
   0   5   0 3584.14   54.89
  -1  -5   0    7.90    3.30
  -1  -5   0    7.30    2.30
  -1  -5   0    6.90    2.30
   1   5   0    7.70    3.50
   1   5   0    5.00    2.30
  -2  -5   0 1243.78   35.30
   2   5   0 1200.18   26.50
   2   5   0 1229.68   36.80
   2   5   0 1253.77   37.10
   2   5   0 1265.07   34.10
  -3  -5   0  272.07   17.50
  -3  -5   0  273.87   20.70
   3   5   0  259.17   16.10
   3   5   0  262.57   14.00
   3   5   0  252.37   19.30
   3   5   0  255.97   19.00
  -4  -5   0   86.59   11.50
  -4  -5   0   88.59   13.50
   4   5   0   88.49   10.80
   4   5   0   86.19   11.00
   4   5   0   94.99   14.70
  -5  -5   0   78.49   13.90
   5   5   0   79.49   14.70
   5   5   0  108.09   13.90
   4  -6   0    2.10    3.60
   4  -6   0    1.50    3.90
   4  -6   0    9.50    4.50
  -4   6   0    5.40    4.50
   3  -6   0  169.88   14.50
   3  -6   0  164.68   13.60
   3  -6   0  191.28   14.60
  -3   6   0  195.58   16.60
  -3   6   0  188.48   14.50
   2  -6   0  301.97   16.70
   2  -6   0  304.97   14.40
  -2   6   0  304.27   14.40
  -2   6   0  323.97   17.70
   1  -6   0  102.19    7.80
   1  -6   0  109.69    5.50
   1  -6   0  110.19    9.00
  -1   6   0  115.89    5.80
  -1   6   0  103.69    8.10
   0  -6   0  945.51   19.70
   0  -6   0 1011.10   29.60
   0   6   0  977.70   20.90
   0   6   0  975.00   27.90
  -1  -6   0 2298.57   53.19
  -1  -6   0 2413.06   50.09
  -1  -6   0 2326.97   46.10
   1   6   0 2443.86   52.29
  -2  -6   0  526.55   22.90
  -2  -6   0  472.55   23.90
  -2  -6   0  535.85   22.50
   2   6   0  517.35   23.80
   2   6   0  520.55   21.30
   2   6   0  521.75   14.80
  -3  -6   0  116.09   14.60
  -3  -6   0  103.19   11.50
   3   6   0  109.49    8.90
   3   6   0   89.59    9.90
  -4  -6   0    6.20    4.80
  -4  -6   0    2.50    5.60
   4   6   0    5.00    5.00
   4   6   0    0.10    3.60
   4   6   0    2.00    2.60
  -5  -6   0   16.70    8.00
   5   6   0   68.99   11.30
   4  -7   0  235.68   18.60
   4  -7   0  204.08   18.70
   4  -7   0  233.38   18.70
  -4   7   0  211.98   17.90
   3  -7   0  164.88   13.90
   3  -7   0  160.18   14.50
   3  -7   0  176.18   13.90
  -3   7   0  164.18   13.40
  -3   7   0  164.98   15.30
   2  -7   0   90.09    9.40
   2  -7   0   97.79    8.10
   2  -7   0   90.19   10.60
  -2   7   0   88.09    7.50
  -2   7   0   88.39    9.50
   1  -7   0  276.87   13.20
   1  -7   0  267.67   15.10
  -1   7   0  266.47   13.50
   0  -7   0  227.78    8.80
   0  -7   0  223.48   14.30
   0   7   0  243.68    9.40
   0   7   0  231.38   13.80
  -1  -7   0  211.28   11.20
  -1  -7   0  210.18   15.20
   1   7   0  187.98   13.30
  -2  -7   0  181.58   13.70
  -2  -7   0  165.08   14.40
  -2  -7   0  183.68   13.60
   2   7   0  191.38    7.80
   2   7   0  160.48   12.30
   2   7   0  184.38   14.50
  -3  -7   0  545.75   28.60
  -3  -7   0  482.95   25.50
   3   7   0  496.45   24.10
   3   7   0  519.85   18.30
   3   7   0  535.15   28.80
  -4  -7   0   33.90    9.30
  -4  -7   0   31.20    8.40
   4   7   0   28.50    6.50
   4   7   0   18.60    6.10
   4   7   0   18.90    7.60
   4  -8   0   94.09   13.10
   4  -8   0   81.79   12.50
  -4   8   0   98.19   12.00
   3  -8   0  644.14   32.80
   3  -8   0  671.93   26.60
   3  -8   0  629.64   29.40
  -3   8   0  616.74   25.80
   2  -8   0  817.12   26.60
   2  -8   0  785.72   32.10
   2  -8   0  789.92   28.70
  -2   8   0  796.32   23.50
  -2   8   0  806.72   30.50
   1  -8   0 3983.40   78.59
   1  -8   0 4169.98   71.89
  -1   8   0 4057.29   73.19
   0  -8   0  811.32   30.00
   0  -8   0  799.72   19.00
   0  -8   0  779.02   27.10
   0   8   0  804.02   28.40
   0   8   0  782.92   20.10
  -1  -8   0  980.60   35.90
  -1  -8   0  967.90   31.80
  -1  -8   0 1012.20   27.30
   1   8   0 1013.00   34.30
  -2  -8   0  477.45   23.40
  -2  -8   0  467.65   22.30
  -2  -8   0  448.96   25.10
   2   8   0  453.95   21.80
   2   8   0  432.86   23.60
  -3  -8   0  162.38   15.60
   3   8   0  182.88   17.50
   3   8   0  145.19   13.40
   3   8   0  168.28    9.60
  -4  -8   0  122.09   16.30
  -4  -8   0   93.99   13.20
   4   8   0  113.69   10.10
   4   8   0  108.29   17.20
   4  -9   0   21.00    7.60
   4  -9   0    9.50    5.80
   4  -9   0    6.10    5.60
  -4   9   0    1.90    4.50
   3  -9   0   19.80    5.70
   3  -9   0   31.70    7.50
   3  -9   0   13.10    6.30
  -3   9   0   28.60    6.80
   2  -9   0   14.60    4.80
   2  -9   0   22.90    3.90
   2  -9   0   15.10    5.50
  -2   9   0   15.90    5.60
  -2   9   0   15.00    3.60
   1  -9   0   11.90    4.60
   1  -9   0   25.30    5.50
  -1   9   0   11.40    3.60
   0  -9   0 1141.59   38.20
   0  -9   0 1135.39   35.40
   0   9   0 1164.68   26.70
   0   9   0 1139.39   36.80
  -1  -9   0  609.74   20.50
  -1  -9   0  581.74   25.30
  -1  -9   0  608.64   29.10
   1   9   0  599.64   26.90
  -2  -9   0 1032.70   37.20
  -2  -9   0  962.60   39.70
  -2  -9   0 1007.00   34.50
   2   9   0  967.20   37.00
  -3  -9   0   34.90    9.00
  -3  -9   0   47.00    9.10
   3   9   0   43.70    5.00
   3   9   0   51.49    8.40
  -4  -9   0  158.08   17.60
  -4  -9   0  182.08   19.80
   4   9   0  165.48   16.50
   4 -10   0    8.50    5.80
   4 -10   0    4.80    6.90
   4 -10   0    9.90    3.50
  -4  10   0    3.60    4.40
   3 -10   0   13.70    3.90
   3 -10   0   14.10    5.90
  -3  10   0   18.00    6.20
   2 -10   0   26.20    6.20
   1 -10   0   20.70    5.00
   1 -10   0   15.20    5.30
  -1  10   0   14.60    4.10
   0 -10   0    0.20    1.60
   0 -10   0    4.10    4.10
   0 -10   0    6.30    3.50
   0  10   0    2.00    2.70
   0  10   0    2.70    1.60
  -1 -10   0    3.50    2.90
  -1 -10   0    2.50    1.80
  -1 -10   0    1.20    3.30
   1  10   0   -4.00    3.00
  -2 -10   0    9.90    5.70
  -2 -10   0   30.00    7.40
   2  10   0   15.00    6.50
  -3 -10   0  114.59   14.00
  -3 -10   0   89.39   12.70
   3  10   0  116.59   12.90
  -4 -10   0   97.79   15.30
  -4 -10   0   95.69   15.50
   4  10   0   58.79   11.90
   4  10   0   60.29   14.60
   4 -11   0   16.80    7.50
   4 -11   0    6.30    5.30
   3 -11   0  124.69   13.90
   3 -11   0  140.59   16.50
  -3  11   0  166.58   17.10
   2 -11   0  376.66   24.00
   2 -11   0  369.16   20.30
  -2  11   0  345.07   21.20
   1 -11   0  206.18   16.80
   1 -11   0  193.28   12.60
  -1  11   0  197.28   13.50
   0 -11   0  573.84   17.40
   0 -11   0  561.34   26.80
   0 -11   0  581.04   29.20
   0  11   0  587.54   28.30
   0  11   0  574.04   18.80
  -1 -11   0   16.10    6.10
  -1 -11   0   45.90    8.40
  -1 -11   0   22.20    4.70
  -2 -11   0   10.50    5.90
  -2 -11   0    8.00    4.90
  -2 -11   0    7.80    4.60
   2  11   0   13.50    6.30
  -3 -11   0   24.90    7.40
  -3 -11   0   13.20    6.20
   3  11   0    7.00    5.20
  -4 -11   0   85.69   16.70
   4  11   0   37.70   11.80
   3 -12   0   37.40    8.60
   3 -12   0   38.30   10.50
  -3  12   0   64.69   14.00
   2 -12   0   47.00    9.20
   2 -12   0   20.40    5.60
  -2  12   0   32.90    8.50
   1 -12   0  393.16   25.00
   1 -12   0  414.86   18.40
  -1  12   0  414.16   20.20
   0 -12   0  142.49   15.50
   0 -12   0  135.79    8.70
   0 -12   0  145.49   15.60
   0  12   0  136.49    9.00
   0  12   0  153.48   15.60
  -1 -12   0  338.47   15.10
  -1 -12   0  326.47   22.10
  -1 -12   0  300.97   29.00
   1  12   0  356.96   23.10
  -2 -12   0  210.48   15.50
  -2 -12   0  182.88   20.20
  -2 -12   0  203.58   18.70
  -3 -12   0  244.08   19.90
  -3 -12   0  241.58   22.50
   3  12   0  264.67   22.80
   3 -13   0   98.59   13.20
  -3  13   0  125.99   15.30
   2 -13   0  229.48   16.60
   2 -13   0  254.47   21.30
   1 -13   0  193.68   18.40
   1 -13   0  210.98   13.70
  -1  13   0  207.18   14.50
   0 -13   0   17.70    6.80
   0 -13   0   16.20    4.00
   0 -13   0    9.40    4.20
   0  13   0   30.30    5.10
   0  13   0   12.60    6.00
  -1 -13   0   12.80    5.40
  -1 -13   0   16.50    4.00
  -1 -13   0   23.20    8.90
  -2 -13   0  223.78   23.00
  -2 -13   0  261.07   22.10
  -2 -13   0  282.97   17.70
   2  13   0  276.17   22.10
  -3 -13   0    2.80    4.10
  -3 -13   0   12.00    9.30
  -3 -13   0   12.80    7.00
   3  13   0    9.10    8.20
   3 -14   0    4.20    6.20
   3 -14   0    9.90    5.80
   2 -14   0   -0.60    3.20
   2 -14   0   -1.30    4.10
  -2  14   0   -6.20    4.20
   1 -14   0   15.50    6.10
   1 -14   0   10.30    4.30
   1 -14   0   11.30    6.00
  -1  14   0   17.90    5.90
   0 -14   0    2.80    4.20
   0 -14   0   -2.10    3.00
   0  14   0    2.50    5.20
  -1 -14   0  107.79   16.80
  -1 -14   0  105.69   14.00
  -1 -14   0  120.99    8.40
   1  14   0  108.99   14.40
  -2 -14   0   22.60    9.20
  -2 -14   0   38.10    7.80
  -2 -14   0   25.80    8.30
   2  14   0   17.70    7.50
  -3 -14   0    6.40    6.70
  -3 -14   0    2.80    5.30
   2 -15   0    7.10    4.30
   1 -15   0   74.29    8.90
   1 -15   0   75.59   12.30
   1 -15   0   84.29   12.90
   0 -15   0   15.50    7.50
   0 -15   0   22.20    7.60
   0  15   0   22.20    9.20
  -1 -15   0   23.00    8.20
  -1 -15   0    1.50    6.40
   1  15   0   -0.60    5.10
  -2 -15   0  118.19   20.60
  -2 -15   0   97.49   11.20
   2  15   0  107.39   19.30
   1 -16   0  133.09   12.40
   1 -16   0  153.38   19.50
   1 -16   0  156.68   20.30
   0 -16   0   23.20    6.00
   0 -16   0   23.00    9.40
   0  16   0   21.40    9.30
  -1 -16   0   45.20   12.40
  -1 -16   0   58.09   14.40
   1  16   0   24.00   11.20
  -2 -16   0    6.50    4.80
  -2 -16   0   11.50    6.40
  -2 -16   0   -5.10    7.10
   2  16   0    4.40    8.00
   0 -17   0   23.60    7.10
   0 -17   0   31.60   10.20
   1  16  -1   90.39   19.20
  -1 -16   1  127.69   17.20
  -1 -16   1  110.09   20.10
   0  16  -1   26.70   10.00
   0 -16   1    7.00    6.10
   1 -16   1   56.49   10.70
   1 -16   1   31.20   13.10
   1 -16   1   21.30    8.80
   2  15  -1   83.49   18.10
  -2 -15   1   47.50   13.00
  -2 -15   1   66.99    9.50
  -2 -15   1   63.99   13.90
   1  15  -1  105.99   21.30
  -1 -15   1  118.29   18.70
  -1 -15   1  130.59   16.90
   0  15  -1   13.10    8.20
   0 -15   1   38.40   10.80
   0 -15   1   11.80    6.80
  -1  15  -1    0.70    3.10
   1 -15   1   -1.60    3.10
   1 -15   1    1.00    5.50
   1 -15   1    8.30    3.50
  -2  15  -1   63.59   12.90
   2 -15   1   78.79   10.50
  -3 -14   1   41.40   12.20
  -3 -14   1   39.60   10.20
  -3 -14   1   31.60   10.60
   2  14  -1    2.70    5.80
  -2 -14   1    6.70    5.40
  -2 -14   1   -2.10    4.30
  -2 -14   1    9.10    4.30
   1  14  -1   29.70    9.30
  -1 -14   1   18.10    7.40
  -1 -14   1    3.80    6.30
   0  14  -1    1.80    4.80
   0 -14   1    8.40    5.80
   0 -14   1   12.40    5.70
  -1  14  -1  141.49   12.40
   1 -14   1  114.19   10.70
   1 -14   1  137.29   16.50
  -2  14  -1   58.29   11.90
   2 -14   1   54.99   12.20
   2 -14   1   62.99    9.90
   3  13  -1    7.20    7.30
  -3 -13   1    0.20    5.30
  -3 -13   1    6.00    5.60
  -3 -13   1   -0.30    6.10
   2  13  -1   13.20    6.40
  -2 -13   1   26.90   10.00
  -2 -13   1   18.90    8.40
  -2 -13   1   36.30    6.30
  -1 -13   1   49.80    9.90
  -1 -13   1   46.40   11.70
  -1 -13   1   56.19    5.70
   0  13  -1  179.78   11.10
   0 -13   1  171.08   16.60
   0 -13   1  156.08   16.50
  -1  13  -1  160.28   13.50
   1 -13   1  154.18   11.70
   1 -13   1  143.69   16.50
   2 -13   1    7.50    3.40
   2 -13   1    5.90    5.20
  -3  13  -1   -6.40    5.60
   3 -13   1    4.20    5.70
   3 -13   1   -1.50    3.80
   3  12  -1  125.59   21.50
  -3 -12   1  162.88   19.80
  -3 -12   1  138.79   17.80
  -3 -12   1  137.29   15.10
  -2 -12   1   42.20   12.10
  -2 -12   1   41.50   10.30
  -2 -12   1   62.89    7.80
   1  12  -1  436.86   26.10
  -1 -12   1  403.86   28.00
  -1 -12   1  440.46   26.10
  -1 -12   1  450.45   16.70
   0  12  -1  127.39   15.30
   0  12  -1  164.68   10.50
   0 -12   1  177.28   19.30
   0 -12   1  152.78    9.70
   0 -12   1  143.49   14.60
  -1  12  -1  192.18   13.90
   1 -12   1  180.78   17.20
   1 -12   1  186.18   12.50
  -2  12  -1   76.59   10.10
   2 -12   1   64.49    9.00
   2 -12   1   62.39   11.60
  -3  12  -1   65.49   13.70
   3 -12   1   70.59   11.50
   3 -12   1   93.29   12.90
  -4 -11   1   16.20    8.50
   3  11  -1   27.50    9.70
  -3 -11   1   28.20    9.10
  -3 -11   1   20.30    7.50
  -2 -11   1  320.87   22.30
  -2 -11   1  316.17   18.80
  -2 -11   1  291.57   24.00
   1  11  -1  353.66   22.90
   1  11  -1  344.17   10.90
  -1 -11   1  352.36   15.00
  -1 -11   1  404.56   26.90
   0  11  -1  827.92   39.00
   0  11  -1  814.32   23.60
   0 -11   1  765.42   32.10
   0 -11   1  770.92   34.90
   0 -11   1  846.92   23.20
  -1  11  -1  336.27   17.70
   1 -11   1  338.47   16.60
   1 -11   1  331.97   22.30
  -2  11  -1  389.76   22.50
   2 -11   1  377.16   24.50
   2 -11   1  345.77   21.30
  -3  11  -1  153.88   16.60
   3 -11   1  120.79   13.00
   3 -11   1  136.59   16.30
   4 -11   1  109.89   16.20
   4  10  -1   -6.30    7.30
   4  10  -1    4.00    2.30
  -4 -10   1    3.20    5.60
  -4 -10   1    7.50    6.60
   3  10  -1    4.90    4.50
  -3 -10   1   -1.60    3.10
  -3 -10   1   -2.00    3.30
   2  10  -1  186.58   17.10
  -2 -10   1  225.68   15.80
  -2 -10   1  201.18   22.00
   1  10  -1    4.10    4.60
   1  10  -1    8.90    2.20
  -1 -10   1    0.00    2.10
  -1 -10   1    7.30    2.50
  -1 -10   1    5.80    4.30
   0  10  -1   22.40    7.10
   0  10  -1   20.20    4.20
   0 -10   1   29.40    4.40
   0 -10   1   40.30    8.60
   0 -10   1   23.50    6.70
  -1  10  -1    2.20    2.50
   1 -10   1    3.50    3.80
   1 -10   1    8.70    3.50
  -2  10  -1   88.19   10.70
   2 -10   1   72.59    9.40
   2 -10   1   80.89   11.10
  -3  10  -1   82.39   11.80
   3 -10   1  107.69   13.50
   3 -10   1   90.19   11.10
   4 -10   1   20.10    6.60
   4 -10   1   20.90    9.80
   4   9  -1  280.37   26.60
   4   9  -1  262.07   20.80
  -4  -9   1  269.17   22.50
   3   9  -1   83.29    7.30
   3   9  -1   91.39   11.30
  -3  -9   1   96.49   12.10
  -3  -9   1   92.09   12.00
   2   9  -1  324.87    9.90
  -2  -9   1  339.37   20.90
  -2  -9   1  352.16   23.80
  -2  -9   1  335.87   18.90
   1   9  -1  214.78   16.60
   1   9  -1  221.88    8.20
  -1  -9   1  204.38   15.00
  -1  -9   1  190.28   16.90
  -1  -9   1  245.28   12.30
   0   9  -1   74.59    9.50
   0   9  -1   64.09    6.10
   0  -9   1   71.19    9.80
   0  -9   1   61.39    5.60
  -1   9  -1   53.99    7.40
   1  -9   1   39.40    8.70
   1  -9   1   49.80    6.60
  -2   9  -1  216.78   15.90
   2  -9   1  216.68   16.80
   2  -9   1  234.98   15.50
  -3   9  -1    6.70    3.50
   3  -9   1    4.30    3.20
   3  -9   1    4.70    3.90
  -4   9  -1    2.10    4.70
  -4   9  -1   -7.00    3.80
   4  -9   1    2.30    4.90
   4  -9   1    8.70    5.00
   4  -9   1   -2.70    3.90
   4   8  -1   82.79    9.40
   4   8  -1   72.09   10.90
   4   8  -1   65.19   15.40
  -4  -8   1   72.39   12.20
  -4  -8   1   89.59   14.40
   3   8  -1  124.59   15.10
   3   8  -1  118.09   11.90
   3   8  -1  140.09    9.40
  -3  -8   1  122.79   14.30
   2   8  -1  556.34   27.10
   2   8  -1  540.75   15.30
  -2  -8   1  555.44   29.30
  -2  -8   1  555.34   24.60
  -2  -8   1  591.44   26.40
   1   8  -1 2696.43   63.19
   1   8  -1 2539.85   41.60
  -1  -8   1 2528.55   65.09
  -1  -8   1 2712.63   51.59
  -1  -8   1 2743.63   60.29
   0   8  -1   47.20    7.40
   0   8  -1   30.70    4.10
   0  -8   1   32.80    6.60
  -1   8  -1 1474.35   37.20
   1  -8   1 1490.05   36.00
   1  -8   1 1518.35   42.50
  -2   8  -1 1080.99   36.10
  -2   8  -1 1135.99   27.30
   2  -8   1 1067.89   34.00
   2  -8   1 1119.99   38.40
  -3   8  -1  293.67   16.90
   3  -8   1  296.97   19.80
   3  -8   1  291.07   21.70
   3  -8   1  275.07   19.60
  -4   8  -1    7.00    6.10
  -4   8  -1    4.40    4.50
   4  -8   1    5.80    4.60
   4  -8   1    4.70    5.30
   4   7  -1   -3.80    3.00
   4   7  -1    4.20    3.50
   4   7  -1   -2.40    5.10
  -4  -7   1   10.50    5.70
  -4  -7   1   -0.10    3.30
   3   7  -1  546.35   25.20
   3   7  -1  612.44   31.60
   3   7  -1  581.84   20.50
  -3  -7   1  594.84   28.30
  -3  -7   1  576.74   29.50
   2   7  -1   55.09    4.90
   2   7  -1   68.89    8.80
   2   7  -1   57.49    9.00
   2   7  -1   58.89    7.80
  -2  -7   1   74.39   10.80
  -2  -7   1   59.49    8.30
  -2  -7   1   64.59    8.20
   1   7  -1  555.14   24.20
   1   7  -1  520.55   12.90
  -1  -7   1  523.85   25.00
  -1  -7   1  558.54   18.90
   0   7  -1  759.82   27.00
   0   7  -1  768.52   19.70
   0  -7   1  737.53   27.60
   0  -7   1  755.92   18.80
  -1   7  -1 1497.15   36.00
   1  -7   1 1418.36   39.00
   1  -7   1 1483.95   34.90
  -2   7  -1  871.11   24.20
  -2   7  -1  833.52   30.10
   2  -7   1  874.21   33.30
   2  -7   1  761.52   27.80
  -3   7  -1   87.89   11.70
  -3   7  -1   92.19   10.00
   3  -7   1   82.09   10.60
  -4   7  -1  142.39   17.00
  -4   7  -1  148.99   15.70
   4  -7   1  151.68   15.70
   4  -7   1  139.59   15.30
   4   6  -1   57.09    8.70
   4   6  -1   45.60    8.80
   4   6  -1   62.69   12.60
  -4  -6   1   47.20   10.10
  -4  -6   1   54.69   11.10
   3   6  -1  144.69   10.40
   3   6  -1  151.68   12.70
   3   6  -1  160.98   15.50
   3   6  -1  144.99   15.10
  -3  -6   1  132.39   13.00
  -3  -6   1  143.79   14.30
   2   6  -1  507.35   24.10
   2   6  -1  475.15   22.30
   2   6  -1  474.65   15.50
   2   6  -1  488.05   20.60
  -2  -6   1  517.75   22.00
  -2  -6   1  490.85   22.50
  -2  -6   1  508.55   25.70
   1   6  -1   14.00    2.20
   1   6  -1    6.90    3.40
   1   6  -1   15.50    3.30
  -1  -6   1   34.10    6.40
  -1  -6   1   10.90    3.10
  -1  -6   1    8.30    3.20
   0   6  -1 2757.62   46.10
   0   6  -1 2698.03   55.99
   0  -6   1 2781.22   57.89
   0  -6   1 2694.73   44.60
  -1   6  -1 1108.49   29.30
   1  -6   1 1141.69   28.60
   1  -6   1 1113.89   31.60
  -2   6  -1  482.35   21.80
  -2   6  -1  483.55   18.00
   2  -6   1  470.35   17.40
   2  -6   1  478.55   21.00
   2  -6   1  487.45   23.10
  -3   6  -1   -5.60    2.30
  -3   6  -1    1.50    3.90
   3  -6   1   -1.00    1.80
   3  -6   1    1.30    2.30
   3  -6   1    1.80    2.60
  -4   6  -1  107.09   13.50
  -4   6  -1  102.09   14.40
   4  -6   1  119.39   14.20
   4  -6   1  124.89   14.40
   5   5  -1   43.80   10.50
  -5  -5   1   18.60    7.90
   4   5  -1   14.30    6.40
   4   5  -1    7.70    4.70
   4   5  -1   15.50    7.90
   4   5  -1    7.70    3.60
  -4  -5   1   17.50    5.70
  -4  -5   1   12.90    6.30
   3   5  -1  185.98   16.20
   3   5  -1  197.48   12.10
   3   5  -1  181.68   13.40
  -3  -5   1  232.48   15.80
   2   5  -1 1698.03   35.10
   2   5  -1 1665.53   45.20
   2   5  -1 1742.03   46.80
   2   5  -1 1740.93   41.20
  -2  -5   1 1778.52   43.20
  -2  -5   1 1706.93   48.50
   1   5  -1    8.50    2.90
   1   5  -1    7.00    3.00
  -1  -5   1   13.20    4.20
  -1  -5   1    8.70    3.10
  -1  -5   1    8.70    2.80
   0   5  -1 1448.56   27.30
   0   5  -1 1508.75   35.80
   0  -5   1 1464.45   26.80
   0  -5   1 1427.46   35.80
  -1   5  -1   96.99    4.80
  -1   5  -1   79.49    6.90
   1  -5   1   89.09    7.10
   1  -5   1   87.69    7.80
  -2   5  -1  797.32   24.50
  -2   5  -1  855.01   28.90
   2  -5   1  803.42   27.30
   2  -5   1  808.42   24.40
  -3   5  -1   62.59    9.60
  -3   5  -1   50.29    8.00
   3  -5   1   54.99    8.40
   3  -5   1   55.09    8.80
   3  -5   1   59.09    8.80
  -4   5  -1    0.40    3.60
  -4   5  -1    0.80    3.60
   4  -5   1    6.80    3.90
   4  -5   1    3.30    4.40
  -5   5  -1   -4.60    6.70
   5  -5   1    1.80    5.10
   5  -5   1    4.30    7.80
   5   4  -1    0.70    5.00
   5   4  -1  -10.10    4.90
  -5  -4   1   -2.50    5.20
   4   4  -1  462.25   29.90
   4   4  -1  498.95   31.20
   4   4  -1  458.95   23.40
   4   4  -1  460.55   23.20
  -4  -4   1  404.66   27.70
   3   4  -1   68.49    8.00
   3   4  -1   55.89    9.60
   3   4  -1   57.69    9.90
   3   4  -1   59.69    7.10
  -3  -4   1   65.79    8.40
  -3  -4   1   49.90    8.90
   2   4  -1 1839.72   48.00
   2   4  -1 1987.70   42.90
   2   4  -1 1963.10   48.50
  -2  -4   1 1908.91   44.10
  -2  -4   1 1889.21   47.50
   1   4  -1    6.00    2.50
   1   4  -1    6.20    2.30
   1   4  -1    6.10    2.80
  -1  -4   1    6.50    2.50
  -1  -4   1    8.80    3.20
  -1  -4   1    4.00    1.70
   0   4  -1 2238.78   44.00
   0   4  -1 2199.38   36.30
   0  -4   1 2335.07   45.20
   0  -4   1 2218.58   35.90
  -1   4  -1 4490.25   73.69
  -1   4  -1 4469.05   66.19
   1  -4   1 4471.35   65.79
   1  -4   1 4477.95   72.39
   1  -4   1 4643.74   77.09
  -2   4  -1  255.07   14.70
  -2   4  -1  232.58   12.70
   2  -4   1  235.68   13.80
   2  -4   1  224.68   13.10
   2  -4   1  241.38   12.80
  -3   4  -1  298.37   19.30
  -3   4  -1  320.17   19.40
   3  -4   1  331.27   19.20
   3  -4   1  319.67   18.50
   3  -4   1  307.87   18.90
  -4   4  -1   92.49   12.40
  -4   4  -1   86.39   12.40
   4  -4   1   78.09   11.70
   4  -4   1   87.99   11.40
  -5   4  -1   93.19   16.20
   5  -4   1  101.59   15.30
   5  -4   1  119.49   15.50
   5   3  -1   31.10    8.80
   5   3  -1   31.20    9.00
   4   3  -1    2.50    4.20
   4   3  -1    2.30    3.00
   4   3  -1    3.80    4.40
   4   3  -1    0.50    6.10
  -4  -3   1    7.50    4.50
   3   3  -1 1856.61   45.50
   3   3  -1 1866.01   55.39
   3   3  -1 1890.41   55.29
   3   3  -1 1850.31   44.90
  -3  -3   1 1789.22   53.39
  -3  -3   1 1931.31   48.40
   2   3  -1  102.69    7.50
   2   3  -1  103.69   10.10
   2   3  -1   92.79    7.60
   2   3  -1  111.39   10.40
  -2  -3   1  103.79    8.40
  -2  -3   1  110.19   10.10
   1   3  -1 4223.78   65.39
   1   3  -1 4092.79   68.19
   1   3  -1 4073.39   69.99
  -1  -3   1 4089.09   71.59
  -1  -3   1 4016.30   65.29
  -1  -3   1 4172.88   77.19
   0   3  -1  388.16   13.60
   0   3  -1  394.36    9.90
   0  -3   1  390.56   13.90
   0  -3   1  389.96    9.80
  -2   3  -1   57.19    7.20
  -2   3  -1   58.39    6.50
   2  -3   1   71.09    7.60
   2  -3   1   57.19    6.70
   2  -3   1   55.89    6.30
  -3   3  -1 1078.29   36.60
  -3   3  -1 1019.30   35.90
   3  -3   1 1062.99   34.50
   3  -3   1  973.30   35.20
   3  -3   1 1072.79   35.70
  -4   3  -1  102.39   13.10
  -4   3  -1   78.09   11.60
   4  -3   1   92.09   11.60
   4  -3   1   85.69   10.90
  -5   3  -1   54.59   13.30
   5  -3   1   82.29   13.30
   5   2  -1   -6.70    4.10
   5   2  -1   -8.00    7.70
   5   2  -1   -2.10    4.00
  -5  -2   1    4.20    3.50
   4   2  -1   26.20    8.00
   4   2  -1   18.70    6.30
  -4  -2   1   24.90    7.10
   3   2  -1   88.99    8.60
   3   2  -1   92.99   11.70
   3   2  -1   86.39   11.80
   3   2  -1   97.59    9.90
  -3  -2   1   97.69   11.60
  -3  -2   1   80.79    8.90
   2   2  -1    1.10    1.50
   2   2  -1    2.20    1.80
   2   2  -1    1.40    1.50
   2   2  -1    0.60    2.30
  -2  -2   1    1.60    1.70
  -2  -2   1   -0.30    1.20
   1   2  -1  292.87   10.30
   1   2  -1  283.07   12.00
   1   2  -1  296.87   12.90
  -1  -2   1  287.47   12.80
  -1  -2   1  287.37   10.40
  -1  -2   1  271.17   13.60
   0   2  -1  899.11   20.10
   0   2  -1  901.41   16.10
   0   2  -1  909.91   14.40
   0  -2   1  935.11   14.40
   0  -2   1  898.91   16.20
   0  -2   1  911.21   20.20
  -1   2  -1  335.37   14.20
  -1   2  -1  325.87   11.00
   1  -2   1  330.67   10.90
   1  -2   1  322.17   11.80
  -2   2  -1  662.53   23.10
  -2   2  -1  655.93   22.80
   2  -2   1  654.93   23.00
   2  -2   1  650.83   22.30
   2  -2   1  675.43   22.50
  -3   2  -1  351.66   20.70
  -3   2  -1  345.57   19.40
   3  -2   1  375.36   19.80
   3  -2   1  330.57   18.20
   3  -2   1  322.57   19.50
  -4   2  -1  436.86   25.80
  -4   2  -1  377.66   25.40
   4  -2   1  449.86   24.20
   4  -2   1  471.95   26.00
  -5   2  -1    4.90    5.80
   5  -2   1    6.30    5.10
   5  -2   1   -8.70    4.80
   5   1  -1  236.88   25.20
   5   1  -1  247.78   18.40
   5   1  -1  301.87   32.50
   5   1  -1  229.18   20.60
  -5  -1   1  243.18   24.40
   4   1  -1   11.70    6.60
   4   1  -1   10.00    5.10
  -4  -1   1   14.40    4.80
   3   1  -1  308.67   16.10
   3   1  -1  336.77   17.70
   3   1  -1  292.07   20.10
  -3  -1   1  300.87   19.80
  -3  -1   1  320.67   17.10
   2   1  -1    1.50    2.20
   2   1  -1    4.00    1.90
   2   1  -1    1.90    1.50
  -2  -1   1    5.30    2.60
  -2  -1   1    9.00    2.90
   1   1  -1 1192.38   22.90
   1   1  -1 1207.38   28.00
  -1  -1   1 1196.28   23.30
  -1  -1   1 1139.59   26.70
   0   1  -1  674.43   16.90
   0  -1   1  655.53   12.40
  -1   1  -1  822.32   19.80
  -1   1  -1  862.71   20.20
   1  -1   1  857.61   20.00
   1  -1   1  827.12   19.60
   1  -1   1  832.82   19.70
  -2   1  -1  471.55   19.30
  -2   1  -1  460.75   18.10
  -2   1  -1  467.95   17.80
   2  -1   1  446.46   17.50
   2  -1   1  457.75   17.90
   2  -1   1  467.15   19.40
  -3   1  -1   27.10    7.10
  -3   1  -1   28.30    6.20
   3  -1   1   38.20    7.00
   3  -1   1   34.40    5.80
   3  -1   1   46.90    7.20
   4  -1   1   96.79   12.10
   4  -1   1   68.19    9.90
  -5   1  -1   24.80    9.10
   5  -1   1   44.60    9.70
   5  -1   1   30.00    8.80
   5   0  -1    6.20    6.40
   5   0  -1    4.90    5.00
   5   0  -1    6.40    7.50
  -5   0   1    7.00    7.00
   4   0  -1  458.25   29.10
   4   0  -1  462.85   22.80
   4   0  -1  422.56   24.20
  -4   0   1  417.46   22.00
   3   0  -1    6.40    3.40
   3   0  -1    5.60    4.50
   3   0  -1    7.20    3.60
  -3   0   1    6.50    3.90
  -3   0   1    6.50    3.40
   2   0  -1 7381.76  110.79
   2   0  -1 7259.87  114.29
  -2   0   1 7331.07  120.19
  -2   0   1 7598.94  115.69
   1   0  -1  407.26   10.80
   1   0  -1  404.66   12.50
  -1   0   1  427.46   14.30
  -1   0   1  407.16   11.00
  -1   0  -1  182.78    8.70
  -1   0  -1  184.38    7.70
  -1   0  -1  193.58    8.30
   1   0   1  176.28    7.50
   1   0   1  186.08    8.50
   1   0   1  185.38    8.30
  -2   0  -1 2478.75   53.49
  -2   0  -1 2513.15   49.70
  -2   0  -1 2569.14   50.19
   2   0   1 2503.75   53.49
   2   0   1 2549.15   49.99
   2   0   1 2502.15   49.00
  -3   0  -1   97.09    9.90
  -3   0  -1   95.49   11.40
  -3   0  -1   98.59    9.90
   3   0   1  107.49   10.00
   3   0   1  122.49   10.90
   3   0   1   90.59   10.80
  -4   0  -1   77.09   10.30
   4   0   1   71.49   10.30
   4   0   1   80.09   12.70
  -5   0  -1   17.70    8.70
   5   0   1   15.70    7.00
   5   0   1   20.20    8.20
   5  -1  -1   35.70   12.50
   5  -1  -1   39.30    9.60
   5  -1  -1   23.00    7.00
  -5   1   1   44.20   12.30
   4  -1  -1  154.98   13.70
   4  -1  -1  159.08   15.30
   4  -1  -1  190.48   18.20
   3  -1  -1  135.79   13.40
   3  -1  -1  132.49   10.40
   3  -1  -1  114.39   11.10
  -3   1   1  150.88   13.70
   2  -1  -1 1644.94   41.50
   2  -1  -1 1643.04   38.40
   2  -1  -1 1587.64   34.30
  -2   1   1 1592.14   40.50
   1  -1  -1 2260.47   42.40
   1  -1  -1 2295.87   40.90
   1  -1  -1 2406.66   37.60
  -1   1   1 2401.06   42.50
  -2  -1  -1   23.60    4.40
  -2  -1  -1   18.80    4.80
  -2  -1  -1   17.80    3.50
   2   1   1   20.00    3.60
   2   1   1   25.90    4.50
   2   1   1   26.60    5.00
  -3  -1  -1 2363.16   54.59
  -3  -1  -1 2253.17   52.59
  -3  -1  -1 2315.57   60.49
   3   1   1 2297.37   52.69
   3   1   1 2366.06   54.59
  -4  -1  -1   -1.80    3.10
   4   1   1    2.80    3.80
   4   1   1    2.80    3.40
  -5  -1  -1  150.98   18.30
   5   1   1  177.18   22.50
   5   1   1  140.59   15.10
   5   1   1  199.08   17.70
   5  -2  -1   -3.10    3.10
   5  -2  -1   -6.10    4.60
   5  -2  -1    3.50    5.10
   4  -2  -1   65.89    9.00
   4  -2  -1   73.09   12.00
   4  -2  -1   66.79   10.70
   3  -2  -1  724.33   30.90
   3  -2  -1  692.13   24.70
   3  -2  -1  678.83   27.90
  -3   2   1  672.33   29.30
   2  -2  -1  110.79    8.00
   2  -2  -1  108.49    8.90
   2  -2  -1  116.39    9.80
  -2   2   1  121.69    9.80
  -2   2   1  102.39    8.80
   1  -2  -1 1157.28   25.80
   1  -2  -1 1204.08   26.40
  -1   2   1 1165.58   25.80
  -1   2   1 1195.68   28.70
   0  -2  -1 1028.50   18.00
   0  -2  -1 1027.10   18.10
   0   2   1 1009.10   17.80
   1   2   1 5874.61   87.49
   1   2   1 5943.11   88.39
  -2  -2  -1  369.16   18.00
  -2  -2  -1  344.17   13.60
  -2  -2  -1  361.56   16.00
   2   2   1  331.17   17.00
   2   2   1  366.36   14.20
   2   2   1  377.46   16.10
  -3  -2  -1   45.80    7.30
  -3  -2  -1   49.00    8.90
   3   2   1   45.70    7.00
   3   2   1   44.80    8.40
   3   2   1   55.89    8.00
  -4  -2  -1  136.69   13.80
   4   2   1  167.88   14.50
   4   2   1  161.48   14.00
  -5  -2  -1   16.20    6.20
  -5  -2  -1    0.40    5.90
   5   2   1   22.40    8.10
   5   2   1   18.30   10.00
   5  -3  -1   26.50    9.60
   5  -3  -1   34.40   11.20
   5  -3  -1   70.29   12.00
  -5   3   1   35.20   11.10
   4  -3  -1   -1.20    3.70
   4  -3  -1    2.70    3.20
   4  -3  -1   -0.30    3.20
   3  -3  -1  634.74   24.10
   3  -3  -1  661.33   29.20
   3  -3  -1  655.23   27.80
  -3   3   1  638.74   28.40
   2  -3  -1 1354.46   35.70
   2  -3  -1 1398.46   36.90
   2  -3  -1 1368.96   32.10
  -2   3   1 1423.36   36.60
  -2   3   1 1372.86   36.20
   1  -3  -1  722.93   18.70
   1  -3  -1  677.93   18.90
  -1   3   1  676.93   19.20
  -1   3   1  684.23   18.20
   0  -3  -1   14.70    1.70
   0  -3  -1   18.20    2.60
   0  -3  -1   17.20    2.30
   0   3   1   18.80    1.80
   0   3   1   14.70    2.40
  -1  -3  -1 1048.30   24.90
  -1  -3  -1 1060.79   25.50
   1   3   1 1058.49   24.70
   1   3   1 1006.40   17.80
  -2  -3  -1  170.58   12.40
  -2  -3  -1  171.38   11.20
   2   3   1  169.38   12.10
   2   3   1  156.88    8.70
   2   3   1  151.98   10.30
  -3  -3  -1   26.80    6.40
  -3  -3  -1   19.80    6.00
   3   3   1   14.70    5.00
   3   3   1   16.30    5.60
   3   3   1   31.20    6.50
   4   3   1   16.00    5.10
   4   3   1   10.30    4.40
  -5  -3  -1   15.30    9.90
  -5  -3  -1   13.10    6.00
   5   3   1   42.70    9.10
   5   3   1   14.00    6.90
   5   3   1    6.50    7.60
   5  -4  -1   63.59   12.50
   5  -4  -1   68.39   12.50
  -5   4   1   77.09   14.80
   4  -4  -1   90.59   12.80
   4  -4  -1  102.29   13.00
   3  -4  -1  454.25   20.50
   3  -4  -1  440.26   23.40
   3  -4  -1  488.75   24.20
  -3   4   1  440.46   23.20
   2  -4  -1 1972.00   46.60
   2  -4  -1 2084.69   47.00
   2  -4  -1 2053.99   43.10
  -2   4   1 2099.79   47.90
  -2   4   1 2024.40   46.10
   1  -4  -1  515.35   15.20
   1  -4  -1  467.75   18.10
  -1   4   1  521.25   15.10
  -1   4   1  477.45   16.20
  -1  -4  -1  341.77   13.70
  -1  -4  -1  352.96   14.50
  -1  -4  -1  356.06   14.10
   1   4   1  349.47   13.50
   1   4   1  346.47   13.90
  -2  -4  -1 1492.65   38.10
  -2  -4  -1 1422.56   39.70
   2   4   1 1457.45   39.30
   2   4   1 1436.16   29.90
   2   4   1 1450.75   36.60
  -3  -4  -1   14.70    5.30
  -3  -4  -1    6.90    4.40
   3   4   1    4.40    2.90
   3   4   1   19.40    4.30
   3   4   1   10.50    4.90
  -4  -4  -1  534.45   28.20
   4   4   1  541.65   24.80
   4   4   1  555.74   27.20
  -5  -4  -1   18.80    7.80
   5   4   1    6.20    5.60
   5   4   1    9.60    8.40
   5  -5  -1   -0.40    4.90
   5  -5  -1    1.60    4.10
   5  -5  -1   15.50    6.80
  -5   5   1   -7.60    6.10
   4  -5  -1  442.96   23.20
   4  -5  -1  475.25   27.70
   4  -5  -1  462.95   28.00
   3  -5  -1  438.96   23.30
   3  -5  -1  468.35   23.70
   3  -5  -1  438.56   20.80
  -3   5   1  443.06   24.00
  -3   5   1  428.96   22.80
   2  -5  -1  826.92   26.50
   2  -5  -1  808.22   27.60
  -2   5   1  799.52   25.80
  -2   5   1  809.72   28.20
   1  -5  -1   46.40    4.30
   1  -5  -1   44.30    5.50
   1  -5  -1   45.70    5.40
  -1   5   1   48.70    4.40
  -1   5   1   46.00    5.30
  -1  -5  -1 1939.51   42.60
  -1  -5  -1 1910.61   40.80
  -1  -5  -1 1918.61   40.10
   1   5   1 1949.70   41.70
   1   5   1 1902.31   40.10
  -2  -5  -1  147.19   11.90
  -2  -5  -1  144.79   11.20
   2   5   1  129.09    7.00
   2   5   1  137.29   11.30
   2   5   1  136.59   10.40
  -3  -5  -1  609.54   27.20
   3   5   1  660.53   22.00
   3   5   1  638.54   26.30
   3   5   1  631.04   29.70
  -4  -5  -1   34.60    9.60
  -4  -5  -1   42.90   10.30
   4   5   1   34.00    8.00
   4   5   1   40.80    9.40
  -5  -5  -1   95.59   14.30
   5   5   1   98.39   20.50
   5   5   1  110.49   13.60
   5   5   1   94.09   14.00
   4  -6  -1    5.70    4.30
   4  -6  -1    1.70    4.20
   4  -6  -1   -1.30    4.00
  -4   6   1    3.80    4.20
   3  -6  -1    9.30    3.80
   3  -6  -1    9.10    4.60
   3  -6  -1    8.20    3.80
  -3   6   1    4.70    3.70
  -3   6   1    6.90    4.30
   2  -6  -1   27.90    4.90
   2  -6  -1   28.20    6.20
  -2   6   1   38.00    5.30
  -2   6   1   18.00    5.20
   1  -6  -1 1205.78   29.80
   1  -6  -1 1289.07   33.80
   1  -6  -1 1250.37   26.20
  -1   6   1 1240.98   30.90
  -1   6   1 1282.87   26.80
   0  -6  -1  315.17   15.10
   0  -6  -1  302.17   13.50
   0  -6  -1  309.17    9.50
   0   6   1  320.67   10.10
   0   6   1  321.37   14.30
  -1  -6  -1  754.12   24.20
  -1  -6  -1  782.92   23.00
  -1  -6  -1  793.12   26.30
   1   6   1  783.92   24.20
   1   6   1  795.02   25.40
  -2  -6  -1   18.50    5.70
  -2  -6  -1    7.40    3.60
  -2  -6  -1   16.70    5.30
   2   6   1    6.60    2.90
   2   6   1   15.70    2.90
   2   6   1   10.10    4.00
  -3  -6  -1 1140.79   39.60
   3   6   1 1112.29   40.60
   3   6   1 1131.29   29.30
   3   6   1 1206.88   41.50
  -4  -6  -1   53.89   11.80
  -4  -6  -1   36.40   10.30
   4   6   1   55.49    8.20
   4   6   1   54.39    9.40
   4   6   1   78.99   15.60
  -5  -6  -1   17.80    7.60
   5   6   1   14.10    7.90
   5   6   1    8.40    5.30
   4  -7  -1   62.19   10.90
   4  -7  -1   76.69   11.60
   4  -7  -1   72.09   10.60
  -4   7   1   55.19    9.60
   3  -7  -1  134.49   13.30
   3  -7  -1  122.79   12.10
   3  -7  -1  135.59   12.10
  -3   7   1  106.89   12.60
  -3   7   1  139.49   12.70
   2  -7  -1    5.60    2.20
   2  -7  -1    3.00    2.90
  -2   7   1    5.30    2.60
  -2   7   1    3.50    2.90
   1  -7  -1   14.20    2.50
   1  -7  -1   11.00    3.60
   1  -7  -1    8.50    2.90
  -1   7   1    7.40    2.80
   0  -7  -1  259.87   13.40
   0  -7  -1  270.47    9.40
   0  -7  -1  274.57   15.30
   0   7   1  270.87    9.80
   0   7   1  256.37   13.70
  -1  -7  -1 1165.28   35.80
  -1  -7  -1 1211.28   30.70
   1   7   1 1179.18   34.40
  -2  -7  -1    7.70    3.60
  -2  -7  -1    8.10    4.20
  -2  -7  -1    6.10    3.30
   2   7   1    4.60    3.00
   2   7   1    9.40    4.10
  -3  -7  -1  140.19   14.40
  -3  -7  -1  124.99   13.10
   3   7   1  118.39   11.80
   3   7   1  124.89    8.20
  -4  -7  -1  140.79   15.20
  -4  -7  -1  104.69   15.70
   4   7   1  120.29   10.50
   4   7   1  101.69   13.20
   4   7   1  117.09   15.40
   4  -8  -1  110.59   13.10
   4  -8  -1  141.09   14.70
   4  -8  -1  115.59   14.50
  -4   8   1  121.89   14.20
   3  -8  -1  330.47   21.30
   3  -8  -1  345.37   20.20
   3  -8  -1  335.27   19.40
  -3   8   1  340.97   19.10
   2  -8  -1  216.38   12.30
   2  -8  -1  184.88   13.70
   2  -8  -1  213.38   16.40
  -2   8   1  235.48   16.00
  -2   8   1  228.38   12.40
   1  -8  -1 1464.55   28.30
   1  -8  -1 1365.76   38.90
   1  -8  -1 1424.46   34.70
  -1   8   1 1456.85   36.10
   0  -8  -1 1656.63   43.90
   0  -8  -1 1589.54   40.30
   0  -8  -1 1646.94   30.40
   0   8   1 1618.04   41.40
   0   8   1 1588.24   32.50
  -1  -8  -1  838.02   31.80
  -1  -8  -1  831.22   29.00
  -1  -8  -1  878.01   25.80
   1   8   1  898.01   30.90
  -2  -8  -1   34.00    7.60
  -2  -8  -1   23.10    5.70
  -2  -8  -1   34.10    7.60
   2   8   1   31.60    7.70
   2   8   1   41.20    7.70
  -3  -8  -1    2.20    2.70
  -3  -8  -1    0.00    3.00
   3   8   1    3.80    2.70
   3   8   1    5.90    4.00
   3   8   1    6.80    2.60
  -4  -8  -1  132.99   15.50
  -4  -8  -1  133.79   17.20
   4   8   1  132.99   17.90
   4   8   1  110.99   13.80
   4   8   1  155.58   10.90
   4  -9  -1   79.19   11.20
   4  -9  -1   89.19   12.30
   4  -9  -1   96.99   13.40
  -4   9   1   87.39   11.90
   3  -9  -1   51.19    8.70
   3  -9  -1   45.10    9.80
   3  -9  -1   52.39    8.40
   3  -9  -1   63.79    8.70
  -3   9   1   52.89    7.90
   2  -9  -1  404.56   16.60
   2  -9  -1  377.36   22.10
   2  -9  -1  420.96   20.90
  -2   9   1  401.16   21.40
  -2   9   1  418.16   16.80
   1  -9  -1 1214.28   37.80
   1  -9  -1 1256.67   32.60
  -1   9   1 1259.97   33.90
   0  -9  -1 1656.13   43.60
   0  -9  -1 1616.04   31.10
   0  -9  -1 1633.24   46.20
   0   9   1 1667.63   33.10
   0   9   1 1629.74   44.00
  -1  -9  -1   18.40    4.80
  -1  -9  -1   15.50    4.70
  -1  -9  -1   23.40    7.00
   1   9   1   21.40    6.10
  -2  -9  -1 1266.67   39.50
  -2  -9  -1 1204.38   40.70
  -2  -9  -1 1301.47   45.00
   2   9   1 1235.48   41.30
  -3  -9  -1  175.58   16.60
  -3  -9  -1  152.28   15.80
   3   9   1  171.98   15.10
   3   9   1  165.18   16.60
  -4  -9  -1  113.29   15.40
  -4  -9  -1  113.59   16.60
   4   9   1  124.59   14.30
   4   9   1  147.39   18.40
   4 -10  -1   12.80    7.00
   4 -10  -1   -0.70    4.90
   4 -10  -1   10.40    4.20
  -4  10   1    1.50    4.40
   3 -10  -1    5.90    2.40
   3 -10  -1    3.70    3.20
   3 -10  -1   -0.20    3.10
  -3  10   1   -4.40    2.10
   2 -10  -1  190.98   14.20
   2 -10  -1  169.08   11.70
  -2  10   1  167.98   17.50
   1 -10  -1  759.72   24.80
   1 -10  -1  729.63   29.90
  -1  10   1  777.92   26.40
   0 -10  -1  332.67   18.90
   0 -10  -1  346.97   20.70
   0  10   1  340.17   13.10
   0  10   1  338.37   19.50
  -1 -10  -1   55.19    8.40
  -1 -10  -1   49.80    9.60
  -1 -10  -1   76.59    7.50
   1  10   1   59.49    9.10
  -2 -10  -1  140.89   12.60
  -2 -10  -1  137.69   15.30
  -2 -10  -1  167.38   16.50
   2  10   1  137.69   14.20
  -3 -10  -1  195.98   17.80
  -3 -10  -1  217.48   18.90
  -4 -10  -1   40.30   16.30
  -4 -10  -1   30.90    8.60
   4  10   1   10.80    5.50
   4 -11  -1    3.10    7.80
  -4  11   1    0.70    4.70
   3 -11  -1   66.39   11.00
   3 -11  -1   62.99    8.30
   3 -11  -1   97.79   12.80
   2 -11  -1  184.38   14.30
   2 -11  -1  168.68    9.10
   2 -11  -1  138.19   14.60
  -2  11   1  167.58   14.80
   1 -11  -1   28.30    5.40
   1 -11  -1   42.70    7.60
  -1  11   1   33.50    5.90
   0 -11  -1   11.70    3.00
   0 -11  -1    9.90    4.60
   0 -11  -1    3.80    3.60
   0  11   1    7.50    4.30
   0  11   1    8.60    2.80
  -1 -11  -1   96.69   12.70
  -1 -11  -1   90.69   10.80
  -1 -11  -1   96.69    8.40
   1  11   1  106.59   12.20
  -2 -11  -1   69.39   10.60
  -2 -11  -1   57.19    8.40
  -2 -11  -1   55.59   11.20
   2  11   1   74.59   11.70
  -3 -11  -1    6.90    4.50
  -3 -11  -1    4.80    3.60
   3  11   1    3.60    6.00
  -4 -11  -1    1.50    6.20
   4  11   1    7.70    8.00
   4  11   1    3.10    5.30
   3 -12  -1  175.28   17.60
   3 -12  -1  158.88   15.00
   2 -12  -1   87.29   11.00
   2 -12  -1   88.79   11.90
  -2  12   1   60.69   10.10
   1 -12  -1  292.97   15.50
  -1  12   1  301.47   17.00
   0 -12  -1  379.96   25.80
   0 -12  -1  356.46   23.40
   0 -12  -1  351.16   13.20
   0  12   1  329.97   22.50
  -1 -12  -1  637.44   22.10
  -1 -12  -1  658.63   31.10
  -1 -12  -1  562.54   31.60
   1  12   1  681.53   31.10
  -2 -12  -1   76.09   11.20
  -2 -12  -1   69.89   13.90
  -2 -12  -1   81.79   10.20
   2  12   1   73.29   12.30
  -3 -12  -1  137.09   15.50
   3  12   1  145.19   18.00
   3 -13  -1   64.49   11.80
   2 -13  -1  117.89   12.00
   2 -13  -1  128.99   14.70
   1 -13  -1  121.89   10.40
   1 -13  -1  107.49   12.70
   1 -13  -1  114.19   14.30
  -1  13   1  101.89   10.30
   0 -13  -1  173.48    9.30
   0 -13  -1  210.08   18.80
   0 -13  -1  177.78   16.20
   0  13   1  190.78   18.30
  -1 -13  -1   16.80    6.30
  -1 -13  -1   35.60    5.90
  -1 -13  -1   37.20   10.30
   1  13   1   20.10    6.80
  -2 -13  -1  126.59   12.50
  -2 -13  -1  122.19   17.20
  -2 -13  -1  115.49   15.30
  -3 -13  -1   18.20    9.50
  -3 -13  -1    9.30    8.40
  -3 -13  -1   13.70    5.80
   3  13   1   14.20    8.30
   3 -14  -1    5.60    5.40
   3 -14  -1   -2.00    5.40
   2 -14  -1    0.70    2.90
   2 -14  -1   -4.90    3.90
   1 -14  -1   66.59    9.90
   1 -14  -1   52.79    9.60
   1 -14  -1   42.60    7.20
   0 -14  -1  329.67   24.40
   0 -14  -1  323.87   22.50
   0 -14  -1  305.97   13.00
  -1 -14  -1  102.19   14.90
  -1 -14  -1  116.89   14.50
  -1 -14  -1  117.19    9.10
  -2 -14  -1   62.99   13.90
  -2 -14  -1   37.40   10.50
  -2 -14  -1   49.80    9.10
   2  14   1   36.10    9.60
  -3 -14  -1   30.00   10.90
  -3 -14  -1    8.80    9.40
  -3 -14  -1   35.00   10.20
   3  14   1    7.10   11.10
   2 -15  -1   -0.30    3.20
   2 -15  -1    5.90    5.20
   1 -15  -1   12.70    4.40
   1 -15  -1   11.60    5.30
   1 -15  -1   37.90    6.90
   0 -15  -1   95.69   13.60
   0 -15  -1  100.29   15.80
   0  15   1   76.79   14.70
  -1 -15  -1   21.80    7.40
  -1 -15  -1   19.10    7.30
   1  15   1    9.40    7.00
  -2 -15  -1   23.00    8.70
  -2 -15  -1   16.90    5.30
   2  15   1   21.10    8.20
   1 -16  -1   26.50    8.70
   1 -16  -1   21.70    7.30
   1 -16  -1   18.30    5.50
   0 -16  -1   23.00    9.30
  -1 -16  -1   -8.20    5.60
  -2 -16  -1   13.80   10.00
  -2 -16  -1   31.60    7.20
   2  16   1   26.50   11.30
   0 -17  -1   31.40   10.10
   0 -17  -1   54.49   16.60
  -1 -17  -1   13.50    8.40
   1  17   1   26.30    9.50
  -1 -16   2    8.20    6.90
  -1 -16   2    8.60    7.40
   0  16  -2   40.90   14.20
   0 -16   2   39.70   11.60
   1 -16   2   63.89   15.00
   1 -16   2   72.79   10.40
   1 -16   2   37.90   12.00
  -2 -15   2   12.80    9.20
  -2 -15   2   21.20   10.00
  -2 -15   2   34.40    7.50
   1  15  -2   10.90    8.90
  -1 -15   2    7.50    6.30
  -1 -15   2    6.70    5.70
   0  15  -2   63.89   16.40
   0 -15   2   86.69   15.00
   0 -15   2  114.79   15.00
  -1  15  -2    0.20    4.00
   1 -15   2    5.50    6.20
  -2  15  -2   74.39   14.20
   2 -15   2   72.19   10.00
   2 -15   2   66.99   13.70
   2  14  -2   12.50    7.00
  -2 -14   2   11.40    4.90
  -2 -14   2   15.10    9.30
  -2 -14   2   -2.30    5.00
   1  14  -2  299.07   24.10
  -1 -14   2  266.27   22.60
  -1 -14   2  299.87   26.50
   0  14  -2  153.38   18.70
   0 -14   2  106.49   14.00
   0 -14   2   80.39   14.30
  -1  14  -2   44.30    8.50
   1 -14   2   55.79   11.20
   1 -14   2   66.69    8.50
  -2  14  -2   81.09   13.10
   2 -14   2   79.99   10.60
   2 -14   2   97.29   15.00
   3  13  -2   13.40    9.40
  -3 -13   2    4.70    6.00
   2  13  -2   -3.00    4.30
  -2 -13   2   -3.50    5.30
  -2 -13   2    1.90    3.20
  -2 -13   2    0.90    3.70
   1  13  -2   18.70    6.50
  -1 -13   2    7.90    5.00
  -1 -13   2    4.10    4.20
   0  13  -2  113.39   16.90
   0  13  -2  113.69    9.40
   0 -13   2  101.59   12.50
   0 -13   2   89.19   14.10
  -1  13  -2    6.50    4.10
   1 -13   2    7.60    5.70
   1 -13   2    3.50    3.20
   2 -13   2   25.20    8.10
   2 -13   2   14.90    5.30
  -3  13  -2   -7.50    6.50
   3 -13   2   -2.50    4.30
   3 -13   2    2.50    3.60
   3  12  -2  187.78   21.00
  -3 -12   2  190.58   22.30
  -3 -12   2  160.88   16.50
  -3 -12   2  153.58   18.60
   2  12  -2   55.69   12.10
  -2 -12   2   80.49    9.70
  -2 -12   2   65.19   12.20
  -2 -12   2   56.49   13.90
  -1 -12   2  310.97   13.10
  -1 -12   2  300.57   24.50
  -1 -12   2  286.37   21.30
   0  12  -2   12.40    5.40
   0  12  -2   13.20    3.70
   0 -12   2   10.50    5.80
   0 -12   2    5.30    3.20
  -1  12  -2    2.40    2.70
   1 -12   2   -1.30    2.00
   1 -12   2    2.10    3.40
   2 -12   2   84.19   13.20
   2 -12   2   77.59   10.50
   3 -12   2   67.99   10.90
   3 -12   2   68.99   13.40
   3  11  -2   30.10   10.20
  -3 -11   2   29.50    8.60
  -3 -11   2   19.10    8.70
  -3 -11   2   31.60    8.90
  -2 -11   2  433.86   26.70
  -2 -11   2  472.65   22.90
  -2 -11   2  449.36   30.70
   1  11  -2  671.43   18.60
   1  11  -2  653.43   32.20
  -1 -11   2  691.63   35.10
  -1 -11   2  698.43   21.40
   0  11  -2  830.12   25.30
   0  11  -2  859.51   36.50
   0 -11   2  813.52   23.70
   0 -11   2  819.82   36.70
   0 -11   2  855.31   37.30
  -1  11  -2  257.17   15.80
   1 -11   2  275.67   15.00
   1 -11   2  241.48   21.40
  -2  11  -2  393.86   23.10
   2 -11   2  375.46   24.80
   2 -11   2  449.66   26.00
  -3  11  -2   28.80    9.10
   3 -11   2   39.50    8.50
   3 -11   2   23.20    8.10
  -4 -10   2   18.10    8.90
  -4 -10   2   25.30    9.80
   3  10  -2   28.90    9.40
  -3 -10   2   24.40    7.10
  -3 -10   2   13.50    6.60
   2  10  -2   38.60    4.40
   2  10  -2   52.69   10.20
  -2 -10   2   26.90    8.40
  -2 -10   2   30.70    7.50
  -2 -10   2   51.39    9.90
   1  10  -2    1.60    1.70
  -1 -10   2    7.10    5.50
  -1 -10   2    1.70    3.20
  -1 -10   2    1.30    1.90
   0  10  -2   77.49    7.00
   0  10  -2   71.29   10.30
   0 -10   2   79.29   11.10
   0 -10   2   72.79    7.10
  -1  10  -2  418.96   19.80
   1 -10   2  425.76   18.70
   1 -10   2  450.75   25.10
  -2  10  -2  297.87   19.20
   2 -10   2  257.87   16.70
   2 -10   2  268.97   19.60
  -3  10  -2  219.48   19.40
   3 -10   2  204.88   17.10
   3 -10   2  211.28   19.60
   4 -10   2   68.59   13.00
   4 -10   2   41.10   11.30
   4 -10   2   49.80   13.80
   4   9  -2   30.40   10.20
  -4  -9   2   28.60    8.20
  -4  -9   2   36.10   11.10
   3   9  -2  357.36   25.50
   3   9  -2  303.07   14.10
  -3  -9   2  307.97   22.20
  -3  -9   2  343.37   22.80
   2   9  -2   46.70    4.50
   2   9  -2   51.89    9.80
  -2  -9   2   44.20   11.20
  -2  -9   2   47.50    8.40
  -2  -9   2   44.40    7.50
   1   9  -2   31.80    3.90
   1   9  -2   39.20    8.10
  -1  -9   2   42.80    5.40
  -1  -9   2   25.90    7.10
  -1  -9   2   21.10    7.10
   0   9  -2    7.80    4.70
   0   9  -2   14.50    3.50
   0  -9   2   13.50    3.70
   0  -9   2   10.40    4.90
  -1   9  -2   83.99    9.10
   1  -9   2   71.79    9.80
   1  -9   2   73.09    7.70
  -2   9  -2   11.90    4.80
   2  -9   2    9.10    4.90
   2  -9   2   13.60    4.90
  -3   9  -2   -5.30    3.50
  -3   9  -2    1.00    1.90
   3  -9   2    3.00    4.10
   3  -9   2    4.80    1.80
  -4   9  -2   -4.20    5.00
   4  -9   2    8.40    6.10
   4  -9   2   16.80    8.20
   4  -9   2   12.00    5.50
   4   8  -2   17.00    5.70
   4   8  -2   13.00    6.20
   4   8  -2   25.20    9.30
  -4  -8   2   28.40   10.90
  -4  -8   2   11.90    6.70
   3   8  -2  502.45   19.30
  -3  -8   2  494.95   26.90
   2   8  -2   62.19    9.00
   2   8  -2   74.49   11.30
  -2  -8   2   47.70    8.10
  -2  -8   2   66.99   11.10
  -2  -8   2   60.39    8.20
   1   8  -2 1737.63   32.80
   1   8  -2 1673.43   49.00
  -1  -8   2 1811.72   46.90
  -1  -8   2 1832.52   38.90
  -1  -8   2 1706.73   52.29
   0   8  -2 1268.67   29.60
   0   8  -2 1252.27   39.20
   0  -8   2 1266.47   40.50
   0  -8   2 1281.57   29.00
  -1   8  -2  948.11   29.20
   1  -8   2  960.90   33.30
   1  -8   2  945.51   27.40
  -2   8  -2   16.60    5.20
   2  -8   2   14.70    4.30
   2  -8   2   19.50    6.20
  -3   8  -2   11.70    4.60
   3  -8   2   20.60    6.80
   3  -8   2   23.80    7.70
   3  -8   2   15.20    5.40
  -4   8  -2   -0.30    4.00
  -4   8  -2   -0.70    4.40
   4  -8   2   -1.60    2.40
   4  -8   2    0.80    4.30
   4  -8   2   -8.70    4.30
   4   7  -2    6.20    6.70
   4   7  -2    3.90    3.90
   4   7  -2    0.30    3.40
  -4  -7   2    0.50    3.60
  -4  -7   2   -2.40    3.60
   3   7  -2  380.06   20.70
   3   7  -2  411.66   25.20
   3   7  -2  378.66   17.20
   3   7  -2  353.16   24.20
  -3  -7   2  366.26   23.30
  -3  -7   2  422.76   23.60
   2   7  -2  137.39   13.60
   2   7  -2  120.39   11.80
  -2  -7   2  135.89   14.40
  -2  -7   2  135.29   12.10
  -2  -7   2  145.39   12.30
   1   7  -2 1054.09   35.70
   1   7  -2 1074.69   28.60
  -1  -7   2 1080.79   32.70
  -1  -7   2 1046.40   37.60
  -1  -7   2 1092.59   28.00
   0   7  -2  500.85   16.20
   0   7  -2  517.55   22.90
   0  -7   2  508.95   23.10
   0  -7   2  533.95   16.50
  -1   7  -2  504.15   19.60
   1  -7   2  475.95   18.10
   1  -7   2  494.55   21.90
  -2   7  -2 2484.05   46.80
  -2   7  -2 2364.26   56.59
   2  -7   2 2355.86   54.89
   2  -7   2 2451.75   60.09
  -3   7  -2  656.93   26.20
  -3   7  -2  651.43   31.40
   3  -7   2  630.84   31.40
   3  -7   2  630.34   29.60
   3  -7   2  613.84   28.20
  -4   7  -2  234.68   19.20
  -4   7  -2  237.08   25.70
   4  -7   2  232.58   19.60
   4  -7   2  246.18   20.40
   4   6  -2  184.28   20.20
   4   6  -2  206.48   14.90
   4   6  -2  204.08   15.90
   4   6  -2  204.78   20.30
  -4  -6   2  197.78   20.00
  -4  -6   2  208.18   17.90
   3   6  -2    2.50    3.60
   3   6  -2   11.80    4.20
   3   6  -2    6.90    5.30
   3   6  -2    6.40    3.30
  -3  -6   2    6.10    3.80
  -3  -6   2    8.30    3.70
   2   6  -2 2241.18   55.49
   2   6  -2 2239.38   50.39
   2   6  -2 2233.38   57.49
  -2  -6   2 2225.28   60.89
  -2  -6   2 2282.77   52.99
  -2  -6   2 2303.27   54.59
   1   6  -2  886.51   30.50
   1   6  -2  751.52   21.60
  -1  -6   2  910.11   32.40
  -1  -6   2 1004.70   29.00
  -1  -6   2  933.61   25.00
   0   6  -2  998.10   23.30
   0   6  -2  947.91   30.40
   0  -6   2 1020.00   31.80
   0  -6   2  982.50   22.90
  -1   6  -2   42.00    5.40
   1  -6   2   38.90    5.10
   1  -6   2   45.90    6.40
  -2   6  -2  644.74   20.70
  -2   6  -2  619.04   25.10
   2  -6   2  639.64   24.50
   2  -6   2  653.23   27.60
  -3   6  -2    1.90    2.50
  -4   6  -2   64.59   11.00
  -4   6  -2   75.19   12.30
   4  -6   2   99.99   12.90
   4  -6   2   80.49   11.90
   4   5  -2  122.29   11.90
   4   5  -2  156.38   17.90
   4   5  -2  137.29   12.80
   4   5  -2   95.49   14.80
  -4  -5   2  115.69   15.50
  -4  -5   2  107.99   13.40
   3   5  -2    3.20    2.20
   3   5  -2   -2.20    2.10
   3   5  -2    2.40    3.40
   3   5  -2   -1.40    2.00
  -3  -5   2    2.80    2.60
  -3  -5   2   -0.50    1.70
   2   5  -2   18.10    5.50
   2   5  -2   10.50    3.60
   2   5  -2    8.20    3.80
  -2  -5   2   13.50    5.40
  -2  -5   2   16.30    4.90
  -2  -5   2   18.30    5.20
   1   5  -2  428.26   18.80
   1   5  -2  426.16   19.20
  -1  -5   2  405.96   15.60
  -1  -5   2  421.66   16.90
  -1  -5   2  411.66   20.00
   0   5  -2 2857.11   57.49
   0  -5   2 2905.31   48.00
   0  -5   2 2889.21   58.39
  -1   5  -2 1448.56   34.00
   1  -5   2 1436.76   35.80
   1  -5   2 1481.25   33.20
  -2   5  -2  327.97   14.90
  -2   5  -2  341.17   17.90
   2  -5   2  343.47   17.10
  -3   5  -2  386.76   22.40
  -3   5  -2  379.66   20.40
   3  -5   2  385.86   21.30
   3  -5   2  395.36   21.50
  -4   5  -2   23.00    8.00
  -4   5  -2   25.10    7.80
   4  -5   2   29.10    7.50
   4  -5   2   38.90   10.60
  -5   5  -2   25.20    8.90
   5  -5   2    9.20    7.50
   5  -5   2    8.30    6.90
   5   4  -2    1.30    5.10
   5   4  -2    8.40    6.00
  -5  -4   2   -8.00    4.60
   4   4  -2  406.56   28.50
   4   4  -2  373.36   27.40
   4   4  -2  399.16   21.40
   4   4  -2  392.96   21.80
  -4  -4   2  409.96   27.90
  -4  -4   2  417.56   23.70
   3   4  -2   28.20    8.50
   3   4  -2   28.30    5.90
   3   4  -2   17.10    4.70
   3   4  -2   28.40    9.10
  -3  -4   2   21.60    5.90
   2   4  -2  510.45   23.30
   2   4  -2  471.75   22.40
   2   4  -2  522.95   19.10
  -2  -4   2  498.75   19.90
   1   4  -2 1549.74   38.10
   1   4  -2 1515.75   34.70
  -1  -4   2 1534.75   39.80
  -1  -4   2 1543.75   34.10
  -1  -4   2 1589.14   34.40
   0   4  -2   20.50    2.80
   0   4  -2   26.30    4.30
   0   4  -2   21.70    2.10
   0  -4   2   24.20    3.20
   0  -4   2   20.50    1.90
  -1   4  -2  949.21   25.30
  -1   4  -2  942.51   19.60
   1  -4   2  963.00   26.40
   1  -4   2  997.00   25.00
  -2   4  -2  358.26   15.90
  -2   4  -2  339.07   17.20
   2  -4   2  348.87   16.70
   2  -4   2  346.67   17.20
  -3   4  -2 1164.48   38.20
  -3   4  -2 1214.08   48.40
   3  -4   2 1114.89   37.70
   3  -4   2 1131.09   37.30
  -4   4  -2   52.99    9.40
  -4   4  -2   29.80    7.60
   4  -4   2   48.30    8.50
   4  -4   2   35.50    8.60
  -5   4  -2    0.90    6.80
   5  -4   2    7.60    5.00
   5   3  -2  137.19   16.00
   5   3  -2  131.49   20.00
   5   3  -2  142.19   14.40
  -5  -3   2  136.69   15.40
   4   3  -2    0.70    4.10
   4   3  -2   -6.70    3.70
   4   3  -2    2.30    2.30
   4   3  -2    3.00    3.80
  -4  -3   2   -1.20    2.90
   3   3  -2 1165.68   33.40
   3   3  -2 1160.78   43.20
   3   3  -2 1161.68   35.00
   3   3  -2 1230.78   44.30
  -3  -3   2 1173.78   41.90
  -3  -3   2 1187.98   35.60
   2   3  -2  278.17   17.10
   2   3  -2  297.37   13.40
   2   3  -2  300.87   13.70
   2   3  -2  275.17   16.60
  -2  -3   2  293.37   16.50
  -2  -3   2  279.47   13.80
   0   3  -2  238.08    7.00
   0   3  -2  250.57    8.70
   0  -3   2  244.38    8.70
   0  -3   2  238.78    7.10
   0  -3   2  248.58   11.60
  -1   3  -2 1222.58   24.40
  -1   3  -2 1195.18   28.40
   1  -3   2 1263.37   31.00
   1  -3   2 1234.88   32.50
  -2   3  -2    1.10    1.90
  -2   3  -2    3.10    2.00
   2  -3   2    2.00    2.20
   2  -3   2    0.90    1.80
  -3   3  -2  413.16   22.40
  -3   3  -2  443.56   22.80
   3  -3   2  423.06   21.60
   3  -3   2  470.35   22.70
  -4   3  -2  223.08   18.90
  -4   3  -2  223.98   19.30
   4  -3   2  212.68   17.30
   4  -3   2  232.48   18.00
  -5   3  -2   21.70    8.10
   5  -3   2   31.30    9.20
   5   2  -2    6.10    5.30
   5   2  -2   -3.10    5.30
   5   2  -2    7.30    5.40
  -5  -2   2   11.20    5.40
   4   2  -2    2.10    2.90
   4   2  -2    3.90    4.50
   4   2  -2    0.60    4.50
  -4  -2   2    1.80    3.10
   3   2  -2    7.30    4.60
   3   2  -2    9.30    4.40
   3   2  -2    7.40    2.80
   3   2  -2    3.60    2.50
  -3  -2   2    4.50    2.40
   2   2  -2 1010.50   27.80
   2   2  -2 1031.00   33.70
   2   2  -2 1058.19   26.30
   2   2  -2 1018.40   33.10
  -2  -2   2 1068.59   32.90
  -2  -2   2 1044.40   27.10
   1   2  -2  103.49    5.80
   1   2  -2   97.19    7.40
   1   2  -2   94.69    7.70
  -1  -2   2  108.89    9.60
  -1  -2   2   98.09    5.90
  -1  -2   2  105.89    7.30
   0   2  -2 4550.14   70.79
  -1   2  -2 1408.96   27.90
  -1   2  -2 1434.56   30.30
   1  -2   2 1424.16   29.60
  -2   2  -2 6381.46  102.89
  -2   2  -2 6034.90  101.99
   2  -2   2 6224.58  102.29
   2  -2   2 6343.37  101.49
  -3   2  -2   12.80    4.90
  -3   2  -2   16.10    5.10
   3  -2   2   13.40    5.10
   3  -2   2   20.00    6.10
  -4   2  -2  295.27   21.10
  -4   2  -2  276.17   21.80
   4  -2   2  304.77   20.50
   4  -2   2  303.97   20.30
  -5   2  -2   16.10    6.70
   5  -2   2    2.50    4.90
   5  -2   2   -4.10    4.80
   5   1  -2   45.70   13.00
   5   1  -2   58.09   12.30
   5   1  -2   59.29   10.70
   4   1  -2   13.20    4.80
   4   1  -2   36.30    7.20
   4   1  -2   26.90    9.50
  -4  -1   2   19.10    5.40
   3   1  -2  384.26   19.70
   3   1  -2  413.86   17.80
   3   1  -2  418.76   24.50
   3   1  -2  364.46   23.00
  -3  -1   2  405.46   23.20
  -3  -1   2  388.86   18.30
   2   1  -2  246.48   15.40
   2   1  -2  259.77   11.50
   2   1  -2  253.77   13.10
   2   1  -2  249.08   15.60
  -2  -1   2  254.07   15.00
   1   1  -2  274.07   12.30
   1   1  -2  267.47    8.60
  -1  -1   2  264.97    8.80
   0   1  -2    3.70    1.30
   0   1  -2    2.60    1.30
   0   1  -2   13.10    2.00
   0  -1   2    7.00    1.80
  -1   1  -2   59.69    4.90
   1  -1   2   66.19    5.10
  -2   1  -2  170.28   11.40
  -2   1  -2  176.78   11.10
   2  -1   2  166.48   11.00
   2  -1   2  181.98   11.00
  -3   1  -2  651.83   26.60
  -3   1  -2  643.14   28.20
   3  -1   2  647.14   26.20
   3  -1   2  652.93   25.80
  -4   1  -2   13.40    6.70
  -4   1  -2   24.80    7.90
   4  -1   2   17.20    6.00
   4  -1   2   27.90    7.20
  -5   1  -2  102.39   16.30
   5  -1   2  101.09   13.50
   5  -1   2  133.99   16.10
   5   0  -2   28.30    9.20
   5   0  -2   23.20    8.10
   5   0  -2   39.70   10.00
   4   0  -2  455.35   25.30
   4   0  -2  433.56   21.10
   4   0  -2  446.26   29.00
  -4   0   2  454.05   22.40
   3   0  -2    8.80    3.00
   3   0  -2    7.00    3.90
   3   0  -2    4.70    3.00
  -3   0   2    7.70    4.40
  -3   0   2    4.10    2.70
   2   0  -2 4687.13   81.59
   2   0  -2 4819.52   75.49
   2   0  -2 4615.64   87.09
  -2   0   2 4824.82   86.89
  -2   0   2 4885.01   76.49
   1   0  -2   87.59    4.20
  -1   0   2   83.39    7.10
  -1   0   2   86.09    4.30
   0   0  -2  569.24   11.60
   0   0   2  572.64   11.60
  -1   0  -2   43.80    4.10
   1   0   2   38.70    3.90
   1   0   2   43.90    4.70
  -2   0  -2  205.88   13.00
  -2   0  -2  225.68   12.40
  -2   0  -2  208.48   11.70
   2   0   2  209.48   11.60
   2   0   2  233.18   12.90
  -3   0  -2   17.40    6.20
  -3   0  -2   14.50    4.40
  -3   0  -2   12.60    4.70
   3   0   2   21.30    6.10
   3   0   2   17.10    5.30
  -4   0  -2    8.90    4.40
   4   0   2   -4.90    3.90
   4   0   2    4.90    3.90
  -5   0  -2   21.60    9.60
   5   0   2    8.70    5.70
   5   0   2   33.10   10.90
   5  -1  -2   48.90   15.20
   5  -1  -2   25.90    8.60
   5  -1  -2   33.00    8.70
  -5   1   2   67.59   17.80
   4  -1  -2  309.77   21.20
   4  -1  -2  306.07   23.50
   4  -1  -2  292.97   17.50
   3  -1  -2  850.01   35.00
   3  -1  -2  851.81   26.60
   3  -1  -2  819.72   30.60
  -3   1   2  869.01   34.20
   2  -1  -2    1.90    2.10
   2  -1  -2    1.30    1.40
   2  -1  -2    1.50    1.90
  -2   1   2   -1.00    1.30
  -2   1   2    3.50    2.30
   1  -1  -2 3426.56   49.10
   0  -1  -2   16.30    1.50
   0   1   2   17.40    1.60
  -2  -1  -2   80.09    6.90
  -2  -1  -2   82.09    8.50
  -2  -1  -2   79.29    7.60
   2   1   2   77.29    7.50
   2   1   2   86.39    6.80
  -3  -1  -2 1027.50   32.40
  -3  -1  -2 1009.70   33.50
  -3  -1  -2 1017.40   37.30
   3   1   2 1076.49   34.60
   3   1   2  975.50   31.20
   4   1   2   21.20    6.30
   4   1   2   12.70    5.50
  -5  -1  -2  117.29   17.90
   5   1   2  175.58   17.50
   5   1   2  143.09   15.20
   5   1   2  154.68   21.30
   5  -2  -2   36.80    8.90
  -5   2   2   40.70   12.50
   4  -2  -2   49.80   10.00
   4  -2  -2   23.20    6.40
   4  -2  -2   27.80    7.80
   3  -2  -2 1341.77   41.00
   3  -2  -2 1368.66   35.50
   3  -2  -2 1339.07   44.60
  -3   2   2 1421.16   44.40
   2  -2  -2   30.40    5.50
   2  -2  -2   33.90    5.30
   2  -2  -2   30.60    4.20
  -2   2   2   43.80    6.40
   1  -2  -2 1396.96   31.00
   1  -2  -2 1377.16   29.80
   0  -2  -2   37.50    2.60
   0  -2  -2   41.80    2.40
   0   2   2   41.60    2.70
  -1  -2  -2 2678.93   41.60
  -1  -2  -2 2702.93   47.40
   1   2   2 2767.82   45.50
   1   2   2 2632.94   40.90
  -2  -2  -2  225.98   11.00
  -2  -2  -2  243.28   14.60
  -2  -2  -2  259.07   13.90
   2   2   2  242.48   11.30
   2   2   2  240.88   13.30
  -3  -2  -2   19.40    5.10
  -3  -2  -2   18.50    5.10
  -3  -2  -2   21.50    7.10
   3   2   2   21.60    6.50
   3   2   2   15.90    4.90
  -4  -2  -2  847.22   43.50
   4   2   2  841.72   32.20
   4   2   2  807.82   34.00
  -5  -2  -2    3.90    5.80
  -5  -2  -2    7.50    5.00
   5   2   2   -0.90    3.40
   5   2   2   10.50    6.00
   5   2   2   -1.20    8.00
   5  -3  -2   26.30    7.70
   5  -3  -2   32.20    9.70
  -5   3   2   25.70    8.30
   4  -3  -2   -4.60    2.40
   4  -3  -2   -2.30    3.50
   4  -3  -2    1.10    4.10
   3  -3  -2  260.57   18.30
   3  -3  -2  264.87   14.30
   3  -3  -2  270.67   18.00
  -3   3   2  264.27   18.40
   2  -3  -2    9.20    3.90
   2  -3  -2    7.70    2.90
   2  -3  -2    7.80    2.90
  -2   3   2   11.80    4.20
   1  -3  -2 1957.10   42.70
   1  -3  -2 2071.09   39.90
  -1  -3  -2  286.77   12.00
  -1  -3  -2  278.47    7.70
   1   3   2  288.67   10.90
   1   3   2  280.17    7.30
   1   3   2  275.37   11.60
  -2  -3  -2  213.58   10.20
  -2  -3  -2  239.88   13.50
   2   3   2  239.68   13.90
   2   3   2  230.58   10.40
   2   3   2  227.48   12.90
  -3  -3  -2   11.80    4.80
  -3  -3  -2   11.40    3.80
  -3  -3  -2   16.80    6.00
   3   3   2   11.20    4.10
   3   3   2   11.20    4.90
   3   3   2   10.30    4.30
  -4  -3  -2  129.69   13.90
   4   3   2  126.09   15.80
   4   3   2  152.08   13.00
   4   3   2  143.39   13.90
  -5  -3  -2   58.39   11.60
  -5  -3  -2   32.00   11.80
   5   3   2   40.80   12.90
   5   3   2   51.29    9.40
   5  -4  -2   52.79   11.80
   5  -4  -2   36.50    9.60
  -5   4   2   63.79   14.10
   4  -4  -2  178.88   17.80
   4  -4  -2  190.38   17.10
   4  -4  -2  187.28   14.60
   3  -4  -2   -0.60    2.10
   3  -4  -2    2.40    2.90
   3  -4  -2    6.30    3.50
  -3   4   2    6.60    4.00
   2  -4  -2  681.33   20.50
   2  -4  -2  689.53   24.80
   2  -4  -2  684.33   25.20
  -2   4   2  652.63   24.10
   1  -4  -2  231.08   11.10
   1  -4  -2  251.27   11.20
   0  -4  -2 3079.29   46.40
   0  -4  -2 3059.89   49.99
   0  -4  -2 3159.08   50.39
   0   4   2 3104.29   49.70
  -1  -4  -2   90.39    7.10
  -1  -4  -2   96.69    6.80
   1   4   2   94.69    6.70
   1   4   2   94.09    7.00
  -2  -4  -2 1896.81   47.80
  -2  -4  -2 1984.00   45.90
   2   4   2 1948.51   36.00
   2   4   2 1906.71   45.30
   2   4   2 1861.91   44.00
  -3  -4  -2  175.18   14.40
  -3  -4  -2  174.08   15.40
   3   4   2  176.88   13.90
   3   4   2  163.18   10.80
   3   4   2  168.38   15.00
  -4  -4  -2  147.69   14.80
   4   4   2  158.88   15.20
   4   4   2  155.98   12.60
  -5  -4  -2    2.80    5.80
   5   4   2    7.40    6.20
   5   4   2    7.00    7.60
   5   4   2   10.40    4.40
   4  -5  -2  371.66   20.40
   4  -5  -2  401.06   26.40
   4  -5  -2  376.86   25.00
   3  -5  -2  238.38   14.40
   3  -5  -2  221.58   16.50
   3  -5  -2  248.58   17.80
  -3   5   2  239.68   17.20
   2  -5  -2 3229.78   66.09
   2  -5  -2 3355.76   66.39
  -2   5   2 3294.07   65.09
   1  -5  -2 1149.19   28.50
   1  -5  -2 1173.58   27.40
   0  -5  -2   88.09    6.40
   0  -5  -2   86.79    4.70
   0  -5  -2   89.89    6.70
  -1  -5  -2 1247.68   31.10
  -1  -5  -2 1270.97   30.90
   1   5   2 1257.77   30.00
   1   5   2 1222.58   30.40
  -2  -5  -2   86.69    9.50
   2   5   2   93.39    8.80
   2   5   2   85.99    5.50
   2   5   2   87.39    8.70
  -3  -5  -2  948.51   34.60
  -3  -5  -2  928.41   37.90
   3   5   2  965.00   36.40
   3   5   2  937.71   26.50
   3   5   2  880.21   32.50
  -4  -5  -2    2.40    4.20
  -4  -5  -2    7.80    4.70
   4   5   2   -0.60    2.90
   4   5   2    6.00    4.00
  -5  -5  -2   85.89   13.40
   5   5   2   96.69   14.90
   5   5   2  112.09   13.40
   5   5   2  133.99   22.10
   4  -6  -2   18.30    7.00
   4  -6  -2   15.10    6.10
   3  -6  -2  243.78   17.40
   3  -6  -2  258.17   21.20
   3  -6  -2  244.18   15.10
  -3   6   2  262.97   17.60
   2  -6  -2   12.10    4.30
   2  -6  -2   21.90    5.50
  -2   6   2   16.30    4.60
   1  -6  -2 4389.96   77.69
   1  -6  -2 4349.86   73.59
   1  -6  -2 4449.06   71.19
  -1   6   2 4351.16   74.69
   0  -6  -2 1030.10   26.50
   0  -6  -2 1059.19   21.10
   0   6   2 1059.39   26.70
  -1  -6  -2 5072.49   85.09
  -1  -6  -2 4952.40   84.39
   1   6   2 4976.70   83.39
   1   6   2 4796.52   82.69
  -2  -6  -2    5.30    3.30
  -2  -6  -2    7.90    3.80
   2   6   2    5.90    3.40
   2   6   2    5.50    1.70
   2   6   2    4.40    3.00
  -3  -6  -2  555.04   26.80
  -3  -6  -2  554.34   43.20
   3   6   2  614.64   19.70
   3   6   2  581.74   27.50
  -4  -6  -2  128.29   14.80
  -4  -6  -2  112.39   15.30
   4   6   2  104.79   11.80
   4   6   2  109.29   10.20
  -5  -6  -2   72.89   13.80
   5   6   2   65.69   12.50
   5   6   2   54.39   14.20
   5   6   2   60.79   11.40
   4  -7  -2    7.70    5.40
   4  -7  -2    5.10    4.50
   4  -7  -2    0.60    3.70
   3  -7  -2   89.29   11.10
   3  -7  -2   97.59   11.40
   3  -7  -2   98.09   10.10
  -3   7   2   96.69   11.10
   2  -7  -2  111.29   10.50
   2  -7  -2  105.49    9.10
  -2   7   2  111.49    9.50
   1  -7  -2  191.18   12.40
   1  -7  -2  199.28   10.10
   1  -7  -2  187.68   11.20
  -1   7   2  202.98   11.70
   0  -7  -2    2.30    2.10
   0  -7  -2    4.00    2.30
   0  -7  -2    0.90    1.00
   0   7   2    0.70    1.50
  -1  -7  -2  106.79    8.40
  -1  -7  -2  103.39    9.00
  -1  -7  -2   91.69    9.30
   1   7   2   91.29    8.40
   1   7   2  106.79    9.40
  -2  -7  -2  990.70   33.80
  -2  -7  -2  933.01   33.40
  -2  -7  -2 1020.70   34.40
   2   7   2  998.60   32.90
   2   7   2  985.90   32.30
  -3  -7  -2  239.38   17.90
  -3  -7  -2  225.88   18.40
   3   7   2  232.78   16.80
   3   7   2  237.08   10.80
   3   7   2  255.37   18.70
  -4  -7  -2   86.79   13.80
  -4  -7  -2   73.49   12.40
   4   7   2   52.79   14.30
   4   7   2   62.59   10.10
   4   7   2   85.19    9.00
   4  -8  -2   25.90    7.10
   4  -8  -2   48.00   10.50
   4  -8  -2   34.60    9.40
   3  -8  -2  405.26   23.80
   3  -8  -2  391.16   21.70
   3  -8  -2  389.46   20.60
  -3   8   2  408.06   21.90
   2  -8  -2  410.76   22.60
   2  -8  -2  418.56   18.40
   2  -8  -2  413.76   20.40
  -2   8   2  414.56   18.10
   1  -8  -2  306.07   14.40
   1  -8  -2  318.77   12.60
   1  -8  -2  284.97   16.10
  -1   8   2  298.77   15.10
   0  -8  -2    3.00    2.80
   0  -8  -2   -0.30    1.10
   0  -8  -2    2.40    2.00
   0   8   2    6.70    3.10
  -1  -8  -2   80.49    7.70
  -1  -8  -2   66.69    7.80
  -1  -8  -2   68.89    8.80
   1   8   2   66.59    8.20
  -2  -8  -2   34.00    6.90
  -2  -8  -2   39.00    7.50
   2   8   2   41.10    6.90
  -3  -8  -2   -1.40    3.30
  -3  -8  -2    4.40    4.50
   3   8   2   -0.20    2.30
   3   8   2    6.50    2.30
  -4  -8  -2   45.80   11.60
  -4  -8  -2   70.39   12.70
   4   8   2   37.40    9.90
   4   8   2   48.10    9.60
   4   8   2   61.39    6.90
   4  -9  -2  105.39   13.30
   4  -9  -2   96.99   13.60
   4  -9  -2   86.99   12.30
   3  -9  -2   97.49   10.80
   3  -9  -2   91.29   11.10
   3  -9  -2   93.39   12.30
  -3   9   2   95.79   10.70
   2  -9  -2 1089.89   31.10
   2  -9  -2 1162.18   40.50
   2  -9  -2 1073.29   35.30
  -2   9   2 1122.69   31.60
   1  -9  -2  542.65   16.90
   1  -9  -2  544.85   20.30
   1  -9  -2  513.25   22.70
   0  -9  -2 3671.53   74.79
   0  -9  -2 3360.46   69.19
   0  -9  -2 3541.65   56.39
   0   9   2 3544.25   71.09
  -1  -9  -2  777.82   25.20
  -1  -9  -2  740.43   28.20
  -1  -9  -2  719.43   29.90
   1   9   2  752.12   28.10
  -2  -9  -2  849.91   33.50
  -2  -9  -2  867.11   32.50
  -2  -9  -2  866.81   34.70
   2   9   2  885.51   33.30
  -3  -9  -2  115.69   13.80
  -3  -9  -2   93.79   11.80
   3   9   2  114.59   12.40
   3   9   2  117.19   14.00
  -4  -9  -2   72.49   12.60
  -4  -9  -2   74.09   14.20
   4   9   2   45.00   11.30
   4   9   2   78.49   15.20
   4 -10  -2   85.79   14.80
   4 -10  -2   99.29   14.00
   4 -10  -2  116.79   14.80
   4 -10  -2  103.69   13.40
   3 -10  -2  194.28   16.10
   3 -10  -2  178.38   14.10
   3 -10  -2  176.68   17.80
  -3  10   2  192.68   14.30
   2 -10  -2  102.99   11.00
   2 -10  -2  136.29   13.30
   2 -10  -2  115.19    9.30
   1 -10  -2    2.20    2.30
   1 -10  -2   -0.20    1.60
   1 -10  -2    3.40    2.10
   0 -10  -2   37.10    6.60
   0 -10  -2   39.50    4.40
   0 -10  -2   47.30    8.40
   0  10   2   42.90    7.70
  -1 -10  -2  873.71   27.20
  -1 -10  -2  808.82   33.90
  -1 -10  -2  834.52   31.90
   1  10   2  905.91   32.20
  -2 -10  -2   98.49   12.40
  -2 -10  -2   89.69   10.20
  -2 -10  -2  119.39   14.30
   2  10   2   96.59   11.50
   2  10   2  103.09   12.00
  -3 -10  -2  301.57   21.40
   3  10   2  273.57   20.50
   3  10   2  250.67   18.80
  -4 -10  -2   28.20   11.90
  -4 -10  -2   18.90    8.10
   4  10   2   11.70    6.50
   4  10   2   14.30    8.20
   4 -11  -2   19.00    7.20
   4 -11  -2   17.20    5.70
   4 -11  -2   22.30    9.50
   4 -11  -2   31.90    8.50
   3 -11  -2   -2.40    2.90
   3 -11  -2   -0.50    3.30
   3 -11  -2    0.40    3.30
  -3  11   2    0.40    2.20
   2 -11  -2   13.20    5.80
   2 -11  -2   14.80    4.00
   2 -11  -2   12.70    4.80
   1 -11  -2  114.79    6.80
   1 -11  -2   95.89    8.90
   1 -11  -2  109.39   11.90
   0 -11  -2  325.47   20.70
   0 -11  -2  319.37   13.10
   0 -11  -2  311.47   18.60
   0  11   2  298.57   19.40
  -1 -11  -2   88.89    8.60
  -1 -11  -2   71.59   10.00
  -1 -11  -2   79.19   11.10
   1  11   2   67.49    9.70
  -2 -11  -2    9.20    4.10
  -2 -11  -2    8.70    5.50
  -2 -11  -2   18.90    7.00
  -3 -11  -2   13.50    5.60
  -3 -11  -2   14.60    6.20
   3  11   2   16.50    6.30
  -4 -11  -2   38.00   11.10
   4  11   2   38.70   11.30
   4  11   2   42.00   13.60
   3 -12  -2   33.80    7.20
   3 -12  -2   25.00    8.30
   3 -12  -2   20.00    5.40
   2 -12  -2  280.37   20.20
   2 -12  -2  222.58   14.10
   1 -12  -2  293.67   20.40
   1 -12  -2  268.17   18.40
   1 -12  -2  296.37   15.70
   0 -12  -2   35.50    4.30
   0 -12  -2   29.10    8.20
   0 -12  -2   18.40    6.60
   0 -12  -2   28.60    4.30
   0  12   2   41.00    8.70
  -1 -12  -2  286.07   20.10
  -1 -12  -2  275.77   21.90
  -1 -12  -2  310.27   15.90
   1  12   2  285.87   22.10
  -2 -12  -2   13.10    6.30
  -2 -12  -2    1.70    3.40
   2  12   2   10.40    5.50
  -3 -12  -2   19.50    8.00
  -3 -12  -2   14.80    6.90
   3  12   2   11.70    7.10
   3 -13  -2    1.10    3.40
   3 -13  -2    0.50    4.10
   2 -13  -2   78.79   10.00
   2 -13  -2   87.89   12.50
   1 -13  -2   -0.50    2.60
   1 -13  -2    2.60    2.60
   1 -13  -2   -1.30    3.80
   0 -13  -2  242.58   18.20
   0 -13  -2  229.98   10.40
   0 -13  -2  241.88   20.90
   0  13   2  243.28   19.30
  -1 -13  -2   55.79    9.90
  -1 -13  -2   37.90   12.30
  -1 -13  -2   39.20    6.30
   1  13   2   34.10    8.70
  -2 -13  -2  111.59   14.70
  -2 -13  -2  104.39   15.90
  -2 -13  -2  108.89   11.80
  -3 -13  -2   27.20    8.50
  -3 -13  -2   36.00    8.70
   3  13   2   29.60   10.20
   3 -14  -2   15.60    7.60
   3 -14  -2    8.30    5.40
   2 -14  -2  218.08   16.20
   2 -14  -2  216.88   19.50
   1 -14  -2  360.26   24.90
   1 -14  -2  348.77   17.50
   1 -14  -2  309.17   22.00
   0 -14  -2  211.48   10.00
   0 -14  -2  216.98   18.40
   0 -14  -2  249.08   21.30
  -1 -14  -2   32.70    8.50
  -1 -14  -2   49.50   10.90
  -1 -14  -2   44.80    6.50
  -2 -14  -2   15.90    8.60
  -2 -14  -2   19.30    7.10
  -2 -14  -2   16.70    5.40
   2  14   2    3.20    5.70
  -3 -14  -2   94.99   15.80
  -3 -14  -2  109.99   14.40
   2 -15  -2    4.50    3.70
   2 -15  -2   -1.20    3.70
   2 -15  -2    1.90    3.40
   1 -15  -2    7.10    2.70
   1 -15  -2    3.20    5.30
   0 -15  -2    5.60    4.80
   0 -15  -2    0.20    3.10
   0 -15  -2    1.30    2.60
  -1 -15  -2    1.20    3.20
  -1 -15  -2    2.70    6.00
  -1 -15  -2    7.80    5.70
   1  15   2   11.40    6.50
  -2 -15  -2   83.19   17.50
  -2 -15  -2   94.89   11.80
  -2 -15  -2   77.59   15.50
   2  15   2  108.09   16.20
   1 -16  -2    4.40    8.80
   1 -16  -2   -0.10    3.80
   1 -16  -2   -3.20    3.50
   0 -16  -2   28.10   10.60
   0 -16  -2   44.00    8.90
  -1 -16  -2    7.90    3.30
  -1 -16  -2    2.40    6.40
  -1 -16  -2    4.40    5.10
   1  16   2   11.40    8.40
  -2 -16  -2   -1.70    7.00
  -2 -16  -2   14.10    6.50
   2  16   2   -1.80    5.80
   1 -17  -2   -2.10    5.70
   1 -17  -2    9.10    4.10
   1 -17  -2   -0.50    4.40
   0 -17  -2  137.39   20.30
   0 -17  -2   99.39   15.30
  -1 -17  -2   35.10   12.00
  -1 -17  -2   39.80   12.30
   1  17   2   36.80   10.60
  -1 -16   3    2.80    6.90
  -1 -16   3   40.20   12.30
   0 -16   3   19.00   10.00
   1 -16   3   22.90    8.00
   1 -16   3    6.00    7.00
   1 -16   3    2.40    4.90
  -2 -15   3   54.99   14.70
  -2 -15   3   82.39    9.80
  -2 -15   3  112.99   16.80
   1  15  -3    0.90    6.00
  -1 -15   3   -5.30    5.50
   0  15  -3  119.99   20.50
   0 -15   3  115.29   16.20
   0 -15   3  115.59   15.60
  -1  15  -3    2.80    4.10
   1 -15   3    2.00    3.90
  -2  15  -3   16.00    8.70
   2 -15   3   17.80    9.00
   2 -15   3   41.50    8.30
   2  14  -3   35.00   11.30
  -2 -14   3   24.00    8.90
  -2 -14   3   44.40    7.50
  -2 -14   3   25.10   11.20
   1  14  -3  166.78   23.80
  -1 -14   3  159.08   17.50
  -1 -14   3  142.49   17.40
   0  14  -3  213.88   22.50
   0 -14   3  218.48   21.70
   0 -14   3  201.88   19.50
  -1  14  -3  112.79   12.90
   1 -14   3   65.79   13.00
   1 -14   3   90.19   15.30
  -2  14  -3   -2.70    4.20
   2 -14   3    4.60    3.80
  -3 -13   3   16.70    8.80
  -3 -13   3   33.00    8.50
  -3 -13   3   32.60   10.60
  -2 -13   3   38.70   11.30
  -2 -13   3   68.39   14.20
  -2 -13   3   64.29    9.20
   1  13  -3    2.60    4.30
   1  13  -3    1.50    1.40
  -1 -13   3    2.50    4.90
  -1 -13   3    5.80    4.40
   0  13  -3   -1.50    4.10
   0  13  -3   -1.00    3.20
   0 -13   3    5.00    5.30
   0 -13   3    3.50    5.10
  -1  13  -3   19.50    5.70
   1 -13   3   19.10    7.70
   1 -13   3   23.30    6.00
  -2  13  -3  122.79   14.40
   2 -13   3  119.99   12.40
   2 -13   3  106.99   15.20
  -3  13  -3   85.99   16.80
   3 -13   3   79.09   13.20
   3  12  -3   48.90   13.30
  -3 -12   3   65.39   12.00
  -3 -12   3   65.59   13.00
  -3 -12   3   48.10   15.00
   2  12  -3   30.80    9.20
  -2 -12   3   51.49    7.30
  -2 -12   3   41.20   12.40
  -2 -12   3   35.20   10.80
   1  12  -3    2.20    1.40
  -1 -12   3    1.50    3.70
  -1 -12   3    0.00    5.60
  -1 -12   3    3.40    2.60
   0  12  -3   -0.50    1.70
   0 -12   3    2.40    4.30
   0 -12   3   -2.50    2.90
  -1  12  -3  130.79   12.50
   1 -12   3  144.89   11.40
   1 -12   3  112.79   15.20
   2 -12   3   33.50    9.60
   2 -12   3   45.00    8.50
   3 -12   3    2.70    3.60
   3  11  -3   41.90   13.80
  -3 -11   3   92.39   13.50
  -3 -11   3   76.89   14.40
   2  11  -3  407.86   27.30
  -2 -11   3  427.26   31.30
  -2 -11   3  456.15   22.30
  -2 -11   3  450.75   27.10
   1  11  -3    3.70    3.90
   1  11  -3    3.40    2.30
  -1 -11   3    0.30    2.80
  -1 -11   3    3.20    2.10
  -1 -11   3    5.80    4.60
   0  11  -3  789.52   36.10
   0  11  -3  770.62   25.30
  -1  11  -3  289.37   17.70
   1 -11   3  300.57   22.10
   1 -11   3  297.87   16.20
  -2  11  -3  110.69   13.00
   2 -11   3   93.89   10.90
   2 -11   3  124.89   14.80
  -3  11  -3    3.00    7.10
   3 -11   3   11.40    4.80
   3 -11   3    6.40    3.70
  -4 -10   3  134.79   17.00
  -4 -10   3  127.59   18.50
   3  10  -3    0.90    1.90
   3  10  -3    5.00    4.90
  -3 -10   3    1.20    4.20
  -3 -10   3   -1.40    5.20
   2  10  -3  121.79    7.80
  -2 -10   3  123.89   16.50
  -2 -10   3  104.89   11.00
  -2 -10   3  111.29   13.40
   1  10  -3  293.47   21.00
   1  10  -3  254.27   11.80
  -1 -10   3  252.57   12.60
  -1 -10   3  253.17   21.40
  -1 -10   3  243.68   17.70
   0  10  -3  958.40   42.50
   0  10  -3  955.80   27.70
   0 -10   3  929.01   38.00
  -1  10  -3  616.74   25.10
   1 -10   3  604.44   23.00
   1 -10   3  625.24   30.30
  -2  10  -3  138.89   13.70
   2 -10   3  171.38   15.10
   2 -10   3  141.49   15.10
  -3  10  -3  288.37   21.90
   3 -10   3  291.27   22.80
   3 -10   3  247.08   18.70
   4 -10   3  122.99   18.30
   4 -10   3   85.39   12.70
   4 -10   3   82.89   14.10
   4   9  -3   -0.30    3.10
   4   9  -3   -4.70    7.10
  -4  -9   3    3.30    6.40
  -4  -9   3   -3.40    4.50
   3   9  -3   11.50    3.50
   3   9  -3    4.20    5.40
   3   9  -3    8.80    5.50
  -3  -9   3   13.50    5.00
  -3  -9   3    6.20    5.40
   2   9  -3    4.00    2.20
   2   9  -3    3.90    3.10
   2   9  -3    5.60    4.90
  -2  -9   3    1.20    3.20
  -2  -9   3    4.60    5.00
  -2  -9   3    6.40    3.90
   1   9  -3  921.01   23.50
   1   9  -3  957.40   37.80
  -1  -9   3  934.11   39.90
  -1  -9   3  984.70   26.60
  -1  -9   3  937.91   34.80
   0   9  -3   77.49    7.40
   0   9  -3   98.99   11.50
   0  -9   3   99.19   11.90
  -1   9  -3    5.80    3.60
   1  -9   3    7.20    3.10
   1  -9   3    5.90    4.40
  -2   9  -3    5.20    3.50
   2  -9   3    7.20    3.90
  -3   9  -3   91.89   12.10
   3  -9   3   97.29   12.90
   3  -9   3   76.69   10.50
  -4   9  -3   25.00    8.30
   4  -9   3   42.70   14.00
   4   8  -3   39.10   12.20
   4   8  -3   43.00    8.50
  -4  -8   3   26.10    8.20
  -4  -8   3   51.39   17.20
   3   8  -3  661.13   23.80
   3   8  -3  637.34   33.00
   3   8  -3  664.03   40.20
  -3  -8   3  637.14   31.30
  -3  -8   3  610.34   33.40
   2   8  -3  108.59   13.20
   2   8  -3  110.89   11.60
  -2  -8   3  102.09   13.90
  -2  -8   3  103.19   10.60
  -2  -8   3  116.89   12.10
   1   8  -3  239.48   12.70
   1   8  -3  233.18   17.40
   1   8  -3  232.18   10.40
  -1  -8   3  234.28   18.80
  -1  -8   3  252.47   12.40
  -1  -8   3  220.98   15.40
   0   8  -3  195.18   10.80
   0   8  -3  215.38   15.80
   0  -8   3  184.28   10.20
   0  -8   3  199.98   15.60
  -1   8  -3   92.09    9.10
   1  -8   3   93.49    8.20
   1  -8   3   89.49   10.40
  -2   8  -3   27.30    3.90
  -2   8  -3   35.80    7.30
   2  -8   3   20.10    5.90
   2  -8   3   29.20    6.00
  -3   8  -3   12.20    4.30
   3  -8   3    4.20    4.20
   3  -8   3    5.90    3.80
   3  -8   3    6.50    5.30
  -4   8  -3   15.00    8.40
   4  -8   3    9.10    4.30
   4  -8   3   12.50    6.80
   4  -8   3   11.60    6.90
   4   7  -3    6.60    4.90
   4   7  -3   11.50    6.60
   4   7  -3    9.70    6.80
   4   7  -3    9.10    4.40
  -4  -7   3    6.40    7.20
  -4  -7   3   14.30    6.00
   3   7  -3  487.05   20.80
  -3  -7   3  461.85   26.40
  -3  -7   3  479.25   25.20
   2   7  -3   12.20    4.70
   2   7  -3   11.10    5.10
  -2  -7   3   12.00    4.80
  -2  -7   3    9.40    5.00
  -2  -7   3   10.10    4.40
   1   7  -3  880.71   22.20
   1   7  -3  880.71   33.30
   1   7  -3  884.71   26.20
  -1  -7   3  907.91   25.50
  -1  -7   3  924.71   30.60
  -1  -7   3  909.21   35.70
   0   7  -3 3668.23   75.89
   0   7  -3 3711.33   63.29
   0  -7   3 3592.44   76.29
   0  -7   3 3688.03   62.39
  -1   7  -3   74.69    8.00
   1  -7   3   59.99    6.70
   1  -7   3   68.59    8.70
  -2   7  -3  845.52   31.30
  -2   7  -3  835.62   22.90
   2  -7   3  857.21   29.70
   2  -7   3  857.51   32.60
  -3   7  -3  432.26   20.90
   3  -7   3  447.16   26.70
   3  -7   3  429.06   23.50
   3  -7   3  438.46   25.10
  -4   7  -3  101.09   12.60
   4  -7   3   95.19   13.90
   4  -7   3   82.99   13.40
   4  -7   3   83.39   12.60
   4   6  -3  302.87   25.20
   4   6  -3  298.37   25.80
   4   6  -3  301.87   18.60
   4   6  -3  276.27   18.50
  -4  -6   3  281.97   23.30
  -4  -6   3  278.97   20.10
   3   6  -3    0.50    1.50
   3   6  -3   -1.30    3.50
   3   6  -3   -2.10    1.40
   3   6  -3   -2.50    2.90
  -3  -6   3   -3.30    3.40
  -3  -6   3   -1.30    2.50
   2   6  -3 1286.47   42.40
   2   6  -3 1244.88   39.70
  -2  -6   3 1244.28   36.90
  -2  -6   3 1321.67   46.00
  -2  -6   3 1231.88   38.10
   1   6  -3  189.78   11.30
   1   6  -3  198.38    9.40
   1   6  -3  191.48   14.40
  -1  -6   3  219.98   11.50
  -1  -6   3  211.28   15.70
  -1  -6   3  209.88   13.00
   0   6  -3 2402.96   44.70
   0   6  -3 2412.06   54.99
   0  -6   3 2391.76   55.59
   0  -6   3 2383.56   44.40
  -1   6  -3   71.59    7.20
   1  -6   3   65.59    7.80
   1  -6   3   61.19    6.50
  -2   6  -3  834.62   30.50
  -2   6  -3  841.72   24.30
   2  -6   3  856.21   28.90
   2  -6   3  823.72   31.00
  -3   6  -3  362.56   19.40
   3  -6   3  342.37   22.30
   3  -6   3  357.36   21.90
  -4   6  -3   69.59   11.60
  -4   6  -3   41.00    9.80
   4  -6   3   76.29   11.70
   4  -6   3   84.69   12.70
   4   5  -3    5.60    6.80
   4   5  -3   19.00    6.80
   4   5  -3    8.10    4.40
   4   5  -3   12.70    4.60
  -4  -5   3   17.40    6.90
   3   5  -3   55.49    7.80
   3   5  -3   75.49   11.40
   3   5  -3   65.49   12.10
   3   5  -3   55.69    7.60
  -3  -5   3   59.19    9.60
  -3  -5   3   53.09    8.20
   2   5  -3  155.08   13.70
   2   5  -3  147.79   12.70
  -2  -5   3  161.48   12.60
  -2  -5   3  130.69   13.30
  -2  -5   3  153.48   11.40
   1   5  -3 1381.46   34.30
   1   5  -3 1479.35   40.10
  -1  -5   3 1464.85   33.90
  -1  -5   3 1437.86   41.50
  -1  -5   3 1455.65   35.50
   0   5  -3  166.38    6.70
   0   5  -3  172.88    8.80
   0   5  -3  175.58   12.00
   0  -5   3  174.08   12.20
  -1   5  -3 2567.44   51.29
  -1   5  -3 2548.84   40.40
   1  -5   3 2544.75   53.19
   1  -5   3 2604.44   49.60
  -2   5  -3  756.82   23.40
  -2   5  -3  751.12   27.90
   2  -5   3  727.13   26.10
   2  -5   3  799.22   29.50
  -3   5  -3  611.84   26.50
  -3   5  -3  615.24   31.50
   3  -5   3  611.24   27.20
  -4   5  -3   16.30    7.30
  -4   5  -3    7.90    5.10
   4  -5   3   10.60    5.30
   4  -5   3    9.50    4.90
  -5   5  -3   36.80   11.00
   5  -5   3   75.19   16.50
   5  -5   3   29.40    8.30
   4   4  -3  157.18   18.30
   4   4  -3  118.39   15.90
   4   4  -3  123.49   15.40
   4   4  -3  144.09   12.70
  -4  -4   3  150.48   14.10
   3   4  -3    3.30    4.00
   3   4  -3   -0.70    1.90
   3   4  -3    2.40    2.30
   3   4  -3    0.80    3.50
  -3  -4   3   -1.30    2.60
  -3  -4   3    0.50    1.90
   2   4  -3  373.86   20.60
   2   4  -3  365.46   19.70
   2   4  -3  405.86   16.50
  -2  -4   3  375.26   19.30
  -2  -4   3  398.36   17.40
   1   4  -3  794.02   26.90
   1   4  -3  707.93   25.00
  -1  -4   3  740.53   27.10
  -1  -4   3  729.53   22.10
  -1  -4   3  716.23   21.50
   0   4  -3   69.49    4.40
   0   4  -3   65.69    5.10
   0   4  -3   69.09    7.20
   0  -4   3   64.49    7.10
  -1   4  -3 1281.47   31.30
  -1   4  -3 1300.27   25.30
   1  -4   3 1301.77   32.50
   1  -4   3 1342.77   30.70
  -2   4  -3   74.69    8.60
  -2   4  -3   81.09    7.70
   2  -4   3   75.49    8.40
   2  -4   3   83.99    8.50
  -3   4  -3  126.69   12.30
  -3   4  -3  141.19   15.70
   3  -4   3  135.29   13.00
   3  -4   3  133.89   12.30
  -4   4  -3   67.69   11.60
  -4   4  -3  103.69   13.60
   4  -4   3   87.29   11.40
   4  -4   3   96.39   11.90
  -5   4  -3    2.60    6.60
   5  -4   3    1.60    3.60
   5  -4   3    4.90    7.20
   5   3  -3   83.69   11.70
   5   3  -3   93.49   17.00
   5   3  -3   70.49   13.40
  -5  -3   3   79.39   13.10
   4   3  -3    3.80    7.40
   4   3  -3   -1.40    4.70
   4   3  -3    0.70    3.60
  -4  -3   3    5.20    3.90
  -4  -3   3    3.60    3.40
   3   3  -3 1487.05   41.70
   3   3  -3 1517.45   38.40
   3   3  -3 1443.86   49.50
   3   3  -3 1415.16   49.50
  -3  -3   3 1538.25   40.60
   2   3  -3   71.49    6.40
   2   3  -3   74.79    9.50
   2   3  -3   76.69    9.20
  -2  -3   3   84.89    9.30
  -2  -3   3   87.59    7.60
   1   3  -3 3325.47   63.09
  -1  -3   3 3238.48   64.29
  -1  -3   3 3218.38   58.69
  -1  -3   3 3357.56   55.99
   0   3  -3  346.37   10.60
   0   3  -3  350.16   14.80
   0  -3   3  347.17   14.70
  -1   3  -3 2145.99   42.40
   1  -3   3 2110.49   42.60
   1  -3   3 2187.98   41.50
  -2   3  -3 1191.98   32.10
  -2   3  -3 1186.98   34.10
   2  -3   3 1208.98   33.00
   2  -3   3 1152.78   33.70
  -3   3  -3   68.69    9.50
  -3   3  -3   71.49   10.00
   3  -3   3   61.39    8.80
   3  -3   3   66.29    8.90
  -4   3  -3   91.69   12.60
  -4   3  -3  103.69   13.30
   4  -3   3   95.79   12.10
   4  -3   3   81.19   11.60
  -5   3  -3   32.40    9.80
  -5   3  -3    1.80    7.70
   5  -3   3    1.40    7.50
   5  -3   3    8.20    9.20
   5   2  -3   55.89   15.40
   5   2  -3   37.50    9.70
   5   2  -3   52.89    9.90
  -5  -2   3   62.09   11.50
   4   2  -3  145.09   14.30
   4   2  -3  125.99   11.30
   4   2  -3  161.78   18.80
  -4  -2   3  143.29   13.10
   3   2  -3   94.09    9.90
   3   2  -3   74.59    7.40
   3   2  -3   74.29   11.00
  -3  -2   3   84.59    8.80
  -3  -2   3  110.19   15.80
   2   2  -3 3735.93   76.29
   2   2  -3 3610.14   75.39
   2   2  -3 3752.22   63.19
  -2  -2   3 3807.72   74.99
  -2  -2   3 3797.32   64.99
   1   2  -3  119.19    8.90
  -1  -2   3  135.09    9.70
  -1  -2   3  134.09    6.90
  -1  -2   3  139.69    8.90
  -1   2  -3  209.08   10.10
   1  -2   3  205.18   10.30
  -2   2  -3 4810.82   85.39
  -2   2  -3 5005.10   86.69
   2  -2   3 4997.70   84.59
   2  -2   3 4939.51   86.99
  -3   2  -3   60.49    8.70
  -3   2  -3   61.49    8.90
   3  -2   3   63.89    8.30
   3  -2   3   69.79    8.90
  -4   2  -3  449.46   27.60
  -4   2  -3  485.15   27.40
   4  -2   3  464.35   25.20
   4  -2   3  468.55   26.10
  -5   2  -3   -0.80    6.70
   5  -2   3   -2.50    4.00
   5   1  -3    9.50    6.20
   5   1  -3   -6.60    4.80
   5   1  -3    7.20    5.20
   4   1  -3   59.49    8.20
   4   1  -3   76.99   11.00
   4   1  -3  101.89   13.60
  -4  -1   3   67.79    8.90
   3   1  -3   17.50    5.00
   3   1  -3   22.40    7.60
   3   1  -3   18.50    6.20
   3   1  -3   18.70    4.40
  -3  -1   3   16.20    6.30
  -3  -1   3   14.40    4.60
   2   1  -3 1157.58   36.40
   2   1  -3 1180.18   26.70
   2   1  -3 1162.88   36.50
  -2  -1   3 1184.18   35.40
  -2  -1   3 1243.48   30.00
   1   1  -3  169.08   11.40
   1   1  -3  158.28    9.80
  -1  -1   3  143.19    9.00
  -1  -1   3  154.68    6.50
   0   1  -3   39.80    3.80
   0  -1   3   39.10    4.10
  -1   1  -3 1539.25   31.50
   1  -1   3 1555.94   33.00
   1  -1   3 1579.04   31.10
  -2   1  -3  110.59    8.90
  -2   1  -3  112.59    9.40
   2  -1   3  117.49    9.50
   2  -1   3  119.39    8.90
  -3   1  -3  538.45   26.10
  -3   1  -3  528.15   24.00
   3  -1   3  551.54   23.40
   3  -1   3  534.35   24.60
  -4   1  -3  104.89   12.60
   4  -1   3   82.59   10.60
   4  -1   3   57.99   10.40
  -5   1  -3  128.09   18.40
   5  -1   3  159.98   16.90
   5   0  -3   -6.50    5.60
   5   0  -3   -0.50    3.90
   5   0  -3   -2.20    4.40
   4   0  -3  625.64   24.90
   4   0  -3  620.34   30.30
   4   0  -3  639.14   35.90
  -4   0   3  703.83   40.50
   3   0  -3   76.99    9.30
   3   0  -3   96.69   11.90
   3   0  -3   78.69    7.40
  -3   0   3   75.49   10.40
  -3   0   3   82.69    7.80
   2   0  -3  615.14   22.10
   2   0  -3  559.14   18.10
   2   0  -3  588.74   25.00
  -2   0   3  620.74   17.80
  -2   0   3  593.54   24.00
   1   0  -3  408.26    9.10
   1   0  -3  380.46   15.10
   1   0  -3  365.96   15.40
  -1   0   3  391.66    9.40
  -1   0   3  386.76   15.20
   0   0  -3 1434.56   25.40
   0   0  -3 1439.96   29.10
   0   0   3 1506.85   25.70
  -1   0  -3   37.60    4.30
   1   0   3   36.20    4.50
   1   0   3   40.30    3.90
  -2   0  -3   11.20    3.50
  -2   0  -3   20.70    5.20
  -2   0  -3   19.20    4.60
   2   0   3   15.00    4.20
   2   0   3   14.70    3.70
  -3   0  -3    4.00    2.60
  -3   0  -3    2.00    2.90
  -3   0  -3    1.40    2.60
   3   0   3    1.10    2.80
   3   0   3    0.90    2.10
  -4   0  -3   29.00    7.90
   4   0   3   46.80    8.70
   4   0   3   35.50    8.40
  -5   0  -3    3.00    6.90
   5   0   3   -3.30    3.90
   5  -1  -3   18.40    6.60
   5  -1  -3   21.70   10.20
   5  -1  -3   19.40    9.80
   4  -1  -3   77.59   13.00
   4  -1  -3   64.29   10.60
   4  -1  -3   71.89    8.70
  -4   1   3   75.59   12.20
   3  -1  -3  630.44   21.40
   3  -1  -3  630.04   30.50
   3  -1  -3  635.64   27.10
  -3   1   3  628.94   29.30
   2  -1  -3    0.70    1.50
   2  -1  -3    1.20    1.70
   2  -1  -3    3.80    2.10
  -2   1   3    1.30    2.60
  -2   1   3    1.00    1.40
   0  -1  -3  182.48    5.80
   0  -1  -3  188.68    5.40
   0   1   3  178.38    5.70
  -1  -1  -3 3085.09   49.90
   1   1   3 3254.17   57.49
   1   1   3 3041.60   49.00
  -2  -1  -3  254.37   14.00
  -2  -1  -3  241.48   14.60
  -2  -1  -3  254.57   12.50
   2   1   3  239.98   11.80
   2   1   3  259.77   14.10
  -3  -1  -3 1222.88   36.30
  -3  -1  -3 1297.37   42.70
  -3  -1  -3 1259.07   38.70
   3   1   3 1222.58   35.00
   3   1   3 1203.38   38.10
  -4  -1  -3   10.90    6.10
  -4  -1  -3   11.60    4.70
   4   1   3   19.90    6.40
   4   1   3    8.00    4.60
  -5  -1  -3   19.80    8.30
   5   1   3   12.60    5.50
   5  -2  -3   62.59   13.70
   5  -2  -3   84.39   10.70
   5  -2  -3   94.79   17.10
   4  -2  -3  186.08   17.40
   4  -2  -3  174.18   16.20
   4  -2  -3  189.18   13.40
  -4   2   3  170.08   18.20
   3  -2  -3  731.43   32.60
   3  -2  -3  665.93   28.60
   3  -2  -3  752.72   23.70
  -3   2   3  756.52   32.20
   2  -2  -3   74.09    7.80
   2  -2  -3   87.79    9.10
   2  -2  -3   79.89    6.70
  -2   2   3   84.09    8.90
   1  -2  -3 6289.97   83.29
  -1   2   3 6126.79   96.99
   0  -2  -3 2511.55   38.30
   0   2   3 2529.55   38.00
  -1  -2  -3 1079.59   21.50
  -1  -2  -3 1111.89   25.90
   1   2   3 1044.80   25.40
   1   2   3 1080.29   21.00
  -2  -2  -3 3548.84   70.89
  -2  -2  -3 3572.84   61.89
  -2  -2  -3 3570.04   68.09
   2   2   3 3575.94   60.79
  -3  -2  -3   44.80    6.50
  -3  -2  -3   51.59    8.90
  -3  -2  -3   52.19    8.00
   3   2   3   41.30    7.20
   3   2   3   30.10    5.60
  -4  -2  -3  594.24   27.50
  -4  -2  -3  585.94   29.00
   4   2   3  549.45   25.30
   4   2   3  578.04   29.10
  -5  -2  -3   -0.80    6.60
  -5  -2  -3   -2.40    4.80
   5   2   3   -6.00    3.80
   5   2   3    2.30    7.60
   5  -3  -3   11.20    7.20
   5  -3  -3   15.50    6.80
   5  -3  -3   27.80    7.00
   4  -3  -3   11.00    5.20
   4  -3  -3   15.10    3.80
   4  -3  -3   22.30    9.20
  -4   3   3   14.60    6.60
   3  -3  -3  120.79    9.30
   3  -3  -3  115.89   12.40
   3  -3  -3  134.59   12.90
  -3   3   3  119.09   12.60
   2  -3  -3 2535.35   47.50
   2  -3  -3 2357.66   52.99
   2  -3  -3 2368.86   55.69
  -2   3   3 2388.56   54.29
   1  -3  -3   24.10    4.80
  -1   3   3   23.50    3.90
   0  -3  -3 2709.63   42.00
   0  -3  -3 2561.14   39.30
   0   3   3 2671.03   41.50
  -1  -3  -3   79.39    4.40
   1   3   3   79.89    4.30
   1   3   3   76.49    5.10
   1   3   3   82.39    6.50
  -2  -3  -3 5604.04   86.49
  -2  -3  -3 5616.54   99.69
  -2  -3  -3 5547.44   95.99
   2   3   3 5600.34   94.49
   2   3   3 5651.23   95.79
  -3  -3  -3  133.99   10.10
  -3  -3  -3  119.09   11.70
  -3  -3  -3  121.69   13.10
   3   3   3  127.59    9.80
   3   3   3  115.29   12.30
   3   3   3  105.99   11.20
  -4  -3  -3   29.70    7.80
   4   3   3   32.20    8.70
   4   3   3   54.89   11.90
   4   3   3   49.99    8.00
  -5  -3  -3   31.30   11.30
  -5  -3  -3   44.20   11.60
   5   3   3   59.69   15.80
   5   3   3   59.19   14.20
   5   3   3   60.39   10.40
   5  -4  -3    8.70    6.60
   5  -4  -3    7.30    7.90
   5  -4  -3    5.70    4.90
   4  -4  -3   45.10    6.80
   4  -4  -3   65.49   10.80
   4  -4  -3   47.80    9.90
   3  -4  -3    7.50    2.90
   3  -4  -3    7.30    3.80
   3  -4  -3   15.80    6.20
  -3   4   3    3.40    3.20
   2  -4  -3  280.97   16.40
   2  -4  -3  291.17   16.00
   2  -4  -3  254.27   11.30
  -2   4   3  277.67   15.90
   1  -4  -3 1628.74   36.40
   1  -4  -3 1822.32   42.30
  -1   4   3 1641.74   37.00
   0  -4  -3 3058.49   48.20
   0  -4  -3 3064.99   49.60
   0   4   3 3106.49   49.50
  -1  -4  -3  126.49    8.60
  -1  -4  -3  107.59    4.50
  -1  -4  -3  119.59    7.00
   1   4   3  105.29    6.60
   1   4   3  118.19    8.10
  -2  -4  -3  178.68   12.40
  -2  -4  -3  188.68   13.40
  -2  -4  -3  182.88    8.90
   2   4   3  173.58   11.80
   2   4   3  196.48   12.20
   2   4   3  180.08    8.70
  -3  -4  -3  150.78   13.40
  -3  -4  -3  132.79   10.10
  -3  -4  -3  141.69   14.10
   3   4   3  137.89    9.80
   3   4   3  146.89   12.80
   3   4   3  135.59   13.20
  -4  -4  -3   20.70    6.30
   4   4   3   30.30    6.50
   4   4   3   25.70    8.40
   4   4   3   20.40    7.00
  -5  -4  -3   20.10    7.10
   5   4   3    2.50    8.40
   5   4   3   25.60    6.80
   5   4   3   21.50    7.80
   4  -5  -3  255.87   21.50
   4  -5  -3  204.88   18.90
   4  -5  -3  231.48   15.20
   3  -5  -3   92.99   11.20
   3  -5  -3  104.69    9.10
   3  -5  -3  100.99   11.70
  -3   5   3  116.29   12.60
   2  -5  -3  864.21   29.60
   2  -5  -3  855.71   29.60
  -2   5   3  883.51   29.20
   1  -5  -3 1869.91   39.90
  -1   5   3 1834.02   39.80
   0  -5  -3  517.55   15.60
   0  -5  -3  530.05   16.00
  -1  -5  -3 1361.26   33.30
  -1  -5  -3 1404.66   30.90
   1   5   3 1309.07   32.30
   1   5   3 1384.76   32.90
  -2  -5  -3   18.40    5.30
  -2  -5  -3   17.60    2.90
  -2  -5  -3   16.50    4.80
   2   5   3   22.50    5.60
   2   5   3   23.60    3.20
   2   5   3   14.00    3.70
  -3  -5  -3  598.94   34.70
  -3  -5  -3  596.64   27.40
   3   5   3  552.74   25.60
   3   5   3  566.24   19.70
   3   5   3  586.54   27.40
  -4  -5  -3    7.40    8.10
  -4  -5  -3    6.70    4.60
   4   5   3    8.70    4.50
   4   5   3    6.70    4.20
   4   5   3   -0.80    3.80
  -5  -5  -3   91.09   14.50
   5   5   3   72.99   14.20
   5   5   3  108.79   12.60
   5   5   3   93.99   17.80
   4  -6  -3    2.80    2.80
   4  -6  -3    1.90    3.90
   4  -6  -3   -1.40    3.70
  -4   6   3   -1.60    5.40
   3  -6  -3 1041.40   32.20
   3  -6  -3 1098.39   39.70
   3  -6  -3 1271.17   62.49
  -3   6   3 1105.19   39.10
   2  -6  -3  965.50   31.90
   2  -6  -3 1035.40   32.50
  -2   6   3  985.00   31.30
   1  -6  -3 2622.14   51.19
   0  -6  -3    9.70    3.00
   0  -6  -3    6.70    1.80
   0  -6  -3   12.20    3.50
   0   6   3   10.20    2.90
  -1  -6  -3 5777.92  100.49
  -1  -6  -3 5820.32   95.69
   1   6   3 5845.22   92.39
   1   6   3 5641.24   93.99
  -2  -6  -3  666.33   26.50
  -2  -6  -3  688.93   27.80
   2   6   3  695.23   25.10
   2   6   3  682.93   14.80
  -3  -6  -3  213.38   16.60
  -3  -6  -3  195.48   17.50
   3   6   3  184.38   15.20
   3   6   3  175.58   15.90
   3   6   3  191.08   10.80
  -4  -6  -3  127.39   14.90
  -4  -6  -3  105.09   14.80
   4   6   3  108.19   13.10
   4   6   3  120.39   10.50
   5   6   3   31.10   11.70
   5   6   3    1.60    8.00
   5   6   3   12.00    5.50
   4  -7  -3    1.30    4.50
   4  -7  -3    3.40    4.20
   3  -7  -3   81.89   11.40
   3  -7  -3   73.79    8.40
   3  -7  -3   72.49    9.70
  -3   7   3   75.89   10.00
   2  -7  -3   80.19    9.10
   2  -7  -3   95.29    9.30
  -2   7   3   92.49    8.70
   1  -7  -3    2.90    2.20
   1  -7  -3    2.50    2.20
   0  -7  -3  872.31   25.40
   0  -7  -3  913.01   26.90
   0  -7  -3  875.11   19.90
   0   7   3  909.71   25.70
  -1  -7  -3  215.78   13.20
  -1  -7  -3  237.18   13.50
   1   7   3  245.08   13.60
   1   7   3  241.08   13.10
  -2  -7  -3  800.82   30.60
  -2  -7  -3  810.82   30.50
   2   7   3  825.92   29.20
   2   7   3  813.22   28.20
  -3  -7  -3    7.30    4.50
  -3  -7  -3    6.50    3.60
   3   7   3   13.70    3.50
   3   7   3   20.10    6.60
   3   7   3   11.80    5.20
  -4  -7  -3  392.46   27.90
  -4  -7  -3  339.27   24.70
   4   7   3  377.36   23.70
   4   7   3  398.96   17.60
   4  -8  -3   31.40    8.40
   4  -8  -3   60.89   10.60
   4  -8  -3   50.79    9.30
  -4   8   3   47.00   13.50
   3  -8  -3  197.28   14.00
   3  -8  -3  179.98   15.10
   3  -8  -3  179.68   16.10
  -3   8   3  189.78   15.50
   2  -8  -3   -2.40    2.00
   2  -8  -3    0.20    2.00
  -2   8   3   -1.30    1.60
   1  -8  -3    4.60    2.50
   1  -8  -3    2.00    1.70
   1  -8  -3    1.80    1.80
   0  -8  -3  317.87   15.40
   0  -8  -3  308.57   11.00
   0  -8  -3  308.97   16.50
   0   8   3  318.57   15.70
  -1  -8  -3   -0.60    1.70
  -1  -8  -3    2.00    2.50
   1   8   3    0.20    1.70
   1   8   3    0.90    1.60
  -2  -8  -3  235.68   16.10
  -2  -8  -3  243.48   16.40
  -2  -8  -3  230.08   16.60
   2   8   3  198.18   14.40
   2   8   3  222.58   15.40
  -3  -8  -3   14.50    5.60
  -3  -8  -3    9.70    4.40
   3   8   3   14.80    6.50
   3   8   3    9.00    4.10
   3   8   3   17.30    3.70
  -4  -8  -3   35.00   11.50
  -4  -8  -3   33.00    8.60
   4   8   3   29.10    5.60
   4   8   3   70.19   13.90
   4   8   3   21.60    6.70
   4  -9  -3  193.68   16.20
   4  -9  -3  167.88   17.40
   4  -9  -3  154.28   18.70
   3  -9  -3  207.48   16.30
   3  -9  -3  203.48   15.20
   3  -9  -3  232.08   17.20
  -3   9   3  218.28   16.50
   2  -9  -3  549.45   24.60
   2  -9  -3  569.44   27.70
   2  -9  -3  540.25   22.30
  -2   9   3  551.44   22.50
   1  -9  -3  479.55   21.90
   1  -9  -3  479.75   17.70
   1  -9  -3  526.35   20.00
   0  -9  -3 1268.77   36.00
   0  -9  -3 1361.66   27.90
   0  -9  -3 1311.37   38.60
   0   9   3 1356.76   37.40
  -1  -9  -3  402.56   21.10
  -1  -9  -3  433.46   21.00
   1   9   3  428.46   19.70
  -2  -9  -3  539.65   25.50
  -2  -9  -3  517.05   25.70
  -2  -9  -3  515.75   25.70
   2   9   3  545.45   24.90
  -3  -9  -3    1.50    3.10
  -3  -9  -3    6.30    4.10
   3   9   3    1.20    3.50
   3   9   3    2.60    3.90
  -4  -9  -3    8.00    6.40
  -4  -9  -3   -3.40    4.80
   4   9   3   -1.70    5.90
   4   9   3   -1.10    2.30
   4 -10  -3   23.00    8.00
   4 -10  -3   53.79   11.10
   4 -10  -3   37.40    9.30
   3 -10  -3  104.99   11.70
   3 -10  -3   80.29   13.00
   3 -10  -3  117.89   12.20
  -3  10   3   90.69   11.10
   2 -10  -3  169.68   15.10
   2 -10  -3  144.99   11.40
   2 -10  -3  134.89   12.30
   1 -10  -3  549.95   19.20
   1 -10  -3  561.04   21.30
   1 -10  -3  573.74   25.00
   0 -10  -3  709.03   27.30
   0 -10  -3  742.93   19.10
   0 -10  -3  719.83   29.30
   0  10   3  735.13   27.90
  -1 -10  -3  952.10   35.50
  -1 -10  -3  967.80   34.30
  -1 -10  -3  977.60   30.20
   1  10   3  971.00   32.50
  -2 -10  -3   36.80    7.40
  -2 -10  -3   36.70    8.00
  -2 -10  -3   35.50    9.70
   2  10   3   20.10    5.50
  -3 -10  -3  384.36   25.30
  -3 -10  -3  445.66   27.20
   3  10   3  426.06   24.70
   3  10   3  449.95   26.00
  -4 -10  -3   45.40   11.50
  -4 -10  -3   26.20    9.10
   4  10   3   42.10   11.00
   4  10   3   38.10   10.70
   3 -11  -3   67.69   10.80
   3 -11  -3   59.59    9.10
   3 -11  -3   45.20   12.00
   2 -11  -3   36.70    6.20
   2 -11  -3   60.19    9.50
   2 -11  -3   40.30    7.60
   1 -11  -3  456.65   22.30
   1 -11  -3  451.75   19.50
   1 -11  -3  446.26   23.50
   0 -11  -3  656.33   29.20
   0 -11  -3  658.43   27.50
   0 -11  -3  666.03   22.30
   0  11   3  668.63   28.10
  -1 -11  -3  454.15   25.40
  -1 -11  -3  459.35   24.10
  -1 -11  -3  491.35   20.90
   1  11   3  475.65   22.90
  -2 -11  -3   72.49   11.30
  -2 -11  -3   61.99   10.20
  -2 -11  -3   70.19    9.60
   2  11   3   69.89   11.00
  -3 -11  -3   16.40    7.00
  -3 -11  -3   18.50    6.80
   3  11   3   20.50    7.60
   3  11   3   29.90    8.50
  -4 -11  -3   74.59   16.70
  -4 -11  -3   90.39   22.00
   4  11   3  115.49   19.50
   4  11   3   75.89   15.00
   3 -12  -3    3.70    3.50
   3 -12  -3    1.40    3.30
   2 -12  -3   49.10   12.70
   2 -12  -3   57.39    9.60
   2 -12  -3   42.80    6.20
   1 -12  -3  180.18   15.70
   1 -12  -3  171.98   14.30
   1 -12  -3  161.68   11.70
   0 -12  -3   15.40    4.20
   0 -12  -3    5.30    4.10
   0 -12  -3    4.00    3.00
   0 -12  -3   10.50    2.80
   0  12   3    8.40    4.50
  -1 -12  -3   -0.40    1.60
  -1 -12  -3    2.10    4.10
  -1 -12  -3    1.40    3.20
   1  12   3   -2.60    2.30
  -2 -12  -3   94.19   11.40
  -2 -12  -3   97.19   13.60
  -2 -12  -3   80.99   11.40
   2  12   3  104.39   12.70
  -3 -12  -3   63.49   14.30
  -3 -12  -3   55.39   11.20
   3  12   3   69.49   13.10
  -4 -12  -3    1.30    6.80
  -4 -12  -3   -2.80    3.80
   4  12   3   -1.10    7.60
   3 -13  -3    3.00    4.50
   3 -13  -3   -1.70    4.10
   3 -13  -3    3.20    4.40
   2 -13  -3  164.08   10.70
   2 -13  -3  182.48   14.70
   2 -13  -3  157.08   16.50
   1 -13  -3   46.50    7.10
   1 -13  -3   24.50    8.30
   1 -13  -3   20.90    6.30
   0 -13  -3  159.58    8.50
   0 -13  -3  186.48   17.60
   0 -13  -3  167.28   10.40
   0 -13  -3  189.58   16.10
  -1 -13  -3  126.69   15.50
  -1 -13  -3  134.69   14.20
  -1 -13  -3  123.99   10.70
   1  13   3  141.19   13.80
  -2 -13  -3  289.67   21.80
  -2 -13  -3  290.07   19.40
  -2 -13  -3  268.47   22.30
   2  13   3  268.27   20.50
  -3 -13  -3    8.10    5.50
  -3 -13  -3    0.40    5.00
   3  13   3    8.60    6.60
   3 -14  -3   46.30   10.00
   3 -14  -3   73.89    8.90
   3 -14  -3   69.69   12.40
   2 -14  -3  140.49   13.00
   2 -14  -3  132.09   14.90
   1 -14  -3  137.29   11.10
   1 -14  -3  123.59   15.20
   1 -14  -3  104.59   13.20
   0 -14  -3  149.69   16.50
   0 -14  -3  145.29   15.30
   0 -14  -3  158.48    9.00
  -1 -14  -3  106.89    9.80
  -1 -14  -3   75.79   14.80
  -1 -14  -3   95.59   12.70
   1  14   3  109.99   13.70
  -2 -14  -3   -0.70    4.10
  -2 -14  -3    4.90    3.70
  -3 -14  -3   18.60    7.90
  -3 -14  -3   51.99   11.40
   3  14   3   39.60   10.60
   2 -15  -3   11.90    7.20
   2 -15  -3   14.00    6.70
   2 -15  -3    7.80    4.70
   1 -15  -3    0.70    2.50
   1 -15  -3    4.50    4.80
   1 -15  -3    5.70    3.70
   0 -15  -3   81.59   11.80
   0 -15  -3   93.39   14.60
   0 -15  -3   70.89    6.20
  -1 -15  -3  190.58   21.00
  -1 -15  -3  246.28   14.40
  -1 -15  -3  264.37   21.50
  -2 -15  -3   36.90   11.70
  -2 -15  -3   46.10   12.90
  -2 -15  -3   50.89   10.30
   2  15   3   64.29   12.80
   1 -16  -3    6.80    5.10
   1 -16  -3    0.50    3.60
   1 -16  -3    6.60    3.70
   0 -16  -3   -6.10    4.50
  -1 -16  -3   21.00    5.20
  -1 -16  -3    9.20    5.90
  -1 -16  -3   16.10    8.30
   1  16   3   30.50    9.70
  -2 -16  -3   -6.20    5.60
  -2 -16  -3   -7.80    5.00
  -2 -16  -3    1.70    6.00
   2  16   3    0.00    6.40
   1 -17  -3   10.40    8.20
   1 -17  -3   16.10    4.90
   0 -17  -3   20.10    9.00
  -1 -17  -3   10.30    6.90
  -1 -17  -3    3.60    7.10
  -1 -17  -3    2.70    3.40
   0  16  -4    4.00    6.00
   0 -16   4   13.50    6.40
   0 -16   4    9.80    7.70
  -1 -15   4   -3.20    5.70
  -1 -15   4    5.80    5.60
   0  15  -4    9.80    8.20
   0  15  -4    1.60    3.30
   1 -15   4   15.70    5.90
   1 -15   4   18.70    8.60
  -2 -14   4  137.39   21.70
  -2 -14   4  124.29   12.00
   1  14  -4   87.59   17.70
  -1 -14   4   70.39   12.80
  -1 -14   4   47.80   13.50
   0  14  -4    0.40    2.80
   0 -14   4    4.00    5.20
   0 -14   4    1.40    5.70
  -1  14  -4  124.79   13.30
   1 -14   4  100.09   14.70
   1 -14   4   86.79   10.70
  -2  14  -4   -0.60    5.70
   2 -14   4    2.20    4.90
   2 -14   4    2.10    4.60
   2  13  -4   12.40    8.30
   2  13  -4    0.20    2.30
  -2 -13   4   -0.80    5.00
  -2 -13   4   14.70    9.20
  -2 -13   4    6.00    5.00
   1  13  -4   22.90    8.40
  -1 -13   4   29.50    9.80
  -1 -13   4   30.40    8.50
   0  13  -4  395.76   27.50
   0  13  -4  382.36   18.60
   0 -13   4  351.06   24.90
   0 -13   4  379.16   27.70
  -1  13  -4  381.96   21.40
   1 -13   4  292.97   25.00
   1 -13   4  352.36   26.40
  -2  13  -4   69.29   11.80
   2 -13   4   71.19   13.20
   2 -13   4   54.69   10.10
  -3  13  -4   75.89   16.70
   3 -13   4   36.20    9.50
   3 -13   4   33.00   10.80
   3  12  -4    5.50    2.30
   3  12  -4    4.10    2.50
  -3 -12   4    2.40    5.70
  -3 -12   4    7.30    5.80
   2  12  -4   -8.40    4.90
   2  12  -4    2.60    2.00
  -2 -12   4   -3.80    4.70
  -2 -12   4    2.10    5.70
  -2 -12   4    6.10    3.60
   1  12  -4    1.70    1.80
   1  12  -4    1.50    4.70
  -1 -12   4    2.50    4.00
  -1 -12   4    6.20    2.40
  -1 -12   4   -0.80    3.80
   0  12  -4    6.10    3.00
   0 -12   4    6.90    4.40
   0 -12   4    7.90    5.40
  -1  12  -4    8.70    4.90
   1 -12   4   11.00    5.80
   1 -12   4    5.40    3.00
  -2  12  -4    4.30    5.00
   2 -12   4   -1.50    4.10
   2 -12   4   -1.30    3.10
  -3  12  -4   24.10    8.70
   3 -12   4   28.10    9.10
   3 -12   4   14.90    5.50
   3  11  -4   24.80   12.10
  -3 -11   4   36.40   11.20
  -3 -11   4   38.80   12.50
  -3 -11   4   51.59   10.20
   2  11  -4  328.97   24.70
  -2 -11   4  322.27   27.60
  -2 -11   4  309.67   18.30
  -2 -11   4  359.66   24.20
   1  11  -4  282.57   13.60
  -1 -11   4  279.27   12.80
  -1 -11   4  276.17   23.70
  -1 -11   4  258.07   19.90
   0  11  -4  142.99   11.30
   0 -11   4  130.79   15.10
  -1  11  -4    2.00    3.50
   1 -11   4   -0.70    3.40
   1 -11   4    6.00    3.20
   2 -11   4   -1.30    2.50
   2 -11   4    9.10    5.40
  -3  11  -4   -2.30    9.50
   3 -11   4    9.70    4.70
   3 -11   4    1.90    5.20
   3  10  -4   12.10    4.00
  -3 -10   4   12.00    6.00
  -3 -10   4   13.70    6.10
   2  10  -4  241.98   17.20
   2  10  -4  218.08   11.40
  -2 -10   4  254.37   16.90
  -2 -10   4  235.68   18.50
  -2 -10   4  219.78   21.40
   1  10  -4  646.54   21.00
  -1 -10   4  689.83   33.60
  -1 -10   4  608.74   37.40
  -1 -10   4  656.93   21.10
   0  10  -4  739.43   39.00
   0  10  -4  794.72   25.80
   0 -10   4  788.82   35.90
  -1  10  -4  942.31   32.70
   1 -10   4  919.91   29.90
  -2  10  -4  302.67   20.30
   2 -10   4  352.76   20.30
   2 -10   4  306.27   22.10
  -3  10  -4  208.98   19.10
   3 -10   4  183.18   16.20
   3 -10   4  199.98   19.30
   4 -10   4   18.00    8.50
   4 -10   4   26.50    7.00
   4   9  -4   -3.90    3.80
  -4  -9   4   20.70    7.00
  -4  -9   4    3.40    5.30
   3   9  -4  210.18   20.90
   3   9  -4  184.78   17.60
   3   9  -4  193.28   13.30
  -3  -9   4  198.08   18.20
  -3  -9   4  178.98   17.50
   2   9  -4    0.80    3.00
   2   9  -4   -3.00    1.90
  -2  -9   4   -0.40    2.80
  -2  -9   4   -2.60    1.50
  -2  -9   4   -3.60    3.30
   1   9  -4   51.59    9.80
   1   9  -4   42.60    5.60
   1   9  -4   46.60    6.40
  -1  -9   4   58.59    9.20
  -1  -9   4   37.30    9.40
  -1  -9   4   40.30    5.50
   0   9  -4   19.00    7.00
   0   9  -4   17.60    4.30
   0  -9   4    9.30    5.00
  -1   9  -4  224.68   22.40
  -1   9  -4  302.17   17.10
   1  -9   4  272.47   15.20
   1  -9   4  270.47   19.40
  -2   9  -4  164.78   14.70
   2  -9   4  146.49   14.80
   2  -9   4  165.28   13.30
  -3   9  -4  166.68   17.20
   3  -9   4  147.79   16.20
   3  -9   4  151.08   13.70
   3  -9   4  128.49   15.00
   4  -9   4   68.79   12.60
   4  -9   4   84.89   15.50
   4  -9   4   72.29   16.10
   4   8  -4   38.40   11.70
   4   8  -4   19.10    6.50
   4   8  -4   19.10    9.60
  -4  -8   4   69.69   14.40
  -4  -8   4   39.00   10.60
   3   8  -4   -3.40    2.90
   3   8  -4    6.70    4.80
   3   8  -4    1.40    2.10
  -3  -8   4    0.70    3.70
  -3  -8   4    0.50    3.70
   2   8  -4  784.72   31.50
  -2  -8   4  799.12   30.20
  -2  -8   4  824.12   32.90
   1   8  -4   28.90    7.90
   1   8  -4   38.00    4.90
   1   8  -4   30.40    5.30
  -1  -8   4   36.40    9.50
  -1  -8   4   32.60    4.90
  -1  -8   4   31.70    7.70
   0   8  -4  365.16   15.90
   0   8  -4  339.97   20.60
   0  -8   4  385.86   22.40
  -1   8  -4  127.69   13.50
  -1   8  -4  126.39   11.10
   1  -8   4  114.49    9.70
   1  -8   4  104.79   11.60
   2  -8   4  123.39   11.50
   2  -8   4  147.19   14.40
  -3   8  -4   32.10    5.70
  -3   8  -4   25.70    7.80
   3  -8   4   15.40    5.60
   3  -8   4   15.50    6.30
   3  -8   4   20.60    6.30
  -4   8  -4   -1.10    3.90
  -4   8  -4   27.60   11.00
   4  -8   4   21.00    7.90
   4  -8   4   11.80    5.30
   4   7  -4    3.10    4.80
   4   7  -4    8.40    6.80
   4   7  -4    0.80    6.00
  -4  -7   4   11.90    7.20
  -4  -7   4   -1.80    3.80
   3   7  -4   49.70   10.20
   3   7  -4   35.20    6.90
  -3  -7   4   37.50    9.60
  -3  -7   4   69.19   10.40
   2   7  -4 1288.07   41.80
   2   7  -4 1261.87   45.90
  -2  -7   4 1323.07   49.50
  -2  -7   4 1316.67   40.00
  -2  -7   4 1387.66   41.50
   1   7  -4   16.70    5.70
   1   7  -4   22.60    4.80
   1   7  -4   21.60    3.90
  -1  -7   4   28.80    6.90
  -1  -7   4   21.90    4.20
  -1  -7   4   23.30    6.90
   0   7  -4 1195.78   38.70
   0   7  -4 1145.59   29.60
   0  -7   4 1114.29   37.90
  -1   7  -4 1087.29   32.50
  -1   7  -4 1178.78   39.40
   1  -7   4 1052.49   30.20
   1  -7   4 1109.59   36.30
  -2   7  -4  502.85   24.20
  -2   7  -4  518.45   17.40
   2  -7   4  506.35   25.00
   2  -7   4  507.35   22.50
  -3   7  -4    1.70    3.00
   3  -7   4    1.00    3.10
   3  -7   4    4.70    3.80
   3  -7   4    0.10    2.40
  -4   7  -4   31.20    9.20
  -4   7  -4   11.90    6.40
   4  -7   4    1.20    3.90
   4  -7   4    4.70    5.70
   4  -7   4    7.40    5.30
   4   6  -4  237.58   23.70
   4   6  -4  265.57   24.80
  -4  -6   4  249.18   24.00
  -4  -6   4  268.27   19.60
   3   6  -4   56.79    8.00
  -3  -6   4   54.89    8.90
  -3  -6   4   76.59   10.40
   2   6  -4 1539.95   46.10
   2   6  -4 1538.65   48.40
  -2  -6   4 1592.34   43.00
  -2  -6   4 1548.25   52.29
  -2  -6   4 1547.25   44.00
   1   6  -4   53.79    5.60
   1   6  -4   50.29    6.40
   1   6  -4   55.79    8.60
  -1  -6   4   50.99    8.80
  -1  -6   4   49.00    6.00
  -1  -6   4   50.19    7.00
   0   6  -4 1256.27   38.20
   0   6  -4 1298.47   30.70
   0   6  -4 1286.27   25.80
   0  -6   4 1278.77   38.70
  -1   6  -4  256.87   14.20
  -1   6  -4  269.47   17.00
   1  -6   4  237.98   13.00
   1  -6   4  272.47   16.10
  -2   6  -4  274.77   13.00
  -2   6  -4  264.67   16.90
   2  -6   4  262.07   15.40
   2  -6   4  273.27   17.60
  -3   6  -4  844.12   30.90
   3  -6   4  854.71   33.20
   3  -6   4  862.51   39.90
   3  -6   4  907.31   36.60
  -4   6  -4  156.58   17.70
  -4   6  -4  191.78   17.40
   4  -6   4  163.68   18.00
   4  -6   4  192.58   17.50
   4   5  -4   -4.00    2.60
   4   5  -4   -0.80    3.10
   4   5  -4   -3.70    5.20
   4   5  -4    2.30    5.20
  -4  -5   4    8.80    5.90
   3   5  -4  698.53   35.90
   3   5  -4  703.33   27.30
   3   5  -4  670.33   25.40
  -3  -5   4  651.23   27.30
   2   5  -4    3.00    2.90
   2   5  -4    6.80    3.70
  -2  -5   4    6.80    3.80
  -2  -5   4    6.00    4.20
  -2  -5   4    7.50    3.40
   1   5  -4 3847.91   76.69
   1   5  -4 3748.72   70.09
  -1  -5   4 3917.61   70.59
  -1  -5   4 3820.72   68.19
  -1  -5   4 3846.42   79.79
   0   5  -4 2262.37   39.50
   0   5  -4 2199.68   51.49
   0   5  -4 2276.67   43.70
   0  -5   4 2306.07   52.59
  -1   5  -4 1861.81   42.30
  -1   5  -4 1940.11   47.60
   1  -5   4 1858.41   40.60
   1  -5   4 1863.11   44.50
  -2   5  -4   18.20    5.50
  -2   5  -4   11.20    3.70
   2  -5   4   15.60    4.70
   2  -5   4   13.40    4.80
  -3   5  -4  570.34   25.70
   3  -5   4  634.44   32.30
   3  -5   4  597.94   28.60
  -4   5  -4   29.30    8.00
  -4   5  -4   23.10    8.20
   4  -5   4   30.60   10.10
   4  -5   4   18.30    6.60
   4   4  -4   46.60    9.70
   4   4  -4   62.89   13.40
   4   4  -4   66.09   13.60
   4   4  -4   47.10    8.20
  -4  -4   4   46.30    9.10
  -4  -4   4   60.69   11.40
   3   4  -4   92.19   12.60
   3   4  -4   98.29   10.40
   3   4  -4   92.29    9.20
  -3  -4   4   86.99   10.80
  -3  -4   4   93.29    9.80
   2   4  -4   62.39    8.60
   2   4  -4   50.19    8.00
  -2  -4   4   72.09    8.70
  -2  -4   4   66.99    7.20
   1   4  -4   52.39    6.40
   1   4  -4   47.30    6.80
  -1  -4   4   50.19    7.40
  -1  -4   4   61.59    6.20
  -1  -4   4   53.19    5.90
   0   4  -4  396.06   14.30
   0   4  -4  382.56   17.50
   0   4  -4  377.76   12.50
   0  -4   4  379.26   17.40
  -1   4  -4  973.50   27.30
   1  -4   4  990.80   26.20
   1  -4   4  972.90   28.10
  -2   4  -4 1179.58   35.50
  -2   4  -4 1140.89   31.40
   2  -4   4 1184.18   35.90
   2  -4   4 1239.88   37.20
   2  -4   4 1173.38   33.80
  -3   4  -4   99.79   10.80
  -3   4  -4   96.49   11.40
   3  -4   4   84.89   10.30
  -4   4  -4  188.48   18.00
  -4   4  -4  198.28   17.90
   4  -4   4  215.88   17.70
   4  -4   4  218.28   18.30
  -5   4  -4   -2.20    5.40
   5  -4   4  -11.10    7.70
   5  -4   4    5.00    5.20
   4   3  -4   39.00    9.30
   4   3  -4   28.40    9.80
   4   3  -4   20.90    5.60
   4   3  -4   57.99   12.30
  -4  -3   4   37.70   10.20
  -4  -3   4   33.10    7.80
   3   3  -4 1231.48   33.20
   3   3  -4 1112.49   47.70
   3   3  -4 1284.07   46.80
   3   3  -4 1259.87   38.80
  -3  -3   4 1216.38   34.80
   2   3  -4   -2.30    2.10
   2   3  -4    1.60    1.50
   2   3  -4    3.40    2.50
  -2  -3   4   -2.20    2.00
  -2  -3   4    2.10    1.80
   1   3  -4  493.75   20.20
   1   3  -4  477.05   18.90
  -1  -3   4  488.65   18.30
  -1  -3   4  497.55   17.50
  -1  -3   4  492.85   21.20
   0   3  -4 1048.90   23.80
   0   3  -4 1011.80   28.50
   0   3  -4 1045.80   24.70
   0  -3   4 1018.70   28.50
  -1   3  -4   39.90    5.10
   1  -3   4   36.70    5.00
   1  -3   4   41.80    5.00
  -2   3  -4   28.90    5.50
  -2   3  -4   24.90    4.90
   2  -3   4   33.00    5.60
   2  -3   4   32.80    5.80
  -3   3  -4    3.70    3.40
  -3   3  -4    8.40    4.80
   3  -3   4    4.70    3.30
   3  -3   4    6.20    3.60
  -4   3  -4  123.39   14.20
  -4   3  -4  116.79   14.50
   4  -3   4  125.29   14.50
   4  -3   4  131.19   14.00
  -5   3  -4   14.80    9.30
  -5   3  -4   34.20    9.80
   5  -3   4   19.60    7.90
   5  -3   4    4.40    5.00
   5   2  -4   19.30    9.00
   4   2  -4  489.25   26.50
   4   2  -4  528.65   33.60
   4   2  -4  484.45   21.40
  -4  -2   4  486.15   30.90
  -4  -2   4  520.35   23.40
   3   2  -4    3.30    3.00
   3   2  -4    2.20    3.70
   3   2  -4    2.50    2.10
   3   2  -4    8.50    3.40
  -3  -2   4    5.00    3.00
  -3  -2   4    7.10    4.70
   2   2  -4 1822.62   49.90
   2   2  -4 1896.91   50.19
   2   2  -4 1889.21   37.40
  -2  -2   4 1862.81   48.10
  -2  -2   4 1886.61   39.00
   1   2  -4 1094.59   30.30
   1   2  -4 1081.49   30.10
  -1  -2   4 1109.69   31.70
  -1  -2   4 1081.29   29.10
  -1  -2   4 1097.89   23.80
  -1   2  -4   25.30    4.20
   1  -2   4   20.60    3.70
   1  -2   4   31.70    4.20
  -2   2  -4 1567.34   39.30
  -2   2  -4 1508.35   39.00
   2  -2   4 1520.15   37.50
   2  -2   4 1533.65   40.20
  -3   2  -4    3.60    2.90
  -3   2  -4   -0.80    2.50
   3  -2   4    2.60    3.10
   3  -2   4   -0.10    2.30
  -4   2  -4  256.17   21.00
  -4   2  -4  257.47   20.00
   4  -2   4  262.37   18.90
   4  -2   4  259.87   19.70
  -5   2  -4   -0.10    6.60
  -5   2  -4   -0.10    6.20
   5  -2   4   12.30    5.40
   5  -2   4   13.30    8.40
   5   1  -4    4.00    4.60
   5   1  -4   -9.30    5.30
   5   1  -4  -12.00    4.80
   4   1  -4  176.28   12.00
   4   1  -4  197.78   17.50
   4   1  -4  174.28   19.20
  -4  -1   4  175.68   13.20
   3   1  -4    2.50    3.70
   3   1  -4    1.20    2.90
   3   1  -4    6.10    2.80
   3   1  -4    0.50    2.30
  -3  -1   4   10.30    4.70
  -3  -1   4    3.40    2.30
   2   1  -4   54.99    4.90
   2   1  -4   53.99    8.10
   2   1  -4   65.19    8.50
  -2  -1   4   47.20    5.00
  -2  -1   4   51.09    7.30
   1   1  -4 1828.82   40.50
  -1  -1   4 1792.62   39.60
  -1  -1   4 1788.02   41.00
  -1  -1   4 1785.82   30.90
   0   1  -4 1032.10   24.80
   0   1  -4 1036.10   24.40
   0  -1   4 1060.59   24.40
  -1   1  -4 1652.73   34.40
   1  -1   4 1624.54   35.50
   1  -1   4 1667.23   33.60
   1  -1   4 1636.24   32.70
  -2   1  -4  289.67   15.50
  -2   1  -4  256.37   14.00
   2  -1   4  263.97   15.10
   2  -1   4  263.77   13.40
  -3   1  -4 2169.78   54.29
  -3   1  -4 2208.68   57.79
   3  -1   4 2228.28   57.09
   3  -1   4 2215.18   52.89
  -4   1  -4    4.10    3.90
  -4   1  -4   10.30    6.30
   4  -1   4   18.40    7.90
   4  -1   4   14.60    5.30
  -5   1  -4  101.79   18.60
  -5   1  -4  122.39   17.10
   5  -1   4  136.19   17.20
   5  -1   4  123.49   14.90
   5   0  -4   28.70   10.30
   5   0  -4   20.10    6.80
   4   0  -4   75.89    8.30
   4   0  -4   84.19   12.10
   4   0  -4   91.19   14.30
  -4   0   4   77.69   16.10
   3   0  -4  144.99   13.00
   3   0  -4  147.79   15.00
   3   0  -4  120.09    8.50
  -3   0   4  140.99    9.50
   2   0  -4  525.75   23.70
   2   0  -4  559.74   16.10
   2   0  -4  581.44   25.50
  -2   0   4  535.85   23.40
  -2   0   4  553.54   15.90
   1   0  -4 3004.50   55.69
   1   0  -4 2854.61   56.99
  -1   0   4 2944.51   56.19
  -1   0   4 2947.91   42.50
   0   0  -4  375.86   11.40
   0   0  -4  388.86   14.20
   0   0   4  364.56   11.20
  -1   0  -4  553.54   16.70
   1   0   4  581.84   16.50
   1   0   4  569.64   18.40
  -2   0  -4    0.10    1.70
  -2   0  -4   -0.60    1.70
  -2   0  -4    0.20    1.30
   2   0   4    0.70    1.40
   2   0   4   -1.00    2.40
  -3   0  -4  129.49   12.20
  -3   0  -4  112.89   11.00
  -3   0  -4  118.39   12.50
   3   0   4  120.19   11.70
   3   0   4  124.79   11.00
  -4   0  -4  149.59   14.40
   4   0   4  147.69   14.80
   4   0   4  170.78   14.90
  -5   0  -4   16.10    7.60
  -5   0  -4   16.00   12.90
   5   0   4   20.90    8.40
   5   0   4    6.90    5.20
   5  -1  -4   43.90    9.00
   5  -1  -4   70.69   11.70
   5  -1  -4   33.20    8.80
   4  -1  -4   95.89   14.60
   4  -1  -4   85.69    8.80
   4  -1  -4   71.69   11.10
   4  -1  -4   82.29   13.80
  -4   1   4   68.69   12.00
   3  -1  -4  913.11   25.00
   3  -1  -4  954.90   38.90
   3  -1  -4  928.41   34.20
   2  -1  -4   44.10    7.20
   2  -1  -4   47.10    6.40
   2  -1  -4   43.40    3.80
  -2   1   4   49.99    4.30
  -2   1   4   44.90    7.30
   1  -1  -4 3941.41   70.59
  -1   1   4 3857.41   68.99
   0  -1  -4  262.77    8.00
   0  -1  -4  277.67    7.90
   0   1   4  266.17    7.90
   0   1   4  268.27    8.30
  -1  -1  -4 2370.36   47.10
   1   1   4 2200.88   39.70
   1   1   4 2302.27   44.30
  -2  -1  -4   -0.40    1.30
  -2  -1  -4    5.40    3.00
  -2  -1  -4   -1.30    2.10
   2   1   4   -1.10    1.60
   2   1   4    4.10    2.00
  -3  -1  -4   97.79   10.10
  -3  -1  -4  125.99   12.10
  -3  -1  -4  104.99   12.30
   3   1   4  110.29   11.60
   3   1   4  114.29   10.50
  -4  -1  -4   35.30    7.10
  -4  -1  -4   15.00    5.10
   4   1   4   17.40    6.10
   4   1   4   24.60    7.00
  -5  -1  -4   -5.50    5.40
   5   1   4    3.70    4.10
   5   1   4    0.30    6.70
   5  -2  -4  108.39   17.60
   5  -2  -4   85.59   11.10
   5  -2  -4  111.19   16.30
   4  -2  -4  124.59   14.10
   4  -2  -4  115.89   15.50
   4  -2  -4  129.49   10.30
  -4   2   4  108.19   14.90
   3  -2  -4 1211.58   40.30
   3  -2  -4 1219.48   29.90
   3  -2  -4 1288.07   45.20
  -3   2   4 1129.99   50.19
   2  -2  -4 1094.39   35.90
   2  -2  -4 1071.39   32.60
   2  -2  -4 1081.39   22.40
  -2   2   4 1105.39   34.70
   1  -2  -4    0.80    1.40
  -1   2   4    1.60    1.50
   0  -2  -4 1497.85   26.00
   0   2   4 1498.45   25.80
  -1  -2  -4  179.18    8.00
   1   2   4  182.88    9.80
   1   2   4  187.38    8.00
  -2  -2  -4 7685.03  115.49
  -2  -2  -4 7731.53  123.59
  -2  -2  -4 7468.25  125.29
   2   2   4 7686.53  122.69
   2   2   4 7472.85  112.99
  -3  -2  -4   10.10    4.80
  -3  -2  -4   32.80    5.90
  -3  -2  -4   22.60    6.10
   3   2   4   18.60    4.60
   3   2   4   14.50    4.90
  -4  -2  -4  422.06   24.60
  -4  -2  -4  386.96   22.30
   4   2   4  391.36   21.10
   4   2   4  376.86   23.90
  -5  -2  -4    7.30    5.30
  -5  -2  -4   -1.50    6.30
   5   2   4    6.90    5.20
   5   2   4   10.20    6.90
   5  -3  -4    4.90    6.00
   4  -3  -4  196.88   19.40
   4  -3  -4  202.38   18.40
   4  -3  -4  177.98   12.30
  -4   3   4  200.58   19.00
   3  -3  -4    6.70    3.10
   3  -3  -4    6.20    4.20
   3  -3  -4   15.10    5.90
  -3   3   4    7.00    4.80
   2  -3  -4 3408.76   54.19
   2  -3  -4 3432.86   69.19
   2  -3  -4 3308.37   71.49
  -2   3   4 3505.85   71.19
   1  -3  -4  485.55   19.40
  -1   3   4  487.75   18.80
  -1  -3  -4  123.79    6.30
  -1  -3  -4  126.99    8.30
   1   3   4  119.29    5.70
   1   3   4  123.19    8.20
  -2  -3  -4 1313.87   36.80
  -2  -3  -4 1351.96   30.80
   2   3   4 1319.47   29.00
   2   3   4 1289.17   36.00
  -3  -3  -4   56.09    6.40
  -3  -3  -4   39.40    8.20
  -3  -3  -4   46.70    8.20
   3   3   4   51.69    6.50
   3   3   4   60.99    9.20
  -4  -3  -4   67.99   10.30
   4   3   4   57.09   10.30
   4   3   4   65.89   12.00
   4   3   4   48.10    8.10
  -5  -3  -4  122.89   16.00
  -5  -3  -4  185.28   25.30
   5   3   4  157.88   19.30
   5   3   4  150.68   14.80
   4  -4  -4   17.10    5.30
   4  -4  -4   41.50    8.60
   4  -4  -4   45.50    8.40
  -4   4   4   20.70    6.60
   3  -4  -4    6.70    3.50
   3  -4  -4   -1.00    2.40
   3  -4  -4   -4.10    2.00
  -3   4   4    7.80    4.30
   2  -4  -4  197.58   13.70
   2  -4  -4  183.78   13.90
  -2   4   4  197.58   14.00
   1  -4  -4    3.00    2.20
  -1   4   4    2.10    2.00
   0  -4  -4  387.06   12.30
   0  -4  -4  378.36   10.50
   0   4   4  398.36   12.10
  -1  -4  -4 2536.65   39.70
  -1  -4  -4 2411.86   48.50
   1   4   4 2480.85   48.10
   1   4   4 2524.45   41.50
  -2  -4  -4  475.05   15.80
  -2  -4  -4  479.45   20.90
  -2  -4  -4  482.65   22.20
   2   4   4  493.85   19.00
   2   4   4  475.95   14.80
   2   4   4  457.85   20.30
  -3  -4  -4  451.05   25.70
  -3  -4  -4  470.05   24.50
  -3  -4  -4  471.75   19.40
   3   4   4  490.75   24.50
   3   4   4  481.85   24.10
   3   4   4  482.25   18.60
  -4  -4  -4    4.60    3.60
  -4  -4  -4    5.40    2.80
   4   4   4   -0.30    2.80
   4   4   4    0.40    2.80
   4   4   4    7.40    4.20
  -5  -4  -4   75.09   13.60
   5   4   4   91.59   14.90
   5   4   4   86.59   11.30
   5   4   4   50.49   15.20
   4  -5  -4  176.88   17.80
   4  -5  -4  195.88   19.10
   4  -5  -4  174.08   12.40
  -4   5   4  163.68   16.40
   3  -5  -4  273.57   19.80
   3  -5  -4  281.97   14.10
  -3   5   4  288.87   19.90
   2  -5  -4   49.99    7.40
   2  -5  -4   51.29    5.00
   2  -5  -4   45.70    7.20
  -2   5   4   43.60    6.70
   1  -5  -4    5.00    2.40
   1  -5  -4   11.10    3.70
  -1   5   4    4.30    2.50
   0  -5  -4   16.70    2.80
   0  -5  -4   14.30    2.80
   0   5   4   14.60    2.70
  -1  -5  -4  674.33   18.30
  -1  -5  -4  716.03   14.70
  -1  -5  -4  681.13   22.60
   1   5   4  729.73   22.30
   1   5   4  696.83   18.50
  -2  -5  -4   15.70    5.50
  -2  -5  -4    5.20    3.40
   2   5   4   15.00    2.80
   2   5   4   12.40    4.70
   2   5   4    9.60    3.50
  -3  -5  -4  268.87   18.90
  -3  -5  -4  268.87   13.80
   3   5   4  272.07   18.10
   3   5   4  259.67   12.90
  -4  -5  -4   72.29   11.20
   4   5   4   57.79   11.40
   4   5   4   66.69   10.40
   4   5   4   64.49    8.80
   5   5   4   29.30    7.10
   5   5   4   36.80   10.20
   5   5   4   39.00   13.10
   4  -6  -4   32.00    8.10
   4  -6  -4   50.79   11.10
   4  -6  -4   40.30    7.70
  -4   6   4   69.89   11.20
   3  -6  -4  867.01   36.00
   3  -6  -4  880.61   27.40
   3  -6  -4  870.21   35.30
  -3   6   4  985.70   38.00
   2  -6  -4  410.26   20.50
   2  -6  -4  390.76   20.10
  -2   6   4  421.06   20.30
   1  -6  -4 4445.86   79.79
   1  -6  -4 4526.55   78.09
   0  -6  -4 2105.89   41.30
   0  -6  -4 2097.79   40.60
  -1  -6  -4  536.85   17.80
  -1  -6  -4  555.04   20.80
  -1  -6  -4  562.54   11.40
   1   6   4  571.04   20.40
  -2  -6  -4  212.78   14.70
  -2  -6  -4  212.18    8.50
  -2  -6  -4  222.68   15.50
   2   6   4  225.88   13.40
   2   6   4  225.78    8.20
   2   6   4  208.28   14.20
  -3  -6  -4  120.99   13.00
  -3  -6  -4  143.19   14.80
   3   6   4  126.59   13.00
   3   6   4  128.79    8.70
   3   6   4  127.49   13.00
  -4  -6  -4  125.79   14.60
  -4  -6  -4  160.78   18.40
   4   6   4  154.38   11.60
   4   6   4  150.08   15.80
   4   6   4  172.58   17.70
  -5  -6  -4   -1.40    5.80
   5   6   4   -2.60    8.00
   5   6   4   -4.30    4.60
   4  -7  -4   54.09   10.20
   4  -7  -4   49.70   10.60
   4  -7  -4   39.70    7.80
  -4   7   4   56.09   12.80
   3  -7  -4   -1.50    2.40
   3  -7  -4   -2.50    2.30
   3  -7  -4    5.90    3.60
  -3   7   4    6.40    3.80
   2  -7  -4  190.98   14.00
   2  -7  -4  173.98   13.50
  -2   7   4  199.78   14.00
   1  -7  -4   95.09    8.30
   1  -7  -4   85.39    8.50
   1  -7  -4   84.59    8.30
   0  -7  -4 3843.92   68.79
   0  -7  -4 4009.40   73.29
   0  -7  -4 4040.90   63.29
  -1  -7  -4  653.53   23.90
   1   7   4  693.33   21.60
   1   7   4  712.53   24.00
  -2  -7  -4 2463.35   59.49
  -2  -7  -4 2279.17   57.19
   2   7   4 2459.65   53.29
  -3  -7  -4   17.50    5.00
   3   7   4   24.60    4.00
   3   7   4   11.80    4.60
   3   7   4   15.90    5.30
  -4  -7  -4  244.98   21.70
  -4  -7  -4  223.48   20.20
   4   7   4  226.08   13.20
   4   7   4  249.88   19.80
   4  -8  -4   -3.60    3.40
   4  -8  -4    0.30    3.80
   4  -8  -4    3.10    4.50
  -4   8   4   -2.00    4.90
   3  -8  -4   68.39   10.50
   3  -8  -4   67.59    8.30
   3  -8  -4   66.89    9.90
  -3   8   4   67.89    9.90
   2  -8  -4  434.46   21.80
   2  -8  -4  464.05   21.60
  -2   8   4  448.36   21.40
   1  -8  -4    8.70    3.10
   1  -8  -4    5.00    2.50
   1  -8  -4   10.80    3.60
   1  -8  -4    8.10    3.10
   0  -8  -4    1.20    1.50
   0  -8  -4   -0.80    1.90
   0  -8  -4   -1.20    1.30
  -1  -8  -4    0.40    1.70
  -1  -8  -4    0.80    2.10
   1   8   4    0.50    1.60
   1   8   4    0.60    1.90
  -2  -8  -4   38.10    7.60
  -2  -8  -4   55.59    8.40
  -2  -8  -4   50.89    7.90
   2   8   4   36.90    6.90
   2   8   4   44.80    7.30
  -3  -8  -4  359.86   23.90
   3   8   4  387.56   11.80
   3   8   4  378.56   22.00
   3   8   4  371.86   22.40
  -4  -8  -4   60.09   12.00
  -4  -8  -4   75.49   13.60
   4   8   4   29.80    8.00
   4  -9  -4   12.50   10.70
   4  -9  -4   37.80    9.60
   4  -9  -4   45.80    9.40
  -4   9   4   28.50    9.20
   3  -9  -4  126.29   12.90
   3  -9  -4  128.39   11.30
   3  -9  -4  128.49   13.10
  -3   9   4  113.39   12.50
   2  -9  -4  330.47   20.70
   2  -9  -4  338.07   18.60
   2  -9  -4  346.47   19.80
   1  -9  -4  365.76   16.90
   1  -9  -4  357.76   18.20
   1  -9  -4  348.97   16.40
   1  -9  -4  347.27   16.50
   0  -9  -4  826.12   27.50
   0  -9  -4  846.92   29.20
   0  -9  -4  851.01   21.30
  -1  -9  -4   32.60    6.50
  -1  -9  -4   44.90    7.20
   1   9   4   32.80    7.30
   1   9   4   39.50    6.10
  -2  -9  -4    2.60    2.80
  -2  -9  -4    1.60    3.50
  -2  -9  -4   -0.30    2.90
   2   9   4    2.20    3.20
  -3  -9  -4    0.40    2.90
  -3  -9  -4    2.70    3.50
   3   9   4   -2.40    3.30
   3   9   4    2.00    3.70
  -4  -9  -4    5.30    5.20
  -4  -9  -4    4.20    6.70
   4   9   4   10.80    7.00
   4 -10  -4   -3.10    3.40
   4 -10  -4    3.10    5.20
   4 -10  -4   10.50    6.70
  -4  10   4   13.20    6.80
   3 -10  -4  156.08   13.40
   3 -10  -4  167.88   15.00
   3 -10  -4  143.39   14.10
  -3  10   4  138.09   13.70
   2 -10  -4   46.10    7.50
   2 -10  -4   36.90    7.60
   2 -10  -4   29.00    7.90
   1 -10  -4  915.51   32.00
   1 -10  -4  905.81   30.00
   1 -10  -4  940.21   28.20
   1 -10  -4  881.71   28.30
   0 -10  -4  345.57   18.70
   0 -10  -4  321.77   18.80
   0 -10  -4  329.67   17.60
  -1 -10  -4 1119.79   37.10
  -1 -10  -4 1127.79   37.50
   1  10   4 1097.09   33.50
  -2 -10  -4  299.97   19.50
  -2 -10  -4  289.47   19.20
  -2 -10  -4  250.87   22.10
   2  10   4  289.57   18.10
  -3 -10  -4  444.56   27.20
  -3 -10  -4  467.25   27.80
   3  10   4  397.06   30.10
   3  10   4  472.65   25.90
  -4 -10  -4   11.50    6.40
  -4 -10  -4   13.60    8.40
   4  10   4   25.50    9.00
   4  10   4    4.90    5.40
   3 -11  -4  272.77   23.10
   3 -11  -4  256.57   19.70
   3 -11  -4  262.97   18.10
   2 -11  -4  482.05   21.80
   2 -11  -4  475.55   23.90
   2 -11  -4  458.45   25.80
   1 -11  -4  419.86   19.00
   1 -11  -4  435.46   21.30
   1 -11  -4  435.06   17.90
   1 -11  -4  386.56   21.50
   0 -11  -4    0.70    3.20
   0 -11  -4    1.10    1.90
   0 -11  -4    1.60    1.80
   0 -11  -4    3.20    3.10
  -1 -11  -4   63.69   10.30
  -1 -11  -4   78.59   10.20
   1  11   4   94.39    9.90
  -2 -11  -4  426.76   23.50
  -2 -11  -4  394.26   23.30
  -2 -11  -4  432.66   25.10
   2  11   4  405.26   22.40
  -3 -11  -4    0.90    4.30
  -3 -11  -4    0.70    5.30
   3  11   4    1.30    5.10
   3  11   4    1.30    3.50
  -4 -11  -4   51.49   12.70
  -4 -11  -4   74.09   14.40
   4  11   4   84.19   16.80
   3 -12  -4   21.30    6.00
   3 -12  -4   14.70    5.10
   3 -12  -4    7.10    5.00
   2 -12  -4   11.50    4.20
   2 -12  -4    6.70    3.80
   2 -12  -4   10.00    4.90
   1 -12  -4   21.40    5.10
   1 -12  -4   20.10    5.80
   1 -12  -4   25.30    5.30
   1 -12  -4   38.30    7.60
   0 -12  -4   42.20    7.80
   0 -12  -4   56.79    7.00
   0 -12  -4   58.79    5.90
   0 -12  -4   55.69    9.90
  -1 -12  -4  436.46   25.30
  -1 -12  -4  462.65   21.20
   1  12   4  489.45   23.40
  -2 -12  -4  137.79   14.20
  -2 -12  -4  131.79   15.00
  -2 -12  -4  104.29   12.60
   2  12   4  112.79   12.90
  -3 -12  -4   11.00    6.30
  -3 -12  -4    8.40    5.80
   3  12   4   -1.60    4.30
  -4 -12  -4    6.70    7.50
  -4 -12  -4   11.30    6.20
   3 -13  -4   -4.80    3.40
   3 -13  -4    0.00    4.60
   3 -13  -4    5.70    5.20
   2 -13  -4    4.30    2.90
   2 -13  -4    2.20    3.60
   2 -13  -4    0.60    3.50
   2 -13  -4    1.40    3.20
   1 -13  -4  190.08   13.10
   1 -13  -4  210.68   11.70
   0 -13  -4  101.69    9.20
   0 -13  -4  113.49    7.30
   0 -13  -4  106.89   12.30
   0 -13  -4  123.89   14.20
  -1 -13  -4    0.40    4.20
  -1 -13  -4    6.70    4.10
  -1 -13  -4    1.00    3.30
   1  13   4    6.00    4.60
  -2 -13  -4   91.09   12.90
  -2 -13  -4   89.69   13.40
   2  13   4   86.39   11.90
  -3 -13  -4    2.60    5.50
  -3 -13  -4   -4.30    4.00
   3  13   4   -4.80    5.00
   3  13   4    6.70    4.00
   2 -14  -4   18.10    7.10
   2 -14  -4   29.20    5.90
   2 -14  -4   11.90    5.50
   2 -14  -4   15.20    5.40
   1 -14  -4  151.18   16.20
   1 -14  -4  170.58   12.30
   1 -14  -4  173.98   10.50
   1 -14  -4  174.08   15.70
   0 -14  -4   36.40   10.10
   0 -14  -4   29.20    4.40
   0 -14  -4   27.90    5.30
  -1 -14  -4   65.59   10.10
  -1 -14  -4   69.39    8.60
  -1 -14  -4   42.60   12.80
   1  14   4   75.89   11.30
  -2 -14  -4    5.70    5.40
  -2 -14  -4    8.30    5.60
  -2 -14  -4    5.70    5.30
   2  14   4    3.50    4.10
  -3 -14  -4   29.70    8.90
  -3 -14  -4   24.00    7.70
   3  14   4   39.20   12.10
   2 -15  -4   16.60    8.00
   2 -15  -4   15.20    5.40
   2 -15  -4   16.30    7.20
   1 -15  -4  231.38   14.40
   1 -15  -4  256.37   21.90
   1 -15  -4  243.88   19.60
   0 -15  -4  242.78   20.40
   0 -15  -4  254.97   13.00
   0 -15  -4  262.17   13.30
   0 -15  -4  293.87   22.80
  -1 -15  -4  140.79   16.30
  -1 -15  -4  158.78   12.80
  -1 -15  -4  157.78   19.10
  -2 -15  -4   28.20    9.10
  -2 -15  -4   20.20    7.80
  -2 -15  -4   43.90    9.70
   2  15   4   20.50    8.60
   1 -16  -4   15.60    6.40
   1 -16  -4    5.40    4.00
   1 -16  -4    7.00    5.80
  -1 -16  -4   -5.00    3.60
  -1 -16  -4    0.40    3.80
  -1 -16  -4    2.30    4.30
   1  16   4   -4.50    5.00
  -2 -16  -4    1.20    4.70
  -2 -16  -4    7.10    6.80
   2  16   4   -6.60    4.80
   1 -17  -4   14.50    7.70
   1 -17  -4   19.60    7.50
   1 -17  -4   12.20    4.70
   0 -17  -4   12.10    8.10
  -1 -17  -4   -7.50    4.90
  -1 -17  -4    3.10    3.40
  -1 -17  -4    7.70    5.40
   1  17   4   -1.80    5.50
   1  15  -5   -1.80    3.00
  -1 -15   5    6.10    6.90
  -1 -15   5   -3.60    6.70
   0 -15   5   75.89   12.70
   0 -15   5   48.90   13.20
  -1  15  -5    1.80    5.80
   1 -15   5   22.60   11.00
  -2 -14   5   18.40    8.90
  -2 -14   5    5.80    4.20
  -2 -14   5    4.50    6.10
   1  14  -5  122.19   19.10
  -1 -14   5   97.09   20.40
  -1 -14   5  119.89   16.30
   0  14  -5   39.80   12.70
   0 -14   5   20.70    8.30
   0 -14   5   24.40    7.90
   1 -14   5   46.70   12.80
   1 -14   5   33.00    7.50
   2 -14   5   12.70    4.40
   2 -14   5    6.50    6.90
   2  13  -5  134.09   20.10
  -2 -13   5  133.49   17.90
  -2 -13   5  133.19   12.30
  -1 -13   5  144.59   18.90
  -1 -13   5  143.59   17.20
   0  13  -5  250.17   16.30
   0  13  -5  265.47   23.70
   0 -13   5  229.38   20.40
   0 -13   5  257.27   22.70
  -1  13  -5  133.29   13.10
   1 -13   5  127.79   13.00
   1 -13   5  125.99   16.80
  -2  13  -5  120.39   15.70
   2 -13   5  124.49   17.40
   2 -13   5  117.59   14.00
   3  12  -5    2.40    2.70
   3  12  -5    3.30    2.80
  -3 -12   5   -5.00    4.30
  -3 -12   5    4.90    7.10
  -3 -12   5   -2.10    7.80
   2  12  -5  114.59   17.10
  -2 -12   5  106.19   15.50
  -2 -12   5  118.99   18.60
  -2 -12   5   99.69   11.30
   1  12  -5    3.80    5.40
  -1 -12   5    7.10    5.10
  -1 -12   5    3.30    4.80
   0  12  -5    2.70    3.20
   0 -12   5    0.80    4.60
  -1  12  -5    0.70    3.30
   1 -12   5    0.40    4.70
   1 -12   5   -1.00    3.30
  -2  12  -5   58.09   10.60
   2 -12   5   32.30    7.50
   2 -12   5   32.30   10.30
  -3  12  -5   62.99   13.40
   3 -12   5   83.39   15.00
   3 -12   5   43.50   12.70
   3  11  -5   60.99   15.70
  -3 -11   5   36.20   11.60
  -3 -11   5   41.90    9.90
  -3 -11   5   26.00   12.40
   2  11  -5   36.20   10.90
  -2 -11   5   41.40   12.50
  -2 -11   5   26.00    7.10
  -2 -11   5   40.30    7.80
   1  11  -5  155.28   11.00
  -1 -11   5  164.78   16.40
  -1 -11   5  163.88    9.70
  -1 -11   5  183.78   19.30
   0  11  -5    8.90    4.30
   0 -11   5   17.90    7.70
  -1  11  -5   43.80    8.70
   1 -11   5   26.60    7.80
   1 -11   5   43.30    8.10
   2 -11   5   13.10    4.70
   2 -11   5    3.80    5.00
  -3  11  -5    7.50    6.50
   3 -11   5   -5.10    3.70
   3 -11   5    2.60    4.10
   3  10  -5   56.59   10.60
   3  10  -5   49.90    8.40
   3  10  -5   24.20    8.90
  -3 -10   5   46.50   11.60
  -3 -10   5   51.49   10.50
   2  10  -5  136.19   13.70
   2  10  -5  138.19   10.20
  -2 -10   5  140.99   13.00
  -2 -10   5  117.99   16.60
  -2 -10   5  138.79   14.70
   1  10  -5  851.61   26.20
   1  10  -5  882.81   27.10
  -1 -10   5  848.82   39.20
  -1 -10   5  825.92   25.00
   0  10  -5    0.90    2.20
   0 -10   5   -0.30    3.60
  -1  10  -5  541.95   25.20
   1 -10   5  570.44   30.60
   1 -10   5  569.64   23.90
   2 -10   5  269.97   18.10
   2 -10   5  297.57   21.90
  -3  10  -5   76.39   13.10
   3 -10   5   75.89   12.60
   3 -10   5   54.99    9.70
   3   9  -5  323.97   29.30
   3   9  -5  331.27   18.60
   3   9  -5  347.17   24.80
  -3  -9   5  360.36   24.90
  -3  -9   5  315.77   22.80
   2   9  -5   43.50    8.70
   2   9  -5   36.40    5.90
  -2  -9   5   36.20   10.60
  -2  -9   5   25.80    6.70
   1   9  -5  573.44   20.50
   1   9  -5  594.94   22.10
  -1  -9   5  560.54   27.40
  -1  -9   5  570.54   36.20
  -1  -9   5  557.94   20.10
   0   9  -5  189.98   16.70
   0   9  -5  189.58   12.70
   0  -9   5  181.48   17.00
  -1   9  -5  797.62   36.70
  -1   9  -5  879.01   31.40
   1  -9   5  824.42   28.30
   1  -9   5  831.22   35.80
  -2   9  -5  339.27   21.70
   2  -9   5  359.66   21.90
   2  -9   5  329.47   22.40
  -3   9  -5   37.30    8.30
   3  -9   5   61.69   12.40
   3  -9   5   52.19    9.80
   3  -9   5   76.09   11.60
   4  -9   5  113.19   16.10
   4  -9   5  145.49   20.00
   4  -9   5  125.49   15.50
   4   8  -5   68.49   12.20
   4   8  -5   86.69   15.80
  -4  -8   5   67.29   13.30
  -4  -8   5   66.59   15.00
   3   8  -5   -2.90    3.20
   3   8  -5   -0.50    2.60
   3   8  -5   -2.00    3.80
  -3  -8   5   -3.80    3.40
  -3  -8   5    2.50    4.70
   2   8  -5   82.99   10.70
  -2  -8   5   90.59   14.60
  -2  -8   5   93.19   11.40
  -2  -8   5   83.79    9.80
   1   8  -5    0.10    1.30
   1   8  -5    1.30    1.90
  -1  -8   5    1.20    2.20
  -1  -8   5   -1.10    1.40
  -1  -8   5    0.90    3.60
   0   8  -5 1572.24   48.20
   0   8  -5 1526.15   38.10
   0  -8   5 1479.35   47.90
  -1   8  -5  464.55   21.40
  -1   8  -5  457.25   26.20
   1  -8   5  444.66   24.60
   1  -8   5  487.85   20.40
  -2   8  -5  159.68   14.80
  -2   8  -5  155.28    8.30
   2  -8   5  154.58   17.90
   2  -8   5  167.58   13.60
  -3   8  -5    4.10    4.10
   3  -8   5    6.70    4.10
   3  -8   5    2.40    3.70
   3  -8   5    5.30    5.00
  -4   8  -5   57.79   13.60
   4  -8   5   47.00   11.90
   4  -8   5   66.09   12.50
   4   7  -5    1.80    5.50
   4   7  -5   -0.10    8.20
   4   7  -5    4.80    4.60
  -4  -7   5    0.40    4.40
  -4  -7   5   -6.50    5.10
   3   7  -5   54.49   12.70
   3   7  -5   25.60    6.50
  -3  -7   5   38.20    9.20
  -3  -7   5   43.00   10.50
   2   7  -5  656.93   29.80
  -2  -7   5  687.03   28.50
  -2  -7   5  741.03   29.50
  -2  -7   5  734.93   37.40
   1   7  -5  222.98   12.00
   1   7  -5  251.87   18.10
   1   7  -5  228.98   13.80
  -1  -7   5  234.58   18.90
  -1  -7   5  231.08   12.80
  -1  -7   5  252.27   16.20
   0   7  -5  217.98    9.60
   0   7  -5  235.18   12.80
   0   7  -5  218.28   16.30
   0  -7   5  212.78   16.40
  -1   7  -5  114.99   12.40
  -1   7  -5  101.99    9.60
   1  -7   5   99.69    8.70
   1  -7   5  100.19   11.20
  -2   7  -5   77.69    6.70
   2  -7   5   79.69   10.60
   2  -7   5   71.29    8.70
  -3   7  -5   80.49    9.60
   3  -7   5   87.89   11.10
   3  -7   5   83.99   12.00
   3  -7   5  103.49   13.00
  -4   7  -5    6.80    5.20
  -4   7  -5    2.00    3.30
   4  -7   5   10.20    5.00
   4  -7   5   -0.40    3.10
   4   6  -5  203.88   22.40
   4   6  -5  290.87   26.20
   4   6  -5  238.98   18.20
  -4  -6   5  244.78   18.70
  -4  -6   5  188.98   20.50
   3   6  -5    2.30    3.20
   3   6  -5    2.30    2.20
  -3  -6   5   -1.20    2.30
  -3  -6   5    0.20    3.20
   2   6  -5 1130.19   39.40
   2   6  -5 1001.80   48.50
  -2  -6   5 1177.98   37.90
  -2  -6   5 1141.89   45.30
  -2  -6   5 1176.68   36.40
   1   6  -5   71.59    9.40
   1   6  -5   50.99    5.90
   1   6  -5   55.79    7.00
  -1  -6   5   57.39    6.80
  -1  -6   5   69.29   10.70
  -1  -6   5   60.59    7.90
   0   6  -5  521.35   19.10
   0   6  -5  501.05   15.80
   0   6  -5  507.85   23.80
   0  -6   5  497.85   23.90
  -1   6  -5 1771.92   49.30
  -1   6  -5 1722.73   42.90
   1  -6   5 1710.83   40.90
   1  -6   5 1747.73   46.50
  -2   6  -5   53.19    6.10
  -2   6  -5   62.79    8.90
   2  -6   5   76.29    8.60
   2  -6   5   63.99    8.80
  -3   6  -5  210.68   15.20
   3  -6   5  232.38   16.70
   3  -6   5  228.48   18.60
   3  -6   5  203.78   17.40
  -4   6  -5  115.49   14.50
   4  -6   5  136.19   14.80
   4  -6   5  112.39   14.90
   4  -6   5  105.29   14.80
   4   5  -5    0.90    5.20
   4   5  -5   -3.20    5.20
   4   5  -5   -1.60    3.20
  -4  -5   5    2.60    4.50
   3   5  -5  765.32   37.40
   3   5  -5  777.82   30.50
  -3  -5   5  731.33   33.70
  -3  -5   5  796.82   30.10
   2   5  -5   14.70    5.70
   2   5  -5   15.70    6.10
  -2  -5   5    8.90    5.40
  -2  -5   5   12.70    4.10
  -2  -5   5   14.90    5.30
   1   5  -5 2440.36   58.29
   1   5  -5 2520.05   54.19
  -1  -5   5 2433.86   61.39
  -1  -5   5 2445.26   51.49
  -1  -5   5 2584.44   53.59
   0   5  -5  270.07   13.10
   0   5  -5  244.08   10.80
   0   5  -5  258.37   15.90
   0  -5   5  260.47   16.10
  -1   5  -5 3885.61   77.39
  -1   5  -5 3748.02   70.99
   1  -5   5 3784.02   73.59
   1  -5   5 3729.13   68.59
  -2   5  -5   36.40    5.50
  -2   5  -5   33.10    6.80
   2  -5   5   38.10    6.60
   2  -5   5   29.90    6.10
  -3   5  -5  367.96   20.20
   3  -5   5  387.16   23.50
   3  -5   5  403.76   23.80
   3  -5   5  392.26   21.80
  -4   5  -5  130.39   15.10
  -4   5  -5  146.19   17.30
   4  -5   5  128.99   15.70
   4  -5   5  147.69   15.30
   4   4  -5   10.80    4.30
   4   4  -5    4.40    6.20
  -4  -4   5    6.40    4.90
  -4  -4   5    8.20    4.60
   3   4  -5  251.07   17.00
  -3  -4   5  283.17   16.60
  -3  -4   5  285.27   20.40
   2   4  -5   81.79   10.20
   2   4  -5   76.09   10.60
  -2  -4   5   65.99    7.20
  -2  -4   5   65.79    8.60
   1   4  -5  171.18   11.70
   1   4  -5  165.28   12.70
  -1  -4   5  178.08   11.50
  -1  -4   5  180.78   10.90
  -1  -4   5  156.68   13.20
   0   4  -5 1710.63   37.00
   0   4  -5 1669.33   42.20
   0   4  -5 1669.53   34.80
   0  -4   5 1640.94   42.30
  -1   4  -5  313.37   16.60
  -1   4  -5  293.57   14.70
   1  -4   5  304.37   14.20
   1  -4   5  302.57   15.30
  -2   4  -5 1254.17   38.00
  -2   4  -5 1208.58   33.30
   2  -4   5 1382.56   38.60
   2  -4   5 1277.87   35.80
   2  -4   5 1236.28   38.80
  -3   4  -5  280.77   19.00
  -3   4  -5  300.47   18.60
   3  -4   5  282.37   17.80
   3  -4   5  274.47   19.30
  -4   4  -5  356.36   24.00
  -4   4  -5  358.66   24.30
   4  -4   5  337.37   22.00
   4  -4   5  354.06   24.50
  -5   4  -5   15.70    8.50
   5  -4   5   10.10    7.10
   4   3  -5   11.20    7.10
   4   3  -5    3.50    3.20
   4   3  -5    1.20    3.70
   4   3  -5    4.20    5.50
  -4  -3   5    2.00    3.10
  -4  -3   5    2.70    5.40
   3   3  -5  152.98   19.10
   3   3  -5  168.58   11.20
   3   3  -5  160.08   13.70
   3   3  -5  164.38   19.10
  -3  -3   5  194.18   12.90
  -3  -3   5  169.78   15.70
   2   3  -5  100.89   11.30
   2   3  -5  103.69   11.50
  -2  -3   5   95.19   10.30
  -2  -3   5  112.89    8.60
   1   3  -5  462.45   19.50
   1   3  -5  451.85   20.00
  -1  -3   5  466.05   21.50
  -1  -3   5  454.45   18.50
  -1  -3   5  451.05   17.50
   0   3  -5  267.17   14.20
   0   3  -5  244.78   11.80
   0   3  -5  241.78   11.30
   0  -3   5  242.08   13.60
  -1   3  -5  213.58   12.00
   1  -3   5  209.78   11.70
   1  -3   5  216.58   11.50
  -2   3  -5  290.97   16.80
  -2   3  -5  313.57   15.70
   2  -3   5  308.37   15.90
   2  -3   5  283.07   16.90
   2  -3   5  307.87   16.80
  -3   3  -5  144.69   13.80
  -3   3  -5  156.88   13.70
   3  -3   5  156.28   13.30
   3  -3   5  148.49   15.80
  -4   3  -5   19.30    6.70
  -4   3  -5    9.90    4.40
   4  -3   5   15.60    4.80
   4  -3   5    7.70    5.60
  -5   3  -5   12.00    9.10
   5  -3   5   24.20    7.80
   5  -3   5   34.40   14.50
   4   2  -5  198.28   12.80
   4   2  -5  186.48   16.40
   4   2  -5  191.18   20.30
   4   2  -5  219.48   22.00
  -4  -2   5  186.98   19.10
  -4  -2   5  175.58   13.30
   3   2  -5    0.30    2.90
   3   2  -5    0.70    2.00
   3   2  -5    0.10    1.70
   3   2  -5   -1.30    3.10
  -3  -2   5   -2.40    2.00
  -3  -2   5   -3.00    2.50
   2   2  -5 4213.88   87.09
  -2  -2   5 4083.79   72.69
  -2  -2   5 4199.08   83.89
   1   2  -5  281.47   14.90
   1   2  -5  266.37   14.60
  -1  -2   5  279.57   14.20
  -1  -2   5  281.47   11.00
  -1  -2   5  249.97   14.70
   0   2  -5 2942.31   53.29
   0   2  -5 2905.21   56.09
   0   2  -5 2875.31   53.79
   0  -2   5 3225.48   62.39
  -1   2  -5  238.08   12.30
   1  -2   5  240.38   11.50
  -2   2  -5 1253.67   35.80
  -2   2  -5 1264.67   35.20
   2  -2   5 1267.37   33.90
   2  -2   5 1252.77   36.80
  -3   2  -5  126.49   12.90
  -3   2  -5  113.69   11.70
   3  -2   5  132.39   14.40
   3  -2   5  117.39   11.30
  -4   2  -5    5.60    5.70
  -4   2  -5   -0.80    3.70
   4  -2   5    6.80    4.10
   4  -2   5    2.30    4.50
  -5   2  -5   15.70    7.40
  -5   2  -5   -0.40    5.60
   5  -2   5   -6.80    6.80
   4   1  -5  271.17   20.70
   4   1  -5  262.97   24.30
   4   1  -5  263.17   14.30
   4   1  -5  241.48   22.40
  -4  -1   5  243.38   21.90
  -4  -1   5  249.78   15.10
   3   1  -5  193.38   15.30
   3   1  -5  187.78   10.50
   3   1  -5  179.78   17.60
   3   1  -5  196.48   17.80
  -3  -1   5  193.08   11.50
  -3  -1   5  172.68   16.00
   2   1  -5  855.31   32.90
   2   1  -5  805.42   30.80
  -2  -1   5  801.22   30.30
  -2  -1   5  805.12   20.80
   1   1  -5 3242.98   61.99
   1   1  -5 3185.28   64.19
  -1  -1   5 3290.37   63.19
  -1  -1   5 3290.77   50.69
  -1  -1   5 3387.96   64.49
   0   1  -5   89.79    7.70
   0   1  -5   82.19    6.90
   0  -1   5   81.99    6.60
  -1   1  -5 5432.46   87.79
   1  -1   5 5606.44   89.89
   1  -1   5 5588.94   84.49
   1  -1   5 5530.25   86.79
  -2   1  -5  331.67   16.50
   2  -1   5  345.57   18.20
   2  -1   5  336.27   15.70
  -3   1  -5 1642.64   46.60
  -3   1  -5 1625.24   49.20
   3  -1   5 1702.73   44.90
   3  -1   5 1721.63   49.99
  -4   1  -5   22.80    7.30
   4  -1   5   17.00    5.30
   4  -1   5   18.80    6.10
  -5   1  -5  112.79   18.10
  -5   1  -5  139.89   18.30
   5  -1   5  114.89   17.80
   5  -1   5  130.09   15.50
   4   0  -5   11.90    4.20
   4   0  -5   19.50    8.00
   4   0  -5   22.50    7.70
   4   0  -5   33.80    9.30
  -4   0   5   13.90    5.90
   3   0  -5  530.95   29.60
   3   0  -5  571.64   30.20
   3   0  -5  566.04   26.60
   3   0  -5  579.74   18.30
  -3   0   5  566.64   19.30
  -3   0   5  591.44   29.90
   2   0  -5    6.70    3.50
   2   0  -5    4.90    3.10
   2   0  -5   10.40    2.00
  -2   0   5   12.70    2.90
  -2   0   5   10.70    4.20
   1   0  -5 3243.68   64.19
  -1   0   5 3275.37   62.69
  -1   0   5 3178.48   46.40
   0   0  -5  210.68    9.20
   0   0  -5  214.58   11.50
   0   0   5  215.48    9.30
  -1   0  -5 1126.19   27.40
   1   0   5 1149.48   26.90
   1   0   5 1125.49   28.90
   1   0   5 1118.29   23.60
  -2   0  -5  975.10   28.90
  -2   0  -5 1000.80   31.20
   2   0   5 1003.20   27.70
   2   0   5  982.50   31.70
  -3   0  -5   50.09    7.70
  -3   0  -5   58.49    8.80
  -3   0  -5   55.69    9.30
   3   0   5   51.59    7.40
   3   0   5   61.19    9.30
  -4   0  -5  193.18   16.90
   4   0   5  197.28   15.90
   4   0   5  197.18   17.50
  -5   0  -5   40.50   11.00
  -5   0  -5   32.20   11.30
   5   0   5   38.90   11.00
   5   0   5   28.90    7.80
   4  -1  -5   11.50    4.50
   4  -1  -5   15.30    7.90
   4  -1  -5    8.50    5.60
   4  -1  -5    9.30    5.30
  -4   1   5   17.20    7.50
   3  -1  -5  942.91   39.60
   3  -1  -5  912.11   23.50
   3  -1  -5  916.21   38.70
   3  -1  -5  956.80   35.50
  -3   1   5  937.91   37.90
   2  -1  -5  366.56   21.00
   2  -1  -5  413.36   10.90
  -2   1   5  404.86   20.90
   1  -1  -5 1087.29   29.00
   1  -1  -5 1041.20   31.60
  -1   1   5 1092.29   30.90
   0  -1  -5  996.00   20.10
   0   1   5 1014.20   20.70
   0   1   5  981.20   20.20
  -1  -1  -5   85.39    6.60
  -1  -1  -5   87.69    7.00
   1   1   5   74.79    6.80
   1   1   5   75.29    7.00
   1   1   5   89.09    5.00
  -2  -1  -5  476.25   18.50
  -2  -1  -5  458.45   20.30
   2   1   5  425.96   19.80
   2   1   5  459.75   17.20
  -3  -1  -5    2.40    3.30
  -3  -1  -5    7.10    3.20
  -3  -1  -5    4.00    3.60
   3   1   5    1.00    2.50
   3   1   5    0.90    3.20
  -4  -1  -5   43.10    9.00
  -4  -1  -5   35.10    9.70
   4   1   5   48.80    9.60
   4   1   5   58.79   11.30
  -5  -1  -5   25.00    8.90
  -5  -1  -5   16.90    8.50
   5   1   5   17.20    6.80
   5   1   5   26.20    8.60
   4  -2  -5   25.50    7.20
   4  -2  -5   21.50    5.20
   4  -2  -5   43.00   12.00
  -4   2   5   27.60    8.70
   3  -2  -5  243.98   17.70
   3  -2  -5  241.78   19.60
   3  -2  -5  230.68   10.80
  -3   2   5  255.77   18.90
   2  -2  -5  579.74   26.30
   2  -2  -5  564.74   12.80
  -2   2   5  576.34   24.90
   1  -2  -5   88.89    8.70
  -1   2   5   97.09    8.60
  -1  -2  -5    0.80    1.20
  -1  -2  -5   -0.30    1.20
   1   2   5    0.00    1.20
   1   2   5    0.40    1.10
  -2  -2  -5 1583.74   36.50
  -2  -2  -5 1592.84   41.60
   2   2   5 1523.35   40.80
   2   2   5 1562.94   34.50
  -3  -2  -5   73.79    8.50
  -3  -2  -5   92.29   11.70
  -3  -2  -5   70.99    9.80
   3   2   5   65.39    9.40
   3   2   5   69.09    8.10
  -4  -2  -5  227.18   18.70
  -4  -2  -5  220.78   17.10
   4   2   5  225.18   18.90
   4   2   5  252.07   16.70
  -5  -2  -5   17.60    7.80
  -5  -2  -5   14.20    7.80
   5   2   5   11.90    7.20
   5   2   5   16.60    6.20
   4  -3  -5  357.56   24.20
   4  -3  -5  350.96   16.10
   4  -3  -5  383.36   28.00
  -4   3   5  358.56   25.50
   3  -3  -5  754.92   34.90
   3  -3  -5  724.53   20.40
   3  -3  -5  726.83   31.30
  -3   3   5  723.43   32.80
   2  -3  -5 1842.42   47.30
   2  -3  -5 1902.41   31.40
   2  -3  -5 1887.11   51.39
  -2   3   5 1914.91   50.19
   1  -3  -5    7.50    3.70
  -1   3   5    7.70    3.30
   0  -3  -5 5967.80   85.89
   0   3   5 6017.80   85.59
  -1  -3  -5  829.02   24.00
  -1  -3  -5  774.92   23.20
   1   3   5  842.82   23.90
  -2  -3  -5   62.09    7.50
  -2  -3  -5   55.89    6.00
   2   3   5   57.19    5.70
   2   3   5   56.09    7.50
  -3  -3  -5 1095.99   41.00
  -3  -3  -5 1139.99   33.30
   3   3   5 1102.79   31.10
   3   3   5 1178.58   39.70
  -4  -3  -5   47.90   14.80
  -4  -3  -5   52.69    9.30
  -4  -3  -5   61.69   10.20
   4   3   5   53.19    8.40
   4   3   5   31.50    8.30
   4   3   5   50.49   10.30
  -5  -3  -5   86.59   13.70
   5   3   5  128.59   14.00
   5   3   5  107.19   16.00
   4  -4  -5    6.80    5.30
   4  -4  -5    8.00    5.30
   4  -4  -5    3.60    3.00
  -4   4   5    5.70    4.50
   3  -4  -5   70.59   10.20
   3  -4  -5   59.59    6.00
  -3   4   5   68.69   10.20
   2  -4  -5   34.80    6.80
   2  -4  -5   37.90    6.40
   2  -4  -5   23.90    3.10
  -2   4   5   34.90    6.30
   1  -4  -5 3866.81   53.69
   1  -4  -5 3723.63   72.69
  -1   4   5 3667.93   71.19
   0  -4  -5   -0.30    0.90
   0  -4  -5    1.40    1.00
   0   4   5    1.20    1.20
  -1  -4  -5 2622.24   43.80
  -1  -4  -5 2566.84   50.79
   1   4   5 2581.34   50.39
  -2  -4  -5   50.59    7.10
  -2  -4  -5   61.29    5.90
   2   4   5   61.49    7.90
   2   4   5   53.69    5.30
   2   4   5   57.49    6.50
  -3  -4  -5 2129.59   48.00
  -3  -4  -5 2131.09   57.79
   3   4   5 2156.68   55.09
   3   4   5 2162.48   45.80
  -4  -4  -5   13.50    6.50
  -4  -4  -5   13.70    4.50
   4   4   5    7.00    4.30
   4   4   5   11.80    5.70
   4   4   5   21.10    5.30
   5   4   5   15.80    5.60
   5   4   5   33.40    9.50
   4  -5  -5   24.90    8.80
   4  -5  -5   36.10    6.50
   4  -5  -5   24.70    7.50
  -4   5   5   30.40    9.80
   3  -5  -5    6.20    2.80
   3  -5  -5   -0.20    3.20
   3  -5  -5    2.70    3.90
  -3   5   5    2.50    3.50
   2  -5  -5   21.60    6.30
   2  -5  -5   18.00    3.30
   2  -5  -5   24.30    5.10
  -2   5   5   20.20    6.00
   1  -5  -5   14.30    2.50
   1  -5  -5   23.10    5.10
  -1   5   5   14.10    4.30
   0  -5  -5  803.32   20.60
   0  -5  -5  764.92   17.80
   0   5   5  777.52   19.80
  -1  -5  -5 1174.08   23.60
   1   5   5 1163.58   23.60
   1   5   5 1171.58   30.50
  -2  -5  -5  183.78   13.40
  -2  -5  -5  191.48    9.40
   2   5   5  201.98   11.70
   2   5   5  167.98   12.60
   2   5   5  200.58    9.00
  -3  -5  -5    7.10    5.10
  -3  -5  -5    6.10    2.80
  -3  -5  -5    6.20    2.90
   3   5   5    8.00    4.40
   3   5   5    5.70    3.30
   3   5   5    5.80    3.10
  -4  -5  -5   99.29   10.70
  -4  -5  -5  100.49   13.00
   4   5   5  105.99   10.50
   4   5   5   75.79   13.40
   4   5   5  102.59   12.70
  -5  -5  -5   16.20    6.30
   5   5   5   -5.90    4.20
   4  -6  -5  186.58   12.40
   4  -6  -5  171.78   18.60
   4  -6  -5  166.28   17.30
  -4   6   5  130.39   17.20
   3  -6  -5  552.64   28.20
   3  -6  -5  522.75   28.80
   3  -6  -5  519.15   19.00
  -3   6   5  529.85   28.00
   2  -6  -5   87.39   10.10
   2  -6  -5  105.49   10.60
  -2   6   5   92.49   10.20
   1  -6  -5  759.42   25.00
   1  -6  -5  780.82   27.40
   1  -6  -5  778.92   19.60
   0  -6  -5  588.04   18.50
   0  -6  -5  581.94   17.00
   0   6   5  607.14   18.30
  -1  -6  -5  698.43   24.40
  -1  -6  -5  702.73   19.20
  -1  -6  -5  740.83   16.40
   1   6   5  732.33   19.00
   1   6   5  748.93   24.10
  -2  -6  -5  276.17   11.70
   2   6   5  269.07   14.00
   2   6   5  243.78   15.50
  -3  -6  -5   -0.20    1.80
  -3  -6  -5    5.30    4.20
  -3  -6  -5    0.70    3.40
   3   6   5    2.10    2.70
   3   6   5    1.50    1.90
   3   6   5    1.20    2.90
  -4  -6  -5  111.59   14.50
  -4  -6  -5  109.69   14.80
   4   6   5  121.69   10.90
   4   6   5  130.49   14.70
   4   6   5  113.39   14.90
  -5  -6  -5    3.50    5.40
   5   6   5    2.90    5.50
   5   6   5   -0.80    9.40
   4  -7  -5   67.99   11.40
   4  -7  -5   71.59    8.40
   4  -7  -5   67.19   12.40
  -4   7   5   87.09   13.10
   3  -7  -5   31.70    5.20
   3  -7  -5   30.80    8.70
   3  -7  -5   37.30    8.10
  -3   7   5   24.00    7.00
   2  -7  -5 1987.30   51.79
   2  -7  -5 2016.80   52.69
  -2   7   5 1956.20   51.49
   1  -7  -5 1348.67   30.30
   1  -7  -5 1362.86   35.70
   1  -7  -5 1324.27   37.40
   0  -7  -5 2653.53   50.59
   0  -7  -5 2795.02   52.89
  -1  -7  -5    0.30    1.00
  -1  -7  -5   -1.70    1.20
  -1  -7  -5    0.20    1.00
  -1  -7  -5    0.10    1.90
   1   7   5    0.70    1.00
   1   7   5   -1.80    1.10
  -2  -7  -5 1873.51   50.19
  -2  -7  -5 1802.92   32.20
   2   7   5 1913.21   49.00
   2   7   5 1892.21   43.40
  -3  -7  -5  109.69   13.80
  -3  -7  -5  116.09   13.80
   3   7   5  106.99   11.40
   3   7   5  111.99    7.40
  -4  -7  -5  124.89   16.40
  -4  -7  -5  112.69   14.20
   4   7   5  103.09   13.90
   4   7   5  109.89    9.90
   4   7   5  136.79   16.00
   4  -8  -5   61.09   11.80
   4  -8  -5   63.59   13.10
   4  -8  -5   53.39    7.90
  -4   8   5   75.59   13.80
   3  -8  -5    9.20    4.50
   3  -8  -5    8.20    3.10
   3  -8  -5    0.50    2.90
  -3   8   5    3.00    3.30
   2  -8  -5  231.68   16.30
   2  -8  -5  239.48   16.60
  -2   8   5  256.07   17.00
   1  -8  -5  171.38   10.10
   1  -8  -5  164.48   12.20
   1  -8  -5  171.38   11.60
   1  -8  -5  171.58   12.00
   0  -8  -5  174.88   11.10
   0  -8  -5  175.08   11.30
  -1  -8  -5  897.61   26.20
  -1  -8  -5  902.11   15.80
  -1  -8  -5  788.02   28.40
   1   8   5  794.82   27.30
   1   8   5  877.31   24.50
  -2  -8  -5  146.09   13.30
  -2  -8  -5  126.69   12.40
   2   8   5  129.59   12.10
   2   8   5  130.09   10.40
  -3  -8  -5  372.66   24.00
  -3  -8  -5  399.46   25.20
   3   8   5  422.56   12.80
   3   8   5  398.46   21.80
  -4  -8  -5   -3.20    5.50
  -4  -8  -5   -1.30    4.20
   4   8   5    6.30    4.00
   4   8   5    4.50    4.60
   4   8   5   -2.50    2.30
   4  -9  -5   17.20    5.60
   4  -9  -5    0.00    5.50
   4  -9  -5   17.70    6.10
  -4   9   5    1.30    6.60
   3  -9  -5   26.80    6.10
   3  -9  -5   24.20    7.10
   3  -9  -5   34.50    8.70
  -3   9   5   24.70    8.20
   2  -9  -5  361.06   20.20
   2  -9  -5  384.56   21.10
   1  -9  -5   72.99    7.90
   1  -9  -5   78.59    7.50
   1  -9  -5   66.29    8.10
   1  -9  -5   79.09    8.90
   0  -9  -5    2.30    1.60
   0  -9  -5    3.30    2.60
   0  -9  -5    4.50    2.70
  -1  -9  -5  299.27   16.00
  -1  -9  -5  307.07   17.60
   1   9   5  296.77   14.40
   1   9   5  299.77   16.90
  -2  -9  -5   27.70    6.60
  -2  -9  -5   22.30    6.70
  -2  -9  -5   16.90    5.40
   2   9   5   40.90    7.10
   2   9   5   18.30    5.70
  -3  -9  -5    0.60    3.30
  -3  -9  -5   -0.40    3.90
   3   9   5    6.90    3.20
  -4  -9  -5    8.80    7.00
   4   9   5   11.90    5.80
   4 -10  -5    6.00    5.60
   4 -10  -5    7.40    5.30
   4 -10  -5   -6.80    4.90
   3 -10  -5  287.77   16.80
   3 -10  -5  315.17   21.00
   3 -10  -5  326.07   22.70
  -3  10   5  299.77   20.80
   2 -10  -5  197.88   14.80
   2 -10  -5  202.38   15.70
   2 -10  -5  219.98   17.90
   1 -10  -5  295.77   15.90
   1 -10  -5  283.37   17.20
   1 -10  -5  285.77   15.70
   1 -10  -5  301.97   16.80
   0 -10  -5  275.47   16.00
   0 -10  -5  287.37   16.90
   0 -10  -5  285.27   11.90
  -1 -10  -5  923.91   31.70
  -1 -10  -5  858.41   32.10
   1  10   5  927.21   28.80
   1  10   5  931.31   32.20
  -2 -10  -5   47.60    8.50
  -2 -10  -5   48.80    8.40
   2  10   5   42.90    7.90
   2  10   5   69.19    9.40
  -3 -10  -5  212.88   18.60
  -3 -10  -5  194.38   18.20
   3  10   5  159.58   15.00
  -4 -10  -5    9.20    5.90
  -4 -10  -5   -4.40    5.80
   4  10   5   10.90    6.90
   4  10   5    3.20    6.80
   3 -11  -5  116.59   12.80
   3 -11  -5   98.89   14.20
   3 -11  -5  115.39   12.70
   2 -11  -5   79.09    9.40
   1 -11  -5  182.08   12.80
   1 -11  -5  192.08   14.90
   1 -11  -5  214.18   13.90
   1 -11  -5  203.38   14.00
   0 -11  -5  706.93   29.30
   0 -11  -5  706.93   27.20
   0 -11  -5  686.83   27.50
   0 -11  -5  714.23   20.20
  -1 -11  -5  199.98   16.10
  -1 -11  -5  234.38   16.60
   1  11   5  213.18   13.80
  -2 -11  -5  319.37   20.90
  -2 -11  -5  323.57   21.80
  -2 -11  -5  285.77   19.20
   2  11   5  296.47   18.40
  -3 -11  -5    5.00    4.40
  -3 -11  -5   -2.40    3.50
   3  11   5   -1.40    4.40
   3  11   5    3.20    3.60
  -4 -11  -5  105.49   17.70
  -4 -11  -5   82.99   14.70
   3 -12  -5   31.10    8.70
   3 -12  -5   25.20    8.70
   2 -12  -5   84.29   10.00
   2 -12  -5   71.49   10.40
   2 -12  -5   84.69   11.10
   2 -12  -5   87.19    9.60
   1 -12  -5   50.19    7.00
   1 -12  -5   53.79    8.30
   1 -12  -5   58.09    7.90
   1 -12  -5   55.89    9.60
   0 -12  -5  653.33   26.00
   0 -12  -5  687.93   28.80
   0 -12  -5  667.03   19.60
   0 -12  -5  668.63   29.50
  -1 -12  -5  279.27   19.60
   1  12   5  286.87   17.30
  -2 -12  -5  262.37   21.80
  -2 -12  -5  293.07   21.70
  -2 -12  -5  292.47   20.30
   2  12   5  283.27   18.40
   2  12   5  227.08   20.80
  -3 -12  -5   59.99   11.80
  -3 -12  -5   61.39   11.20
   3  12   5   39.60    9.20
  -4 -12  -5   -9.30    5.40
  -4 -12  -5   -1.70    7.90
   3 -13  -5    7.00    5.10
   3 -13  -5   24.50    9.10
   3 -13  -5   18.90    5.50
   2 -13  -5    3.80    3.80
   2 -13  -5    1.20    3.10
   2 -13  -5    1.50    3.60
   2 -13  -5   -0.30    3.40
   1 -13  -5   -3.20    1.80
   1 -13  -5   -2.00    2.90
   1 -13  -5    0.00    2.20
   1 -13  -5   -2.30    2.00
   0 -13  -5  133.29   14.50
   0 -13  -5  123.79    8.00
   0 -13  -5  149.29   11.70
  -1 -13  -5    6.40    4.10
  -1 -13  -5   13.20    5.70
   1  13   5    5.60    3.80
  -2 -13  -5    0.70    4.20
  -2 -13  -5   -1.90    3.60
  -2 -13  -5   -1.10    3.30
   2  13   5    4.50    4.30
  -3 -13  -5   26.50    9.20
  -3 -13  -5   43.50   11.00
   3  13   5   42.80   11.60
   2 -14  -5    3.40    4.10
   2 -14  -5   14.90    5.30
   2 -14  -5    8.10    5.20
   2 -14  -5    3.50    4.00
   1 -14  -5   74.69    8.50
   1 -14  -5   57.59    9.80
   1 -14  -5   54.59   10.50
   1 -14  -5   54.59    7.40
   0 -14  -5    4.80    5.40
   0 -14  -5    8.80    2.40
   0 -14  -5    4.70    3.80
   0 -14  -5   11.10    4.10
  -1 -14  -5   80.39    9.90
  -1 -14  -5   81.19   13.80
  -1 -14  -5   67.19   10.80
   1  14   5   60.39   11.00
  -2 -14  -5    6.80    4.90
  -2 -14  -5   -2.30    4.00
  -2 -14  -5   -1.80    3.60
   2  14   5    5.90    4.00
  -3 -14  -5   70.29   13.20
   3  14   5   66.09   14.60
   2 -15  -5   66.49   10.70
   2 -15  -5   47.90    7.60
   2 -15  -5   42.30    9.30
   2 -15  -5   39.40   10.60
   1 -15  -5  164.88   15.40
   1 -15  -5  177.88   17.10
   1 -15  -5  152.08   11.10
   1 -15  -5  157.78   12.10
   0 -15  -5  130.19   10.80
   0 -15  -5  138.49   16.50
   0 -15  -5  123.19   14.40
   0 -15  -5  106.59    7.10
  -1 -15  -5  111.89   13.30
  -1 -15  -5  110.99   15.80
  -1 -15  -5  103.59   11.10
   1  15   5  137.19   15.50
  -2 -15  -5   30.90    8.70
  -2 -15  -5   26.80    9.40
  -2 -15  -5   14.30    6.30
   1 -16  -5    9.80    3.80
   1 -16  -5   16.70    6.70
   1 -16  -5    7.80    5.90
   0 -16  -5    8.20    6.10
   0 -16  -5    6.20    6.00
   0 -16  -5    0.70    3.30
   0 -16  -5    7.90    3.50
  -1 -16  -5   34.10    9.30
  -1 -16  -5   35.40    9.60
  -1 -16  -5   57.49    8.70
  -2 -16  -5   95.09   14.70
  -2 -16  -5  114.39   13.70
  -2 -16  -5   81.39   11.80
   2  16   5   60.79   13.30
   0 -17  -5   15.80    6.70
   0 -17  -5    4.70    6.40
  -1 -17  -5   15.00    5.90
  -1 -17  -5    5.60    5.40
  -1 -17  -5    6.50    5.70
   0 -15   6   19.30    8.20
   0 -15   6   25.10    8.70
  -1 -14   6   48.70   13.50
   0  14  -6   -4.00    3.40
  -1  14  -6    4.00    6.20
   1 -14   6    9.30    6.60
  -2 -13   6  101.69   10.90
  -2 -13   6  112.39   20.40
  -2 -13   6  112.49   16.80
   1  13  -6  250.07   23.00
  -1 -13   6  178.58   21.30
  -1 -13   6  177.98   18.90
   0  13  -6  131.69   12.90
   0  13  -6  145.29   20.90
   0 -13   6  148.19   16.50
   0 -13   6  114.99   17.80
   1 -13   6   14.70    9.10
  -2  13  -6  101.49   16.90
   2 -13   6   80.59   17.40
   2 -13   6  109.39   12.60
   2  12  -6   41.80   11.50
  -2 -12   6   22.10    9.90
  -2 -12   6   11.10    5.30
  -2 -12   6   34.50   10.70
   1  12  -6   -1.40    4.90
   1  12  -6   -2.20    2.50
  -1 -12   6   -1.30    2.60
  -1 -12   6    6.30    6.20
   0  12  -6  146.49   17.50
   0  12  -6  167.28   18.50
   0 -12   6  115.29   16.60
  -1  12  -6  300.57   20.20
   1 -12   6  287.07   23.60
   1 -12   6  312.67   18.60
  -2  12  -6  258.37   20.90
   2 -12   6  297.77   20.20
   2 -12   6  266.67   23.50
   3 -12   6    6.20    4.80
   3 -12   6   17.10    7.70
   3  11  -6  125.19   16.60
  -3 -11   6  100.49   16.00
  -3 -11   6  108.19   14.00
   2  11  -6   -5.50    2.40
   2  11  -6   -0.50    4.10
  -2 -11   6    2.60    5.00
  -2 -11   6   -3.60    5.50
  -2 -11   6    3.40    3.10
   1  11  -6   13.90    4.30
  -1 -11   6    6.90    6.80
  -1 -11   6    9.00    5.90
   0  11  -6    0.00    2.70
   0 -11   6    0.50    3.00
  -1  11  -6    4.20    3.90
  -1  11  -6   18.70    8.20
   1 -11   6    9.00    4.70
  -2  11  -6   18.10    6.00
   2 -11   6    8.80    4.70
   2 -11   6    3.90    5.40
  -3  11  -6    5.70    5.70
   3 -11   6    1.00    4.00
   3  10  -6  121.89   15.70
   3  10  -6   86.59   18.70
  -3 -10   6  112.99   14.80
  -3 -10   6   90.19   13.60
   2  10  -6   26.00    7.90
   2  10  -6   23.80   10.00
   2  10  -6   43.00    6.60
  -2 -10   6   26.20    8.40
  -2 -10   6   36.70    7.50
  -2 -10   6   20.60    9.10
   1  10  -6  283.57   15.50
   1  10  -6  282.17   15.20
  -1 -10   6  278.77   14.30
  -1 -10   6  264.67   22.90
  -1 -10   6  285.47   20.50
   0  10  -6  598.04   24.60
   0 -10   6  625.74   33.00
  -1  10  -6  144.59   16.90
  -1  10  -6  125.69   12.90
   1 -10   6  134.09   12.30
   1 -10   6  139.19   15.70
   2 -10   6    0.10    3.10
   2 -10   6    2.40    3.40
  -3  10  -6    1.00    7.30
   3 -10   6    1.00    4.20
   3 -10   6   -2.40    3.10
   3 -10   6   -3.40    4.90
   3   9  -6  182.98   19.00
   3   9  -6  206.98   22.40
  -3  -9   6  183.18   17.50
  -3  -9   6  185.98   17.60
   2   9  -6   25.10    7.30
   2   9  -6   14.00    4.80
  -2  -9   6   22.30    8.50
  -2  -9   6   18.60    9.10
  -2  -9   6   24.20    6.50
   1   9  -6  437.16   18.90
   1   9  -6  500.55   21.30
  -1  -9   6  455.15   25.00
  -1  -9   6  467.35   29.60
  -1  -9   6  422.16   18.20
   0   9  -6  383.46   24.20
   0   9  -6  375.56   18.70
   0  -9   6  400.56   25.60
  -1   9  -6  314.97   23.40
  -1   9  -6  337.17   19.60
   1  -9   6  335.47   18.70
   2  -9   6  475.55   27.50
   2  -9   6  439.86   22.80
  -3   9  -6  218.08   20.10
   3  -9   6  225.48   21.30
   3  -9   6  250.27   18.70
   3  -9   6  206.08   19.40
   4  -9   6   73.49   12.10
   4  -9   6   40.70   11.70
   4   8  -6   98.79   13.60
  -4  -8   6   87.49   17.10
  -4  -8   6   96.99   15.70
   3   8  -6    3.20    4.70
   3   8  -6   -4.90    3.90
  -3  -8   6    2.70    4.10
  -3  -8   6    0.40    3.50
   2   8  -6  582.04   22.00
   2   8  -6  601.14   29.10
  -2  -8   6  622.64   29.20
  -2  -8   6  638.94   36.40
  -2  -8   6  592.84   26.70
   1   8  -6  139.19   15.00
   1   8  -6  145.29   11.50
   1   8  -6  119.49   10.10
  -1  -8   6  124.19   15.40
  -1  -8   6  139.19   10.40
  -1  -8   6  121.49   12.40
   0   8  -6  375.46   25.90
   0   8  -6  360.76   13.50
   0   8  -6  393.16   18.30
   0  -8   6  405.66   24.70
  -1   8  -6    0.10    2.60
   1  -8   6    3.00    3.20
   1  -8   6   -0.60    3.80
  -2   8  -6  386.36   23.00
   2  -8   6  418.66   24.90
   2  -8   6  421.16   24.90
  -3   8  -6   19.70    6.30
   3  -8   6   13.80    4.50
   3  -8   6   15.70    6.40
   3  -8   6   30.60    9.70
   4  -8   6   28.80    8.40
   4  -8   6   89.09   15.50
   4   7  -6   23.90    6.60
   4   7  -6   38.50   13.20
  -4  -7   6   16.50    8.40
  -4  -7   6   19.90    7.70
   3   7  -6   46.70   12.10
   3   7  -6   61.39   13.70
  -3  -7   6   40.70   10.00
  -3  -7   6   47.90    9.50
   2   7  -6   68.49    9.90
  -2  -7   6   42.30   11.00
  -2  -7   6   89.39   10.70
  -2  -7   6   90.39    9.90
   1   7  -6  753.22   33.10
   1   7  -6  730.33   26.40
   1   7  -6  718.53   24.10
  -1  -7   6  711.73   24.70
  -1  -7   6  735.43   34.80
  -1  -7   6  775.12   29.90
   0   7  -6   57.19    9.10
   0   7  -6   63.79    7.40
   0  -7   6   58.49   10.00
  -1   7  -6  522.75   23.10
  -1   7  -6  511.85   27.10
   1  -7   6  524.45   21.90
   1  -7   6  529.85   25.90
  -2   7  -6  292.17   13.30
  -2   7  -6  253.47   18.00
   2  -7   6  266.37   17.00
   2  -7   6  255.07   18.30
  -3   7  -6  138.59   12.40
   3  -7   6  134.39   15.20
   3  -7   6  163.18   15.80
   3  -7   6  144.19   14.00
  -4   7  -6    2.70    6.00
  -4   7  -6    0.40    3.90
   4  -7   6   10.90    5.50
   4  -7   6    9.60    4.60
   4  -7   6    7.40    9.50
   4   6  -6  192.98   21.80
   4   6  -6  219.08   28.20
   4   6  -6  214.18   18.20
  -4  -6   6  197.18   17.40
  -4  -6   6  192.98   20.70
   3   6  -6   -7.10    2.80
  -3  -6   6    0.30    2.60
   2   6  -6   11.70    4.80
   2   6  -6   13.00    6.10
  -2  -6   6   13.30    4.80
  -2  -6   6    8.70    3.20
  -2  -6   6    8.20    5.30
   1   6  -6 1292.67   37.00
   1   6  -6 1252.27   41.70
   1   6  -6 1272.77   33.30
  -1  -6   6 1234.88   44.00
  -1  -6   6 1319.07   37.90
  -1  -6   6 1250.57   34.30
   0   6  -6   59.69    8.90
   0   6  -6   67.39    7.40
   0   6  -6   63.39    5.90
   0  -6   6   64.79    9.20
  -1   6  -6  201.08   16.00
  -1   6  -6  202.48    9.50
  -1   6  -6  182.58   13.10
   1  -6   6  190.98   12.70
   1  -6   6  192.98   14.90
  -2   6  -6  334.97   15.40
   2  -6   6  337.07   18.40
   2  -6   6  360.86   20.50
  -3   6  -6  143.19   12.70
   3  -6   6  168.68   15.30
   3  -6   6  157.08   14.20
   3  -6   6  153.08   15.80
  -4   6  -6   13.60    7.10
  -4   6  -6    8.10    5.60
   4  -6   6   12.90    7.30
   4  -6   6    5.70    4.50
   4   5  -6   15.20    5.60
   4   5  -6   39.10   10.20
   4   5  -6   25.70    9.80
  -4  -5   6   16.40    7.90
  -4  -5   6   13.90    5.80
   3   5  -6  547.15   31.60
  -3  -5   6  528.15   24.10
  -3  -5   6  546.65   29.60
   2   5  -6  178.78   15.30
  -2  -5   6  171.38   12.60
  -2  -5   6  175.08   14.40
  -2  -5   6  151.28   15.90
   1   5  -6 4443.36   83.59
   1   5  -6 4508.45   89.79
  -1  -5   6 4611.34   94.79
  -1  -5   6 4376.26   80.59
  -1  -5   6 4618.04   82.29
   0   5  -6    4.20    3.30
   0   5  -6    5.80    2.20
   0   5  -6    9.60    3.10
   0  -5   6    9.60    4.30
  -1   5  -6  667.53   24.80
  -1   5  -6  681.03   28.20
   1  -5   6  644.94   23.40
   1  -5   6  685.83   26.60
  -2   5  -6   63.39    8.80
  -2   5  -6   59.79    6.90
   2  -5   6   57.09    8.00
   2  -5   6   55.29    8.60
  -3   5  -6  118.09   12.00
   3  -5   6  116.39   12.20
   3  -5   6  136.69   14.30
   3  -5   6  136.89   16.50
  -4   5  -6  157.78   16.40
  -4   5  -6  169.08   19.40
   4  -5   6  155.78   16.10
   4  -5   6  125.19   16.40
   4  -5   6  155.58   17.40
   4   4  -6   18.00    7.70
   4   4  -6    6.80    8.50
   4   4  -6    4.00    3.60
  -4  -4   6    7.90    6.20
  -4  -4   6    5.30    4.10
   3   4  -6    8.80    5.50
   3   4  -6   18.10    7.20
  -3  -4   6    7.60    3.40
  -3  -4   6   13.70    5.50
   2   4  -6  921.51   36.40
   2   4  -6  909.01   35.90
  -2  -4   6  868.21   32.90
  -2  -4   6  917.61   28.10
   1   4  -6  337.97   17.40
   1   4  -6  323.47   18.40
  -1  -4   6  337.27   16.50
  -1  -4   6  335.17   15.40
  -1  -4   6  296.67   18.90
   0   4  -6 3094.49   64.99
   0   4  -6 3082.59   58.89
   0  -4   6 3150.98   65.69
  -1   4  -6 1699.93   41.60
  -1   4  -6 1692.43   44.20
   1  -4   6 1597.34   39.20
   1  -4   6 1625.64   41.60
  -2   4  -6 1949.01   45.90
  -2   4  -6 1992.70   51.39
   2  -4   6 2016.70   53.09
   2  -4   6 1971.20   47.80
   2  -4   6 2066.19   49.99
  -3   4  -6   40.90    9.20
  -3   4  -6   24.60    6.70
   3  -4   6   25.60    7.00
   3  -4   6   33.70    7.20
   3  -4   6   27.10    7.50
  -4   4  -6  338.07   23.50
  -4   4  -6  337.47   23.30
   4  -4   6  291.07   23.70
   4  -4   6  326.47   22.10
   4   3  -6   35.80   11.60
   4   3  -6   36.80   13.80
   4   3  -6   33.50    8.80
  -4  -3   6   51.59    8.30
   3   3  -6  117.69   14.90
   3   3  -6  136.59   15.90
  -3  -3   6  144.19   11.10
  -3  -3   6  126.39   14.40
   2   3  -6   38.70    7.90
   2   3  -6   59.49    9.20
  -2  -3   6   57.69    6.00
  -2  -3   6   38.30    6.70
   1   3  -6   73.59    8.40
   1   3  -6   64.89    7.90
  -1  -3   6   73.79    6.40
  -1  -3   6   81.49    7.90
  -1  -3   6   83.59    9.40
   0   3  -6   86.99    8.50
   0   3  -6   86.79    7.70
   0   3  -6   88.89    7.60
   0  -3   6   79.99    8.20
  -1   3  -6   95.29    8.50
  -1   3  -6  100.49    9.10
   1  -3   6   90.29    8.00
   1  -3   6   97.69    8.40
  -2   3  -6   62.69    7.80
   2  -3   6   49.10    7.00
   2  -3   6   46.70    7.30
   2  -3   6   53.79    7.00
  -3   3  -6  423.16   22.90
  -3   3  -6  419.86   23.60
   3  -3   6  411.86   24.50
   3  -3   6  406.16   21.40
  -4   3  -6   22.10    7.10
  -4   3  -6   28.80    7.90
   4  -3   6   41.90    8.70
   4  -3   6   21.00    8.00
  -5   3  -6   92.09   15.50
   5  -3   6   77.59   12.90
   4   2  -6  227.58   19.10
   4   2  -6  226.58   23.50
  -4  -2   6  226.48   14.70
  -4  -2   6  198.88   22.90
   3   2  -6   64.09    9.30
   3   2  -6   83.79   12.50
   3   2  -6   70.49   11.70
  -3  -2   6   79.49   11.60
  -3  -2   6   74.99    7.80
   2   2  -6 1560.84   48.60
   2   2  -6 1637.04   47.50
  -2  -2   6 1682.73   46.90
  -2  -2   6 1542.65   36.70
   1   2  -6   11.10    3.80
   1   2  -6   15.10    4.70
  -1  -2   6   11.30    3.90
  -1  -2   6   11.10    4.00
  -1  -2   6    8.90    2.50
   0   2  -6  650.63   21.70
   0   2  -6  630.84   22.10
   0   2  -6  653.53   21.10
   0  -2   6  672.43   22.60
  -1   2  -6   20.40    4.20
   1  -2   6   10.30    3.30
   1  -2   6   15.90    4.00
  -2   2  -6    4.10    3.00
   2  -2   6    7.00    3.20
   2  -2   6   -0.40    1.70
   2  -2   6    6.40    3.00
  -3   2  -6   62.49    9.90
  -3   2  -6   54.19    8.90
   3  -2   6   56.99    8.50
   3  -2   6   39.60    8.10
  -4   2  -6    1.50    3.60
   4  -2   6    0.10    2.80
   4  -2   6   -2.80    2.80
  -5   2  -6   -0.80    5.30
  -5   2  -6    1.90    8.30
   5  -2   6   -2.90    4.50
   4   1  -6  140.49   18.70
   4   1  -6  127.89   10.00
   4   1  -6  131.49   17.80
   4   1  -6  126.69   14.70
  -4  -1   6  149.29   11.50
  -4  -1   6  151.98   17.70
   3   1  -6  705.33   30.60
   3   1  -6  680.03   33.60
  -3  -1   6  719.63   22.40
  -3  -1   6  731.83   33.90
   2   1  -6   45.50    7.80
   2   1  -6   37.90    7.20
  -2  -1   6   41.80    4.40
  -2  -1   6   36.70    6.80
   1   1  -6 2208.18   48.70
   1   1  -6 2123.69   50.79
  -1  -1   6 2163.78   49.90
  -1  -1   6 2294.17   38.20
  -1  -1   6 2223.68   50.29
   0   1  -6 1126.39   30.30
   0   1  -6 1070.19   28.00
   0  -1   6 1131.19   28.50
   1  -1   6 9999.00  149.29
  -2   1  -6   -1.60    1.20
   2  -1   6    1.50    2.60
   2  -1   6    4.40    2.20
  -3   1  -6  858.91   32.70
  -3   1  -6  846.62   34.40
   3  -1   6  858.11   39.00
   3  -1   6  863.01   30.40
  -4   1  -6   14.40    5.20
   4  -1   6   12.30    4.40
   4  -1   6    7.20    5.70
  -5   1  -6   77.29   15.80
  -5   1  -6   51.59   13.60
   5  -1   6   71.99   15.50
   5  -1   6   63.29   12.80
   4   0  -6   13.70    7.40
   4   0  -6   14.50    3.80
   4   0  -6    5.20    4.50
  -4   0   6   17.50    7.90
   3   0  -6  846.62   21.60
   3   0  -6  800.42   33.00
   3   0  -6  801.02   36.60
   3   0  -6  780.32   47.60
  -3   0   6  826.42   22.80
   2   0  -6   24.20    6.30
   2   0  -6   36.10    7.40
  -2   0   6   36.40    3.50
  -2   0   6   22.70    6.10
   1   0  -6  405.26   19.70
   1   0  -6  407.36   17.60
  -1   0   6  413.36   18.90
  -1   0   6  423.36   10.20
   0   0  -6 1226.88   27.40
   0   0  -6 1241.08   32.90
   0   0   6 1184.78   25.70
   0   0   6 1194.28   27.00
  -1   0  -6  935.51   25.90
   1   0   6  950.30   25.30
   1   0   6  934.41   21.80
   1   0   6  970.20   27.40
  -2   0  -6  303.07   15.60
   2   0   6  307.97   17.50
   2   0   6  288.47   14.40
  -3   0  -6  159.18   13.20
  -3   0  -6  140.79   14.10
   3   0   6  164.68   12.40
  -4   0  -6  657.53   30.60
   4   0   6  629.64   32.50
   4   0   6  611.64   27.90
  -5   0  -6    1.10    5.60
  -5   0  -6    8.20    7.70
   5   0   6    7.10    5.00
   5   0   6   -2.60    7.30
   4  -1  -6   27.80   10.70
   4  -1  -6   47.80    9.70
   4  -1  -6   37.90    5.90
   4  -1  -6   49.20   11.80
  -4   1   6   34.20    9.80
   3  -1  -6    4.90    5.00
   3  -1  -6   10.50    4.60
   3  -1  -6   14.70    3.50
   2  -1  -6  513.75   26.00
  -2   1   6  543.45   25.50
   1  -1  -6  486.95   21.90
   1  -1  -6  496.95   18.80
  -1   1   6  519.75   21.50
   0  -1  -6 5928.11   85.89
   0  -1  -6 5945.60   98.69
   0   1   6 5802.02   85.99
   0   1   6 5877.81   86.09
  -1  -1  -6   59.89    6.30
  -1  -1  -6   72.49    6.50
   1   1   6   63.19    4.30
   1   1   6   68.29    6.80
  -2  -1  -6  923.71   30.10
  -2  -1  -6  881.71   27.20
   2   1   6  895.91   26.00
  -3  -1  -6    0.30    2.40
  -3  -1  -6    2.20    3.00
  -3  -1  -6    0.70    3.20
   3   1   6    2.50    2.80
  -4  -1  -6  155.78   14.40
   4   1   6  146.09   13.50
   4   1   6  166.18   16.40
  -5  -1  -6    7.40    8.00
   5   1   6   13.70    5.60
   5   1   6   17.30    9.30
   4  -2  -6   65.09   13.20
   4  -2  -6   67.59    6.80
   4  -2  -6   64.29   14.20
   4  -2  -6   62.59   11.30
  -4   2   6   73.39   12.70
   3  -2  -6  128.89   16.30
  -3   2   6  112.99   13.00
   2  -2  -6 1011.60   37.40
  -2   2   6 1016.80   35.50
   1  -2  -6   16.10    5.20
   1  -2  -6   12.30    3.70
  -1   2   6    8.90    3.40
   0  -2  -6 1679.83   30.50
   0  -2  -6 1721.43   28.90
   0   2   6 1623.24   30.40
  -1  -2  -6  307.67   13.90
  -1  -2  -6  297.57   12.80
   1   2   6  304.07   14.00
  -2  -2  -6  891.71   29.90
  -2  -2  -6  904.61   26.50
   2   2   6  889.31   25.10
  -3  -2  -6  144.49   14.60
  -3  -2  -6  138.79   11.80
  -3  -2  -6  118.79   12.60
   3   2   6  137.19   11.10
  -4  -2  -6   53.89   11.30
  -4  -2  -6   57.49    9.90
  -4  -2  -6   67.59   11.40
   4   2   6   88.49   16.70
   4   2   6   64.69   11.30
  -5  -2  -6   18.00   10.50
   5   2   6   26.30    7.40
   5   2   6   27.40    9.50
   5   2   6   34.00   13.60
   4  -3  -6  277.87   25.10
   4  -3  -6  275.17   22.20
   4  -3  -6  310.47   13.30
  -4   3   6  295.77   23.70
   3  -3  -6  150.58   16.40
  -3   3   6  146.49   15.00
   2  -3  -6 3291.97   75.79
  -2   3   6 3310.87   73.29
   1  -3  -6  970.40   32.40
  -1   3   6  970.60   31.50
   0  -3  -6   30.50    3.30
   0   3   6   25.70    3.00
  -1  -3  -6  335.07   14.90
  -1  -3  -6  335.67   13.40
   1   3   6  366.36   15.40
  -2  -3  -6  205.98   14.10
  -2  -3  -6  210.98   11.50
   2   3   6  204.88   14.00
   2   3   6  218.78   11.20
  -3  -3  -6 1492.05   46.50
  -3  -3  -6 1501.75   40.40
   3   3   6 1528.95   38.50
  -4  -3  -6    4.70    3.90
  -4  -3  -6    0.60    2.90
  -4  -3  -6    0.90    4.20
   4   3   6    3.60    3.90
   4   3   6   -2.40    3.70
  -5  -3  -6   81.89   16.60
  -5  -3  -6   90.89   15.80
   5   3   6   78.19   18.50
   5   3   6   73.49   16.70
   5   3   6   63.29   11.30
   4  -4  -6   -1.90    2.10
   4  -4  -6    2.20    3.60
   4  -4  -6    3.10    4.00
  -4   4   6   -1.70    4.50
   3  -4  -6  458.85   25.70
  -3   4   6  437.96   26.00
   2  -4  -6    3.30    2.90
   2  -4  -6    2.30    1.80
  -2   4   6    4.50    2.70
   1  -4  -6 4269.07   84.99
  -1   4   6 4702.43   86.19
   0  -4  -6 1111.79   24.30
   0   4   6 1092.39   23.60
  -1  -4  -6 5490.05   89.79
  -1  -4  -6 5333.47   83.29
  -2  -4  -6    9.30    2.60
  -2  -4  -6   11.00    4.50
   2   4   6    5.70    3.00
   2   4   6    7.70    3.70
   2   4   6   18.40    4.00
  -3  -4  -6  661.93   32.30
  -3  -4  -6  664.93   24.40
  -3  -4  -6  668.03   30.40
   3   4   6  684.43   27.80
   3   4   6  641.94   29.50
   3   4   6  659.13   22.50
  -4  -4  -6    3.00    3.50
   4   4   6   -2.40    3.50
   4   4   6    7.10    5.20
   4   4   6    5.70    3.30
  -5  -4  -6   22.60    9.20
   5   4   6   20.10    6.40
   5   4   6   33.00   10.60
   4  -5  -6    2.60    3.80
   4  -5  -6    2.00    2.50
   4  -5  -6    3.10    5.00
  -4   5   6    4.20    5.30
   3  -5  -6   16.30    3.30
   3  -5  -6   18.40    6.80
  -3   5   6   14.90    6.20
   2  -5  -6   -0.80    1.70
   2  -5  -6    0.90    2.40
   2  -5  -6    1.10    1.10
  -2   5   6    2.30    2.80
   1  -5  -6   52.39    7.80
   1  -5  -6   41.60    3.40
   0  -5  -6   -0.60    0.80
   0  -5  -6    0.30    1.10
   0   5   6    1.70    1.50
  -1  -5  -6   13.30    2.90
  -1  -5  -6   15.00    4.40
   1   5   6   10.30    3.30
  -2  -5  -6 1169.98   37.00
  -2  -5  -6 1209.48   28.50
   2   5   6 1202.68   27.10
   2   5   6 1159.38   29.30
   2   5   6 1204.58   36.70
  -3  -5  -6  482.55   26.00
  -3  -5  -6  420.06   18.10
  -3  -5  -6  437.26   26.30
   3   5   6  457.85   24.70
   3   5   6  446.26   17.50
   3   5   6  453.75   21.80
  -4  -5  -6  264.17   21.40
  -4  -5  -6  274.27   17.60
   4   5   6  286.27   21.10
   4   5   6  265.77   20.70
   4   5   6  266.97   16.20
  -5  -5  -6    0.70    6.80
   5   5   6  -13.10    7.80
   5   5   6   13.40    5.90
   4  -6  -6    5.10    5.40
   4  -6  -6   -2.10    3.30
   4  -6  -6    4.60    2.60
  -4   6   6   11.60    5.10
   3  -6  -6  364.66   23.30
   3  -6  -6  361.46   13.60
  -3   6   6  344.67   23.00
   2  -6  -6  221.58   11.10
   2  -6  -6  271.07   18.60
   2  -6  -6  217.48   15.70
  -2   6   6  220.58   16.10
   1  -6  -6  462.95   22.50
   1  -6  -6  508.95   14.40
   0  -6  -6  181.88    9.80
   0  -6  -6  173.58    8.30
   0   6   6  175.18    9.40
  -1  -6  -6   44.90    6.10
  -1  -6  -6   41.40    7.00
   1   6   6   34.30    5.10
  -2  -6  -6   38.60    6.50
  -2  -6  -6   51.09    5.00
   2   6   6   35.60    8.30
   2   6   6   36.70    5.50
  -3  -6  -6    0.80    2.80
  -3  -6  -6    0.50    1.60
   3   6   6    1.30    2.30
   3   6   6    0.80    1.80
  -4  -6  -6    4.80    5.30
  -4  -6  -6    5.40    3.40
  -4  -6  -6    4.30    3.60
   4   6   6   16.00    4.40
   4   6   6    0.00    5.10
   4   6   6    3.90    5.60
   4  -7  -6  184.28   18.50
   4  -7  -6  154.58   10.60
   4  -7  -6  162.18   18.90
  -4   7   6  168.68   18.40
   3  -7  -6  140.99    9.30
   3  -7  -6  140.79   14.80
  -3   7   6  141.49   15.10
   2  -7  -6 1178.98   40.40
   2  -7  -6 1190.48   39.20
  -2   7   6 1192.28   40.10
   1  -7  -6  384.16   18.10
   1  -7  -6  363.76   19.80
   0  -7  -6 3038.20   56.29
   0  -7  -6 2912.01   52.69
  -1  -7  -6  911.41   29.60
  -1  -7  -6  914.11   22.60
  -1  -7  -6  926.01   20.80
   1   7   6  903.41   21.20
   1   7   6  913.81   28.40
  -2  -7  -6 1011.20   35.90
  -2  -7  -6 1190.28   28.80
   2   7   6 1006.80   28.60
   2   7   6 1024.80   34.70
  -3  -7  -6   29.10    4.70
  -3  -7  -6   12.60    5.70
  -3  -7  -6   19.60    6.20
   3   7   6   24.40    6.30
   3   7   6   34.70    5.40
  -4  -7  -6   58.59   12.10
   4   7   6   68.89   11.60
   4   7   6   56.89    7.90
   4   7   6   73.99   12.30
   4  -8  -6  140.29   19.40
   4  -8  -6  131.09   17.20
   4  -8  -6  115.69    9.90
  -4   8   6  126.69   16.00
   3  -8  -6  193.78   21.50
   3  -8  -6  205.78   17.50
   3  -8  -6  194.58   11.60
  -3   8   6  199.18   17.50
   2  -8  -6  142.69   13.00
   2  -8  -6  138.49   13.50
  -2   8   6  117.69   12.30
   1  -8  -6  107.99    7.70
   1  -8  -6  104.19    9.50
   1  -8  -6  112.49   11.10
   1  -8  -6   95.79    9.20
   0  -8  -6   67.79    7.20
   0  -8  -6   56.09    7.00
  -1  -8  -6 1712.13   45.10
  -1  -8  -6 1777.02   38.10
  -1  -8  -6 1802.92   31.60
   1   8   6 1741.33   35.70
   1   8   6 1798.62   43.90
  -2  -8  -6  228.78   16.50
   2   8   6  224.58   13.10
   2   8   6  218.18   15.60
  -3  -8  -6  646.54   33.50
  -3  -8  -6  627.94   31.50
   3   8   6  688.53   27.80
  -4  -8  -6    3.50    4.20
  -4  -8  -6   12.00    6.00
   4   8   6    1.60    5.50
   4   8   6   -0.10    2.20
   4  -9  -6   30.50    8.50
   4  -9  -6   46.50    9.70
   4  -9  -6   38.40    7.40
  -4   9   6   65.89   11.80
   3  -9  -6    9.30    4.00
   3  -9  -6   15.30    6.10
   3  -9  -6   11.30    5.70
  -3   9   6   20.40    7.00
   2  -9  -6  119.49   12.50
   2  -9  -6  126.39    9.40
   2  -9  -6  140.69   13.20
   1  -9  -6  800.22   30.00
   1  -9  -6  777.82   27.40
   1  -9  -6  778.32   27.20
   1  -9  -6  751.52   24.20
   0  -9  -6  104.99    9.50
   0  -9  -6  133.19    8.70
   0  -9  -6  122.19    9.90
  -1  -9  -6  241.98   13.50
  -1  -9  -6  234.98   15.50
  -1  -9  -6  261.07    8.40
   1   9   6  236.98   12.00
   1   9   6  236.38   15.00
  -2  -9  -6    2.20    2.40
   2   9   6    2.90    2.80
   2   9   6    0.70    2.90
  -3  -9  -6   60.19   10.30
  -3  -9  -6   64.99   10.70
   3   9   6   48.30    9.10
  -4  -9  -6   98.59   14.60
  -4  -9  -6  109.09   14.90
   4   9   6   99.99   14.20
   3 -10  -6    4.50    3.80
   3 -10  -6   13.30    6.00
   3 -10  -6    2.20    4.00
  -3  10   6    2.90    4.40
   2 -10  -6  198.78   15.70
   2 -10  -6  172.88   11.70
   2 -10  -6  159.38   14.90
   2 -10  -6  193.18   15.80
   1 -10  -6  261.87   15.60
   1 -10  -6  252.87   14.50
   1 -10  -6  294.37   17.20
   1 -10  -6  260.97   16.70
   0 -10  -6  137.79    8.80
   0 -10  -6  126.59   11.70
   0 -10  -6  133.99   11.60
   0 -10  -6  140.19   11.50
  -1 -10  -6  791.12   27.00
  -1 -10  -6  685.83   28.60
   1  10   6  702.83   23.30
   1  10   6  775.02   28.90
   2  10   6   19.30    5.40
   2  10   6   12.80    4.70
  -3 -10  -6   16.00    6.90
  -3 -10  -6   19.70    6.90
   3  10   6   16.00    5.90
  -4 -10  -6   16.00    6.60
   4  10   6    9.20    6.30
   3 -11  -6   44.90    8.20
   3 -11  -6   28.90    8.20
   3 -11  -6   22.70    7.70
   2 -11  -6  202.38   13.50
   2 -11  -6  196.58   15.70
   2 -11  -6  228.38   17.20
   1 -11  -6   -0.70    2.10
   1 -11  -6    1.20    2.50
   1 -11  -6    2.10    3.00
   1 -11  -6   -0.40    2.00
   0 -11  -6  199.58   14.40
   0 -11  -6  211.18   15.70
   0 -11  -6  209.48   15.60
   0 -11  -6  236.48   11.70
  -1 -11  -6   90.89   10.60
  -1 -11  -6   73.89    9.40
   1  11   6   85.09    8.90
  -2 -11  -6  325.77   21.40
  -2 -11  -6  278.87   20.30
  -2 -11  -6  299.17   18.20
   2  11   6  290.67   16.90
  -3 -11  -6   31.90    8.40
  -3 -11  -6   39.40   10.30
   3  11   6   47.30   10.20
   3  11   6   45.70   11.40
  -4 -11  -6  168.28   20.50
  -4 -11  -6  116.09   16.40
   4  11   6  132.29   16.90
   3 -12  -6   15.80    6.30
   3 -12  -6   25.70    7.10
   3 -12  -6   17.00    8.00
   3 -12  -6   21.10    7.50
   2 -12  -6  489.95   27.20
   2 -12  -6  483.25   25.60
   2 -12  -6  514.15   24.90
   2 -12  -6  514.75   23.20
   1 -12  -6  655.23   25.50
   1 -12  -6  658.43   26.90
   1 -12  -6  616.54   28.20
   1 -12  -6  669.23   27.10
   0 -12  -6  579.84   26.20
   0 -12  -6  631.84   28.10
   0 -12  -6  611.94   19.40
   0 -12  -6  594.54   26.60
  -1 -12  -6   17.30    5.50
   1  12   6   26.20    6.40
  -2 -12  -6   75.49   10.40
  -2 -12  -6   79.29   11.00
  -2 -12  -6   71.79   10.80
   2  12   6   63.59    9.20
   2  12   6   67.59   11.10
  -3 -12  -6  105.69   13.80
  -3 -12  -6   90.89   14.00
   3  12   6  107.19   13.50
   3 -13  -6   -4.90    4.20
   3 -13  -6   -4.50    4.40
   3 -13  -6    3.10    4.20
   2 -13  -6    2.80    3.10
   2 -13  -6   -2.10    2.50
   2 -13  -6    3.80    3.80
   2 -13  -6    4.70    4.00
   1 -13  -6    1.50    2.70
   1 -13  -6   -0.40    2.50
   1 -13  -6    0.40    2.50
   1 -13  -6    0.40    2.50
   0 -13  -6    5.40    3.50
   0 -13  -6   10.10    4.70
   0 -13  -6    8.20    2.70
  -1 -13  -6   59.29   10.80
  -1 -13  -6   46.50    9.30
   1  13   6   47.60    8.50
  -2 -13  -6  310.07   21.10
  -2 -13  -6  289.37   21.30
  -2 -13  -6  302.47   22.50
   2  13   6  296.47   18.80
  -3 -13  -6   71.99   13.00
  -3 -13  -6   47.80   11.80
   3  13   6   55.69   12.00
   3  13   6  100.39   13.80
   2 -14  -6   17.60    7.30
   2 -14  -6   25.60    6.50
   2 -14  -6   24.40    6.60
   2 -14  -6   12.40    5.20
   1 -14  -6    4.20    4.60
   1 -14  -6    7.60    3.50
   1 -14  -6    7.40    4.80
   1 -14  -6   10.60    4.40
   0 -14  -6   40.10    8.00
   0 -14  -6   57.69    8.20
   0 -14  -6   45.70    5.50
   0 -14  -6   44.20    9.80
  -1 -14  -6   11.70    5.70
  -1 -14  -6   17.20    5.90
   1  14   6   16.30    6.10
  -2 -14  -6    6.50    5.60
  -2 -14  -6   12.70    6.40
  -2 -14  -6    6.60    5.10
   2  14   6   11.50    4.90
  -3 -14  -6    2.40    6.00
  -3 -14  -6   23.90    8.40
   2 -15  -6  144.59   17.00
   2 -15  -6  145.59   13.20
   2 -15  -6  142.09   14.70
   2 -15  -6  141.99   14.50
   1 -15  -6   26.30    8.40
   1 -15  -6   36.50    7.40
   1 -15  -6   22.70    7.90
   1 -15  -6   23.20    6.10
   0 -15  -6  107.69   13.40
   0 -15  -6  127.39    7.70
   0 -15  -6  128.29   11.80
   0 -15  -6  142.89   16.90
  -1 -15  -6   65.09   10.60
  -1 -15  -6   29.30   10.30
  -1 -15  -6   41.70    8.60
   1  15   6   43.30    9.80
  -2 -15  -6    6.20    6.50
  -2 -15  -6   15.00    6.70
  -2 -15  -6   20.20    7.30
   2  15   6   10.90    7.00
   1 -16  -6    9.90    5.10
   1 -16  -6    2.70    4.20
   1 -16  -6    7.40    3.40
   1 -16  -6   10.50    6.40
   0 -16  -6  208.18   14.20
   0 -16  -6  194.78   18.30
   0 -16  -6  181.08   19.10
  -1 -16  -6  119.49   12.80
  -1 -16  -6  127.19   14.30
  -1 -16  -6  139.19   16.50
  -2 -16  -6   67.89   13.80
  -2 -16  -6   70.19   13.50
  -2 -16  -6   64.19   13.50
   0 -17  -6   60.39   13.40
   0 -17  -6   11.10    6.00
   0 -17  -6   17.50    5.10
   0 -17  -6   27.90    6.30
  -1 -17  -6   14.70    7.20
  -1 -17  -6    9.10    5.50
  -1 -17  -6    4.60    5.50
   1  14  -7   -1.20    4.70
  -1 -14   7    8.90    8.50
  -1 -14   7   -2.80    3.60
   0 -14   7    2.20    5.10
  -1  14  -7   58.09   13.00
   1 -14   7   73.19   15.10
   1  13  -7   -7.30    3.90
   1  13  -7   13.20    8.80
  -1 -13   7    4.20    4.30
   0  13  -7  164.68   14.40
   0  13  -7  207.18   21.90
   0 -13   7  164.58   18.30
   0 -13   7  150.08   18.90
  -1  13  -7   85.39   13.80
   1 -13   7   88.69   14.30
  -2  13  -7   16.50    9.90
   2 -13   7   16.20    7.60
   2 -13   7   14.50    6.00
  -2 -12   7   39.80   10.40
  -2 -12   7   27.20   12.00
   1  12  -7  200.28   20.50
  -1 -12   7  168.58   22.30
  -1 -12   7  190.18   19.10
   0  12  -7  292.27   18.70
   0  12  -7  288.07   24.60
   0 -12   7  313.67   26.10
   1 -12   7  124.99   17.00
  -2  12  -7   98.19   14.80
   2 -12   7   80.49   13.00
   2  11  -7    1.50    3.80
   2  11  -7   -2.30    4.10
   2  11  -7    3.30    6.80
  -2 -11   7    2.80    5.70
  -2 -11   7   -0.10    6.30
   1  11  -7  263.07   15.10
   1  11  -7  217.88   21.10
   1  11  -7  278.57   15.90
  -1 -11   7  278.47   21.70
  -1 -11   7  254.37   24.30
   0  11  -7   41.00    7.90
   0  11  -7   19.60    7.50
   0 -11   7   21.70    7.50
  -1  11  -7   14.30    7.10
  -1  11  -7    3.90    3.30
   1 -11   7   29.30    8.90
  -2  11  -7    6.10    5.30
   2 -11   7    1.60    4.00
   2 -11   7    4.60    6.10
  -3  11  -7   43.40   11.60
   3 -11   7   30.10    9.10
   3 -11   7   47.10   12.60
   3  10  -7  135.99   16.80
  -3 -10   7   89.99   13.80
  -3 -10   7   89.89   15.70
   2  10  -7  121.99   17.70
   2  10  -7  170.18   12.90
   2  10  -7  146.59   13.90
  -2 -10   7  152.18   16.20
  -2 -10   7  154.58   20.50
   1  10  -7   18.00    5.30
   1  10  -7   12.50    6.20
   1  10  -7   22.60    5.80
  -1 -10   7    8.30    5.80
  -1 -10   7   28.60    9.00
   0  10  -7   88.79   13.10
   0  10  -7   98.79   10.80
   0 -10   7   83.69   12.90
  -1  10  -7   -2.70    3.00
  -1  10  -7   12.90    6.30
   1 -10   7   -0.10    3.30
   1 -10   7   -5.80    2.80
  -2  10  -7   77.39   12.60
   2 -10   7   76.39   10.00
   2 -10   7   68.79   12.80
  -3  10  -7    7.80    6.90
   3 -10   7   -2.10    6.80
   3 -10   7    4.80    3.20
   3 -10   7   -1.10    4.30
   3   9  -7  197.78   21.70
   3   9  -7  148.29   16.90
  -3  -9   7  126.89   15.30
  -3  -9   7  105.29   13.80
   2   9  -7   15.10    5.10
   2   9  -7   22.90    6.70
   2   9  -7   20.90    7.40
  -2  -9   7   25.00    7.90
  -2  -9   7   15.10    8.50
  -2  -9   7   13.60    6.30
   1   9  -7  138.89   11.40
   1   9  -7  134.09   15.60
   1   9  -7  131.29   11.50
  -1  -9   7  139.09   10.70
  -1  -9   7  135.09   16.80
   0   9  -7  832.02   30.10
   0   9  -7  849.41   37.50
   0  -9   7  856.41   38.40
  -1   9  -7   59.99    9.20
  -1   9  -7   69.59   12.20
   1  -9   7   54.09   10.70
   1  -9   7   57.29    9.00
   2  -9   7  260.47   18.00
   2  -9   7  287.47   22.10
   3  -9   7  105.39   12.60
   3  -9   7  113.99   15.20
   3  -9   7   91.79   18.30
   3   8  -7   17.70    7.20
   3   8  -7    9.80    7.60
  -3  -8   7   11.00    6.20
  -3  -8   7   28.40    8.90
   2   8  -7  586.94   23.50
   2   8  -7  637.94   30.60
   2   8  -7  612.44   33.50
  -2  -8   7  571.14   35.60
  -2  -8   7  605.24   29.10
  -2  -8   7  590.34   27.40
   1   8  -7   70.19   11.90
   1   8  -7   74.99    8.90
   1   8  -7   79.89    8.90
  -1  -8   7  108.39   17.10
  -1  -8   7   83.79   10.70
  -1  -8   7   65.99    7.60
   0   8  -7  959.10   38.40
   0   8  -7 1006.90   32.10
   0   8  -7  840.82   30.40
   0  -8   7  974.50   39.10
  -1   8  -7   31.80    8.50
   1  -8   7   31.00    8.40
   1  -8   7   41.30    7.60
   2  -8   7  431.66   25.90
   2  -8   7  430.86   22.60
  -3   8  -7   82.29   13.30
   3  -8   7  110.19   13.10
   3  -8   7   79.99   14.30
   3  -8   7   85.09   12.50
  -4   8  -7    3.70    4.00
   4  -8   7   13.30    6.20
   4  -8   7   19.50    8.40
   4   7  -7    1.00    7.80
  -4  -7   7    2.60    6.50
   3   7  -7  147.09   18.70
  -3  -7   7  172.98   16.90
  -3  -7   7  197.48   16.50
   2   7  -7   -1.50    2.90
   2   7  -7   -0.80    4.10
  -2  -7   7    1.20    1.90
  -2  -7   7    3.30    4.50
  -2  -7   7   -2.10    2.40
   1   7  -7  159.88   12.50
   1   7  -7  170.08   12.20
   1   7  -7  169.48   15.90
  -1  -7   7  191.38   17.90
  -1  -7   7  175.38   12.40
  -1  -7   7  179.68   14.00
   0   7  -7  148.09   14.40
   0   7  -7  158.68   10.20
   0   7  -7  154.18   12.20
   0  -7   7  177.78   15.90
  -1   7  -7 1342.67   28.80
  -1   7  -7 1237.68   45.40
  -1   7  -7 1285.87   39.70
   1  -7   7 1294.67   37.70
   1  -7   7 1345.27   44.30
  -2   7  -7  370.66   15.90
  -2   7  -7  356.16   22.00
   2  -7   7  368.46   22.30
   2  -7   7  378.66   24.10
  -3   7  -7  214.38   19.40
   3  -7   7  200.68   16.80
   3  -7   7  216.78   20.10
   3  -7   7  242.48   18.70
  -4   7  -7    4.10    7.50
  -4   7  -7   -4.40    4.00
   4  -7   7    7.50    6.20
   4  -7   7    2.50    7.60
   4  -7   7    5.10    6.60
   4   6  -7   31.70    9.40
  -4  -6   7   35.90    9.00
  -4  -6   7   16.80    8.30
   3   6  -7   -1.80    4.80
   3   6  -7    3.80    5.50
  -3  -6   7    7.80    4.40
  -3  -6   7    4.60    3.90
   2   6  -7   64.99   11.70
   2   6  -7   88.39   11.30
  -2  -6   7   80.39   10.30
  -2  -6   7   92.49    9.90
  -2  -6   7   69.59   12.90
   1   6  -7  364.76   19.20
   1   6  -7  329.77   16.70
   1   6  -7  365.56   22.30
  -1  -6   7  351.66   17.70
  -1  -6   7  343.57   23.00
  -1  -6   7  369.66   19.40
   0   6  -7  307.77   14.40
   0   6  -7  301.37   16.00
   0   6  -7  294.27   19.10
   0  -6   7  321.47   20.10
  -1   6  -7  147.79   12.10
  -1   6  -7  132.69   13.40
  -1   6  -7  141.79    8.90
   1  -6   7  144.59   13.80
   1  -6   7  145.99   11.60
  -2   6  -7   63.19    7.10
  -2   6  -7   64.99    9.60
   2  -6   7   50.09    8.30
   2  -6   7   44.40    8.00
  -3   6  -7    6.00    3.70
   3  -6   7    4.80    3.60
   3  -6   7    7.60    4.60
   3  -6   7   -1.80    2.60
  -4   6  -7   63.09   11.30
  -4   6  -7   66.29   14.00
   4  -6   7   33.90    9.40
   4  -6   7   55.29   15.10
   4  -6   7   47.80    9.40
   4   5  -7   16.60    7.50
   4   5  -7    8.40    5.40
  -4  -5   7   16.30    6.10
  -4  -5   7   21.50    8.30
   3   5  -7  687.13   37.00
   3   5  -7  726.93   37.20
  -3  -5   7  719.23   28.40
  -3  -5   7  665.33   33.10
   2   5  -7    0.40    2.50
   2   5  -7    5.20    4.00
  -2  -5   7    4.30    4.40
  -2  -5   7    2.90    2.90
   1   5  -7  684.33   29.50
   1   5  -7  690.33   27.10
  -1  -5   7  708.83   25.80
  -1  -5   7  681.53   25.50
  -1  -5   7  702.23   32.20
   0   5  -7  374.56   17.60
   0   5  -7  335.17   15.70
   0   5  -7  361.06   20.10
   0  -5   7  322.07   19.40
  -1   5  -7  336.57   18.00
  -1   5  -7  356.86   20.70
   1  -5   7  360.86   17.90
   1  -5   7  331.47   18.90
  -2   5  -7  399.76   18.30
   2  -5   7  413.66   21.60
   2  -5   7  387.36   20.00
  -3   5  -7   24.30    6.80
   3  -5   7   30.60    9.10
   3  -5   7   25.00    6.50
  -4   5  -7   31.60    9.50
  -4   5  -7   29.50    9.20
   4  -5   7   14.50    7.20
   4  -5   7   25.20    6.70
   4   4  -7  113.39   14.40
   4   4  -7  119.29   19.60
   4   4  -7  158.58   20.70
  -4  -4   7  126.89   16.10
  -4  -4   7  130.69   13.20
   3   4  -7   54.19   11.70
   3   4  -7   59.79   10.80
  -3  -4   7   48.10    9.40
  -3  -4   7   39.30    7.10
   2   4  -7 1454.15   48.10
  -2  -4   7 1442.26   45.30
  -2  -4   7 1502.25   38.00
   1   4  -7  100.89   10.30
   1   4  -7   93.79   10.50
  -1  -4   7  100.59    8.80
  -1  -4   7  102.69    9.80
  -1  -4   7   85.19   11.40
   0   4  -7 3722.43   75.89
   0   4  -7 3864.91   69.79
   0   4  -7 3720.63   70.39
   0  -4   7 3901.81   77.79
  -1   4  -7  102.89    9.70
  -1   4  -7   97.09   10.40
   1  -4   7   88.79    9.40
   1  -4   7  109.19    9.80
  -2   4  -7 1969.10   52.19
   2  -4   7 1933.81   48.80
   2  -4   7 1993.80   53.99
   2  -4   7 1995.70   49.80
  -3   4  -7   55.99    9.20
   3  -4   7   56.59    8.80
   3  -4   7   47.60    8.60
  -4   4  -7  155.18   18.10
   4  -4   7  140.79   16.90
   4  -4   7  126.79   15.30
   4  -4   7  137.99   14.30
   4   3  -7  120.29   20.30
   4   3  -7  132.89   18.60
   4   3  -7   90.29   13.20
  -4  -3   7  128.29   11.50
  -4  -3   7   96.89   15.40
   3   3  -7   -1.40    3.50
   3   3  -7    0.60    4.00
  -3  -3   7   -0.80    3.40
  -3  -3   7    1.60    2.50
   2   3  -7  665.63   31.50
  -2  -3   7  695.83   30.00
  -2  -3   7  709.43   22.60
   1   3  -7   18.00    5.50
   1   3  -7    7.90    3.30
  -1  -3   7   17.60    4.30
  -1  -3   7   16.60    4.90
  -1  -3   7   14.50    5.50
   0   3  -7   15.50    4.30
   0   3  -7   21.90    5.10
   0   3  -7   21.30    5.40
   0  -3   7   18.40    5.10
  -1   3  -7 1252.27   35.20
  -1   3  -7 1284.27   36.30
   1  -3   7 1259.17   34.90
   1  -3   7 1256.07   34.00
  -2   3  -7  314.67   18.30
   2  -3   7  305.67   16.90
   2  -3   7  299.27   18.60
   2  -3   7  312.07   16.80
  -3   3  -7  442.66   24.60
  -3   3  -7  431.26   23.70
   3  -3   7  442.06   24.00
   3  -3   7  391.46   25.60
  -4   3  -7   91.99   13.80
   4  -3   7   97.69   12.40
   4  -3   7   73.29   13.70
   4   2  -7  260.97   21.10
   4   2  -7  204.68   21.90
   4   2  -7  271.47   26.30
  -4  -2   7  251.07   23.00
   3   2  -7   -1.70    2.40
   3   2  -7   -2.30    2.90
  -3  -2   7    1.60    2.80
  -3  -2   7   -0.70    2.00
   2   2  -7   68.19   10.20
   2   2  -7   81.69   10.90
  -2  -2   7   90.09   10.70
   1   2  -7  572.24   23.50
   1   2  -7  596.54   25.20
  -1  -2   7  554.04   24.50
  -1  -2   7  564.44   23.50
  -1  -2   7  613.84   19.80
   0   2  -7  359.66   16.80
   0   2  -7  356.96   16.90
   0   2  -7  368.16   16.50
   0  -2   7  373.86   17.30
  -1   2  -7  760.62   25.70
   1  -2   7  754.82   24.50
   1  -2   7  726.03   25.40
   1  -2   7  729.13   23.80
  -2   2  -7  146.79   12.20
   2  -2   7  138.29   12.30
   2  -2   7  142.99   11.30
   2  -2   7  134.89   10.50
  -3   2  -7    1.10    3.00
  -3   2  -7    1.30    3.40
   3  -2   7    3.80    4.30
   3  -2   7    5.00    3.20
  -4   2  -7   93.59   12.20
   4  -2   7   80.79   11.20
   4  -2   7   85.29   13.00
  -5   2  -7   11.00    8.10
   5  -2   7    2.60    5.20
   4   1  -7   49.20   13.50
   4   1  -7   66.49   17.40
   4   1  -7   40.30   10.80
  -4  -1   7   50.19   10.60
   3   1  -7  398.96   26.10
   3   1  -7  378.96   26.70
  -3  -1   7  398.46   15.50
  -3  -1   7  401.16   25.40
   2   1  -7    8.90    4.60
   2   1  -7   -0.60    2.50
  -2  -1   7    3.40    2.00
  -2  -1   7    8.40    3.90
   1   1  -7 5512.75   95.59
   1   1  -7 5334.37   99.79
  -1  -1   7 5539.65   81.19
  -1  -1   7 5440.36   97.59
  -1  -1   7 5397.16   96.99
   0   1  -7  162.28   10.40
   0   1  -7  160.78   11.30
   0  -1   7  151.18   11.40
  -1   1  -7 1106.19   31.10
   1  -1   7 1135.39   30.30
   1  -1   7 1081.89   31.00
  -2   1  -7   78.39    8.80
   2  -1   7   80.49    8.40
   2  -1   7   73.19    7.70
   2  -1   7   67.69    8.90
  -3   1  -7  431.06   24.70
  -3   1  -7  469.55   24.40
   3  -1   7  451.65   21.90
   3  -1   7  448.86   25.50
  -4   1  -7   16.40    6.20
   4  -1   7   22.50    6.00
   4  -1   7   10.90    5.20
  -5   1  -7   -0.40    7.80
  -5   1  -7   -3.80    5.70
   4   0  -7   44.40   10.60
   4   0  -7   41.50   11.60
  -4   0   7   56.99   15.90
   3   0  -7  498.05   31.10
   3   0  -7  489.95   29.40
   3   0  -7  440.06   27.00
  -3   0   7  492.05   15.30
   2   0  -7   74.69   10.60
   2   0  -7   85.29   10.40
  -2   0   7   90.29   10.90
   1   0  -7 2721.23   62.89
   1   0  -7 2737.13   56.39
  -1   0   7 2808.82   42.50
  -1   0   7 2688.53   60.39
   0   0  -7 2330.77   51.79
   0   0  -7 2201.78   49.00
   0   0   7 2341.87   44.90
   0   0   7 2379.86   45.50
  -1   0  -7   88.29    8.10
   1   0   7   99.19    8.50
   1   0   7   95.39    6.70
  -2   0  -7 2330.67   52.89
   2   0   7 2349.86   56.49
   2   0   7 2335.77   50.29
   2   0   7 2334.07   48.10
  -3   0  -7  131.29   14.00
  -3   0  -7  134.69   12.50
   3   0   7  143.59   12.20
   3   0   7  181.18   15.80
  -4   0  -7  377.76   23.20
   4   0   7  375.56   21.90
   4   0   7  379.26   25.30
  -5   0  -7    9.70    8.10
  -5   0  -7    5.30    6.70
   5   0   7    1.40    5.10
   4  -1  -7   52.89   10.60
   4  -1  -7   75.29   12.50
   4  -1  -7   91.49   17.70
   3  -1  -7   18.20    5.60
   3  -1  -7   13.10    5.40
   3  -1  -7   19.60    7.40
   2  -1  -7 1735.73   53.09
  -2   1   7 1701.93   49.80
   1  -1  -7    3.00    2.30
   1  -1  -7    4.80    3.10
  -1   1   7    4.80    2.90
   0  -1  -7 3174.98   64.29
   0  -1  -7 3049.09   51.79
   0   1   7 3087.09   51.99
   0   1   7 3043.80   51.99
  -1  -1  -7   37.20    5.30
   1   1   7   35.60    5.30
   1   1   7   33.00    3.60
  -2  -1  -7 1455.25   38.20
  -2  -1  -7 1476.05   41.00
   2   1   7 1434.06   41.60
   2   1   7 1446.46   36.00
  -3  -1  -7  181.68   15.60
  -3  -1  -7  185.78   13.90
  -3  -1  -7  178.68   18.60
   3   1   7  165.38   15.30
   3   1   7  177.38   12.80
  -4  -1  -7   79.49   12.70
  -4  -1  -7   77.89   11.30
   4   1   7   77.59   12.40
   4   1   7   88.99   10.50
  -5  -1  -7   75.69   15.30
   5   1   7   55.39   11.90
   4  -2  -7    5.90    7.80
   4  -2  -7    5.40    4.80
   4  -2  -7   23.50    8.70
   4  -2  -7   11.70    2.70
   3  -2  -7   34.90    7.60
   3  -2  -7   33.90    8.80
   3  -2  -7   30.40    9.20
   2  -2  -7  453.75   25.80
   2  -2  -7  489.95   24.00
  -2   2   7  447.26   23.90
   1  -2  -7  299.17   14.70
   1  -2  -7  302.67   18.30
  -1   2   7  276.37   16.80
   0  -2  -7 1142.59   34.40
   0  -2  -7 1138.99   22.90
   0   2   7 1081.09   23.90
  -1  -2  -7  916.51   26.40
  -1  -2  -7  922.91   26.70
   1   2   7  955.40   27.30
  -2  -2  -7    4.40    3.50
  -2  -2  -7   10.20    3.00
   2   2   7    5.90    3.10
   2   2   7    2.00    2.10
  -3  -2  -7  297.17   23.80
  -3  -2  -7  296.87   17.20
  -3  -2  -7  307.07   20.00
   3   2   7  271.57   19.20
   3   2   7  305.17   16.20
  -4  -2  -7    6.40    4.40
  -4  -2  -7   -1.00    4.10
  -4  -2  -7    5.90    5.90
   4   2   7    2.90    4.30
   4   2   7   16.70    4.30
  -5  -2  -7    7.90    7.50
   5   2   7   17.80    6.50
   4  -3  -7  300.97   25.60
   4  -3  -7  299.47   23.70
   3  -3  -7    1.10    2.80
   3  -3  -7    0.20    3.60
  -3   3   7    2.50    3.20
   2  -3  -7  302.87   20.80
  -2   3   7  286.17   19.00
   1  -3  -7  339.97   19.60
  -1   3   7  383.16   20.20
   0  -3  -7  569.44   23.90
   0  -3  -7  549.25   15.50
   0   3   7  576.64   15.80
  -1  -3  -7 1982.90   42.10
  -1  -3  -7 2040.40   44.50
   1   3   7 2023.00   44.10
  -2  -3  -7    6.50    2.70
  -2  -3  -7    8.10    3.60
   2   3   7   11.30    3.60
   2   3   7    9.30    4.40
  -3  -3  -7  280.77   20.70
  -3  -3  -7  276.67   19.20
  -3  -3  -7  295.57   16.80
   3   3   7  305.97   20.40
   3   3   7  283.47   15.40
  -4  -3  -7   62.49    9.40
  -4  -3  -7   56.29   10.60
  -4  -3  -7   51.99   11.20
   4   3   7   49.40    8.80
   4   3   7   60.69   11.90
  -5  -3  -7   21.10    7.10
  -5  -3  -7    1.80    6.40
   5   3   7   23.80    7.40
   5   3   7   12.60    9.50
   4  -4  -7   -4.40    4.30
   4  -4  -7    4.60    3.70
   3  -4  -7  765.72   38.10
   3  -4  -7  751.92   33.70
  -3   4   7  642.44   32.90
   2  -4  -7 1346.37   46.20
  -2   4   7 1425.56   45.00
   1  -4  -7 2681.93   63.79
   0  -4  -7    4.90    2.00
  -1  -4  -7 3009.50   56.09
  -1  -4  -7 3216.88   61.09
   1   4   7 3147.69   60.29
  -2  -4  -7  250.77   12.80
  -2  -4  -7  242.48   15.90
   2   4   7  243.28   12.00
   2   4   7  238.28   12.80
   2   4   7  235.78   15.50
  -3  -4  -7   44.50    7.30
  -3  -4  -7   53.19   10.90
  -3  -4  -7   50.29    9.00
   3   4   7   44.50    7.70
   3   4   7   59.79    7.30
  -4  -4  -7  278.47   23.80
  -4  -4  -7  357.26   24.60
  -4  -4  -7  273.17   18.10
   4   4   7  236.28   19.80
   4   4   7  280.17   17.00
   4   4   7  270.57   22.10
  -5  -4  -7   12.80    7.60
  -5  -4  -7   13.80    7.30
   5   4   7   17.80    7.20
   5   4   7   15.50    9.70
   4  -5  -7   26.00    8.60
   4  -5  -7   22.00    7.80
   3  -5  -7   55.19   10.00
   3  -5  -7   86.69   12.30
  -3   5   7   46.30    9.50
   2  -5  -7  279.17   19.60
   2  -5  -7  271.57   17.90
  -2   5   7  286.37   19.00
   1  -5  -7   90.69   10.80
   0  -5  -7 3110.39   54.49
   0   5   7 3247.68   53.89
  -1  -5  -7   80.19    6.60
  -1  -5  -7   88.39    8.10
   1   5   7   84.49    7.80
  -2  -5  -7 1039.90   27.40
  -2  -5  -7 1012.40   35.10
   2   5   7 1058.19   35.10
   2   5   7 1157.28   29.90
  -3  -5  -7    2.60    2.70
   3   5   7    5.70    2.80
   3   5   7    3.30    3.40
  -4  -5  -7  570.94   35.30
  -4  -5  -7  591.34   26.50
  -4  -5  -7  639.04   33.80
   4   5   7  623.24   24.70
   4   5   7  607.44   30.70
   4   5   7  646.34   33.80
  -5  -5  -7    2.70    5.10
   5   5   7  -15.70    6.80
   5   5   7   -1.50    5.70
   4  -6  -7   22.00    6.80
   4  -6  -7    3.60    5.20
  -4   6   7    2.60    6.50
   3  -6  -7   66.89   11.70
   3  -6  -7   62.09   10.70
  -3   6   7   31.20    9.10
   2  -6  -7   54.39    8.10
   2  -6  -7   38.90    7.60
  -2   6   7   61.59    9.40
   1  -6  -7    5.30    3.70
   1  -6  -7    6.00    1.80
   0  -6  -7  137.59    6.90
   0  -6  -7  129.19    8.60
   0   6   7  132.19    8.20
  -1  -6  -7   40.30    6.00
  -1  -6  -7   39.50    5.10
   1   6   7   43.90    6.10
  -2  -6  -7   53.09    5.70
  -2  -6  -7   54.69    8.20
   2   6   7   57.19    8.10
   2   6   7   57.39    5.90
  -3  -6  -7  169.58   16.10
  -3  -6  -7  196.98   11.90
  -3  -6  -7  180.98   17.50
   3   6   7  198.48   11.50
   3   6   7  171.98   13.10
  -4  -6  -7    5.60    3.40
  -4  -6  -7    5.90    4.80
  -4  -6  -7    3.80    5.00
   4   6   7    4.60    4.50
   4   6   7    0.40    4.30
   4   6   7    7.80    3.80
   4  -7  -7  172.08   20.20
   4  -7  -7  181.98   19.00
  -4   7   7  178.48   19.90
   3  -7  -7  246.48   10.30
   3  -7  -7  244.68   21.00
   3  -7  -7  205.48   17.80
   2  -7  -7  633.44   30.40
   2  -7  -7  635.64   28.20
   2  -7  -7  628.94   16.20
  -2   7   7  618.34   29.30
   1  -7  -7  104.49    6.90
   1  -7  -7  102.39   11.50
   0  -7  -7  975.00   23.60
   0  -7  -7  964.30   26.90
   0   7   7  941.41   25.70
  -1  -7  -7  197.18   13.20
  -1  -7  -7  192.58    9.90
   1   7   7  181.68   12.20
  -2  -7  -7  292.27   12.00
  -2  -7  -7  291.77   18.70
   2   7   7  285.17   13.20
   2   7   7  309.87   18.40
  -3  -7  -7   24.80    7.40
  -3  -7  -7   31.40    4.90
  -3  -7  -7   24.40    7.80
   3   7   7   20.50    5.90
  -4  -7  -7   12.00    6.50
  -4  -7  -7   20.30    5.60
   4   7   7   27.20    5.80
   4   7   7   24.00    8.50
   4   7   7   16.30    7.10
   4  -8  -7   16.90    7.70
   4  -8  -7   36.90    5.90
   4  -8  -7   36.90   11.30
  -4   8   7   11.40    7.50
   3  -8  -7  108.19    7.80
   3  -8  -7   91.09   13.20
   3  -8  -7   97.49   12.30
   2  -8  -7  168.48   15.50
   2  -8  -7  129.49   13.00
   1  -8  -7 2028.60   40.70
   1  -8  -7 2022.40   49.20
   1  -8  -7 1928.51   54.09
   1  -8  -7 2030.80   46.80
   0  -8  -7  682.93   23.20
   0  -8  -7  711.73   21.80
  -1  -8  -7  954.50   32.00
  -1  -8  -7  967.40   23.70
  -1  -8  -7  950.90   23.30
   1   8   7  979.50   22.70
   1   8   7  934.71   30.30
  -2  -8  -7   15.70    6.10
   2   8   7   23.20    4.60
  -3  -8  -7  529.95   30.50
  -3  -8  -7  567.54   18.50
  -3  -8  -7  515.75   28.90
   3   8   7  565.24   24.30
  -4  -8  -7   19.90    8.20
  -4  -8  -7   10.10    7.40
   4   8   7   20.90    9.10
   4   8   7    0.00    2.80
   4   8   7    0.10    4.90
   4  -9  -7   32.00    8.80
   4  -9  -7   26.10    5.20
   4  -9  -7   55.09   12.10
  -4   9   7   26.70    9.40
   3  -9  -7  177.88   17.00
   3  -9  -7  145.39   16.20
   3  -9  -7  151.48   10.20
   2  -9  -7   13.50    5.50
   2  -9  -7   22.50    4.90
   2  -9  -7   15.30    6.30
   1  -9  -7  678.73   26.20
   1  -9  -7  691.83   29.90
   1  -9  -7  678.73   22.20
   1  -9  -7  665.63   24.70
   0  -9  -7  298.97   19.10
   0  -9  -7  308.27   15.90
   0  -9  -7  291.07   14.80
  -1  -9  -7  248.48   16.20
  -1  -9  -7  316.17   13.90
  -1  -9  -7  284.67   17.30
   1   9   7  275.77   12.30
   1   9   7  274.47   16.20
  -2  -9  -7  493.75   25.70
   2   9   7  540.55   25.70
   2   9   7  566.14   20.80
  -3  -9  -7   16.70    6.70
  -3  -9  -7   13.40    5.20
   3   9   7   17.00    6.00
  -4  -9  -7  106.49   16.70
  -4  -9  -7  104.69   15.20
   4   9   7   69.49   13.50
   4   9   7  128.19   15.30
   3 -10  -7   -3.10    2.10
   3 -10  -7   -1.90    3.60
   3 -10  -7   -1.20    3.50
   3 -10  -7    2.50    3.00
   2 -10  -7    5.10    3.90
   2 -10  -7    3.50    3.30
   2 -10  -7   18.80    5.80
   2 -10  -7   11.30    3.70
   1 -10  -7  460.85   21.60
   1 -10  -7  452.55   19.00
   1 -10  -7  451.55   21.00
   1 -10  -7  433.06   23.30
   0 -10  -7   40.70    5.50
   0 -10  -7   28.20    6.20
   0 -10  -7   31.90    6.00
   0 -10  -7   42.50    7.90
  -1 -10  -7   27.20    3.40
  -1 -10  -7   28.80    3.70
  -1 -10  -7   18.90    4.80
  -1 -10  -7   34.10    8.10
   1  10   7   16.30    5.30
   1  10   7   21.30    4.60
  -2 -10  -7  260.57   19.50
   2  10   7  249.28   17.90
   2  10   7  268.97   14.80
  -3 -10  -7   35.40    8.70
  -3 -10  -7   63.19   11.30
   3  10   7   39.30   10.70
  -4 -10  -7   -3.10    5.50
  -4 -10  -7    4.30    6.90
   4  10   7    3.00    5.00
   4  10   7    8.70    5.90
   3 -11  -7    7.10    3.00
   3 -11  -7    4.60    3.60
   3 -11  -7    8.70    5.70
   3 -11  -7    0.60    4.20
   3 -11  -7    0.50    3.20
   2 -11  -7  238.78   17.70
   2 -11  -7  234.18   13.90
   2 -11  -7  233.58   18.10
   1 -11  -7   40.90    6.80
   1 -11  -7   25.30    6.30
   1 -11  -7   31.30    6.00
   1 -11  -7   43.60    9.60
   0 -11  -7  109.89   10.90
   0 -11  -7  105.19   12.10
   0 -11  -7   94.19   10.50
   0 -11  -7  124.59    9.00
  -1 -11  -7   45.00    9.40
  -1 -11  -7   60.99    8.60
   1  11   7   43.60    8.50
   1  11   7   44.80    6.30
  -2 -11  -7  395.96   24.40
   2  11   7  398.96   18.70
  -3 -11  -7    5.20    4.60
  -3 -11  -7    3.70    5.50
   3  11   7   -1.40    3.90
   3  11   7    0.50    3.30
  -4 -11  -7   29.20   10.60
   3 -12  -7  156.58   17.60
   3 -12  -7  137.29   11.70
   3 -12  -7  138.09   15.40
   3 -12  -7  138.99   18.20
   3 -12  -7  144.09   12.80
   2 -12  -7  219.78   17.20
   2 -12  -7  209.78   17.00
   2 -12  -7  201.08   14.00
   2 -12  -7  185.98   16.20
   1 -12  -7  137.69   13.30
   1 -12  -7  142.19   13.00
   1 -12  -7  120.59   11.20
   1 -12  -7  110.89   10.60
   0 -12  -7   92.29   11.30
   0 -12  -7   94.49   10.80
   0 -12  -7   93.29    8.10
   0 -12  -7   87.79   10.70
  -1 -12  -7  306.97   18.10
  -2 -12  -7   -4.70    2.60
  -2 -12  -7    2.80    3.70
  -2 -12  -7   -2.10    2.60
   2  12   7    2.60    3.30
   2  12   7    3.30    3.10
  -3 -12  -7   71.79   12.70
  -3 -12  -7   70.59   12.00
   3  12   7   85.19   12.30
   3 -13  -7   56.59    8.70
   3 -13  -7   57.99   13.00
   3 -13  -7   91.39   12.90
   2 -13  -7   25.70    6.80
   2 -13  -7   11.00    5.60
   2 -13  -7   25.60    7.30
   2 -13  -7   20.80    7.70
   1 -13  -7   88.79   10.40
   1 -13  -7   90.39   10.00
   1 -13  -7  103.09   11.20
   1 -13  -7   72.09   10.80
   0 -13  -7   35.60    9.30
   0 -13  -7   34.30    5.90
   0 -13  -7   57.89    9.60
   0 -13  -7   38.10    8.30
  -1 -13  -7  476.95   24.30
  -1 -13  -7  467.85   26.40
  -2 -13  -7  117.59   14.30
  -2 -13  -7  133.29   13.20
  -2 -13  -7  141.19   16.30
   2  13   7  114.59   13.30
  -3 -13  -7   72.49   14.40
  -3 -13  -7  101.39   15.20
   3  13   7   72.29   12.70
   2 -14  -7   -7.50    3.40
   2 -14  -7    7.90    5.30
   2 -14  -7    3.30    3.40
   1 -14  -7   10.50    4.20
   1 -14  -7    0.70    3.60
   1 -14  -7    4.50    3.90
   1 -14  -7    5.30    3.50
   0 -14  -7   19.70    7.40
   0 -14  -7   21.40    4.40
   0 -14  -7   34.40    6.60
   0 -14  -7   13.00    5.40
  -1 -14  -7   46.30    9.60
  -2 -14  -7    5.70    5.00
  -2 -14  -7    2.20    4.00
  -2 -14  -7   -2.90    3.20
   2  14   7    1.40    4.40
  -3 -14  -7    0.90    5.00
   3  14   7   -2.20    6.30
   2 -15  -7   65.09   10.80
   2 -15  -7   64.39    9.80
   2 -15  -7   51.89    9.90
   2 -15  -7   29.80    8.20
   1 -15  -7   17.70    7.20
   1 -15  -7    9.00    4.80
   1 -15  -7    7.80    5.00
   1 -15  -7   11.50    4.50
   0 -15  -7   13.70    6.10
   0 -15  -7    9.20    6.60
   0 -15  -7    2.10    2.60
   0 -15  -7    6.90    4.20
  -1 -15  -7    4.30    4.00
  -1 -15  -7   -1.10    4.20
  -2 -15  -7   34.60    8.80
  -2 -15  -7   21.60   10.30
  -2 -15  -7   41.10   10.20
   1 -16  -7   22.20    6.30
   1 -16  -7   19.50    6.40
   1 -16  -7   13.50    5.30
   0 -16  -7   73.89   10.30
   0 -16  -7  106.19   14.70
   0 -16  -7   67.19   12.40
   0 -16  -7   73.69    6.00
  -1 -16  -7   57.49   11.20
  -1 -16  -7   76.49   14.20
  -1 -16  -7   77.39   12.40
  -2 -16  -7   73.69   12.90
  -2 -16  -7   34.70    9.50
  -2 -16  -7   26.30    9.20
   0 -17  -7    0.60    5.40
   0 -17  -7   11.80    5.10
   0 -17  -7    3.40    6.30
  -1 -17  -7    4.90    7.00
  -1 -17  -7    5.50    6.10
  -1 -17  -7   13.00    6.50
  -1 -13   8   49.60   14.00
   0  13  -8   26.30   10.90
   0 -13   8   24.10    9.10
  -1  13  -8   -7.70    4.70
   1 -13   8    2.60    6.00
   2  12  -8  149.39   16.50
  -2 -12   8  166.68   23.10
  -2 -12   8  130.59   13.50
  -2 -12   8  137.09   17.30
   1  12  -8   63.49   14.80
  -1 -12   8   84.89   14.90
  -1 -12   8  101.59   14.00
   0  12  -8  147.39   19.90
   0 -12   8  129.29   17.50
  -1  12  -8  177.28   16.50
  -1  12  -8  131.19   19.90
   1 -12   8  174.58   19.20
  -2  12  -8   68.69   14.20
   2 -12   8   34.90    8.40
   2 -12   8   62.89   15.40
   2  11  -8   -9.00    3.50
   2  11  -8   -0.60    5.80
   2  11  -8   -2.50    3.50
  -2 -11   8   -6.70    3.30
  -2 -11   8    1.40    4.80
   1  11  -8   45.50    9.20
  -1 -11   8   63.09   14.00
  -1 -11   8   61.19   12.20
   0  11  -8    1.60    4.70
   0  11  -8    2.80    4.10
   0 -11   8    0.60    4.60
  -1  11  -8  125.29   17.90
  -1  11  -8  122.69   16.80
   1 -11   8  134.49   16.30
  -2  11  -8   70.89   13.70
   2 -11   8   91.69   12.80
   2 -11   8   89.79   14.20
   3 -11   8  111.79   16.40
   3  10  -8    5.90    5.40
  -3 -10   8    2.80    6.00
  -3 -10   8  -11.40    4.50
   2  10  -8  156.88   20.60
   2  10  -8  198.98   17.90
   2  10  -8  156.18   14.00
  -2 -10   8  154.78   22.00
  -2 -10   8  176.48   15.20
  -2 -10   8  174.58   17.70
   1  10  -8    0.90    2.40
   1  10  -8   -0.40    3.10
   1  10  -8    4.50    5.20
  -1 -10   8    6.20    4.90
  -1 -10   8    0.20    2.80
   0  10  -8  153.78   16.70
   0  10  -8  139.79   13.50
   0 -10   8  124.09   15.70
  -1  10  -8   45.60   11.50
   1 -10   8   52.39   10.80
  -2  10  -8   70.59   13.20
   2 -10   8   71.69   13.00
   2 -10   8   72.89   10.50
  -3  10  -8   17.70    9.50
   3   9  -8   68.99   14.80
  -3  -9   8   66.79   12.10
  -3  -9   8   68.09   12.80
   2   9  -8  111.29   11.70
   2   9  -8   97.39   16.00
  -2  -9   8  132.39   13.00
  -2  -9   8  115.29   18.40
  -2  -9   8  146.49   15.50
   1   9  -8   28.50    8.20
   1   9  -8   24.20    6.30
  -1  -9   8   28.10    9.20
  -1  -9   8   15.30    5.90
   0   9  -8  269.77   14.40
   0   9  -8  247.78   20.00
   0   9  -8  241.78   16.30
   0  -9   8  218.48   20.00
  -1   9  -8  340.97   25.40
  -1   9  -8  370.56   21.90
   1  -9   8  317.57   23.50
  -2   9  -8  106.09   13.20
   2  -9   8   98.19   13.90
   2  -9   8   90.69   10.50
  -3   9  -8   13.80    7.10
   3  -9   8   12.10    7.00
   3  -9   8    7.40    6.10
   3  -9   8   10.30    6.30
   3   8  -8   -0.50    7.40
   3   8  -8    6.20    7.00
  -3  -8   8    8.40    5.60
  -3  -8   8   11.70    5.40
   2   8  -8  523.05   31.80
   2   8  -8  504.45   22.80
   2   8  -8  516.45   28.70
  -2  -8   8  532.35   35.20
  -2  -8   8  528.15   26.50
  -2  -8   8  603.74   32.10
   1   8  -8    1.20    2.60
   1   8  -8   -1.90    3.00
   1   8  -8   -1.50    2.70
  -1  -8   8    2.10    3.20
  -1  -8   8    0.20    2.30
   0   8  -8  306.07   22.00
   0   8  -8  335.87   15.50
   0   8  -8  326.77   19.00
  -1   8  -8   51.09    5.20
  -1   8  -8   36.10    8.20
  -1   8  -8   50.89   10.20
   2  -8   8  107.89   11.10
   2  -8   8  129.39   14.40
  -3   8  -8  159.08   25.70
   3  -8   8  167.48   17.70
   3  -8   8  172.38   16.20
   3   7  -8  218.68   23.30
   3   7  -8  173.48   19.70
  -3  -7   8  205.78   18.80
  -3  -7   8  176.78   17.40
   2   7  -8   34.50    8.90
   2   7  -8   26.00    8.30
  -2  -7   8   29.80    9.20
  -2  -7   8   28.20    7.40
  -2  -7   8   34.70    7.40
   1   7  -8 1386.76   41.90
   1   7  -8 1284.07   47.10
   1   7  -8 1391.66   39.10
  -1  -7   8 1360.96   39.50
  -1  -7   8 1410.86   43.10
   0   7  -8  270.57   16.50
   0   7  -8  258.37   14.00
   0  -7   8  264.17   20.10
  -1   7  -8  949.90   35.40
  -1   7  -8  718.03   38.00
  -1   7  -8  767.52   31.10
   1  -7   8  741.33   33.00
  -2   7  -8    1.20    2.30
   2  -7   8    2.20    3.80
   2  -7   8   -1.20    2.30
  -3   7  -8  224.78   20.20
   3  -7   8  258.57   21.70
   3  -7   8  233.28   19.70
   3  -7   8  250.87   19.00
  -4   7  -8   -7.70    5.00
   4  -7   8   -0.20    5.40
   4  -7   8    2.60    4.40
   3   6  -8    9.50    6.90
   3   6  -8    6.10    5.40
  -3  -6   8    8.90    5.50
  -3  -6   8    5.00    4.50
   2   6  -8    8.50    5.10
   2   6  -8   32.40    8.60
  -2  -6   8   21.10    7.10
  -2  -6   8   21.10    5.90
  -2  -6   8   18.00    6.30
   1   6  -8  201.68   14.00
   1   6  -8  208.28   14.90
   1   6  -8  194.48   19.30
  -1  -6   8  187.08   14.20
  -1  -6   8  207.68   18.70
  -1  -6   8  202.38   14.20
   0   6  -8  186.78   11.70
   0   6  -8  166.68   14.60
   0   6  -8  160.38   12.50
   0  -6   8  161.88   15.20
  -1   6  -8   -0.20    2.80
  -1   6  -8   -1.10    1.90
   1  -6   8    4.20    3.20
   1  -6   8    2.10    2.30
  -2   6  -8  564.54   28.10
  -2   6  -8  622.34   23.30
   2  -6   8  617.94   28.70
   2  -6   8  599.74   26.60
  -3   6  -8  179.38   14.40
   3  -6   8  182.08   16.10
   3  -6   8  174.38   15.90
  -4   6  -8   82.59   16.30
   4  -6   8   86.39   15.10
   4  -6   8   83.19   13.00
   4   5  -8   -8.20    6.10
   4   5  -8    0.00    5.20
  -4  -5   8   -1.10    5.00
   3   5  -8  400.46   27.20
   3   5  -8  418.96   29.30
  -3  -5   8  418.26   27.30
  -3  -5   8  395.56   20.70
   2   5  -8  128.19   14.40
   2   5  -8  121.59   14.30
  -2  -5   8  136.69   11.20
  -2  -5   8  130.69   16.00
   1   5  -8   18.20    4.90
   1   5  -8   14.00    5.10
   1   5  -8    5.40    3.70
  -1  -5   8   10.50    4.40
  -1  -5   8    9.60    4.00
  -1  -5   8   13.70    6.10
   0   5  -8  595.84   23.90
   0   5  -8  593.74   22.50
   0   5  -8  592.14   26.70
   0  -5   8  554.24   26.70
  -1   5  -8   34.40    5.10
  -1   5  -8   32.40    6.60
  -1   5  -8   23.90    6.70
   1  -5   8   41.90    7.90
   1  -5   8   31.30    6.30
  -2   5  -8    1.90    3.00
   2  -5   8   -1.90    2.80
   2  -5   8    2.60    2.80
   2  -5   8    5.80    3.60
  -3   5  -8   32.50    8.00
   3  -5   8   25.50    7.30
   3  -5   8   24.90    7.20
  -4   5  -8   14.60    7.90
  -4   5  -8    3.60    4.80
   4  -5   8   12.20    8.00
   4  -5   8   11.00    6.10
   4   4  -8  218.78   20.30
  -4  -4   8  199.88   22.30
   3   4  -8   39.10   11.20
   3   4  -8   39.10    9.60
  -3  -4   8   42.50    6.70
  -3  -4   8   46.80   10.00
   2   4  -8  893.71   37.20
   2   4  -8  867.21   37.60
  -2  -4   8  929.61   29.00
   1   4  -8   96.19   10.50
   1   4  -8   87.89   10.50
  -1  -4   8   83.89    9.40
  -1  -4   8  100.49   12.40
   0   4  -8 5800.92  100.39
   0   4  -8 5879.11   99.89
   0   4  -8 5830.92  105.79
   0  -4   8 5825.52  106.89
  -1   4  -8  132.19   12.90
  -1   4  -8  135.49   11.80
   1  -4   8  152.78   12.60
  -2   4  -8  389.96   22.80
   2  -4   8  409.86   20.70
   2  -4   8  371.16   20.00
  -3   4  -8    4.80    3.20
   3  -4   8   -2.00    2.70
   3  -4   8    1.40    2.90
  -4   4  -8   56.89   13.30
   4  -4   8   48.60   10.60
   4  -4   8   27.90    7.40
   4  -4   8   28.50   12.20
   4   3  -8  143.99   17.10
   4   3  -8  122.79   20.00
  -4  -3   8  165.38   19.50
   3   3  -8    5.30    4.90
   3   3  -8    4.40    4.50
  -3  -3   8    0.00    3.90
  -3  -3   8   -1.20    2.30
   2   3  -8  117.49   13.80
  -2  -3   8  114.89   14.10
  -2  -3   8  120.39    8.90
   1   3  -8  615.34   26.50
   1   3  -8  636.34   27.20
  -1  -3   8  651.43   28.40
  -1  -3   8  626.34   26.10
   0   3  -8  695.83   25.50
   0   3  -8  710.93   25.60
   0   3  -8  700.93   26.60
   0  -3   8  699.63   27.10
  -1   3  -8 1436.96   40.50
  -1   3  -8 1410.66   39.80
   1  -3   8 1455.35   39.30
  -2   3  -8  503.45   24.30
   2  -3   8  475.45   22.00
   2  -3   8  470.45   21.40
   2  -3   8  429.56   23.30
  -3   3  -8 1040.40   40.10
  -3   3  -8 1022.20   38.60
   3  -3   8 1026.00   36.40
   3  -3   8 1014.10   36.40
  -4   3  -8   26.20    8.30
   4  -3   8   22.30    7.60
   4  -3   8   19.00    7.90
   4  -3   8   16.10    6.00
   4   2  -8   29.20    9.50
   4   2  -8   19.20    8.60
   4   2  -8   39.10   10.30
  -4  -2   8   20.60    8.20
   3   2  -8  264.97   23.10
   3   2  -8  279.07   22.30
  -3  -2   8  274.77   13.20
  -3  -2   8  258.17   21.20
   2   2  -8  365.06   23.70
   2   2  -8  376.96   22.70
  -2  -2   8  356.36   21.80
   1   2  -8  842.52   31.70
   1   2  -8  784.82   29.00
  -1  -2   8  801.62   31.00
  -1  -2   8  822.42   30.40
   0   2  -8  282.17   15.60
   0   2  -8  278.07   15.70
   0   2  -8  269.37   14.90
   0  -2   8  298.97   16.20
  -1   2  -8  316.27   16.10
  -1   2  -8  314.97   17.00
   1  -2   8  327.17   17.20
   1  -2   8  322.97   15.90
   2  -2   8   25.50    6.20
   2  -2   8   21.00    5.60
   2  -2   8   17.80    5.80
  -3   2  -8   21.20    6.60
  -3   2  -8   16.70    7.00
   3  -2   8   19.30    5.90
  -4   2  -8   80.09   13.20
   4  -2   8  107.39   12.70
   4  -2   8  100.59   14.50
   4   1  -8   -0.90    4.30
   4   1  -8    3.20    5.00
   4   1  -8   -2.90    6.50
  -4  -1   8   -9.50    4.90
   3   1  -8  269.57   22.40
   3   1  -8  311.57   25.40
  -3  -1   8  286.57   21.90
   2   1  -8   36.10    8.40
   2   1  -8   40.60   10.20
  -2  -1   8   41.10    7.90
  -2  -1   8   47.20    4.40
   1   1  -8 1017.40   32.20
   1   1  -8 1061.99   36.60
  -1  -1   8 1065.49   35.40
  -1  -1   8 1021.00   33.90
   0   1  -8  126.39    9.90
   0   1  -8  131.39   10.80
   0   1  -8  109.99    9.00
   0  -1   8  111.79    9.10
  -1   1  -8  888.41   28.90
   1  -1   8  917.01   29.10
   1  -1   8  935.41   26.40
  -2   1  -8  164.68   13.40
   2  -1   8  198.78   15.20
   2  -1   8  188.18   11.90
   2  -1   8  205.78   13.50
  -3   1  -8   -2.40    2.00
  -3   1  -8    3.30    4.40
   3  -1   8    1.70    2.90
   3  -1   8   -3.50    2.30
  -4   1  -8   66.09   12.80
  -4   1  -8   38.00    9.30
   4  -1   8   49.10   11.70
   4  -1   8   57.79   10.00
   4   0  -8   30.80    9.40
   4   0  -8   20.30    7.20
   4   0  -8   30.50    9.70
  -4   0   8   26.30    8.90
   3   0  -8  734.93   35.80
   3   0  -8  713.93   38.30
   2   0  -8  746.83   31.20
   2   0  -8  719.23   34.10
  -2   0   8  770.62   32.50
   1   0  -8   -1.60    1.90
   1   0  -8   -0.80    2.20
  -1   0   8    1.60    2.50
   0   0  -8 1209.88   36.00
   0   0  -8 1131.29   29.40
   0   0   8 1126.69   27.60
   0   0   8 1205.48   33.00
  -1   0  -8  512.05   21.00
   1   0   8  569.64   18.10
   1   0   8  538.25   21.60
  -2   0  -8 2855.71   63.09
   2   0   8 2908.11   66.69
   2   0   8 3026.10   61.29
   2   0   8 2889.31   55.59
  -3   0  -8    2.30    2.80
  -3   0  -8   -0.10    2.60
   3   0   8    4.40    2.60
  -4   0  -8  209.58   20.40
  -4   0  -8  234.08   19.90
   4   0   8  238.78   17.70
   4   0   8  233.98   20.80
   4  -1  -8  225.88   21.10
   4  -1  -8  254.67   24.30
   4  -1  -8  247.88   24.80
  -4   1   8  246.78   23.00
   3  -1  -8    7.00    4.20
   3  -1  -8    9.80    5.60
   3  -1  -8   18.60    7.70
   2  -1  -8 1960.80   59.59
   2  -1  -8 1961.20   53.29
  -2   1   8 2001.20   56.29
   1  -1  -8   51.99    8.20
   1  -1  -8   51.99    6.60
  -1   1   8   50.49    7.60
   0  -1  -8 2391.26   55.99
   0  -1  -8 2425.86   48.70
   0   1   8 2278.87   44.00
   0   1   8 2363.26   44.10
  -1  -1  -8  351.46   16.80
   1   1   8  331.77   16.60
   1   1   8  366.76   12.30
  -2  -1  -8  563.94   23.20
   2   1   8  543.75   25.00
   2   1   8  535.95   21.70
   2   1   8  561.54   19.00
  -3  -1  -8   83.89   11.50
  -3  -1  -8  113.19   11.50
   3   1   8  106.89   10.80
  -4  -1  -8   73.99   12.20
  -4  -1  -8   60.09   11.50
   4   1   8   84.99   11.50
   4   1   8   52.09   11.60
  -5  -1  -8   87.59   16.60
   5   1   8  136.59   15.10
   4  -2  -8   -0.30    4.70
   4  -2  -8    1.60    3.00
   4  -2  -8   10.10    7.20
  -4   2   8    9.60    5.50
   3  -2  -8    9.70    3.80
   3  -2  -8   27.40    8.90
   3  -2  -8   19.80    7.80
   2  -2  -8    2.20    3.00
   2  -2  -8    7.10    4.70
  -2   2   8    1.50    2.90
   1  -2  -8  706.43   24.00
   1  -2  -8  635.44   28.40
  -1   2   8  677.33   28.80
   0  -2  -8  114.79   10.90
   0  -2  -8  122.99    6.90
  -1  -2  -8 4025.40   73.79
  -1  -2  -8 4093.39   73.29
   1   2   8 4144.99   74.29
  -2  -2  -8    0.80    2.30
   2   2   8   -2.30    1.30
   2   2   8    3.20    2.10
  -3  -2  -8  495.15   23.20
  -3  -2  -8  444.16   26.60
   3   2   8  487.95   21.60
  -4  -2  -8    0.80    3.90
  -4  -2  -8   -3.30    3.20
   4   2   8    1.40    4.10
   4   2   8   -0.20    2.60
  -5  -2  -8   66.49   14.30
   5   2   8   86.49   11.90
   4  -3  -8  142.29   16.70
   4  -3  -8  186.78   21.00
   4  -3  -8  171.88   20.90
  -4   3   8  135.99   18.20
   3  -3  -8   60.59   11.30
   3  -3  -8   48.90   10.40
   3  -3  -8   61.29    9.90
   2  -3  -8   72.59    9.80
   2  -3  -8   78.99   11.60
  -2   3   8   82.49   10.60
   1  -3  -8  180.98   15.10
   1  -3  -8  191.28   11.90
   0  -3  -8   15.10    3.10
   0  -3  -8    9.50    4.00
  -1  -3  -8  311.07   15.20
  -1  -3  -8  313.87   15.00
   1   3   8  314.77   15.40
  -2  -3  -8   20.90    6.10
  -2  -3  -8   22.10    4.80
   2   3   8   17.90    4.60
   2   3   8    9.20    4.00
  -3  -3  -8  154.78   12.70
  -3  -3  -8  130.59   14.70
   3   3   8  149.49   11.60
  -4  -3  -8   83.69   14.00
  -4  -3  -8  143.89   14.10
  -4  -3  -8  109.09   14.40
   4   3   8  127.09   15.50
   4   3   8  136.69   12.40
  -5  -3  -8    3.20    7.30
   5   3   8   15.30    9.60
   5   3   8   18.20    7.30
   4  -4  -8   67.39   14.10
   4  -4  -8   43.70   12.10
   4  -4  -8   64.89   11.90
  -4   4   8   51.99   12.70
   3  -4  -8  779.32   39.70
   3  -4  -8  718.03   34.20
   2  -4  -8  104.19   13.10
  -2   4   8  122.49   13.60
   1  -4  -8 4079.49   87.69
   0  -4  -8  520.35   24.40
   0  -4  -8  538.35   16.60
   0   4   8  533.05   17.50
  -1  -4  -8  259.37   13.40
  -1  -4  -8  273.87   14.50
   1   4   8  249.48   13.90
  -2  -4  -8  108.89   11.20
  -2  -4  -8  116.19    9.40
   2   4   8  116.89   11.30
   2   4   8  102.19    7.20
  -3  -4  -8   52.49   13.20
  -3  -4  -8   49.90    7.40
   3   4   8   51.79    7.80
   3   4   8   59.29    7.60
  -4  -4  -8  207.18   16.60
  -4  -4  -8  143.59   16.20
   4   4   8  198.08   19.00
   4   4   8  212.58   15.40
   4  -5  -8  128.89   17.50
  -4   5   8   84.69   14.70
   3  -5  -8    6.80    4.50
   3  -5  -8    9.60    4.90
   2  -5  -8  311.17   22.00
  -2   5   8  311.97   25.10
   1  -5  -8   12.90    4.80
   0  -5  -8 3559.94   78.09
   0  -5  -8 3720.23   66.39
   0   5   8 3727.43   61.09
  -1  -5  -8  355.06   17.00
  -1  -5  -8  330.57   15.00
   1   5   8  350.16   16.50
  -2  -5  -8 2515.75   51.09
  -2  -5  -8 2481.55   60.29
   2   5   8 2521.95   60.19
  -3  -5  -8    1.80    1.70
  -3  -5  -8    3.80    3.60
   3   5   8    5.00    3.30
   3   5   8   -3.00    2.50
  -4  -5  -8  271.77   22.10
  -4  -5  -8  285.87   24.70
  -4  -5  -8  299.87   18.80
   4   5   8  267.37   21.90
   4   5   8  276.37   16.90
   4  -6  -8   13.20    7.50
   4  -6  -8    9.30    5.70
  -4   6   8   11.30    7.20
   3  -6  -8   22.00    6.70
   3  -6  -8   19.30    7.80
   2  -6  -8  236.78   19.20
   2  -6  -8  271.87   18.70
   1  -6  -8   16.80    5.50
   1  -6  -8   28.70    3.20
   0  -6  -8   22.60    4.00
   0  -6  -8   22.10    6.90
   0   6   8   24.70    4.10
  -1  -6  -8   69.09    7.70
  -1  -6  -8   52.39    5.60
   1   6   8   49.20    6.60
  -2  -6  -8   40.80    5.70
  -2  -6  -8   23.50    6.00
   2   6   8   20.00    5.30
  -3  -6  -8  273.87   20.50
  -3  -6  -8  344.17   17.00
   3   6   8  334.27   15.40
   3   6   8  320.37   17.00
  -4  -6  -8  116.89   11.60
  -4  -6  -8   92.99   14.20
  -4  -6  -8  112.49   18.20
   4   6   8  125.09   11.30
   4   6   8  116.59   15.80
   4  -7  -8   17.90    8.00
   4  -7  -8   16.30    6.30
  -4   7   8   23.90    9.60
   3  -7  -8   12.80    6.00
   3  -7  -8    4.80    3.80
   2  -7  -8  413.26   23.30
   2  -7  -8  388.06   25.00
   1  -7  -8   42.30    8.00
   1  -7  -8   47.80    4.80
   0  -7  -8  560.84   27.10
   0  -7  -8  607.74   20.50
   0   7   8  621.84   20.10
  -1  -7  -8  280.37   16.00
  -1  -7  -8  287.57   13.50
   1   7   8  331.77   16.60
  -2  -7  -8   12.40    4.50
  -2  -7  -8   13.40    3.50
   2   7   8   20.30    6.70
  -3  -7  -8   13.10    5.10
  -3  -7  -8   24.00    7.20
  -3  -7  -8   25.50    4.70
   3   7   8   15.00    4.80
  -4  -7  -8   18.70   10.10
  -4  -7  -8   16.60    7.70
  -4  -7  -8   22.00    5.80
   4   7   8   16.90    6.50
   4   7   8   18.00    4.80
   4  -8  -8    4.50    5.00
   4  -8  -8   10.70    5.30
  -4   8   8   -1.10    6.10
   3  -8  -8  196.28   18.10
   3  -8  -8  195.18   18.50
  -3   8   8  186.98   20.60
   2  -8  -8  146.59   15.90
   2  -8  -8  152.48    7.30
   1  -8  -8  794.12   34.50
   1  -8  -8  870.81   23.80
   0  -8  -8   63.99    7.20
   0  -8  -8   63.19    9.20
   0  -8  -8   63.29    6.20
  -1  -8  -8 1367.76   32.20
  -1  -8  -8 1389.86   39.80
   1   8   8 1374.06   38.20
  -2  -8  -8  298.27   12.10
  -2  -8  -8  313.97   19.70
   2   8   8  309.67   21.20
   2   8   8  304.77   12.70
  -3  -8  -8  479.25   17.70
  -3  -8  -8  462.15   28.90
  -3  -8  -8  486.55   28.40
   3   8   8  459.85   20.90
  -4  -8  -8    9.80    8.10
  -4  -8  -8    3.70    3.10
  -4  -8  -8   -1.50    4.20
   4   8   8    2.30    4.10
   4   8   8    2.50    5.60
   3  -9  -8  344.57   25.50
   3  -9  -8  337.27   23.90
  -3   9   8  336.27   24.50
   2  -9  -8  450.45   16.20
   2  -9  -8  444.76   24.70
   2  -9  -8  476.75   27.50
   1  -9  -8  316.77   14.10
   1  -9  -8  276.17   15.80
   1  -9  -8  319.97   18.30
   1  -9  -8  306.57   20.90
   0  -9  -8   44.00    8.10
   0  -9  -8   52.39    7.00
  -1  -9  -8   22.10    6.40
  -1  -9  -8   18.20    4.00
   1   9   8   15.30    4.40
  -2  -9  -8  473.65   25.20
   2   9   8  466.55   16.50
   2   9   8  418.26   23.20
  -3  -9  -8   11.40    3.00
  -3  -9  -8    5.40    4.80
  -3  -9  -8    3.30    4.20
   3   9   8    5.80    4.90
   3   9   8    3.90    3.90
  -4  -9  -8  140.09   18.10
   4   9   8  134.29   18.10
   3 -10  -8   41.70    5.80
   3 -10  -8   55.69   11.10
   3 -10  -8   39.40    5.20
   3 -10  -8   49.40   10.40
   2 -10  -8   68.79    6.70
   2 -10  -8   67.19   10.10
   2 -10  -8   76.09   10.80
   2 -10  -8   72.59   11.40
   1 -10  -8   52.79    6.70
   1 -10  -8   42.10   10.10
   1 -10  -8   48.40    7.90
   1 -10  -8   45.30    7.30
   0 -10  -8  912.81   36.60
   0 -10  -8  965.80   31.20
   0 -10  -8  981.20   28.70
   0 -10  -8  889.51   28.60
  -1 -10  -8  266.67   17.60
  -1 -10  -8  268.67   11.50
   1  10   8  245.68   16.00
  -2 -10  -8  246.48   18.70
   2  10   8  259.17   18.50
   2  10   8  260.37   12.90
  -3 -10  -8    1.30    3.70
  -3 -10  -8    3.60    3.70
   3  10   8   -4.20    3.00
   3  10   8    5.90    4.60
  -4 -10  -8    4.20    7.60
  -4 -10  -8    7.40    7.50
   4  10   8    1.00    6.00
   3 -11  -8    1.40    3.30
   3 -11  -8    6.30    5.20
   3 -11  -8   10.00    3.40
   3 -11  -8   10.70    5.50
   2 -11  -8    5.30    3.00
   2 -11  -8    0.90    3.50
   2 -11  -8    4.70    4.10
   1 -11  -8  162.88   15.30
   1 -11  -8  159.98   13.30
   1 -11  -8  161.08   12.00
   1 -11  -8  152.58   12.70
   0 -11  -8  151.38   12.40
   0 -11  -8  190.38   12.00
   0 -11  -8  158.18   15.10
   0 -11  -8  173.48   13.30
  -1 -11  -8   32.00    4.00
  -1 -11  -8   20.50    4.90
  -1 -11  -8   27.60    8.00
   1  11   8   18.90    5.80
   2  11   8  137.09   10.20
  -3 -11  -8   32.70   10.00
  -3 -11  -8   48.70   12.20
   3  11   8   38.80   10.10
  -4 -11  -8    5.10    6.10
   4  11   8   -2.20    6.60
   3 -12  -8  126.59    9.80
   3 -12  -8  115.29   16.40
   3 -12  -8   83.19   14.10
   3 -12  -8  107.59   10.50
   3 -12  -8  108.39   16.60
   2 -12  -8   31.60    8.10
   2 -12  -8   50.39    9.50
   2 -12  -8   42.60    7.10
   1 -12  -8  162.78   13.60
   1 -12  -8  168.98   12.90
   1 -12  -8  165.48   13.20
   1 -12  -8  168.08   15.10
   0 -12  -8   52.19    8.60
   0 -12  -8   29.60    7.30
   0 -12  -8   39.20    8.40
   0 -12  -8   41.50    6.10
  -1 -12  -8   20.70    5.30
  -1 -12  -8   17.90    6.50
  -2 -12  -8   20.20    7.40
   2  12   8    2.40    2.30
   2  12   8    6.50    3.80
  -3 -12  -8   86.29   13.20
  -3 -12  -8   81.69   13.80
   3  12   8   78.99   12.60
   2 -13  -8    9.60    6.20
   2 -13  -8   27.40    7.70
   2 -13  -8   42.80    7.30
   2 -13  -8   27.80    7.20
   1 -13  -8  647.64   26.80
   1 -13  -8  604.74   26.40
   1 -13  -8  638.74   29.10
   1 -13  -8  648.94   30.10
   0 -13  -8  461.65   23.80
   0 -13  -8  483.95   18.50
   0 -13  -8  459.45   25.50
   0 -13  -8  467.65   24.30
  -1 -13  -8  266.07   17.00
  -1 -13  -8  323.27   21.90
  -2 -13  -8   12.60    5.20
   2  13   8    1.40    2.50
   2  13   8    7.20    4.80
   3  13   8    5.20    6.40
   3  13   8   42.70   11.30
   2 -14  -8    5.60    4.60
   2 -14  -8    2.70    3.90
   2 -14  -8    2.10    5.70
   2 -14  -8    5.00    4.30
   1 -14  -8    7.10    3.20
   1 -14  -8   -3.70    2.80
   1 -14  -8    4.10    4.40
   0 -14  -8    2.90    3.80
   0 -14  -8   -0.20    2.40
   0 -14  -8    0.80    3.70
   0 -14  -8   -7.30    2.50
  -1 -14  -8    1.10    3.80
  -1 -14  -8    0.90    2.70
  -2 -14  -8   43.70    8.70
  -2 -14  -8   35.60    9.40
  -2 -14  -8   57.29    9.70
  -3 -14  -8  104.29   16.10
  -3 -14  -8  135.69   16.70
   2 -15  -8   -7.00    4.00
   2 -15  -8   -3.70    4.20
   2 -15  -8    1.30    4.30
   2 -15  -8   -1.60    4.40
   1 -15  -8   53.49   10.90
   1 -15  -8   77.89   10.90
   1 -15  -8   71.99   10.60
   1 -15  -8   67.99    9.80
   0 -15  -8   -0.60    2.10
   0 -15  -8    0.40    4.20
   0 -15  -8   -0.20    3.80
   0 -15  -8   -2.40    4.80
  -1 -15  -8   10.30    5.20
  -1 -15  -8   10.70    6.40
  -2 -15  -8   -8.00    4.70
  -2 -15  -8    1.90    5.00
  -2 -15  -8   -4.30    4.20
   1 -16  -8  146.49   16.70
   1 -16  -8  132.29   14.00
   1 -16  -8  134.69   14.90
   0 -16  -8   26.10    8.40
   0 -16  -8   19.10    6.40
   0 -16  -8   19.00    6.60
   0 -16  -8   14.00    3.70
  -1 -16  -8   28.00    8.50
  -1 -16  -8   16.50    7.60
   0  13  -9   19.10    5.70
   0 -13   9    8.30    6.30
   0 -13   9    8.20    6.50
  -1  13  -9    5.50    5.70
   1 -13   9   -4.80    5.60
  -1 -12   9   85.69   16.10
  -1 -12   9   86.79   13.70
   0  12  -9    5.30    5.20
   0  12  -9   13.40    7.80
   0 -12   9   10.70    6.90
  -1  12  -9   84.79   14.00
  -2  12  -9   37.00   11.00
   2 -12   9   27.20   10.40
   2  11  -9    7.00    6.90
  -2 -11   9   12.50    6.90
  -2 -11   9   19.50    8.80
  -2 -11   9    4.40    5.70
   1  11  -9   50.99   13.00
  -1 -11   9   93.99   13.50
  -1 -11   9   77.49   14.50
   0 -11   9  133.79   17.60
  -1  11  -9  330.87   22.60
   1 -11   9  298.67   25.20
  -2  11  -9   33.20    9.40
   2 -11   9   26.70    7.60
   2 -11   9   52.49   11.50
   2  10  -9  108.59   14.50
   2  10  -9   66.19   15.20
  -2 -10   9   99.79   13.90
  -2 -10   9  100.59   12.60
   1  10  -9   47.30    8.20
   1  10  -9   22.00    7.30
   1  10  -9   40.80    8.90
  -1 -10   9   29.00   10.40
  -1 -10   9   29.70    8.50
   0  10  -9  458.25   29.60
   0 -10   9  438.36   29.70
  -1  10  -9   56.49   12.70
  -1  10  -9   57.99   10.40
   1 -10   9   77.99   13.40
  -2  10  -9   21.20    6.30
   2 -10   9   47.30    9.10
   2 -10   9   20.90    8.40
   3 -10   9    7.30    6.40
   3 -10   9   -0.60    4.40
   3   9  -9   32.30   11.20
   3   9  -9    1.40    4.10
  -3  -9   9    7.80    7.70
   2   9  -9   91.39   14.50
   2   9  -9   83.89   14.90
  -2  -9   9  103.89   12.50
  -2  -9   9   86.19   11.40
  -2  -9   9   66.99   15.70
   1   9  -9  175.68   18.50
   1   9  -9  191.78   14.90
   1   9  -9  186.38   15.00
  -1  -9   9  178.78   20.00
  -1  -9   9  209.58   18.00
   0   9  -9    0.60    3.10
   0   9  -9    2.90    2.90
   0   9  -9   -2.10    2.30
   0  -9   9    1.00    4.00
  -1   9  -9   18.70    7.50
   1  -9   9   11.40    5.60
  -2   9  -9   11.40    6.10
   2  -9   9   11.90    6.90
   2  -9   9    3.80    4.70
  -3   9  -9   55.59   13.40
   3  -9   9   87.59   17.70
   3  -9   9   83.19   14.40
   3   8  -9    1.40    5.60
  -3  -8   9   -3.00    4.90
  -3  -8   9   -4.30    4.90
   2   8  -9  215.78   21.40
   2   8  -9  230.48   16.00
  -2  -8   9  223.48   23.20
  -2  -8   9  215.98   17.20
  -2  -8   9  215.38   19.40
   1   8  -9    7.70    4.90
   1   8  -9    6.70    4.50
   1   8  -9    7.00    4.50
  -1  -8   9   10.20    5.60
  -1  -8   9   -0.30    3.50
   0   8  -9  183.08   16.90
   0   8  -9  191.78   15.10
   0   8  -9  190.68   12.60
   0  -8   9  187.48   18.10
  -1   8  -9  450.05   25.00
  -1   8  -9  494.45   30.30
  -1   8  -9  475.65   17.50
   1  -8   9  475.95   28.00
  -2   8  -9   54.69    6.10
  -2   8  -9   65.29   12.30
   2  -8   9   64.79    9.50
   2  -8   9   53.69   11.30
  -3   8  -9   27.60    8.60
   3  -8   9   79.29   14.40
   3  -8   9   43.90    9.40
   3  -8   9   30.90    9.80
   3   7  -9  400.66   28.90
   3   7  -9  447.36   31.00
  -3  -7   9  401.16   27.10
   2   7  -9   68.19   14.80
  -2  -7   9   67.49   10.60
  -2  -7   9   67.29   13.60
  -2  -7   9   61.69    9.90
   1   7  -9  710.43   27.70
   1   7  -9  694.93   34.10
   1   7  -9  704.93   29.90
  -1  -7   9  680.33   36.40
  -1  -7   9  694.23   29.70
   0   7  -9   42.50    6.50
   0   7  -9   40.80    9.10
   0   7  -9   43.10    8.30
   0  -7   9   54.89   10.30
  -1   7  -9  795.92   37.30
  -1   7  -9  762.42   31.70
  -1   7  -9  764.92   24.40
   1  -7   9  813.82   35.20
  -2   7  -9    4.90    3.10
   2  -7   9   -1.20    3.70
   2  -7   9    3.50    3.70
  -3   7  -9  321.87   36.60
   3  -7   9  248.78   20.60
   3  -7   9  256.47   19.20
  -4   7  -9   -7.60    5.10
   4  -7   9   23.40    7.70
   3   6  -9   87.99   13.70
   3   6  -9   81.49   17.00
  -3  -6   9  109.09   11.50
  -3  -6   9   99.09   13.70
   2   6  -9  185.78   17.70
   2   6  -9  161.68   18.40
  -2  -6   9  165.68   15.30
  -2  -6   9  166.58   19.50
  -2  -6   9  176.98   14.50
   1   6  -9   43.60    7.90
   1   6  -9   29.20    8.10
  -1  -6   9   46.40    9.60
  -1  -6   9   47.20    7.80
   0   6  -9  371.16   22.40
   0   6  -9  405.36   23.00
   0   6  -9  389.36   18.60
   0  -6   9  403.06   24.30
  -1   6  -9  257.87   20.00
  -1   6  -9  277.27   14.40
  -1   6  -9  263.97   17.90
   1  -6   9  256.47   19.00
   2  -6   9  524.85   27.50
   2  -6   9  542.55   26.50
  -3   6  -9  108.89   11.70
  -3   6  -9  117.89   15.70
   3  -6   9  102.69   14.90
   3  -6   9  109.89   13.20
   3  -6   9  127.19   14.10
   4  -6   9  116.39   15.60
   4  -6   9  105.99   14.40
   3   5  -9   15.80    8.40
   3   5  -9   19.60    8.10
  -3  -5   9   31.30    7.40
  -3  -5   9   18.40    7.30
   2   5  -9   28.70    8.60
   2   5  -9   25.30    7.80
  -2  -5   9   14.80    6.90
  -2  -5   9   48.00    8.00
  -2  -5   9   36.20    6.40
   1   5  -9  128.99   11.50
   1   5  -9  140.79   13.30
  -1  -5   9  146.29   12.60
  -1  -5   9  118.59   14.10
   0   5  -9   15.10    5.30
   0   5  -9   11.00    4.50
   0   5  -9    9.40    4.20
   0  -5   9    9.00    4.80
  -1   5  -9   59.59    9.90
  -1   5  -9   71.69    7.70
   1  -5   9   76.09   10.00
   2  -5   9   -0.40    2.80
   2  -5   9   -1.50    2.40
  -3   5  -9   46.70    8.70
   3  -5   9   58.39    9.60
   3  -5   9   63.09   10.60
  -4   5  -9   16.20    7.40
   4  -5   9    0.80    4.70
   4  -5   9   -6.50    6.40
   4   4  -9  128.29   20.00
   4   4  -9  131.79   17.70
   3   4  -9   22.50    8.20
   3   4  -9   19.70    8.00
  -3  -4   9   22.80    5.70
  -3  -4   9   31.90    9.40
   2   4  -9 1179.18   44.20
   2   4  -9 1151.68   45.10
  -2  -4   9 1195.48   33.90
  -2  -4   9 1106.49   41.40
   1   4  -9   51.39    8.70
   1   4  -9   40.40    7.90
  -1  -4   9   46.80    7.70
  -1  -4   9   48.10    9.00
   0   4  -9  235.58   16.30
   0   4  -9  227.58   14.70
   0   4  -9  232.78   15.00
   0  -4   9  259.87   18.10
  -1   4  -9  195.78   15.00
  -1   4  -9  205.68   13.30
  -1   4  -9  176.98   15.00
   1  -4   9  175.68   13.90
   2  -4   9  319.77   25.40
   2  -4   9  289.77   18.30
   2  -4   9  277.47   19.50
  -3   4  -9   17.10    7.30
  -3   4  -9   12.50    5.80
   3  -4   9   21.40    6.90
  -4   4  -9    1.50    5.90
   4  -4   9    3.50    8.00
   4  -4   9   -0.10    3.80
   4  -4   9    6.90    4.40
   4   3  -9   61.99   13.10
   4   3  -9   60.69   15.40
   3   3  -9  193.88   20.40
   3   3  -9  213.08   20.00
  -3  -3   9  200.58   18.70
  -3  -3   9  167.38   11.10
   2   3  -9  470.15   27.70
   2   3  -9  444.86   25.90
  -2  -3   9  449.06   25.40
  -2  -3   9  448.86   17.90
   1   3  -9 1466.15   44.00
   1   3  -9 1540.35   46.70
  -1  -3   9 1478.35   44.50
  -1  -3   9 1473.35   46.90
   0   3  -9   31.30    6.60
   0   3  -9   28.70    6.00
   0   3  -9   31.90    6.50
   0  -3   9   33.50    7.60
  -1   3  -9 2130.59   53.79
  -1   3  -9 2263.17   54.89
   1  -3   9 2243.28   52.69
  -2   3  -9  101.39   11.60
   2  -3   9  116.09   14.10
   2  -3   9  112.69   10.50
   2  -3   9  116.59   11.70
  -3   3  -9  623.04   31.70
  -3   3  -9  642.84   35.20
   3  -3   9  605.54   27.40
   3  -3   9  682.13   29.80
  -4   3  -9   14.90    7.30
  -4   3  -9    2.40    7.60
   4  -3   9    8.50    5.70
   4  -3   9   20.80    6.30
   4  -3   9   33.20    9.50
   4   2  -9   42.90   12.30
   4   2  -9   26.10    8.70
   3   2  -9  367.76   25.70
   3   2  -9  395.16   29.30
  -3  -2   9  362.56   25.50
   2   2  -9   18.70    6.60
   2   2  -9   16.50    7.40
  -2  -2   9   21.40    7.10
   1   2  -9 1184.98   40.30
   1   2  -9 1103.39   36.40
  -1  -2   9 1136.19   38.80
  -1  -2   9 1132.59   38.50
   0   2  -9   28.30    5.90
   0   2  -9   20.90    5.60
   0   2  -9   23.90    6.10
   0  -2   9   27.90    6.10
  -1   2  -9  760.92   28.20
  -1   2  -9  720.53   26.20
   1  -2   9  734.13   25.70
   1  -2   9  688.93   26.70
  -2   2  -9  676.23   41.60
   2  -2   9  511.75   21.80
   2  -2   9  539.75   26.20
   2  -2   9  474.15   22.90
  -3   2  -9  142.19   14.90
  -3   2  -9  140.59   16.60
   3  -2   9  146.39   13.30
   3  -2   9  139.09   12.50
  -4   2  -9  105.69   15.00
  -4   2  -9  103.89   15.10
   4  -2   9  131.59   14.30
   4  -2   9  102.59   13.30
   4  -2   9   97.29   19.30
   4   1  -9   42.60   12.30
   4   1  -9   61.09   12.70
   4   1  -9   40.20   13.70
   3   1  -9  183.08   20.00
   3   1  -9  260.37   21.00
  -3  -1   9  190.38   18.60
   2   1  -9    0.10    2.80
   2   1  -9    0.20    3.20
  -2  -1   9    1.40    3.10
  -2  -1   9    2.70    1.20
   1   1  -9   97.79   10.00
   1   1  -9  102.19   11.60
  -1  -1   9   96.19   10.80
   0   1  -9  496.15   23.10
   0   1  -9  498.85   21.20
   0   1  -9  486.85   20.10
   0  -1   9  479.95   18.30
   0  -1   9  506.75   20.40
  -1   1  -9   29.90    5.90
   1  -1   9   24.80    6.50
   1  -1   9   27.50    5.40
  -2   1  -9  662.43   28.20
   2  -1   9  680.93   26.60
   2  -1   9  656.53   29.10
   2  -1   9  657.83   23.40
  -3   1  -9   48.00    8.20
  -3   1  -9   51.19   10.00
   3  -1   9   34.90    7.60
   3  -1   9   46.30    8.10
  -4   1  -9   25.40    7.80
  -4   1  -9   22.00    7.80
   4  -1   9   18.60    6.50
   4  -1   9   18.90    6.40
   4   0  -9   74.69   16.80
   4   0  -9   40.40   13.30
   4   0  -9   68.39   12.50
   3   0  -9  102.09   15.50
   3   0  -9   95.69   13.80
  -3   0   9   84.69   12.20
   2   0  -9  338.87   24.10
   2   0  -9  334.27   20.90
  -2   0   9  338.07   22.10
   1   0  -9  134.99   11.20
   1   0  -9  118.89   12.70
  -1   0   9  144.59    6.80
   0   0  -9 2820.42   55.29
   0   0  -9 2814.82   63.69
   0   0   9 2793.32   54.89
   0   0   9 2796.62   52.69
  -1   0  -9   13.50    4.30
   1   0   9   14.00    4.00
   1   0   9   11.40    4.30
  -2   0  -9  373.66   20.40
   2   0   9  400.16   16.60
   2   0   9  427.76   20.10
   2   0   9  390.36   21.80
  -3   0  -9   45.80    8.60
  -3   0  -9   50.69    9.50
   3   0   9   54.89    8.50
   3   0   9   51.99    8.40
  -4   0  -9  142.09   16.40
  -4   0  -9  147.39   18.10
   4   0   9  125.99   15.80
   4   0   9  148.09   14.40
   4  -1  -9  343.57   36.60
   4  -1  -9  247.68   25.50
   4  -1  -9  283.17   23.50
  -4   1   9  320.87   28.90
   3  -1  -9   76.69   14.40
   3  -1  -9   86.69   12.80
   2  -1  -9  943.11   41.00
   2  -1  -9  984.60   36.50
  -2   1   9  961.10   38.40
   1  -1  -9  103.39    9.50
   1  -1  -9   91.69   11.80
   0  -1  -9 2685.13   63.19
   0  -1  -9 2805.72   51.79
   0   1   9 2755.32   50.89
   0   1   9 2744.73   51.29
  -1  -1  -9  658.43   25.20
   1   1   9  692.63   18.80
   1   1   9  685.13   25.10
  -2  -1  -9  148.29   12.30
   2   1   9  141.79    9.00
   2   1   9  154.18   12.10
   2   1   9  135.19   12.70
  -3  -1  -9  517.65   25.60
   3   1   9  530.15   23.60
  -4  -1  -9   33.40   10.00
  -4  -1  -9   26.60    8.00
   4   1   9   19.00    8.60
   4   1   9   30.10    7.00
   4  -2  -9    0.00    6.90
   4  -2  -9   -0.70    3.30
  -4   2   9   10.40    6.20
   3  -2  -9  220.58   19.00
   3  -2  -9  210.58   18.90
   3  -2  -9  217.78   20.90
   2  -2  -9    2.80    2.30
   2  -2  -9    5.90    4.30
  -2   2   9    7.90    4.90
   1  -2  -9 1924.91   55.49
   1  -2  -9 2019.40   45.90
   0  -2  -9   27.60    3.90
   0  -2  -9   30.40    6.20
   0   2   9   16.90    3.40
  -1  -2  -9 1725.53   43.30
   1   2   9 1778.52   42.80
  -2  -2  -9   11.40    4.20
  -2  -2  -9    4.60    2.90
   2   2   9    9.30    2.80
   2   2   9   11.80    4.00
   2   2   9   11.30    4.50
   3   2   9  916.61   31.30
  -4  -2  -9   16.80    7.40
  -4  -2  -9   26.00    7.30
   4   2   9   24.10    7.10
   4   2   9   29.80    9.80
   4  -3  -9    1.80    7.40
   4  -3  -9    7.80    7.30
  -4   3   9   -1.10    5.00
   3  -3  -9    9.00    4.40
   3  -3  -9    5.20    4.60
   3  -3  -9    7.00    6.10
  -3   3   9   14.60    7.00
   2  -3  -9  152.48   14.10
   2  -3  -9  130.49   15.20
  -2   3   9  164.48   15.60
   1  -3  -9   36.90    8.10
   1  -3  -9   44.90    6.70
   0  -3  -9   82.09    9.80
   0   3   9   79.19    6.10
  -1  -3  -9  338.97   16.80
  -1  -3  -9  347.17   16.30
   1   3   9  337.87   16.60
  -2  -3  -9  574.34   25.40
  -2  -3  -9  572.94   23.30
   2   3   9  572.24   16.10
   2   3   9  543.05   25.30
  -3  -3  -9   -0.20    2.90
  -3  -3  -9    4.80    3.30
   3   3   9   -2.70    3.50
   3   3   9   10.60    4.00
  -4  -3  -9   68.79   11.40
  -4  -3  -9   65.69   11.50
  -4  -3  -9   81.49   13.80
   4   3   9   95.89   11.60
   4   3   9   74.59   13.00
   4  -4  -9   46.90   12.20
   4  -4  -9   47.60   12.00
  -4   4   9   42.00   13.90
   3  -4  -9  508.25   29.10
   3  -4  -9  474.85   28.70
   3  -4  -9  443.46   30.90
  -3   4   9  448.16   28.50
   2  -4  -9    7.40    4.80
   2  -4  -9    0.20    2.80
  -2   4   9   -0.30    2.40
   1  -4  -9  173.78   12.00
   1  -4  -9  157.18   15.40
   0  -4  -9   52.49    5.20
   0  -4  -9   48.90    8.10
   0   4   9   45.60    4.90
  -1  -4  -9  472.25   19.70
  -1  -4  -9  470.45   19.70
   1   4   9  510.05   20.70
  -2  -4  -9   66.79    8.80
  -2  -4  -9   87.29    8.70
   2   4   9   91.69   10.90
  -3  -4  -9    3.70    2.50
  -3  -4  -9   -0.60    3.50
   3   4   9    0.90    2.40
   3   4   9   -2.60    3.20
   3   4   9   -5.50    2.10
  -4  -4  -9   26.60    8.10
  -4  -4  -9   43.50    9.60
  -4  -4  -9   22.60    7.10
   4   4   9   42.50    8.50
   4   4   9   44.00   11.80
   4   4   9   28.00    7.70
   4  -5  -9   82.49   20.90
   4  -5  -9   78.59   13.60
   4  -5  -9   93.19   17.90
  -4   5   9   80.99   17.90
   3  -5  -9   56.49   10.60
   3  -5  -9   47.30    9.70
  -3   5   9   58.49   11.20
   2  -5  -9 1187.18   46.90
  -2   5   9 1111.19   43.20
   1  -5  -9 1527.65   50.49
   0  -5  -9 2493.85   63.29
   0   5   9 2476.25   45.80
  -1  -5  -9    8.90    3.50
  -1  -5  -9   16.00    4.30
   1   5   9   14.70    4.10
  -2  -5  -9 1455.85   44.10
  -2  -5  -9 1428.46   37.20
   2   5   9 1469.45   44.20
  -3  -5  -9   80.69    9.10
  -3  -5  -9   67.99   10.30
   3   5   9   63.89    8.10
   3   5   9   68.19    8.30
  -4  -5  -9   26.70    7.30
  -4  -5  -9   25.80    8.30
   4   5   9   30.40    7.00
   4  -6  -9   88.39   14.90
   4  -6  -9  136.19   16.40
   3  -6  -9   49.10    8.70
   3  -6  -9   40.80   10.30
  -3   6   9   49.99   12.30
   2  -6  -9  220.78   20.00
  -2   6   9  233.78   19.40
   1  -6  -9  360.06   23.40
   0  -6  -9  507.65   26.20
   0  -6  -9  488.15   17.40
   0   6   9  509.95   17.10
  -1  -6  -9 1160.28   34.30
  -1  -6  -9 1124.99   31.60
   1   6   9 1157.18   33.40
  -2  -6  -9   66.99    7.60
  -2  -6  -9   57.59    8.20
   2   6   9   60.89    9.10
  -3  -6  -9  343.37   17.70
  -3  -6  -9  319.27   22.50
   3   6   9  346.57   17.00
  -4  -6  -9    3.80    4.50
  -4  -6  -9    3.50    5.30
  -4  -6  -9   -8.70    3.40
   4   6   9    1.20    3.70
   4   6   9   -7.70    4.40
   4   6   9    2.70    6.00
   4  -7  -9   18.30    9.60
   4  -7  -9   10.90    7.20
   3  -7  -9    2.90    3.70
   3  -7  -9   -3.50    3.90
  -3   7   9    5.00    4.90
   2  -7  -9  116.89   12.70
   1  -7  -9  146.99   14.40
   1  -7  -9  162.48    7.60
   0  -7  -9    0.70    1.70
   0  -7  -9    2.60    2.50
   0   7   9   -2.30    1.00
  -1  -7  -9  458.95   20.90
  -1  -7  -9  436.66   18.40
   1   7   9  485.45   20.80
  -2  -7  -9   29.90    7.50
  -2  -7  -9   33.30    5.40
  -3  -7  -9    2.50    4.70
  -3  -7  -9   11.70    4.20
   3   7   9   -0.40    2.60
  -4  -7  -9   36.60   12.30
  -4  -7  -9   39.70    8.30
  -4  -7  -9   49.40   10.10
   4   7   9   46.10   12.60
   4   7   9   46.50    7.60
   3  -8  -9  291.17   24.50
   3  -8  -9  275.77   21.70
  -3   8   9  259.67   22.20
   2  -8  -9  130.69   18.70
   2  -8  -9  145.09   14.10
   1  -8  -9  332.87   22.80
   1  -8  -9  349.27   16.90
   0  -8  -9  125.29   13.50
   0  -8  -9  128.89    9.80
   0   8   9  123.29    9.20
  -1  -8  -9  716.73   27.50
  -1  -8  -9  670.13   22.70
   1   8   9  693.33   26.10
  -2  -8  -9   15.30    5.70
  -2  -8  -9   32.60    4.90
   2   8   9   30.10    8.10
  -3  -8  -9   74.29   11.80
  -3  -8  -9   76.89    7.70
  -3  -8  -9   61.39   11.60
   3   8   9   69.59   10.70
  -4  -8  -9    5.10    6.40
  -4  -8  -9    9.50    3.60
  -4  -8  -9  -10.40    5.40
   4   8   9   19.60    8.10
   3  -9  -9   75.89   13.50
   3  -9  -9   52.79   11.10
   2  -9  -9   56.99    9.50
   2  -9  -9   64.89   11.50
   1  -9  -9  250.97   14.80
   1  -9  -9  228.68   16.20
   1  -9  -9  226.18   11.70
   1  -9  -9  227.88   19.30
   0  -9  -9  988.80   39.10
   0  -9  -9  972.10   30.20
   0  -9  -9  942.31   25.70
  -1  -9  -9   75.09    9.30
  -1  -9  -9   73.19    7.80
   1   9   9   64.59    8.40
  -2  -9  -9  270.37   11.90
   2   9   9  264.37   18.50
  -3  -9  -9   -3.90    2.70
  -3  -9  -9   -3.30    3.70
  -3  -9  -9    1.70    2.00
   3   9   9   -5.10    2.50
   3   9   9   -1.50    2.50
  -4  -9  -9  116.49   15.50
  -4  -9  -9  146.79   10.90
  -4  -9  -9   90.49   16.10
   3 -10  -9   34.50    9.20
   3 -10  -9   79.49   14.50
   2 -10  -9  201.48   10.10
   2 -10  -9  207.18   17.10
   2 -10  -9  188.28   18.30
   1 -10  -9   80.39    7.60
   1 -10  -9   72.19   11.50
   1 -10  -9   83.39    9.20
   1 -10  -9   81.49   10.10
   0 -10  -9  823.52   25.70
   0 -10  -9  843.62   29.20
   0 -10  -9  806.92   35.60
  -1 -10  -9  193.88   15.20
  -1 -10  -9  195.68   11.30
   1  10   9  194.98   14.40
  -2 -10  -9  160.58   15.20
  -2 -10  -9  138.59    8.10
   2  10   9  108.19   13.20
  -3 -10  -9  127.79   15.60
  -3 -10  -9  130.59   16.10
   3  10   9  120.89   14.50
  -4 -10  -9    1.20    4.90
   4  10   9    0.60    5.80
   3 -11  -9    5.70    4.70
   3 -11  -9    2.70    5.00
   2 -11  -9    6.60    4.70
   2 -11  -9    9.60    5.50
   2 -11  -9    3.50    3.00
   1 -11  -9   -2.10    2.30
   1 -11  -9   -0.10    3.00
   1 -11  -9   16.40    4.90
   1 -11  -9    0.40    2.70
   0 -11  -9  224.08   18.80
   0 -11  -9  211.78   13.50
   0 -11  -9  217.48   13.50
   0 -11  -9  205.68   14.60
  -1 -11  -9   23.40    4.30
  -1 -11  -9   39.10    9.70
   1  11   9   25.20    6.90
  -2 -11  -9   -4.50    3.40
  -3 -11  -9  121.49   16.40
  -3 -11  -9  136.89   16.20
   3 -12  -9   11.20    6.60
   3 -12  -9   12.40    4.30
   3 -12  -9   12.00    3.70
   3 -12  -9   14.60    6.80
   3 -12  -9   26.70    8.60
   2 -12  -9   30.10    7.40
   2 -12  -9   34.50    9.20
   2 -12  -9   19.20    7.00
   2 -12  -9   34.10    6.00
   1 -12  -9   41.40    7.20
   1 -12  -9   53.19    8.70
   1 -12  -9   69.29    9.10
   1 -12  -9   60.69   10.30
   0 -12  -9   -2.00    2.60
   0 -12  -9    1.70    2.60
   0 -12  -9    2.50    2.80
   0 -12  -9    2.80    3.60
  -1 -12  -9   20.60    4.20
  -1 -12  -9   37.10    5.40
  -1 -12  -9   20.90    7.20
  -2 -12  -9    8.40    6.20
   2  12   9    0.00    3.00
  -3 -12  -9   66.39   14.00
   3  12   9   61.29   11.90
   2 -13  -9  166.78   17.30
   2 -13  -9  171.78   16.20
   2 -13  -9  170.18   12.80
   2 -13  -9  192.78   17.10
   1 -13  -9  145.19   13.30
   1 -13  -9  147.19   16.70
   1 -13  -9  134.89   11.90
   1 -13  -9  134.29   13.00
   0 -13  -9   87.39    8.50
   0 -13  -9   95.59   10.80
   0 -13  -9   87.49   12.40
   0 -13  -9   93.19   11.40
  -1 -13  -9   78.59   11.60
  -1 -13  -9   92.59    9.40
  -2 -13  -9   65.49   10.80
   2  13   9   63.39   11.20
  -3 -13  -9   16.60    8.10
  -3 -13  -9    4.20    7.20
   3  13   9    2.50    3.50
   2 -14  -9   78.09   12.80
   2 -14  -9  114.19   14.70
   2 -14  -9   84.29   10.10
   2 -14  -9   96.69   12.30
   1 -14  -9   10.00    5.60
   1 -14  -9    1.10    3.70
   1 -14  -9   12.80    5.60
   1 -14  -9    4.70    3.60
   0 -14  -9   74.69   10.80
   0 -14  -9   97.49   12.10
   0 -14  -9  101.99    9.30
   0 -14  -9   99.79   14.50
  -1 -14  -9   34.80    9.00
  -1 -14  -9   44.00    8.30
   1 -15  -9    0.20    3.90
   1 -15  -9   -0.10    4.20
   1 -15  -9   -7.00    2.90
   1 -15  -9   -3.00    4.10
   0 -15  -9   25.50    7.30
   0 -15  -9   23.10    6.80
   0 -15  -9   33.80    8.40
   0 -15  -9   33.40    6.50
  -1 -15  -9   25.70    6.80
  -1 -15  -9   23.90    6.30
  -2 -15  -9    0.50    5.30
   1 -16  -9   26.90    8.80
   1 -16  -9   21.00    8.00
   1 -16  -9   34.40    8.70
   0 -16  -9   21.90    8.30
   0 -16  -9   37.10    6.60
   0 -16  -9   31.20    8.10
   0 -16  -9   46.20    9.50
  -1 -16  -9   -9.80    5.40
  -1 -16  -9    3.30    4.80
   0  12 -10  126.59   15.30
   0 -12  10  102.59   17.60
  -1  12 -10   -1.40    6.00
   1 -12  10    3.00    6.70
   1  11 -10  237.88   18.00
   1  11 -10  251.47   24.90
  -1 -11  10  242.38   21.30
   0  11 -10   31.70    7.90
   0  11 -10   10.60    8.70
   0 -11  10   20.20    8.70
  -1  11 -10   52.69   14.40
  -1  11 -10   79.19   13.50
   1 -11  10   48.60   12.30
  -2  11 -10  162.98   19.40
   2 -11  10  132.79   18.90
   2  10 -10  272.17   19.70
   2  10 -10  324.27   24.10
  -2 -10  10  284.87   23.10
  -2 -10  10  255.77   20.20
  -2 -10  10  293.27   30.20
   1  10 -10   23.80    8.60
   1  10 -10   37.80    8.80
   1  10 -10   38.00    9.40
  -1 -10  10   28.40    9.10
  -1 -10  10   25.10    9.70
   0  10 -10   48.50   12.80
   0  10 -10   56.59   11.30
   0 -10  10   79.59   13.90
  -1  10 -10    6.10    5.20
  -1  10 -10   -8.50    4.10
   1 -10  10    3.10    5.60
  -2  10 -10  101.29   17.10
   2 -10  10  118.59   13.80
   2 -10  10  114.79   17.50
   2   9 -10   45.80   11.20
   2   9 -10   37.40    8.90
   2   9 -10   32.10    8.00
  -2  -9  10   21.60    9.10
  -2  -9  10   31.60    9.30
  -2  -9  10   39.30    8.30
   1   9 -10  146.89   14.10
   1   9 -10  149.29   18.10
  -1  -9  10  137.29   18.90
  -1  -9  10  124.19   14.80
   0   9 -10   -0.30    4.10
   0   9 -10   -1.90    2.50
   0  -9  10    2.60    4.40
  -1   9 -10  380.56   23.90
  -1   9 -10  363.36   27.80
   1  -9  10  355.76   25.80
  -2   9 -10   91.09   17.00
   2  -9  10   89.39   12.20
   2  -9  10   76.99   13.60
   3  -9  10   22.40    8.70
   3  -9  10   24.70   10.40
   2   8 -10   69.09   12.60
   2   8 -10   62.09   17.20
  -2  -8  10   89.09   11.50
  -2  -8  10   58.09    9.70
  -2  -8  10   56.19   14.40
   1   8 -10  141.09   13.30
   1   8 -10  117.69   15.00
  -1  -8  10  133.19   14.00
  -1  -8  10  111.69   16.40
   0   8 -10   13.70    4.40
   0   8 -10   12.80    5.00
   0   8 -10    2.20    3.70
   0  -8  10   20.80    7.00
  -1   8 -10   37.90    6.00
  -1   8 -10   42.90   11.40
   1  -8  10   49.40   11.00
  -2   8 -10  103.59   15.10
   2  -8  10   67.69   12.00
   2  -8  10   84.69   11.90
  -3   8 -10   23.60    9.10
   3  -8  10   19.30    8.40
   3  -8  10   20.50    7.00
   3   7 -10  136.09   18.50
  -3  -7  10  144.39   21.00
   2   7 -10   34.60    9.60
   2   7 -10   36.60   10.50
  -2  -7  10   17.30    7.80
  -2  -7  10   24.00    7.40
  -2  -7  10   31.90    8.20
   1   7 -10  856.41   32.10
   1   7 -10  936.91   40.50
   1   7 -10  894.81   35.30
  -1  -7  10  859.71   41.60
  -1  -7  10  901.11   34.80
   0   7 -10   61.19   10.30
   0   7 -10   65.09    8.20
   0   7 -10   56.19    9.50
   0  -7  10   73.69   12.20
  -1   7 -10  183.18   12.10
  -1   7 -10  142.09   16.60
   1  -7  10  187.68   17.60
  -2   7 -10    7.60    5.30
   2  -7  10   10.00    4.90
   2  -7  10   20.00    6.20
  -3   7 -10   16.80    8.30
  -3   7 -10   -0.80    3.70
   3  -7  10    8.80    4.30
   3  -7  10   25.10    9.60
   3  -7  10   24.90    7.90
   3   6 -10   16.10    7.20
   3   6 -10    6.70    7.00
  -3  -6  10   16.00    7.50
   2   6 -10  282.47   23.30
   2   6 -10  317.07   23.10
  -2  -6  10  309.07   21.40
  -2  -6  10  283.17   25.00
  -2  -6  10  280.97   18.30
   1   6 -10  145.59   14.20
   1   6 -10  126.19   14.50
   1   6 -10  154.78   13.70
  -1  -6  10  137.39   13.00
  -1  -6  10  122.09   15.20
   0   6 -10 1298.37   38.70
   0   6 -10 1319.87   41.30
   0   6 -10 1284.27   44.60
   0  -6  10 1398.76   48.40
  -1   6 -10  202.48   16.60
  -1   6 -10  176.48   17.40
  -1   6 -10  203.88   13.40
   1  -6  10  209.58   17.20
  -2   6 -10  659.23   32.90
   2  -6  10  628.64   29.30
   2  -6  10  644.54   35.70
   3  -6  10   17.50    5.70
   3  -6  10   48.60    9.70
   4  -6  10   86.69   13.90
   4  -6  10   87.59   15.20
   3   5 -10   93.19   15.10
   3   5 -10  101.79   17.70
  -3  -5  10   91.89   13.70
  -3  -5  10   92.49   10.20
   2   5 -10   17.30    6.80
   2   5 -10   19.10    7.20
  -2  -5  10   23.30    7.10
  -2  -5  10   28.00    6.80
   1   5 -10    2.80    3.70
   1   5 -10   11.00    4.90
   1   5 -10   -0.10    3.70
  -1  -5  10    5.60    4.50
   0   5 -10  356.76   20.10
   0   5 -10  322.27   20.30
   0   5 -10  342.77   18.90
   0  -5  10  341.97   22.20
  -1   5 -10   63.09    7.90
  -1   5 -10   55.49    9.20
  -1   5 -10   54.29   10.10
   1  -5  10   53.89    9.10
   2  -5  10   10.50    4.60
   2  -5  10    0.00    3.90
  -3   5 -10  303.47   23.90
  -3   5 -10  278.37   22.20
   3  -5  10  292.37   20.60
   3  -5  10  301.17   24.20
   3  -5  10  308.27   21.40
  -4   5 -10   34.00    9.30
   4  -5  10   50.19   11.00
   4  -5  10   33.60    9.30
   3   4 -10   40.40   12.20
   3   4 -10   30.60   11.50
  -3  -4  10   39.00   10.50
   2   4 -10  417.26   27.30
   2   4 -10  415.36   26.20
  -2  -4  10  403.36   24.60
  -2  -4  10  440.06   19.50
   1   4 -10  371.16   22.20
   1   4 -10  365.56   24.90
  -1  -4  10  327.47   22.70
   0   4 -10   35.50    6.40
   0   4 -10   29.60    6.10
   0  -4  10   27.20    7.10
  -1   4 -10  112.89   12.30
  -1   4 -10  109.29   10.30
  -1   4 -10   93.79   11.20
   1  -4  10  110.99   11.80
   2  -4  10    7.30    3.90
   2  -4  10    4.00    3.60
   2  -4  10    8.80    4.20
  -3   4 -10   28.30    8.10
  -3   4 -10   17.60    6.50
   3  -4  10   21.30    7.70
   3  -4  10   21.10    6.40
   3  -4  10   23.40    7.10
  -4   4 -10    0.20    6.70
  -4   4 -10   -3.50    5.70
   4  -4  10   -1.20    7.70
   4  -4  10   -9.40    3.80
   3   3 -10  353.36   26.30
   3   3 -10  324.27   27.60
  -3  -3  10  322.17   24.80
   2   3 -10    9.70    4.70
   2   3 -10   14.00    6.40
  -2  -3  10   23.40    4.30
  -2  -3  10   10.80    5.30
   1   3 -10  708.33   30.20
   1   3 -10  697.33   31.50
  -1  -3  10  722.33   32.70
   0   3 -10  160.38   13.00
   0   3 -10  161.88   13.40
   0   3 -10  170.08   13.60
   0  -3  10  169.38   13.90
  -1   3 -10 3414.96   75.79
  -1   3 -10 3814.22   76.19
   1  -3  10 3665.33   77.49
   1  -3  10 3712.03   74.99
   2  -3  10  266.57   18.40
   2  -3  10  251.47   16.40
   2  -3  10  269.37   19.40
  -3   3 -10  194.58   16.80
  -3   3 -10  173.98   17.40
   3  -3  10  171.18   14.80
   3  -3  10  175.78   15.50
  -4   3 -10    4.30    5.30
  -4   3 -10   -1.40    6.60
   4  -3  10    8.60    5.60
   4  -3  10    7.20    3.90
   4  -3  10   -1.50    5.70
   4   2 -10   -6.70    5.50
   3   2 -10  540.95   32.40
   3   2 -10  467.65   32.90
  -3  -2  10  502.95   30.90
   2   2 -10   -4.60    3.20
   2   2 -10   -2.70    3.00
  -2  -2  10   -3.80    3.60
   1   2 -10  447.26   22.80
   1   2 -10  478.65   25.90
  -1  -2  10  487.75   25.40
   0   2 -10  420.06   20.20
   0   2 -10  416.76   21.80
   0   2 -10  432.36   21.20
   0  -2  10  406.96   20.30
  -1   2 -10  209.58   14.20
  -1   2 -10  207.28   15.20
   1  -2  10  222.48   14.30
   1  -2  10  220.38   15.10
  -2   2 -10  356.76   22.00
   2  -2  10  342.67   21.50
   2  -2  10  354.36   19.90
   2  -2  10  353.66   18.50
  -3   2 -10  134.89   15.30
  -3   2 -10  136.99   15.50
   3  -2  10  156.78   13.70
   3  -2  10  161.28   14.40
  -4   2 -10  296.97   26.30
  -4   2 -10  287.97   23.80
   4  -2  10  311.77   20.90
   4  -2  10  282.47   24.50
   4  -2  10  258.57   20.70
   4   1 -10   13.10    5.70
   4   1 -10   19.70    9.60
   3   1 -10   16.50    7.80
   3   1 -10   22.50    8.50
  -3  -1  10   42.70    8.40
   2   1 -10  519.75   30.90
   2   1 -10  609.14   30.20
  -2  -1  10  559.64   29.70
   1   1 -10  177.88   14.00
   1   1 -10  212.78   17.40
   0   1 -10 2057.09   50.49
   0   1 -10 2106.79   54.39
   0   1 -10 2019.60   48.00
   0  -1  10 2073.69   45.50
   0  -1  10 2076.09   48.90
  -1   1 -10  222.98   15.50
   1  -1  10  235.18   15.10
   1  -1  10  230.18   13.40
  -2   1 -10  425.26   23.30
   2  -1  10  426.06   19.00
   2  -1  10  465.15   22.20
  -3   1 -10    4.10    4.50
   3  -1  10    9.40    4.20
   3  -1  10    9.50    3.90
  -4   1 -10   67.29   14.80
  -4   1 -10   59.09   12.80
   4  -1  10   75.19   13.30
   4  -1  10   38.30    8.60
   4  -1  10   34.80    9.00
   4   0 -10   46.80   13.30
   4   0 -10   28.60    8.70
   3   0 -10    4.10    5.10
   3   0 -10    4.20    5.60
  -3   0  10    1.60    4.60
   2   0 -10  145.29   16.80
   2   0 -10  156.78   14.60
  -2   0  10  154.88   15.90
   1   0 -10   33.50    6.60
   1   0 -10   29.50    8.20
  -1   0  10   38.20    3.90
   0   0 -10  675.03   28.80
   0   0 -10  676.03   23.40
   0   0  10  687.23   22.20
   0   0  10  684.53   23.50
  -1   0 -10   61.79    8.60
   1   0  10   59.19    8.00
   1   0  10   66.09    6.80
  -2   0 -10  334.97   21.00
   2   0  10  345.67   15.70
   2   0  10  332.27   18.40
   2   0  10  365.86   21.90
  -3   0 -10  228.58   18.50
   3   0  10  222.68   14.90
   3   0  10  239.98   17.10
  -4   0 -10   -3.50    3.60
  -4   0 -10    4.50    5.20
   4   0  10    9.40    6.70
   4   0  10    1.20    3.20
   4   0  10   -1.90    3.80
   4  -1 -10  173.38   20.30
   4  -1 -10  211.48   26.80
   4  -1 -10  153.18   21.50
   3  -1 -10   38.70   10.20
   3  -1 -10   10.90    7.50
  -3   1  10   22.10    7.80
   2  -1 -10 1304.27   51.09
   2  -1 -10 1325.67   43.80
  -2   1  10 1368.76   48.50
   1  -1 -10  347.57   17.80
   1  -1 -10  343.27   22.70
   0  -1 -10   37.70    5.60
   0  -1 -10   37.60    7.40
   0   1  10   29.80    4.80
  -1  -1 -10  283.97   17.00
   1   1  10  291.87   16.70
   1   1  10  298.57   12.20
   2   1  10  226.38   17.20
   2   1  10  247.88   12.20
  -3  -1 -10  414.86   23.60
   3   1  10  454.25   20.40
  -4  -1 -10    3.30    5.20
  -4  -1 -10    7.50    6.20
   4   1  10    0.20    3.50
   4   1  10   -5.80    7.20
   4  -2 -10   -7.40    9.00
   4  -2 -10    4.10    6.90
   4  -2 -10    5.40    5.40
   3  -2 -10  409.06   30.80
   3  -2 -10  441.26   27.90
  -3   2  10  364.86   31.00
   2  -2 -10   10.90    4.80
   2  -2 -10   -0.40    3.90
   1  -2 -10 3364.86   66.59
   1  -2 -10 3304.27   79.99
   0  -2 -10   89.89   10.80
   0   2  10   79.49    6.60
  -1  -2 -10 2254.07   53.49
   1   2  10 2300.67   51.99
  -2  -2 -10   57.79    8.50
   2   2  10   51.49    8.70
   2   2  10   61.09    6.00
  -3  -2 -10  268.47   18.40
   3   2  10  251.27   14.90
   3   2  10  257.77   17.10
  -4  -2 -10   24.60    7.30
  -4  -2 -10   36.20   11.50
   4   2  10   24.70    6.70
   4  -3 -10   12.50    5.90
   4  -3 -10   29.50   12.90
   4  -3 -10   16.90   10.50
   3  -3 -10   25.70    9.50
   3  -3 -10   31.70    9.10
   3  -3 -10   28.30    8.60
  -3   3  10   19.70    6.90
   2  -3 -10    1.20    3.40
   2  -3 -10    4.30    2.90
   1  -3 -10    9.60    4.10
   1  -3 -10   11.00    5.10
   0  -3 -10  448.36   24.30
   0   3  10  433.76   15.50
  -1  -3 -10   12.30    4.10
  -1  -3 -10    9.20    4.00
   1   3  10    8.10    3.40
  -2  -3 -10 1573.84   45.70
   2   3  10 1614.44   47.20
  -3  -3 -10    2.50    4.20
  -3  -3 -10    4.90    3.80
  -4  -3 -10  232.78   25.70
  -4  -3 -10  181.78   17.70
  -4  -3 -10  184.78   18.40
   4   3  10  186.68   15.30
   4   3  10  203.68   24.90
   4  -4 -10   -1.20    4.10
   4  -4 -10    5.20    7.90
   4  -4 -10  -10.40    4.30
   3  -4 -10  260.07   24.30
   3  -4 -10  219.38   19.90
   3  -4 -10  226.68   20.40
  -3   4  10  231.58   20.90
   2  -4 -10    2.90    4.40
   2  -4 -10    2.00    3.50
   1  -4 -10    8.60    4.80
   1  -4 -10    3.10    2.70
   0  -4 -10    5.40    3.90
   0   4  10    4.10    2.20
  -1  -4 -10   21.30    5.50
  -1  -4 -10   17.80    4.80
   1   4  10   18.70    5.30
  -2  -4 -10   20.10    6.40
  -2  -4 -10    8.90    3.60
   2   4  10   15.20    5.40
  -3  -4 -10    8.40    3.70
  -3  -4 -10    9.40    4.30
   3   4  10    7.20    3.70
   3   4  10    4.10    3.50
  -4  -4 -10    8.90    5.60
  -4  -4 -10   14.40    6.30
  -4  -4 -10   10.50   10.00
   4   4  10    2.40    5.40
   4   4  10   20.40    5.10
   4   4  10    1.30    3.90
   4  -5 -10  127.89   19.00
   4  -5 -10  112.29   16.90
   4  -5 -10  154.28   24.80
   3  -5 -10  128.69   16.10
   3  -5 -10  116.99   17.20
   3  -5 -10  112.49   14.40
  -3   5  10  156.98   18.10
   2  -5 -10 1123.79   39.20
   2  -5 -10 1050.99   46.30
   1  -5 -10   24.00    7.20
   1  -5 -10   41.50    6.30
   0  -5 -10 3013.80   73.39
   0  -5 -10 2935.21   53.39
   0   5  10 2970.00   52.69
  -1  -5 -10  236.68   14.40
  -1  -5 -10  211.18   14.00
   1   5  10  204.08   13.40
  -2  -5 -10  273.07   17.90
  -2  -5 -10  282.37   16.00
   2   5  10  279.87   18.50
  -3  -5 -10    4.30    3.50
  -3  -5 -10    9.90    4.10
   3   5  10   -1.30    2.20
  -4  -5 -10   28.40    9.10
  -4  -5 -10   10.10    5.00
  -4  -5 -10   23.10    6.10
   4   5  10   20.40    6.00
   4   5  10    7.30    5.40
   4   5  10   22.70    7.80
   3  -6 -10  103.29   16.50
   3  -6 -10  101.89   14.00
  -3   6  10  124.09   16.10
   2  -6 -10   74.49   13.40
   1  -6 -10   71.39   11.20
   0  -6 -10    2.90    3.20
   0  -6 -10   12.20    3.60
   0   6  10    7.30    2.60
  -1  -6 -10 1573.34   41.90
  -1  -6 -10 1510.55   40.30
   1   6  10 1617.74   41.50
  -2  -6 -10    9.60    3.70
  -2  -6 -10    7.80    3.60
  -3  -6 -10  733.43   34.70
  -3  -6 -10  751.72   28.10
  -4  -6 -10   -5.30    4.20
  -4  -6 -10    7.70    4.30
  -4  -6 -10    2.00    5.50
   4   6  10   -4.20    3.20
   4   6  10   -1.30    4.70
   4   6  10   -0.40    4.20
   3  -7 -10  115.09   14.60
   3  -7 -10  118.09   16.90
  -3   7  10  113.59   16.60
   2  -7 -10   45.40   11.10
   1  -7 -10  458.85   27.80
   0  -7 -10  215.08   12.00
   0  -7 -10  219.28   17.90
   0   7  10  220.78   11.50
  -1  -7 -10  112.69   10.20
  -1  -7 -10  116.29   10.80
   1   7  10  108.79   10.00
  -2  -7 -10   42.30    9.50
  -2  -7 -10   46.40    6.20
   2   7  10   31.60    7.50
  -3  -7 -10   40.10    9.60
  -3  -7 -10   23.60    5.70
   3   7  10   31.50    8.10
  -4  -7 -10   73.59   12.80
  -4  -7 -10   74.49   14.30
  -4  -7 -10   64.49   11.10
   4   7  10   74.49   14.90
   3  -8 -10   12.80    6.60
   3  -8 -10    6.00    4.70
   2  -8 -10    4.50    3.50
   2  -8 -10   14.70    7.60
   1  -8 -10  258.17   10.50
   1  -8 -10  253.47   20.50
   0  -8 -10   -1.90    2.40
   0  -8 -10    4.30    2.50
   0   8  10    2.40    1.60
  -1  -8 -10  210.28   12.90
  -1  -8 -10  218.18   14.90
   1   8  10  203.58   14.00
  -2  -8 -10  232.38   12.80
  -2  -8 -10  220.28   18.00
   2   8  10  204.98   16.20
  -3  -8 -10    7.20    3.40
  -3  -8 -10    5.30    4.80
   3   8  10    6.80    4.40
  -4  -8 -10    2.40    6.90
  -4  -8 -10    5.90    6.90
  -4  -8 -10   11.80    5.20
   4   8  10    4.40    4.80
   4   8  10    3.40    7.80
   3  -9 -10   13.60    8.20
   3  -9 -10   22.60    7.30
   2  -9 -10  192.28   19.40
   2  -9 -10  208.68   17.70
   1  -9 -10   82.79    8.90
   1  -9 -10   86.49   13.20
   1  -9 -10   78.19    6.80
   0  -9 -10  329.57   16.50
   0  -9 -10  339.77   23.20
  -1  -9 -10    8.80    3.10
  -1  -9 -10    4.50    3.70
   1   9  10    1.70    2.70
  -2  -9 -10  359.36   22.60
  -2  -9 -10  345.77   15.10
   2   9  10  325.27   20.60
  -3  -9 -10   48.50    7.00
  -3  -9 -10   47.70   11.30
   3   9  10   58.49   10.40
  -4  -9 -10   54.29   12.90
   3 -10 -10   20.30    8.40
   2 -10 -10  615.94   31.20
   2 -10 -10  612.34   35.00
   1 -10 -10  466.95   17.90
   1 -10 -10  455.85   20.30
   1 -10 -10  460.85   23.80
   0 -10 -10  285.17   16.40
   0 -10 -10  288.77   21.80
  -1 -10 -10   47.40    6.60
  -1 -10 -10   31.00    7.70
   1  10  10   39.20    7.00
  -2 -10 -10   56.09    6.10
  -2 -10 -10   64.59   10.70
  -3 -10 -10  150.18    9.00
  -3 -10 -10  143.09   16.50
  -3 -10 -10  159.18   18.00
   3  10  10  135.29   15.50
  -4 -10 -10   -5.40    3.60
   4  10  10   -0.60    5.60
   3 -11 -10   16.10    6.30
   3 -11 -10   10.30    6.20
   2 -11 -10   35.30    9.90
   2 -11 -10   27.30    5.20
   2 -11 -10   20.60    7.10
   1 -11 -10   82.59   10.00
   1 -11 -10  101.09    9.10
   1 -11 -10   67.29   11.60
   1 -11 -10   93.39    9.70
   0 -11 -10    7.70    3.80
   0 -11 -10    9.10    5.90
   0 -11 -10   -1.20    2.50
  -1 -11 -10  567.64   27.00
  -1 -11 -10  562.74   19.90
   1  11  10  542.35   25.60
  -2 -11 -10  173.58    8.80
  -2 -11 -10  164.68   16.50
  -3 -11 -10   69.99   12.20
   3  11  10   53.09   10.60
   2 -12 -10   -1.70    3.00
   2 -12 -10   -4.30    2.50
   2 -12 -10   -4.00    3.50
   2 -12 -10   -0.80    2.10
   1 -12 -10    5.30    5.10
   1 -12 -10    4.50    3.50
   1 -12 -10   10.90    4.90
   0 -12 -10   68.59    8.40
   0 -12 -10   79.69    9.90
   0 -12 -10   80.59    9.00
   0 -12 -10   76.29   13.40
  -1 -12 -10   15.30    3.90
  -1 -12 -10   12.20    3.90
  -1 -12 -10   15.30    6.60
  -2 -12 -10    3.80    4.70
   2  12  10    2.00    3.50
  -3 -12 -10   38.90   10.20
  -3 -12 -10   26.70    9.70
   3  12  10   16.30    7.60
   2 -13 -10  101.89   13.30
   2 -13 -10  125.69   13.10
   2 -13 -10   80.39   14.10
   2 -13 -10   96.49    9.50
   1 -13 -10   25.10    6.80
   1 -13 -10   29.60    9.30
   1 -13 -10   53.89    8.10
   1 -13 -10   35.50    8.00
   0 -13 -10   92.59   12.70
   0 -13 -10  113.29   12.00
   0 -13 -10  122.29   11.40
   0 -13 -10  117.99   10.10
  -1 -13 -10   97.19   12.20
  -1 -13 -10  106.59    7.80
  -1 -13 -10  106.79    7.70
  -2 -13 -10   19.10    6.20
   2  13  10    2.30    3.80
  -3 -13 -10    2.60    4.40
  -3 -13 -10    0.70    7.10
   3  13  10   -8.60    3.90
   2 -14 -10    1.90    3.90
   2 -14 -10    3.70    6.20
   2 -14 -10   14.70    4.30
   2 -14 -10    3.60    4.50
   1 -14 -10   13.20    5.20
   1 -14 -10    3.30    4.60
   1 -14 -10   17.40    5.30
   1 -14 -10    7.50    5.50
   0 -14 -10  366.86   18.00
   0 -14 -10  373.46   21.00
   0 -14 -10  331.47   21.50
   0 -14 -10  379.76   25.30
  -1 -14 -10  116.09   14.60
  -1 -14 -10  132.59   10.60
  -2 -14 -10   95.09   14.00
   2  14  10   97.79   13.30
   1 -15 -10    9.10    5.10
   1 -15 -10   24.00    6.90
   1 -15 -10   24.00    6.60
   1 -15 -10   11.80    6.50
   0 -15 -10   11.10    4.60
   0 -15 -10   16.30    7.10
   0 -15 -10   13.80    6.20
   0 -15 -10   11.10    5.90
  -1 -15 -10    9.70    5.50
  -1 -15 -10    2.90    3.90
   0 -16 -10   27.10    6.90
   0 -16 -10   24.00    7.50
   0 -16 -10   42.30    7.40
   0 -16 -10   33.80    9.20
  -1 -16 -10    4.30    5.20
  -1 -16 -10    0.10    5.90
  -1 -16 -10   -6.20    4.50
   1  11 -11   58.39   12.50
  -1 -11  11   87.09   13.00
  -1 -11  11   44.40   12.10
   0  11 -11   75.09   18.80
   0  11 -11   88.89   13.30
  -1  11 -11   10.10    7.70
  -1  11 -11   21.80   12.30
   1  10 -11   15.90    6.30
   1  10 -11   13.00    7.70
   1  10 -11   18.90    7.00
  -1 -10  11    3.40    5.00
   0  10 -11  167.58   19.70
   0  10 -11  175.48   16.90
   0 -10  11  171.28   21.20
  -1  10 -11   16.20    8.00
   1 -10  11   17.80    8.40
  -2  10 -11  186.68   23.20
   2 -10  11  178.38   24.70
   2   9 -11   -6.80    4.60
   2   9 -11  -11.40    5.10
  -2  -9  11   -1.80    6.60
  -2  -9  11    2.10    4.40
   1   9 -11  174.38   16.00
   1   9 -11  139.69   22.50
   1   9 -11  222.78   16.80
  -1  -9  11  184.58   21.60
  -1  -9  11  191.68   17.40
   0   9 -11   84.69    9.80
   0   9 -11   86.39   14.70
   0   9 -11   98.69   13.20
   0  -9  11   71.49   15.00
  -1   9 -11  321.97   26.20
  -1   9 -11  328.77   23.20
   1  -9  11  253.77   22.80
  -2   9 -11   50.99   13.40
   2  -9  11   59.59   12.80
   2   8 -11   12.00    5.90
   2   8 -11   19.70    6.90
   2   8 -11   19.60    9.20
  -2  -8  11    9.00    7.20
  -2  -8  11   13.80    6.70
  -2  -8  11   25.40    8.70
   1   8 -11   -4.10    5.50
   1   8 -11    4.70    4.70
   1   8 -11    4.60    4.70
  -1  -8  11    6.70    6.70
  -1  -8  11   11.60    5.20
   0   8 -11   85.39    9.90
   0   8 -11   74.89   12.70
   0   8 -11   89.09   11.60
   0  -8  11   84.39   14.50
  -1   8 -11   -2.20    4.70
  -1   8 -11    5.10    3.80
  -1   8 -11    4.10    3.80
   1  -8  11   11.70    7.10
  -2   8 -11    5.10    2.10
  -2   8 -11   -4.00    2.80
   2  -8  11   12.00    6.00
  -3   8 -11   -0.40    4.60
   3  -8  11   -6.60    4.80
   3  -8  11   -2.90    5.90
   2   7 -11    2.60    4.20
   2   7 -11    0.30    3.50
  -2  -7  11    8.60    5.30
  -2  -7  11   -4.20    3.70
  -2  -7  11   -2.50    5.00
   1   7 -11  199.08   19.00
   1   7 -11  198.48   16.60
  -1  -7  11  196.58   17.40
  -1  -7  11  198.88   21.10
   0   7 -11   46.40    8.30
   0   7 -11   66.29   10.20
   0  -7  11   56.49   12.10
  -1   7 -11   75.99    8.50
  -1   7 -11   88.79   12.60
  -1   7 -11  102.99   14.40
   1  -7  11   99.89   13.90
  -2   7 -11   87.49   13.70
  -2   7 -11   90.39    9.80
   2  -7  11   81.19   12.50
   2  -7  11   87.39   13.90
  -3   7 -11    2.50    7.00
   3  -7  11   12.10    5.70
   3  -7  11    1.60    6.80
   3  -7  11   11.70    6.70
   3   6 -11   17.50    8.60
  -3  -6  11   26.30    9.80
   2   6 -11  637.54   34.50
   2   6 -11  563.74   33.00
  -2  -6  11  632.24   38.30
  -2  -6  11  598.64   31.60
  -2  -6  11  562.54   26.60
   1   6 -11   87.89   11.40
   1   6 -11  104.79   13.10
  -1  -6  11   84.99   10.70
  -1  -6  11   90.69   14.60
   0   6 -11  664.73   27.90
   0   6 -11  653.23   31.30
  -1   6 -11   54.09   12.70
  -1   6 -11   43.30    7.60
   1  -6  11   54.49   10.80
  -2   6 -11  553.44   30.30
   2  -6  11  549.05   29.60
   2  -6  11  536.75   30.60
  -3   6 -11   14.70    7.50
  -3   6 -11   -1.10    3.60
   3  -6  11   16.40    7.30
   3  -6  11    8.80    4.50
   3  -6  11    9.30    6.60
   3   5 -11   -3.50    6.50
   3   5 -11    2.80    6.10
  -3  -5  11    6.30    5.90
  -3  -5  11   -3.30    3.10
   2   5 -11  335.97   25.60
   2   5 -11  371.46   26.00
  -2  -5  11  364.36   19.40
  -2  -5  11  349.96   24.10
   1   5 -11   81.69   12.00
   1   5 -11   89.29   11.60
  -1  -5  11   94.89   13.60
  -1  -5  11   81.09    9.50
   0   5 -11  186.08   15.30
   0   5 -11  164.58   13.90
   0   5 -11  199.28   20.30
   0  -5  11  163.58   16.10
  -1   5 -11  280.87   16.90
   1  -5  11  287.77   20.10
   2  -5  11  132.49   13.20
   2  -5  11  144.09   14.80
  -3   5 -11  100.79   15.90
  -3   5 -11   79.99   12.60
   3  -5  11  110.69   14.10
   3  -5  11   93.19   13.50
   3   4 -11   23.20    9.50
   3   4 -11   22.60    9.80
  -3  -4  11   19.30    7.40
  -3  -4  11    7.80    3.80
   2   4 -11   11.20    5.80
   2   4 -11   11.20    5.10
  -2  -4  11   18.60    4.90
  -2  -4  11   12.60    5.60
   1   4 -11   65.19   11.00
   1   4 -11   77.89    9.80
   1   4 -11   48.70    9.70
  -1  -4  11   69.39   11.60
   0   4 -11   57.09    9.00
   0   4 -11   54.89    8.10
   0   4 -11   34.30    7.40
   0  -4  11   27.40    7.60
  -1   4 -11  210.58   14.90
  -1   4 -11  193.38   16.50
   1  -4  11  232.28   17.10
   2  -4  11   17.30    5.50
  -3   4 -11   31.00    8.80
  -3   4 -11   29.70    8.10
   3  -4  11   30.50    7.90
   3  -4  11    8.50    5.70
   3  -4  11   34.20    9.10
  -4   4 -11   27.80    9.60
   4  -4  11   18.90    8.00
   4  -4  11   14.00    6.50
   3   3 -11  107.49   17.30
  -3  -3  11  118.29   17.90
   2   3 -11   48.50   10.70
   2   3 -11   50.29   12.10
  -2  -3  11   49.80    9.50
  -2  -3  11   38.40    6.20
   1   3 -11 1346.07   46.80
   1   3 -11 1290.67   43.40
  -1  -3  11 1262.87   45.70
   0   3 -11   70.39    9.30
   0   3 -11   89.79   10.80
   0   3 -11   93.19   10.50
   0  -3  11   86.39   10.80
  -1   3 -11   76.49   10.20
  -1   3 -11   83.69    9.90
   1  -3  11   99.59   11.10
   1  -3  11   91.19   10.80
   2  -3  11   18.00    5.60
   2  -3  11   23.50    7.50
  -3   3 -11   97.29   15.00
  -3   3 -11   82.69   12.60
   3  -3  11   96.89   12.60
   3  -3  11  118.29   12.70
   3  -3  11   89.09   12.50
  -4   3 -11    3.90    6.90
  -4   3 -11   16.10    9.60
   4  -3  11   14.60    6.10
   4  -3  11   21.60    6.00
   3   2 -11  208.68   21.40
   3   2 -11  173.38   20.90
   2   2 -11  185.58   18.80
   2   2 -11  197.08   18.00
  -2  -2  11  193.58   17.80
   1   2 -11  802.42   32.30
   1   2 -11  896.81   37.50
  -1  -2  11  847.82   35.00
   0   2 -11  502.55   24.20
   0   2 -11  473.05   22.10
   0   2 -11  521.75   25.60
   0  -2  11  473.75   20.70
   0  -2  11  466.95   23.10
  -1   2 -11   37.80    8.30
  -1   2 -11   34.00    6.80
   1  -2  11   33.40    6.20
   1  -2  11   17.80    5.60
  -2   2 -11  919.61   37.30
   2  -2  11  926.71   32.40
   2  -2  11  910.71   37.70
  -3   2 -11   66.99   12.80
   3  -2  11   62.49   11.50
   3  -2  11   82.19   10.70
   3  -2  11   71.69   11.20
  -4   2 -11  117.89   18.60
  -4   2 -11  106.49   16.80
   4  -2  11  115.59   13.60
   4  -2  11  122.29   13.50
   4  -2  11  151.58   22.70
   3   1 -11   37.50    9.80
   3   1 -11   47.00   12.60
   2   1 -11  791.32   34.80
   2   1 -11  755.52   38.90
  -2  -1  11  806.02   37.40
   1   1 -11   71.99    9.40
   1   1 -11   89.59   12.20
  -1  -1  11   94.99    7.00
   0   1 -11 1452.75   45.30
   0   1 -11 1389.36   38.70
   0  -1  11 1419.66   40.00
   0  -1  11 1401.76   36.70
  -1   1 -11   87.79   11.10
   1  -1  11   79.69    9.60
   1  -1  11   83.49    8.70
   2  -1  11  873.51   29.30
   2  -1  11  848.62   35.60
  -3   1 -11   63.69   12.40
   3  -1  11   75.99   11.90
   3  -1  11   75.99   11.00
   3  -1  11   71.59    9.40
  -4   1 -11   44.00   11.00
  -4   1 -11   84.49   14.70
   4  -1  11   60.29   13.30
   4  -1  11   62.59   11.00
   4  -1  11   56.99    9.50
   3   0 -11  111.19   16.40
   3   0 -11  156.48   20.00
   2   0 -11   96.59   12.60
   2   0 -11   72.19   12.00
  -2   0  11   64.49   11.40
   1   0 -11    7.10    4.50
   1   0 -11    6.50    3.60
  -1   0  11   14.70    3.40
   0   0 -11   71.09    8.10
   0   0 -11   65.69   10.00
   0   0 -11   57.79    8.30
   0   0  11   73.89    7.30
   0   0  11   68.09    7.90
  -1   0 -11  352.16   20.30
   1   0  11  370.56   19.90
   1   0  11  381.36   16.40
  -2   0 -11    3.00    2.70
   2   0  11    0.40    2.30
   2   0  11    5.00    4.40
  -3   0 -11  321.37   22.50
   3   0  11  329.47   20.30
   3   0  11  306.87   22.60
   3   0  11  289.67   16.80
  -4   0 -11    9.50    8.60
  -4   0 -11    5.60    9.30
   4   0  11    2.50    3.70
   4   0  11    1.70    4.40
   4   0  11    0.60    6.20
   3  -1 -11   39.60    9.80
   3  -1 -11   29.90    9.70
  -3   1  11   42.70   11.70
   2  -1 -11   73.89   12.70
  -2   1  11   82.99   12.50
   1  -1 -11   41.10    9.00
   1  -1 -11   49.50    7.50
   0  -1 -11  569.94   27.90
   0  -1 -11  574.24   20.60
   0   1  11  564.84   20.20
  -1  -1 -11  667.53   27.80
   1   1  11  677.33   26.80
   1   1  11  658.93   19.80
  -2  -1 -11    2.50    3.20
   2   1  11    6.20    3.10
  -3  -1 -11   70.99   11.80
   3   1  11   87.39   11.30
   3   1  11  102.99   17.10
   3   1  11   80.49    8.90
  -4  -1 -11   30.60    9.00
  -4  -1 -11   40.80   19.00
   4   1  11   22.40    6.60
   4   1  11   31.30   10.80
   4   1  11   15.80    5.30
   3  -2 -11  690.13   35.10
   3  -2 -11  565.04   37.70
  -3   2  11  615.04   40.50
   2  -2 -11  276.07   23.60
   2  -2 -11  266.37   18.80
   1  -2 -11 1100.99   33.30
   1  -2 -11 1087.69   43.30
   0  -2 -11   54.49    6.00
   0  -2 -11   56.49    9.40
   0   2  11   41.90    5.40
  -1  -2 -11 1414.36   41.80
   1   2  11 1426.06   39.60
  -2  -2 -11  127.49   14.30
   2   2  11  121.09    7.80
  -3  -2 -11  127.59   14.00
   3   2  11  123.59    9.90
   3   2  11  134.59   12.50
  -4  -2 -11   77.19   13.80
  -4  -2 -11   55.29   17.50
   4   2  11   47.50    9.40
   4   2  11   59.19   11.50
   4   2  11   55.69   14.30
   3  -3 -11   23.70    8.10
   3  -3 -11   23.20    8.30
  -3   3  11   41.70   10.80
   2  -3 -11  275.27   23.80
   2  -3 -11  252.87   18.30
   1  -3 -11  181.58   17.60
   1  -3 -11  167.48   11.90
   0  -3 -11 1664.73   51.59
   0   3  11 1601.04   35.40
  -1  -3 -11    5.20    2.80
   1   3  11    2.30    2.70
  -2  -3 -11  752.12   29.90
  -2  -3 -11  802.82   31.70
  -3  -3 -11    8.90    4.50
  -3  -3 -11    2.30    2.30
   3   3  11    3.50    2.80
  -4  -3 -11  265.67   26.10
  -4  -3 -11  278.47   21.50
   4   3  11  336.27   20.90
   4   3  11  269.87   25.40
   3  -4 -11    9.10    6.30
   3  -4 -11   21.80    8.30
   3  -4 -11   12.90    6.50
   2  -4 -11   92.39   12.10
   2  -4 -11   86.29   13.60
   1  -4 -11  197.88   12.70
   1  -4 -11  179.48   17.50
   0  -4 -11   59.89   10.00
   0   4  11   55.99    5.60
  -1  -4 -11    4.00    2.40
  -1  -4 -11   -0.60    2.10
   1   4  11    3.00    2.10
  -2  -4 -11   13.10    4.20
  -2  -4 -11   21.20    6.80
  -3  -4 -11  196.38   16.10
  -3  -4 -11  205.08   17.30
   3   4  11  189.68   11.10
  -4  -4 -11    3.50    4.30
  -4  -4 -11   19.40    9.50
  -4  -4 -11    7.80    5.40
   4   4  11    7.60    5.00
   4   4  11    6.70    4.20
   4   4  11   -6.50    5.50
   3  -5 -11   55.69   10.80
   3  -5 -11   80.99   13.30
   3  -5 -11   53.99   14.60
   2  -5 -11  314.37   25.40
   2  -5 -11  323.47   20.60
   1  -5 -11    2.80    2.70
   1  -5 -11    3.30    2.80
   0  -5 -11  174.98   10.00
   0  -5 -11  165.78   16.00
   0   5  11  171.08    9.70
  -1  -5 -11    1.90    3.10
  -1  -5 -11    0.40    2.30
   1   5  11   -1.70    1.80
  -2  -5 -11  233.18   16.70
  -2  -5 -11  216.78   15.00
   2   5  11  253.17   21.30
  -3  -5 -11   14.30    5.20
   3   5  11   12.40    5.30
  -4  -5 -11    6.80    4.80
  -4  -5 -11   10.20    6.50
  -4  -5 -11   -0.70    6.50
   4   5  11   -0.40    4.60
   4   5  11    6.80    6.40
   4   5  11   -2.10    3.90
   3  -6 -11  100.09   13.50
   3  -6 -11   93.29   15.50
   3  -6 -11   94.39   17.10
  -3   6  11  112.89   18.80
   2  -6 -11  233.48   17.30
   2  -6 -11  238.58   21.90
   1  -6 -11 1094.39   31.70
   0  -6 -11 1004.00   26.90
   0  -6 -11 1000.60   40.90
   0   6  11 1044.80   26.60
  -1  -6 -11 1149.78   35.30
  -1  -6 -11 1068.89   34.40
   1   6  11 1147.99   34.50
  -2  -6 -11   -0.10    2.30
  -2  -6 -11    6.00    3.50
   2   6  11    2.00    2.30
  -3  -6 -11  388.46   24.50
  -3  -6 -11  423.06   21.60
   3   6  11  418.16   26.30
  -4  -6 -11    2.90    5.70
  -4  -6 -11   19.90    8.30
   4   6  11    3.60    4.30
   4   6  11    5.00    8.20
   3  -7 -11  107.99   16.70
   3  -7 -11  131.79   15.90
   3  -7 -11  138.09   17.50
   2  -7 -11   66.79   12.30
   1  -7 -11  449.66   32.10
   1  -7 -11  544.85   21.50
   0  -7 -11  282.37   21.50
   0  -7 -11  290.67   14.00
   0   7  11  291.67   13.40
  -1  -7 -11  534.65   23.40
  -1  -7 -11  547.45   23.90
   1   7  11  582.74   23.80
  -2  -7 -11  353.46   17.90
  -2  -7 -11  347.87   21.80
   2   7  11  335.87   21.00
  -3  -7 -11    0.00    3.30
  -3  -7 -11    0.40    3.80
   3   7  11   11.00    4.90
  -4  -7 -11  115.89   13.20
  -4  -7 -11  103.49   16.00
   3  -8 -11   -2.80    4.50
   3  -8 -11   -1.40    5.40
   2  -8 -11    8.00    5.00
   2  -8 -11    4.60    2.40
   1  -8 -11  139.99   16.30
   0  -8 -11  104.99   13.00
   0  -8 -11  115.99    9.40
   0   8  11  122.19    9.00
  -1  -8 -11    5.00    3.40
  -1  -8 -11   -1.70    2.00
   1   8  11    1.70    2.70
  -2  -8 -11  374.26   24.60
  -2  -8 -11  354.16   17.60
   2   8  11  349.47   21.70
  -3  -8 -11   27.70    8.70
  -3  -8 -11   12.20    4.30
   3   8  11   19.90    7.50
  -4  -8 -11   12.30    6.60
  -4  -8 -11   12.80    6.80
   3  -9 -11   16.50    8.50
   3  -9 -11   11.00    7.70
   2  -9 -11  146.59   15.60
   2  -9 -11  156.28   18.50
   1  -9 -11   42.40    6.70
   1  -9 -11   22.10    7.80
   0  -9 -11  128.89   10.30
  -1  -9 -11   40.90    7.50
  -1  -9 -11   34.80    7.10
   1   9  11   38.80    7.10
  -2  -9 -11  292.27   14.80
  -2  -9 -11  248.48   19.80
   2   9  11  238.98   19.50
  -3  -9 -11    3.20    4.50
  -3  -9 -11   -3.30    3.00
   3   9  11    1.70    4.40
  -4  -9 -11   24.30    6.50
  -4  -9 -11   17.50    8.00
   4   9  11   14.00    4.80
   3 -10 -11   82.09   16.00
   3 -10 -11   96.69   14.00
   2 -10 -11  121.69   14.50
   2 -10 -11   98.29   15.60
   1 -10 -11   33.80    9.80
   1 -10 -11   35.90    5.50
   1 -10 -11   50.49    7.00
   0 -10 -11  201.88   19.20
   0 -10 -11  235.78   14.50
  -1 -10 -11  303.37   18.90
  -1 -10 -11  268.67   15.50
  -2 -10 -11    0.50    2.60
  -2 -10 -11    0.80    3.10
  -3 -10 -11   40.90   10.80
  -3 -10 -11   53.29    6.80
   2 -11 -11   35.90   10.80
   2 -11 -11   31.10    9.20
   1 -11 -11  160.18   10.70
   1 -11 -11  169.08   15.00
   1 -11 -11  166.98   18.30
   1 -11 -11  141.99   11.50
   0 -11 -11   68.89   11.50
   0 -11 -11  101.09   10.20
  -1 -11 -11  490.35   19.80
  -1 -11 -11  505.35   25.50
   1  11  11  486.35   24.20
  -2 -11 -11   31.30    5.40
  -2 -11 -11   28.80    9.20
   2  11  11   33.80    9.00
  -3 -11 -11  102.89   15.10
   3  11  11   77.89   12.50
   2 -12 -11    3.60    4.00
   2 -12 -11    4.40    5.60
   1 -12 -11   52.89    8.50
   1 -12 -11   23.60    5.80
   1 -12 -11   30.90    7.70
   1 -12 -11   25.40    8.40
   0 -12 -11   19.80    6.20
   0 -12 -11   31.60    7.70
   0 -12 -11   21.70    8.50
  -1 -12 -11   77.09   11.00
  -1 -12 -11   61.19    8.20
   1  12  11   89.09   10.90
  -2 -12 -11   24.80    7.30
   2  12  11   12.40    5.70
  -3 -12 -11    1.50    6.10
   3  12  11    3.70    5.50
   2 -13 -11   31.20    7.50
   2 -13 -11   23.80    4.80
   2 -13 -11   16.80    5.10
   2 -13 -11   11.40    6.30
   1 -13 -11   47.40    9.20
   1 -13 -11   41.40    8.60
   1 -13 -11   27.00    8.90
   1 -13 -11   38.90    7.80
   0 -13 -11   10.40    6.70
   0 -13 -11   -0.50    3.00
   0 -13 -11   -3.50    3.40
   0 -13 -11    1.70    2.90
  -1 -13 -11    1.00    2.70
  -1 -13 -11   -0.70    3.40
  -2 -13 -11    1.10    4.60
   2  13  11   -1.50    4.00
   1 -14 -11  118.59   11.50
   1 -14 -11  118.19   12.80
   1 -14 -11  104.29   15.40
   1 -14 -11  105.09   13.40
   0 -14 -11   97.29   13.40
   0 -14 -11   63.89    9.30
   0 -14 -11   69.59   10.40
   0 -14 -11   76.39   10.90
  -1 -14 -11   44.30    6.20
  -1 -14 -11   42.10    6.10
  -1 -14 -11   41.60   10.10
  -2 -14 -11   93.49   13.40
   2  14  11   68.79   11.90
   1 -15 -11   61.39   10.90
   1 -15 -11   70.99   14.40
   1 -15 -11   66.19   11.70
   1 -15 -11   61.59   13.80
   0 -15 -11    2.10    3.80
   0 -15 -11   11.00    5.40
   0 -15 -11    3.50    5.10
   0 -15 -11    2.50    3.80
  -1 -15 -11   40.80   10.00
   1  10 -12    7.60    5.50
   1  10 -12   14.10    7.30
  -1 -10  12    4.30    7.20
  -1 -10  12   10.80    6.50
   0  10 -12  139.89   17.70
   0  10 -12  180.38   21.20
   0 -10  12  207.98   26.90
  -1  10 -12   -4.20    6.20
  -1  10 -12    4.80    7.50
   1 -10  12   -6.30    5.10
   1   9 -12  382.26   24.70
   1   9 -12  403.16   28.80
   1   9 -12  405.86   24.10
  -1  -9  12  431.26   33.00
  -1  -9  12  410.96   26.10
   0  -9  12   68.99   14.80
  -1   9 -12   54.99   12.20
   1  -9  12   85.39   14.80
  -2   9 -12    1.50    3.40
  -2   9 -12    1.10    2.50
   2  -9  12   -9.20    5.80
   2   8 -12    4.00    6.10
   2   8 -12    6.10    6.10
  -2  -8  12   -3.50    5.70
  -2  -8  12    2.20    6.60
   1   8 -12   83.09   12.40
   1   8 -12   74.59   14.50
  -1  -8  12   52.39   13.60
  -1  -8  12   72.89   11.50
   0   8 -12   66.19    9.70
   0   8 -12  106.39   13.00
   0   8 -12   75.29   14.50
   0  -8  12   66.79   13.70
  -1   8 -12    8.10    6.60
  -1   8 -12    5.90    5.40
  -1   8 -12    6.60    4.30
   1  -8  12   13.90    6.50
  -2   8 -12  235.18   22.30
   2  -8  12  232.98   22.50
   2  -8  12  219.58   21.60
   2   7 -12   13.70    8.90
   2   7 -12    8.50    6.90
   2   7 -12   15.60    8.50
  -2  -7  12    7.70    8.40
  -2  -7  12   29.10    7.80
   1   7 -12   44.50   10.80
   1   7 -12   45.50    9.80
  -1  -7  12   42.30   11.60
  -1  -7  12   41.90    9.40
   0   7 -12   52.39   11.80
   0   7 -12   65.79    9.60
   0   7 -12   71.39   11.80
   0  -7  12   51.19   11.50
  -1   7 -12    2.20    4.60
  -1   7 -12   -5.10    3.50
  -1   7 -12    3.20    2.90
   1  -7  12   -2.30    4.50
  -2   7 -12   -3.70    4.30
  -2   7 -12    2.30    3.40
   2  -7  12   -1.70    3.30
  -3   7 -12    2.30    5.10
   3  -7  12   18.50    7.30
   3  -7  12   20.80    9.20
   2   6 -12  137.59   14.70
   2   6 -12  138.89   17.20
  -2  -6  12  144.29   14.00
   1   6 -12   80.29   12.60
   1   6 -12   83.79   10.70
  -1  -6  12   70.59   10.00
  -1  -6  12   55.49   12.60
   0   6 -12  988.40   37.60
   0   6 -12  905.31   38.00
   0   6 -12  918.11   34.90
   0  -6  12  965.80   41.10
  -1   6 -12   89.49   13.70
  -1   6 -12  112.69   11.50
  -1   6 -12  103.99   13.20
   1  -6  12  114.89   13.50
  -2   6 -12   68.39    9.90
  -2   6 -12   64.19   12.20
   2  -6  12   78.59   12.50
   2  -6  12   54.09   11.30
  -3   6 -12    2.60    5.10
   3  -6  12    3.00    4.70
   3  -6  12    1.20    5.60
   3  -6  12    1.10    5.50
  -3  -5  12   14.70    8.50
  -3  -5  12   -7.10    3.40
   2   5 -12   46.50   11.90
   2   5 -12   36.20   10.00
  -2  -5  12   38.50    8.20
  -2  -5  12   24.60    8.40
   1   5 -12  342.87   21.70
   1   5 -12  327.37   23.30
  -1  -5  12  329.77   24.90
  -1  -5  12  334.57   19.50
   0   5 -12  238.68   18.50
   0   5 -12  222.28   16.90
   0  -5  12  211.28   18.90
  -1   5 -12  419.16   24.70
  -1   5 -12  456.25   22.90
  -1   5 -12  446.06   26.90
   1  -5  12  475.45   26.40
   1  -5  12  448.56   25.50
  -2   5 -12  136.79   15.80
   2  -5  12  156.18   17.70
   2  -5  12  137.09   16.30
  -3   5 -12  335.27   26.30
   3  -5  12  292.57   26.40
   3  -5  12  323.47   23.00
   3  -5  12  306.27   22.50
   3   4 -12  153.88   22.20
  -3  -4  12  104.09   16.90
   2   4 -12   86.39   13.10
   2   4 -12   67.49   13.30
  -2  -4  12   94.69    9.80
  -2  -4  12   91.79   13.40
   1   4 -12  260.57   20.10
  -1  -4  12  213.18   24.00
   0   4 -12   29.40    7.90
   0   4 -12   31.60    8.90
   0  -4  12   25.30    7.70
  -1   4 -12  295.07   19.00
  -1   4 -12  288.77   20.30
   1  -4  12  308.37   20.00
   1  -4  12  302.87   20.40
   2  -4  12   22.10    8.20
   2  -4  12   41.00    8.60
  -3   4 -12    4.60    7.00
  -3   4 -12   19.00    7.50
   3  -4  12   15.50    6.50
   3  -4  12   11.80    7.90
   3  -4  12   18.50    6.20
   3   3 -12   72.19   15.10
   3   3 -12   74.29   15.90
  -3  -3  12   42.20   10.90
   2   3 -12   64.39   11.60
   2   3 -12   90.89   13.90
  -2  -3  12   74.09   11.80
  -2  -3  12   39.00    5.20
   1   3 -12  183.08   16.30
  -1  -3  12  188.28   17.80
   0   3 -12  278.27   19.30
   0   3 -12  292.27   18.70
   0  -3  12  276.47   19.00
  -1   3 -12    7.80    4.30
  -1   3 -12    1.10    2.50
   1  -3  12    6.80    3.30
   2  -3  12    8.30    4.50
  -3   3 -12   10.90    8.70
   3  -3  12    2.80    4.30
   3  -3  12    6.40    5.50
  -4   3 -12    7.70    9.80
   4  -3  12   23.70    7.90
   4  -3  12   22.40    7.20
   3   2 -12  193.38   22.00
   3   2 -12  179.18   25.40
  -3  -2  12  171.38   20.50
   2   2 -12  316.57   23.20
   2   2 -12  316.47   25.00
  -2  -2  12  294.07   23.00
   1   2 -12    4.10    4.00
   0   2 -12  433.16   21.90
   0   2 -12  456.35   25.20
   0  -2  12  436.46   22.80
   0  -2  12  434.76   20.30
  -1   2 -12  251.27   17.90
   1  -2  12  233.18   16.90
   1  -2  12  267.07   16.60
  -2   2 -12 1364.56   47.70
   2  -2  12 1309.67   40.30
   2  -2  12 1233.08   49.60
  -3   2 -12   83.49   13.90
   3  -2  12   86.29   12.30
   3  -2  12   79.59   13.40
   3  -2  12  107.19   11.60
  -4   2 -12   53.79   16.60
   4  -2  12   21.80    7.60
   4  -2  12   26.90    8.10
   3   1 -12   -5.60    4.20
   3   1 -12    7.40    6.60
  -3  -1  12   -0.90    4.10
   2   1 -12  950.20   39.20
   2   1 -12  880.81   43.50
  -2  -1  12  942.71   42.50
   1   1 -12    3.60    4.30
  -1  -1  12    2.80    2.50
   0   1 -12  671.13   31.00
   0   1 -12  638.94   25.40
   0  -1  12  676.93   24.70
   0  -1  12  656.63   26.60
  -1   1 -12   83.89   10.70
  -1   1 -12   72.29   10.70
   1  -1  12   80.69    9.10
   1  -1  12   63.09    9.40
  -2   1 -12   87.29   12.30
   2  -1  12   88.09   10.00
   2  -1  12   89.49   12.20
  -3   1 -12   70.79   12.30
   3  -1  12   63.09   10.60
   3  -1  12   79.69   12.60
   3  -1  12   80.09   10.10
  -4   1 -12   28.00   14.40
  -4   1 -12   26.60    8.90
   4  -1  12   55.09   10.50
   4  -1  12   25.80    9.90
   3   0 -12   16.90    7.90
   3   0 -12   19.30    9.00
  -3   0  12   10.20    7.10
   2   0 -12    1.70    4.40
   2   0 -12    5.10    5.60
  -2   0  12   -2.00    2.80
   1   0 -12  733.03   29.10
   1   0 -12  750.92   45.00
   0   0 -12   -1.80    2.10
   0   0 -12    2.00    2.20
   0   0 -12    0.60    2.10
   0   0  12   -3.80    1.80
  -1   0 -12 1809.92   51.39
   1   0  12 1814.92   49.40
   1   0  12 1787.12   41.70
  -2   0 -12    9.70    5.70
   2   0  12   26.80    6.00
   2   0  12   26.60    7.90
  -3   0 -12  250.87   21.00
   3   0  12  243.18   21.10
   3   0  12  245.18   18.00
   3   0  12  259.37   16.40
  -4   0 -12  -11.20    5.70
  -4   0 -12    8.90    6.70
   4   0  12   -4.90    3.60
   4   0  12   -6.00    4.80
   3  -1 -12   30.40   10.70
   3  -1 -12   11.70    7.40
  -3   1  12   23.70   10.00
   2  -1 -12   -2.10    3.70
   2  -1 -12    0.40    4.10
   1  -1 -12   45.30    9.50
   1  -1 -12   61.49    9.00
   0  -1 -12    2.00    3.20
   0  -1 -12   -1.50    2.30
   0   1  12   -1.10    1.30
  -1  -1 -12  125.09   12.70
   1   1  12  160.08   11.00
   1   1  12  142.39   12.40
  -2  -1 -12   31.90    7.80
   2   1  12   49.40    6.40
   2   1  12   51.89    9.10
  -3  -1 -12   26.00    8.40
   3   1  12   37.50    9.50
   3   1  12   44.00    7.20
  -4  -1 -12  125.79   18.90
  -4  -1 -12   94.29   17.70
   4   1  12   94.29   18.60
   4   1  12  113.39   12.50
   4   1  12  140.49   15.50
   3  -2 -12  311.97   24.30
   3  -2 -12  272.07   26.20
  -3   2  12  252.77   23.90
   2  -2 -12    1.20    4.80
   2  -2 -12   -1.30    3.40
   1  -2 -12 1211.68   36.20
   1  -2 -12 1289.47   49.10
   0  -2 -12   51.79    8.80
   0  -2 -12   57.79    6.40
   0   2  12   57.79    6.40
  -1  -2 -12   14.40    5.00
  -2  -2 -12   31.20    6.90
   2   2  12   71.39   10.40
  -3  -2 -12   73.29   11.10
   3   2  12   63.59   13.70
   3   2  12   69.69    7.90
  -4  -2 -12   36.70   12.40
  -4  -2 -12   52.49   13.20
   4   2  12   35.10    8.30
   4   2  12   50.59   12.90
   4   2  12   25.30    7.00
   3  -3 -12    5.00    5.10
   3  -3 -12    2.00    4.30
  -3   3  12    3.60    5.20
   2  -3 -12  530.95   34.30
   1  -3 -12   15.20    6.70
   1  -3 -12   16.10    4.40
   0  -3 -12 2437.46   66.79
   0   3  12 2367.16   47.40
  -1  -3 -12   17.10    6.00
   1   3  12   23.20    5.80
  -2  -3 -12 1040.90   37.80
   2   3  12 1092.49   39.50
  -3  -3 -12    1.70    4.00
   3   3  12    5.80    3.10
   3   3  12    6.50    4.20
  -4  -3 -12   88.19   17.20
  -4  -3 -12   84.69   14.30
   4   3  12   86.09   12.20
   4   3  12   92.19   17.00
   4   3  12   77.59   11.10
   3  -4 -12   25.80    9.50
   3  -4 -12   24.60   11.00
  -3   4  12   33.80   10.50
   2  -4 -12  129.69   17.10
   2  -4 -12  155.98   14.70
   1  -4 -12    1.10    2.40
   1  -4 -12    4.50    3.10
   0  -4 -12   22.40    7.50
   0   4  12   32.00    4.60
  -1  -4 -12  287.07   18.00
   1   4  12  248.78   15.70
  -2  -4 -12   38.20    7.70
   2   4  12   48.20    8.80
  -3  -4 -12  465.55   25.30
  -3  -4 -12  464.55   27.60
   3   4  12  470.65   28.40
  -4  -4 -12   -4.60    6.80
  -4  -4 -12   -4.40    5.20
   4   4  12   -3.50    5.60
   4   4  12    9.90    5.40
   4   4  12   -1.70    4.00
   3  -5 -12    1.60    3.90
   3  -5 -12   -0.60    4.80
   3  -5 -12   10.50    7.30
  -3   5  12   16.70    6.50
   2  -5 -12  164.28   19.90
   2  -5 -12  206.08   17.00
   1  -5 -12   58.99    7.60
   1  -5 -12   67.79   11.30
   0   5  12   33.80    4.80
  -1  -5 -12   86.09   10.10
  -1  -5 -12   73.59    8.70
   1   5  12   83.59    9.40
  -2  -5 -12    1.30    3.40
  -2  -5 -12   -1.60    2.50
   2   5  12    2.50    2.90
  -3  -5 -12   -4.30    3.20
  -3  -5 -12    3.20    3.80
   3   5  12    5.40    6.10
  -4  -5 -12    6.70    5.20
  -4  -5 -12   -0.40   12.00
  -4  -5 -12   13.10    5.80
   4   5  12    4.20    5.30
   3  -6 -12  153.98   21.20
   3  -6 -12  206.98   20.60
   2  -6 -12  202.48   21.40
   2  -6 -12  210.88   17.10
   1  -6 -12  642.44   36.00
   1  -6 -12  701.63   24.30
   0  -6 -12    2.30    3.70
   0  -6 -12    5.90    2.40
   0   6  12    6.00    2.00
  -1  -6 -12 1152.88   37.50
  -1  -6 -12 1166.18   35.60
   1   6  12 1169.78   35.70
  -2  -6 -12   27.50    6.80
  -2  -6 -12   20.60    6.50
   2   6  12   21.80    6.70
  -3  -6 -12  150.48   14.50
  -3  -6 -12  189.28   17.60
   3   6  12  179.58   17.60
  -4  -6 -12   18.70    6.30
  -4  -6 -12   13.30    7.30
   4   6  12   -0.50    5.10
   3  -7 -12  265.27   40.10
   3  -7 -12  236.58   22.60
   3  -7 -12  251.57   22.90
   2  -7 -12  179.88   20.30
   2  -7 -12  187.58   16.90
   1  -7 -12  239.68   22.10
   1  -7 -12  265.87   14.80
   0  -7 -12   35.00    5.20
   0  -7 -12   40.70   11.00
   0   7  12   28.30    4.60
  -1  -7 -12    4.90    3.10
  -1  -7 -12    3.60    2.90
   1   7  12    0.30    2.80
  -2  -7 -12  436.96   26.70
  -2  -7 -12  494.65   22.70
   2   7  12  474.25   25.50
  -3  -7 -12   -3.20    5.30
  -3  -7 -12    4.70    3.90
   3   7  12   -2.80    3.90
  -4  -7 -12   90.69   13.80
  -4  -7 -12  129.79   15.70
   3  -8 -12   41.20   10.30
   3  -8 -12   56.99   14.00
   3  -8 -12   98.29   16.40
   2  -8 -12  196.78   21.10
   1  -8 -12   12.80    6.30
   1  -8 -12    6.70    3.20
   0  -8 -12  495.05   19.60
   0  -8 -12  548.15   31.40
   0   8  12  531.55   19.80
  -1  -8 -12  284.57   17.60
  -1  -8 -12  252.27   16.60
   1   8  12  273.97   16.70
  -2  -8 -12  196.58   16.30
  -2  -8 -12  160.88   12.70
   2   8  12  169.58   15.50
  -3  -8 -12    4.00    4.50
  -3  -8 -12    9.10    5.40
   3   8  12   11.20    6.40
  -4  -8 -12   36.20    9.80
   3  -9 -12    8.00    5.20
   3  -9 -12   -5.30    4.50
   2  -9 -12    3.30    3.70
   2  -9 -12    6.60    3.40
   1  -9 -12    2.70    3.30
   1  -9 -12    9.90    5.60
   0  -9 -12  128.29   15.80
   0  -9 -12  135.49   10.80
  -1  -9 -12   32.00    7.50
  -1  -9 -12   45.10    7.90
   1   9  12   43.40    7.40
  -2  -9 -12   43.90   10.20
  -2  -9 -12   54.59    8.40
  -3  -9 -12   54.99    8.90
  -3  -9 -12   38.20    9.40
   2 -10 -12    6.50    6.80
   2 -10 -12   15.90    6.60
   1 -10 -12  134.49    9.80
   1 -10 -12   91.99   14.60
   1 -10 -12  113.89    8.40
   0 -10 -12   13.70    4.90
   0 -10 -12    6.60    5.40
  -1 -10 -12   43.60    8.10
  -1 -10 -12   48.00    8.90
   1  10  12   65.79    9.50
  -2 -10 -12    3.40    3.80
  -2 -10 -12   -2.50    3.20
  -3 -10 -12   19.20    6.00
  -3 -10 -12   25.00    8.20
   3  10  12   30.50    9.50
   2 -11 -12   -0.50    5.00
   2 -11 -12    3.90    4.20
   1 -11 -12  678.93   31.40
   1 -11 -12  615.44   35.90
   1 -11 -12  649.93   24.20
   1 -11 -12  605.74   20.50
   0 -11 -12  249.88   15.50
   0 -11 -12  293.77   23.70
  -1 -11 -12  168.08   12.90
   1  11  12  186.18   15.10
  -2 -11 -12   47.10    6.40
  -2 -11 -12   37.90    9.50
   2  11  12   26.30    7.40
  -3 -11 -12   38.10    7.10
  -3 -11 -12   40.30   11.80
   3  11  12   49.10   12.20
   2 -12 -12   11.00    5.70
   2 -12 -12   14.60    5.90
   2 -12 -12    7.50    6.60
   1 -12 -12    8.10    4.20
   1 -12 -12    5.80    4.00
   1 -12 -12    3.00    5.00
   1 -12 -12    8.50    3.10
   0 -12 -12   23.30    8.30
   0 -12 -12   49.00    7.90
  -1 -12 -12   -1.20    3.50
  -1 -12 -12    2.50    3.90
   1  12  12    0.60    2.70
  -2 -12 -12  198.18   10.60
  -2 -12 -12  158.28   17.30
   2  12  12  144.79   15.00
  -3 -12 -12   20.30    8.60
   1 -13 -12   14.40    5.40
   1 -13 -12   13.40    4.50
   1 -13 -12   10.40    6.60
   1 -13 -12    6.00    4.70
   0 -13 -12   10.90    4.60
   0 -13 -12   15.30    8.50
   0 -13 -12   13.10    5.50
  -1 -13 -12   -0.80    2.80
  -1 -13 -12    5.00    3.20
  -1 -13 -12    2.40    3.80
  -2 -13 -12   -0.20    3.80
   1 -14 -12   44.10    8.50
   1 -14 -12   73.39   11.30
   1 -14 -12   62.39   10.70
   0 -14 -12    9.70    8.60
   0 -14 -12   32.90    7.70
   0 -14 -12   15.70    5.90
  -1 -14 -12   63.39    8.30
  -1 -14 -12   43.40   10.30
  -1 -14 -12   50.99    7.00
  -2 -14 -12   57.69   13.00
   2  14  12   21.90    6.60
   0 -15 -12    5.00    5.20
   0 -15 -12   -4.20    3.20
  -1 -15 -12   89.39   14.80
  -1 -15 -12  133.19   13.60
  -1 -15 -12  115.19    8.70
   0   9 -13    3.50    7.40
   0   9 -13    1.40    6.90
   0   9 -13   -0.40    3.90
   0  -9  13   19.00    7.60
  -1   9 -13  153.58   21.70
  -1   9 -13  153.08   18.60
   1  -9  13  150.08   19.50
   1   8 -13    4.60    5.70
   1   8 -13    1.00    6.10
   1   8 -13  -10.00    5.30
  -1  -8  13    2.20    5.70
  -1  -8  13   -1.80    4.10
   0   8 -13  233.48   18.20
   0   8 -13  252.67   22.70
   0   8 -13  253.67   22.80
   0  -8  13  285.37   25.20
  -1   8 -13  111.59   18.40
  -1   8 -13  122.89   16.20
   1  -8  13  118.49   15.70
   2   7 -13   51.49   12.30
  -2  -7  13   73.09   13.00
   1   7 -13   17.10    6.50
   1   7 -13   21.50    9.90
  -1  -7  13    4.50    4.40
  -1  -7  13   13.70    7.80
   0   7 -13   51.99   11.20
   0   7 -13   29.50    9.20
   0   7 -13   46.10    9.40
   0  -7  13   46.50   11.00
  -1   7 -13    3.10    6.10
  -1   7 -13   17.10    5.20
  -1   7 -13   26.90   10.60
   1  -7  13    7.80    5.70
  -2   7 -13   -1.30    5.60
  -2   7 -13   -4.20    3.90
   2  -7  13    1.40    5.20
   2  -7  13    7.40    7.20
   2   6 -13  182.38   18.20
   2   6 -13  188.18   20.70
   2   6 -13  160.28   20.90
  -2  -6  13  180.28   16.50
   1   6 -13    5.20    4.90
   1   6 -13    5.40    4.60
   1   6 -13   15.20    7.00
  -1  -6  13   10.70    6.00
  -1  -6  13    4.60    5.00
   0   6 -13   64.69   10.60
   0   6 -13   95.09   12.40
   0   6 -13   78.89   11.90
   0  -6  13   75.39   13.80
  -1   6 -13   63.69   12.20
  -1   6 -13   67.29   12.60
  -1   6 -13   48.70    8.80
   1  -6  13   56.89   11.70
   1  -6  13   62.99   11.20
  -2   6 -13   40.20    9.60
  -2   6 -13   16.00    5.90
   2  -6  13    7.40    7.00
  -3   6 -13   -6.20    5.60
   3  -6  13   -3.30    5.80
   1   5 -13  452.75   28.00
   1   5 -13  490.05   27.00
   1   5 -13  483.95   28.50
  -1  -5  13  466.25   23.40
  -1  -5  13  463.35   30.30
   0   5 -13   75.19   11.20
   0   5 -13   54.69   10.20
   0   5 -13   62.79   10.90
   0  -5  13   78.49   12.30
  -1   5 -13  507.15   25.40
  -1   5 -13  473.85   28.20
  -1   5 -13  517.65   28.40
  -2   5 -13   49.70    9.20
  -2   5 -13   41.20   12.10
   2  -5  13   39.30   10.20
   2  -5  13   38.70   10.00
   3  -5  13  214.68   18.70
   3  -5  13  199.88   18.90
   2   4 -13    9.30    7.70
   2   4 -13    2.30    5.10
  -2  -4  13    5.60    3.70
   1   4 -13  487.55   29.20
   1   4 -13  519.05   29.20
   1   4 -13  468.65   26.30
  -1  -4  13  531.45   23.50
  -1  -4  13  496.95   29.80
   0   4 -13   39.10    9.40
   0   4 -13   35.00    8.70
   0   4 -13   26.10    7.20
   0  -4  13   30.60    8.80
  -1   4 -13  170.48   19.60
  -1   4 -13  211.38   16.50
   1  -4  13  210.68   16.80
   1  -4  13  187.28   16.50
  -2   4 -13   68.09   13.00
   2  -4  13   50.69   12.10
   2  -4  13   66.29   11.00
  -3   4 -13   50.79   12.80
   3  -4  13   56.59   12.30
   3  -4  13   86.09   14.40
   2   3 -13   38.60   10.10
   2   3 -13   51.49   10.70
   1   3 -13   15.70    6.00
   1   3 -13    1.60    4.90
   1   3 -13   10.60    6.00
   0   3 -13  213.58   17.70
   0   3 -13  228.18   16.50
   0   3 -13  221.68   17.70
   0  -3  13  188.78   16.70
   0  -3  13  181.08   14.40
  -1   3 -13   -1.60    3.40
  -1   3 -13    2.40    2.70
   1  -3  13   -3.80    3.40
   1  -3  13   -0.20    3.30
  -2   3 -13  271.07   21.90
   2  -3  13  305.27   19.70
   2  -3  13  241.28   20.40
  -3   3 -13   -4.40    6.40
   3  -3  13   -0.80    4.70
   3  -3  13    6.20    7.70
   3   2 -13    7.20    8.60
   3   2 -13   19.70    8.80
   2   2 -13   71.09   13.10
   2   2 -13   32.60   10.10
   1   2 -13   68.19   12.50
   1   2 -13  106.39   12.40
   0   2 -13  928.61   33.60
   0   2 -13  943.11   38.40
   0  -2  13  895.71   31.40
   0  -2  13  952.80   35.40
  -1   2 -13   35.80    9.10
   1  -2  13   19.20    7.20
   1  -2  13   27.70    7.30
  -2   2 -13   13.10    6.40
   2  -2  13    6.70    4.40
  -3   2 -13   10.30    7.00
   3  -2  13   10.40    5.90
   3   1 -13   -5.50    7.30
   3   1 -13   11.10    7.80
   2   1 -13  281.57   25.10
   2   1 -13  295.57   22.20
   1   1 -13   55.19   10.50
   0   1 -13  692.43   39.80
   0   1 -13  831.62   29.90
   0  -1  13  808.12   28.40
   0  -1  13  762.72   30.00
  -1   1 -13   45.40   10.50
  -1   1 -13   28.00    8.00
   1  -1  13   28.20    6.30
   1  -1  13   33.40    8.80
  -2   1 -13   33.70    8.60
   2  -1  13   20.00    5.30
  -3   1 -13  323.87   25.00
   3  -1  13  281.57   18.60
   3  -1  13  329.27   25.80
  -4   1 -13   10.10    7.70
   4  -1  13   20.50    7.50
   3   0 -13  131.49   20.50
   2   0 -13   18.20    6.20
   2   0 -13   14.50    6.80
   1   0 -13 1221.58   48.70
   1   0 -13 1214.18   39.40
   0   0 -13   28.40    6.00
   0   0  13   37.80    5.90
   0   0  13   18.70    5.40
  -1   0 -13  757.72   34.30
  -1   0 -13  806.02   33.60
   1   0  13  773.22   31.20
   1   0  13  734.93   24.80
  -2   0 -13   -1.90    4.20
   2   0  13    3.10    3.50
   2   0  13    9.60    5.30
  -3   0 -13  505.95   30.20
   3   0  13  482.15   29.90
   3   0  13  470.35   22.10
  -4   0 -13    3.80    9.20
  -4   0 -13    6.10   10.40
   4   0  13    2.60    5.20
   4   0  13    4.20    5.30
   3  -1 -13   46.20   13.70
   3  -1 -13   20.80    8.90
   2  -1 -13  112.59   17.40
   2  -1 -13  108.99   14.80
   1  -1 -13    2.20    3.80
   1  -1 -13   -1.20    3.20
   0  -1 -13   17.40    4.60
   0  -1 -13   10.10    5.30
   0  -1 -13    6.60    4.50
   0   1  13   13.10    4.00
  -1  -1 -13    2.10    3.10
   1   1  13    7.40    4.30
  -2  -1 -13  295.67   20.90
   2   1  13  278.27   20.50
   2   1  13  273.47   13.80
  -3  -1 -13   -0.80    3.90
   3   1  13   -0.90    3.60
   3   1  13   -4.10    4.80
  -4  -1 -13   98.79   19.80
  -4  -1 -13   90.39   17.60
   4   1  13  105.59   12.70
   3  -2 -13  110.69   18.70
   3  -2 -13  134.19   18.40
   2  -2 -13   -2.70    4.30
   2  -2 -13   10.80    5.40
   1  -2 -13   95.59   10.60
   1  -2 -13   64.49   11.60
   0  -2 -13    2.50    2.00
   0  -2 -13    3.20    3.60
   0  -2 -13    5.60    3.60
   0   2  13    0.30    1.80
  -1  -2 -13  297.87   19.00
   1   2  13  307.97   18.50
  -2  -2 -13   22.70    6.70
   2   2  13   20.60    6.70
  -3  -2 -13   -0.60    3.40
   3   2  13    0.70    2.30
  -4  -2 -13   -7.80    7.40
  -4  -2 -13   10.60    7.70
   4   2  13   -3.20    3.40
   3  -3 -13   14.00    7.00
   3  -3 -13   13.40    7.60
   2  -3 -13  805.02   44.10
   2  -3 -13  861.71   35.30
   1  -3 -13  387.66   27.40
   1  -3 -13  333.67   17.70
   0   3  13  759.42   23.30
  -1  -3 -13    2.80    3.50
   1   3  13    0.20    3.50
  -2  -3 -13  562.34   28.10
   2   3  13  629.74   30.00
  -3  -3 -13   23.50    7.20
   3   3  13   27.90    8.90
  -4  -3 -13   41.10   13.90
   3  -4 -13   -0.10    6.70
   3  -4 -13   18.20    7.10
   2  -4 -13  139.69   18.80
   2  -4 -13  149.39   18.70
   1  -4 -13  298.37   24.10
   1  -4 -13  258.17   15.10
   0  -4 -13  314.87   23.10
   0   4  13  293.47   13.40
  -1  -4 -13  719.53   30.20
   1   4  13  720.23   28.00
  -2  -4 -13    9.90    5.30
   2   4  13    6.70    4.80
  -3  -4 -13  233.88   18.70
   3   4  13  232.98   20.30
  -4  -4 -13  -14.00    5.50
   4   4  13   -2.10    3.60
   4   4  13    0.20    4.80
   3  -5 -13   -6.10    3.10
   3  -5 -13   -0.20    6.80
   3  -5 -13   -5.80    3.90
   2  -5 -13   51.79   13.80
   1  -5 -13  201.58   13.10
   1  -5 -13  213.68   20.80
   0  -5 -13   23.00    8.10
   0   5  13   23.80    5.10
  -1  -5 -13  259.27   17.80
   1   5  13  236.98   15.80
  -2  -5 -13   14.20    6.10
  -2  -5 -13    6.60    4.90
   2   5  13   13.10    6.20
  -3  -5 -13   22.80    6.10
  -3  -5 -13   10.80    4.40
   3   5  13   14.50    7.20
  -4  -5 -13   66.59   14.20
  -4  -5 -13   35.30    9.40
   3  -6 -13   80.09   15.00
   3  -6 -13   74.49   17.80
   3  -6 -13  128.79   18.00
   2  -6 -13   22.70    9.50
   1  -6 -13  221.58   13.40
   1  -6 -13  232.28   22.30
   0  -6 -13    1.20    3.00
   0   6  13   -1.00    1.60
  -1  -6 -13  139.99   12.10
  -1  -6 -13  160.88   15.20
   1   6  13  177.68   13.40
  -2  -6 -13    3.20    3.90
  -2  -6 -13    2.90    3.80
   2   6  13    7.10    4.50
  -3  -6 -13   62.39   10.60
  -3  -6 -13   74.29   11.20
   3   6  13   57.49   11.50
  -4  -6 -13   12.70    6.10
  -4  -6 -13   28.90    9.00
   3  -7 -13   26.20    9.70
   3  -7 -13   56.29   11.00
   3  -7 -13   44.70   12.40
   2  -7 -13   63.09   12.10
   1  -7 -13  173.48   12.20
   1  -7 -13  192.98   19.90
   0  -7 -13  445.36   17.60
   0  -7 -13  423.96   28.00
   0   7  13  437.36   17.10
  -1  -7 -13  220.08   14.80
   1   7  13  198.38   14.20
  -2  -7 -13  248.98   18.50
   2   7  13  229.78   18.10
  -3  -7 -13   -3.00    3.10
   3   7  13   -6.60    3.50
   2  -8 -13  211.38   21.60
   1  -8 -13  110.39   10.10
   1  -8 -13  112.39   15.10
   0  -8 -13  646.84   35.00
   0  -8 -13  625.24   21.90
  -1  -8 -13  108.49   11.60
  -1  -8 -13  134.69   13.60
   1   8  13  129.39   11.90
  -2  -8 -13  323.37   18.90
  -2  -8 -13  289.37   20.60
  -3  -8 -13  135.79   13.10
  -3  -8 -13  108.49   12.10
   2  -9 -13    9.40    5.60
   2  -9 -13   15.40    5.50
   1  -9 -13   11.60    4.40
   1  -9 -13   14.60    7.10
   1  -9 -13   16.50    4.60
   0  -9 -13   40.50    6.70
   0  -9 -13   55.49   10.90
  -1  -9 -13   30.50    7.50
  -1  -9 -13   38.90    8.50
   1   9  13   29.20    7.30
  -2  -9 -13   -4.60    3.10
  -2  -9 -13   -2.00    3.30
  -3  -9 -13  148.39   13.10
  -3  -9 -13  126.79   15.80
   3   9  13  126.59   15.70
   2 -10 -13   30.70    8.00
   2 -10 -13   21.70    7.90
   1 -10 -13   10.10    4.40
   1 -10 -13   17.40    5.10
   1 -10 -13   21.50    8.00
   0 -10 -13    1.00    3.40
  -1 -10 -13   24.50    7.00
  -1 -10 -13   15.60    6.00
   1  10  13   40.20    7.80
   2  10  13   -3.30    3.80
  -3 -10 -13   69.49   10.50
  -3 -10 -13   68.79   13.30
   3  10  13   72.89   13.40
   2 -11 -13  116.39   18.10
   2 -11 -13  120.89   15.60
   1 -11 -13   75.19    7.00
   1 -11 -13   84.19    9.10
   1 -11 -13   78.89   13.20
   0 -11 -13   22.30    5.30
   0 -11 -13    7.60    5.60
  -1 -11 -13   97.89   11.40
  -1 -11 -13  127.59   14.00
   1  11  13   95.19   11.60
  -2 -11 -13   47.10   10.90
  -2 -11 -13   65.39    8.70
   2  11  13   54.09   10.20
  -3 -11 -13   -3.20    3.40
  -3 -11 -13    0.80    4.80
   1 -12 -13   12.30    4.20
   1 -12 -13    9.10    4.40
   1 -12 -13   16.30    5.60
   1 -12 -13    9.80    5.40
   0 -12 -13  127.89   11.90
   0 -12 -13  128.09   17.00
  -1 -12 -13   34.60    8.20
  -1 -12 -13   43.90    9.30
  -2 -12 -13  199.18   19.00
  -2 -12 -13  198.48   12.50
   2  12  13  202.18   18.00
   1 -13 -13   -1.50    3.60
   1 -13 -13    4.20    5.60
   1 -13 -13   -0.50    2.90
   1 -13 -13   -8.20    3.50
   0 -13 -13   57.39   12.20
   0 -13 -13   42.50   12.60
   0 -13 -13   31.60    8.30
  -1 -13 -13   19.10    5.80
  -1 -13 -13   35.50    9.10
  -2 -13 -13   11.40    4.00
  -2 -13 -13   21.70    8.10
   2  13  13   22.40    7.40
   0 -14 -13   34.70   10.50
   0 -14 -13   69.19   11.50
   0 -14 -13   27.00    6.90
  -1 -14 -13   -4.40    4.10
  -1 -14 -13    5.90    5.40
  -1 -14 -13    0.00    3.50
  -1 -14 -13   -2.70    4.40
   0   8 -14  304.57   25.70
   0   8 -14  358.96   25.50
   0  -8  14  314.67   27.00
   1  -8  14   69.59   15.20
   1   7 -14   -7.30    6.50
   1   7 -14   -7.60    4.50
   1   7 -14   -2.20    6.50
  -1  -7  14    3.10    6.60
  -1  -7  14   -1.00    4.20
   0   7 -14   87.39   13.50
   0   7 -14   79.29   15.10
   0   7 -14   80.99   14.70
   0  -7  14   93.69   15.70
  -1   7 -14   38.20   11.00
  -1   7 -14   16.10    6.80
  -1   7 -14   17.80    8.20
   1  -7  14   21.20    7.00
  -2   7 -14    9.40    5.70
   2  -7  14   16.80    9.00
   1   6 -14   74.49   13.10
   1   6 -14   84.29   13.20
   1   6 -14   81.89   16.20
  -1  -6  14   70.09   11.40
  -1  -6  14   83.39   16.00
   0   6 -14   41.70    9.80
   0   6 -14   33.00    8.40
   0   6 -14   26.50    8.90
   0  -6  14   28.90    9.90
  -1   6 -14    3.20    5.50
  -1   6 -14    2.30    3.40
  -1   6 -14  -10.10    5.20
   1  -6  14   -9.80    4.10
   1  -6  14   -2.80    4.40
   2  -6  14   -8.80    3.90
   2  -6  14    9.00    5.50
   2   5 -14   42.40    9.60
   2   5 -14   33.00   10.30
   2   5 -14   31.60   10.80
   1   5 -14   76.39   13.60
   1   5 -14   87.89   14.60
   1   5 -14   88.19   13.50
  -1  -5  14   83.29   15.30
  -1  -5  14   71.49   10.30
   0   5 -14   83.19   12.40
   0   5 -14   76.99   11.90
   0   5 -14   94.09   14.80
   0  -5  14   77.39   12.90
  -1   5 -14  425.16   27.00
  -1   5 -14  386.66   28.50
  -1   5 -14  443.96   33.70
   1  -5  14  460.65   27.30
   1  -5  14  494.25   28.10
  -2   5 -14   31.10    8.20
  -2   5 -14   44.80   11.90
   2  -5  14   67.99   11.40
   2   4 -14   14.50    7.50
  -2  -4  14    0.60    3.70
   1   4 -14  118.29   14.90
   1   4 -14   84.69   13.30
   1   4 -14   77.69   17.40
  -1  -4  14   79.59    9.70
  -1  -4  14   68.79   13.60
   0   4 -14  212.98   18.80
   0   4 -14  207.48   17.70
   0   4 -14  198.08   18.20
   0  -4  14  191.88   16.00
   0  -4  14  195.78   21.80
  -1   4 -14  187.58   18.50
   1  -4  14  184.88   16.70
  -2   4 -14   60.29   12.50
  -2   4 -14  108.49   13.10
   2  -4  14   85.39   14.40
   2  -4  14   95.99   13.20
   3  -4  14   33.10    9.40
   1   3 -14   21.60    7.80
   1   3 -14   24.30    7.80
   1   3 -14   32.40    8.50
  -1  -3  14   26.60    6.70
   0   3 -14  541.25   28.60
   0   3 -14  579.84   29.00
   0   3 -14  521.95   26.30
   0  -3  14  469.75   26.60
   0  -3  14  475.45   23.70
  -1   3 -14    2.40    4.70
  -1   3 -14   12.20    5.00
   1  -3  14   12.90    5.40
   1  -3  14    8.00    4.60
   2  -3  14  192.58   19.20
   2  -3  14  206.98   16.90
   3  -3  14    4.70    6.80
   3  -3  14    4.50    5.60
   2   2 -14   62.29   13.10
   2   2 -14   36.00   11.20
   1   2 -14   56.09   10.50
   1   2 -14   75.19   12.10
   1   2 -14   61.09   12.30
  -1  -2  14   70.79    7.80
   0   2 -14   10.00    5.30
   0   2 -14    4.60    3.80
   0  -2  14    9.90    4.20
   0  -2  14    7.20    4.00
  -1   2 -14   97.19   11.90
   1  -2  14  112.99   12.90
   1  -2  14  137.59   13.00
  -2   2 -14   -1.10    4.40
   2  -2  14    4.20    4.00
   2  -2  14   -0.30    3.50
  -3   2 -14   41.90   11.80
   3  -2  14   17.90    6.60
   3  -2  14   22.30   11.00
   2   1 -14  428.76   26.80
   2   1 -14  319.67   27.90
   1   1 -14  151.08   14.80
   1   1 -14  143.09   17.60
   0   1 -14    7.00    4.50
   0   1 -14    9.30    5.00
   0  -1  14   10.10    5.00
   0  -1  14   13.10    4.60
  -1   1 -14  140.69   15.10
  -1   1 -14  148.79   15.40
   1  -1  14  151.88   12.20
   1  -1  14  138.89   13.90
  -2   1 -14   86.69   13.60
   2  -1  14   88.49   10.10
  -3   1 -14  149.59   21.60
   3  -1  14  158.58   19.20
   3  -1  14  195.68   16.70
   2   0 -14   19.90    8.10
   2   0 -14   13.30    7.10
   1   0 -14  838.22   32.90
   1   0 -14  856.61   41.80
   0   0 -14   14.30    6.00
   0   0 -14   16.30    5.20
   0   0  14    6.00    4.00
  -1   0 -14  699.93   34.00
  -1   0 -14  713.33   32.70
   1   0  14  626.44   31.50
   1   0  14  677.83   24.50
  -2   0 -14   -0.20    4.80
   2   0  14   -1.00    2.40
  -3   0 -14   54.99   11.90
   3   0  14   62.09    9.80
   2  -1 -14    2.20    4.30
   2  -1 -14    4.90    5.70
   1  -1 -14    6.30    3.80
   1  -1 -14   13.40    7.20
   0  -1 -14  557.74   30.80
   0  -1 -14  583.14   28.40
   0  -1 -14  580.44   22.10
   0   1  14  533.55   21.40
  -1  -1 -14   10.40    5.10
  -1  -1 -14   32.10    9.40
   1   1  14   23.00    7.00
  -2  -1 -14  578.54   30.00
  -3  -1 -14   -6.70    5.00
   3   1  14   -5.50    3.00
   3  -2 -14   41.60   12.50
   2  -2 -14   -0.30    4.00
   1  -2 -14   54.19    9.00
   1  -2 -14   82.49   13.80
   0  -2 -14    3.80    3.10
   0  -2 -14    9.00    5.10
   0  -2 -14   20.50    8.10
   0   2  14    9.10    4.50
  -1  -2 -14    3.00    5.00
  -1  -2 -14    7.60    5.20
   1   2  14    4.20    3.70
  -2  -2 -14    0.70    3.50
   2   2  14    0.00    3.30
  -3  -2 -14   32.40    8.90
   3   2  14   37.10   10.60
   3  -3 -14   11.20    8.40
   2  -3 -14  211.08   23.20
   2  -3 -14  204.28   17.50
   1  -3 -14   12.80    7.00
   1  -3 -14   19.10    5.20
   0  -3 -14  911.01   34.90
   0  -3 -14  888.01   40.80
   0   3  14  838.72   25.80
  -1  -3 -14   40.10    8.50
   1   3  14   36.80    7.40
  -2  -3 -14   54.49   10.10
   2   3  14   55.59   12.10
  -3  -3 -14    1.90    4.30
   3   3  14   -3.80    5.20
   2  -4 -14   13.30    7.70
   2  -4 -14    4.70    4.90
   1  -4 -14  399.36   28.60
   1  -4 -14  329.77   17.20
   0  -4 -14    5.60    5.10
   0   4  14    2.60    1.30
  -1  -4 -14  726.43   31.80
   1   4  14  736.83   29.10
   2   4  14   -7.90    2.90
  -3  -4 -14  394.46   25.60
   3   4  14  308.97   24.90
   2  -5 -14   20.30    7.80
   2  -5 -14   30.60    7.80
   1  -5 -14  355.06   17.30
   1  -5 -14  372.86   27.80
   0  -5 -14   51.29   10.50
  -1  -5 -14   91.39   12.10
   1   5  14   69.29    9.00
  -2  -5 -14   65.09   12.10
   2   5  14   59.59   10.60
  -3  -5 -14   10.40    6.00
   3   5  14    8.50    7.10
   2  -6 -14    8.60    5.20
   2  -6 -14    1.40    5.60
   1  -6 -14  134.09   17.50
   1  -6 -14  151.28   11.10
   0  -6 -14   48.90    9.70
  -1  -6 -14   11.80    5.40
   1   6  14   15.80    5.70
  -2  -6 -14  118.59   14.80
  -2  -6 -14  111.59   12.50
  -3  -6 -14    0.80    4.20
  -3  -6 -14    5.50    4.10
   2  -7 -14  122.49   19.00
   2  -7 -14  159.38   16.10
   1  -7 -14   64.39   12.90
   1  -7 -14   68.99    8.60
  -1  -7 -14   14.80    5.70
  -1  -7 -14   23.40    6.90
   1   7  14   15.10    5.60
  -2  -7 -14  283.77   20.00
  -2  -7 -14  323.27   20.90
  -3  -7 -14    0.40    4.00
  -3  -7 -14    0.80    4.50
   3   7  14   -8.30    4.60
   2  -8 -14  390.46   23.00
   2  -8 -14  358.56   30.80
   1  -8 -14  222.98   22.70
   0  -8 -14  237.58   13.00
   0  -8 -14  212.88   21.20
  -1  -8 -14   -2.20    2.60
  -1  -8 -14    0.10    3.70
   1   8  14   -1.70    2.50
  -2  -8 -14   -2.40    4.10
  -2  -8 -14   -4.20    3.00
  -3  -8 -14   65.29   12.70
  -3  -8 -14   65.29   11.90
   3   8  14   84.99   14.70
   2  -9 -14   58.69   11.80
   1  -9 -14  134.29   18.10
   0  -9 -14    2.20    2.50
   0  -9 -14    0.10    3.10
  -1  -9 -14  331.97   19.70
  -1  -9 -14  276.47   19.00
   1   9  14  308.07   20.60
  -2  -9 -14  164.18   15.70
  -2  -9 -14  153.98   15.00
   2   9  14  150.78   14.90
  -3  -9 -14   83.09   14.00
  -3  -9 -14  104.49   13.10
   3   9  14   83.99   16.70
   2 -10 -14    5.90    5.60
   2 -10 -14    0.00    4.10
   2 -10 -14    0.20    5.70
   1 -10 -14   13.70    7.30
   0 -10 -14   -2.00    2.50
   0 -10 -14   12.60    4.70
  -1 -10 -14   14.80    5.80
  -1 -10 -14   16.50    5.80
   1  10  14   26.00    6.60
  -2 -10 -14   20.10    8.10
  -2 -10 -14   29.30    7.80
   2  10  14   40.30    8.10
  -3 -10 -14    7.60    7.00
   1 -11 -14   17.10    7.00
   0 -11 -14   50.89    9.50
  -1 -11 -14   -2.90    4.20
  -1 -11 -14    1.00    3.50
   1  11  14    3.80    3.60
  -2 -11 -14    9.20    5.40
  -2 -11 -14   -1.20    3.90
   2  11  14    3.60    5.80
   1 -12 -14    9.50    5.60
   1 -12 -14    4.40    3.00
   0 -12 -14  367.26   19.90
   0 -12 -14  350.96   29.10
  -1 -12 -14   76.59   14.00
  -1 -12 -14   80.69   11.20
  -2 -12 -14   93.29   12.60
  -2 -12 -14   90.39   11.50
   0 -13 -14    3.00    4.00
   0 -13 -14    1.40    4.20
   0 -13 -14    3.10    3.70
  -1 -13 -14   -1.70    5.00
  -1 -13 -14   -2.10    5.40
  -1 -13 -14   12.70    5.20
   0   7 -15    2.00    5.60
   0   7 -15   12.20    6.60
   0  -7  15   18.60    6.80
  -1   7 -15  145.39   15.90
   1  -7  15  135.39   19.00
   1  -7  15  182.68   19.40
   1   6 -15   59.79   13.20
   1   6 -15   64.39   12.90
  -1  -6  15   51.99   12.50
  -1  -6  15   60.49   11.30
   0   6 -15    3.40    6.10
   0   6 -15    1.30    5.50
   0   6 -15   -6.40    5.40
   0  -6  15    0.30    6.50
  -1   6 -15  118.89   14.00
   1  -6  15  132.19   16.90
   1  -6  15  100.49   16.20
   1   5 -15  173.38   19.60
   1   5 -15  172.58   20.20
   1   5 -15  184.88   20.00
  -1  -5  15  195.68   17.30
  -1  -5  15  180.68   19.50
   0   5 -15    9.50    6.80
   0   5 -15   28.00    8.10
   0   5 -15   24.10    7.90
   0  -5  15   20.30    8.10
  -1   5 -15   17.40    7.00
  -1   5 -15   12.70    8.00
   1  -5  15   10.80    6.80
   1  -5  15   11.70    7.40
  -2   5 -15   37.10    9.20
   2  -5  15   31.70    9.40
   2  -5  15   34.30   11.80
   1   4 -15  207.88   20.10
   1   4 -15  189.08   20.40
   1   4 -15  242.88   21.00
  -1  -4  15  216.08   21.20
  -1  -4  15  189.88   14.90
   0   4 -15  139.09   15.10
   0   4 -15  167.08   17.80
   0   4 -15  137.69   15.40
   0  -4  15  164.98   16.50
   0  -4  15  135.09   14.00
  -1   4 -15   22.90    7.70
  -1   4 -15   30.60   10.40
   1  -4  15   42.90   11.00
   1  -4  15   48.30   10.50
  -2   4 -15  224.08   19.90
   2  -4  15  275.57   20.80
   2  -4  15  238.38   25.40
   2   3 -15  138.29   22.00
   1   3 -15   21.80    7.30
   1   3 -15   51.29   12.30
  -1  -3  15   12.30    5.00
   0   3 -15  463.05   33.20
   0   3 -15  398.26   26.10
   0   3 -15  420.86   23.10
   0  -3  15  400.06   27.30
   0  -3  15  359.26   23.30
  -1   3 -15    2.40    5.80
  -1   3 -15   -6.00    3.00
   1  -3  15    1.70    4.60
  -2   3 -15  193.98   18.20
  -2   3 -15  215.98   22.00
   2  -3  15  174.08   16.60
   2  -3  15  205.58   20.40
   2   2 -15    5.20    9.60
   1   2 -15   22.90    7.70
   1   2 -15   28.00    7.30
   1   2 -15   30.50    8.90
   0   2 -15   18.70    6.60
   0   2 -15   14.90    7.00
   0  -2  15    9.50    5.60
  -1   2 -15  231.58   23.60
  -1   2 -15  212.08   19.00
   1  -2  15  252.57   19.10
   1  -2  15  249.38   17.50
  -2   2 -15    7.40    6.70
   2  -2  15    4.10    5.10
   2  -2  15    1.60    3.90
   2   1 -15    3.80    5.90
   2   1 -15    8.60   11.40
   1   1 -15   12.50    4.20
   1   1 -15    3.20    5.70
   1   1 -15    1.60    4.10
  -1  -1  15    3.00    1.90
  -1  -1  15    0.10    1.80
   0   1 -15  109.59   13.60
   0   1 -15  119.49   11.20
   0   1 -15  142.89   16.60
   0  -1  15  102.59   12.00
  -1   1 -15  234.18   19.30
  -1   1 -15  234.98   19.90
   1  -1  15  203.48   17.20
   1  -1  15  233.28   15.80
  -2   1 -15   29.70   10.50
   2  -1  15   25.30    6.30
   2  -1  15   16.20    7.00
   3  -1  15   -6.80    5.90
   3  -1  15   -5.90    4.40
   2   0 -15   37.70   10.00
   1   0 -15  334.87   26.50
   0   0 -15    3.50    4.20
   0   0 -15    2.70    2.80
   0   0 -15   -0.60    3.50
   0   0  15   -0.30    2.50
  -1   0 -15  346.97   24.70
  -1   0 -15  373.86   24.40
   1   0  15  357.76   17.60
   1   0  15  341.57   21.60
  -2   0 -15   -3.60    5.40
   2   0  15    3.70    2.50
   2   0  15   -0.10    4.70
  -3   0 -15   -5.80    6.50
   3   0  15   -9.00    4.00
   3   0  15   -3.10    6.60
   2  -1 -15  198.98   19.30
   2  -1 -15  205.78   27.90
   1  -1 -15    7.30    4.40
   1  -1 -15    0.50    4.30
   0  -1 -15  922.91   29.10
   0  -1 -15  973.90   43.10
   0  -1 -15  923.61   38.00
  -1  -1 -15    3.40    5.20
  -1  -1 -15   14.20    6.20
  -2  -1 -15  336.97   24.50
   2   1  15  317.07   24.90
  -3  -1 -15    8.50    8.30
   3   1  15   -0.60    4.70
   3   1  15   -4.80    3.80
   2  -2 -15  128.49   16.60
   1  -2 -15   29.90    7.20
   1  -2 -15   36.50   10.60
   0  -2 -15   72.29   10.50
   0  -2 -15   51.99   11.20
   0  -2 -15   52.39    6.80
  -1  -2 -15   10.40    5.00
  -1  -2 -15    9.70    5.10
   1   2  15    8.40    4.70
  -2  -2 -15   -8.80    3.40
  -3  -2 -15   82.69   17.50
   3   2  15  100.39   15.50
   2  -3 -15  147.69   17.00
   1  -3 -15    1.10    3.50
   1  -3 -15   10.30    6.00
   0  -3 -15   42.20    9.20
   0  -3 -15   24.60    8.60
  -1  -3 -15   13.20    6.00
  -1  -3 -15   23.40    8.60
   1   3  15   21.00    6.30
  -2  -3 -15   49.10   11.40
  -3  -3 -15   -2.10   10.60
   3   3  15   10.40    7.50
   2  -4 -15   33.00    8.70
   2  -4 -15   39.80   15.50
   1  -4 -15  684.73   39.10
   1  -4 -15  634.74   24.50
   0  -4 -15   88.19   13.60
   0  -4 -15   81.39   11.10
  -1  -4 -15  371.26   27.10
  -1  -4 -15  437.86   25.60
   1   4  15  432.66   22.50
  -2  -4 -15   -2.50    4.80
  -3  -4 -15  133.29   18.50
   3   4  15  154.88   19.60
   2  -5 -15   21.80    7.60
   2  -5 -15    3.90    5.00
   1  -5 -15  167.98   12.00
   1  -5 -15  166.18   19.80
  -1  -5 -15  150.08   15.30
  -1  -5 -15  145.29   17.30
   1   5  15  153.78   13.40
  -2  -5 -15  176.38   18.30
  -3  -5 -15   -0.10    6.00
   3   5  15   13.50    7.40
   2  -6 -15    3.40    8.20
   2  -6 -15    5.90    5.40
   1  -6 -15   37.60    7.50
   1  -6 -15   54.19   10.50
  -1  -6 -15    7.40    6.40
  -1  -6 -15    0.90    4.20
   1   6  15   -2.10    2.30
  -2  -6 -15  152.88   17.00
  -3  -6 -15   26.80    8.20
   3   6  15    9.60    5.80
   2  -7 -15   57.09   11.00
   1  -7 -15    3.70    5.30
   0  -7 -15  118.39   16.20
  -1  -7 -15    5.70    4.00
   1   7  15   -5.80    2.60
  -2  -7 -15   33.50    8.70
  -2  -7 -15   33.80    9.20
   2   7  15   32.10    9.00
  -3  -7 -15    8.40    6.80
  -3  -7 -15    6.40    4.70
   3   7  15    7.10    7.70
   2  -8 -15   47.60    9.60
   2  -8 -15   30.10   11.30
   1  -8 -15    6.40    4.70
  -1  -8 -15  130.09   13.60
  -1  -8 -15  120.09   11.50
  -2  -8 -15    6.70    6.70
  -2  -8 -15    2.20    4.60
   2   8  15   12.10    6.00
  -3  -8 -15   57.29   12.40
   3   8  15   70.59   14.10
   1  -9 -15  244.18   23.90
   0  -9 -15  113.99   15.50
  -1  -9 -15  329.97   19.30
  -1  -9 -15  335.97   20.70
  -1  -9 -15  309.87   26.20
   1   9  15  252.67   17.20
  -2  -9 -15   31.50    8.60
  -2  -9 -15   19.60    6.80
   2   9  15    8.60    5.80
   0 -10 -15   58.99    7.60
   0 -10 -15   68.89   12.70
  -1 -10 -15   -0.60    3.60
  -1 -10 -15    5.80    4.80
   1  10  15    6.00    2.70
  -2 -10 -15   12.00    5.40
  -2 -10 -15    7.80    4.50
   2  10  15   12.10    5.50
   1 -11 -15   37.10   10.00
   0 -11 -15    0.10    3.10
   0 -11 -15   -2.90    4.50
  -1 -11 -15    2.30    4.20
  -1 -11 -15  -12.00    4.80
  -1 -11 -15   -1.10    3.80
   1  11  15   -5.30    2.80
  -2 -11 -15   -2.70    4.70
  -2 -11 -15    7.20    5.20
   2  11  15   -5.30    4.50
   0 -12 -15   29.30    6.50
  -1 -12 -15   16.00    5.90
  -1 -12 -15   -3.80    5.60
  -1 -12 -15    3.40    4.90
   0   5 -16   95.59   15.60
   0   5 -16   79.39   13.60
   0  -5  16   42.00   10.40
  -1   5 -16   10.50    7.30
   1  -5  16    1.60    7.50
   1  -5  16   10.80    7.20
   1   4 -16   19.40    8.70
   1   4 -16   18.50    8.40
  -1  -4  16   -7.80    3.90
  -1  -4  16   -3.90    4.10
   0   4 -16   27.60    8.80
   0   4 -16   40.30    9.30
   0  -4  16   28.00    8.30
  -1   4 -16   58.49   11.90
   1  -4  16   52.09   11.90
   1  -4  16   63.59   13.00
   1   3 -16   -0.50    5.80
   1   3 -16    9.60    6.30
  -1  -3  16   -7.60    3.10
  -1  -3  16    1.70    3.40
   0   3 -16  138.19   17.20
   0   3 -16  134.59   16.20
   0   3 -16  132.39   14.90
   0  -3  16  113.19   15.50
  -1   3 -16   59.59   12.80
  -1   3 -16   70.39   10.80
   1  -3  16   80.29   13.50
   1  -3  16   66.89   11.80
  -2   3 -16   70.69   12.00
   2  -3  16   66.99   15.30
   0   2 -16   -8.00    4.00
   0   2 -16   -1.30    3.90
   0   2 -16    1.40    4.70
   0  -2  16   -8.70    4.20
  -1   2 -16  407.96   26.80
  -1   2 -16  393.86   26.50
   1  -2  16  374.86   22.40
  -2   2 -16    3.40    5.00
   2  -2  16    7.40    5.30
   1   1 -16   25.80    9.50
   1   1 -16   23.10    7.20
   1   1 -16   29.30    8.20
   0   1 -16   20.10    7.30
   0   1 -16   26.10    6.90
   0   1 -16   13.60    5.40
  -1   1 -16   -6.70    4.10
  -1   1 -16   -1.40    4.70
   1  -1  16   -3.40    3.80
   1  -1  16    4.60    6.00
  -2   1 -16   34.80   10.40
  -2   1 -16   37.80   10.30
   2  -1  16   59.99   13.80
   1   0 -16  329.47   23.70
   1   0 -16  364.66   29.30
   1   0 -16  351.76   22.00
   0   0 -16   31.90    7.10
   0   0 -16   11.20    6.10
   0   0 -16   30.60    9.60
   0   0  16    0.60    3.60
  -1   0 -16    4.60    5.40
  -1   0 -16   27.70    8.30
   1   0  16   14.30    5.50
  -2   0 -16    2.50    6.20
   2   0  16    1.70    5.20
   2   0  16   -2.60    3.20
   2  -1 -16  152.78   21.10
   2  -1 -16  153.68   18.40
   1  -1 -16   37.50   11.30
   0  -1 -16  541.45   21.70
   0  -1 -16  509.45   31.90
  -1  -1 -16    4.10    4.90
  -1  -1 -16    5.10    7.10
   1   1  16   -5.60    3.20
  -2  -1 -16  494.25   30.70
   2   1  16  458.65   27.50
   3   1  16    9.10    6.30
   2  -2 -16   30.00    8.60
   2  -2 -16   25.50   10.40
   1  -2 -16   21.20    8.50
   1  -2 -16    7.90    5.30
   0  -2 -16   30.30    9.10
   0  -2 -16    8.00    6.40
   0   2  16   -1.80    3.20
  -1  -2 -16  200.08   19.90
  -1  -2 -16  172.68   17.60
   1   2  16  161.18   14.70
  -2  -2 -16    7.20    8.80
   2   2  16   17.20    6.00
  -3  -2 -16   93.69   18.10
   3   2  16  134.79   18.30
   2  -3 -16   32.50   11.70
   2  -3 -16   40.60    9.40
   1  -3 -16   13.40    4.90
   1  -3 -16    5.10    5.50
   0  -3 -16  103.89   14.90
   0  -3 -16   75.09   12.40
  -1  -3 -16  165.38   17.00
  -1  -3 -16  161.88   18.00
   2   3  16   -0.60    4.80
   3   3  16    5.50    5.80
   2  -4 -16   13.60    7.00
   2  -4 -16    6.80    8.00
   1  -4 -16  114.29   17.10
   1  -4 -16  100.09   10.80
   0  -4 -16   11.40    6.30
   0  -4 -16    9.80    5.90
   0   4  16    5.20    1.80
  -1  -4 -16  331.17   23.30
  -1  -4 -16  328.57   25.60
  -2  -4 -16    4.40    6.00
   2   4  16   11.90    5.40
  -3  -4 -16   32.00   10.20
   3   4  16   45.90   10.90
   2  -5 -16   88.49   15.40
   2  -5 -16   89.59   18.20
   1  -5 -16   67.59   12.80
   1  -5 -16   57.49    8.40
   0  -5 -16   93.69   14.00
   0  -5 -16   82.49   12.10
  -1  -5 -16    4.20    4.90
  -1  -5 -16   20.40    7.80
  -2  -5 -16  165.88   18.70
   2   5  16  183.18   17.90
  -3  -5 -16   -0.40    8.20
   3   5  16    5.70    7.20
   1  -6 -16   18.00    7.40
  -1  -6 -16   72.89   14.20
  -1  -6 -16  115.69   14.90
  -2  -6 -16   77.29   14.60
   2   6  16   49.60   11.60
   1  -7 -16   -0.50    5.50
   0  -7 -16   44.20   12.10
  -1  -7 -16   28.50    9.60
  -1  -7 -16   55.69   11.60
  -2  -7 -16   15.50    7.80
   2   7  16   10.30    5.10
   1  -8 -16   73.19   14.50
   0  -8 -16    4.00    4.90
  -1  -8 -16   26.80    8.20
  -1  -8 -16   33.70   10.30
  -2  -8 -16    0.00    4.30
  -2  -8 -16  -11.60    5.00
   2   8  16    7.50    6.00
   1  -9 -16  270.27   26.10
  -2  -9 -16    1.10    3.50
   2   9  16   -6.10    5.00
   0 -10 -16   36.80   10.80
  -1 -10 -16   -5.00    4.30
  -1 -10 -16   -2.60    5.20
  -1 -10 -16   10.00    4.20
   1  10  16   -6.20    2.50
   0 -11 -16   20.30    7.60
   0 -11 -16   29.10    6.40
  -1 -11 -16   -2.20    4.10
  -1 -11 -16   -1.40    5.40
  -1 -11 -16   -9.40    3.70
   0   3 -17  127.39   17.50
   0   3 -17  146.79   15.40
   0  -3  17  161.58   18.60
  -1   3 -17   -1.90    6.00
   1  -3  17    8.10    6.80
   1  -3  17   15.40    6.20
   0   2 -17   35.00    9.60
   0   2 -17   21.40    7.30
  -1   2 -17  227.48   20.90
   1  -2  17  213.48   19.80
   1   1 -17    5.30    4.60
   1   1 -17    7.50    8.50
   0   1 -17   17.40    7.10
   0  -1  17    1.50    4.30
  -1   1 -17    3.00    6.00
  -2   1 -17  111.69   16.10
   2  -1  17  120.29   18.60
   1   0 -17   -8.60    6.20
   1   0 -17    9.70    5.40
   0   0 -17    9.80    4.90
   0   0 -17   14.10    7.90
   0   0 -17    8.90    6.80
   0   0  17    2.40    3.90
  -1   0 -17   75.19   14.50
  -1   0 -17   94.09   14.40
  -2   0 -17    6.40    6.30
   2   0  17    6.30    6.10
   1  -1 -17   44.10   12.70
   0  -1 -17  247.38   23.00
   0  -1 -17  264.77   22.50
   0  -1 -17  242.48   15.10
  -1  -1 -17    8.10    6.10
  -1  -1 -17    1.70    5.40
   1   1  17   -1.80    4.00
   2   1  17   96.39   14.60
   1  -2 -17  129.19   18.50
   1  -2 -17  132.59   12.80
   0  -2 -17   45.20   11.50
   0  -2 -17   41.80   10.90
  -1  -2 -17  372.16   26.30
  -1  -2 -17  350.16   27.30
  -2  -2 -17   -7.70    6.00
   2   2  17    2.90    5.90
   1  -3 -17  204.98   15.20
   1  -3 -17  185.08   22.00
   0  -3 -17   12.30    7.10
   0  -3 -17    2.70    5.10
   0   3  17   11.20    2.60
  -1  -3 -17   67.79   13.60
  -1  -3 -17   70.89   12.80
  -2  -3 -17    6.40    9.10
   2   3  17   21.90    8.10
   1  -4 -17   75.59   10.60
   1  -4 -17   59.09   14.40
   0  -4 -17   -4.80    5.20
   0  -4 -17   -3.00    5.20
   0   4  17    1.80    2.10
  -1  -4 -17    6.80    5.20
  -1  -4 -17    7.10    5.50
   1   4  17   -5.20    3.60
  -2  -4 -17   14.90    7.50
   2   4  17   20.00    8.10
   1  -5 -17   76.39   15.60
  -1  -5 -17   -3.40    7.40
  -1  -5 -17   11.10    7.70
   1   5  17    1.90    3.30
  -2  -5 -17   81.49   16.80
   2   5  17   84.19   13.00
   1  -6 -17   14.20    7.80
   0  -6 -17  121.39   16.60
   0  -6 -17   81.69   16.90
  -1  -6 -17   34.30   13.30
   2   6  17   79.49   13.40
   1  -7 -17   35.90   11.80
   0  -7 -17   27.60    9.70
   0  -7 -17   20.50    6.90
  -1  -7 -17  142.49   17.40
  -1  -7 -17  136.69   18.80
  -2  -7 -17  -12.50    6.20
   2   7  17   -6.40    4.20
   0  -8 -17    1.90    6.60
   0  -8 -17   -9.00    5.20
  -1  -8 -17   13.70    5.90
  -1  -8 -17   12.80    7.70
   0  -9 -17   -3.50    5.50
   0  -9 -17    6.30    5.70
  -1  -9 -17   77.89   14.50
  -1  -9 -17   57.59   13.70
   0  -1 -18  155.98   13.60
   0  -1 -18  155.48   20.60
  -1  -1 -18   -0.70    5.00
   0  -2 -18   12.20    6.80
   0   2  18    2.30    3.80
   0  -3 -18   -1.70    5.50
   0   3  18    3.90    3.20
  -1  -3 -18   11.60    8.00
   1   3  18    8.60    4.70
   0  -4 -18   45.30   11.80
  -1  -4 -18   32.90   11.20
  -1  -4 -18   57.29   14.30
   0  -5 -18   41.30   12.10
  -1  -5 -18    6.30    6.10
  -1  -5 -18    0.50    6.80
   1   5  18   -2.00    4.60
   0  -6 -18   69.79   14.40
  -1  -6 -18   35.00   10.70
  -1  -6 -18   12.90    7.70
   1   6  18   -0.70    4.60
   0   0   0    0.00    0.00
_computing_structure_solution     'SHELXT 2018/2 (Sheldrick, 2018)'
;
_shelx_hkl_checksum              52856
_shelx_res_file
;
TITL r12319-290k_a.res in P-1
    C:\Users\eb4924\DOCUME~1\PUBLIC~1\2020\MAA944~1\r12319-290k_a.res
    created by SHELXL-2018/3 at 13:33:44 on 30-Apr-2020
CELL 0.71073 4.1177 13.5016 14.1506 78.864 83.719 87.935
ZERR 2.0000 0.0013 0.0039 0.0042 0.012 0.012 0.012
LATT 1
SFAC C H CL I N
UNIT 24 10 8 4 2
BOND $H
MPLA 6 C1 C2 N1 C3 C4 C5 I1
MPLA 6 C7 C8 C9 C10 C11 C12 I1 N1
RTAB XANG C7 I1 N1
RTAB XBOND N1 I1
EQIV $1 -X,-Y,1-Z
DFIX 1.7 0.02 C8 Cl4A
DFIX 2.1 0.02 C8 I2
DFIX 2.1 0.02 C12 I2A
DFIX 1.7 0.02 C12 Cl4
HTAB C2 I2A_$1
ACTA
HTAB 2.0
LIST 4 1
TEMP 16.85
L.S. 16
WGHT    0.021300    0.601000
FVAR       0.59242   0.58949
I1    4    0.241950    0.268516    0.516266    11.00000    0.04061    0.05105 =
         0.03022   -0.00170    0.00041   -0.00472
CL1   3    0.540928    0.540034    0.151893    11.00000    0.08885    0.04330 =
         0.04554    0.00884   -0.00264   -0.00135
CL2   3    0.927781    0.374308    0.063065    11.00000    0.08771    0.06819 =
         0.03309   -0.00814    0.01493   -0.01211
PART 1
I2    4    0.208910    0.515411    0.374127    21.00000    0.05352    0.04740 =
         0.04248   -0.01277   -0.00255    0.01251
PART 0
CL3   3    0.989675    0.158918    0.183451    11.00000    0.06212    0.05815 =
         0.05819   -0.02768    0.00326    0.00531
PART 1
CL4   3    0.657975    0.106160    0.392403    21.00000    0.08472    0.02949 =
         0.05667    0.00519   -0.00497    0.01141
PART 0
N1    5   -0.068650    0.205405    0.709411    11.00000    0.05580    0.04247 =
         0.03844    0.00379    0.00274   -0.00100
C7    1    0.460853    0.302386    0.372033    11.00000    0.03179    0.04270 =
         0.02488   -0.00464   -0.00224   -0.00637
C8    1    0.437917    0.399711    0.317472    11.00000    0.03608    0.03657 =
         0.03288   -0.00822   -0.00698   -0.00277
C12   1    0.629159    0.227894    0.329971    11.00000    0.03633    0.03558 =
         0.03494   -0.00329   -0.00667   -0.00384
C11   1    0.773732    0.250646    0.235057    11.00000    0.03632    0.04276 =
         0.03936   -0.01534   -0.00259   -0.00474
C9    1    0.579015    0.421077    0.221439    11.00000    0.04739    0.03988 =
         0.03158    0.00053   -0.00607   -0.00834
C10   1    0.749205    0.346589    0.180963    11.00000    0.04422    0.04880 =
         0.03166   -0.00824    0.00064   -0.00935
C2    1   -0.238656    0.121630    0.719368    11.00000    0.05876    0.04953 =
         0.02759   -0.00569   -0.00474    0.00616
AFIX  43
H2    2   -0.275618    0.098770    0.663601    11.00000   -1.20000
AFIX   0
C1    1   -0.363660    0.066509    0.807441    11.00000    0.04821    0.03808 =
         0.03621   -0.00309   -0.00184   -0.00181
AFIX  43
H1    2   -0.484620    0.008961    0.810271    11.00000   -1.20000
AFIX   0
C4    1   -0.130289    0.185590    0.881174    11.00000    0.06453    0.04487 =
         0.03630   -0.00911   -0.00432   -0.00464
AFIX  43
H4    2   -0.087602    0.210442    0.935376    11.00000   -1.20000
AFIX   0
C5    1   -0.306532    0.098077    0.892008    11.00000    0.04516    0.04114 =
         0.03143   -0.00341   -0.00223    0.00467
C3    1   -0.017634    0.236062    0.789284    11.00000    0.06231    0.04125 =
         0.04680   -0.00262   -0.00185   -0.00952
AFIX  43
H3    2    0.100320    0.294730    0.783742    11.00000   -1.20000
AFIX   0
C6    1   -0.423205    0.043454    0.989245    11.00000    0.05561    0.04623 =
         0.03086   -0.00390   -0.00173    0.00170
AFIX  43
H6    2   -0.384953    0.073143    1.040995    11.00000   -1.20000
AFIX   0
PART 2
CL4A  3    0.244084    0.498171    0.368406   -21.00000    0.08341    0.07006 =
         0.06075   -0.00734    0.01505    0.03522
I2A   4    0.664927    0.080686    0.405851   -21.00000    0.06279    0.03285 =
         0.04718   -0.00065   -0.00743    0.00210
HKLF 4
REM  r12319-290k_a.res in P-1
REM wR2 = 0.0654, GooF = S = 1.111, Restrained GooF = 1.113 for all data
REM R1 = 0.0288 for 2928 Fo > 4sig(Fo) and 0.0393 for all 3508 data
REM 191 parameters refined using 4 restraints
END
WGHT      0.0213      0.6010
REM Instructions for potential hydrogen bonds
HTAB C2 I2A_$1
REM Highest difference peak  0.719,  deepest hole -0.585,  1-sigma level  0.094
Q1    1   0.3063  0.2185  0.5003  11.00000  0.05    0.72
Q2    1   0.4873  0.2733  0.5190  11.00000  0.05    0.58
Q3    1   0.7372  0.2760  0.5139  11.00000  0.05    0.55
Q4    1   0.7574  0.3581  0.0586  11.00000  0.05    0.46
Q5    1  -0.0504  0.2634  0.5133  11.00000  0.05    0.46
Q6    1   0.3915  0.0773  0.4039  11.00000  0.05    0.39
Q7    1   0.9950  0.3250  0.0933  11.00000  0.05    0.38
Q8    1  -0.0511  0.5204  0.3657  11.00000  0.05    0.38
Q9    1   0.9187  0.0826  0.3988  11.00000  0.05    0.36
Q10   1   0.5912  0.3513  0.3405  11.00000  0.05    0.36
Q11   1   0.2529  0.3047  0.4202  11.00000  0.05    0.35
Q12   1   0.5009  0.6223  0.1636  11.00000  0.05    0.33
Q13   1   0.2697  0.0965  0.4038  11.00000  0.05    0.33
Q14   1   0.5952  0.5155  0.3789  11.00000  0.05    0.33
Q15   1  -0.5334  0.1876  0.9046  11.00000  0.05    0.32
Q16   1   0.0108  0.5004  0.4183  11.00000  0.05    0.31
Q17   1   0.5597  0.4055  0.2685  11.00000  0.05    0.31
Q18   1   0.9959  0.3850  0.0389  11.00000  0.05    0.30
Q19   1   0.6965  0.5221  0.3638  11.00000  0.05    0.30
Q20   1   0.0917  0.3580  0.4917  11.00000  0.05    0.30
;
_shelx_res_checksum              11328
loop_
_space_group_symop_operation_xyz
'x, y, z'
'-x, -y, -z'
loop_
_atom_site_type_symbol
_atom_site_label
_atom_site_fract_x
_atom_site_fract_y
_atom_site_fract_z
_atom_site_U_iso_or_equiv
_atom_site_adp_type
_atom_site_calc_flag
_atom_site_occupancy
_atom_site_disorder_assembly
_atom_site_disorder_group
I I1 0.24195(6) 0.26852(2) 0.51627(2) 0.04165(9) Uani d 1 . .
Cl Cl1 0.5409(3) 0.54003(8) 0.15189(8) 0.0619(3) Uani d 1 . .
Cl Cl2 0.9278(3) 0.37431(9) 0.06306(7) 0.0645(3) Uani d 1 . .
I I2 0.2089(4) 0.51541(16) 0.37413(14) 0.0477(2) Uani d 0.5895(13) A 1
Cl Cl3 0.9897(3) 0.15892(8) 0.18345(8) 0.0581(3) Uani d 1 . .
Cl Cl4 0.658(2) 0.1062(4) 0.3924(6) 0.0592(14) Uani d 0.5895(13) A 1
N N1 -0.0686(8) 0.2054(2) 0.7094(2) 0.0477(8) Uani d 1 . .
C C7 0.4609(8) 0.3024(2) 0.3720(2) 0.0333(7) Uani d 1 . .
C C8 0.4379(8) 0.3997(2) 0.3175(2) 0.0347(7) Uani d 1 . .
C C12 0.6292(8) 0.2279(2) 0.3300(2) 0.0358(7) Uani d 1 . .
C C11 0.7737(8) 0.2506(3) 0.2351(3) 0.0385(8) Uani d 1 . .
C C9 0.5790(9) 0.4211(3) 0.2214(3) 0.0403(8) Uani d 1 . .
C C10 0.7492(9) 0.3466(3) 0.1810(3) 0.0416(8) Uani d 1 . .
C C2 -0.2387(9) 0.1216(3) 0.7194(3) 0.0457(9) Uani d 1 . .
H H2 -0.275618 0.098770 0.663601 0.055 Uiso calc 1 . .
C C1 -0.3637(9) 0.0665(3) 0.8074(3) 0.0415(8) Uani d 1 . .
H H1 -0.484620 0.008961 0.810271 0.050 Uiso calc 1 . .
C C4 -0.1303(10) 0.1856(3) 0.8812(3) 0.0484(9) Uani d 1 . .
H H4 -0.087602 0.210442 0.935376 0.058 Uiso calc 1 . .
C C5 -0.3065(9) 0.0981(3) 0.8920(3) 0.0400(8) Uani d 1 . .
C C3 -0.0176(10) 0.2361(3) 0.7893(3) 0.0510(10) Uani d 1 . .
H H3 0.100320 0.294730 0.783742 0.061 Uiso calc 1 . .
C C6 -0.4232(9) 0.0435(3) 0.9892(3) 0.0450(9) Uani d 1 . .
H H6 -0.384953 0.073143 1.040995 0.054 Uiso calc 1 . .
Cl Cl4A 0.244(3) 0.4982(9) 0.3684(9) 0.075(3) Uani d 0.4105(13) A 2
I I2A 0.6649(7) 0.08069(16) 0.4059(2) 0.0485(4) Uani d 0.4105(13) A 2
loop_
_atom_site_aniso_label
_atom_site_aniso_U_11
_atom_site_aniso_U_22
_atom_site_aniso_U_33
_atom_site_aniso_U_12
_atom_site_aniso_U_13
_atom_site_aniso_U_23
I1 0.04061(14) 0.05105(15) 0.03022(13) -0.00472(10) 0.00041(9) -0.00170(10)
Cl1 0.0889(8) 0.0433(5) 0.0455(6) -0.0013(5) -0.0026(5) 0.0088(4)
Cl2 0.0877(8) 0.0682(7) 0.0331(5) -0.0121(6) 0.0149(5) -0.0081(5)
I2 0.0535(5) 0.0474(5) 0.0425(4) 0.0125(5) -0.0025(4) -0.0128(3)
Cl3 0.0621(6) 0.0582(6) 0.0582(6) 0.0053(5) 0.0033(5) -0.0277(5)
Cl4 0.0847(19) 0.029(2) 0.057(2) 0.0114(19) -0.0050(15) 0.0052(17)
N1 0.0558(19) 0.0425(17) 0.0384(18) -0.0010(14) 0.0027(15) 0.0038(14)
C7 0.0318(16) 0.0427(18) 0.0249(16) -0.0064(13) -0.0022(13) -0.0046(13)
C8 0.0361(17) 0.0366(17) 0.0329(18) -0.0028(13) -0.0070(14) -0.0082(14)
C12 0.0363(17) 0.0356(17) 0.0349(18) -0.0038(13) -0.0067(14) -0.0033(14)
C11 0.0363(18) 0.0428(19) 0.039(2) -0.0047(14) -0.0026(15) -0.0153(15)
C9 0.047(2) 0.0399(19) 0.0316(18) -0.0083(15) -0.0061(16) 0.0005(14)
C10 0.044(2) 0.049(2) 0.0317(19) -0.0094(16) 0.0006(16) -0.0082(16)
C2 0.059(2) 0.050(2) 0.0276(18) 0.0062(18) -0.0047(17) -0.0057(15)
C1 0.048(2) 0.0381(18) 0.036(2) -0.0018(15) -0.0018(16) -0.0031(15)
C4 0.065(2) 0.045(2) 0.036(2) -0.0046(18) -0.0043(18) -0.0091(16)
C5 0.0452(19) 0.0411(19) 0.0314(18) 0.0047(15) -0.0022(15) -0.0034(15)
C3 0.062(3) 0.041(2) 0.047(2) -0.0095(18) -0.002(2) -0.0026(17)
C6 0.056(2) 0.046(2) 0.0309(19) 0.0017(16) -0.0017(17) -0.0039(16)
Cl4A 0.083(4) 0.070(5) 0.061(4) 0.035(3) 0.015(2) -0.007(3)
I2A 0.0628(6) 0.0329(10) 0.0472(8) 0.0021(7) -0.0074(5) -0.0007(7)
loop_
_atom_type_symbol
_atom_type_description
_atom_type_scat_dispersion_real
_atom_type_scat_dispersion_imag
_atom_type_scat_source
C C 0.0033 0.0016 'International Tables Vol C Tables 4.2.6.8 and 6.1.1.4'
H H 0.0000 0.0000 'International Tables Vol C Tables 4.2.6.8 and 6.1.1.4'
Cl Cl 0.1484 0.1585 'International Tables Vol C Tables 4.2.6.8 and 6.1.1.4'
I I -0.4742 1.8119 'International Tables Vol C Tables 4.2.6.8 and 6.1.1.4'
N N 0.0061 0.0033 'International Tables Vol C Tables 4.2.6.8 and 6.1.1.4'
loop_
_geom_angle_atom_site_label_1
_geom_angle_atom_site_label_2
_geom_angle_atom_site_label_3
_geom_angle_site_symmetry_1
_geom_angle_site_symmetry_3
_geom_angle
_geom_angle_publ_flag
C3 N1 C2 . . 117.0(3) ?
C12 C7 C8 . . 119.1(3) ?
C12 C7 I1 . . 120.5(2) ?
C8 C7 I1 . . 120.4(2) ?
C7 C8 C9 . . 120.0(3) ?
C7 C8 Cl4A . . 121.1(5) ?
C9 C8 Cl4A . . 118.8(5) ?
C7 C8 I2 . . 122.1(3) ?
C9 C8 I2 . . 117.9(3) ?
C11 C12 C7 . . 120.2(3) ?
C11 C12 Cl4 . . 118.4(4) ?
C7 C12 Cl4 . . 121.3(4) ?
C11 C12 I2A . . 118.5(3) ?
C7 C12 I2A . . 121.2(3) ?
C10 C11 C12 . . 120.6(3) ?
C10 C11 Cl3 . . 119.0(3) ?
C12 C11 Cl3 . . 120.3(3) ?
C10 C9 C8 . . 120.2(3) ?
C10 C9 Cl1 . . 119.3(3) ?
C8 C9 Cl1 . . 120.5(3) ?
C11 C10 C9 . . 119.7(3) ?
C11 C10 Cl2 . . 120.5(3) ?
C9 C10 Cl2 . . 119.8(3) ?
N1 C2 C1 . . 123.9(4) ?
N1 C2 H2 . . 118.0 ?
C1 C2 H2 . . 118.0 ?
C2 C1 C5 . . 119.1(3) ?
C2 C1 H1 . . 120.4 ?
C5 C1 H1 . . 120.4 ?
C5 C4 C3 . . 119.7(4) ?
C5 C4 H4 . . 120.1 ?
C3 C4 H4 . . 120.1 ?
C4 C5 C1 . . 116.7(3) ?
C4 C5 C6 . . 120.1(3) ?
C1 C5 C6 . . 123.3(3) ?
N1 C3 C4 . . 123.5(4) ?
N1 C3 H3 . . 118.3 ?
C4 C3 H3 . . 118.3 ?
C6 C6 C5 2_457 . 126.7(5) ?
C6 C6 H6 2_457 . 116.6 ?
C5 C6 H6 . . 116.6 ?
loop_
_geom_bond_atom_site_label_1
_geom_bond_atom_site_label_2
_geom_bond_site_symmetry_2
_geom_bond_distance
_geom_bond_publ_flag
I1 C7 . 2.110(3) ?
Cl1 C9 . 1.726(4) ?
Cl2 C10 . 1.725(4) ?
I2 C8 . 2.046(4) ?
Cl3 C11 . 1.728(4) ?
Cl4 C12 . 1.716(6) ?
N1 C3 . 1.316(5) ?
N1 C2 . 1.328(5) ?
C7 C12 . 1.392(5) ?
C7 C8 . 1.395(5) ?
C8 C9 . 1.398(5) ?
C8 Cl4A . 1.758(11) ?
C12 C11 . 1.390(5) ?
C12 I2A . 2.077(4) ?
C11 C10 . 1.378(5) ?
C9 C10 . 1.384(5) ?
C2 C1 . 1.379(5) ?
C2 H2 . 0.9300 ?
C1 C5 . 1.391(5) ?
C1 H1 . 0.9300 ?
C4 C5 . 1.383(5) ?
C4 C3 . 1.385(5) ?
C4 H4 . 0.9300 ?
C5 C6 . 1.469(5) ?
C3 H3 . 0.9300 ?
C6 C6 2_457 1.320(7) ?
C6 H6 . 0.9300 ?
loop_
_geom_hbond_atom_site_label_D
_geom_hbond_atom_site_label_H
_geom_hbond_atom_site_label_A
_geom_hbond_site_symmetry_A
_geom_hbond_distance_DH
_geom_hbond_distance_HA
_geom_hbond_distance_DA
_geom_hbond_angle_DHA
_geom_hbond_publ_flag
C2 H2 I2A 2_556 0.93 3.31 4.072(5) 140.7 yes

_cod_database_fobs_code 2022112
