#------------------------------------------------------------------------------
#$Date: 2020-04-10 08:27:43 +0300 (Fri, 10 Apr 2020) $
#$Revision: 250640 $
#$URL: file:///home/coder/svn-repositories/cod/cif/2/02/20/2022061.cif $
#------------------------------------------------------------------------------
#
# This file is available in the Crystallography Open Database (COD),
# http://www.crystallography.net/. The original data for this entry
# were provided by IUCr Journals, http://journals.iucr.org/.
#
# The file may be used within the scientific community so long as
# proper attribution is given to the journal article from which the
# data were obtained.
#
data_2022061
loop_
_publ_author_name
'Jha, Kunal Kumar'
'Gruza, Barbara'
'Kumar, Prashant'
'Chodkiewicz, Michal Leszek'
'Dominiak, Paulina Maria'
_publ_section_title
;
 TAAM: a reliable and user friendly tool for hydrogen-atom location using
 routine X-ray diffraction data
;
_journal_issue                   3
_journal_name_full
'Acta Crystallographica Section B Structural Science, Crystal Engineering and Materials'
_journal_paper_doi               10.1107/S2052520620002917
_journal_volume                  76
_journal_year                    2020
_chemical_absolute_configuration unk
_chemical_formula_moiety         'C9 H6 O S'
_chemical_formula_sum            'C9 H6 O S'
_chemical_formula_weight         162.21
_space_group_crystal_system      orthorhombic
_space_group_IT_number           19
_space_group_name_Hall           'P 2ac 2ab'
_space_group_name_H-M_alt        'P 21 21 21'
_symmetry_Int_Tables_number      19
_audit_creation_date             2019-09-24
_audit_creation_method
;
Olex2 1.2
(compiled 2018.05.29 svn.r3508 for OlexSys, GUI svn.r5506)
;
_cell_angle_alpha                90
_cell_angle_beta                 90
_cell_angle_gamma                90
_cell_formula_units_Z            4
_cell_length_a                   4.0515(2)
_cell_length_b                   10.1749(7)
_cell_length_c                   17.6519(9)
_cell_measurement_temperature    90.0(2)
_cell_volume                     727.67(7)
_computing_molecular_graphics    'Olex2 (Dolomanov et al., 2009)'
_computing_publication_material  'Olex2 (Dolomanov et al., 2009)'
_computing_structure_refinement  'olex2.refine (Bourhis et al., 2015)'
_diffrn_ambient_temperature      90.0(2)
_diffrn_measured_fraction_theta_full 0.9919
_diffrn_measured_fraction_theta_max 0.9919
_diffrn_measurement_device_type  'CCD area detector Bruker Axs SMART APEX'
_diffrn_radiation_type           MoK\a
_diffrn_radiation_wavelength     0.71073
_diffrn_reflns_av_R_equivalents  0.0000
_diffrn_reflns_av_unetI/netI     0.0207
_diffrn_reflns_limit_h_max       8
_diffrn_reflns_limit_h_min       -8
_diffrn_reflns_limit_k_max       21
_diffrn_reflns_limit_k_min       0
_diffrn_reflns_limit_l_max       37
_diffrn_reflns_limit_l_min       0
_diffrn_reflns_number            7608
_diffrn_reflns_theta_full        50.1074
_diffrn_reflns_theta_max         50.11
_diffrn_reflns_theta_min         2.31
_exptl_absorpt_coefficient_mu    0.369
_exptl_crystal_density_diffrn    1.4806
_exptl_crystal_F_000             336.6354
_refine_diff_density_max         0.6515
_refine_diff_density_min         -0.4184
_refine_diff_density_rms         0.0774
_refine_ls_abs_structure_details
'Flack, H. D. (1983). Acta Cryst. A39, 876-881.'
_refine_ls_abs_structure_Flack   0.00(2)
_refine_ls_d_res_high            0.4632
_refine_ls_d_res_low             8.8260
_refine_ls_goodness_of_fit_ref   0.9945
_refine_ls_hydrogen_treatment    refall
_refine_ls_matrix_type           full
_refine_ls_number_constraints    0
_refine_ls_number_parameters     154
_refine_ls_number_reflns         7608
_refine_ls_number_restraints     0
_refine_ls_restrained_S_all      0.9945
_refine_ls_R_factor_all          0.0283
_refine_ls_R_factor_gt           0.0265
_refine_ls_shift/su_max          0.0445
_refine_ls_shift/su_mean         0.0046
_refine_ls_structure_factor_coef Fsqd
_refine_ls_weighting_details
'w=1/[\s^2^(Fo^2^)+(0.0434P)^2^] where P=(Fo^2^+2Fc^2^)/3'
_refine_ls_weighting_scheme      calc
_refine_ls_wR_factor_gt          0.0636
_refine_ls_wR_factor_ref         0.0642
_reflns_Friedel_coverage         0.986
_reflns_limit_h_max              8
_reflns_limit_h_min              -8
_reflns_limit_k_max              21
_reflns_limit_k_min              -21
_reflns_limit_l_max              37
_reflns_limit_l_min              -37
_reflns_number_gt                7126
_reflns_number_total             7608
_reflns_threshold_expression     I>=2u(I)
_iucr_refine_instructions_details
;
TITL 2H-chromene-2-thione
CELL 0.71073 4.0515 10.1749 17.6519 90 90 90
ZERR 4 0 0 0 0 0 0
LATT -1
SYMM 0.5-X,-Y,0.5+Z
SYMM 0.5+X,0.5-Y,-Z
SYMM -X,0.5+Y,0.5-Z
SFAC C H O S
UNIT 36 24 4 4

ACTA 
BOND $H
WGHT 0.043356 0
FVAR 0.998715
REM <olex2.extras>
REM <HklSrc "%.\\5bcb55c652b1ceb024b4115deb39dc81.hkl">
REM </olex2.extras>

S(1)  4     0.51597  0.94025  0.83665  11.00000  0.01864  0.01464  0.01703 =
 -0.00012 -0.00456  0.00001 
O(1)  3     0.23439  1.01198  0.71198  11.00000  0.01537  0.00992  0.01424 =
 -0.00016 -0.00032 -0.00103 
C(8)  1     0.05082  0.99619  0.64705  11.00000  0.01270  0.01082  0.01259 =
 -0.00008  0.00172 -0.00005 
C(3)  1     0.03657  0.76096  0.66971  11.00000  0.01710  0.01040  0.01583 =
 -0.00129  0.00158 -0.00187 
H(3)  2    -0.04280  0.66354  0.65333  11.00000  0.05619  0.03853  0.02301 =
 0.01505  0.00789  0.01788 
C(9)  1    -0.06134  0.87191  0.62486  11.00000  0.01264  0.01222  0.01325 =
 -0.00147  0.00209 -0.00107 
C(2)  1     0.22828  0.77907  0.73203  11.00000  0.01741  0.01010  0.01554 =
 0.00039  0.00067 -0.00059 
H(2)  2     0.30735  0.70010  0.76341  11.00000  0.04820  0.01472  0.04186 =
 0.00466  0.01740 -0.00095 
C(4)  1    -0.25400  0.86224  0.55854  11.00000  0.01465  0.01854  0.01443 =
 -0.00294  0.00086 -0.00146 
H(4)  2    -0.34342  0.76789  0.54304  11.00000  0.03102  0.04125  0.03710 =
 0.00188 -0.01544 -0.01009 
C(1)  1     0.31889  0.90860  0.75675  11.00000  0.01275  0.01109  0.01391 =
 0.00015  0.00087 -0.00011 
C(7)  1    -0.01546  1.10927  0.60494  11.00000  0.01694  0.01302  0.01491 =
 0.00177  0.00120  0.00069 
H(7)  2     0.07099  1.19946  0.62326  11.00000  0.02923  0.02300  0.04673 =
 0.01157 -0.00839 -0.00234 
C(6)  1    -0.20353  1.09671  0.53945  11.00000  0.01787  0.01958  0.01511 =
 0.00296  0.00078  0.00196 
H(6)  2    -0.25214  1.18356  0.50501  11.00000  0.04650  0.04444  0.03130 =
 0.00614 -0.00217  0.00329 
C(5)  1    -0.32428  0.97357  0.51615  11.00000  0.01641  0.02325  0.01399 =
 -0.00035  0.00005  0.00026 
H(5)  2    -0.46871  0.96927  0.46359  11.00000  0.03568  0.04581  0.04307 =
 0.00481 -0.00203  0.01575 
HKLF 4

END
Q1 1 0.541667 0.933333 0.833333 11 0.05 0.65
Q2 1 -0.125 1.1 0.572917 11 0.05 0.35
Q3 1 0.125 0.766667 0.697917 11 0.05 0.32
Q4 1 0.291667 1 0.6875 11 0.05 0.25
Q5 1 -0.166667 0.866667 0.59375 11 0.05 0.24
Q6 1 -0.25 0.716667 0.458333 11 0.05 0.2
Q7 1 0.125 1.066667 0.46875 11 0.05 0.18
Q8 1 -0.041667 0.766667 0.645833 11 0.05 0.18
Q9 1 -0.416667 0.7 0.520833 11 0.05 0.18
Q10 1 0.75 0.85 0.75 11 0.05 0.18
Q11 1 -0.25 1.35 0.572917 11 0.05 0.18
Q12 1 0.25 0.866667 0.75 11 0.05 0.18
Q13 1 0 0.916667 0.447917 11 0.05 0.17
Q14 1 0.125 0.9 0.510417 11 0.05 0.17
Q15 1 0.041667 1.133333 0.510417 11 0.05 0.17
Q16 1 0.916667 0.9 0.8125 11 0.05 0.17
Q17 1 0.458333 0.8 0.666667 11 0.05 0.16
Q18 1 -0.791667 1.033333 0.520833 11 0.05 0.15
Q19 1 -0.708333 0.683333 0.572917 11 0.05 0.15
Q20 1 0.291667 0.766667 0.760417 11 0.05 0.15

  REM The information below was added by Olex2.
  REM
  REM R1 = 0.0265 for 7126 Fo > 4sig(Fo) and 0.0283 for all 7608 data
  REM 154 parameters refined using 0 restraints
  REM Highest difference peak 0.6515, deepest hole -0.4184
  REM Mean Shift 0.0046, Max Shift 0.0445.

  REM +++ Tabular Listing of Refinement Information +++
  REM R1_all = 0.0283
  REM R1_gt = 0.0265
  REM wR_ref = 0.0642
  REM GOOF = 0.9945
  REM Shift_max = 0.0445
  REM Shift_mean = 0.0046
  REM Reflections_all = 7608
  REM Reflections_gt = 7126
  REM Parameters = 154
  REM Hole = -0.4184
  REM Peak = 0.6515
  REM Flack = 0.00(2)

  
;
_cod_data_source_file            6_TAAM_ANIS_max.cif
_cod_data_source_block           6_TAAM_ANIS_max
_cod_original_cell_volume        727.674(70)
_cod_original_sg_symbol_Hall     ' P 2ac 2ab'
_cod_database_code               2022061
_olex2_refinement_description
;
;
_iucr_refine_fcf_details
;
data_2H-chromene-2-thione
_computing_structure_refinement   'olex2.refine (Bourhis et al., 2015)'
_shelx_refln_list_code            4
loop_
  _space_group_symop_id
  _space_group_symop_operation_xyz
  1  x,y,z
  2  x+1/2,-y+1/2,-z
  3  -x,y+1/2,-z+1/2
  4  -x+1/2,-y,z+1/2

_space_group_crystal_system       orthorhombic
_space_group_IT_number            19
_space_group_name_H-M_alt         'P 21 21 21'
_space_group_name_Hall            ' P 2ac 2ab'
_symmetry_space_group_name_H-M    'P 21 21 21'
_symmetry_space_group_name_Hall   ' P 2ac 2ab'
_symmetry_Int_Tables_number       19
_cell_length_a                    4.0515
_cell_length_b                    10.1749
_cell_length_c                    17.6519
_cell_angle_alpha                 90
_cell_angle_beta                  90
_cell_angle_gamma                 90
_cell_volume                      727.674995
loop_
  _refln_index_h
  _refln_index_k
  _refln_index_l
  _refln_F_squared_calc
  _refln_F_squared_meas
  _refln_F_squared_sigma
  _refln_F_squared_weight
  _refln_observed_status
-8 -8 -5 1.343 2.416 0.702 130.257 o
-8 -8 -4 13.319 12.231 0.802 67.648 o
-8 -8 -3 6.733 6.527 0.612 141.780 o
-8 -8 -2 0.583 0.180 0.772 108.770 o
-8 -8 -1 1.625 1.013 0.521 235.363 o
-8 -7 -8 0.192 0.201 0.481 279.995 o
-8 -7 -7 9.010 9.234 0.652 111.871 o
-8 -7 -6 7.462 7.650 0.632 128.348 o
-8 -7 -5 10.924 11.690 0.702 89.165 o
-8 -7 -4 4.035 4.111 0.592 170.298 o
-8 -7 -3 0.867 0.592 0.531 228.814 o
-8 -7 -2 0.288 -0.531 0.722 124.464 o
-8 -7 -1 2.712 2.677 0.561 197.200 o
-8 -6 -10 0.917 0.812 0.732 120.764 o
-8 -6 -9 1.994 1.193 0.742 116.655 o
-8 -6 -8 1.661 1.323 0.521 234.756 o
-8 -6 -7 11.397 10.547 0.692 91.263 o
-8 -6 -6 13.347 13.104 1.203 36.477 o
-8 -6 -5 13.490 12.562 1.273 33.301 o
-8 -6 -4 16.857 15.179 1.343 28.151 o
-8 -6 -3 0.908 1.133 0.441 330.240 o
-8 -6 -2 2.079 2.366 0.571 193.353 o
-8 -6 -1 6.741 6.617 0.642 130.750 o
-8 -5 -12 4.618 5.053 0.812 92.382 o
-8 -5 -11 1.121 1.634 0.742 117.175 o
-8 -5 -10 1.459 1.253 0.752 113.989 o
-8 -5 -9 15.805 15.400 1.103 38.660 o
-8 -5 -8 4.096 4.301 0.592 169.582 o
-8 -5 -7 1.491 1.694 0.541 217.904 o
-8 -5 -6 17.364 16.562 1.023 40.661 o
-8 -5 -5 7.626 7.309 0.642 125.214 o
-8 -5 -4 3.375 3.198 0.471 267.246 o
-8 -5 -3 3.825 3.509 0.471 261.501 o
-8 -5 -2 0.808 0.993 0.431 346.356 o
-8 -5 -1 4.671 3.850 0.471 251.036 o
-8 -4 -13 0.009 -0.110 0.722 124.481 o
-8 -4 -12 4.366 4.622 0.832 88.891 o
-8 -4 -11 5.192 5.765 0.892 76.252 o
-8 -4 -10 10.065 10.467 1.013 53.128 o
-8 -4 -9 3.103 2.938 0.832 91.368 o
-8 -4 -8 15.709 13.224 2.386 10.616 o
-8 -4 -7 16.860 14.968 0.912 48.862 o
-8 -4 -6 3.631 3.098 0.471 265.342 o
-8 -4 -5 16.745 13.936 1.163 35.594 o
-8 -4 -4 5.205 4.772 0.491 224.074 o
-8 -4 -3 2.845 2.557 0.461 285.879 o
-8 -4 -2 13.678 11.389 1.023 47.718 o
-8 -4 -1 2.097 1.444 0.431 336.965 o
-8 -3 -14 7.425 6.467 1.113 48.647 o
-8 -3 -13 2.898 2.506 0.511 235.153 o
-8 -3 -12 4.120 3.098 0.983 65.373 o
-8 -3 -11 3.204 2.206 0.672 138.980 o
-8 -3 -10 4.292 3.449 1.233 41.822 o
-8 -3 -9 5.494 4.752 1.053 55.920 o
-8 -3 -8 10.077 8.632 1.915 16.892 o
-8 -3 -7 9.777 7.810 1.163 42.986 o
-8 -3 -6 0.402 0.561 0.431 348.275 o
-8 -3 -5 2.095 1.654 0.441 321.537 o
-8 -3 -4 1.515 1.724 0.441 325.428 o
-8 -3 -3 13.851 11.229 0.722 77.439 o
-8 -3 -2 5.154 4.852 0.491 224.178 o
-8 -3 -1 4.313 3.459 0.471 256.842 o
-8 -2 -14 0.103 -0.050 0.652 152.732 o
-8 -2 -13 1.467 0.872 0.401 395.869 o
-8 -2 -12 1.324 1.073 0.421 359.951 o
-8 -2 -11 15.960 13.806 1.454 25.436 o
-8 -2 -10 3.781 3.549 0.461 271.987 o
-8 -2 -9 7.211 7.750 0.812 85.105 o
-8 -2 -8 13.647 13.034 1.013 47.519 o
-8 -2 -7 28.031 26.398 1.353 19.945 o
-8 -2 -6 2.588 2.516 0.451 300.425 o
-8 -2 -5 1.765 1.785 0.381 429.440 o
-8 -2 -4 3.587 3.339 0.391 368.608 o
-8 -2 -3 13.201 11.209 0.762 74.044 o
-8 -2 -2 4.268 3.960 0.391 349.681 o
-8 -2 -1 1.437 1.313 0.361 484.308 o
-8 -1 -14 5.481 5.915 0.662 130.421 o
-8 -1 -13 5.679 5.434 0.501 209.112 o
-8 -1 -12 3.529 3.038 0.461 277.222 o
-8 -1 -11 7.568 7.138 0.872 75.036 o
-8 -1 -10 1.016 0.782 0.431 345.925 o
-8 -1 -9 5.354 5.655 0.652 134.965 o
-8 -1 -8 42.274 42.138 1.624 10.829 o
-8 -1 -7 26.123 26.929 0.983 28.517 o
-8 -1 -6 17.188 15.590 0.962 44.802 o
-8 -1 -5 10.602 9.585 0.962 57.690 o
-8 -1 -4 9.256 7.950 0.461 180.709 o
-8 -1 -3 10.634 8.642 0.461 162.341 o
-8 -1 -2 9.976 7.860 0.451 177.665 o
-8 -1 -1 1.032 0.892 0.361 491.046 o
-7 -13 -3 5.825 6.848 0.832 84.909 o
-7 -13 -2 1.504 2.557 0.752 113.424 o
-7 -13 -1 28.059 30.198 1.333 19.455 o
-7 -12 -9 17.191 19.340 1.083 36.540 o
-7 -12 -8 4.164 4.702 0.792 97.867 o
-7 -12 -7 5.866 6.898 0.852 81.210 o
-7 -12 -6 9.434 9.765 0.922 63.468 o
-7 -12 -5 2.665 2.938 0.782 103.647 o
-7 -12 -4 1.082 0.581 0.722 124.106 o
-7 -12 -3 0.437 0.481 0.732 121.007 o
-7 -12 -2 7.020 7.319 0.892 72.761 o
-7 -12 -1 2.137 3.559 0.812 96.480 o
-7 -11 -11 0.172 0.471 0.682 139.515 o
-7 -11 -10 6.975 6.607 0.852 79.638 o
-7 -11 -9 13.592 14.598 1.063 43.416 o
-7 -11 -8 22.765 23.841 1.273 24.697 o
-7 -11 -7 0.603 1.394 0.772 108.582 o
-7 -11 -6 9.015 9.745 0.962 59.647 o
-7 -11 -5 4.838 4.532 0.852 84.416 o
-7 -11 -4 1.030 1.043 0.762 111.337 o
-7 -11 -3 0.951 1.233 0.772 108.465 o
-7 -11 -2 18.666 17.746 1.163 32.658 o
-7 -11 -1 5.551 6.106 0.902 74.043 o
-7 -10 -13 7.989 9.434 0.892 69.667 o
-7 -10 -12 2.992 3.078 0.782 103.173 o
-7 -10 -11 2.885 3.820 0.822 93.319 o
-7 -10 -10 3.206 3.419 0.832 91.019 o
-7 -10 -9 0.772 0.411 0.772 108.694 o
-7 -10 -8 11.267 11.810 1.043 48.640 o
-7 -10 -7 7.182 6.988 0.942 65.961 o
-7 -10 -6 16.580 16.121 1.163 34.877 o
-7 -10 -5 8.410 9.073 1.003 56.640 o
-7 -10 -4 2.081 2.186 0.842 90.383 o
-7 -10 -3 0.841 1.163 0.812 98.104 o
-7 -10 -2 11.301 10.818 1.053 48.353 o
-7 -10 -1 0.706 0.782 0.812 98.206 o
-7 -9 -15 2.576 1.805 0.792 101.758 o
-7 -9 -14 0.908 0.692 0.752 114.455 o
-7 -9 -13 15.253 16.442 1.123 37.684 o
-7 -9 -12 23.212 24.994 0.942 33.205 o
-7 -9 -11 13.456 13.996 0.782 67.493 o
-7 -9 -10 18.483 19.951 0.892 44.041 o
-7 -9 -9 16.474 17.104 0.852 51.914 o
-7 -9 -8 7.712 8.041 0.702 106.769 o
-7 -9 -7 15.249 15.771 1.404 26.834 o
-7 -9 -6 25.181 25.285 1.043 28.419 o
-7 -9 -5 11.930 12.252 0.812 69.608 o
-7 -9 -4 7.290 8.211 0.742 98.441 o
-7 -9 -3 23.033 23.029 0.993 32.722 o
-7 -9 -2 7.187 7.469 0.732 102.101 o
-7 -9 -1 9.187 8.732 0.762 88.364 o
-7 -8 -17 10.270 10.728 1.003 53.636 o
-7 -8 -16 0.857 0.190 0.762 111.577 o
-7 -8 -15 0.238 0.030 0.762 111.712 o
-7 -8 -14 2.303 1.945 0.812 97.036 o
-7 -8 -13 20.097 21.034 1.283 26.695 o
-7 -8 -12 5.377 6.988 0.672 125.473 o
-7 -8 -11 20.535 21.345 0.922 38.972 o
-7 -8 -10 5.678 5.815 0.993 61.968 o
-7 -8 -9 0.759 0.762 0.602 178.716 o
-7 -8 -8 2.399 2.035 0.622 163.740 o
-7 -8 -7 16.236 16.783 0.892 49.785 o
-7 -8 -6 5.417 5.083 0.702 118.921 o
-7 -8 -5 1.571 2.196 0.932 74.103 o
-7 -8 -4 5.413 6.226 0.732 108.762 o
-7 -8 -3 3.314 3.569 0.682 133.327 o
-7 -8 -2 6.456 6.727 0.742 102.797 o
-7 -8 -1 1.477 1.374 0.632 161.008 o
-7 -7 -19 8.974 8.813 0.962 60.286 o
-7 -7 -18 4.758 5.915 0.602 157.592 o
-7 -7 -17 3.700 3.559 0.852 86.334 o
-7 -7 -16 2.240 2.055 0.812 97.043 o
-7 -7 -15 2.513 1.805 0.802 99.325 o
-7 -7 -14 1.053 0.902 0.802 100.534 o
-7 -7 -13 33.673 34.890 1.634 13.364 o
-7 -7 -12 4.302 4.862 0.952 68.637 o
-7 -7 -11 4.551 5.634 0.682 127.150 o
-7 -7 -10 17.026 18.437 0.912 46.074 o
-7 -7 -9 7.684 8.522 0.742 96.864 o
-7 -7 -8 11.033 11.550 0.812 72.433 o
-7 -7 -7 22.367 22.889 1.113 29.570 o
-7 -7 -6 10.671 10.918 0.832 71.293 o
-7 -7 -5 0.427 0.231 0.642 157.452 o
-7 -7 -4 16.712 17.124 1.855 16.323 o
-7 -7 -3 38.106 38.088 2.988 5.565 o
-7 -7 -2 13.514 13.194 1.013 47.581 o
-7 -7 -1 19.320 19.219 1.684 18.343 o
-7 -6 -20 19.473 21.515 1.273 27.200 o
-7 -6 -19 0.544 0.441 0.511 247.638 o
-7 -6 -18 0.934 1.083 0.521 237.063 o
-7 -6 -17 2.816 2.998 0.551 202.942 o
-7 -6 -16 7.897 8.542 0.662 115.510 o
-7 -6 -15 2.351 2.226 0.842 90.181 o
-7 -6 -14 1.906 1.835 0.852 88.505 o
-7 -6 -13 4.988 4.341 0.942 69.674 o
-7 -6 -12 28.015 30.107 1.584 15.981 o
-7 -6 -11 6.255 7.950 1.063 53.306 o
-7 -6 -10 27.090 27.962 1.073 25.337 o
-7 -6 -9 5.572 5.765 0.722 111.682 o
-7 -6 -8 7.961 8.041 0.772 90.606 o
-7 -6 -7 15.419 14.607 0.962 47.775 o
-7 -6 -6 10.016 10.948 0.832 72.642 o
-7 -6 -5 1.582 1.674 0.672 142.212 o
-7 -6 -4 23.146 23.049 1.875 14.353 o
-7 -6 -3 38.954 40.203 3.700 3.907 o
-7 -6 -2 2.377 2.928 0.712 124.972 o
-7 -6 -1 1.742 1.303 0.662 146.540 o
-7 -5 -20 8.320 9.133 0.983 58.749 o
-7 -5 -19 14.037 15.881 0.772 64.898 o
-7 -5 -18 3.018 2.938 0.551 202.142 o
-7 -5 -17 2.759 2.787 0.551 203.673 o
-7 -5 -16 4.491 4.792 0.592 166.523 o
-7 -5 -15 2.105 2.095 0.541 215.200 o
-7 -5 -14 1.814 2.055 0.872 84.507 o
-7 -5 -13 17.820 18.969 1.313 27.628 o
-7 -5 -12 0.038 -0.170 0.842 91.455 o
-7 -5 -11 3.786 4.151 0.983 65.252 o
-7 -5 -10 1.360 2.085 0.942 72.637 o
-7 -5 -9 1.197 0.782 0.932 74.430 o
-7 -5 -8 10.484 9.795 0.822 74.255 o
-7 -5 -7 9.842 8.933 1.414 29.899 o
-7 -5 -6 25.248 25.114 1.103 26.912 o
-7 -5 -5 3.114 2.998 0.712 123.674 o
-7 -5 -4 70.479 69.017 5.885 1.479 o
-7 -5 -3 20.495 20.082 1.003 36.355 o
-7 -5 -2 30.253 28.102 2.095 10.756 o
-7 -5 -1 2.091 1.885 0.682 137.285 o
-7 -4 -21 10.341 11.038 0.692 94.181 o
-7 -4 -20 10.844 10.567 0.692 93.214 o
-7 -4 -19 4.383 4.161 0.772 102.819 o
-7 -4 -18 6.092 6.326 0.612 145.569 o
-7 -4 -17 4.557 5.665 0.612 154.572 o
-7 -4 -16 10.005 10.878 0.712 91.879 o
-7 -4 -15 15.917 17.244 0.832 54.255 o
-7 -4 -14 1.824 2.246 0.561 201.145 o
-7 -4 -13 0.448 0.501 0.892 81.426 o
-7 -4 -12 17.302 18.738 1.374 26.146 o
-7 -4 -11 2.280 2.737 0.993 65.106 o
-7 -4 -10 3.722 3.459 0.993 64.223 o
-7 -4 -9 7.406 7.960 1.123 47.374 o
-7 -4 -8 9.915 10.387 0.842 72.076 o
-7 -4 -7 1.154 1.424 0.702 130.922 o
-7 -4 -6 58.322 59.142 6.276 1.415 o
-7 -4 -5 0.830 1.825 0.682 138.799 o
-7 -4 -4 28.188 26.749 1.845 13.384 o
-7 -4 -3 28.744 28.854 2.587 7.864 o
-7 -4 -2 11.667 11.349 1.504 25.813 o
-7 -4 -1 11.479 11.179 0.662 95.213 o
-7 -3 -22 7.257 7.780 0.632 129.016 o
-7 -3 -21 3.482 3.920 0.451 284.132 o
-7 -3 -20 1.182 1.544 0.431 343.116 o
-7 -3 -19 24.049 25.385 0.792 36.957 o
-7 -3 -18 14.273 14.277 0.642 81.618 o
-7 -3 -17 9.292 9.996 0.581 127.500 o
-7 -3 -16 4.124 5.153 0.511 216.967 o
-7 -3 -15 6.627 6.878 0.652 127.351 o
-7 -3 -14 16.972 18.257 0.722 59.496 o
-7 -3 -13 8.343 9.745 0.602 127.746 o
-7 -3 -12 12.250 12.672 0.852 63.917 o
-7 -3 -11 1.062 1.033 0.632 161.743 o
-7 -3 -10 5.512 6.156 0.722 111.312 o
-7 -3 -9 3.162 3.479 0.872 83.065 o
-7 -3 -8 33.232 33.596 1.013 20.814 o
-7 -3 -7 47.803 48.665 1.815 8.490 o
-7 -3 -6 17.987 18.508 0.792 52.004 o
-7 -3 -5 74.999 75.594 2.917 3.389 o
-7 -3 -4 25.972 24.994 1.404 20.229 o
-7 -3 -3 2.626 2.276 0.551 205.334 o
-7 -3 -2 5.141 4.421 0.602 159.367 o
-7 -3 -1 0.110 -0.461 0.872 85.255 o
-7 -2 -22 4.651 5.715 0.481 232.750 o
-7 -2 -21 8.052 8.863 0.541 153.236 o
-7 -2 -20 5.290 5.905 0.511 203.841 o
-7 -2 -19 22.242 23.601 0.782 41.060 o
-7 -2 -18 7.856 8.231 0.662 116.331 o
-7 -2 -17 8.155 8.462 0.571 142.638 o
-7 -2 -16 1.710 2.196 0.471 283.712 o
-7 -2 -15 14.506 15.490 0.892 53.615 o
-7 -2 -14 0.616 0.632 0.451 317.539 o
-7 -2 -13 0.789 0.201 0.461 304.021 o
-7 -2 -12 14.006 15.620 0.702 72.870 o
-7 -2 -11 6.642 7.319 0.772 94.746 o
-7 -2 -10 4.499 4.482 0.692 125.582 o
-7 -2 -9 32.751 34.328 1.243 17.884 o
-7 -2 -8 16.137 16.933 0.942 46.534 o
-7 -2 -7 21.730 20.292 1.303 25.461 o
-7 -2 -6 21.785 21.224 0.852 40.462 o
-7 -2 -5 18.242 17.475 1.303 28.118 o
-7 -2 -4 37.993 37.958 1.775 11.068 o
-7 -2 -3 3.660 3.419 0.561 191.167 o
-7 -2 -2 7.135 6.066 0.531 175.913 o
-7 -2 -1 27.032 22.037 1.193 24.635 o
-7 -1 -22 1.865 1.825 0.431 337.305 o
-7 -1 -21 4.321 4.672 0.481 241.476 o
-7 -1 -20 12.464 13.896 0.642 89.278 o
-7 -1 -19 7.566 7.600 0.561 153.292 o
-7 -1 -18 22.145 23.881 1.083 30.267 o
-7 -1 -17 2.824 2.938 0.491 252.652 o
-7 -1 -16 15.047 16.011 0.702 69.263 o
-7 -1 -15 17.724 19.239 0.762 53.820 o
-7 -1 -14 2.112 2.276 0.501 249.366 o
-7 -1 -13 6.559 6.848 0.581 153.930 o
-7 -1 -12 0.411 0.441 0.481 279.679 o
-7 -1 -11 22.554 23.470 0.832 38.731 o
-7 -1 -10 33.895 35.180 1.584 13.731 o
-7 -1 -9 16.656 17.826 0.972 43.476 o
-7 -1 -8 17.927 18.347 0.972 41.597 o
-7 -1 -7 3.696 3.639 0.692 128.705 o
-7 -1 -6 30.186 29.736 1.534 16.020 o
-7 -1 -5 5.808 5.113 0.581 163.555 o
-7 -1 -4 0.167 0.090 0.381 446.773 o
-7 -1 -3 6.758 5.494 0.461 225.094 o
-7 -1 -2 0.735 0.301 0.331 589.047 o
-7 -1 -1 1.936 1.504 0.331 561.593 o
-6 -15 -9 1.029 2.657 0.752 113.787 o
-6 -15 -8 10.517 14.176 1.023 49.715 o
-6 -15 -7 3.180 4.241 0.822 92.750 o
-6 -15 -6 0.895 1.785 0.772 108.354 o
-6 -15 -5 0.460 0.692 0.431 347.989 o
-6 -15 -4 0.915 1.123 0.451 315.845 o
-6 -15 -3 5.752 6.427 0.802 91.299 o
-6 -15 -2 28.290 30.448 2.226 9.925 o
-6 -15 -1 7.328 7.840 1.414 30.828 o
-6 -14 -13 2.705 2.767 0.732 118.017 o
-6 -14 -12 3.795 4.842 0.792 98.338 o
-6 -14 -11 18.968 24.663 1.273 26.587 o
-6 -14 -10 0.813 1.624 0.772 108.438 o
-6 -14 -9 4.021 4.782 0.882 79.809 o
-6 -14 -8 15.683 20.483 1.243 30.785 o
-6 -14 -7 8.392 10.146 1.013 55.118 o
-6 -14 -6 9.248 10.447 1.023 53.136 o
-6 -14 -5 13.365 14.197 1.624 21.710 o
-6 -14 -4 6.118 6.908 0.602 147.957 o
-6 -14 -3 0.405 0.802 0.491 268.162 o
-6 -14 -2 17.236 17.545 1.795 17.134 o
-6 -14 -1 2.320 2.647 0.541 213.230 o
-6 -13 -15 0.894 0.662 0.682 139.181 o
-6 -13 -14 4.378 6.126 0.812 91.908 o
-6 -13 -13 4.063 5.524 0.852 84.773 o
-6 -13 -12 8.645 10.687 1.023 53.640 o
-6 -13 -11 1.695 2.537 0.872 84.443 o
-6 -13 -10 2.339 2.717 0.872 83.996 o
-6 -13 -9 5.096 6.637 0.952 67.125 o
-6 -13 -8 2.287 2.296 0.832 92.357 o
-6 -13 -7 1.080 1.384 0.852 88.995 o
-6 -13 -6 3.497 4.301 0.942 70.904 o
-6 -13 -5 16.151 19.199 1.293 29.130 o
-6 -13 -4 6.802 6.066 0.632 135.201 o
-6 -13 -3 12.147 12.632 1.153 40.185 o
-6 -13 -2 23.707 24.854 2.256 10.497 o
-6 -13 -1 36.792 38.028 2.526 7.219 o
-6 -12 -15 0.498 0.702 0.712 127.860 o
-6 -12 -14 3.642 3.519 0.832 90.487 o
-6 -12 -13 12.727 15.780 1.173 37.470 o
-6 -12 -12 1.704 2.446 0.892 80.742 o
-6 -12 -11 7.803 8.692 1.003 57.479 o
-6 -12 -10 6.304 7.409 1.003 59.572 o
-6 -12 -9 0.264 0.612 0.822 95.932 o
-6 -12 -8 16.599 18.889 1.303 28.633 o
-6 -12 -7 15.570 18.076 1.323 28.735 o
-6 -12 -6 14.239 15.600 1.263 32.406 o
-6 -12 -5 57.497 59.132 2.256 5.679 o
-6 -12 -4 1.957 2.857 0.932 73.798 o
-6 -12 -3 39.499 39.642 1.744 10.841 o
-6 -12 -2 8.087 8.291 0.702 105.036 o
-6 -12 -1 5.323 5.945 0.662 130.947 o
-6 -11 -19 6.119 7.058 0.852 80.676 o
-6 -11 -18 6.626 6.707 0.872 76.852 o
-6 -11 -17 10.124 11.139 0.972 56.329 o
-6 -11 -15 7.664 9.504 1.043 53.343 o
-6 -11 -14 0.909 1.093 0.852 89.099 o
-6 -11 -13 41.118 47.151 1.855 9.351 o
-6 -11 -12 4.560 6.076 0.962 66.555 o
-6 -11 -11 8.522 10.998 1.093 47.747 o
-6 -11 -10 2.877 4.161 0.942 71.382 o
-6 -11 -9 10.597 11.459 1.173 40.574 o
-6 -11 -8 9.901 11.470 1.173 41.048 o
-6 -11 -7 6.584 7.068 1.073 52.465 o
-6 -11 -6 16.204 17.695 1.333 28.173 o
-6 -11 -5 38.807 39.842 1.855 10.261 o
-6 -11 -4 6.011 6.868 1.093 51.124 o
-6 -11 -3 6.562 6.757 1.063 53.520 o
-6 -11 -2 21.920 22.357 0.972 34.854 o
-6 -11 -1 6.355 6.667 0.692 116.456 o
-6 -10 -21 0.418 -0.201 0.652 152.683 o
-6 -10 -20 2.386 2.306 0.742 115.645 o
-6 -10 -19 0.374 0.160 0.712 127.968 o
-6 -10 -18 3.435 3.639 0.832 90.653 o
-6 -10 -17 4.187 5.314 0.882 79.342 o
-6 -10 -16 35.727 39.201 1.674 12.100 o
-6 -10 -15 13.283 16.382 1.183 36.342 o
-6 -10 -14 29.841 33.276 1.564 15.259 o
-6 -10 -13 20.221 23.901 1.394 23.110 o
-6 -10 -12 2.547 3.379 0.962 68.905 o
-6 -10 -11 23.891 27.070 1.524 18.572 o
-6 -10 -10 12.403 13.034 1.213 36.632 o
-6 -10 -9 6.979 8.031 1.093 50.079 o
-6 -10 -8 10.214 10.186 1.163 41.894 o
-6 -10 -7 9.971 10.587 1.173 41.298 o
-6 -10 -6 53.592 55.924 2.216 6.198 o
-6 -10 -5 4.386 5.444 1.063 55.363 o
-6 -10 -4 10.027 11.329 1.213 38.670 o
-6 -10 -3 29.830 30.238 1.664 14.551 o
-6 -10 -2 15.588 15.821 0.862 53.841 o
-6 -10 -1 24.990 23.992 1.013 29.916 o
-6 -9 -22 0.637 0.441 0.672 143.558 o
-6 -9 -21 0.259 0.160 0.541 221.226 o
-6 -9 -20 12.201 13.394 1.073 44.759 o
-6 -9 -19 1.369 1.163 0.571 196.702 o
-6 -9 -18 6.759 6.858 0.682 117.613 o
-6 -9 -17 6.228 6.607 0.712 111.336 o
-6 -9 -16 8.867 9.735 0.762 87.870 o
-6 -9 -15 26.432 29.095 1.083 25.186 o
-6 -9 -14 12.975 15.670 0.872 57.781 o
-6 -9 -13 21.293 23.520 1.013 33.468 o
-6 -9 -12 26.742 29.827 1.123 23.931 o
-6 -9 -11 1.764 2.085 0.662 145.948 o
-6 -9 -10 37.169 38.339 1.273 15.180 o
-6 -9 -9 5.777 6.106 0.732 107.965 o
-6 -9 -8 34.876 36.654 1.263 16.378 o
-6 -9 -7 2.068 2.486 0.652 149.510 o
-6 -9 -6 9.360 8.502 0.782 84.645 o
-6 -9 -5 23.585 23.270 1.033 30.848 o
-6 -9 -4 1.765 2.075 0.521 233.025 o
-6 -9 -3 10.714 11.319 0.852 68.263 o
-6 -9 -2 14.065 13.515 0.872 57.759 o
-6 -9 -1 0.068 0.120 0.571 198.609 o
-6 -8 -23 1.279 1.434 0.712 127.177 o
-6 -8 -22 11.150 11.540 0.732 83.716 o
-6 -8 -21 4.421 5.203 0.642 143.213 o
-6 -8 -20 1.227 1.554 0.592 183.620 o
-6 -8 -19 12.214 12.703 1.023 48.634 o
-6 -8 -18 13.291 14.287 0.842 61.304 o
-6 -8 -17 5.433 5.875 0.712 114.756 o
-6 -8 -16 21.229 23.601 1.093 30.805 o
-6 -8 -15 26.421 29.355 1.113 24.481 o
-6 -8 -14 11.605 12.532 0.842 66.454 o
-6 -8 -13 28.274 31.110 1.524 16.517 o
-6 -8 -12 2.129 2.537 0.852 88.146 o
-6 -8 -11 28.169 29.456 1.263 20.703 o
-6 -8 -10 34.539 36.925 1.424 14.831 o
-6 -8 -9 47.381 49.638 1.935 8.009 o
-6 -8 -8 5.437 5.223 0.592 160.549 o
-6 -8 -7 6.170 5.955 0.471 222.170 o
-6 -8 -6 28.036 26.017 0.762 32.628 o
-6 -8 -5 35.232 32.012 1.223 17.581 o
-6 -8 -4 12.101 11.961 0.581 106.115 o
-6 -8 -3 47.355 45.547 1.534 10.038 o
-6 -8 -2 33.602 31.110 0.892 23.043 o
-6 -8 -1 9.637 9.394 0.642 111.188 o
-6 -7 -24 9.388 10.126 0.912 64.423 o
-6 -7 -23 5.069 5.574 0.632 143.979 o
-6 -7 -22 3.220 3.018 0.612 165.173 o
-6 -7 -21 8.541 9.895 0.832 76.812 o
-6 -7 -20 0.870 1.003 0.602 178.477 o
-6 -7 -19 37.263 40.384 1.263 14.899 o
-6 -7 -18 3.362 3.689 0.672 136.882 o
-6 -7 -17 5.189 6.086 0.712 115.148 o
-6 -7 -16 19.760 22.949 1.033 34.476 o
-6 -7 -15 8.654 10.306 0.802 80.820 o
-6 -7 -14 78.165 88.858 2.597 3.361 o
-6 -7 -13 23.352 26.508 1.464 19.884 o
-6 -7 -12 5.223 6.306 0.742 106.501 o
-6 -7 -11 7.535 8.722 0.792 87.001 o
-6 -7 -10 5.880 5.354 0.471 229.030 o
-6 -7 -9 58.377 54.139 1.474 7.842 o
-6 -7 -8 26.085 24.523 1.223 23.807 o
-6 -7 -7 7.605 6.988 0.491 188.419 o
-6 -7 -6 3.284 3.339 0.441 301.559 o
-6 -7 -5 15.669 14.588 0.772 62.581 o
-6 -7 -4 20.138 17.144 0.652 58.263 o
-6 -7 -3 8.873 8.201 0.531 153.354 o
-6 -7 -2 1.824 1.875 0.431 337.436 o
-6 -7 -1 18.367 16.994 0.752 55.519 o
-6 -6 -25 5.903 6.346 0.822 87.102 o
-6 -6 -24 6.262 7.209 0.852 80.321 o
-6 -6 -23 4.481 4.712 0.632 148.089 o
-6 -6 -22 14.585 16.182 0.832 57.810 o
-6 -6 -21 16.549 16.994 0.862 51.175 o
-6 -6 -20 14.570 15.309 0.852 56.953 o
-6 -6 -19 30.994 33.576 1.945 11.399 o
-6 -6 -18 25.149 26.308 1.053 27.792 o
-6 -6 -17 31.140 34.689 1.193 19.149 o
-6 -6 -16 12.327 12.823 0.822 66.923 o
-6 -6 -15 0.628 0.942 0.592 184.847 o
-6 -6 -14 1.756 1.905 0.642 155.235 o
-6 -6 -13 0.465 0.892 0.622 167.573 o
-6 -6 -12 6.929 7.369 0.742 100.636 o
-6 -6 -11 3.726 3.780 0.501 233.624 o
-6 -6 -10 37.520 33.386 1.283 15.812 o
-6 -6 -9 5.023 4.812 0.471 241.892 o
-6 -6 -8 4.398 4.512 0.461 259.786 o
-6 -6 -7 29.762 27.771 0.792 29.232 o
-6 -6 -6 5.621 5.264 0.471 232.539 o
-6 -6 -5 21.416 19.300 0.682 51.031 o
-6 -6 -4 6.463 5.865 0.501 199.558 o
-6 -6 -3 54.622 48.715 1.474 8.785 o
-6 -6 -2 32.807 30.769 0.882 23.859 o
-6 -6 -1 69.228 61.588 1.293 6.466 o
-6 -5 -26 13.802 14.778 0.993 47.683 o
-6 -5 -25 16.646 18.026 1.083 37.658 o
-6 -5 -24 9.018 10.918 0.942 61.005 o
-6 -5 -23 0.391 0.261 0.551 213.165 o
-6 -5 -22 0.381 0.160 0.561 205.658 o
-6 -5 -21 0.009 0.441 0.571 198.591 o
-6 -5 -20 18.488 19.410 1.003 38.859 o
-6 -5 -19 9.130 10.487 0.782 82.719 o
-6 -5 -18 36.569 39.882 1.273 15.123 o
-6 -5 -17 1.810 1.684 0.612 170.740 o
-6 -5 -16 1.652 2.005 0.592 182.312 o
-6 -5 -15 47.699 51.332 1.474 9.727 o
-6 -5 -14 8.808 10.507 0.792 81.847 o
-6 -5 -13 36.228 35.752 1.023 18.579 o
-6 -5 -12 21.204 21.044 0.852 41.390 o
-6 -5 -11 4.316 4.111 0.511 219.615 o
-6 -5 -10 14.336 12.853 0.581 92.891 o
-6 -5 -9 61.790 58.390 1.414 7.276 o
-6 -5 -8 33.702 29.586 1.303 17.706 o
-6 -5 -7 19.151 17.294 0.712 56.292 o
-6 -5 -6 55.364 49.026 1.574 8.307 o
-6 -5 -5 11.647 10.226 0.541 122.898 o
-6 -5 -4 18.330 17.044 0.742 56.267 o
-6 -5 -3 55.884 50.419 1.283 9.084 o
-6 -5 -2 9.588 9.514 0.561 133.155 o
-6 -5 -1 73.147 66.230 1.604 5.402 o
-6 -4 -26 3.843 4.311 0.742 111.741 o
-6 -4 -25 2.954 3.138 0.531 216.619 o
-6 -4 -24 0.332 0.060 0.431 348.799 o
-6 -4 -23 10.440 11.439 0.612 109.533 o
-6 -4 -22 7.585 8.171 0.581 143.528 o
-6 -4 -21 11.789 11.890 0.642 96.171 o
-6 -4 -20 23.371 25.275 0.852 35.847 o
-6 -4 -19 8.100 8.512 0.612 129.325 o
-6 -4 -18 1.955 2.256 0.511 240.785 o
-6 -4 -17 5.937 6.336 0.581 159.213 o
-6 -4 -16 30.846 31.721 0.962 23.597 o
-6 -4 -15 9.825 10.136 0.652 106.337 o
-6 -4 -14 15.527 15.560 0.581 81.903 o
-6 -4 -13 15.414 15.389 0.672 72.283 o
-6 -4 -12 2.204 2.095 0.371 442.932 o
-6 -4 -11 60.566 61.157 1.263 7.599 o
-6 -4 -10 26.819 25.125 1.263 22.433 o
-6 -4 -9 21.782 19.320 0.602 54.610 o
-6 -4 -8 8.428 8.482 0.471 182.134 o
-6 -4 -7 25.018 22.498 0.642 42.941 o
-6 -4 -6 17.074 15.319 0.622 72.274 o
-6 -4 -5 5.633 4.692 0.471 235.679 o
-6 -4 -4 57.029 52.385 1.434 8.272 o
-6 -4 -3 47.692 42.950 1.384 10.973 o
-6 -4 -2 75.049 66.020 1.424 5.505 o
-6 -4 -1 151.146 138.997 2.807 1.336 o
-6 -3 -27 6.406 5.665 1.323 35.587 o
-6 -3 -26 1.098 0.531 0.481 278.215 o
-6 -3 -25 13.919 12.923 1.323 30.911 o
-6 -3 -24 1.849 2.246 0.471 282.729 o
-6 -3 -23 3.880 4.070 0.521 215.478 o
-6 -3 -22 7.489 7.259 0.571 150.896 o
-6 -3 -21 4.703 4.752 0.581 170.695 o
-6 -3 -20 5.893 6.497 0.581 159.002 o
-6 -3 -19 21.119 22.768 0.832 41.181 o
-6 -3 -18 59.927 63.583 1.785 6.351 o
-6 -3 -17 8.461 9.143 0.642 117.165 o
-6 -3 -16 18.632 20.362 0.812 47.939 o
-6 -3 -15 32.664 32.173 0.872 23.619 o
-6 -3 -14 13.298 12.713 0.712 78.203 o
-6 -3 -13 5.988 5.444 0.391 299.921 o
-6 -3 -12 0.227 0.211 0.311 670.855 o
-6 -3 -11 0.546 0.431 0.321 627.232 o
-6 -3 -10 7.621 7.339 0.521 171.469 o
-6 -3 -9 52.995 48.876 1.303 9.670 o
-6 -3 -8 20.136 19.089 0.732 51.010 o
-6 -3 -7 18.363 16.793 0.602 67.561 o
-6 -3 -6 20.745 18.818 0.802 46.234 o
-6 -3 -5 30.345 26.297 0.922 26.680 o
-6 -3 -4 63.699 57.417 1.233 7.495 o
-6 -3 -3 80.924 69.589 1.333 5.003 o
-6 -3 -2 35.287 31.240 0.932 21.376 o
-6 -3 -1 87.814 80.216 1.995 3.675 o
-6 -2 -27 6.724 6.567 0.962 64.220 o
-6 -2 -26 4.558 4.772 0.722 115.549 o
-6 -2 -25 8.223 7.760 1.283 36.662 o
-6 -2 -24 1.640 1.734 0.431 339.415 o
-6 -2 -23 20.579 20.834 1.343 24.876 o
-6 -2 -22 19.295 20.473 0.912 41.553 o
-6 -2 -21 9.854 10.156 0.642 108.472 o
-6 -2 -20 11.216 12.853 0.692 87.820 o
-6 -2 -19 1.986 2.095 0.521 232.085 o
-6 -2 -18 9.991 10.758 0.672 100.009 o
-6 -2 -17 38.540 40.253 1.825 10.454 o
-6 -2 -16 1.870 2.296 0.541 215.700 o
-6 -2 -15 81.443 85.650 2.236 3.624 o
-6 -2 -14 14.232 14.658 0.682 76.029 o
-6 -2 -13 43.111 45.316 0.902 14.649 o
-6 -2 -12 52.910 53.808 1.815 7.529 o
-6 -2 -11 53.722 54.300 1.263 9.188 o
-6 -2 -10 28.846 28.754 1.153 22.444 o
-6 -2 -9 38.574 38.850 1.163 15.582 o
-6 -2 -8 10.578 8.843 0.461 161.897 o
-6 -2 -7 16.784 15.600 0.521 83.511 o
-6 -2 -6 29.226 26.809 1.043 24.896 o
-6 -2 -5 18.343 16.392 0.531 74.489 o
-6 -2 -4 32.820 30.679 0.902 23.571 o
-6 -2 -3 67.928 60.716 1.123 6.951 o
-6 -2 -2 4.529 4.291 0.371 371.026 o
-6 -2 -1 9.852 9.334 0.431 179.204 o
-6 -1 -27 3.041 3.118 0.461 281.560 o
-6 -1 -26 12.901 14.577 1.303 31.808 o
-6 -1 -25 2.694 2.857 0.491 253.833 o
-6 -1 -24 8.226 8.843 0.612 127.770 o
-6 -1 -23 4.697 4.762 0.541 193.646 o
-6 -1 -22 6.657 7.259 0.592 147.994 o
-6 -1 -21 5.436 5.915 0.581 163.386 o
-6 -1 -20 13.863 15.319 0.993 47.272 o
-6 -1 -19 10.429 11.429 0.682 95.037 o
-6 -1 -18 25.998 29.255 0.952 28.374 o
-6 -1 -17 27.381 29.345 0.962 26.983 o
-6 -1 -16 25.201 26.508 0.822 33.937 o
-6 -1 -15 52.990 54.390 1.384 8.903 o
-6 -1 -14 16.161 16.011 0.612 75.255 o
-6 -1 -13 3.157 3.519 0.351 452.560 o
-6 -1 -12 103.273 103.085 1.684 2.837 o
-6 -1 -11 37.529 35.421 1.103 17.226 o
-6 -1 -10 14.675 13.876 0.592 87.635 o
-6 -1 -9 0.932 0.592 0.291 756.043 o
-6 -1 -8 28.698 28.172 0.792 30.078 o
-6 -1 -7 45.893 43.111 1.043 13.271 o
-6 -1 -6 11.808 11.088 0.441 145.390 o
-6 -1 -5 58.626 53.287 1.293 8.373 o
-6 -1 -4 84.761 77.549 1.494 4.330 o
-6 -1 -3 19.588 17.896 0.602 62.240 o
-6 -1 -2 89.974 76.516 1.444 4.100 o
-6 -1 -1 61.584 57.578 1.684 6.715 o
-5 -18 -1 0.152 0.080 0.521 238.622 o
-5 -17 -10 7.471 9.194 0.942 64.233 o
-5 -17 -9 6.749 7.068 0.952 65.157 o
-5 -17 -8 2.965 3.319 0.521 223.929 o
-5 -17 -7 9.256 9.344 1.915 16.940 o
-5 -17 -6 2.618 3.329 0.521 225.914 o
-5 -17 -5 5.005 4.873 1.353 34.536 o
-5 -17 -4 3.593 4.111 0.541 202.855 o
-5 -17 -3 12.800 14.337 3.409 5.427 o
-5 -17 -2 2.676 3.439 1.003 63.511 o
-5 -17 -1 14.085 14.567 2.196 12.468 o
-5 -16 -14 5.469 6.968 0.832 85.413 o
-5 -16 -13 0.041 -0.331 0.712 128.012 o
-5 -16 -12 0.120 -0.020 0.732 121.091 o
-5 -16 -11 3.845 5.053 0.872 81.618 o
-5 -16 -10 18.708 21.265 3.098 6.287 o
-5 -16 -9 0.542 1.213 0.511 247.059 o
-5 -16 -8 12.184 13.765 1.714 20.002 o
-5 -16 -7 16.183 17.154 2.366 10.615 o
-5 -16 -6 0.096 0.551 0.521 238.548 o
-5 -16 -5 11.855 13.053 2.436 10.432 o
-5 -16 -4 17.669 20.513 3.168 6.069 o
-5 -16 -3 12.246 12.572 2.296 11.670 o
-5 -16 -2 6.911 7.289 1.143 46.351 o
-5 -16 -1 14.994 15.951 2.176 12.537 o
-5 -15 -16 7.825 8.853 0.892 70.383 o
-5 -15 -15 0.168 0.672 0.742 117.797 o
-5 -15 -14 6.229 8.402 0.952 64.992 o
-5 -15 -13 8.740 11.730 1.053 50.423 o
-5 -15 -12 1.694 1.895 0.812 97.494 o
-5 -15 -11 4.290 6.056 0.932 70.959 o
-5 -15 -10 6.587 8.943 1.013 57.527 o
-5 -15 -9 14.790 15.851 2.286 11.467 o
-5 -15 -8 20.024 21.796 2.978 6.711 o
-5 -15 -7 6.439 6.828 0.682 118.821 o
-5 -15 -6 7.394 8.241 1.323 34.833 o
-5 -15 -5 8.527 9.274 1.013 55.432 o
-5 -15 -4 7.569 7.650 0.822 82.700 o
-5 -15 -3 5.794 6.156 1.043 56.260 o
-5 -15 -2 2.702 3.619 1.123 50.759 o
-5 -15 -1 0.251 0.732 0.612 173.276 o
-5 -14 -19 11.299 12.672 1.053 47.415 o
-5 -14 -18 27.134 31.641 1.915 12.454 o
-5 -14 -17 20.805 22.759 1.323 24.788 o
-5 -14 -16 2.637 3.018 0.682 135.374 o
-5 -14 -15 0.907 0.682 0.802 100.626 o
-5 -14 -14 7.406 8.672 0.993 58.948 o
-5 -14 -13 2.816 3.890 0.892 79.576 o
-5 -14 -12 12.935 17.204 1.213 34.889 o
-5 -14 -11 7.975 10.336 1.093 48.459 o
-5 -14 -10 5.203 6.737 0.993 61.980 o
-5 -14 -9 0.791 1.744 0.581 190.526 o
-5 -14 -8 4.550 4.702 0.652 139.653 o
-5 -14 -7 8.152 8.251 0.732 98.043 o
-5 -14 -6 24.536 26.368 1.965 12.844 o
-5 -14 -5 16.554 18.096 1.644 19.951 o
-5 -14 -4 58.708 62.490 4.993 2.047 o
-5 -14 -3 15.148 16.172 1.474 24.729 o
-5 -14 -2 6.422 7.078 0.722 107.397 o
-5 -14 -1 8.328 9.063 1.263 37.408 o
-5 -13 -21 1.621 1.694 0.792 102.566 o
-5 -13 -20 11.364 12.773 1.073 45.871 o
-5 -13 -19 14.213 16.202 1.183 35.727 o
-5 -13 -18 15.011 15.941 1.193 34.786 o
-5 -13 -17 1.239 1.644 0.592 183.519 o
-5 -13 -16 7.105 8.361 0.712 105.793 o
-5 -13 -15 4.143 4.953 0.762 105.096 o
-5 -13 -14 24.826 32.353 1.584 16.573 o
-5 -13 -13 9.520 12.753 1.163 41.482 o
-5 -13 -12 1.693 2.065 0.932 74.082 o
-5 -13 -11 8.695 11.760 1.193 40.518 o
-5 -13 -10 1.059 1.353 0.902 79.422 o
-5 -13 -9 1.843 2.907 1.003 63.953 o
-5 -13 -8 22.062 23.149 2.637 8.213 o
-5 -13 -7 26.473 27.852 2.336 9.510 o
-5 -13 -6 6.411 7.058 0.752 100.107 o
-5 -13 -5 48.900 51.512 4.201 2.908 o
-5 -13 -4 21.366 23.400 2.516 8.952 o
-5 -13 -3 58.400 61.628 5.845 1.589 o
-5 -13 -2 48.442 51.713 4.482 2.627 o
-5 -13 -1 6.327 7.269 0.762 97.764 o
-5 -12 -23 13.136 14.758 1.053 44.434 o
-5 -12 -22 4.096 4.331 0.852 85.462 o
-5 -12 -21 14.109 15.380 1.133 38.598 o
-5 -12 -20 1.342 1.353 0.832 93.214 o
-5 -12 -19 3.663 4.522 0.922 73.701 o
-5 -12 -18 4.229 5.454 0.962 67.093 o
-5 -12 -17 2.034 2.135 0.612 169.775 o
-5 -12 -16 2.595 3.218 0.642 152.092 o
-5 -12 -15 19.886 23.881 1.093 31.789 o
-5 -12 -14 9.442 11.760 0.822 74.386 o
-5 -12 -13 7.313 10.216 1.173 43.103 o
-5 -12 -12 27.637 33.075 1.664 14.742 o
-5 -12 -11 4.593 5.243 1.013 60.685 o
-5 -12 -10 15.383 17.585 1.333 28.621 o
-5 -12 -9 3.681 4.953 1.093 52.911 o
-5 -12 -8 12.570 14.828 1.323 31.109 o
-5 -12 -7 23.420 23.731 2.486 8.981 o
-5 -12 -6 52.687 53.026 5.183 2.020 o
-5 -12 -5 39.554 37.937 1.353 13.821 o
-5 -12 -4 44.047 42.369 1.043 13.973 o
-5 -12 -3 51.924 51.222 1.163 10.175 o
-5 -12 -2 46.080 45.036 1.093 12.655 o
-5 -12 -1 1.584 1.554 0.471 286.125 o
-5 -11 -24 0.871 0.441 0.722 124.243 o
-5 -11 -23 3.261 3.459 0.812 95.347 o
-5 -11 -22 2.967 3.419 0.842 89.159 o
-5 -11 -21 8.104 9.494 1.003 56.742 o
-5 -11 -20 32.365 34.859 1.614 13.869 o
-5 -11 -19 3.268 3.258 0.892 79.468 o
-5 -11 -18 9.448 9.695 1.073 49.082 o
-5 -11 -17 1.182 1.353 0.602 177.833 o
-5 -11 -16 6.283 7.750 0.752 99.543 o
-5 -11 -15 6.151 8.301 0.802 88.617 o
-5 -11 -14 50.186 60.896 1.674 7.876 o
-5 -11 -13 42.446 50.209 1.494 10.732 o
-5 -11 -12 22.867 26.949 1.544 18.600 o
-5 -11 -11 15.768 19.951 1.464 24.057 o
-5 -11 -10 4.868 6.116 1.153 46.941 o
-5 -11 -9 21.591 23.019 1.123 29.806 o
-5 -11 -8 27.442 29.716 1.915 12.566 o
-5 -11 -7 10.556 11.880 0.902 62.278 o
-5 -11 -6 14.041 14.126 0.632 84.125 o
-5 -11 -5 3.259 3.890 0.491 245.732 o
-5 -11 -4 56.181 55.081 1.714 7.375 o
-5 -11 -3 30.744 30.639 0.892 25.250 o
-5 -11 -2 87.190 86.552 1.945 3.603 o
-5 -11 -1 1.379 1.494 0.451 312.867 o
-5 -10 -26 5.395 5.925 0.812 90.360 o
-5 -10 -25 1.900 1.424 0.732 119.819 o
-5 -10 -24 3.235 3.850 0.802 97.459 o
-5 -10 -23 10.425 11.098 1.003 53.239 o
-5 -10 -22 15.273 15.580 1.133 37.540 o
-5 -10 -21 8.910 10.367 1.033 52.636 o
-5 -10 -20 3.376 3.800 0.892 79.156 o
-5 -10 -19 5.042 6.126 0.972 64.823 o
-5 -10 -18 2.439 3.138 0.932 73.476 o
-5 -10 -17 56.058 63.834 2.376 5.355 o
-5 -10 -16 34.192 41.737 1.895 10.593 o
-5 -10 -15 15.300 18.087 0.952 46.258 o
-5 -10 -14 16.823 20.192 0.993 40.781 o
-5 -10 -13 9.043 9.885 0.702 98.888 o
-5 -10 -12 87.034 94.663 3.268 2.517 o
-5 -10 -11 5.875 6.196 0.772 97.802 o
-5 -10 -10 86.698 93.129 3.459 2.420 o
-5 -10 -9 2.324 2.617 0.732 118.652 o
-5 -10 -8 14.159 15.771 1.003 45.966 o
-5 -10 -7 33.854 34.318 2.196 9.273 o
-5 -10 -6 9.898 9.765 0.852 71.377 o
-5 -10 -5 19.724 19.259 0.722 52.270 o
-5 -10 -4 3.292 3.679 0.491 246.310 o
-5 -10 -3 30.259 28.754 0.862 26.938 o
-5 -10 -2 33.005 31.701 0.902 23.098 o
-5 -10 -1 36.441 37.296 0.983 18.529 o
-5 -9 -27 5.221 5.243 0.802 93.371 o
-5 -9 -26 4.812 4.752 0.802 94.490 o
-5 -9 -25 6.600 6.437 0.862 78.723 o
-5 -9 -24 0.760 0.652 0.742 117.633 o
-5 -9 -23 0.004 -0.391 0.722 124.481 o
-5 -9 -22 3.091 3.700 0.862 84.921 o
-5 -9 -21 20.905 23.169 1.023 33.649 o
-5 -9 -20 6.869 7.369 0.762 96.290 o
-5 -9 -19 7.469 8.412 0.782 89.416 o
-5 -9 -18 16.524 16.994 0.952 45.353 o
-5 -9 -17 0.267 0.672 0.692 135.454 o
-5 -9 -16 36.185 41.015 1.353 14.360 o
-5 -9 -15 2.452 3.218 0.581 184.318 o
-5 -9 -14 17.796 20.222 0.672 58.867 o
-5 -9 -13 110.447 126.244 2.075 2.201 o
-5 -9 -12 21.227 24.012 0.762 43.150 o
-5 -9 -11 23.924 26.859 0.822 35.222 o
-5 -9 -10 24.702 25.415 0.912 32.407 o
-5 -9 -9 92.897 96.377 3.238 2.392 o
-5 -9 -8 13.894 14.547 0.952 50.616 o
-5 -9 -7 71.942 73.679 2.206 4.397 o
-5 -9 -6 56.109 56.455 1.704 7.332 o
-5 -9 -5 10.201 10.086 0.852 70.476 o
-5 -9 -4 6.965 7.178 0.541 167.970 o
-5 -9 -3 54.573 54.330 1.193 9.260 o
-5 -9 -2 62.283 61.899 1.303 7.239 o
-5 -9 -1 0.616 1.233 0.461 303.156 o
-5 -8 -28 13.096 14.628 1.003 47.934 o
-5 -8 -27 1.873 2.356 0.752 113.165 o
-5 -8 -26 13.514 15.079 1.073 42.642 o
-5 -8 -25 2.015 2.677 0.802 99.378 o
-5 -8 -24 1.729 1.704 0.762 110.661 o
-5 -8 -23 14.710 15.650 1.153 36.989 o
-5 -8 -22 2.784 3.359 0.672 138.639 o
-5 -8 -21 9.763 10.066 0.802 78.508 o
-5 -8 -20 18.752 20.392 1.003 38.038 o
-5 -8 -19 3.518 4.201 0.742 112.455 o
-5 -8 -18 30.112 34.529 1.253 18.825 o
-5 -8 -17 85.385 98.463 2.346 3.142 o
-5 -8 -16 37.449 42.088 1.183 15.234 o
-5 -8 -15 12.511 13.164 0.792 69.607 o
-5 -8 -14 38.003 41.898 1.013 16.510 o
-5 -8 -13 29.132 32.062 0.812 27.443 o
-5 -8 -12 5.107 6.086 0.491 218.519 o
-5 -8 -11 57.197 59.894 1.323 8.012 o
-5 -8 -10 11.219 11.861 0.632 100.619 o
-5 -8 -9 3.555 2.968 0.501 238.028 o
-5 -8 -8 3.471 3.619 0.491 245.109 o
-5 -8 -7 75.790 76.416 1.765 4.643 o
-5 -8 -6 36.017 34.649 0.942 19.865 o
-5 -8 -5 55.598 53.538 1.183 9.178 o
-5 -8 -4 17.651 15.971 0.612 70.267 o
-5 -8 -3 13.104 12.602 0.511 112.602 o
-5 -8 -2 13.364 13.084 0.521 107.600 o
-5 -8 -1 111.109 112.469 1.755 2.450 o
-5 -7 -28 14.779 15.851 1.053 42.151 o
-5 -7 -27 12.953 13.364 1.043 46.026 o
-5 -7 -26 1.266 1.494 0.762 111.075 o
-5 -7 -25 23.814 25.907 1.363 21.704 o
-5 -7 -24 6.781 8.001 0.972 62.198 o
-5 -7 -23 5.814 5.985 0.942 68.066 o
-5 -7 -22 10.780 11.690 0.822 71.533 o
-5 -7 -21 4.746 5.264 0.722 114.489 o
-5 -7 -20 11.838 12.923 0.872 62.335 o
-5 -7 -19 4.678 5.564 0.752 106.004 o
-5 -7 -18 30.311 33.676 1.243 19.062 o
-5 -7 -17 63.191 70.621 1.684 5.927 o
-5 -7 -16 82.225 93.941 2.085 3.546 o
-5 -7 -15 76.476 86.572 2.607 3.454 o
-5 -7 -14 4.156 5.013 0.602 162.591 o
-5 -7 -13 46.309 50.640 1.233 11.170 o
-5 -7 -12 18.433 19.560 0.612 62.429 o
-5 -7 -11 5.300 5.394 0.421 281.114 o
-5 -7 -10 6.284 6.296 0.431 249.299 o
-5 -7 -9 80.475 80.216 2.216 3.803 o
-5 -7 -8 15.716 15.811 0.682 69.677 o
-5 -7 -7 49.913 48.785 1.133 11.001 o
-5 -7 -6 81.061 78.642 2.146 3.882 o
-5 -7 -5 33.848 32.854 0.902 22.169 o
-5 -7 -4 2.096 2.186 0.491 259.628 o
-5 -7 -3 62.177 59.433 1.153 7.737 o
-5 -7 -2 79.452 77.499 1.484 4.675 o
-5 -7 -1 73.009 72.927 1.333 5.502 o
-5 -6 -29 4.923 6.567 0.822 88.595 o
-5 -6 -28 19.176 20.803 1.183 30.446 o
-5 -6 -27 18.220 19.259 1.173 32.048 o
-5 -6 -26 20.254 22.027 1.273 26.606 o
-5 -6 -25 6.506 8.191 0.962 63.576 o
-5 -6 -24 5.789 6.266 0.912 72.161 o
-5 -6 -23 17.598 18.447 0.952 43.009 o
-5 -6 -22 24.333 28.132 1.113 26.258 o
-5 -6 -21 19.427 21.836 1.023 35.737 o
-5 -6 -20 0.490 0.060 0.632 162.495 o
-5 -6 -19 2.611 2.917 0.692 131.731 o
-5 -6 -18 52.575 55.272 2.396 5.835 o
-5 -6 -17 47.489 52.184 1.614 9.099 o
-5 -6 -16 120.792 136.851 3.790 1.465 o
-5 -6 -15 5.111 5.073 0.602 157.929 o
-5 -6 -14 21.759 23.039 0.872 38.471 o
-5 -6 -13 9.727 10.497 0.682 99.462 o
-5 -6 -12 47.892 51.452 1.323 10.330 o
-5 -6 -11 70.073 68.606 1.474 5.754 o
-5 -6 -10 64.078 64.666 1.113 7.204 o
-5 -6 -9 28.780 29.315 0.862 27.961 o
-5 -6 -8 26.527 25.666 0.812 33.200 o
-5 -6 -7 21.195 20.503 0.732 47.632 o
-5 -6 -6 149.292 142.085 3.038 1.303 o
-5 -6 -5 27.426 25.686 0.812 32.203 o
-5 -6 -4 7.184 6.025 0.541 170.710 o
-5 -6 -3 58.192 55.382 1.223 8.470 o
-5 -6 -2 4.584 4.632 0.481 239.028 o
-5 -6 -1 118.988 118.013 2.266 2.053 o
-5 -5 -29 3.881 3.930 0.541 201.654 o
-5 -5 -28 2.411 2.687 0.541 212.751 o
-5 -5 -27 1.036 1.273 0.541 219.548 o
-5 -5 -26 20.652 20.372 1.564 20.015 o
-5 -5 -25 4.842 5.414 0.732 111.210 o
-5 -5 -24 12.569 12.813 1.544 24.161 o
-5 -5 -23 21.959 22.648 0.962 35.028 o
-5 -5 -22 6.724 6.878 0.612 140.914 o
-5 -5 -21 3.503 4.141 0.561 190.125 o
-5 -5 -20 20.528 21.275 1.303 25.841 o
-5 -5 -19 9.152 8.602 0.571 135.764 o
-5 -5 -18 6.413 6.467 0.521 185.576 o
-5 -5 -17 21.676 22.217 0.962 35.555 o
-5 -5 -16 72.940 75.033 2.847 3.544 o
-5 -5 -15 49.511 53.708 1.534 8.978 o
-5 -5 -14 55.554 61.368 2.276 5.694 o
-5 -5 -13 18.594 18.949 0.762 52.362 o
-5 -5 -12 20.703 20.643 0.792 45.313 o
-5 -5 -11 4.387 4.431 0.411 315.807 o
-5 -5 -10 59.620 58.470 1.343 7.721 o
-5 -5 -9 22.498 23.200 0.682 45.167 o
-5 -5 -8 72.754 69.870 1.414 5.550 o
-5 -5 -7 18.098 17.355 0.692 60.200 o
-5 -5 -6 15.579 14.447 0.672 73.242 o
-5 -5 -5 20.664 19.660 0.732 49.420 o
-5 -5 -4 89.605 82.712 1.805 3.689 o
-5 -5 -3 28.602 26.358 0.912 28.316 o
-5 -5 -2 186.025 174.859 3.238 0.889 o
-5 -5 -1 50.538 47.682 1.263 10.432 o
-5 -4 -30 4.051 3.950 0.531 207.437 o
-5 -4 -29 1.914 1.464 0.521 233.622 o
-5 -4 -28 7.322 7.880 0.832 81.241 o
-5 -4 -27 8.933 9.164 1.143 44.461 o
-5 -4 -26 0.407 0.962 0.571 198.217 o
-5 -4 -25 4.666 4.963 0.662 134.986 o
-5 -4 -24 22.293 22.819 1.574 18.930 o
-5 -4 -23 3.763 3.970 0.561 189.208 o
-5 -4 -22 25.936 28.323 1.223 22.845 o
-5 -4 -21 7.703 8.382 0.632 125.429 o
-5 -4 -20 27.968 25.856 0.802 31.788 o
-5 -4 -19 5.005 5.073 0.431 277.946 o
-5 -4 -18 29.458 28.714 0.842 28.042 o
-5 -4 -17 10.270 10.226 0.531 135.119 o
-5 -4 -16 50.498 49.898 1.664 8.619 o
-5 -4 -15 12.679 13.034 0.571 102.244 o
-5 -4 -14 21.602 21.736 0.682 48.204 o
-5 -4 -13 14.397 14.477 0.541 94.806 o
-5 -4 -12 103.848 100.558 1.845 2.790 o
-5 -4 -11 29.619 29.937 0.932 25.636 o
-5 -4 -10 102.571 100.308 1.805 2.852 o
-5 -4 -9 38.450 37.677 0.822 18.979 o
-5 -4 -8 7.234 7.299 0.371 274.200 o
-5 -4 -7 40.098 37.526 0.772 18.583 o
-5 -4 -6 70.488 65.819 1.323 6.072 o
-5 -4 -5 1.691 1.464 0.341 535.624 o
-5 -4 -4 14.559 13.053 0.531 99.212 o
-5 -4 -3 80.638 77.389 1.273 4.798 o
-5 -4 -2 319.288 309.906 4.983 0.305 o
-5 -4 -1 57.321 52.455 1.173 8.999 o
-5 -3 -30 17.384 17.796 2.346 10.667 o
-5 -3 -29 14.144 14.146 1.995 14.889 o
-5 -3 -28 5.646 6.206 0.792 93.833 o
-5 -3 -27 1.306 1.464 0.581 189.880 o
-5 -3 -26 28.527 30.007 4.241 3.315 o
-5 -3 -25 25.090 24.182 2.938 6.630 o
-5 -3 -24 16.253 16.663 0.852 52.684 o
-5 -3 -23 21.716 22.588 0.962 35.316 o
-5 -3 -22 3.809 4.080 0.571 182.632 o
-5 -3 -21 17.272 18.096 1.003 40.952 o
-5 -3 -20 22.844 22.979 1.273 24.890 o
-5 -3 -19 55.173 51.823 1.123 9.604 o
-5 -3 -18 2.435 2.286 0.391 396.525 o
-5 -3 -17 8.670 8.402 0.471 179.965 o
-5 -3 -16 2.407 2.256 0.351 485.622 o
-5 -3 -15 20.052 18.808 0.561 62.363 o
-5 -3 -14 113.740 110.003 1.644 2.449 o
-5 -3 -13 10.968 11.038 0.411 163.770 o
-5 -3 -12 100.444 96.468 1.885 2.946 o
-5 -3 -11 91.301 90.502 1.734 3.490 o
-5 -3 -10 101.336 102.062 2.005 2.770 o
-5 -3 -9 29.061 28.573 0.682 31.881 o
-5 -3 -8 66.353 63.102 1.313 6.665 o
-5 -3 -7 14.748 14.207 0.421 112.566 o
-5 -3 -6 15.035 13.705 0.441 109.048 o
-5 -3 -5 12.649 12.422 0.471 124.932 o
-5 -3 -4 128.995 122.625 1.765 1.944 o
-5 -3 -3 80.405 77.269 1.524 4.581 o
-5 -3 -2 12.344 12.231 0.441 135.336 o
-5 -3 -1 211.375 200.114 2.857 0.727 o
-5 -2 -30 2.478 2.386 0.551 205.706 o
-5 -2 -29 23.003 27.511 1.063 28.723 o
-5 -2 -28 0.208 0.461 0.491 268.588 o
-5 -2 -27 12.938 14.076 1.173 37.947 o
-5 -2 -26 0.209 0.080 0.491 268.709 o
-5 -2 -25 3.713 3.830 0.561 189.840 o
-5 -2 -24 16.109 17.655 0.852 52.068 o
-5 -2 -23 6.140 6.467 0.742 103.976 o
-5 -2 -22 24.257 26.227 1.424 20.311 o
-5 -2 -21 10.540 9.815 0.501 143.934 o
-5 -2 -20 33.549 34.539 1.053 19.862 o
-5 -2 -19 28.180 28.874 0.882 28.254 o
-5 -2 -18 35.147 33.676 1.113 18.553 o
-5 -2 -17 7.153 6.767 0.421 240.181 o
-5 -2 -16 62.345 63.202 1.594 6.542 o
-5 -2 -15 128.731 128.721 1.875 1.871 o
-5 -2 -14 55.453 55.172 0.993 9.616 o
-5 -2 -13 118.369 116.178 1.865 2.199 o
-5 -2 -12 19.710 20.312 0.531 63.124 o
-5 -2 -11 144.647 142.917 2.025 1.504 o
-5 -2 -10 45.575 46.449 0.782 14.206 o
-5 -2 -9 35.028 33.506 0.752 23.121 o
-5 -2 -8 27.318 26.127 0.622 37.093 o
-5 -2 -7 41.241 40.233 0.802 17.121 o
-5 -2 -6 15.206 14.497 0.401 111.441 o
-5 -2 -5 83.608 77.589 1.384 4.495 o
-5 -2 -4 34.693 33.035 0.782 23.146 o
-5 -2 -3 17.486 16.683 0.461 84.241 o
-5 -2 -2 57.390 57.518 1.223 8.428 o
-5 -2 -1 100.872 95.746 1.554 3.104 o
-5 -1 -31 10.558 10.347 2.125 13.730 o
-5 -1 -30 22.439 26.618 1.033 30.395 o
-5 -1 -29 13.150 14.437 1.063 43.945 o
-5 -1 -28 15.308 18.297 1.143 35.916 o
-5 -1 -27 1.019 1.293 0.511 245.921 o
-5 -1 -26 8.511 9.494 0.962 60.439 o
-5 -1 -25 36.417 40.494 1.293 14.894 o
-5 -1 -24 22.204 23.831 1.223 26.275 o
-5 -1 -23 3.674 3.870 0.571 183.825 o
-5 -1 -22 0.844 0.632 0.531 228.818 o
-5 -1 -21 7.551 7.529 0.471 197.150 o
-5 -1 -20 9.479 9.344 0.501 154.961 o
-5 -1 -19 51.372 55.102 1.474 8.794 o
-5 -1 -18 37.604 39.993 1.173 15.638 o
-5 -1 -17 8.999 8.231 0.451 186.801 o
-5 -1 -16 41.696 40.855 0.972 15.555 o
-5 -1 -15 153.525 153.474 2.847 1.238 o
-5 -1 -14 164.830 166.558 2.877 1.086 o
-5 -1 -13 53.059 51.101 1.103 10.169 o
-5 -1 -12 62.081 60.515 1.173 7.632 o
-5 -1 -11 3.642 3.569 0.341 460.676 o
-5 -1 -10 44.853 44.584 0.792 14.762 o
-5 -1 -9 66.406 65.819 1.103 6.859 o
-5 -1 -8 14.510 14.517 0.421 113.162 o
-5 -1 -7 1.268 1.353 0.271 848.613 o
-5 -1 -6 5.137 4.311 0.301 480.843 o
-5 -1 -5 15.450 13.785 0.411 110.684 o
-5 -1 -4 120.243 118.103 2.065 2.084 o
-5 -1 -3 220.912 216.496 3.048 0.650 o
-5 -1 -2 3.252 3.349 0.341 475.285 o
-5 -1 -1 60.684 62.430 1.353 7.298 o
-4 -19 -7 0.446 0.581 0.441 332.546 o
-4 -19 -6 8.782 10.166 1.855 18.014 o
-4 -19 -5 3.996 4.401 0.912 75.034 o
-4 -19 -4 6.651 6.637 2.035 15.352 o
-4 -19 -3 15.880 18.979 3.920 4.078 o
-4 -19 -2 4.522 3.599 0.652 141.602 o
-4 -19 -1 6.673 5.474 0.702 114.497 o
-4 -18 -12 9.891 10.828 2.627 9.142 o
-4 -18 -11 17.442 18.628 3.830 4.249 o
-4 -18 -10 0.405 0.301 0.461 304.597 o
-4 -18 -9 3.921 4.010 0.541 201.164 o
-4 -18 -8 3.517 3.880 0.541 203.986 o
-4 -18 -7 7.360 7.469 2.065 14.849 o
-4 -18 -6 12.963 13.264 2.847 7.696 o
-4 -18 -5 8.158 8.241 1.915 17.102 o
-4 -18 -4 4.006 3.960 1.063 55.949 o
-4 -18 -3 6.257 6.878 1.363 33.475 o
-4 -18 -2 15.196 17.044 3.138 6.287 o
-4 -18 -1 1.167 0.902 0.511 246.041 o
-4 -17 -16 11.367 12.452 2.015 15.016 o
-4 -17 -15 11.846 13.174 2.055 14.389 o
-4 -17 -14 3.988 4.091 0.832 89.732 o
-4 -17 -13 7.081 6.998 1.734 20.911 o
-4 -17 -12 4.545 4.471 0.652 140.067 o
-4 -17 -11 9.005 9.284 2.035 15.092 o
-4 -17 -10 9.632 10.076 2.557 9.658 o
-4 -17 -9 9.099 9.304 1.775 19.614 o
-4 -17 -8 23.488 28.724 4.832 2.642 o
-4 -17 -7 33.897 37.627 14.828 0.292 o
-4 -17 -6 1.999 3.068 0.592 180.014 o
-4 -17 -5 48.361 53.086 17.806 0.202 o
-4 -17 -4 6.078 6.978 1.544 26.364 o
-4 -17 -3 5.680 5.785 1.404 31.929 o
-4 -17 -2 6.653 6.918 1.474 28.733 o
-4 -17 -1 3.985 3.720 1.173 46.183 o
-4 -16 -19 2.911 2.968 0.541 209.750 o
-4 -16 -18 12.077 14.016 1.945 15.870 o
-4 -16 -17 2.602 2.847 0.481 264.613 o
-4 -16 -16 7.616 7.549 1.023 56.200 o
-4 -16 -15 9.845 10.296 1.925 16.661 o
-4 -16 -14 0.690 0.551 0.501 257.325 o
-4 -16 -13 22.079 22.378 4.111 3.640 o
-4 -16 -12 15.534 16.953 3.118 6.357 o
-4 -16 -11 0.534 0.561 0.561 205.413 o
-4 -16 -10 6.711 6.467 1.183 43.762 o
-4 -16 -9 2.965 3.138 0.622 160.728 o
-4 -16 -8 5.037 5.193 0.662 133.320 o
-4 -16 -7 8.909 9.454 1.815 18.810 o
-4 -16 -6 41.795 46.961 6.637 1.362 o
-4 -16 -5 5.901 6.717 0.712 112.158 o
-4 -16 -4 17.491 17.916 3.148 6.181 o
-4 -16 -3 25.940 28.864 4.953 2.505 o
-4 -16 -2 4.171 4.612 0.772 102.795 o
-4 -16 -1 10.660 11.239 2.547 9.672 o
-4 -15 -21 6.401 7.068 0.662 124.663 o
-4 -15 -20 5.100 5.484 0.531 194.363 o
-4 -15 -19 0.059 -0.100 0.772 108.839 o
-4 -15 -18 7.014 7.449 1.113 48.595 o
-4 -15 -17 13.917 16.021 1.674 20.238 o
-4 -15 -16 32.234 36.634 2.246 9.036 o
-4 -15 -15 44.423 50.961 1.975 8.125 o
-4 -15 -14 40.712 48.976 3.649 3.845 o
-4 -15 -13 10.666 11.911 1.414 29.098 o
-4 -15 -12 8.168 8.442 1.704 21.385 o
-4 -15 -11 1.570 1.765 0.612 171.125 o
-4 -15 -10 10.450 10.627 2.587 9.403 o
-4 -15 -9 5.876 6.346 1.103 50.491 o
-4 -15 -8 19.330 20.292 3.098 6.283 o
-4 -15 -7 9.671 9.895 1.925 16.701 o
-4 -15 -6 15.467 16.402 2.917 7.223 o
-4 -15 -5 17.167 17.826 2.647 8.564 o
-4 -15 -4 21.026 22.748 3.659 4.546 o
-4 -15 -3 10.188 10.667 2.456 10.404 o
-4 -15 -2 23.368 23.450 3.720 4.364 o
-4 -15 -1 7.700 7.700 1.003 58.090 o
-4 -14 -23 23.821 24.583 0.912 33.750 o
-4 -14 -22 21.170 21.265 1.534 20.283 o
-4 -14 -21 11.802 13.254 0.782 72.452 o
-4 -14 -20 16.183 16.512 0.932 47.404 o
-4 -14 -19 0.785 0.682 0.491 267.593 o
-4 -14 -18 3.658 3.659 0.652 144.192 o
-4 -14 -17 24.581 29.446 1.263 22.472 o
-4 -14 -16 1.155 1.704 0.521 235.730 o
-4 -14 -15 12.939 14.377 1.083 42.932 o
-4 -14 -14 20.111 23.821 1.524 20.404 o
-4 -14 -13 1.784 1.795 0.662 146.138 o
-4 -14 -12 1.671 1.895 0.531 225.159 o
-4 -14 -11 4.173 5.033 0.912 74.577 o
-4 -14 -10 35.979 40.263 6.106 1.625 o
-4 -14 -9 4.189 4.842 1.544 26.799 o
-4 -14 -8 8.294 8.803 0.792 85.127 o
-4 -14 -7 36.483 38.850 5.304 2.110 o
-4 -14 -6 22.795 19.741 0.852 40.097 o
-4 -14 -5 10.290 10.828 0.622 109.492 o
-4 -14 -4 31.425 31.451 1.845 12.331 o
-4 -14 -3 2.170 2.917 0.481 267.378 o
-4 -14 -2 50.439 50.019 2.837 5.065 o
-4 -14 -1 29.997 30.228 2.065 10.873 o
-4 -13 -25 15.798 16.232 0.772 60.410 o
-4 -13 -24 0.644 0.441 0.541 220.829 o
-4 -13 -23 0.130 -0.251 0.762 111.720 o
-4 -13 -22 1.070 0.962 0.571 197.403 o
-4 -13 -21 11.679 12.051 0.872 63.426 o
-4 -13 -20 0.294 0.592 0.612 173.289 o
-4 -13 -19 1.334 1.374 0.501 254.666 o
-4 -13 -18 3.830 3.920 0.551 195.331 o
-4 -13 -17 0.899 1.183 0.521 237.031 o
-4 -13 -16 15.844 17.244 1.724 18.673 o
-4 -13 -15 28.631 34.709 2.025 11.054 o
-4 -13 -14 1.672 2.146 0.672 141.775 o
-4 -13 -13 26.013 31.050 1.173 23.023 o
-4 -13 -12 15.084 17.525 1.253 31.709 o
-4 -13 -11 29.825 30.629 2.727 7.098 o
-4 -13 -10 3.282 4.141 0.521 219.333 o
-4 -13 -9 98.907 96.618 6.276 1.128 o
-4 -13 -8 30.301 30.258 1.353 18.240 o
-4 -13 -7 98.141 95.997 5.003 1.513 o
-4 -13 -6 59.635 58.420 2.807 4.481 o
-4 -13 -5 24.813 24.192 1.113 27.293 o
-4 -13 -4 8.652 8.382 0.682 107.644 o
-4 -13 -3 71.056 67.694 1.955 4.983 o
-4 -13 -2 45.875 43.321 1.895 8.764 o
-4 -13 -1 27.199 27.059 1.283 21.388 o
-4 -12 -26 1.525 1.744 0.551 210.009 o
-4 -12 -25 3.824 4.291 0.632 151.295 o
-4 -12 -24 3.478 3.529 0.612 163.392 o
-4 -12 -23 9.987 10.868 0.752 84.893 o
-4 -12 -22 1.610 1.564 0.612 171.234 o
-4 -12 -21 16.761 17.445 1.474 23.895 o
-4 -12 -20 5.079 5.003 0.702 119.999 o
-4 -12 -19 27.120 28.654 2.065 11.378 o
-4 -12 -18 6.604 7.670 0.932 67.538 o
-4 -12 -17 78.333 82.271 8.933 0.707 o
-4 -12 -16 4.450 4.873 0.592 166.525 o
-4 -12 -15 4.023 4.852 0.742 110.846 o
-4 -12 -14 4.942 4.802 0.531 198.121 o
-4 -12 -13 14.234 16.242 0.692 72.388 o
-4 -12 -12 12.296 13.936 0.662 86.729 o
-4 -12 -11 36.309 40.143 0.932 18.401 o
-4 -12 -10 8.579 8.692 0.521 157.678 o
-4 -12 -9 5.581 5.304 0.531 191.354 o
-4 -12 -8 6.376 6.687 0.561 164.572 o
-4 -12 -7 74.559 71.995 1.845 4.764 o
-4 -12 -6 16.456 16.733 0.922 47.501 o
-4 -12 -5 12.805 12.221 0.642 91.278 o
-4 -12 -4 25.154 25.656 1.073 27.531 o
-4 -12 -3 27.119 26.618 1.063 25.999 o
-4 -12 -2 13.858 14.718 0.682 77.138 o
-4 -12 -1 302.185 305.174 11.159 0.218 o
-4 -11 -28 9.778 10.808 0.972 56.982 o
-4 -11 -27 5.706 6.296 0.642 135.922 o
-4 -11 -26 1.439 1.835 0.571 195.835 o
-4 -11 -25 20.799 22.157 1.193 28.545 o
-4 -11 -24 10.251 10.918 0.772 80.863 o
-4 -11 -23 1.211 1.023 0.602 178.033 o
-4 -11 -22 8.388 8.742 0.752 92.476 o
-4 -11 -21 0.451 0.361 0.622 167.729 o
-4 -11 -20 28.855 29.155 1.925 12.282 o
-4 -11 -19 21.934 23.109 1.574 18.996 o
-4 -11 -18 46.508 48.936 4.191 2.979 o
-4 -11 -17 21.619 22.057 1.604 18.727 o
-4 -11 -16 4.308 4.522 0.521 210.704 o
-4 -11 -15 22.821 25.846 0.922 33.816 o
-4 -11 -14 24.772 29.145 0.882 31.311 o
-4 -11 -13 52.264 59.242 1.885 7.086 o
-4 -11 -12 17.806 20.723 0.762 52.165 o
-4 -11 -11 0.205 0.231 0.471 292.014 o
-4 -11 -10 6.924 8.181 0.511 178.793 o
-4 -11 -9 199.171 193.407 9.083 0.417 o
-4 -11 -8 11.977 11.921 0.762 76.366 o
-4 -11 -7 73.449 69.689 1.975 4.735 o
-4 -11 -6 46.799 44.013 1.434 10.792 o
-4 -11 -5 30.006 30.729 1.193 20.637 o
-4 -11 -4 33.923 34.499 0.942 21.088 o
-4 -11 -3 30.469 29.115 0.922 25.492 o
-4 -11 -2 19.374 18.588 0.742 52.436 o
-4 -11 -1 29.956 28.423 0.983 24.995 o
-4 -10 -29 4.196 5.023 0.852 84.921 o
-4 -10 -28 30.531 31.782 1.053 22.301 o
-4 -10 -27 5.577 6.056 0.662 129.804 o
-4 -10 -26 1.250 1.644 0.602 177.492 o
-4 -10 -25 3.589 3.930 0.652 143.998 o
-4 -10 -24 9.593 10.748 0.782 81.213 o
-4 -10 -23 22.479 22.959 1.013 32.615 o
-4 -10 -22 14.103 14.287 0.872 57.002 o
-4 -10 -21 14.142 14.207 0.882 56.137 o
-4 -10 -20 4.368 5.364 0.742 109.576 o
-4 -10 -19 3.374 3.820 0.712 122.378 o
-4 -10 -18 55.101 54.560 1.223 9.052 o
-4 -10 -17 33.251 32.463 1.353 16.729 o
-4 -10 -16 13.552 14.577 0.632 85.146 o
-4 -10 -15 20.258 22.979 0.852 41.360 o
-4 -10 -14 13.969 15.008 0.782 65.074 o
-4 -10 -13 8.447 9.484 0.592 130.978 o
-4 -10 -12 115.278 134.826 3.669 1.569 o
-4 -10 -11 13.051 14.748 0.722 74.591 o
-4 -10 -10 154.675 176.092 2.867 1.129 o
-4 -10 -9 52.188 59.934 1.765 7.411 o
-4 -10 -8 36.062 34.388 0.942 19.911 o
-4 -10 -7 54.424 54.811 1.434 8.479 o
-4 -10 -6 97.090 93.951 2.176 2.939 o
-4 -10 -5 63.427 62.511 1.293 7.080 o
-4 -10 -4 55.449 54.119 1.464 8.284 o
-4 -10 -3 3.535 3.689 0.521 219.153 o
-4 -10 -2 5.484 5.905 0.531 189.765 o
-4 -10 -1 38.643 37.396 0.962 17.659 o
-4 -9 -30 1.585 2.667 0.802 99.726 o
-4 -9 -29 14.499 15.600 0.872 55.146 o
-4 -9 -28 15.864 16.302 0.832 55.239 o
-4 -9 -27 2.419 3.028 0.622 162.442 o
-4 -9 -26 11.838 12.602 0.802 70.643 o
-4 -9 -25 5.455 5.835 0.692 120.763 o
-4 -9 -24 4.538 5.053 0.702 121.417 o
-4 -9 -23 3.370 3.168 0.672 137.505 o
-4 -9 -22 8.946 9.354 0.792 82.907 o
-4 -9 -21 1.261 1.093 0.642 156.509 o
-4 -9 -20 50.190 51.262 2.146 6.896 o
-4 -9 -19 65.333 63.684 1.594 6.219 o
-4 -9 -18 31.224 31.331 1.033 22.342 o
-4 -9 -17 18.309 20.182 1.153 32.381 o
-4 -9 -16 104.207 105.912 2.827 2.266 o
-4 -9 -15 5.811 6.727 0.581 158.800 o
-4 -9 -14 126.623 139.980 5.324 1.070 o
-4 -9 -13 3.535 4.000 0.501 234.263 o
-4 -9 -12 22.777 23.861 0.912 35.276 o
-4 -9 -11 9.290 9.765 0.592 125.294 o
-4 -9 -10 4.929 6.206 0.551 181.205 o
-4 -9 -9 117.224 129.011 3.008 1.770 o
-4 -9 -8 102.376 109.261 2.456 2.436 o
-4 -9 -7 8.062 7.449 0.561 150.398 o
-4 -9 -6 9.607 9.364 0.592 124.624 o
-4 -9 -5 10.342 9.725 0.592 119.450 o
-4 -9 -4 167.940 165.204 3.499 1.003 o
-4 -9 -3 2.896 3.319 0.501 241.469 o
-4 -9 -2 332.253 331.762 5.223 0.277 o
-4 -9 -1 40.338 39.922 0.983 16.204 o
-4 -8 -30 8.511 9.113 0.672 109.220 o
-4 -8 -29 5.750 6.056 0.652 132.633 o
-4 -8 -28 23.707 24.994 0.993 31.182 o
-4 -8 -27 1.579 1.524 0.612 171.327 o
-4 -8 -26 14.723 14.908 0.862 56.192 o
-4 -8 -25 1.051 1.193 0.632 161.668 o
-4 -8 -24 32.533 35.210 1.233 17.914 o
-4 -8 -23 0.121 -0.030 0.872 85.255 o
-4 -8 -22 13.986 13.565 0.882 56.961 o
-4 -8 -21 8.209 8.121 0.602 133.019 o
-4 -8 -20 46.473 48.103 1.374 10.736 o
-4 -8 -19 12.464 12.993 0.642 91.094 o
-4 -8 -18 9.014 9.615 0.602 124.391 o
-4 -8 -17 2.074 1.855 0.491 260.637 o
-4 -8 -16 43.956 48.855 1.634 9.862 o
-4 -8 -15 76.056 86.011 1.915 4.182 o
-4 -8 -14 12.218 13.234 0.732 77.959 o
-4 -8 -13 56.929 63.202 1.143 8.259 o
-4 -8 -12 196.996 220.907 3.710 0.699 o
-4 -8 -11 16.804 18.708 0.622 67.707 o
-4 -8 -10 76.754 80.918 1.293 4.932 o
-4 -8 -9 191.243 209.769 3.649 0.749 o
-4 -8 -8 12.742 13.825 0.511 111.032 o
-4 -8 -7 27.970 28.333 0.682 33.297 o
-4 -8 -6 214.859 206.540 3.459 0.672 o
-4 -8 -5 37.487 34.769 0.822 20.325 o
-4 -8 -4 36.672 35.902 0.912 19.508 o
-4 -8 -3 150.926 147.699 2.346 1.359 o
-4 -8 -2 12.483 12.271 0.531 113.405 o
-4 -8 -1 6.610 6.246 0.391 279.556 o
-4 -7 -31 0.572 0.421 0.501 257.598 o
-4 -7 -30 4.277 5.103 0.622 152.499 o
-4 -7 -29 5.743 5.765 0.652 133.237 o
-4 -7 -28 5.071 5.203 0.892 76.729 o
-4 -7 -27 22.472 23.921 1.163 27.683 o
-4 -7 -26 17.372 19.901 0.942 42.904 o
-4 -7 -25 62.859 65.959 1.765 6.013 o
-4 -7 -24 12.080 13.023 1.153 40.087 o
-4 -7 -23 52.536 55.092 2.406 5.819 o
-4 -7 -22 11.271 11.259 0.642 99.739 o
-4 -7 -21 29.154 30.929 0.842 27.341 o
-4 -7 -20 133.576 141.503 3.760 1.323 o
-4 -7 -19 40.417 41.226 1.313 13.411 o
-4 -7 -18 54.728 56.565 1.835 7.110 o
-4 -7 -17 2.624 2.727 0.551 204.394 o
-4 -7 -16 5.466 6.206 0.592 157.725 o
-4 -7 -15 40.523 44.945 1.765 10.089 o
-4 -7 -14 9.795 10.457 0.521 140.903 o
-4 -7 -13 104.467 112.880 2.115 2.485 o
-4 -7 -12 106.238 115.346 1.965 2.466 o
-4 -7 -11 1.130 1.564 0.371 461.139 o
-4 -7 -10 83.410 90.101 1.614 3.957 o
-4 -7 -9 58.458 62.300 1.033 8.343 o
-4 -7 -8 97.839 102.243 2.166 2.793 o
-4 -7 -7 19.012 19.370 0.521 67.582 o
-4 -7 -6 2.915 2.767 0.341 492.766 o
-4 -7 -5 111.836 109.862 1.765 2.462 o
-4 -7 -4 92.760 88.828 1.765 3.444 o
-4 -7 -3 75.950 72.035 1.353 5.271 o
-4 -7 -2 223.491 217.619 2.867 0.646 o
-4 -7 -1 70.303 67.684 1.043 6.391 o
-4 -6 -32 4.559 4.381 0.551 189.593 o
-4 -6 -31 16.416 18.217 1.153 34.619 o
-4 -6 -30 16.223 17.806 0.842 52.451 o
-4 -6 -29 8.162 8.382 0.581 139.306 o
-4 -6 -28 14.755 15.349 0.702 71.058 o
-4 -6 -27 12.497 13.204 0.802 68.420 o
-4 -6 -26 10.718 10.096 0.932 60.225 o
-4 -6 -25 4.887 4.682 0.592 164.818 o
-4 -6 -24 5.239 5.514 0.732 110.112 o
-4 -6 -23 51.599 53.497 2.607 5.440 o
-4 -6 -22 15.251 15.259 0.612 79.942 o
-4 -6 -21 22.622 22.618 0.812 40.007 o
-4 -6 -20 19.521 20.092 0.732 51.237 o
-4 -6 -19 6.368 6.035 0.712 111.778 o
-4 -6 -18 37.138 40.233 1.654 11.847 o
-4 -6 -17 110.773 121.041 3.900 1.633 o
-4 -6 -16 37.145 39.020 1.203 15.709 o
-4 -6 -15 6.390 6.988 0.612 142.357 o
-4 -6 -14 197.850 219.203 5.795 0.576 o
-4 -6 -13 231.214 251.436 3.870 0.534 o
-4 -6 -12 147.247 154.417 2.276 1.372 o
-4 -6 -11 75.011 80.206 1.253 5.131 o
-4 -6 -10 51.655 55.503 1.063 10.140 o
-4 -6 -9 17.384 17.495 0.521 77.009 o
-4 -6 -8 3.990 4.050 0.371 386.466 o
-4 -6 -7 11.785 10.968 0.471 137.660 o
-4 -6 -6 121.142 119.607 1.945 2.083 o
-4 -6 -5 191.752 188.023 2.807 0.852 o
-4 -6 -4 66.886 64.496 1.333 6.494 o
-4 -6 -3 78.280 75.755 1.343 4.960 o
-4 -6 -2 2.149 2.015 0.331 550.686 o
-4 -6 -1 171.306 170.227 2.687 1.044 o
-4 -5 -32 1.647 2.015 0.441 323.532 o
-4 -5 -31 11.530 11.670 0.983 53.286 o
-4 -5 -30 5.066 5.334 0.521 201.594 o
-4 -5 -29 3.319 3.649 0.511 228.757 o
-4 -5 -28 0.545 0.942 0.491 267.808 o
-4 -5 -27 21.227 20.803 1.594 19.208 o
-4 -5 -26 11.093 10.918 0.672 95.375 o
-4 -5 -25 15.717 16.061 0.832 55.745 o
-4 -5 -24 59.078 52.735 1.374 8.122 o
-4 -5 -23 7.188 7.028 0.431 230.385 o
-4 -5 -22 23.319 22.367 0.612 47.397 o
-4 -5 -21 47.747 47.853 1.524 9.807 o
-4 -5 -20 18.381 17.575 0.682 59.978 o
-4 -5 -19 89.815 86.793 1.805 3.587 o
-4 -5 -18 33.815 33.055 1.313 16.882 o
-4 -5 -17 0.285 0.401 0.401 402.824 o
-4 -5 -16 5.484 5.644 0.471 231.924 o
-4 -5 -15 9.664 9.565 0.501 152.389 o
-4 -5 -14 47.301 46.901 2.005 7.908 o
-4 -5 -13 96.683 102.814 2.306 2.744 o
-4 -5 -12 80.455 86.071 1.444 4.375 o
-4 -5 -11 0.066 0.241 0.291 767.046 o
-4 -5 -10 36.018 35.521 0.772 21.534 o
-4 -5 -9 247.546 241.741 4.421 0.488 o
-4 -5 -8 12.443 12.672 0.491 121.025 o
-4 -5 -7 40.925 39.411 0.912 16.617 o
-4 -5 -6 67.249 66.030 1.434 6.205 o
-4 -5 -5 332.092 327.010 5.233 0.279 o
-4 -5 -4 346.837 345.157 4.121 0.268 o
-4 -5 -3 200.060 197.608 2.647 0.795 o
-4 -5 -2 92.977 92.127 1.594 3.470 o
-4 -5 -1 136.838 136.801 1.935 1.666 o
-4 -4 -32 2.151 1.885 0.551 207.861 o
-4 -4 -31 0.086 -0.160 0.752 114.720 o
-4 -4 -30 3.454 2.657 0.491 249.046 o
-4 -4 -29 11.633 12.101 0.802 71.709 o
-4 -4 -28 6.832 7.509 0.602 142.406 o
-4 -4 -27 13.228 13.434 1.213 35.955 o
-4 -4 -26 20.629 20.483 1.323 25.461 o
-4 -4 -25 7.561 7.770 0.792 88.038 o
-4 -4 -24 23.242 21.806 0.642 46.809 o
-4 -4 -23 57.194 54.861 1.524 7.810 o
-4 -4 -22 5.713 5.384 0.441 255.762 o
-4 -4 -21 12.214 11.439 0.511 122.354 o
-4 -4 -20 19.683 19.199 0.692 54.282 o
-4 -4 -19 11.059 11.028 0.551 121.576 o
-4 -4 -18 3.919 3.669 0.441 291.844 o
-4 -4 -17 74.215 74.922 2.015 4.480 o
-4 -4 -16 56.686 56.886 1.414 8.055 o
-4 -4 -15 21.885 20.984 1.053 32.694 o
-4 -4 -14 73.741 75.414 2.456 3.953 o
-4 -4 -13 63.469 67.634 1.183 6.970 o
-4 -4 -12 10.580 11.038 0.491 141.666 o
-4 -4 -11 196.895 198.871 5.133 0.651 o
-4 -4 -10 14.211 13.304 0.451 114.362 o
-4 -4 -9 10.417 9.805 0.451 162.318 o
-4 -4 -8 122.178 124.560 1.775 2.054 o
-4 -4 -7 227.375 224.888 3.479 0.597 o
-4 -4 -6 45.083 41.807 0.842 14.922 o
-4 -4 -5 495.249 487.693 6.777 0.129 o
-4 -4 -4 32.385 30.859 0.672 27.470 o
-4 -4 -3 232.254 233.319 2.988 0.586 o
-4 -4 -2 330.623 329.807 4.121 0.292 o
-4 -4 -1 55.540 53.217 0.993 9.794 o
-4 -3 -33 16.449 16.272 1.574 21.748 o
-4 -3 -32 10.075 9.685 0.732 89.896 o
-4 -3 -31 8.394 7.780 0.712 102.507 o
-4 -3 -30 13.409 13.665 1.253 33.909 o
-4 -3 -29 4.181 4.050 0.551 192.908 o
-4 -3 -28 3.478 3.539 0.541 205.191 o
-4 -3 -27 6.508 6.727 0.602 146.332 o
-4 -3 -26 9.071 9.123 0.732 93.881 o
-4 -3 -25 37.901 38.349 2.697 6.490 o
-4 -3 -24 4.969 4.772 0.421 291.515 o
-4 -3 -23 0.019 0.130 0.351 526.757 o
-4 -3 -22 22.289 21.596 0.551 53.226 o
-4 -3 -21 53.240 52.886 1.634 8.133 o
-4 -3 -20 25.832 26.408 0.902 31.077 o
-4 -3 -19 64.157 63.072 1.504 6.544 o
-4 -3 -18 19.769 19.651 0.702 52.984 o
-4 -3 -17 6.263 6.116 0.441 242.771 o
-4 -3 -16 93.585 99.405 2.075 3.023 o
-4 -3 -15 341.602 352.515 5.765 0.252 o
-4 -3 -14 36.692 38.349 0.952 18.456 o
-4 -3 -13 88.172 90.563 1.634 3.696 o
-4 -3 -12 135.167 132.200 3.559 1.395 o
-4 -3 -11 62.463 58.500 1.113 7.848 o
-4 -3 -10 59.802 58.621 1.454 7.415 o
-4 -3 -9 70.350 70.571 1.374 5.787 o
-4 -3 -8 93.319 91.174 1.474 3.546 o
-4 -3 -7 99.560 100.368 1.374 3.146 o
-4 -3 -6 35.220 34.057 0.832 21.817 o
-4 -3 -5 224.530 219.985 2.677 0.644 o
-4 -3 -4 20.132 19.931 0.531 62.420 o
-4 -3 -3 462.099 468.012 6.015 0.147 o
-4 -3 -2 282.458 285.954 3.278 0.401 o
-4 -3 -1 221.156 223.143 2.807 0.646 o
-4 -2 -33 4.739 4.722 0.561 181.521 o
-4 -2 -32 4.263 4.351 0.571 179.575 o
-4 -2 -31 2.989 3.820 0.592 175.334 o
-4 -2 -30 0.270 -0.120 0.892 81.462 o
-4 -2 -29 39.116 43.893 2.156 8.357 o
-4 -2 -28 4.914 4.632 0.592 164.809 o
-4 -2 -27 65.743 73.739 5.123 1.851 o
-4 -2 -26 48.435 50.640 3.158 4.468 o
-4 -2 -25 8.361 8.221 0.501 170.145 o
-4 -2 -24 42.038 45.056 1.353 12.205 o
-4 -2 -23 14.145 13.795 0.612 87.188 o
-4 -2 -22 57.703 61.789 1.323 7.806 o
-4 -2 -21 96.608 104.258 2.416 2.667 o
-4 -2 -20 17.715 17.545 0.602 68.423 o
-4 -2 -19 48.782 50.209 1.484 9.592 o
-4 -2 -18 52.455 52.475 1.143 10.010 o
-4 -2 -17 47.870 47.592 0.902 12.706 o
-4 -2 -16 142.997 144.942 2.236 1.481 o
-4 -2 -15 35.032 35.120 1.073 18.738 o
-4 -2 -14 13.405 12.833 0.521 108.102 o
-4 -2 -13 0.638 0.652 0.301 710.915 o
-4 -2 -12 4.853 4.632 0.331 425.623 o
-4 -2 -11 436.586 444.421 8.662 0.148 o
-4 -2 -10 39.696 36.524 0.792 18.891 o
-4 -2 -9 8.810 9.374 0.401 207.215 o
-4 -2 -8 96.888 95.225 1.474 3.307 o
-4 -2 -7 174.922 172.684 2.296 1.041 o
-4 -2 -6 146.941 146.035 2.025 1.457 o
-4 -2 -5 148.959 146.216 2.256 1.401 o
-4 -2 -4 88.813 84.176 1.203 4.115 o
-4 -2 -3 8.025 7.660 0.351 269.663 o
-4 -2 -2 160.409 156.432 1.765 1.280 o
-4 -2 -1 112.685 113.000 1.384 2.511 o
-4 -1 -33 1.633 1.514 0.501 253.313 o
-4 -1 -32 19.429 21.134 1.524 21.101 o
-4 -1 -31 5.016 5.765 0.612 152.213 o
-4 -1 -30 21.633 21.365 1.885 14.658 o
-4 -1 -29 2.243 2.135 0.481 269.427 o
-4 -1 -28 6.646 6.386 0.561 163.760 o
-4 -1 -27 5.215 4.782 0.521 202.622 o
-4 -1 -26 69.247 79.193 2.005 4.660 o
-4 -1 -25 7.750 7.890 0.481 187.551 o
-4 -1 -24 22.088 21.535 0.752 44.208 o
-4 -1 -23 13.260 13.234 0.501 111.571 o
-4 -1 -22 29.444 30.929 1.103 22.358 o
-4 -1 -21 8.666 8.632 0.481 174.185 o
-4 -1 -20 31.569 31.130 1.103 21.113 o
-4 -1 -19 89.578 91.926 2.667 2.888 o
-4 -1 -18 8.511 8.011 0.481 178.954 o
-4 -1 -17 82.157 83.755 1.313 4.450 o
-4 -1 -16 22.473 22.418 0.782 41.598 o
-4 -1 -15 20.268 20.242 0.551 60.307 o
-4 -1 -14 228.427 232.617 3.218 0.592 o
-4 -1 -13 35.452 36.734 0.732 21.947 o
-4 -1 -12 148.874 143.408 2.146 1.433 o
-4 -1 -11 367.080 352.295 5.213 0.237 o
-4 -1 -10 213.637 206.340 3.228 0.688 o
-4 -1 -9 32.262 30.699 0.712 27.021 o
-4 -1 -8 438.550 425.894 5.845 0.167 o
-4 -1 -7 109.570 102.082 1.303 2.790 o
-4 -1 -6 85.538 82.602 1.243 4.328 o
-4 -1 -5 33.430 30.208 0.581 28.128 o
-4 -1 -4 159.909 155.860 1.855 1.279 o
-4 -1 -3 26.044 25.686 0.541 41.674 o
-4 -1 -2 75.874 74.912 1.033 5.499 o
-4 -1 -1 80.960 78.602 1.003 4.956 o
-3 -20 -8 1.296 1.775 0.642 156.037 o
-3 -20 -7 7.201 7.579 0.772 93.079 o
-3 -20 -6 4.391 4.411 0.712 119.443 o
-3 -20 -5 1.691 1.845 0.371 452.606 o
-3 -20 -4 5.251 4.842 0.622 148.920 o
-3 -20 -3 7.953 8.121 0.712 103.406 o
-3 -20 -2 17.435 15.740 0.752 58.946 o
-3 -20 -1 1.211 1.233 0.461 301.016 o
-3 -19 -13 6.468 6.687 1.113 49.181 o
-3 -19 -12 10.729 11.249 1.674 21.430 o
-3 -19 -11 7.746 7.840 1.654 22.757 o
-3 -19 -10 2.649 2.436 0.411 357.450 o
-3 -19 -9 1.188 1.183 0.401 396.791 o
-3 -19 -8 13.414 12.662 1.323 31.228 o
-3 -19 -7 1.376 1.343 0.481 275.909 o
-3 -19 -6 0.159 0.201 0.391 424.110 o
-3 -19 -5 2.290 2.296 0.421 346.518 o
-3 -19 -4 17.942 15.871 0.772 56.140 o
-3 -19 -3 11.300 11.570 1.193 38.904 o
-3 -19 -2 7.189 6.547 0.602 143.089 o
-3 -19 -1 0.368 0.712 0.481 279.553 o
-3 -18 -17 4.299 5.013 0.511 216.113 o
-3 -18 -16 5.134 5.394 0.511 207.446 o
-3 -18 -15 2.891 3.228 0.501 241.806 o
-3 -18 -14 3.899 4.010 0.521 215.553 o
-3 -18 -13 12.509 14.497 1.343 30.438 o
-3 -18 -12 4.024 4.502 1.073 54.797 o
-3 -18 -11 21.010 22.187 1.755 16.466 o
-3 -18 -10 11.259 11.319 1.213 37.915 o
-3 -18 -9 9.455 9.063 0.822 77.284 o
-3 -18 -8 15.462 15.951 1.554 22.570 o
-3 -18 -7 18.326 17.294 1.464 23.583 o
-3 -18 -6 17.961 17.886 1.634 19.804 o
-3 -18 -5 24.680 21.956 1.143 27.385 o
-3 -18 -4 6.803 7.429 0.571 154.810 o
-3 -18 -3 14.052 13.084 0.652 83.266 o
-3 -18 -2 0.550 0.762 0.441 332.085 o
-3 -18 -1 23.850 22.578 0.942 33.788 o
-3 -17 -20 4.232 4.431 0.481 243.553 o
-3 -17 -19 7.502 6.868 0.922 68.229 o
-3 -17 -18 5.358 5.374 0.501 212.415 o
-3 -17 -17 10.362 10.487 0.852 69.770 o
-3 -17 -16 1.043 1.484 0.491 265.836 o
-3 -17 -15 50.123 51.663 14.968 0.283 o
-3 -17 -14 3.719 4.502 0.561 188.018 o
-3 -17 -13 18.772 20.623 2.015 13.605 o
-3 -17 -12 4.667 5.063 0.581 170.057 o
-3 -17 -11 2.144 2.376 0.541 214.512 o
-3 -17 -10 5.236 5.394 0.692 122.124 o
-3 -17 -9 34.752 36.714 1.363 15.387 o
-3 -17 -8 5.344 6.156 0.561 173.216 o
-3 -17 -7 20.517 19.640 1.624 19.039 o
-3 -17 -6 2.224 2.035 0.481 269.854 o
-3 -17 -5 23.465 22.317 1.384 22.246 o
-3 -17 -4 4.837 4.973 0.742 108.973 o
-3 -17 -3 111.596 108.599 2.506 2.216 o
-3 -17 -2 18.602 16.663 1.303 28.144 o
-3 -17 -1 51.401 47.181 2.496 5.934 o
-3 -16 -22 9.316 9.324 1.003 55.516 o
-3 -16 -21 16.815 17.395 1.173 33.788 o
-3 -16 -20 2.485 2.687 0.481 266.018 o
-3 -16 -19 8.362 8.341 0.732 97.267 o
-3 -16 -18 0.398 0.752 0.481 279.477 o
-3 -16 -17 4.682 4.431 0.481 239.049 o
-3 -16 -16 7.496 7.860 1.123 47.348 o
-3 -16 -15 10.016 10.026 1.203 39.645 o
-3 -16 -14 28.398 31.150 1.454 17.396 o
-3 -16 -13 43.667 46.820 15.610 0.262 o
-3 -16 -12 11.085 11.760 1.253 35.817 o
-3 -16 -11 44.242 52.184 2.306 6.864 o
-3 -16 -10 16.588 17.425 1.343 27.724 o
-3 -16 -9 3.174 2.647 0.541 209.236 o
-3 -16 -8 14.553 13.765 1.504 24.519 o
-3 -16 -7 29.879 30.007 2.005 11.373 o
-3 -16 -6 1.706 1.594 0.581 188.903 o
-3 -16 -5 11.859 10.758 0.993 52.590 o
-3 -16 -4 17.515 16.262 1.664 19.541 o
-3 -16 -3 7.711 7.610 1.033 55.102 o
-3 -16 -2 4.837 4.512 0.692 124.597 o
-3 -16 -1 21.904 22.428 2.085 12.320 o
-3 -15 -24 38.010 38.970 1.374 13.954 o
-3 -15 -23 4.886 4.672 0.622 150.861 o
-3 -15 -22 2.933 3.308 0.491 250.514 o
-3 -15 -21 4.616 5.354 0.531 198.490 o
-3 -15 -20 19.780 20.102 1.594 19.748 o
-3 -15 -19 1.224 1.684 0.511 244.762 o
-3 -15 -18 7.588 7.499 0.892 71.786 o
-3 -15 -17 0.041 0.150 0.511 248.089 o
-3 -15 -16 20.327 20.192 1.704 17.635 o
-3 -15 -15 13.192 14.357 1.674 20.592 o
-3 -15 -14 24.946 30.067 1.694 15.421 o
-3 -15 -13 37.933 43.111 2.526 6.945 o
-3 -15 -12 18.607 18.347 1.724 17.926 o
-3 -15 -11 27.211 30.939 1.604 15.840 o
-3 -15 -10 24.598 24.453 1.925 13.406 o
-3 -15 -9 36.968 34.328 1.604 12.918 o
-3 -15 -8 18.007 16.382 1.053 38.573 o
-3 -15 -7 17.532 16.222 0.993 42.271 o
-3 -15 -6 18.876 18.046 0.812 49.524 o
-3 -15 -5 11.351 10.487 0.622 105.221 o
-3 -15 -4 35.864 32.453 1.043 19.339 o
-3 -15 -3 41.310 36.825 1.343 13.557 o
-3 -15 -2 9.566 9.605 0.531 142.616 o
-3 -15 -1 12.468 11.530 0.652 92.345 o
-3 -14 -26 5.224 5.033 0.612 152.955 o
-3 -14 -25 1.074 1.043 0.561 204.395 o
-3 -14 -24 14.588 15.269 0.822 59.594 o
-3 -14 -23 4.208 4.832 0.672 132.951 o
-3 -14 -22 35.293 35.832 1.213 16.905 o
-3 -14 -21 15.887 16.021 1.113 37.809 o
-3 -14 -20 3.982 4.201 0.561 187.399 o
-3 -14 -19 21.218 22.277 1.253 26.527 o
-3 -14 -18 16.040 16.242 1.023 42.299 o
-3 -14 -17 19.554 23.160 2.065 12.780 o
-3 -14 -16 26.448 29.536 1.484 17.914 o
-3 -14 -15 19.761 22.738 1.313 25.591 o
-3 -14 -14 18.366 21.525 1.755 17.127 o
-3 -14 -13 55.380 56.365 1.564 7.834 o
-3 -14 -12 81.326 90.683 2.025 3.705 o
-3 -14 -11 3.132 3.258 0.401 360.832 o
-3 -14 -10 66.554 75.424 1.544 5.657 o
-3 -14 -9 27.182 26.659 1.514 17.708 o
-3 -14 -8 20.296 17.706 1.093 34.066 o
-3 -14 -7 1.008 1.263 0.371 463.801 o
-3 -14 -6 79.276 70.240 2.035 4.303 o
-3 -14 -5 6.270 5.965 0.441 243.730 o
-3 -14 -4 7.115 6.777 0.441 226.190 o
-3 -14 -3 19.512 17.715 0.852 46.376 o
-3 -14 -2 36.140 32.153 1.323 16.098 o
-3 -14 -1 46.677 43.251 1.193 12.191 o
-3 -13 -27 0.048 0.401 0.551 213.289 o
-3 -13 -26 15.237 16.332 0.842 55.591 o
-3 -13 -25 6.131 7.038 0.712 110.974 o
-3 -13 -24 14.925 15.129 0.872 54.815 o
-3 -13 -23 11.091 10.988 0.812 72.939 o
-3 -13 -22 0.509 0.571 0.642 157.344 o
-3 -13 -21 4.942 5.344 0.581 167.795 o
-3 -13 -20 14.236 15.299 1.083 41.247 o
-3 -13 -19 23.152 23.099 1.303 23.981 o
-3 -13 -18 1.249 1.263 0.541 219.090 o
-3 -13 -17 8.867 10.627 0.832 75.384 o
-3 -13 -16 33.947 39.120 1.363 15.258 o
-3 -13 -15 14.305 16.031 0.832 58.505 o
-3 -13 -14 27.264 29.255 1.273 21.010 o
-3 -13 -13 9.752 9.815 0.632 112.126 o
-3 -13 -12 8.877 8.341 0.481 173.516 o
-3 -13 -11 4.240 4.742 0.451 270.203 o
-3 -13 -10 51.088 56.886 1.283 9.358 o
-3 -13 -9 79.237 87.364 1.905 3.991 o
-3 -13 -8 17.658 18.167 0.912 45.366 o
-3 -13 -7 16.811 15.019 1.133 36.489 o
-3 -13 -6 58.537 52.094 1.283 8.508 o
-3 -13 -5 66.002 61.498 1.785 5.894 o
-3 -13 -4 121.902 113.872 2.336 2.016 o
-3 -13 -3 36.413 33.095 0.842 21.250 o
-3 -13 -2 80.708 71.554 1.434 4.844 o
-3 -13 -1 100.738 90.502 1.684 3.142 o
-3 -12 -29 0.134 -0.461 0.962 70.019 o
-3 -12 -28 12.250 13.495 0.782 71.041 o
-3 -12 -27 2.474 2.928 0.632 157.473 o
-3 -12 -26 1.033 0.692 0.612 172.690 o
-3 -12 -25 0.446 0.682 0.622 167.650 o
-3 -12 -24 22.241 22.698 1.023 32.621 o
-3 -12 -23 2.508 2.817 0.702 128.355 o
-3 -12 -22 16.275 17.114 0.952 45.605 o
-3 -12 -21 4.970 4.522 0.722 114.853 o
-3 -12 -20 19.929 20.974 1.143 31.197 o
-3 -12 -19 3.732 4.070 0.592 171.739 o
-3 -12 -18 14.565 14.166 0.762 66.726 o
-3 -12 -17 13.138 14.247 0.712 76.342 o
-3 -12 -16 36.392 37.657 1.634 12.431 o
-3 -12 -15 3.942 4.742 0.471 254.028 o
-3 -12 -14 4.056 4.381 0.411 321.802 o
-3 -12 -13 16.789 16.783 1.043 40.116 o
-3 -12 -12 55.504 58.019 1.634 7.509 o
-3 -12 -11 114.612 123.978 2.537 1.996 o
-3 -12 -10 121.426 133.513 2.647 1.773 o
-3 -12 -9 180.440 201.909 3.379 0.836 o
-3 -12 -8 14.034 14.136 0.802 63.886 o
-3 -12 -7 12.963 14.237 0.581 96.089 o
-3 -12 -6 139.245 124.630 2.516 1.611 o
-3 -12 -5 7.985 7.820 0.652 119.479 o
-3 -12 -4 15.782 15.109 0.692 69.484 o
-3 -12 -3 32.939 30.298 0.722 26.443 o
-3 -12 -2 58.786 52.044 1.043 9.141 o
-3 -12 -1 46.478 41.657 0.912 14.049 o
-3 -11 -30 2.147 1.704 0.561 200.981 o
-3 -11 -29 3.924 3.870 0.632 151.683 o
-3 -11 -28 11.110 12.091 0.792 74.283 o
-3 -11 -27 30.180 31.721 1.153 20.922 o
-3 -11 -26 39.057 41.066 1.323 13.748 o
-3 -11 -25 31.949 35.251 1.243 18.024 o
-3 -11 -24 11.724 11.901 0.862 64.580 o
-3 -11 -23 5.499 6.186 0.772 98.632 o
-3 -11 -22 13.745 15.079 0.952 50.454 o
-3 -11 -21 34.577 37.055 1.333 15.690 o
-3 -11 -20 36.705 34.589 1.494 13.897 o
-3 -11 -19 1.827 1.684 0.431 338.177 o
-3 -11 -18 19.909 19.370 0.922 40.990 o
-3 -11 -17 23.831 23.139 0.842 36.934 o
-3 -11 -16 116.679 127.929 2.466 1.945 o
-3 -11 -15 70.476 76.166 1.494 5.371 o
-3 -11 -14 78.562 85.550 1.765 4.208 o
-3 -11 -13 2.873 3.188 0.391 382.554 o
-3 -11 -12 1.393 1.293 0.371 459.761 o
-3 -11 -11 1.378 1.343 0.371 459.649 o
-3 -11 -10 137.671 150.928 2.557 1.458 o
-3 -11 -9 64.157 68.967 1.374 6.476 o
-3 -11 -8 93.299 103.476 2.416 2.771 o
-3 -11 -7 19.106 19.921 0.792 48.654 o
-3 -11 -6 49.577 53.177 1.243 10.148 o
-3 -11 -5 43.575 38.158 1.414 12.290 o
-3 -11 -4 131.396 117.772 2.346 1.814 o
-3 -11 -3 40.670 36.173 0.972 16.936 o
-3 -11 -2 144.587 131.518 2.526 1.496 o
-3 -11 -1 54.492 48.956 0.912 10.735 o
-3 -10 -31 5.197 5.113 0.622 148.562 o
-3 -10 -30 0.361 0.561 0.571 198.408 o
-3 -10 -29 4.553 5.624 0.692 123.815 o
-3 -10 -28 35.163 38.529 2.045 9.742 o
-3 -10 -27 1.319 0.782 0.652 151.862 o
-3 -10 -26 8.664 8.853 0.802 82.477 o
-3 -10 -25 18.730 18.929 0.983 39.807 o
-3 -10 -24 25.055 25.616 1.113 26.625 o
-3 -10 -23 6.585 7.339 0.802 88.716 o
-3 -10 -22 26.096 27.521 1.153 24.418 o
-3 -10 -21 62.956 63.513 1.604 6.443 o
-3 -10 -20 77.890 77.649 1.865 4.366 o
-3 -10 -19 46.733 46.650 1.133 12.048 o
-3 -10 -18 26.429 27.130 0.972 28.424 o
-3 -10 -17 54.116 54.289 1.985 6.859 o
-3 -10 -16 37.730 38.920 1.273 14.899 o
-3 -10 -15 17.125 18.488 0.962 43.035 o
-3 -10 -14 11.325 12.332 0.612 103.025 o
-3 -10 -13 76.351 81.790 2.085 4.097 o
-3 -10 -12 30.289 31.511 1.363 17.867 o
-3 -10 -11 136.065 148.171 2.767 1.456 o
-3 -10 -10 42.841 46.229 1.093 13.434 o
-3 -10 -9 33.139 36.965 0.712 23.734 o
-3 -10 -8 34.799 36.424 1.263 16.448 o
-3 -10 -7 21.693 22.738 0.952 35.633 o
-3 -10 -6 324.555 342.810 5.935 0.269 o
-3 -10 -5 131.873 124.851 4.411 1.272 o
-3 -10 -4 62.918 55.182 1.293 7.616 o
-3 -10 -3 14.445 12.773 0.511 103.952 o
-3 -10 -2 21.058 19.981 0.672 51.619 o
-3 -10 -1 177.052 158.708 3.008 1.014 o
-3 -9 -32 6.858 6.707 0.882 74.943 o
-3 -9 -31 8.358 9.334 0.722 97.863 o
-3 -9 -30 2.467 2.216 0.632 158.350 o
-3 -9 -29 1.469 1.975 0.652 150.944 o
-3 -9 -28 5.854 6.025 0.742 105.279 o
-3 -9 -27 30.833 33.506 1.223 19.146 o
-3 -9 -26 3.410 3.689 0.722 119.204 o
-3 -9 -25 66.009 69.489 1.865 5.424 o
-3 -9 -24 4.075 4.241 0.732 114.255 o
-3 -9 -23 3.112 3.429 0.742 113.819 o
-3 -9 -22 8.601 8.001 0.602 131.166 o
-3 -9 -21 38.708 39.010 1.273 14.569 o
-3 -9 -20 6.911 6.477 0.571 157.197 o
-3 -9 -19 10.973 10.808 0.622 106.254 o
-3 -9 -18 46.397 45.617 1.103 12.432 o
-3 -9 -17 23.569 24.663 0.882 34.964 o
-3 -9 -16 11.401 11.830 0.551 116.963 o
-3 -9 -15 101.507 111.266 2.336 2.487 o
-3 -9 -14 15.209 16.282 0.612 78.197 o
-3 -9 -13 89.891 94.212 1.845 3.399 o
-3 -9 -12 66.409 71.032 1.233 6.359 o
-3 -9 -11 25.283 25.636 0.802 34.946 o
-3 -9 -10 108.935 119.547 1.955 2.350 o
-3 -9 -9 167.233 149.915 2.737 1.148 o
-3 -9 -8 51.809 46.560 1.013 11.309 o
-3 -9 -7 86.903 79.915 1.724 3.951 o
-3 -9 -6 190.692 173.486 2.627 0.911 o
-3 -9 -5 205.132 190.439 3.068 0.765 o
-3 -9 -4 66.124 62.190 1.233 6.888 o
-3 -9 -3 93.016 89.791 1.765 3.413 o
-3 -9 -2 28.910 26.568 0.832 29.757 o
-3 -9 -1 85.186 75.013 1.544 4.336 o
-3 -8 -33 1.929 1.855 0.752 113.355 o
-3 -8 -32 4.667 5.123 0.882 78.905 o
-3 -8 -31 4.407 4.502 0.662 136.588 o
-3 -8 -30 1.770 2.005 0.642 155.126 o
-3 -8 -29 18.334 19.069 0.952 41.687 o
-3 -8 -28 5.169 5.454 0.732 110.361 o
-3 -8 -27 4.314 5.324 0.732 112.551 o
-3 -8 -26 18.207 19.209 1.504 22.307 o
-3 -8 -25 4.565 4.622 0.732 112.777 o
-3 -8 -24 54.478 54.801 1.614 7.904 o
-3 -8 -23 30.277 31.070 0.922 24.908 o
-3 -8 -22 77.387 76.516 2.146 4.112 o
-3 -8 -21 27.302 27.290 1.023 26.513 o
-3 -8 -20 14.758 14.718 0.792 62.610 o
-3 -8 -19 50.136 51.663 1.524 9.080 o
-3 -8 -18 4.283 4.682 0.471 250.734 o
-3 -8 -17 123.586 124.971 2.887 1.741 o
-3 -8 -16 4.861 5.213 0.391 325.173 o
-3 -8 -15 13.633 13.104 0.461 117.279 o
-3 -8 -14 38.762 40.604 0.942 17.058 o
-3 -8 -13 144.313 155.790 2.867 1.311 o
-3 -8 -12 39.860 43.011 0.872 16.603 o
-3 -8 -11 266.242 277.583 7.198 0.343 o
-3 -8 -10 174.858 169.195 2.366 1.049 o
-3 -8 -9 34.178 33.526 0.642 25.144 o
-3 -8 -8 72.729 65.588 1.083 6.192 o
-3 -8 -7 201.716 191.632 2.717 0.797 o
-3 -8 -6 0.817 1.734 0.331 580.015 o
-3 -8 -5 579.454 603.711 13.715 0.077 o
-3 -8 -4 58.473 52.786 1.213 8.662 o
-3 -8 -3 62.696 58.861 1.123 7.767 o
-3 -8 -2 44.106 40.705 1.003 14.491 o
-3 -8 -1 455.065 450.387 6.186 0.153 o
-3 -7 -33 7.195 7.188 0.912 69.774 o
-3 -7 -32 4.048 4.502 0.902 76.551 o
-3 -7 -31 20.402 20.843 1.374 24.200 o
-3 -7 -30 2.973 2.567 0.652 147.479 o
-3 -7 -29 4.579 5.143 0.722 115.048 o
-3 -7 -28 11.495 11.840 0.852 66.215 o
-3 -7 -27 16.624 18.528 1.093 36.978 o
-3 -7 -26 3.417 4.562 0.752 109.470 o
-3 -7 -25 15.380 15.871 0.952 47.649 o
-3 -7 -24 70.585 72.717 1.534 5.447 o
-3 -7 -23 14.072 14.577 0.702 74.240 o
-3 -7 -22 44.500 44.655 1.253 12.235 o
-3 -7 -21 128.318 130.575 3.379 1.518 o
-3 -7 -20 63.991 66.631 1.454 6.471 o
-3 -7 -19 133.373 138.636 2.135 1.668 o
-3 -7 -18 10.815 10.818 0.551 123.795 o
-3 -7 -17 10.020 10.477 0.521 139.103 o
-3 -7 -16 1.667 1.875 0.411 371.430 o
-3 -7 -15 91.759 92.989 1.384 3.627 o
-3 -7 -14 155.090 162.257 2.617 1.213 o
-3 -7 -13 99.793 101.250 1.474 3.078 o
-3 -7 -12 157.754 159.800 2.196 1.247 o
-3 -7 -11 153.104 154.717 2.366 1.298 o
-3 -7 -10 183.905 186.208 2.907 0.894 o
-3 -7 -9 333.427 346.309 4.993 0.271 o
-3 -7 -8 5.722 5.634 0.351 352.422 o
-3 -7 -7 61.981 61.508 1.133 7.660 o
-3 -7 -6 7.503 7.419 0.351 284.292 o
-3 -7 -5 101.184 97.831 1.714 2.981 o
-3 -7 -4 34.107 35.040 0.722 23.606 o
-3 -7 -3 302.790 302.156 3.970 0.345 o
-3 -7 -2 91.188 90.442 1.263 3.784 o
-3 -7 -1 17.759 17.405 0.491 78.496 o
-3 -6 -34 1.774 1.925 0.752 113.466 o
-3 -6 -33 1.394 1.724 0.581 189.444 o
-3 -6 -32 8.828 8.341 0.742 93.791 o
-3 -6 -31 0.246 -0.551 0.862 87.245 o
-3 -6 -30 20.421 20.001 1.534 20.749 o
-3 -6 -29 3.476 4.742 0.592 171.388 o
-3 -6 -28 34.620 34.228 1.654 13.045 o
-3 -6 -27 35.312 37.977 2.035 9.820 o
-3 -6 -26 30.987 34.849 1.303 17.738 o
-3 -6 -25 18.180 18.367 0.792 51.772 o
-3 -6 -24 76.176 76.366 1.564 4.851 o
-3 -6 -23 49.980 49.246 1.374 9.924 o
-3 -6 -22 133.987 134.205 2.867 1.544 o
-3 -6 -21 71.070 69.508 1.584 5.467 o
-3 -6 -20 17.059 16.984 0.612 70.549 o
-3 -6 -19 3.312 3.830 0.431 310.826 o
-3 -6 -18 34.761 35.852 0.942 20.224 o
-3 -6 -17 49.740 50.630 1.003 11.357 o
-3 -6 -16 33.778 33.666 0.782 23.574 o
-3 -6 -15 84.623 85.901 1.384 4.182 o
-3 -6 -14 3.965 4.221 0.391 353.058 o
-3 -6 -13 17.526 16.953 0.531 76.559 o
-3 -6 -12 98.774 100.699 1.624 3.057 o
-3 -6 -11 40.974 40.905 0.802 17.090 o
-3 -6 -10 315.730 325.757 4.161 0.311 o
-3 -6 -9 61.867 62.250 1.083 7.725 o
-3 -6 -8 25.270 24.172 0.541 44.461 o
-3 -6 -7 406.176 419.337 5.604 0.186 o
-3 -6 -6 181.513 180.133 2.948 0.923 o
-3 -6 -5 158.589 156.933 2.306 1.241 o
-3 -6 -4 129.403 127.197 1.845 1.879 o
-3 -6 -3 196.504 200.214 2.386 0.819 o
-3 -6 -2 165.402 167.590 1.965 1.164 o
-3 -6 -1 29.685 27.390 0.561 34.368 o
-3 -5 -34 5.000 4.883 0.622 149.922 o
-3 -5 -33 3.198 2.787 0.622 160.555 o
-3 -5 -32 15.022 15.149 0.872 54.628 o
-3 -5 -31 21.776 19.550 0.972 36.494 o
-3 -5 -30 1.734 1.885 0.692 133.866 o
-3 -5 -29 11.697 12.462 0.832 67.499 o
-3 -5 -28 6.191 6.116 0.632 137.886 o
-3 -5 -27 0.083 -0.080 0.932 74.610 o
-3 -5 -26 28.928 29.075 1.013 24.912 o
-3 -5 -25 6.000 5.725 0.461 233.063 o
-3 -5 -24 4.680 4.191 0.441 278.444 o
-3 -5 -23 10.592 9.825 0.511 140.317 o
-3 -5 -22 27.612 27.721 0.902 28.814 o
-3 -5 -21 43.926 43.732 0.983 14.157 o
-3 -5 -20 232.013 233.981 3.288 0.576 o
-3 -5 -19 64.230 61.909 1.063 7.457 o
-3 -5 -18 39.331 38.368 0.752 18.933 o
-3 -5 -17 26.864 27.160 0.622 37.004 o
-3 -5 -16 70.691 70.020 1.083 6.174 o
-3 -5 -15 11.845 11.079 0.461 139.446 o
-3 -5 -14 387.156 391.395 5.123 0.209 o
-3 -5 -13 7.608 7.549 0.391 248.395 o
-3 -5 -12 89.886 91.415 1.414 3.737 o
-3 -5 -11 162.145 164.232 2.055 1.200 o
-3 -5 -10 227.089 232.016 3.198 0.597 o
-3 -5 -9 10.048 10.056 0.391 189.242 o
-3 -5 -8 599.983 625.617 7.710 0.086 o
-3 -5 -7 24.044 23.480 0.481 49.843 o
-3 -5 -6 80.289 79.143 1.053 4.947 o
-3 -5 -5 94.926 90.101 1.213 3.636 o
-3 -5 -4 630.252 653.970 6.958 0.080 o
-3 -5 -3 163.803 168.683 1.865 1.181 o
-3 -5 -2 528.445 552.720 6.206 0.112 o
-3 -5 -1 4.333 4.121 0.301 520.522 o
-3 -4 -35 0.532 1.223 0.752 114.500 o
-3 -4 -34 7.815 7.760 0.692 109.417 o
-3 -4 -33 3.762 3.629 0.642 148.193 o
-3 -4 -32 2.721 3.359 0.672 138.777 o
-3 -4 -31 0.896 1.103 0.652 152.108 o
-3 -4 -30 26.669 24.513 1.103 26.133 o
-3 -4 -29 4.228 3.760 0.742 111.529 o
-3 -4 -28 26.612 26.709 1.654 15.933 o
-3 -4 -27 12.135 12.031 0.632 96.213 o
-3 -4 -26 0.332 0.170 0.391 423.862 o
-3 -4 -25 2.118 1.945 0.401 384.253 o
-3 -4 -24 39.110 37.185 0.932 17.766 o
-3 -4 -23 2.769 2.757 0.411 353.794 o
-3 -4 -22 57.998 56.936 1.153 8.562 o
-3 -4 -21 12.055 11.861 0.501 124.375 o
-3 -4 -20 3.219 3.128 0.391 377.119 o
-3 -4 -19 0.128 0.501 0.351 526.270 o
-3 -4 -18 250.822 248.147 3.349 0.504 o
-3 -4 -17 11.411 10.617 0.421 157.872 o
-3 -4 -16 148.861 145.965 2.156 1.417 o
-3 -4 -15 86.439 86.151 1.394 4.065 o
-3 -4 -14 9.376 9.093 0.431 186.501 o
-3 -4 -13 54.022 52.084 0.862 10.636 o
-3 -4 -12 302.409 307.349 3.589 0.347 o
-3 -4 -11 5.519 5.404 0.281 479.530 o
-3 -4 -10 73.497 72.486 1.093 5.763 o
-3 -4 -9 31.595 31.030 0.561 29.901 o
-3 -4 -8 311.856 311.009 3.519 0.333 o
-3 -4 -7 371.348 381.720 5.223 0.223 o
-3 -4 -6 1208.670 1221.430 15.500 0.022 o
-3 -4 -5 54.048 50.560 0.682 11.336 o
-3 -4 -4 700.492 742.016 8.111 0.063 o
-3 -4 -3 187.521 192.795 2.065 0.906 o
-3 -4 -2 124.986 132.931 1.714 1.933 o
-3 -4 -1 47.799 52.334 0.802 12.440 o
-3 -3 -35 0.547 0.602 0.541 220.847 o
-3 -3 -34 0.077 0.261 0.571 198.595 o
-3 -3 -33 7.819 7.710 0.742 97.646 o
-3 -3 -32 20.709 19.921 2.135 12.133 o
-3 -3 -31 3.362 3.359 0.632 154.371 o
-3 -3 -30 31.802 31.752 2.115 10.176 o
-3 -3 -29 5.463 5.554 0.682 124.378 o
-3 -3 -28 11.779 12.091 0.762 76.670 o
-3 -3 -27 3.893 3.950 0.451 279.209 o
-3 -3 -26 85.400 86.943 3.148 2.727 o
-3 -3 -25 39.450 37.947 1.143 15.600 o
-3 -3 -24 24.067 23.992 1.063 29.272 o
-3 -3 -23 101.556 100.999 2.446 2.564 o
-3 -3 -22 72.679 70.802 1.664 5.177 o
-3 -3 -21 22.330 22.237 0.672 46.803 o
-3 -3 -20 67.367 66.300 1.384 6.264 o
-3 -3 -19 4.002 3.619 0.361 409.281 o
-3 -3 -18 91.089 89.019 1.694 3.558 o
-3 -3 -17 9.207 8.532 0.361 230.087 o
-3 -3 -16 5.825 6.005 0.331 371.580 o
-3 -3 -15 71.276 68.897 1.283 5.905 o
-3 -3 -14 107.806 109.170 1.805 2.565 o
-3 -3 -13 198.735 198.309 3.339 0.761 o
-3 -3 -12 51.603 49.738 0.842 11.594 o
-3 -3 -11 12.362 13.455 0.371 146.738 o
-3 -3 -10 37.680 37.717 0.652 20.956 o
-3 -3 -9 132.489 132.049 1.744 1.804 o
-3 -3 -8 890.839 929.928 12.011 0.039 o
-3 -3 -7 278.184 277.563 2.988 0.421 o
-3 -3 -6 28.734 28.593 0.531 35.459 o
-3 -3 -5 307.399 307.580 3.098 0.346 o
-3 -3 -4 231.266 239.555 2.587 0.592 o
-3 -3 -3 33.348 33.687 0.521 27.296 o
-3 -3 -2 233.625 254.123 2.637 0.561 o
-3 -3 -1 108.158 116.950 1.474 2.557 o
-3 -2 -35 8.056 8.382 0.612 129.905 o
-3 -2 -34 7.059 6.818 0.682 116.593 o
-3 -2 -33 8.715 8.492 0.672 109.648 o
-3 -2 -32 3.551 3.499 0.622 158.260 o
-3 -2 -31 4.526 3.920 0.652 141.062 o
-3 -2 -30 18.414 18.758 1.283 28.298 o
-3 -2 -29 29.712 27.621 1.825 13.205 o
-3 -2 -28 12.930 12.652 1.053 45.744 o
-3 -2 -27 15.219 14.477 0.892 53.275 o
-3 -2 -26 1.909 2.125 0.361 471.229 o
-3 -2 -25 63.192 64.536 2.236 5.143 o
-3 -2 -24 21.353 23.129 0.652 48.772 o
-3 -2 -23 178.434 180.844 3.599 0.884 o
-3 -2 -22 75.191 73.168 2.135 4.325 o
-3 -2 -21 4.026 3.649 0.351 427.500 o
-3 -2 -20 48.040 45.006 1.133 11.922 o
-3 -2 -19 115.861 115.657 2.426 2.086 o
-3 -2 -18 209.973 207.573 5.183 0.594 o
-3 -2 -17 331.335 349.668 4.492 0.277 o
-3 -2 -16 172.872 160.953 2.998 1.036 o
-3 -2 -15 3.926 4.101 0.331 465.639 o
-3 -2 -14 88.190 82.743 1.664 3.862 o
-3 -2 -13 77.562 75.193 1.253 5.128 o
-3 -2 -12 213.742 201.237 3.168 0.701 o
-3 -2 -11 295.675 295.740 3.389 0.369 o
-3 -2 -10 7.416 7.339 0.321 315.503 o
-3 -2 -9 185.335 190.790 2.486 0.901 o
-3 -2 -8 209.130 215.153 2.807 0.708 o
-3 -2 -7 414.675 425.884 4.943 0.183 o
-3 -2 -6 250.221 266.043 3.198 0.488 o
-3 -2 -5 430.590 437.714 4.602 0.174 o
-3 -2 -4 479.181 507.143 5.494 0.135 o
-3 -2 -3 7.592 7.209 0.281 353.437 o
-3 -2 -2 66.174 65.629 0.892 7.221 o
-3 -2 -1 211.612 226.021 2.306 0.695 o
-3 -1 -35 1.259 1.384 0.511 245.119 o
-3 -1 -34 3.857 3.910 0.581 177.049 o
-3 -1 -33 30.320 30.057 2.296 9.281 o
-3 -1 -32 5.969 6.166 0.672 124.816 o
-3 -1 -31 13.114 13.003 0.782 69.523 o
-3 -1 -30 8.269 8.442 0.932 64.884 o
-3 -1 -29 17.770 17.274 1.404 25.410 o
-3 -1 -28 1.049 1.263 0.612 172.336 o
-3 -1 -27 51.601 47.031 1.674 8.629 o
-3 -1 -26 42.243 36.494 1.323 13.490 o
-3 -1 -25 2.193 2.857 0.381 415.520 o
-3 -1 -24 94.136 95.054 3.689 2.135 o
-3 -1 -23 24.758 23.651 0.912 33.256 o
-3 -1 -22 98.249 96.037 2.897 2.469 o
-3 -1 -21 163.598 175.942 2.567 1.091 o
-3 -1 -20 87.352 81.319 2.266 3.446 o
-3 -1 -19 145.056 147.058 2.897 1.343 o
-3 -1 -18 50.623 45.647 1.103 11.334 o
-3 -1 -17 1.087 0.842 0.281 803.727 o
-3 -1 -16 7.606 7.018 0.381 261.165 o
-3 -1 -15 116.225 108.048 1.664 2.404 o
-3 -1 -14 14.799 14.086 0.451 107.727 o
-3 -1 -13 167.879 159.630 3.058 1.070 o
-3 -1 -12 0.993 1.775 0.261 914.846 o
-3 -1 -11 135.521 122.224 2.216 1.743 o
-3 -1 -10 223.032 210.240 3.409 0.639 o
-3 -1 -9 335.307 330.028 3.760 0.291 o
-3 -1 -8 474.226 485.286 6.035 0.139 o
-3 -1 -7 863.367 873.834 11.088 0.042 o
-3 -1 -6 3.928 3.900 0.301 543.567 o
-3 -1 -5 7.246 6.767 0.301 350.878 o
-3 -1 -4 74.816 77.198 1.013 5.510 o
-3 -1 -3 684.607 720.110 7.640 0.067 o
-3 -1 -2 600.711 644.756 6.888 0.085 o
-3 -1 -1 568.879 599.019 6.015 0.097 o
-2 -21 -7 26.384 22.849 1.173 25.237 o
-2 -21 -6 0.481 0.411 0.461 304.403 o
-2 -21 -5 20.683 19.620 0.802 45.675 o
-2 -21 -4 17.306 16.593 0.752 58.279 o
-2 -21 -3 9.721 9.715 0.632 112.511 o
-2 -21 -2 2.074 2.015 0.491 260.214 o
-2 -21 -1 3.117 3.950 0.531 213.360 o
-2 -20 -13 4.219 3.539 0.802 96.342 o
-2 -20 -12 8.476 8.552 1.143 44.977 o
-2 -20 -11 11.496 12.672 0.932 57.148 o
-2 -20 -10 2.176 2.035 0.431 333.704 o
-2 -20 -9 0.144 0.150 0.391 424.154 o
-2 -20 -8 0.326 0.381 0.401 402.759 o
-2 -20 -7 12.464 12.382 1.223 36.301 o
-2 -20 -6 6.606 7.459 0.702 111.492 o
-2 -20 -5 1.930 2.025 0.431 335.930 o
-2 -20 -4 2.552 2.687 0.561 197.817 o
-2 -20 -3 10.316 9.875 0.702 94.427 o
-2 -20 -2 4.688 4.471 0.602 161.391 o
-2 -20 -1 16.338 15.740 0.802 57.254 o
-2 -19 -16 10.672 11.560 0.822 71.912 o
-2 -19 -15 56.484 60.265 1.554 7.470 o
-2 -19 -14 5.629 6.467 0.461 233.064 o
-2 -19 -13 10.392 11.570 0.812 73.867 o
-2 -19 -12 9.082 9.685 0.792 82.179 o
-2 -19 -11 1.643 1.684 0.501 252.928 o
-2 -19 -10 9.321 9.845 0.702 97.979 o
-2 -19 -9 9.741 9.805 1.013 53.851 o
-2 -19 -8 11.646 12.903 1.273 34.232 o
-2 -19 -7 9.973 10.407 1.333 32.919 o
-2 -19 -6 1.641 1.584 0.471 285.764 o
-2 -19 -5 5.719 5.725 0.541 182.905 o
-2 -19 -4 31.896 32.323 0.962 22.713 o
-2 -19 -3 5.537 5.123 0.662 131.664 o
-2 -19 -2 13.165 12.853 0.812 66.177 o
-2 -19 -1 4.947 4.401 0.652 138.788 o
-2 -18 -19 6.964 6.557 0.401 261.046 o
-2 -18 -18 6.016 5.925 0.441 247.622 o
-2 -18 -17 6.521 6.888 0.471 212.671 o
-2 -18 -16 6.965 6.727 0.481 202.254 o
-2 -18 -15 6.963 7.219 0.501 188.195 o
-2 -18 -14 2.934 3.218 0.451 293.787 o
-2 -18 -13 0.744 1.073 0.431 346.451 o
-2 -18 -12 21.376 22.097 1.464 21.471 o
-2 -18 -11 10.044 10.657 0.852 70.224 o
-2 -18 -10 22.191 24.864 1.203 26.487 o
-2 -18 -9 0.452 0.491 0.441 332.625 o
-2 -18 -8 3.639 3.078 0.521 220.478 o
-2 -18 -7 0.105 0.070 0.481 280.062 o
-2 -18 -6 24.820 26.558 1.795 14.631 o
-2 -18 -5 22.819 23.801 1.905 13.992 o
-2 -18 -4 34.557 35.511 1.694 12.578 o
-2 -18 -3 7.576 8.341 0.702 106.717 o
-2 -18 -2 3.707 3.810 0.672 135.834 o
-2 -18 -1 95.879 91.124 5.665 1.329 o
-2 -17 -22 4.500 4.632 0.491 231.536 o
-2 -17 -21 2.054 2.146 0.351 494.014 o
-2 -17 -20 4.795 4.742 0.401 318.388 o
-2 -17 -19 2.592 3.038 0.391 388.395 o
-2 -17 -18 1.573 1.464 0.421 356.886 o
-2 -17 -17 2.240 2.256 0.441 317.845 o
-2 -17 -16 3.858 4.201 0.481 248.280 o
-2 -17 -15 1.247 1.424 0.461 300.437 o
-2 -17 -14 19.341 20.442 1.333 25.861 o
-2 -17 -13 4.721 5.264 0.732 111.676 o
-2 -17 -12 17.302 17.756 1.193 32.497 o
-2 -17 -11 29.039 31.100 1.434 17.453 o
-2 -17 -10 12.464 13.204 1.133 40.867 o
-2 -17 -9 62.343 66.802 3.750 2.987 o
-2 -17 -8 2.915 3.038 0.501 242.284 o
-2 -17 -7 5.383 5.063 0.612 152.136 o
-2 -17 -6 4.207 3.770 0.732 114.468 o
-2 -17 -5 2.835 2.958 0.551 202.946 o
-2 -17 -4 39.766 43.141 1.795 10.193 o
-2 -17 -3 52.670 54.149 14.337 0.308 o
-2 -17 -2 0.220 0.421 0.511 247.953 o
-2 -17 -1 21.913 21.265 2.045 12.799 o
-2 -16 -24 5.197 6.046 0.652 134.816 o
-2 -16 -23 0.654 1.043 0.371 467.453 o
-2 -16 -22 7.223 7.549 0.571 151.687 o
-2 -16 -21 2.233 2.095 0.381 420.821 o
-2 -16 -20 2.897 3.198 0.411 348.999 o
-2 -16 -19 12.667 12.713 0.672 86.076 o
-2 -16 -18 7.983 7.950 0.642 122.113 o
-2 -16 -17 16.603 17.746 1.263 30.339 o
-2 -16 -16 12.483 13.214 0.972 51.882 o
-2 -16 -15 10.186 10.387 0.892 65.270 o
-2 -16 -14 12.970 12.652 0.972 51.610 o
-2 -16 -13 15.374 15.460 1.053 41.737 o
-2 -16 -12 56.250 59.252 2.637 4.946 o
-2 -16 -11 70.655 75.434 3.479 2.960 o
-2 -16 -10 101.449 108.198 4.421 1.631 o
-2 -16 -9 13.850 13.655 0.742 71.466 o
-2 -16 -8 13.708 13.324 0.602 91.550 o
-2 -16 -7 54.912 56.836 2.015 6.577 o
-2 -16 -6 56.145 58.651 1.514 7.727 o
-2 -16 -5 1.689 1.694 0.381 430.933 o
-2 -16 -4 13.412 12.382 0.832 64.001 o
-2 -16 -3 3.363 3.489 0.401 355.183 o
-2 -16 -2 44.886 45.176 1.494 10.748 o
-2 -16 -1 2.253 3.319 0.401 373.612 o
-2 -15 -26 8.861 8.903 0.692 103.514 o
-2 -15 -25 2.679 2.567 0.632 157.413 o
-2 -15 -24 2.952 3.268 0.652 146.666 o
-2 -15 -23 0.048 0.170 0.371 471.321 o
-2 -15 -22 3.353 3.700 0.431 311.144 o
-2 -15 -21 9.167 9.244 0.782 84.196 o
-2 -15 -20 71.939 69.529 1.724 5.195 o
-2 -15 -19 64.425 64.205 1.273 6.896 o
-2 -15 -18 6.174 6.346 0.612 145.106 o
-2 -15 -17 29.792 28.453 1.153 22.002 o
-2 -15 -16 46.492 45.046 1.564 10.095 o
-2 -15 -15 9.536 9.655 0.772 84.423 o
-2 -15 -14 36.223 33.656 1.333 15.708 o
-2 -15 -13 0.695 0.481 0.331 588.640 o
-2 -15 -12 8.131 8.181 0.431 208.804 o
-2 -15 -11 17.626 16.543 0.672 64.126 o
-2 -15 -10 109.785 113.632 2.516 2.197 o
-2 -15 -9 5.037 5.093 0.421 287.829 o
-2 -15 -8 8.730 7.579 0.501 169.694 o
-2 -15 -7 2.872 2.847 0.391 385.401 o
-2 -15 -6 4.733 5.033 0.421 293.217 o
-2 -15 -5 5.564 5.685 0.451 247.025 o
-2 -15 -4 46.904 48.946 1.163 11.565 o
-2 -15 -3 57.345 58.611 1.534 7.520 o
-2 -15 -2 65.032 65.147 2.176 5.111 o
-2 -15 -1 19.389 19.530 0.892 43.063 o
-2 -14 -28 2.619 2.827 0.592 178.451 o
-2 -14 -27 28.710 29.756 1.504 16.853 o
-2 -14 -26 13.242 13.404 0.812 65.400 o
-2 -14 -25 0.049 -0.040 0.972 68.584 o
-2 -14 -24 12.226 11.700 0.822 68.362 o
-2 -14 -23 7.084 6.777 0.571 155.102 o
-2 -14 -22 2.005 1.795 0.421 351.852 o
-2 -14 -21 10.314 10.397 0.842 71.257 o
-2 -14 -20 1.113 1.113 0.431 344.684 o
-2 -14 -19 14.116 14.357 0.792 64.467 o
-2 -14 -18 26.989 24.924 1.003 28.135 o
-2 -14 -17 7.845 7.399 0.792 87.812 o
-2 -14 -16 16.129 15.530 0.592 78.446 o
-2 -14 -15 0.495 0.411 0.321 627.683 o
-2 -14 -14 9.433 9.244 0.441 180.365 o
-2 -14 -13 64.997 61.618 1.133 7.246 o
-2 -14 -12 14.503 13.996 0.762 67.092 o
-2 -14 -11 85.977 87.004 2.115 3.510 o
-2 -14 -10 56.583 53.528 1.544 7.922 o
-2 -14 -9 44.778 44.013 1.524 10.724 o
-2 -14 -8 17.871 17.986 0.802 52.049 o
-2 -14 -7 4.431 4.271 0.411 316.424 o
-2 -14 -6 137.510 141.694 3.529 1.331 o
-2 -14 -5 47.078 47.773 1.544 9.841 o
-2 -14 -4 27.411 24.603 1.083 26.050 o
-2 -14 -3 2.547 2.336 0.401 376.340 o
-2 -14 -2 40.289 41.126 1.414 12.739 o
-2 -14 -1 39.662 37.376 1.313 14.195 o
-2 -13 -29 5.102 4.502 0.612 154.740 o
-2 -13 -28 1.099 0.742 0.581 190.809 o
-2 -13 -27 12.953 13.685 1.093 42.628 o
-2 -13 -26 0.735 0.732 0.622 167.435 o
-2 -13 -25 19.588 19.640 1.303 26.790 o
-2 -13 -24 1.250 0.561 0.652 152.035 o
-2 -13 -23 0.487 0.150 0.471 291.780 o
-2 -13 -22 2.663 2.707 0.451 298.879 o
-2 -13 -21 17.717 17.565 0.772 54.847 o
-2 -13 -20 10.512 10.407 0.632 107.163 o
-2 -13 -19 55.002 49.858 1.815 7.516 o
-2 -13 -18 0.759 0.461 0.291 759.958 o
-2 -13 -17 12.028 11.479 0.461 136.142 o
-2 -13 -16 11.017 10.627 0.421 162.115 o
-2 -13 -15 122.059 119.597 2.737 1.847 o
-2 -13 -14 1.780 2.115 0.331 558.256 o
-2 -13 -13 120.624 113.191 2.135 2.106 o
-2 -13 -12 25.228 24.513 0.862 33.832 o
-2 -13 -11 19.832 18.327 0.672 56.228 o
-2 -13 -10 25.922 24.032 0.872 33.040 o
-2 -13 -9 212.176 218.561 5.294 0.567 o
-2 -13 -8 84.597 82.803 1.604 4.096 o
-2 -13 -7 3.893 3.960 0.411 327.955 o
-2 -13 -6 14.898 14.768 0.762 65.165 o
-2 -13 -5 202.083 202.370 4.421 0.673 o
-2 -13 -4 14.308 14.247 0.692 75.224 o
-2 -13 -3 224.621 228.727 4.953 0.538 o
-2 -13 -2 66.224 67.423 1.744 5.696 o
-2 -13 -1 125.008 124.961 2.917 1.712 o
-2 -12 -30 0.809 1.083 0.561 204.784 o
-2 -12 -29 13.724 14.247 0.812 63.431 o
-2 -12 -28 1.851 1.283 0.612 171.050 o
-2 -12 -27 3.053 2.958 0.672 138.487 o
-2 -12 -26 3.182 3.379 0.702 126.600 o
-2 -12 -25 13.659 13.876 0.993 48.421 o
-2 -12 -24 43.574 46.038 1.474 11.037 o
-2 -12 -23 40.431 41.597 1.414 12.643 o
-2 -12 -22 13.283 13.174 0.722 76.230 o
-2 -12 -21 24.676 24.583 1.213 24.820 o
-2 -12 -20 0.541 0.321 0.301 713.761 o
-2 -12 -19 30.719 29.375 0.822 27.045 o
-2 -12 -18 0.474 0.291 0.311 669.276 o
-2 -12 -17 38.471 35.702 0.972 18.038 o
-2 -12 -16 0.529 0.531 0.301 712.846 o
-2 -12 -15 0.111 0.130 0.301 716.804 o
-2 -12 -14 17.965 17.816 0.612 66.370 o
-2 -12 -13 361.382 356.095 5.655 0.236 o
-2 -12 -12 22.646 21.866 0.722 44.334 o
-2 -12 -11 109.742 103.436 2.396 2.357 o
-2 -12 -10 19.739 18.818 0.732 52.081 o
-2 -12 -9 6.910 6.777 0.371 286.730 o
-2 -12 -8 31.981 33.666 1.103 20.226 o
-2 -12 -7 57.522 60.124 1.965 6.316 o
-2 -12 -6 6.411 7.058 0.431 241.672 o
-2 -12 -5 456.064 498.200 17.084 0.092 o
-2 -12 -4 2.170 2.396 0.371 441.004 o
-2 -12 -3 94.094 91.926 1.895 3.247 o
-2 -12 -2 20.963 18.798 0.862 42.855 o
-2 -12 -1 99.074 94.031 2.085 2.925 o
-2 -11 -31 9.068 9.404 0.993 56.721 o
-2 -11 -30 5.813 6.687 0.692 118.236 o
-2 -11 -29 1.620 1.915 0.632 160.356 o
-2 -11 -28 1.725 2.095 0.672 141.736 o
-2 -11 -27 5.464 5.765 0.742 106.574 o
-2 -11 -26 1.151 1.394 0.802 100.384 o
-2 -11 -25 34.946 36.724 1.323 15.723 o
-2 -11 -24 30.829 31.190 1.243 19.385 o
-2 -11 -23 14.023 14.958 0.983 47.990 o
-2 -11 -22 114.157 110.143 2.055 2.304 o
-2 -11 -21 49.225 48.134 1.033 11.679 o
-2 -11 -20 10.695 10.306 0.461 153.512 o
-2 -11 -19 43.369 41.416 0.812 15.861 o
-2 -11 -18 12.896 12.703 0.521 111.584 o
-2 -11 -17 16.602 16.001 0.702 64.979 o
-2 -11 -16 30.194 29.646 0.962 24.763 o
-2 -11 -15 11.774 11.339 0.441 144.522 o
-2 -11 -14 124.158 122.234 2.055 1.971 o
-2 -11 -13 100.826 94.573 1.694 3.060 o
-2 -11 -12 110.443 105.150 2.085 2.443 o
-2 -11 -11 33.121 29.175 0.722 26.775 o
-2 -11 -10 33.316 31.481 0.802 24.442 o
-2 -11 -9 146.011 140.040 2.115 1.492 o
-2 -11 -8 36.465 34.900 1.594 13.052 o
-2 -11 -7 22.549 22.157 0.752 42.953 o
-2 -11 -6 7.537 7.078 0.371 270.153 o
-2 -11 -5 115.505 109.712 1.995 2.298 o
-2 -11 -4 35.206 36.564 0.822 21.156 o
-2 -11 -3 220.272 218.652 3.599 0.625 o
-2 -11 -2 105.104 101.009 2.266 2.557 o
-2 -11 -1 32.599 29.526 1.083 21.292 o
-2 -10 -32 1.499 1.113 0.772 108.198 o
-2 -10 -31 7.884 9.204 1.023 55.156 o
-2 -10 -30 9.801 10.978 1.123 44.544 o
-2 -10 -29 18.655 20.342 0.983 39.085 o
-2 -10 -28 8.643 8.923 0.812 80.783 o
-2 -10 -27 15.956 16.673 1.323 28.900 o
-2 -10 -26 1.180 0.942 0.692 134.898 o
-2 -10 -25 17.745 18.608 1.043 38.191 o
-2 -10 -24 213.425 226.893 7.188 0.460 o
-2 -10 -23 19.546 20.262 0.812 46.489 o
-2 -10 -22 26.338 26.719 0.882 30.962 o
-2 -10 -21 18.343 17.585 0.762 54.245 o
-2 -10 -20 41.470 41.577 1.123 14.417 o
-2 -10 -19 18.835 18.207 0.602 63.972 o
-2 -10 -18 50.114 49.557 0.852 11.985 o
-2 -10 -17 54.281 52.806 1.243 9.287 o
-2 -10 -16 74.248 71.774 1.183 5.624 o
-2 -10 -15 2.384 2.637 0.331 536.456 o
-2 -10 -14 85.899 82.582 1.865 3.817 o
-2 -10 -13 120.027 117.361 2.386 2.004 o
-2 -10 -12 96.852 93.761 1.965 3.071 o
-2 -10 -11 80.828 77.840 1.353 4.696 o
-2 -10 -10 101.133 95.646 1.905 2.926 o
-2 -10 -9 11.552 11.349 0.421 152.538 o
-2 -10 -8 60.729 58.861 1.123 8.056 o
-2 -10 -7 51.370 47.753 1.083 10.989 o
-2 -10 -6 233.554 238.132 4.883 0.508 o
-2 -10 -5 1.988 2.637 0.351 490.402 o
-2 -10 -4 16.463 15.169 0.561 81.250 o
-2 -10 -3 76.317 73.409 1.855 4.596 o
-2 -10 -2 254.049 249.651 4.111 0.474 o
-2 -10 -1 22.745 23.330 0.592 48.439 o
-2 -9 -33 3.820 4.722 0.862 83.659 o
-2 -9 -32 14.016 15.139 1.163 37.239 o
-2 -9 -31 1.755 1.825 0.862 86.559 o
-2 -9 -30 6.168 5.825 1.023 58.192 o
-2 -9 -29 2.550 2.657 0.702 128.419 o
-2 -9 -28 9.295 9.093 0.842 74.615 o
-2 -9 -27 0.768 0.241 0.682 139.359 o
-2 -9 -26 18.058 18.407 1.013 39.401 o
-2 -9 -25 12.503 11.780 0.932 56.305 o
-2 -9 -24 29.362 31.010 0.952 25.054 o
-2 -9 -23 49.771 49.648 1.183 10.725 o
-2 -9 -22 5.902 5.955 0.571 165.278 o
-2 -9 -21 55.603 56.585 1.444 8.144 o
-2 -9 -20 128.826 136.872 2.346 1.706 o
-2 -9 -19 13.788 13.053 0.581 94.981 o
-2 -9 -18 20.294 20.493 0.672 52.716 o
-2 -9 -17 5.584 5.243 0.371 334.599 o
-2 -9 -16 68.533 67.664 1.634 5.677 o
-2 -9 -15 44.699 42.910 0.862 14.743 o
-2 -9 -14 189.312 189.818 2.617 0.873 o
-2 -9 -13 23.097 20.633 0.551 52.445 o
-2 -9 -12 73.253 69.067 1.263 5.739 o
-2 -9 -11 12.132 12.913 0.461 129.373 o
-2 -9 -10 337.649 318.298 4.221 0.290 o
-2 -9 -9 2.468 2.817 0.331 531.600 o
-2 -9 -8 544.713 523.705 7.048 0.109 o
-2 -9 -7 30.424 28.844 0.682 30.240 o
-2 -9 -6 413.811 399.566 5.624 0.187 o
-2 -9 -5 9.583 9.083 0.491 158.976 o
-2 -9 -4 246.224 246.032 3.238 0.521 o
-2 -9 -3 423.112 421.242 6.677 0.171 o
-2 -9 -2 635.488 637.086 9.545 0.076 o
-2 -9 -1 2.978 2.446 0.271 736.892 o
-2 -8 -34 7.669 8.291 0.922 67.050 o
-2 -8 -33 1.684 2.115 0.822 95.087 o
-2 -8 -32 3.941 4.792 0.932 71.838 o
-2 -8 -31 2.616 2.426 0.922 75.159 o
-2 -8 -30 6.911 7.188 1.103 49.574 o
-2 -8 -29 2.287 2.236 1.023 61.456 o
-2 -8 -28 36.151 40.664 1.394 14.078 o
-2 -8 -27 0.699 0.571 0.722 124.287 o
-2 -8 -26 9.192 8.953 0.702 100.005 o
-2 -8 -25 7.038 6.687 0.571 155.690 o
-2 -8 -24 61.448 62.801 1.704 6.418 o
-2 -8 -23 0.213 0.281 0.481 279.956 o
-2 -8 -22 70.457 72.426 2.065 4.710 o
-2 -8 -21 4.390 3.619 0.521 213.434 o
-2 -8 -20 20.269 20.433 0.742 48.887 o
-2 -8 -19 14.121 14.257 0.662 79.580 o
-2 -8 -18 168.999 168.934 2.737 1.060 o
-2 -8 -17 14.189 14.888 0.511 99.419 o
-2 -8 -16 179.913 175.651 2.827 0.956 o
-2 -8 -15 25.766 24.463 0.561 42.633 o
-2 -8 -14 15.461 14.267 0.491 97.126 o
-2 -8 -13 54.399 52.455 0.932 10.296 o
-2 -8 -12 116.572 114.023 1.604 2.338 o
-2 -8 -11 11.896 11.630 0.431 144.814 o
-2 -8 -10 97.655 95.345 1.404 3.307 o
-2 -8 -9 83.070 79.935 1.223 4.586 o
-2 -8 -8 293.566 284.340 3.659 0.377 o
-2 -8 -7 282.039 269.582 3.649 0.409 o
-2 -8 -6 185.330 179.651 2.687 0.920 o
-2 -8 -5 82.869 78.181 1.404 4.506 o
-2 -8 -4 20.913 21.174 0.551 57.248 o
-2 -8 -3 237.754 224.837 3.058 0.580 o
-2 -8 -2 110.187 115.667 1.714 2.445 o
-2 -8 -1 220.790 220.025 3.178 0.639 o
-2 -7 -35 1.749 1.514 0.742 116.730 o
-2 -7 -34 3.275 3.078 0.822 93.298 o
-2 -7 -33 2.980 3.830 0.672 137.646 o
-2 -7 -32 36.865 38.429 1.303 14.994 o
-2 -7 -31 5.709 7.178 0.792 92.723 o
-2 -7 -30 15.413 16.422 0.983 45.309 o
-2 -7 -29 20.267 19.931 1.063 34.265 o
-2 -7 -28 18.670 18.929 1.073 35.795 o
-2 -7 -27 38.578 39.251 1.935 9.866 o
-2 -7 -26 24.522 26.318 0.882 33.016 o
-2 -7 -25 74.803 78.893 1.985 4.369 o
-2 -7 -24 64.804 68.576 1.734 5.785 o
-2 -7 -23 23.514 24.222 0.942 33.290 o
-2 -7 -22 25.831 26.638 0.882 31.504 o
-2 -7 -21 67.976 68.426 1.694 5.594 o
-2 -7 -20 2.533 2.767 0.491 255.215 o
-2 -7 -19 67.780 68.827 1.353 6.144 o
-2 -7 -18 16.190 16.603 0.672 68.110 o
-2 -7 -17 27.839 29.035 0.732 31.883 o
-2 -7 -16 121.088 125.342 1.855 2.049 o
-2 -7 -15 111.071 105.551 1.484 2.634 o
-2 -7 -14 315.773 316.954 4.431 0.313 o
-2 -7 -13 28.026 27.400 0.571 36.418 o
-2 -7 -12 59.262 57.257 0.862 9.013 o
-2 -7 -11 5.589 5.334 0.321 405.740 o
-2 -7 -10 22.692 21.325 0.491 55.403 o
-2 -7 -9 397.507 394.243 4.401 0.206 o
-2 -7 -8 582.758 585.263 6.898 0.094 o
-2 -7 -7 258.204 249.741 3.629 0.478 o
-2 -7 -6 260.899 253.040 3.268 0.477 o
-2 -7 -5 137.216 137.924 2.055 1.632 o
-2 -7 -4 284.112 277.543 3.349 0.404 o
-2 -7 -3 58.598 59.242 0.802 9.078 o
-2 -7 -2 358.831 373.720 4.161 0.244 o
-2 -7 -1 73.824 69.920 1.093 5.854 o
-2 -6 -35 14.952 15.941 0.832 57.330 o
-2 -6 -34 8.632 8.422 0.742 94.250 o
-2 -6 -33 2.436 2.356 0.672 140.358 o
-2 -6 -32 0.588 0.632 0.672 143.536 o
-2 -6 -31 0.202 0.511 0.692 135.491 o
-2 -6 -30 13.950 13.806 0.962 50.296 o
-2 -6 -29 8.971 9.164 0.892 68.303 o
-2 -6 -28 15.721 14.457 1.013 44.265 o
-2 -6 -27 32.518 30.328 0.862 24.543 o
-2 -6 -26 72.567 71.223 1.544 5.334 o
-2 -6 -25 21.988 21.575 0.722 45.726 o
-2 -6 -24 44.099 42.880 1.253 12.573 o
-2 -6 -23 51.306 51.372 1.494 9.029 o
-2 -6 -22 115.955 118.244 2.426 2.060 o
-2 -6 -21 179.321 181.957 2.757 0.945 o
-2 -6 -20 18.373 18.407 0.592 65.838 o
-2 -6 -19 43.760 43.361 0.892 14.830 o
-2 -6 -18 422.923 444.271 6.537 0.166 o
-2 -6 -17 367.197 387.044 5.143 0.224 o
-2 -6 -16 113.040 109.140 2.256 2.271 o
-2 -6 -15 6.561 6.427 0.351 319.605 o
-2 -6 -14 3.020 2.677 0.291 646.045 o
-2 -6 -13 72.120 70.180 0.983 6.138 o
-2 -6 -12 115.123 112.830 1.444 2.432 o
-2 -6 -11 383.102 385.711 4.963 0.215 o
-2 -6 -10 126.008 124.009 1.644 2.012 o
-2 -6 -9 84.968 82.632 1.083 4.475 o
-2 -6 -8 256.875 261.081 3.148 0.479 o
-2 -6 -7 278.166 278.385 3.840 0.405 o
-2 -6 -6 338.718 335.692 4.662 0.275 o
-2 -6 -5 309.721 314.748 3.910 0.328 o
-2 -6 -4 121.029 117.752 1.634 2.183 o
-2 -6 -3 25.436 25.626 0.451 45.495 o
-2 -6 -2 78.569 85.419 1.073 4.827 o
-2 -6 -1 546.163 548.238 5.544 0.109 o
-2 -5 -36 11.899 11.850 0.993 51.868 o
-2 -5 -35 8.527 9.224 0.742 93.378 o
-2 -5 -34 4.021 3.820 0.672 134.964 o
-2 -5 -33 18.168 17.906 0.983 41.057 o
-2 -5 -32 6.054 6.386 0.782 94.971 o
-2 -5 -31 27.102 27.059 1.183 23.342 o
-2 -5 -30 6.241 6.998 0.842 82.263 o
-2 -5 -29 29.820 28.684 1.233 20.591 o
-2 -5 -28 21.462 19.480 1.153 30.273 o
-2 -5 -27 22.284 19.560 0.802 43.180 o
-2 -5 -26 3.032 3.078 0.471 270.834 o
-2 -5 -25 104.823 107.536 2.025 2.583 o
-2 -5 -24 7.821 7.750 0.481 187.541 o
-2 -5 -23 0.052 -0.130 0.942 73.031 o
-2 -5 -22 10.079 9.444 0.511 145.934 o
-2 -5 -21 69.214 66.872 1.584 5.734 o
-2 -5 -20 43.898 42.369 1.143 13.388 o
-2 -5 -19 10.258 10.046 0.491 148.628 o
-2 -5 -18 82.971 83.575 1.724 4.060 o
-2 -5 -17 6.884 7.239 0.491 194.497 o
-2 -5 -16 1.727 2.105 0.421 352.967 o
-2 -5 -15 222.872 227.093 3.218 0.618 o
-2 -5 -14 6.496 7.058 0.331 335.345 o
-2 -5 -13 201.879 201.457 2.917 0.763 o
-2 -5 -12 56.736 54.430 0.762 10.028 o
-2 -5 -11 14.441 13.515 0.381 124.607 o
-2 -5 -10 428.293 434.897 4.451 0.176 o
-2 -5 -9 268.729 270.254 2.717 0.452 o
-2 -5 -8 1164.320 1182.910 12.933 0.024 o
-2 -5 -7 598.731 602.848 6.015 0.091 o
-2 -5 -6 197.208 204.014 2.366 0.807 o
-2 -5 -5 114.739 118.404 1.564 2.340 o
-2 -5 -4 36.276 36.704 0.571 23.004 o
-2 -5 -3 430.703 460.302 4.993 0.166 o
-2 -5 -2 6.937 7.369 0.251 412.973 o
-2 -5 -1 409.061 451.169 4.502 0.182 o
-2 -4 -36 13.207 12.672 0.772 70.887 o
-2 -4 -35 0.776 0.822 0.602 178.671 o
-2 -4 -34 10.580 9.765 0.792 78.426 o
-2 -4 -33 6.059 6.557 0.762 99.267 o
-2 -4 -32 2.570 2.526 0.722 121.616 o
-2 -4 -31 5.042 4.852 0.782 98.557 o
-2 -4 -30 2.859 2.827 0.772 106.123 o
-2 -4 -29 47.429 46.890 2.707 5.628 o
-2 -4 -28 2.758 2.496 0.551 204.316 o
-2 -4 -27 33.148 30.017 1.293 17.967 o
-2 -4 -26 0.068 -0.221 0.983 67.191 o
-2 -4 -25 4.902 4.562 0.491 228.036 o
-2 -4 -24 1.759 1.544 0.401 390.330 o
-2 -4 -23 103.554 105.802 2.095 2.611 o
-2 -4 -22 25.555 23.801 0.752 37.333 o
-2 -4 -21 11.518 11.169 0.471 139.073 o
-2 -4 -20 51.688 52.475 1.133 10.204 o
-2 -4 -19 61.692 58.771 1.213 7.720 o
-2 -4 -18 5.325 5.374 0.381 326.312 o
-2 -4 -17 459.476 440.481 6.316 0.152 o
-2 -4 -16 24.915 24.152 0.602 43.099 o
-2 -4 -15 59.380 56.104 0.922 8.963 o
-2 -4 -14 21.760 21.756 0.521 55.833 o
-2 -4 -13 16.597 16.693 0.401 95.305 o
-2 -4 -12 191.440 194.139 2.025 0.881 o
-2 -4 -11 487.316 501.117 5.374 0.134 o
-2 -4 -10 912.102 935.102 10.367 0.038 o
-2 -4 -9 20.683 19.951 0.351 71.406 o
-2 -4 -8 278.730 271.818 2.667 0.430 o
-2 -4 -7 725.611 751.300 8.041 0.060 o
-2 -4 -6 184.810 187.923 1.975 0.942 o
-2 -4 -5 387.332 392.969 5.384 0.207 o
-2 -4 -4 140.274 140.240 1.744 1.621 o
-2 -4 -3 48.094 48.805 0.902 12.462 o
-2 -4 -2 163.741 172.092 2.166 1.142 o
-2 -4 -1 1317.470 1417.340 15.831 0.018 o
-2 -3 -36 25.722 23.821 1.815 14.491 o
-2 -3 -35 3.080 3.549 0.652 145.968 o
-2 -3 -34 6.106 6.286 0.642 134.242 o
-2 -3 -33 34.812 35.481 2.346 8.304 o
-2 -3 -32 7.874 8.271 0.722 101.101 o
-2 -3 -31 19.890 20.202 1.103 32.965 o
-2 -3 -30 1.207 1.765 0.672 142.601 o
-2 -3 -29 2.462 1.985 0.682 136.626 o
-2 -3 -28 10.012 9.625 0.571 127.140 o
-2 -3 -27 57.868 55.382 1.835 6.841 o
-2 -3 -26 47.798 43.933 1.514 10.202 o
-2 -3 -25 5.096 4.482 0.481 234.537 o
-2 -3 -24 1.402 1.093 0.371 460.752 o
-2 -3 -23 4.553 4.592 0.401 324.294 o
-2 -3 -22 146.864 148.973 4.211 1.106 o
-2 -3 -21 251.337 261.732 6.807 0.385 o
-2 -3 -20 196.086 195.893 2.847 0.807 o
-2 -3 -19 450.707 431.568 6.427 0.157 o
-2 -3 -18 17.227 15.670 0.521 81.432 o
-2 -3 -17 25.250 24.954 0.612 41.497 o
-2 -3 -16 62.370 58.621 0.983 8.121 o
-2 -3 -15 283.435 289.123 3.669 0.390 o
-2 -3 -14 69.504 68.185 1.043 6.452 o
-2 -3 -13 165.840 170.799 2.146 1.131 o
-2 -3 -12 177.549 174.709 1.905 1.042 o
-2 -3 -11 661.817 647.553 6.787 0.076 o
-2 -3 -10 16.566 15.410 0.371 103.003 o
-2 -3 -9 1156.870 1175.540 13.344 0.024 o
-2 -3 -8 88.186 83.525 0.972 4.309 o
-2 -3 -7 510.681 514.732 5.384 0.124 o
-2 -3 -6 126.848 128.340 1.363 2.006 o
-2 -3 -5 33.798 34.388 0.511 26.652 o
-2 -3 -4 515.121 540.869 6.266 0.117 o
-2 -3 -3 1064.050 1178.760 13.505 0.026 o
-2 -3 -2 541.431 604.924 6.577 0.102 o
-2 -3 -1 524.104 569.984 6.647 0.110 o
-2 -2 -36 4.940 4.672 0.571 174.928 o
-2 -2 -35 4.049 4.241 0.592 169.935 o
-2 -2 -34 0.550 0.541 0.571 198.275 o
-2 -2 -33 23.546 23.260 1.474 20.233 o
-2 -2 -32 0.765 0.842 0.622 167.365 o
-2 -2 -31 18.914 18.518 1.273 28.395 o
-2 -2 -30 39.707 38.760 2.376 7.575 o
-2 -2 -29 12.781 12.963 0.762 72.833 o
-2 -2 -28 46.407 43.141 1.664 9.783 o
-2 -2 -27 54.133 51.131 1.835 7.479 o
-2 -2 -26 80.399 76.737 2.707 3.394 o
-2 -2 -25 48.897 43.632 1.313 10.989 o
-2 -2 -24 26.182 24.593 0.812 34.203 o
-2 -2 -23 275.940 280.771 6.457 0.348 o
-2 -2 -22 50.558 48.103 1.103 11.056 o
-2 -2 -21 77.299 74.612 2.246 4.050 o
-2 -2 -20 36.861 34.158 0.652 22.717 o
-2 -2 -19 13.419 12.452 0.431 127.620 o
-2 -2 -18 66.618 62.480 1.213 6.848 o
-2 -2 -17 171.305 164.843 2.336 1.095 o
-2 -2 -16 52.178 49.317 0.832 11.532 o
-2 -2 -15 127.718 128.941 1.704 1.921 o
-2 -2 -14 20.989 19.971 0.491 62.196 o
-2 -2 -13 21.844 19.801 0.531 57.697 o
-2 -2 -12 419.686 411.968 4.532 0.187 o
-2 -2 -11 72.192 63.483 0.812 6.698 o
-2 -2 -10 639.293 646.019 6.577 0.079 o
-2 -2 -9 170.861 163.219 1.925 1.139 o
-2 -2 -8 18.981 18.197 0.371 81.456 o
-2 -2 -7 781.398 842.494 8.793 0.050 o
-2 -2 -6 291.496 298.296 3.098 0.378 o
-2 -2 -5 1150.970 1236.880 14.948 0.023 o
-2 -2 -4 697.097 746.237 7.700 0.064 o
-2 -2 -3 74.289 71.835 0.922 5.898 o
-2 -2 -2 59.356 61.969 0.812 8.674 o
-2 -2 -1 133.063 139.809 1.755 1.730 o
-2 -1 -37 2.762 2.958 0.782 103.523 o
-2 -1 -36 4.895 4.522 0.561 181.185 o
-2 -1 -35 3.517 3.128 0.581 180.324 o
-2 -1 -34 0.119 -0.110 0.962 70.019 o
-2 -1 -33 10.321 10.728 0.872 67.123 o
-2 -1 -32 24.347 24.944 1.604 17.503 o
-2 -1 -31 7.616 8.141 0.722 102.121 o
-2 -1 -30 19.345 19.109 1.414 24.058 o
-2 -1 -29 4.942 4.451 0.481 236.290 o
-2 -1 -28 9.847 8.612 0.541 140.874 o
-2 -1 -27 1.380 1.734 0.451 312.199 o
-2 -1 -26 101.881 94.102 2.055 2.851 o
-2 -1 -25 9.052 8.031 0.511 160.517 o
-2 -1 -24 0.773 0.922 0.421 363.214 o
-2 -1 -23 93.054 85.590 1.805 3.473 o
-2 -1 -22 155.546 156.863 5.925 0.802 o
-2 -1 -21 22.252 21.806 0.672 47.361 o
-2 -1 -20 428.994 403.787 5.614 0.178 o
-2 -1 -19 99.081 90.352 2.025 3.019 o
-2 -1 -18 105.699 98.042 2.296 2.567 o
-2 -1 -17 29.415 27.701 0.662 32.405 o
-2 -1 -16 93.117 92.487 1.724 3.378 o
-2 -1 -15 233.814 223.183 3.128 0.593 o
-2 -1 -14 311.240 313.826 4.331 0.321 o
-2 -1 -13 112.519 111.176 1.474 2.516 o
-2 -1 -12 44.118 44.274 0.662 15.801 o
-2 -1 -11 3.420 3.860 0.241 792.856 o
-2 -1 -10 154.929 141.112 1.574 1.443 o
-2 -1 -9 1.267 0.932 0.190 1671.970 o
-2 -1 -8 692.954 704.600 7.229 0.067 o
-2 -1 -7 342.121 358.671 3.479 0.271 o
-2 -1 -6 1795.740 1923.290 22.267 0.009 o
-2 -1 -5 189.715 194.109 2.246 0.880 o
-2 -1 -4 474.854 517.760 6.978 0.130 o
-2 -1 -3 7.255 7.379 0.281 362.621 o
-2 -1 -2 603.862 678.503 8.151 0.080 o
-2 -1 -1 62.066 62.400 0.912 8.008 o
-1 -21 -10 19.753 19.711 2.486 9.381 o
-1 -21 -9 7.265 7.419 0.852 78.446 o
-1 -21 -8 34.455 34.599 2.226 9.019 o
-1 -21 -7 4.248 4.421 0.461 262.030 o
-1 -21 -6 1.956 2.296 0.561 200.649 o
-1 -21 -5 8.229 8.853 0.772 88.883 o
-1 -21 -4 16.816 16.753 1.664 19.656 o
-1 -21 -3 27.872 27.320 1.714 14.808 o
-1 -21 -2 4.306 4.291 0.602 163.536 o
-1 -21 -1 15.218 15.560 1.143 37.104 o
-1 -20 -15 4.730 4.161 0.592 166.898 o
-1 -20 -14 8.622 8.532 0.752 92.115 o
-1 -20 -13 3.368 3.800 0.461 274.992 o
-1 -20 -12 15.495 15.490 1.444 25.582 o
-1 -20 -11 0.750 0.942 0.491 267.386 o
-1 -20 -10 1.126 1.053 0.431 344.773 o
-1 -20 -9 1.884 1.945 0.451 308.343 o
-1 -20 -8 9.008 8.462 0.652 113.578 o
-1 -20 -7 1.577 1.895 0.461 297.521 o
-1 -20 -6 33.054 35.281 2.025 10.381 o
-1 -20 -5 4.634 4.632 0.672 131.953 o
-1 -20 -4 28.124 26.709 3.589 4.530 o
-1 -20 -3 1.721 2.055 0.952 71.008 o
-1 -20 -2 4.534 4.241 0.521 210.058 o
-1 -20 -1 1.427 2.115 0.481 273.981 o
-1 -19 -18 1.443 1.684 0.351 508.758 o
-1 -19 -17 7.102 7.449 0.652 124.117 o
-1 -19 -16 0.939 1.243 0.401 398.281 o
-1 -19 -15 7.722 7.429 0.672 115.728 o
-1 -19 -14 9.229 9.615 0.581 129.020 o
-1 -19 -13 8.581 8.843 0.571 138.655 o
-1 -19 -12 5.725 5.374 0.642 137.763 o
-1 -19 -11 5.053 4.923 0.531 196.843 o
-1 -19 -10 3.350 3.559 0.581 180.118 o
-1 -19 -9 2.823 3.108 0.511 233.788 o
-1 -19 -8 28.069 30.869 0.912 26.876 o
-1 -19 -7 4.308 4.532 0.541 197.033 o
-1 -19 -6 2.079 1.734 0.501 250.881 o
-1 -19 -5 0.693 0.481 0.471 291.172 o
-1 -19 -4 10.983 10.246 0.672 97.109 o
-1 -19 -3 9.750 9.865 0.662 104.965 o
-1 -19 -2 16.749 17.525 0.772 56.914 o
-1 -19 -1 16.955 16.051 0.732 61.368 o
-1 -18 -21 5.970 6.406 0.401 280.637 o
-1 -18 -20 0.717 0.832 0.341 553.122 o
-1 -18 -19 21.048 21.184 1.093 31.944 o
-1 -18 -18 6.924 7.028 0.511 184.031 o
-1 -18 -17 12.469 12.532 1.063 45.594 o
-1 -18 -16 6.749 6.517 0.511 187.951 o
-1 -18 -15 2.497 2.506 0.451 301.277 o
-1 -18 -14 8.725 8.692 0.682 106.767 o
-1 -18 -13 11.006 11.840 0.852 67.177 o
-1 -18 -12 17.438 17.084 1.273 29.685 o
-1 -18 -11 31.282 32.965 1.434 16.374 o
-1 -18 -10 10.207 10.316 0.872 67.704 o
-1 -18 -9 7.671 7.850 0.712 104.782 o
-1 -18 -8 6.858 7.509 0.571 154.190 o
-1 -18 -7 51.812 53.748 17.375 0.211 o
-1 -18 -6 13.745 14.176 0.932 52.651 o
-1 -18 -5 30.648 30.699 1.243 19.578 o
-1 -18 -4 3.181 3.098 0.481 259.164 o
-1 -18 -3 1.243 1.353 0.551 211.186 o
-1 -18 -2 10.800 11.209 0.712 88.669 o
-1 -18 -1 11.814 11.088 0.702 87.154 o
-1 -17 -23 0.012 -0.381 0.722 124.481 o
-1 -17 -22 0.634 0.752 0.351 523.160 o
-1 -17 -21 21.700 21.856 0.922 37.275 o
-1 -17 -20 0.773 1.063 0.381 442.555 o
-1 -17 -19 29.204 29.345 1.143 22.255 o
-1 -17 -18 0.969 1.193 0.431 345.202 o
-1 -17 -17 4.575 4.512 0.501 223.461 o
-1 -17 -16 8.167 8.482 0.622 125.949 o
-1 -17 -15 38.617 39.802 0.983 16.953 o
-1 -17 -14 8.626 9.414 0.692 103.440 o
-1 -17 -13 34.252 37.556 1.243 16.654 o
-1 -17 -12 9.201 9.996 0.602 122.321 o
-1 -17 -11 10.349 10.607 0.612 112.086 o
-1 -17 -10 1.391 1.865 0.491 263.836 o
-1 -17 -9 63.303 66.621 1.905 5.676 o
-1 -17 -8 11.084 13.013 0.872 63.634 o
-1 -17 -7 81.180 80.376 1.755 4.216 o
-1 -17 -6 26.820 26.207 0.912 29.974 o
-1 -17 -5 54.662 55.011 1.093 9.490 o
-1 -17 -4 0.195 0.461 0.351 526.136 o
-1 -17 -3 188.107 185.577 4.161 0.779 o
-1 -17 -2 55.368 54.430 1.664 7.660 o
-1 -17 -1 145.457 146.827 2.948 1.332 o
-1 -16 -25 1.568 1.063 0.441 327.129 o
-1 -16 -24 2.774 2.787 0.371 426.401 o
-1 -16 -23 9.893 9.745 0.541 136.487 o
-1 -16 -22 0.715 0.802 0.371 467.833 o
-1 -16 -21 4.822 5.083 0.431 280.612 o
-1 -16 -20 7.014 6.878 0.471 207.024 o
-1 -16 -19 13.138 13.013 0.942 53.581 o
-1 -16 -18 7.175 7.279 0.541 165.973 o
-1 -16 -17 59.351 59.302 1.404 7.553 o
-1 -16 -16 4.776 5.153 0.602 159.364 o
-1 -16 -15 4.252 4.953 0.531 202.592 o
-1 -16 -14 2.766 2.907 0.511 234.741 o
-1 -16 -13 25.090 27.260 1.454 19.271 o
-1 -16 -12 6.459 6.527 0.602 147.142 o
-1 -16 -11 44.383 42.379 0.942 14.478 o
-1 -16 -10 0.299 0.150 0.331 591.938 o
-1 -16 -9 11.091 10.607 0.592 112.916 o
-1 -16 -8 24.716 24.122 0.642 42.074 o
-1 -16 -7 80.695 84.818 1.614 4.249 o
-1 -16 -6 7.476 7.559 0.431 222.368 o
-1 -16 -5 23.363 23.009 0.912 35.099 o
-1 -16 -4 25.401 25.315 0.842 33.795 o
-1 -16 -3 3.283 3.659 0.351 447.441 o
-1 -16 -2 4.579 4.482 0.381 352.519 o
-1 -16 -1 26.839 25.706 0.862 31.493 o
-1 -15 -27 10.116 10.116 0.561 127.793 o
-1 -15 -26 17.137 17.014 0.692 63.101 o
-1 -15 -25 14.471 14.738 0.672 76.338 o
-1 -15 -24 0.130 -0.050 0.802 100.827 o
-1 -15 -23 0.589 0.842 0.401 401.192 o
-1 -15 -22 32.519 32.925 1.233 18.401 o
-1 -15 -21 16.859 17.505 0.652 66.687 o
-1 -15 -20 20.049 19.791 0.802 46.584 o
-1 -15 -19 7.058 7.549 0.612 137.409 o
-1 -15 -18 5.535 6.146 0.702 116.992 o
-1 -15 -17 5.395 5.805 0.602 154.668 o
-1 -15 -16 32.931 31.882 1.233 18.448 o
-1 -15 -15 16.794 16.392 0.632 70.452 o
-1 -15 -14 14.873 13.475 0.612 84.883 o
-1 -15 -13 50.492 49.567 1.113 10.861 o
-1 -15 -12 17.065 16.643 0.652 67.349 o
-1 -15 -11 35.748 33.807 1.273 16.475 o
-1 -15 -10 42.584 38.098 1.293 13.384 o
-1 -15 -9 71.476 72.276 1.534 5.393 o
-1 -15 -8 68.273 69.158 1.524 5.812 o
-1 -15 -7 119.609 119.076 1.815 2.155 o
-1 -15 -6 19.739 19.270 0.702 53.458 o
-1 -15 -5 5.890 5.825 0.391 298.058 o
-1 -15 -4 47.996 47.412 0.852 12.918 o
-1 -15 -3 92.931 95.345 1.644 3.375 o
-1 -15 -2 47.016 46.239 0.892 13.222 o
-1 -15 -1 31.381 30.929 0.952 23.669 o
-1 -14 -28 2.463 2.376 0.461 289.791 o
-1 -14 -27 5.049 4.943 0.521 203.310 o
-1 -14 -26 0.507 0.130 0.461 304.574 o
-1 -14 -25 3.936 3.539 0.531 209.546 o
-1 -14 -24 3.283 2.817 0.531 215.682 o
-1 -14 -23 13.509 13.916 0.602 91.126 o
-1 -14 -22 12.349 12.903 0.602 98.707 o
-1 -14 -21 8.528 8.402 0.592 133.669 o
-1 -14 -20 3.203 3.359 0.481 257.907 o
-1 -14 -19 21.067 20.713 0.942 37.864 o
-1 -14 -18 71.953 65.609 1.855 5.145 o
-1 -14 -17 76.333 73.639 1.283 5.255 o
-1 -14 -16 78.484 76.216 1.303 4.968 o
-1 -14 -15 11.384 11.179 0.612 105.521 o
-1 -14 -14 31.719 29.526 0.752 27.364 o
-1 -14 -13 76.771 75.033 1.574 4.844 o
-1 -14 -12 157.252 160.602 3.449 1.099 o
-1 -14 -11 14.309 14.006 0.782 65.453 o
-1 -14 -10 89.658 88.838 2.005 3.407 o
-1 -14 -9 38.557 38.539 0.952 17.527 o
-1 -14 -8 76.152 76.276 1.374 5.068 o
-1 -14 -7 19.055 18.087 0.682 57.689 o
-1 -14 -6 213.846 217.057 3.268 0.665 o
-1 -14 -5 44.509 44.424 1.043 13.496 o
-1 -14 -4 87.330 89.199 1.424 3.915 o
-1 -14 -3 11.336 11.560 0.602 106.928 o
-1 -14 -2 45.646 44.705 0.842 14.187 o
-1 -14 -1 30.573 29.776 0.882 25.894 o
-1 -13 -30 11.972 12.913 0.912 58.116 o
-1 -13 -29 0.685 0.201 0.501 257.595 o
-1 -13 -28 0.621 0.592 0.451 317.575 o
-1 -13 -27 0.838 1.063 0.481 278.200 o
-1 -13 -26 22.702 23.300 0.842 38.266 o
-1 -13 -25 0.705 0.592 0.501 257.266 o
-1 -13 -24 3.847 3.710 0.561 189.449 o
-1 -13 -23 3.525 3.710 0.471 263.443 o
-1 -13 -22 17.817 18.708 0.722 57.006 o
-1 -13 -21 0.334 0.321 0.441 332.971 o
-1 -13 -20 58.037 55.934 1.053 8.901 o
-1 -13 -19 11.016 10.577 0.471 146.046 o
-1 -13 -18 6.030 6.226 0.421 262.453 o
-1 -13 -17 4.948 4.903 0.401 314.003 o
-1 -13 -16 28.618 27.140 0.752 31.605 o
-1 -13 -15 106.887 104.528 1.855 2.637 o
-1 -13 -14 42.357 39.130 0.942 15.853 o
-1 -13 -13 74.780 71.965 1.765 4.854 o
-1 -13 -12 0.541 0.391 0.351 524.851 o
-1 -13 -11 68.680 66.902 1.985 5.126 o
-1 -13 -10 6.927 6.998 0.411 249.681 o
-1 -13 -9 106.322 104.488 1.785 2.681 o
-1 -13 -8 100.605 100.037 1.644 2.995 o
-1 -13 -7 29.796 28.714 0.742 29.767 o
-1 -13 -6 16.200 16.061 0.612 75.027 o
-1 -13 -5 65.359 66.802 1.233 6.708 o
-1 -13 -4 65.394 65.388 1.123 6.976 o
-1 -13 -3 101.026 103.646 1.684 2.902 o
-1 -13 -2 262.556 270.003 4.291 0.431 o
-1 -13 -1 4.449 5.153 0.592 165.833 o
-1 -12 -31 7.872 8.211 0.632 125.024 o
-1 -12 -30 2.269 2.426 0.551 206.447 o
-1 -12 -29 1.854 2.316 0.561 200.944 o
-1 -12 -28 16.173 16.482 1.043 40.920 o
-1 -12 -27 10.147 10.036 0.642 107.420 o
-1 -12 -26 5.670 5.905 0.602 152.989 o
-1 -12 -25 0.321 0.150 0.521 238.534 o
-1 -12 -24 36.696 38.399 1.484 13.480 o
-1 -12 -23 1.191 0.952 0.551 211.708 o
-1 -12 -22 23.664 23.250 0.702 42.314 o
-1 -12 -21 11.376 11.048 0.451 146.701 o
-1 -12 -20 51.368 50.891 0.932 11.186 o
-1 -12 -19 4.429 4.060 0.361 392.821 o
-1 -12 -18 27.615 26.328 0.682 34.985 o
-1 -12 -17 22.358 21.565 0.571 52.136 o
-1 -12 -16 78.601 76.126 1.223 5.041 o
-1 -12 -15 63.512 61.548 1.053 7.600 o
-1 -12 -14 37.879 36.263 0.792 19.969 o
-1 -12 -13 57.245 55.222 1.023 9.186 o
-1 -12 -12 107.088 105.431 1.604 2.713 o
-1 -12 -11 68.110 64.867 1.494 6.075 o
-1 -12 -10 133.842 131.949 2.336 1.671 o
-1 -12 -9 103.315 103.145 1.524 2.900 o
-1 -12 -8 48.729 46.870 0.902 12.559 o
-1 -12 -7 155.645 157.214 2.416 1.255 o
-1 -12 -6 244.625 247.957 3.890 0.504 o
-1 -12 -5 161.986 166.036 2.677 1.132 o
-1 -12 -4 59.851 59.864 1.183 7.974 o
-1 -12 -3 48.983 49.156 1.213 10.824 o
-1 -12 -2 72.652 71.714 1.233 5.711 o
-1 -12 -1 14.353 13.344 0.471 109.686 o
-1 -11 -32 22.468 23.330 0.892 36.657 o
-1 -11 -31 24.749 25.295 0.962 30.965 o
-1 -11 -30 13.924 13.936 1.173 37.265 o
-1 -11 -29 4.659 4.241 0.692 125.472 o
-1 -11 -28 12.828 11.921 0.802 69.135 o
-1 -11 -27 37.024 38.168 1.915 10.301 o
-1 -11 -26 59.565 59.673 4.572 2.352 o
-1 -11 -25 36.701 38.599 1.384 14.306 o
-1 -11 -24 3.132 2.988 0.571 188.309 o
-1 -11 -23 29.796 29.395 0.762 29.029 o
-1 -11 -22 47.155 46.389 0.952 12.865 o
-1 -11 -21 116.452 118.946 2.236 2.102 o
-1 -11 -20 141.664 139.037 2.346 1.517 o
-1 -11 -19 10.492 9.745 0.411 177.130 o
-1 -11 -18 23.506 22.428 0.571 48.637 o
-1 -11 -17 60.141 58.741 1.013 8.403 o
-1 -11 -16 142.762 140.040 2.286 1.507 o
-1 -11 -15 59.055 56.836 1.173 8.350 o
-1 -11 -14 249.204 250.764 4.712 0.465 o
-1 -11 -13 7.984 7.981 0.401 231.144 o
-1 -11 -12 11.214 11.510 0.471 140.216 o
-1 -11 -11 88.262 84.668 1.363 4.027 o
-1 -11 -10 147.918 152.281 2.707 1.317 o
-1 -11 -9 76.133 76.888 1.323 5.100 o
-1 -11 -8 152.870 153.955 2.256 1.318 o
-1 -11 -7 38.243 37.416 0.762 19.714 o
-1 -11 -6 3.974 3.389 0.361 412.860 o
-1 -11 -5 15.950 14.467 0.531 88.690 o
-1 -11 -4 143.826 149.805 2.677 1.376 o
-1 -11 -3 155.922 157.204 2.547 1.237 o
-1 -11 -2 343.087 358.992 5.444 0.252 o
-1 -11 -1 18.581 18.006 0.471 75.624 o
-1 -10 -33 3.144 3.469 0.531 214.616 o
-1 -10 -32 9.644 10.066 0.692 98.501 o
-1 -10 -31 2.750 2.757 0.612 167.064 o
-1 -10 -30 13.686 12.923 0.802 66.024 o
-1 -10 -29 2.777 2.426 0.612 167.468 o
-1 -10 -28 20.934 20.673 0.983 36.393 o
-1 -10 -27 7.798 7.860 0.642 123.169 o
-1 -10 -26 9.986 9.925 0.682 99.563 o
-1 -10 -25 19.297 18.828 0.742 52.347 o
-1 -10 -24 81.417 82.692 2.246 3.678 o
-1 -10 -23 14.454 14.407 0.581 88.856 o
-1 -10 -22 12.319 11.850 0.541 113.564 o
-1 -10 -21 101.834 102.503 1.855 2.818 o
-1 -10 -20 63.790 63.333 1.263 7.044 o
-1 -10 -19 35.763 34.699 0.732 22.426 o
-1 -10 -18 35.572 34.378 0.702 23.016 o
-1 -10 -17 191.641 186.900 2.627 0.867 o
-1 -10 -16 61.317 60.786 1.013 8.056 o
-1 -10 -15 120.026 118.915 2.135 2.061 o
-1 -10 -14 18.415 19.039 0.501 71.814 o
-1 -10 -13 62.874 63.192 1.323 7.045 o
-1 -10 -12 99.673 90.332 1.584 3.237 o
-1 -10 -11 80.837 77.870 1.173 4.855 o
-1 -10 -10 171.134 165.986 2.226 1.101 o
-1 -10 -9 21.826 20.252 0.541 56.599 o
-1 -10 -8 50.652 48.204 0.832 12.099 o
-1 -10 -7 85.374 83.093 1.273 4.302 o
-1 -10 -6 193.922 195.241 2.797 0.823 o
-1 -10 -5 283.138 285.573 3.700 0.393 o
-1 -10 -4 144.275 144.060 2.266 1.467 o
-1 -10 -3 84.219 84.036 1.374 4.267 o
-1 -10 -2 138.850 149.454 1.855 1.561 o
-1 -10 -1 337.567 376.978 4.431 0.259 o
-1 -9 -34 3.525 3.579 0.812 94.957 o
-1 -9 -33 5.936 5.725 0.602 152.073 o
-1 -9 -32 1.297 1.273 0.602 177.718 o
-1 -9 -31 28.555 29.175 1.604 15.713 o
-1 -9 -30 0.356 0.481 0.581 191.659 o
-1 -9 -29 6.470 5.975 1.093 51.115 o
-1 -9 -28 0.106 -0.451 0.832 93.671 o
-1 -9 -27 42.090 41.537 2.486 6.840 o
-1 -9 -26 3.433 3.278 0.491 246.789 o
-1 -9 -25 58.641 60.245 1.654 6.960 o
-1 -9 -24 4.615 4.111 0.431 290.836 o
-1 -9 -23 5.832 5.514 0.451 244.608 o
-1 -9 -22 22.049 21.786 0.672 47.770 o
-1 -9 -21 127.484 130.886 2.336 1.775 o
-1 -9 -20 7.540 7.359 0.481 192.617 o
-1 -9 -19 39.000 37.566 0.872 18.270 o
-1 -9 -18 8.409 7.900 0.361 251.526 o
-1 -9 -17 9.540 8.702 0.391 206.510 o
-1 -9 -16 15.030 14.818 0.441 105.424 o
-1 -9 -15 85.364 81.559 1.374 4.273 o
-1 -9 -14 77.652 74.321 1.173 5.236 o
-1 -9 -13 142.388 138.746 1.845 1.587 o
-1 -9 -12 21.247 21.074 0.541 57.044 o
-1 -9 -11 68.184 66.711 1.013 6.729 o
-1 -9 -10 2.351 2.506 0.311 603.658 o
-1 -9 -9 488.160 481.807 6.226 0.134 o
-1 -9 -8 5.674 5.404 0.341 371.068 o
-1 -9 -7 52.506 52.244 0.842 11.042 o
-1 -9 -6 28.983 28.242 0.792 29.761 o
-1 -9 -5 458.695 465.105 7.008 0.145 o
-1 -9 -4 58.123 57.488 1.043 8.776 o
-1 -9 -3 86.887 90.994 1.404 3.905 o
-1 -9 -2 386.907 425.072 5.594 0.196 o
-1 -9 -1 176.915 184.364 2.466 0.974 o
-1 -8 -35 3.573 3.088 0.762 107.665 o
-1 -8 -34 1.647 1.805 0.802 99.985 o
-1 -8 -33 5.805 6.146 0.642 135.821 o
-1 -8 -32 4.008 4.121 0.632 150.948 o
-1 -8 -31 5.679 4.431 0.662 132.397 o
-1 -8 -30 12.855 12.973 0.852 62.444 o
-1 -8 -29 22.853 22.829 1.053 31.047 o
-1 -8 -28 13.190 12.753 1.293 32.553 o
-1 -8 -27 5.301 4.742 0.581 167.475 o
-1 -8 -26 7.898 7.058 0.581 145.035 o
-1 -8 -25 25.438 24.754 0.762 36.539 o
-1 -8 -24 4.499 4.171 0.431 292.086 o
-1 -8 -23 107.119 110.333 1.845 2.553 o
-1 -8 -22 6.924 6.416 0.471 210.733 o
-1 -8 -21 32.566 33.717 1.003 21.296 o
-1 -8 -20 31.522 31.752 0.892 24.266 o
-1 -8 -19 85.561 87.284 1.815 3.763 o
-1 -8 -18 47.566 46.379 1.033 12.358 o
-1 -8 -17 291.173 284.360 3.980 0.376 o
-1 -8 -16 31.385 30.087 0.592 30.158 o
-1 -8 -15 15.930 14.507 0.461 98.024 o
-1 -8 -14 23.805 22.698 0.541 48.933 o
-1 -8 -13 165.849 165.966 2.125 1.153 o
-1 -8 -12 30.660 29.245 0.612 31.079 o
-1 -8 -11 423.667 416.570 5.053 0.181 o
-1 -8 -10 23.899 23.380 0.541 48.003 o
-1 -8 -9 96.129 88.848 1.173 3.628 o
-1 -8 -8 87.545 87.936 1.203 4.080 o
-1 -8 -7 317.720 321.526 3.800 0.315 o
-1 -8 -6 172.326 173.877 2.196 1.064 o
-1 -8 -5 1282.360 1298.650 18.558 0.019 o
-1 -8 -4 181.084 191.221 2.186 0.944 o
-1 -8 -3 104.284 112.439 1.313 2.790 o
-1 -8 -2 9.187 9.374 0.291 264.385 o
-1 -8 -1 1666.520 1879.500 25.566 0.010 o
-1 -7 -35 0.408 0.291 0.742 117.788 o
-1 -7 -34 2.180 2.436 0.652 149.344 o
-1 -7 -33 22.887 24.483 1.063 30.025 o
-1 -7 -32 12.880 13.665 0.732 75.396 o
-1 -7 -31 23.894 25.155 0.912 33.373 o
-1 -7 -30 2.783 2.687 0.592 178.137 o
-1 -7 -29 8.923 8.542 0.702 101.673 o
-1 -7 -28 50.892 51.031 2.005 7.290 o
-1 -7 -27 66.289 66.391 1.614 5.965 o
-1 -7 -26 5.735 5.414 0.471 230.354 o
-1 -7 -25 61.025 60.515 1.123 7.889 o
-1 -7 -24 59.965 59.733 1.063 8.241 o
-1 -7 -23 5.720 5.835 0.411 280.434 o
-1 -7 -22 9.214 9.043 0.451 179.597 o
-1 -7 -21 113.578 116.108 1.704 2.357 o
-1 -7 -20 26.494 25.796 0.682 36.830 o
-1 -7 -19 82.147 81.600 1.494 4.365 o
-1 -7 -18 157.594 164.162 2.406 1.206 o
-1 -7 -17 43.535 42.218 0.782 15.810 o
-1 -7 -16 199.204 191.021 2.577 0.819 o
-1 -7 -15 474.783 481.908 5.795 0.141 o
-1 -7 -14 68.787 65.829 1.113 6.566 o
-1 -7 -13 207.855 206.581 2.526 0.743 o
-1 -7 -12 60.882 57.107 0.962 8.525 o
-1 -7 -11 150.323 144.351 1.815 1.453 o
-1 -7 -10 134.538 129.061 1.564 1.824 o
-1 -7 -9 558.017 554.043 6.747 0.103 o
-1 -7 -8 97.972 99.255 1.243 3.285 o
-1 -7 -7 60.093 54.951 0.792 9.222 o
-1 -7 -6 172.654 172.824 2.115 1.071 o
-1 -7 -5 441.273 461.104 5.574 0.159 o
-1 -7 -4 24.913 24.363 0.471 47.291 o
-1 -7 -3 326.233 353.959 4.101 0.284 o
-1 -7 -2 139.162 147.118 1.755 1.587 o
-1 -7 -1 335.133 349.658 3.659 0.281 o
-1 -6 -36 4.134 4.441 0.622 154.395 o
-1 -6 -35 11.118 11.169 0.792 75.390 o
-1 -6 -34 28.129 28.884 1.133 23.186 o
-1 -6 -33 3.506 4.441 0.732 115.201 o
-1 -6 -32 18.324 18.909 0.822 49.120 o
-1 -6 -31 18.414 19.450 0.842 47.321 o
-1 -6 -30 34.221 34.859 1.083 19.071 o
-1 -6 -29 1.823 2.176 0.592 181.705 o
-1 -6 -28 89.204 89.279 1.654 3.664 o
-1 -6 -27 20.196 19.831 0.662 54.265 o
-1 -6 -26 0.199 -0.070 0.962 70.018 o
-1 -6 -25 2.336 2.156 0.411 362.975 o
-1 -6 -24 120.064 118.364 1.795 2.158 o
-1 -6 -23 40.022 39.251 0.752 18.335 o
-1 -6 -22 69.432 68.025 1.093 6.401 o
-1 -6 -21 42.784 42.940 0.772 16.035 o
-1 -6 -20 76.892 77.860 1.293 5.036 o
-1 -6 -19 14.321 14.066 0.461 109.262 o
-1 -6 -18 187.866 184.815 2.416 0.908 o
-1 -6 -17 194.143 197.116 2.627 0.827 o
-1 -6 -16 19.318 18.598 0.441 73.814 o
-1 -6 -15 85.029 85.269 1.123 4.360 o
-1 -6 -14 18.963 18.919 0.421 76.113 o
-1 -6 -13 49.939 50.780 0.762 12.190 o
-1 -6 -12 105.685 103.436 1.303 2.896 o
-1 -6 -11 424.414 432.040 4.862 0.177 o
-1 -6 -10 263.537 271.146 2.827 0.460 o
-1 -6 -9 165.028 167.610 1.765 1.183 o
-1 -6 -8 48.891 51.683 0.722 12.505 o
-1 -6 -7 77.253 83.565 0.993 5.059 o
-1 -6 -6 770.966 819.695 10.066 0.051 o
-1 -6 -5 408.392 434.857 4.903 0.185 o
-1 -6 -4 182.102 193.146 2.095 0.936 o
-1 -6 -3 99.442 112.830 1.474 2.887 o
-1 -6 -2 58.888 65.388 1.093 7.909 o
-1 -6 -1 336.826 365.268 4.301 0.266 o
-1 -5 -36 4.663 5.474 0.662 134.128 o
-1 -5 -35 17.601 17.946 0.922 45.021 o
-1 -5 -34 19.638 19.440 0.993 38.038 o
-1 -5 -33 5.589 5.334 0.772 99.347 o
-1 -5 -32 26.073 25.987 1.163 24.686 o
-1 -5 -31 9.229 9.474 0.812 78.868 o
-1 -5 -30 4.462 4.401 0.622 153.174 o
-1 -5 -29 14.979 13.705 0.622 82.674 o
-1 -5 -28 33.641 31.631 0.792 24.287 o
-1 -5 -27 22.780 22.027 0.672 46.157 o
-1 -5 -26 49.375 47.462 1.023 11.771 o
-1 -5 -25 29.093 27.491 0.722 31.576 o
-1 -5 -24 31.984 31.000 0.762 26.322 o
-1 -5 -23 8.447 7.600 0.481 181.750 o
-1 -5 -22 57.813 55.643 1.143 8.727 o
-1 -5 -21 28.312 27.872 0.612 34.776 o
-1 -5 -20 223.278 225.349 2.747 0.637 o
-1 -5 -19 8.353 8.161 0.411 217.577 o
-1 -5 -18 150.842 152.883 2.236 1.347 o
-1 -5 -17 56.667 55.342 1.013 9.309 o
-1 -5 -16 489.738 498.771 6.206 0.131 o
-1 -5 -15 214.639 218.772 2.366 0.695 o
-1 -5 -14 746.089 774.910 8.803 0.056 o
-1 -5 -13 71.948 69.569 0.993 6.176 o
-1 -5 -12 395.630 402.744 4.181 0.206 o
-1 -5 -11 150.659 141.904 1.574 1.491 o
-1 -5 -10 843.084 852.941 9.023 0.045 o
-1 -5 -9 36.327 36.413 0.521 23.532 o
-1 -5 -8 937.254 971.826 10.647 0.036 o
-1 -5 -7 50.717 49.206 0.682 12.464 o
-1 -5 -6 4.881 5.504 0.211 697.447 o
-1 -5 -5 114.164 115.838 1.183 2.482 o
-1 -5 -4 1112.780 1241.620 13.124 0.024 o
-1 -5 -3 23.482 23.450 0.461 51.964 o
-1 -5 -2 1077.320 1213.710 12.993 0.026 o
-1 -5 -1 319.527 355.794 3.679 0.295 o
-1 -4 -37 8.136 8.001 0.692 107.816 o
-1 -4 -36 4.302 4.050 0.662 137.628 o
-1 -4 -35 3.610 4.060 0.692 128.410 o
-1 -4 -34 36.557 36.604 2.938 5.821 o
-1 -4 -33 16.996 16.893 0.983 43.066 o
-1 -4 -32 8.544 8.091 0.852 75.543 o
-1 -4 -31 13.043 13.415 0.762 71.558 o
-1 -4 -30 36.319 37.536 1.003 18.321 o
-1 -4 -29 6.328 6.697 0.501 196.841 o
-1 -4 -28 53.640 53.197 0.972 10.256 o
-1 -4 -27 17.803 17.635 0.551 72.385 o
-1 -4 -26 2.829 2.216 0.391 391.133 o
-1 -4 -25 0.701 0.922 0.361 493.644 o
-1 -4 -24 99.470 97.260 1.384 3.205 o
-1 -4 -23 25.042 23.931 0.602 43.070 o
-1 -4 -22 144.463 147.288 1.955 1.489 o
-1 -4 -21 3.206 3.188 0.341 478.905 o
-1 -4 -20 2.569 2.306 0.311 599.652 o
-1 -4 -19 48.824 47.743 0.983 12.056 o
-1 -4 -18 322.604 331.622 3.990 0.301 o
-1 -4 -17 6.395 6.206 0.351 326.782 o
-1 -4 -16 326.109 344.826 4.101 0.289 o
-1 -4 -15 54.785 54.630 0.872 10.148 o
-1 -4 -14 137.279 133.683 1.424 1.761 o
-1 -4 -13 98.333 96.618 1.053 3.401 o
-1 -4 -12 1036.270 1068.840 11.951 0.029 o
-1 -4 -11 391.544 397.992 4.050 0.211 o
-1 -4 -10 424.191 431.398 4.411 0.179 o
-1 -4 -9 441.886 457.345 4.652 0.163 o
-1 -4 -8 226.592 242.383 3.228 0.582 o
-1 -4 -7 263.548 273.773 2.767 0.458 o
-1 -4 -6 1482.510 1654.360 18.046 0.014 o
-1 -4 -5 270.807 308.603 3.008 0.405 o
-1 -4 -4 267.032 276.901 3.018 0.443 o
-1 -4 -3 534.525 583.840 5.925 0.107 o
-1 -4 -2 1408.930 1542.890 16.172 0.015 o
-1 -4 -1 58.509 65.498 0.792 8.552 o
-1 -3 -37 0.761 1.494 0.501 256.188 o
-1 -3 -36 4.779 4.883 0.592 164.858 o
-1 -3 -35 3.648 3.058 0.592 174.232 o
-1 -3 -34 12.572 12.723 0.772 72.439 o
-1 -3 -33 11.791 11.419 0.762 77.548 o
-1 -3 -32 18.088 17.996 0.862 47.823 o
-1 -3 -31 0.265 0.241 0.612 173.366 o
-1 -3 -30 48.516 49.146 1.293 10.572 o
-1 -3 -29 33.170 33.416 0.872 22.846 o
-1 -3 -28 26.117 25.726 0.642 38.584 o
-1 -3 -27 5.695 6.928 0.441 245.068 o
-1 -3 -26 155.259 157.525 2.266 1.275 o
-1 -3 -25 5.289 6.948 0.441 250.687 o
-1 -3 -24 71.906 71.163 1.083 5.992 o
-1 -3 -23 33.100 32.263 0.672 26.196 o
-1 -3 -22 53.733 51.292 0.882 10.735 o
-1 -3 -21 0.559 0.511 0.301 712.639 o
-1 -3 -20 103.824 97.290 1.815 2.856 o
-1 -3 -19 316.835 319.731 4.832 0.304 o
-1 -3 -18 26.074 26.699 0.571 39.916 o
-1 -3 -17 57.377 55.342 0.932 9.384 o
-1 -3 -16 16.530 16.713 0.441 91.099 o
-1 -3 -15 92.038 90.272 1.223 3.768 o
-1 -3 -14 280.771 288.300 3.389 0.400 o
-1 -3 -13 324.598 325.676 3.198 0.311 o
-1 -3 -12 575.610 597.856 6.056 0.096 o
-1 -3 -11 4.637 4.812 0.241 652.936 o
-1 -3 -10 120.452 116.008 1.303 2.292 o
-1 -3 -9 723.018 749.886 8.482 0.060 o
-1 -3 -8 951.663 1003.030 12.352 0.034 o
-1 -3 -7 99.760 103.265 1.985 2.809 o
-1 -3 -6 190.126 182.659 3.780 0.806 o
-1 -3 -5 258.844 270.876 3.018 0.467 o
-1 -3 -4 721.281 847.828 9.013 0.055 o
-1 -3 -3 690.836 778.790 8.452 0.062 o
-1 -3 -2 415.670 468.844 4.923 0.172 o
-1 -3 -1 185.171 204.606 2.356 0.870 o
-1 -2 -37 5.560 5.203 0.561 174.898 o
-1 -2 -36 7.922 8.201 0.642 121.817 o
-1 -2 -35 20.100 20.723 0.842 43.696 o
-1 -2 -34 26.775 28.734 1.303 20.838 o
-1 -2 -33 27.649 28.533 1.554 16.706 o
-1 -2 -32 14.966 14.497 0.812 60.521 o
-1 -2 -31 18.636 18.096 0.942 42.437 o
-1 -2 -30 17.416 17.585 0.712 60.029 o
-1 -2 -29 88.791 86.853 2.346 3.226 o
-1 -2 -28 1.142 3.068 0.942 72.543 o
-1 -2 -27 68.668 67.373 1.193 6.374 o
-1 -2 -26 11.917 12.612 0.501 122.677 o
-1 -2 -25 121.374 119.617 2.176 2.017 o
-1 -2 -24 9.488 11.058 0.501 147.524 o
-1 -2 -23 195.616 192.083 2.787 0.823 o
-1 -2 -22 147.535 142.857 2.486 1.403 o
-1 -2 -21 6.105 7.018 0.411 263.476 o
-1 -2 -20 132.400 124.580 1.734 1.871 o
-1 -2 -19 330.171 326.499 4.181 0.294 o
-1 -2 -18 393.805 389.480 5.374 0.204 o
-1 -2 -17 233.509 231.515 2.877 0.589 o
-1 -2 -16 361.182 362.270 4.181 0.246 o
-1 -2 -15 131.660 134.736 1.815 1.783 o
-1 -2 -14 306.007 292.040 3.108 0.360 o
-1 -2 -13 683.188 647.854 7.118 0.072 o
-1 -2 -12 568.537 572.691 5.735 0.101 o
-1 -2 -11 503.915 499.944 5.103 0.130 o
-1 -2 -10 152.617 145.283 1.714 1.431 o
-1 -2 -9 11.810 10.647 0.381 166.149 o
-1 -2 -8 201.394 213.498 3.870 0.688 o
-1 -2 -7 876.706 905.135 11.169 0.041 o
-1 -2 -6 210.681 226.091 2.567 0.689 o
-1 -2 -5 720.217 762.839 8.101 0.060 o
-1 -2 -4 392.833 422.726 4.091 0.202 o
-1 -2 -3 77.661 84.357 1.313 4.727 o
-1 -2 -2 143.153 155.038 1.965 1.456 o
-1 -2 -1 1190.790 1328.580 14.527 0.021 o
-1 -1 -37 5.424 5.675 0.571 169.095 o
-1 -1 -36 0.227 0.371 0.521 238.524 o
-1 -1 -35 2.021 1.424 0.561 201.781 o
-1 -1 -34 5.747 5.143 0.642 138.149 o
-1 -1 -33 1.981 1.805 0.612 170.261 o
-1 -1 -32 2.748 3.008 0.652 147.491 o
-1 -1 -31 37.993 37.777 2.065 9.308 o
-1 -1 -30 13.018 12.492 0.592 98.289 o
-1 -1 -29 6.444 6.246 0.521 186.253 o
-1 -1 -28 56.218 53.708 1.233 8.903 o
-1 -1 -27 22.569 23.009 0.642 46.946 o
-1 -1 -26 86.512 85.590 1.504 3.996 o
-1 -1 -25 111.517 108.308 1.734 2.501 o
-1 -1 -24 11.159 12.382 0.481 134.273 o
-1 -1 -23 2.747 3.298 0.371 421.879 o
-1 -1 -22 99.342 96.037 1.644 3.112 o
-1 -1 -21 109.276 103.436 1.464 2.726 o
-1 -1 -20 57.461 54.109 0.993 9.330 o
-1 -1 -19 269.340 258.384 3.409 0.449 o
-1 -1 -18 39.376 35.852 0.802 19.154 o
-1 -1 -17 13.251 12.011 0.391 140.195 o
-1 -1 -16 71.705 68.436 1.283 5.886 o
-1 -1 -15 477.730 478.108 5.404 0.141 o
-1 -1 -14 253.840 254.002 3.409 0.488 o
-1 -1 -13 386.336 390.503 4.271 0.216 o
-1 -1 -12 85.134 83.805 0.952 4.508 o
-1 -1 -11 22.672 24.252 0.481 52.173 o
-1 -1 -10 222.472 217.759 2.406 0.665 o
-1 -1 -9 704.693 712.209 9.143 0.063 o
-1 -1 -8 592.432 560.640 6.868 0.095 o
-1 -1 -7 1129.540 1081.770 13.274 0.026 o
-1 -1 -6 446.075 431.779 4.993 0.166 o
-1 -1 -5 309.582 311.610 3.589 0.335 o
-1 -1 -4 1624.370 1709.510 23.360 0.011 o
-1 -1 -3 7890.570 6516.140 123.858 0.001 o
-1 -1 -2 6829.630 5415.350 67.092 0.001 o
-1 -1 -1 2886.840 3170.260 38.108 0.004 o
0 0 2 2471.910 1751.810 14.658 0.007 o
0 0 4 35.096 35.491 0.732 22.614 o
0 0 6 1577.300 1695.460 24.393 0.012 o
0 0 8 160.758 149.975 2.537 1.227 o
0 0 10 1805.890 1842.430 30.739 0.009 o
0 0 12 262.217 252.729 3.138 0.477 o
0 0 14 76.904 78.913 1.524 4.758 o
0 0 16 455.779 442.837 8.893 0.140 o
0 0 18 724.571 710.064 13.214 0.056 o
0 0 20 0.001 0.030 0.411 383.883 o
0 0 22 269.085 274.074 5.965 0.374 o
0 0 24 112.859 109.501 2.105 2.325 o
0 0 26 36.201 33.406 0.983 19.634 o
0 0 28 44.042 43.091 1.133 13.299 o
0 0 30 22.631 21.656 0.832 39.849 o
0 0 32 3.537 2.637 0.752 110.860 o
0 0 34 8.422 8.652 0.842 76.761 o
0 0 36 1.643 1.845 0.652 150.783 o
0 1 1 68.935 73.409 0.962 6.329 o
0 1 2 1500.880 1568.480 16.242 0.014 o
0 1 3 63.777 59.834 0.962 7.853 o
0 1 4 2344.300 2356.420 24.573 0.006 o
0 1 5 32.072 32.133 0.411 30.816 o
0 1 6 645.597 680.558 9.394 0.072 o
0 1 7 77.577 78.381 1.133 5.118 o
0 1 8 890.020 977.671 10.908 0.038 o
0 1 9 4.605 4.040 0.261 619.983 o
0 1 10 2896.560 3113.210 48.254 0.003 o
0 1 11 113.333 110.604 1.684 2.439 o
0 1 12 46.782 41.216 0.561 15.785 o
0 1 13 10.866 11.068 0.311 201.877 o
0 1 14 784.751 797.970 8.973 0.052 o
0 1 15 113.159 111.978 1.895 2.359 o
0 1 16 498.371 484.103 5.584 0.133 o
0 1 17 145.308 138.536 1.835 1.551 o
0 1 18 4.740 5.073 0.371 356.705 o
0 1 19 92.454 87.475 1.303 3.772 o
0 1 20 22.095 22.387 0.602 50.375 o
0 1 21 0.505 1.594 0.341 551.503 o
0 1 22 64.628 62.130 0.942 7.597 o
0 1 23 5.270 8.803 0.431 245.702 o
0 1 24 136.789 135.047 2.105 1.650 o
0 1 25 29.377 34.318 0.862 25.411 o
0 1 26 178.105 178.970 2.426 0.987 o
0 1 27 17.049 19.660 0.581 68.878 o
0 1 28 37.780 37.115 0.752 20.163 o
0 1 29 16.265 16.151 0.551 81.176 o
0 1 30 28.664 28.884 0.682 32.156 o
0 1 31 0.933 2.065 0.531 227.133 o
0 1 32 38.581 38.820 1.323 14.222 o
0 1 33 2.033 2.817 0.521 230.264 o
0 1 34 8.067 8.823 0.592 135.138 o
0 1 35 19.856 20.362 0.832 44.851 o
0 1 36 10.787 12.502 0.592 109.488 o
0 1 37 11.298 12.231 0.561 114.083 o
0 2 0 6064.890 4942.470 24.744 0.001 o
0 2 1 3341.740 3389.150 46.108 0.003 o
0 2 2 16.828 16.643 0.321 102.740 o
0 2 3 237.677 240.047 2.917 0.562 o
0 2 4 24.730 29.726 0.592 39.085 o
0 2 5 334.171 369.960 4.341 0.266 o
0 2 6 1643.100 1819.160 23.982 0.011 o
0 2 7 96.875 104.909 1.454 3.127 o
0 2 8 1.609 1.414 0.201 1451.550 o
0 2 9 361.233 368.396 4.201 0.244 o
0 2 10 25.862 23.410 0.481 45.983 o
0 2 11 1504.480 1585.040 17.776 0.014 o
0 2 12 7.130 6.587 0.271 395.398 o
0 2 13 37.837 37.817 0.632 20.998 o
0 2 14 110.811 115.928 1.363 2.528 o
0 2 15 1.684 1.995 0.341 530.777 o
0 2 16 465.915 473.657 5.755 0.146 o
0 2 17 9.745 9.194 0.421 185.778 o
0 2 18 8.934 9.504 0.431 189.475 o
0 2 19 294.417 283.398 3.489 0.379 o
0 2 20 77.493 72.747 1.283 5.198 o
0 2 21 50.721 51.412 0.972 11.134 o
0 2 22 241.610 240.568 2.897 0.551 o
0 2 23 70.676 70.812 1.183 6.005 o
0 2 24 43.688 43.542 0.792 15.418 o
0 2 25 98.506 97.230 1.564 3.160 o
0 2 26 15.657 15.620 0.541 86.121 o
0 2 27 35.474 35.662 0.742 22.182 o
0 2 29 137.788 140.310 2.176 1.588 o
0 2 30 27.002 28.172 0.682 34.590 o
0 2 31 25.098 26.057 0.862 33.130 o
0 2 32 1.752 2.466 0.541 215.819 o
0 2 33 0.148 0.602 0.491 268.579 o
0 2 34 17.605 18.177 0.832 50.370 o
0 2 35 0.709 0.732 0.461 303.588 o
0 2 36 2.012 1.865 0.451 307.720 o
0 2 37 1.219 1.333 0.421 359.792 o
0 3 1 1402.060 1592.990 15.780 0.015 o
0 3 2 734.157 810.833 8.532 0.056 o
0 3 3 4072.920 4332.180 38.569 0.002 o
0 3 4 510.648 556.078 5.945 0.117 o
0 3 5 1040.130 1163.140 12.442 0.028 o
0 3 6 222.824 220.968 2.737 0.647 o
0 3 7 1.153 1.484 0.211 1370.570 o
0 3 8 122.359 124.269 1.614 2.090 o
0 3 9 700.220 760.985 8.582 0.062 o
0 3 10 328.359 322.238 3.960 0.301 o
0 3 11 13.629 14.176 0.311 142.505 o
0 3 12 7.430 7.229 0.261 381.905 o
0 3 13 378.410 386.643 4.101 0.224 o
0 3 14 1.549 2.346 0.281 763.160 o
0 3 15 2130.720 2226.920 34.619 0.006 o
0 3 16 811.854 843.406 10.808 0.047 o
0 3 17 47.849 43.061 0.752 14.142 o
0 3 18 57.186 56.375 0.962 9.246 o
0 3 19 179.642 184.544 2.627 0.945 o
0 3 20 7.394 8.181 0.451 206.753 o
0 3 21 43.873 42.299 0.782 15.654 o
0 3 22 22.279 21.285 0.551 53.629 o
0 3 23 0.071 0.130 0.341 558.151 o
0 3 24 22.075 23.891 0.852 38.310 o
0 3 25 197.981 205.799 2.707 0.782 o
0 3 26 52.468 54.400 1.063 10.085 o
0 3 27 23.476 22.829 0.622 46.220 o
0 3 28 21.526 21.976 0.602 52.097 o
0 3 29 97.431 97.591 1.644 3.154 o
0 3 30 59.220 57.899 1.043 8.555 o
0 3 31 9.625 12.522 0.682 96.005 o
0 3 32 55.985 57.598 1.303 8.419 o
0 3 33 35.213 35.140 0.942 20.171 o
0 3 34 3.624 3.860 0.521 217.983 o
0 3 35 2.391 2.266 0.481 268.073 o
0 3 36 0.142 0.622 0.431 348.682 o
0 3 37 13.002 13.946 0.712 77.216 o
0 4 0 227.579 269.272 4.151 0.511 o
0 4 1 627.455 732.762 7.780 0.073 o
0 4 2 1751.650 1938.860 19.580 0.010 o
0 4 3 57.182 52.916 0.762 10.095 o
0 4 4 491.939 535.004 5.524 0.127 o
0 4 5 1723.130 1904.130 20.834 0.010 o
0 4 6 1508.460 1653.650 19.330 0.013 o
0 4 7 377.586 429.132 4.321 0.208 o
0 4 8 48.255 49.377 0.742 12.985 o
0 4 9 207.879 204.034 2.797 0.737 o
0 4 10 36.670 38.940 0.521 22.330 o
0 4 11 975.366 994.945 10.637 0.034 o
0 4 12 113.353 108.469 1.353 2.564 o
0 4 13 726.301 731.158 8.412 0.061 o
0 4 14 388.528 415.577 4.201 0.206 o
0 4 15 80.195 83.354 1.003 4.836 o
0 4 16 391.249 413.552 4.572 0.203 o
0 4 17 39.170 39.943 0.692 19.074 o
0 4 18 0.761 0.842 0.291 756.864 o
0 4 19 79.775 83.033 1.363 4.584 o
0 4 20 31.657 31.471 0.682 27.706 o
0 4 21 145.642 144.652 1.955 1.491 o
0 4 22 0.814 0.802 0.451 316.751 o
0 4 23 161.896 160.472 2.045 1.220 o
0 4 24 4.835 5.314 0.421 289.310 o
0 4 25 61.482 61.277 1.003 8.013 o
0 4 26 5.704 5.253 0.431 266.012 o
0 4 27 23.132 24.222 0.632 45.151 o
0 4 28 0.546 0.642 0.361 495.537 o
0 4 29 26.659 26.107 0.702 35.835 o
0 4 30 8.894 9.133 0.642 115.191 o
0 4 31 0.828 1.103 0.531 228.442 o
0 4 32 37.984 37.947 0.993 17.552 o
0 4 33 6.840 7.349 0.581 150.670 o
0 4 34 5.410 5.564 0.531 191.672 o
0 4 35 26.111 26.237 0.872 31.695 o
0 4 36 0.716 0.762 0.481 278.871 o
0 4 37 0.497 0.692 0.571 198.257 o
0 5 1 298.899 329.657 3.399 0.339 o
0 5 2 127.033 154.657 1.724 1.713 o
0 5 3 1253.830 1421.400 16.312 0.019 o
0 5 4 2568.270 2876.240 38.198 0.004 o
0 5 5 3.143 2.777 0.231 922.286 o
0 5 6 327.170 376.557 4.010 0.272 o
0 5 7 32.274 31.040 0.561 29.171 o
0 5 8 0.347 0.221 0.190 1778.990 o
0 5 9 726.686 761.015 7.920 0.060 o
0 5 10 17.045 19.059 0.371 89.148 o
0 5 11 41.273 38.880 0.561 19.108 o
0 5 12 370.610 376.888 3.750 0.236 o
0 5 13 83.451 82.532 0.962 4.659 o
0 5 14 637.594 670.813 7.389 0.077 o
0 5 15 19.115 18.638 0.421 76.064 o
0 5 16 58.282 57.778 0.802 9.277 o
0 5 17 8.881 8.752 0.381 222.148 o
0 5 18 6.390 6.366 0.361 313.606 o
0 5 19 224.406 237.149 3.128 0.600 o
0 5 20 33.013 31.220 0.862 23.860 o
0 5 21 153.103 154.948 2.156 1.322 o
0 5 22 13.977 13.806 0.521 101.983 o
0 5 23 6.003 5.725 0.471 225.456 o
0 5 24 2.799 2.697 0.441 310.403 o
0 5 25 92.224 94.052 2.125 3.131 o
0 5 26 19.041 20.523 0.722 52.377 o
0 5 27 59.651 57.658 1.343 7.773 o
0 5 28 8.066 7.509 0.511 171.517 o
0 5 29 2.042 2.065 0.421 350.222 o
0 5 30 8.213 8.622 0.712 101.707 o
0 5 31 49.993 52.665 1.524 9.022 o
0 5 32 30.913 31.741 1.023 22.567 o
0 5 33 11.426 11.700 0.802 72.664 o
0 5 34 0.006 0.020 0.501 258.123 o
0 5 35 4.274 4.963 0.561 183.571 o
0 5 36 0.631 0.942 0.612 172.954 o
0 6 0 435.847 482.259 6.818 0.151 o
0 6 1 381.183 441.875 4.963 0.198 o
0 6 2 144.107 146.416 1.785 1.521 o
0 6 3 0.425 0.672 0.180 1962.520 o
0 6 4 37.856 40.895 0.602 20.259 o
0 6 5 411.436 423.498 4.151 0.190 o
0 6 6 32.826 34.549 0.592 26.509 o
0 6 7 483.897 509.268 5.484 0.134 o
0 6 8 13.499 15.660 0.371 125.298 o
0 6 9 53.796 50.179 0.692 11.425 o
0 6 10 400.189 399.506 4.281 0.203 o
0 6 11 256.933 264.509 2.867 0.481 o
0 6 12 671.109 681.520 7.850 0.071 o
0 6 13 974.929 1003.700 12.241 0.033 o
0 6 14 952.559 980.478 12.281 0.034 o
0 6 15 125.363 129.573 1.564 1.986 o
0 6 16 33.520 34.970 0.642 25.092 o
0 6 17 419.718 435.298 5.113 0.177 o
0 6 18 128.422 132.310 1.855 1.850 o
0 6 19 40.903 40.153 0.742 17.737 o
0 6 20 10.662 10.457 0.471 149.805 o
0 6 21 17.612 17.004 0.602 69.630 o
0 6 22 9.269 9.404 0.521 149.160 o
0 6 23 5.941 5.464 0.471 227.687 o
0 6 24 130.987 133.633 2.757 1.610 o
0 6 25 8.190 8.021 0.521 163.738 o
0 6 26 15.951 16.121 0.612 75.803 o
0 6 27 27.945 28.854 1.023 25.480 o
0 6 28 14.439 14.026 0.592 88.327 o
0 6 29 9.854 10.848 0.752 85.302 o
0 6 30 100.660 107.386 2.627 2.420 o
0 6 31 87.618 91.214 2.316 3.212 o
0 6 32 2.370 2.827 0.581 185.274 o
0 6 33 0.236 0.221 0.521 238.561 o
0 6 34 24.705 26.217 0.892 32.582 o
0 6 35 21.033 21.876 0.983 35.653 o
0 6 36 7.995 7.830 0.702 106.154 o
0 7 1 2.767 2.787 0.221 1027.740 o
0 7 2 1517.020 1681.780 19.751 0.013 o
0 7 3 1095.450 1149.780 12.983 0.026 o
0 7 4 466.568 519.996 5.835 0.137 o
0 7 5 138.086 139.348 1.584 1.682 o
0 7 6 20.981 18.397 0.421 69.133 o
0 7 7 7.681 8.492 0.331 284.114 o
0 7 8 341.785 346.600 3.800 0.275 o
0 7 9 231.549 244.177 2.767 0.578 o
0 7 10 83.817 79.023 1.103 4.659 o
0 7 11 2.859 3.208 0.301 605.605 o
0 7 12 129.047 131.418 1.664 1.882 o
0 7 13 105.396 96.518 1.434 2.978 o
0 7 14 51.068 50.410 0.812 11.752 o
0 7 15 0.966 0.662 0.291 754.774 o
0 7 16 4.668 4.772 0.341 411.118 o
0 7 17 36.552 36.574 0.702 21.586 o
0 7 18 49.601 47.281 0.782 12.736 o
0 7 19 36.880 38.248 0.752 20.361 o
0 7 20 401.786 428.771 6.005 0.184 o
0 7 21 211.330 224.767 3.609 0.645 o
0 7 22 1.627 1.875 0.441 324.171 o
0 7 23 85.217 90.472 1.724 3.773 o
0 7 24 1.778 1.353 0.421 355.722 o
0 7 25 17.658 17.675 0.642 64.980 o
0 7 26 45.498 46.189 1.173 12.223 o
0 7 27 39.770 40.133 1.273 14.063 o
0 7 28 16.037 14.718 0.602 79.184 o
0 7 29 4.128 3.800 0.652 142.547 o
0 7 30 6.339 7.529 0.922 69.295 o
0 7 31 24.108 24.503 0.942 32.553 o
0 7 32 11.360 11.540 0.712 86.275 o
0 7 33 0.871 1.133 0.521 237.143 o
0 7 34 9.083 9.545 0.632 115.968 o
0 7 35 9.925 10.888 0.772 81.765 o
0 8 0 127.381 132.851 1.995 1.834 o
0 8 1 142.778 144.611 1.765 1.553 o
0 8 2 45.574 46.971 0.732 14.351 o
0 8 3 972.062 1015.510 11.630 0.033 o
0 8 4 15.115 15.710 0.361 113.582 o
0 8 5 30.562 28.172 0.511 33.663 o
0 8 6 429.291 446.557 4.562 0.172 o
0 8 7 171.541 161.856 1.855 1.144 o
0 8 8 53.602 51.472 0.932 10.585 o
0 8 9 3.523 3.940 0.311 532.527 o
0 8 10 184.551 181.927 2.236 0.948 o
0 8 11 48.733 43.041 0.772 13.744 o
0 8 12 726.915 716.631 9.294 0.061 o
0 8 13 1.923 2.115 0.301 662.656 o
0 8 14 74.716 69.007 1.093 5.812 o
0 8 15 0.105 0.100 0.281 822.886 o
0 8 16 110.834 110.714 2.166 2.336 o
0 8 17 3.955 3.399 0.321 500.346 o
0 8 18 30.303 29.736 0.592 31.571 o
0 8 19 0.001 -0.411 0.862 87.251 o
0 8 20 3.536 3.619 0.431 309.282 o
0 8 21 18.610 17.926 0.612 64.275 o
0 8 22 43.291 40.805 1.303 12.749 o
0 8 23 10.011 8.893 0.612 118.228 o
0 8 24 54.533 53.347 2.025 6.749 o
0 8 25 2.076 1.875 0.471 282.475 o
0 8 26 22.892 22.779 0.822 39.130 o
0 8 27 0.444 0.742 0.471 291.399 o
0 8 28 44.730 46.199 3.008 5.032 o
0 8 29 0.437 0.391 0.592 185.203 o
0 8 30 31.724 29.987 2.607 7.526 o
0 8 31 0.233 0.431 0.531 229.592 o
0 8 32 0.953 0.622 0.581 191.073 o
0 8 33 6.775 6.948 0.672 120.349 o
0 8 34 24.630 24.974 1.323 22.349 o
0 8 35 0.934 1.444 0.682 138.872 o
0 9 1 526.129 562.164 6.346 0.111 o
0 9 2 1997.720 2165.730 34.669 0.007 o
0 9 3 3.895 5.394 0.331 444.993 o
0 9 4 679.745 712.901 8.161 0.067 o
0 9 5 0.250 0.912 0.271 880.189 o
0 9 6 0.825 1.043 0.271 867.280 o
0 9 7 128.585 117.452 1.684 2.018 o
0 9 8 264.071 263.487 3.268 0.458 o
0 9 9 141.799 133.232 1.755 1.648 o
0 9 10 9.668 9.284 0.401 195.437 o
0 9 11 4.552 5.113 0.351 392.286 o
0 9 12 71.638 64.606 1.043 6.414 o
0 9 13 3.787 4.301 0.351 425.097 o
0 9 14 349.409 338.660 4.221 0.267 o
0 9 15 52.069 50.891 0.872 11.221 o
0 9 16 210.143 206.701 2.847 0.719 o
0 9 17 104.225 107.717 1.394 2.842 o
0 9 18 111.285 112.238 1.474 2.535 o
0 9 19 6.432 6.577 0.381 289.454 o
0 9 20 172.734 182.368 2.356 1.018 o
0 9 21 1.590 1.363 0.431 341.088 o
0 9 22 28.586 28.062 0.792 30.245 o
0 9 23 5.072 4.762 0.541 191.048 o
0 9 24 8.471 8.402 0.612 127.644 o
0 9 25 6.753 6.858 0.592 148.598 o
0 9 26 22.568 21.836 0.802 41.050 o
0 9 27 49.146 49.798 2.968 4.845 o
0 9 28 2.284 2.176 0.682 136.761 o
0 9 29 0.066 -0.371 0.852 89.316 o
0 9 30 0.013 -0.201 0.832 93.672 o
0 9 31 0.794 0.371 0.571 198.131 o
0 9 32 15.538 15.490 1.153 36.395 o
0 9 33 0.206 -0.060 0.672 143.742 o
0 9 34 1.387 1.273 0.672 142.672 o
0 10 0 0.381 1.123 0.341 554.683 o
0 10 1 30.830 30.528 0.561 31.032 o
0 10 2 0.034 0.341 0.241 1119.650 o
0 10 3 56.097 53.898 0.822 10.076 o
0 10 4 227.561 219.454 2.637 0.636 o
0 10 5 82.430 87.826 1.253 4.351 o
0 10 6 568.024 569.453 7.539 0.098 o
0 10 7 7.086 8.201 0.411 237.146 o
0 10 8 235.826 231.164 2.877 0.582 o
0 10 9 65.187 63.974 1.063 7.193 o
0 10 10 66.049 65.258 1.063 7.002 o
0 10 11 43.679 39.632 0.782 16.299 o
0 10 12 341.281 334.359 4.050 0.279 o
0 10 13 30.390 28.082 0.622 31.864 o
0 10 14 3.050 2.998 0.311 569.579 o
0 10 15 14.439 14.126 0.431 113.375 o
0 10 16 0.027 -0.030 0.842 91.455 o
0 10 17 124.062 121.703 1.624 2.079 o
0 10 18 206.127 208.315 2.938 0.728 o
0 10 19 24.620 23.921 0.571 44.904 o
0 10 20 101.496 102.453 1.554 2.962 o
0 10 21 43.607 44.113 0.792 15.336 o
0 10 22 32.769 33.205 0.802 24.206 o
0 10 23 73.005 73.960 1.694 4.998 o
0 10 24 35.736 35.842 1.313 15.704 o
0 10 25 3.368 3.329 0.521 221.416 o
0 10 26 9.516 9.013 0.832 75.711 o
0 10 27 16.898 16.492 0.962 44.594 o
0 10 28 111.698 113.602 8.963 0.623 o
0 10 29 7.220 6.968 0.732 102.734 o
0 10 30 27.471 26.959 1.213 22.580 o
0 10 31 0.494 -0.070 0.772 108.802 o
0 10 32 1.765 1.313 0.692 134.167 o
0 10 33 5.689 5.003 0.762 101.888 o
0 11 1 41.026 41.256 0.742 17.408 o
0 11 2 57.586 56.886 0.993 9.049 o
0 11 3 70.003 69.298 1.063 6.310 o
0 11 4 82.924 80.276 1.163 4.632 o
0 11 5 37.895 37.607 0.732 20.136 o
0 11 6 3.069 3.529 0.351 454.702 o
0 11 7 321.465 328.494 5.213 0.289 o
0 11 8 148.051 153.224 2.196 1.380 o
0 11 9 141.670 134.766 1.755 1.638 o
0 11 10 37.779 37.647 0.662 20.827 o
0 11 11 0.179 0.491 0.291 765.943 o
0 11 12 6.772 7.489 0.371 282.007 o
0 11 13 155.048 151.840 1.985 1.337 o
0 11 14 27.877 26.488 0.592 36.801 o
0 11 15 32.775 31.511 0.642 27.261 o
0 11 16 30.823 29.576 0.622 30.533 o
0 11 17 8.010 8.311 0.421 215.531 o
0 11 18 382.935 393.631 5.093 0.211 o
0 11 19 3.425 3.720 0.371 403.035 o
0 11 20 23.912 23.410 0.571 46.787 o
0 11 21 18.349 17.585 0.521 73.110 o
0 11 22 20.283 20.302 0.571 58.946 o
0 11 23 7.756 7.219 0.501 180.576 o
0 11 24 0.885 1.624 0.511 245.838 o
0 11 25 33.267 34.499 3.278 5.036 o
0 11 26 15.237 14.748 1.845 16.935 o
0 11 27 25.764 26.067 1.444 19.410 o
0 11 28 13.616 13.154 0.852 60.797 o
0 11 29 37.532 39.191 2.547 7.042 o
0 11 30 8.308 8.432 0.722 99.469 o
0 11 31 10.906 10.336 0.952 57.758 o
0 11 32 3.164 3.649 0.732 116.568 o
0 12 0 0.804 1.755 0.541 219.529 o
0 12 1 740.152 784.054 11.169 0.054 o
0 12 2 49.189 50.129 0.983 11.642 o
0 12 3 18.918 17.555 0.491 73.530 o
0 12 4 28.928 27.992 0.551 35.189 o
0 12 5 117.935 112.740 1.454 2.359 o
0 12 6 6.072 6.717 0.371 306.092 o
0 12 7 174.544 172.443 2.206 1.052 o
0 12 8 7.931 8.291 0.401 229.465 o
0 12 9 7.142 7.349 0.381 267.046 o
0 12 10 14.463 14.257 0.431 112.748 o
0 12 11 102.327 98.042 1.404 3.073 o
0 12 12 5.399 5.253 0.371 338.854 o
0 12 13 10.797 10.397 0.421 165.870 o
0 12 14 2.276 2.095 0.331 546.481 o
0 12 15 0.058 0.100 0.311 671.428 o
0 12 16 25.953 25.325 0.602 40.347 o
0 12 17 451.057 455.390 6.437 0.152 o
0 12 18 38.268 37.937 0.742 19.731 o
0 12 19 79.313 76.607 1.303 4.893 o
0 12 20 28.862 28.804 0.672 32.191 o
0 12 21 0.876 0.822 0.311 662.013 o
0 12 22 0.080 0.281 0.311 671.213 o
0 12 23 49.041 50.289 1.083 11.241 o
0 12 24 3.599 3.940 0.602 167.275 o
0 12 25 10.610 10.547 0.702 92.227 o
0 12 26 1.853 1.263 0.622 165.664 o
0 12 27 0.121 -0.020 0.802 100.827 o
0 12 28 58.517 60.415 6.868 1.207 o
0 12 29 31.117 29.616 1.474 16.488 o
0 12 30 4.247 4.361 0.782 100.399 o
0 12 31 15.503 13.856 1.003 45.502 o
0 13 1 0.258 0.972 0.281 818.288 o
0 13 2 1.037 1.374 0.301 697.865 o
0 13 3 156.056 159.500 2.216 1.263 o
0 13 4 63.085 60.656 1.023 7.781 o
0 13 5 48.061 46.159 0.852 13.092 o
0 13 6 38.522 38.088 0.782 19.191 o
0 13 7 415.661 424.691 5.945 0.178 o
0 13 8 1.401 2.346 0.351 504.120 o
0 13 9 411.623 412.630 5.514 0.186 o
0 13 10 2.525 2.857 0.331 529.403 o
0 13 11 259.471 261.361 3.409 0.467 o
0 13 12 84.305 80.537 1.253 4.463 o
0 13 13 113.887 109.732 1.574 2.469 o
0 13 14 4.416 3.860 0.381 362.803 o
0 13 15 74.292 70.461 1.153 5.715 o
0 13 16 7.511 6.918 0.411 240.673 o
0 13 17 5.951 5.414 0.381 312.188 o
0 13 18 4.488 4.522 0.381 354.071 o
0 13 19 31.454 30.538 0.662 28.680 o
0 13 20 2.099 2.216 0.351 492.428 o
0 13 21 67.949 68.045 1.494 5.941 o
0 13 22 0.939 0.983 0.461 302.534 o
0 13 23 0.033 -0.060 0.862 87.251 o
0 13 24 1.574 1.474 0.441 325.852 o
0 13 25 1.808 1.805 0.561 201.846 o
0 13 26 6.263 6.386 0.722 108.872 o
0 13 27 3.727 3.379 0.632 153.178 o
0 13 28 0.054 -0.291 0.682 139.555 o
0 13 29 6.014 6.216 0.852 81.514 o
0 13 30 0.795 0.000 0.632 162.372 o
0 14 0 96.027 95.646 2.506 2.752 o
0 14 1 46.238 45.096 0.792 14.162 o
0 14 2 90.968 92.117 1.374 3.691 o
0 14 3 48.355 50.369 0.922 12.081 o
0 14 4 6.807 6.577 0.401 263.701 o
0 14 5 95.828 95.957 1.654 3.241 o
0 14 6 18.833 18.698 0.531 68.577 o
0 14 7 106.432 108.208 1.634 2.680 o
0 14 8 4.667 5.003 0.381 344.879 o
0 14 9 5.392 5.504 0.401 299.976 o
0 14 10 101.399 100.739 1.704 2.929 o
0 14 11 1.114 1.374 0.331 578.253 o
0 14 12 2.622 2.697 0.351 475.874 o
0 14 13 43.964 42.569 0.872 15.023 o
0 14 14 96.061 92.929 1.414 3.419 o
0 14 15 5.488 5.414 0.381 322.302 o
0 14 16 6.549 6.577 0.411 259.641 o
0 14 17 80.071 80.126 1.494 4.540 o
0 14 18 7.026 6.416 0.401 261.201 o
0 14 19 9.945 9.855 0.581 124.042 o
0 14 20 0.040 -0.150 0.882 83.330 o
0 14 21 0.273 0.521 0.451 318.298 o
0 14 22 1.547 1.353 0.451 312.332 o
0 14 23 54.657 56.615 1.474 8.187 o
0 14 24 0.074 0.170 0.411 383.835 o
0 14 25 16.988 16.763 1.534 22.439 o
0 14 26 0.938 0.752 0.491 267.170 o
0 14 27 2.200 2.376 0.762 109.907 o
0 14 28 8.313 8.271 0.892 70.074 o
0 14 29 4.735 4.712 0.762 104.184 o
0 15 1 25.640 23.320 0.622 41.883 o
0 15 2 32.744 31.461 0.672 26.867 o
0 15 3 11.021 11.129 0.461 146.588 o
0 15 4 32.817 31.822 0.692 26.343 o
0 15 5 2.643 2.537 0.351 477.250 o
0 15 6 6.983 7.219 0.401 254.817 o
0 15 7 30.770 30.177 0.712 28.654 o
0 15 8 83.319 83.785 1.434 4.281 o
0 15 9 25.229 25.475 0.642 40.140 o
0 15 10 67.580 65.037 1.594 5.944 o
0 15 11 5.232 5.253 0.391 317.202 o
0 15 12 44.636 43.993 0.862 14.568 o
0 15 13 42.139 41.707 0.802 16.386 o
0 15 14 151.307 150.968 2.366 1.336 o
0 15 15 40.458 40.945 0.932 16.335 o
0 15 16 82.261 80.176 1.815 4.106 o
0 15 17 6.753 6.427 0.551 167.592 o
0 15 18 6.379 6.777 0.541 173.986 o
0 15 19 6.296 6.727 0.541 174.805 o
0 15 20 22.594 23.380 0.762 41.512 o
0 15 21 2.004 2.176 0.461 293.931 o
0 15 22 16.144 16.953 0.662 68.693 o
0 15 23 25.407 26.267 0.762 35.610 o
0 15 24 1.003 1.243 0.411 378.939 o
0 15 25 0.485 0.581 0.391 422.876 o
0 15 26 6.616 5.584 0.652 130.085 o
0 15 27 0.076 -0.060 0.632 162.585 o
0 16 0 77.037 69.007 2.988 3.357 o
0 16 1 16.709 15.109 0.612 74.915 o
0 16 2 13.925 12.652 0.581 95.283 o
0 16 3 77.196 76.456 1.303 5.056 o
0 16 4 331.609 343.171 5.554 0.268 o
0 16 5 16.315 17.274 0.702 64.052 o
0 16 6 243.101 255.416 4.291 0.487 o
0 16 7 34.593 35.652 1.023 19.413 o
0 16 8 31.571 31.491 1.013 22.399 o
0 16 9 10.849 10.908 0.481 142.989 o
0 16 10 12.429 11.961 0.501 121.371 o
0 16 11 2.786 2.236 0.341 503.095 o
0 16 12 8.340 7.800 0.421 214.448 o
0 16 13 0.681 0.441 0.481 279.262 o
0 16 14 14.994 16.111 0.842 56.252 o
0 16 15 18.703 19.400 1.163 32.007 o
0 16 16 17.824 18.818 0.722 56.865 o
0 16 17 14.439 15.630 0.662 76.168 o
0 16 18 46.854 48.615 1.093 11.957 o
0 16 19 9.499 10.377 0.581 125.134 o
0 16 20 0.626 0.692 0.431 347.529 o
0 16 21 7.777 8.331 0.531 161.553 o
0 16 22 17.406 18.738 0.732 57.170 o
0 16 23 24.135 24.463 0.732 39.538 o
0 16 24 18.734 20.052 0.712 54.157 o
0 16 25 11.190 11.680 0.592 109.535 o
0 16 26 2.169 1.654 0.662 145.647 o
0 17 1 36.742 34.418 1.043 18.433 o
0 17 2 0.504 0.902 0.431 347.578 o
0 17 3 2.230 2.847 0.451 302.119 o
0 17 4 0.034 0.411 0.371 471.208 o
0 17 5 51.897 52.745 0.962 10.731 o
0 17 6 12.009 12.161 0.541 114.503 o
0 17 7 34.862 32.864 0.952 20.889 o
0 17 8 60.772 57.578 1.273 7.794 o
0 17 9 17.005 16.071 1.424 25.430 o
0 17 10 29.796 30.909 1.253 19.768 o
0 17 11 1.131 1.514 0.471 288.259 o
0 17 12 0.287 -0.010 0.912 77.920 o
0 17 13 23.844 24.312 0.892 34.522 o
0 17 14 12.737 13.765 0.722 76.975 o
0 17 15 0.323 0.882 0.451 317.909 o
0 17 16 0.564 0.842 0.441 331.938 o
0 17 17 5.475 5.915 0.511 202.166 o
0 17 18 1.129 1.273 0.431 344.179 o
0 17 19 0.093 0.201 0.411 383.812 o
0 17 20 17.767 18.658 0.762 54.327 o
0 17 21 2.991 3.138 0.431 319.173 o
0 17 22 5.598 5.855 0.451 245.451 o
0 17 23 0.298 -0.120 0.682 139.534 o
0 17 24 0.134 0.221 0.491 268.711 o
0 18 0 63.885 65.398 2.577 4.494 o
0 18 1 6.771 7.038 0.802 88.641 o
0 18 2 41.324 42.329 1.734 10.344 o
0 18 3 67.616 69.980 1.975 5.109 o
0 18 4 39.077 39.742 1.654 11.502 o
0 18 5 78.990 81.720 2.125 3.927 o
0 18 6 20.494 21.676 1.444 22.333 o
0 18 7 37.115 35.792 1.273 15.632 o
0 18 8 0.136 0.602 0.451 318.421 o
0 18 9 9.841 10.096 0.742 88.175 o
0 18 10 4.830 4.672 0.511 213.125 o
0 18 11 10.345 9.925 0.722 90.485 o
0 18 12 13.713 14.046 0.722 73.684 o
0 18 13 10.596 10.036 0.702 93.168 o
0 18 14 0.166 0.080 0.411 383.803 o
0 18 15 3.752 3.619 0.461 271.929 o
0 18 16 61.459 64.756 2.216 5.288 o
0 18 17 9.178 10.206 0.602 121.870 o
0 18 18 18.712 20.683 0.932 41.195 o
0 18 19 5.084 5.274 0.461 247.109 o
0 18 20 2.277 2.306 0.401 380.093 o
0 18 21 3.430 3.319 0.451 288.054 o
0 19 1 4.982 4.702 0.692 123.908 o
0 19 2 14.044 14.858 0.902 54.081 o
0 19 3 26.243 27.190 1.253 22.394 o
0 19 4 12.109 11.690 0.922 57.910 o
0 19 5 5.314 5.434 0.682 125.059 o
0 19 6 0.085 0.000 0.411 383.870 o
0 19 7 0.008 0.040 0.421 365.819 o
0 19 8 35.017 36.053 1.484 14.249 o
0 19 9 17.983 18.658 1.253 29.568 o
0 19 10 17.451 18.046 1.083 36.897 o
0 19 11 21.911 22.788 1.183 27.883 o
0 19 12 0.493 0.411 0.411 382.959 o
0 19 13 0.018 -0.080 0.782 106.066 o
0 19 14 1.552 1.624 0.401 391.934 o
0 19 15 0.265 0.491 0.391 423.662 o
0 19 16 4.446 4.512 0.441 279.441 o
0 19 17 3.074 3.128 0.411 346.979 o
0 19 18 13.266 14.698 0.812 63.935 o
0 19 19 48.901 51.633 1.925 7.750 o
0 20 0 5.288 5.695 0.932 70.149 o
0 20 1 4.219 5.043 0.652 140.205 o
0 20 2 0.259 0.501 0.561 205.633 o
0 20 3 0.623 0.822 0.581 191.322 o
0 20 4 5.415 5.274 0.561 175.599 o
0 20 5 25.793 27.551 1.323 21.201 o
0 20 6 6.534 6.376 0.762 98.347 o
0 20 7 15.837 16.723 1.213 33.079 o
0 20 8 6.531 6.507 0.592 150.888 o
0 20 9 6.410 6.767 0.541 173.787 o
0 20 10 8.591 8.472 0.622 123.825 o
0 20 11 19.976 20.041 1.123 32.229 o
0 20 12 6.576 6.687 0.451 226.989 o
0 20 13 4.387 4.441 0.411 315.726 o
0 20 14 0.707 0.712 0.351 522.777 o
0 20 15 6.836 7.048 0.441 228.186 o
0 21 1 27.266 28.002 1.023 26.277 o
0 21 2 6.149 6.336 0.642 133.952 o
0 21 3 35.286 37.185 1.163 17.170 o
0 21 4 0.538 0.331 0.521 238.287 o
0 21 5 3.902 3.920 0.501 231.658 o
0 21 6 0.004 0.241 0.451 318.650 o
0 21 7 0.863 0.792 0.451 316.612 o
0 21 8 22.316 22.267 1.143 28.943 o
0 21 9 1.224 1.363 0.361 486.594 o
0 21 10 14.689 14.738 0.672 75.627 o
0 21 11 1.425 1.394 0.722 123.588 o
1 0 1 99.867 101.561 1.905 2.872 o
1 0 2 30.634 41.827 0.712 23.789 o
1 0 3 1356.340 1475.250 17.084 0.016 o
1 0 4 5048.130 5001.710 63.804 0.001 o
1 0 5 22.861 19.480 0.341 64.599 o
1 0 6 17.721 17.675 0.351 91.049 o
1 0 7 1125.480 1193.770 13.976 0.024 o
1 0 8 1117.280 1201.480 13.475 0.025 o
1 0 9 1.069 1.414 0.190 1666.500 o
1 0 10 4.647 3.840 0.201 850.888 o
1 0 11 1003.270 1020.850 10.717 0.032 o
1 0 12 92.724 98.694 1.143 3.570 o
1 0 13 486.485 482.188 4.943 0.139 o
1 0 14 63.440 65.468 0.842 7.688 o
1 0 15 90.613 93.149 1.243 3.756 o
1 0 16 5.708 4.963 0.301 442.784 o
1 0 17 102.637 106.103 1.654 2.822 o
1 0 18 68.534 60.816 1.283 6.602 o
1 0 19 86.713 81.259 1.504 4.103 o
1 0 20 12.065 10.958 0.471 135.360 o
1 0 21 78.251 77.198 1.113 5.129 o
1 0 22 70.459 67.864 1.374 5.902 o
1 0 23 144.815 141.513 2.877 1.377 o
1 0 24 0.857 2.757 0.561 203.084 o
1 0 25 49.798 46.790 1.063 11.572 o
1 0 26 15.322 14.948 0.551 87.867 o
1 0 27 44.734 43.432 1.223 12.510 o
1 0 28 0.015 1.414 0.561 205.491 o
1 0 29 61.071 56.896 1.293 7.752 o
1 0 30 1.344 1.534 0.461 299.721 o
1 0 31 0.025 0.411 0.622 167.855 o
1 0 32 0.003 0.321 0.602 179.241 o
1 0 33 12.185 12.983 0.772 73.096 o
1 0 34 6.283 6.527 0.672 123.000 o
1 0 35 25.985 25.706 0.912 30.998 o
1 0 36 0.693 0.732 0.521 237.830 o
1 0 37 0.484 0.571 0.491 268.216 o
1 1 0 40.437 45.607 0.551 17.794 o
1 1 1 2909.560 3219.070 41.045 0.003 o
1 1 2 6782.340 6217.160 100.217 0.001 o
1 1 3 7951.170 6600.910 92.548 0.001 o
1 1 4 1624.950 1799.590 43.081 0.009 o
1 1 5 321.482 362.561 3.539 0.290 o
1 1 6 447.038 442.647 5.905 0.159 o
1 1 7 1118.680 1079.400 12.292 0.026 o
1 1 8 594.822 574.776 7.038 0.093 o
1 1 9 686.081 689.240 9.194 0.067 o
1 1 10 220.198 219.664 2.817 0.656 o
1 1 11 21.431 22.668 0.421 60.385 o
1 1 12 83.620 80.467 1.123 4.608 o
1 1 13 398.568 411.677 4.421 0.200 o
1 1 14 258.456 258.885 2.737 0.487 o
1 1 15 478.705 474.799 5.554 0.141 o
1 1 16 73.201 69.539 1.083 5.945 o
1 1 17 12.588 11.229 0.371 156.517 o
1 1 18 40.579 36.865 0.942 17.081 o
1 1 19 265.235 257.241 4.401 0.435 o
1 1 20 59.075 54.650 1.474 7.714 o
1 1 21 115.271 113.722 1.564 2.385 o
1 1 22 100.104 93.811 1.484 3.202 o
1 1 23 2.789 2.988 0.401 368.226 o
1 1 24 10.532 11.329 0.501 137.879 o
1 1 25 109.199 110.744 1.795 2.510 o
1 1 26 86.009 84.086 1.394 4.147 o
1 1 27 20.910 20.894 0.682 50.430 o
1 1 28 55.675 51.081 1.193 9.355 o
1 1 29 6.309 6.056 0.501 200.123 o
1 1 30 13.045 12.422 0.592 98.328 o
1 1 31 40.741 40.524 1.614 11.351 o
1 1 32 2.956 2.426 0.632 156.876 o
1 1 33 2.077 1.684 0.602 175.795 o
1 1 34 5.606 5.915 0.762 101.059 o
1 1 35 1.978 2.306 0.561 200.564 o
1 1 36 0.286 0.331 0.511 247.939 o
1 1 37 5.189 5.284 0.561 177.006 o
1 2 0 2344.830 2618.360 27.170 0.005 o
1 2 1 1181.150 1356.300 15.761 0.021 o
1 2 2 138.897 154.607 1.704 1.546 o
1 2 3 76.780 88.608 1.133 4.793 o
1 2 4 404.629 470.559 5.454 0.174 o
1 2 5 712.672 798.551 12.883 0.054 o
1 2 6 212.739 244.057 4.441 0.572 o
1 2 7 882.473 926.530 15.059 0.037 o
1 2 8 206.631 229.610 4.351 0.616 o
1 2 9 10.971 10.006 0.351 192.876 o
1 2 10 156.949 157.063 1.865 1.302 o
1 2 11 501.840 502.130 6.477 0.126 o
1 2 12 562.732 582.917 6.116 0.100 o
1 2 13 679.372 669.540 7.289 0.071 o
1 2 14 309.830 304.091 3.329 0.343 o
1 2 15 128.079 132.049 1.684 1.890 o
1 2 16 354.491 356.054 5.103 0.247 o
1 2 17 241.439 237.851 3.148 0.548 o
1 2 18 382.707 367.193 4.883 0.222 o
1 2 19 329.312 314.307 6.046 0.277 o
1 2 20 130.752 120.860 2.386 1.790 o
1 2 21 6.657 7.790 0.431 232.598 o
1 2 22 150.813 149.915 1.975 1.395 o
1 2 23 191.702 190.339 2.657 0.856 o
1 2 24 11.031 12.261 0.521 125.252 o
1 2 25 122.280 115.557 1.885 2.117 o
1 2 26 11.885 12.853 0.592 102.953 o
1 2 27 71.344 65.859 1.394 5.883 o
1 2 28 1.720 3.689 0.672 140.449 o
1 2 29 88.115 84.517 1.925 3.623 o
1 2 30 17.539 17.014 0.692 62.052 o
1 2 31 18.897 18.878 0.892 44.216 o
1 2 32 14.824 14.557 0.852 57.182 o
1 2 33 26.547 26.508 0.972 28.585 o
1 2 34 25.933 26.618 0.962 29.312 o
1 2 35 20.055 20.954 0.842 43.591 o
1 2 36 7.776 8.311 0.632 125.249 o
1 2 37 5.363 5.223 0.561 176.091 o
1 3 0 702.691 789.037 7.339 0.061 o
1 3 1 179.297 198.670 2.496 0.912 o
1 3 2 404.771 458.949 6.005 0.174 o
1 3 3 687.391 794.761 10.357 0.059 o
1 3 4 730.455 876.712 15.289 0.047 o
1 3 5 259.982 284.952 3.268 0.444 o
1 3 6 191.158 185.757 3.549 0.811 o
1 3 7 100.228 108.519 1.584 2.890 o
1 3 8 927.125 1037.740 12.843 0.034 o
1 3 9 717.674 765.255 9.264 0.059 o
1 3 10 120.594 119.337 1.434 2.221 o
1 3 11 4.669 4.923 0.241 646.252 o
1 3 12 580.209 617.005 6.437 0.092 o
1 3 13 328.566 331.421 3.409 0.301 o
1 3 14 294.578 309.756 3.248 0.362 o
1 3 15 96.323 97.691 1.153 3.426 o
1 3 16 17.227 17.284 0.481 82.036 o
1 3 17 58.334 57.548 1.213 8.305 o
1 3 18 23.971 24.122 0.612 44.468 o
1 3 19 311.330 300.271 4.201 0.332 o
1 3 20 109.292 103.175 1.805 2.607 o
1 3 21 0.927 1.414 0.341 547.710 o
1 3 22 54.485 52.314 0.922 10.323 o
1 3 23 33.177 32.303 0.882 23.073 o
1 3 24 70.109 67.223 1.193 6.230 o
1 3 25 5.174 6.246 0.501 210.051 o
1 3 26 152.677 151.639 2.216 1.337 o
1 3 27 6.220 6.517 0.511 192.760 o
1 3 28 24.704 22.628 0.702 41.148 o
1 3 29 33.019 31.250 0.983 22.046 o
1 3 30 48.764 48.835 1.674 8.913 o
1 3 31 0.409 1.253 0.622 167.486 o
1 3 32 20.291 19.520 1.233 28.509 o
1 3 33 11.178 10.998 0.742 82.863 o
1 3 34 12.104 12.382 0.742 78.144 o
1 3 35 3.557 3.419 0.581 179.528 o
1 3 36 4.722 4.612 0.561 181.956 o
1 3 37 0.866 0.802 0.481 278.470 o
1 4 0 3140.610 3469.060 39.221 0.003 o
1 4 1 59.429 64.716 0.892 8.279 o
1 4 2 1382.360 1534.580 18.087 0.015 o
1 4 3 538.339 592.863 6.988 0.103 o
1 4 4 275.167 297.504 3.519 0.399 o
1 4 5 271.955 316.754 3.529 0.388 o
1 4 6 1522.700 1743.980 25.365 0.012 o
1 4 7 265.506 287.549 3.268 0.431 o
1 4 8 234.117 258.053 2.988 0.545 o
1 4 9 441.133 470.589 4.923 0.160 o
1 4 10 413.681 422.716 4.913 0.185 o
1 4 11 389.473 401.371 3.800 0.212 o
1 4 12 1010.170 1073.320 11.660 0.030 o
1 4 13 97.551 97.942 1.093 3.391 o
1 4 14 139.112 140.762 1.704 1.639 o
1 4 15 53.691 53.949 0.993 10.101 o
1 4 16 335.869 353.698 4.612 0.269 o
1 4 17 6.529 6.216 0.411 263.088 o
1 4 18 318.160 313.315 4.321 0.313 o
1 4 19 48.872 48.134 0.942 12.164 o
1 4 20 2.713 2.767 0.371 427.792 o
1 4 21 3.207 2.938 0.391 378.989 o
1 4 22 145.314 143.769 2.025 1.491 o
1 4 23 24.797 23.500 0.712 39.975 o
1 4 24 98.498 93.039 1.765 3.136 o
1 4 25 0.681 0.983 0.461 303.328 o
1 4 26 2.858 2.547 0.461 285.808 o
1 4 27 18.166 17.385 0.642 63.946 o
1 4 28 55.891 53.949 1.333 8.632 o
1 4 29 6.397 6.306 0.511 192.109 o
1 4 30 37.210 37.155 1.734 11.566 o
1 4 31 13.110 13.043 0.782 69.484 o
1 4 32 8.282 8.702 0.702 103.640 o
1 4 33 17.305 17.475 0.822 52.206 o
1 4 34 35.045 36.323 1.073 18.449 o
1 4 35 3.605 4.070 0.571 183.673 o
1 4 36 4.579 4.010 0.551 190.619 o
1 4 37 8.208 8.181 0.702 104.807 o
1 5 0 798.988 961.389 10.306 0.044 o
1 5 1 314.918 348.625 3.790 0.303 o
1 5 2 1066.670 1183.100 13.124 0.026 o
1 5 3 26.028 26.318 0.521 41.721 o
1 5 4 1116.850 1283.530 14.788 0.023 o
1 5 5 111.619 116.620 1.424 2.480 o
1 5 6 5.271 5.745 0.271 504.101 o
1 5 7 52.770 51.923 0.742 11.322 o
1 5 8 918.764 987.456 11.790 0.036 o
1 5 9 37.831 39.371 0.612 20.672 o
1 5 10 843.372 897.365 9.555 0.044 o
1 5 11 152.696 150.186 1.554 1.417 o
1 5 12 402.391 426.455 4.341 0.193 o
1 5 13 74.408 75.474 0.983 5.654 o
1 5 14 754.391 805.168 9.414 0.054 o
1 5 15 210.661 214.190 2.456 0.718 o
1 5 16 497.378 508.897 6.096 0.127 o
1 5 17 57.554 55.623 0.983 9.196 o
1 5 18 147.987 145.083 2.246 1.420 o
1 5 19 8.041 8.301 0.441 203.482 o
1 5 20 222.288 216.225 3.158 0.641 o
1 5 21 27.868 27.340 0.722 33.051 o
1 5 22 55.073 52.114 1.303 9.012 o
1 5 23 8.362 7.680 0.511 168.113 o
1 5 24 31.194 29.827 0.932 24.520 o
1 5 25 29.374 28.303 0.762 29.984 o
1 5 26 52.004 49.708 1.243 10.009 o
1 5 27 22.873 21.074 0.792 41.584 o
1 5 28 33.047 31.310 1.123 20.005 o
1 5 29 14.948 14.136 0.983 47.335 o
1 5 30 3.722 3.870 0.772 104.167 o
1 5 31 9.194 9.605 1.414 30.002 o
1 5 32 26.229 26.237 1.594 16.915 o
1 5 33 5.497 5.394 0.772 99.478 o
1 5 34 19.237 19.149 1.474 22.636 o
1 5 35 17.476 17.204 0.922 45.713 o
1 5 36 5.164 5.514 0.682 125.413 o
1 6 0 482.776 535.044 5.655 0.129 o
1 6 1 337.943 394.744 3.880 0.255 o
1 6 2 55.342 62.450 0.752 9.503 o
1 6 3 100.450 107.727 1.153 3.056 o
1 6 4 186.776 200.174 1.965 0.893 o
1 6 5 400.310 423.137 4.281 0.196 o
1 6 6 782.236 841.351 9.464 0.050 o
1 6 7 81.585 88.106 1.013 4.564 o
1 6 8 51.647 53.778 0.692 11.518 o
1 6 9 164.297 169.054 1.825 1.178 o
1 6 10 256.859 268.680 2.978 0.474 o
1 6 11 417.432 434.907 4.802 0.180 o
1 6 12 102.697 101.571 1.474 2.968 o
1 6 13 45.772 48.795 0.862 13.355 o
1 6 14 20.028 19.991 0.491 65.230 o
1 6 15 84.610 86.201 1.574 4.028 o
1 6 16 18.692 19.019 0.521 69.282 o
1 6 17 203.987 205.648 2.807 0.750 o
1 6 18 178.678 178.458 2.486 0.981 o
1 6 19 15.590 15.209 0.581 82.356 o
1 6 20 77.092 74.782 1.484 4.932 o
1 6 21 41.420 42.459 1.855 9.654 o
1 6 22 71.910 71.604 2.306 4.321 o
1 6 23 38.083 36.734 1.454 13.582 o
1 6 24 118.106 116.078 5.123 1.243 o
1 6 25 1.941 2.416 0.531 223.181 o
1 6 26 0.175 0.281 0.471 292.017 o
1 6 27 20.791 19.931 0.962 37.786 o
1 6 28 89.513 83.274 3.238 2.610 o
1 6 29 1.643 2.396 0.742 116.416 o
1 6 30 36.503 37.556 4.802 2.532 o
1 6 31 17.846 18.257 2.166 12.244 o
1 6 32 18.339 18.026 1.353 26.400 o
1 6 33 3.117 3.268 0.722 120.132 o
1 6 34 26.596 25.937 2.767 7.236 o
1 6 35 12.055 11.129 0.792 73.156 o
1 6 36 3.671 3.669 0.622 157.549 o
1 7 0 22.210 22.187 0.421 58.757 o
1 7 1 346.292 365.890 4.030 0.259 o
1 7 2 137.385 145.865 1.734 1.623 o
1 7 3 337.330 359.975 4.181 0.269 o
1 7 4 28.071 26.628 0.451 39.687 o
1 7 5 449.049 465.516 4.782 0.158 o
1 7 6 171.947 173.265 1.995 1.084 o
1 7 7 63.143 58.550 0.792 8.356 o
1 7 8 92.861 94.312 1.333 3.573 o
1 7 9 549.393 554.103 6.437 0.106 o
1 7 10 129.913 127.497 1.755 1.885 o
1 7 11 151.914 152.030 1.975 1.371 o
1 7 12 62.202 58.641 1.023 8.064 o
1 7 13 212.770 219.784 3.078 0.673 o
1 7 14 71.519 70.692 1.694 5.226 o
1 7 15 472.402 485.667 6.647 0.138 o
1 7 16 203.652 205.157 3.730 0.703 o
1 7 17 43.661 42.880 0.762 15.739 o
1 7 18 159.477 158.497 2.476 1.207 o
1 7 19 81.238 78.832 1.514 4.488 o
1 7 20 27.697 29.185 0.932 27.445 o
1 7 21 112.881 112.619 4.602 1.438 o
1 7 22 9.719 10.136 0.662 104.533 o
1 7 23 5.717 5.925 0.581 161.724 o
1 7 24 59.002 60.636 2.948 4.225 o
1 7 25 62.494 61.287 2.807 4.288 o
1 7 26 5.537 5.113 0.592 160.307 o
1 7 27 66.697 63.804 2.777 4.096 o
1 7 28 49.819 56.605 2.567 5.551 o
1 7 29 8.822 8.211 1.163 43.470 o
1 7 30 3.087 3.188 0.762 108.307 o
1 7 31 24.922 26.488 2.627 7.991 o
1 7 32 13.055 13.394 0.932 54.266 o
1 7 33 22.657 22.528 1.363 22.998 o
1 7 34 2.246 2.466 0.652 149.184 o
1 7 35 0.383 0.311 0.571 198.470 o
1 8 0 0.183 0.762 0.251 1028.140 o
1 8 1 1686.570 1868.030 26.288 0.010 o
1 8 2 9.128 8.452 0.341 244.597 o
1 8 3 104.535 101.581 1.534 2.882 o
1 8 4 182.389 196.896 2.105 0.922 o
1 8 5 1268.040 1325.430 16.703 0.019 o
1 8 6 172.875 178.117 2.095 1.051 o
1 8 7 308.536 313.826 3.489 0.336 o
1 8 8 87.208 88.838 1.213 4.068 o
1 8 9 96.848 90.212 1.213 3.543 o
1 8 10 23.460 22.999 0.521 50.171 o
1 8 11 433.354 431.107 5.474 0.170 o
1 8 12 30.544 28.864 0.672 30.294 o
1 8 13 165.546 164.212 2.396 1.138 o
1 8 14 24.041 22.538 0.612 45.820 o
1 8 15 15.133 13.916 0.592 85.620 o
1 8 16 31.052 29.315 0.642 30.069 o
1 8 17 291.038 298.236 4.461 0.357 o
1 8 18 46.890 45.286 0.932 13.214 o
1 8 19 86.805 85.229 1.825 3.744 o
1 8 20 31.201 30.077 0.832 26.168 o
1 8 21 31.497 30.288 1.263 19.004 o
1 8 22 7.251 6.797 0.792 89.831 o
1 8 23 105.581 101.370 2.607 2.385 o
1 8 24 4.416 4.321 0.672 133.096 o
1 8 25 24.387 22.879 1.484 19.812 o
1 8 26 7.794 6.507 0.682 114.451 o
1 8 27 5.386 5.544 1.033 57.812 o
1 8 28 13.391 14.106 2.025 14.574 o
1 8 29 23.733 24.944 3.308 5.387 o
1 8 30 13.091 13.374 2.617 9.041 o
1 8 31 5.854 5.945 0.892 75.311 o
1 8 32 3.925 3.930 0.722 117.922 o
1 8 33 5.244 5.655 0.712 115.595 o
1 8 34 1.566 1.945 0.602 176.624 o
1 8 35 3.520 3.509 0.732 116.058 o
1 9 0 173.118 192.655 2.567 0.965 o
1 9 1 186.786 187.993 2.567 0.895 o
1 9 2 393.292 411.938 5.594 0.196 o
1 9 3 86.597 89.941 1.554 3.844 o
1 9 4 60.278 62.120 0.952 8.235 o
1 9 5 467.820 471.581 5.173 0.147 o
1 9 6 29.553 29.165 0.602 32.608 o
1 9 7 53.416 55.041 1.113 9.665 o
1 9 8 4.965 4.782 0.331 419.378 o
1 9 9 478.758 490.440 6.637 0.135 o
1 9 10 2.319 1.775 0.291 696.530 o
1 9 11 68.883 66.791 1.374 6.104 o
1 9 12 21.456 20.864 0.592 54.081 o
1 9 13 140.286 137.563 2.226 1.564 o
1 9 14 75.928 73.920 1.203 5.363 o
1 9 15 86.878 83.936 1.163 4.261 o
1 9 16 14.328 13.224 0.461 112.025 o
1 9 17 9.990 9.444 0.421 181.116 o
1 9 18 8.501 7.680 0.461 190.822 o
1 9 19 39.870 37.236 0.912 17.577 o
1 9 20 7.726 7.018 0.511 176.789 o
1 9 21 123.860 114.023 2.496 1.933 o
1 9 22 21.602 20.633 1.093 31.713 o
1 9 23 5.809 6.156 0.762 100.322 o
1 9 24 4.314 3.098 0.922 73.752 o
1 9 25 61.054 56.084 3.298 3.704 o
1 9 26 3.664 3.649 0.993 64.201 o
1 9 27 42.795 38.770 1.895 9.510 o
1 9 28 0.121 0.231 0.842 91.449 o
1 9 29 6.503 5.364 0.972 63.828 o
1 9 30 0.415 0.662 0.792 103.322 o
1 9 31 27.784 25.536 1.414 19.235 o
1 9 32 1.430 1.654 0.752 113.864 o
1 9 33 5.691 5.003 0.802 92.746 o
1 9 34 3.582 2.516 0.692 130.214 o
1 10 0 327.560 354.962 4.431 0.279 o
1 10 1 346.025 374.351 4.341 0.253 o
1 10 2 140.461 149.364 1.915 1.532 o
1 10 3 85.327 85.008 1.223 4.282 o
1 10 4 142.167 141.584 1.875 1.567 o
1 10 5 281.140 285.213 3.379 0.402 o
1 10 6 193.035 193.006 2.356 0.858 o
1 10 7 86.164 87.354 1.243 4.150 o
1 10 8 49.140 46.901 0.822 12.773 o
1 10 9 21.783 20.172 0.551 56.279 o
1 10 10 170.289 167.119 2.436 1.085 o
1 10 11 79.941 77.850 1.143 4.948 o
1 10 12 102.976 98.473 1.333 3.069 o
1 10 13 58.908 56.615 0.872 9.116 o
1 10 14 18.056 17.014 0.491 78.075 o
1 10 15 122.593 118.695 1.584 2.150 o
1 10 16 64.583 63.132 0.993 7.448 o
1 10 17 195.146 195.091 2.787 0.818 o
1 10 18 35.855 34.047 0.742 22.472 o
1 10 19 38.624 37.667 0.852 18.616 o
1 10 20 64.309 60.596 1.333 7.008 o
1 10 21 100.220 94.944 2.677 2.555 o
1 10 22 12.799 12.322 0.672 86.308 o
1 10 23 12.648 11.299 0.892 60.288 o
1 10 24 80.273 73.810 2.767 3.391 o
1 10 25 18.347 17.214 1.353 26.596 o
1 10 26 10.006 9.264 1.103 46.489 o
1 10 27 7.285 7.209 1.023 56.658 o
1 10 28 20.725 20.142 1.374 24.213 o
1 10 29 3.541 3.088 0.862 84.788 o
1 10 30 14.317 11.299 1.063 44.353 o
1 10 31 2.594 1.664 0.752 112.766 o
1 10 32 9.649 8.321 0.892 67.884 o
1 10 33 3.461 2.677 0.682 134.008 o
1 11 0 77.668 78.181 1.213 5.044 o
1 11 1 19.465 19.651 0.501 67.007 o
1 11 2 345.432 364.516 4.522 0.256 o
1 11 3 156.902 160.572 1.865 1.285 o
1 11 4 143.264 146.597 1.815 1.527 o
1 11 5 15.507 14.046 0.441 104.848 o
1 11 6 3.722 3.148 0.311 540.415 o
1 11 7 39.470 39.130 0.722 18.896 o
1 11 8 152.315 153.554 2.045 1.351 o
1 11 9 77.025 73.790 1.303 5.172 o
1 11 10 147.056 146.777 1.925 1.464 o
1 11 11 89.145 86.873 1.253 3.990 o
1 11 12 11.454 11.108 0.441 148.678 o
1 11 13 7.406 6.447 0.381 270.788 o
1 11 14 244.856 244.428 3.088 0.531 o
1 11 15 56.536 51.643 0.892 10.037 o
1 11 16 146.283 143.348 1.985 1.487 o
1 11 17 59.958 57.147 1.143 8.258 o
1 11 18 23.251 21.646 0.622 47.823 o
1 11 19 11.688 10.667 0.531 123.691 o
1 11 20 138.557 138.756 2.276 1.571 o
1 11 21 115.624 109.471 2.687 2.061 o
1 11 22 44.941 42.168 1.263 12.384 o
1 11 23 29.537 27.711 0.922 26.761 o
1 11 24 3.451 3.008 0.942 71.383 o
1 11 25 38.114 34.819 1.805 11.122 o
1 11 26 63.208 60.886 2.406 4.945 o
1 11 27 37.400 36.053 1.775 11.348 o
1 11 28 13.001 12.432 1.113 41.929 o
1 11 29 4.704 4.702 0.852 84.480 o
1 11 30 13.042 10.687 0.983 51.984 o
1 11 31 24.521 22.067 1.223 25.415 o
1 11 32 21.573 18.558 1.093 32.604 o
1 12 0 22.983 21.846 0.521 52.638 o
1 12 1 13.881 13.495 0.401 125.628 o
1 12 2 75.391 74.842 1.003 5.574 o
1 12 3 48.805 49.257 0.802 12.599 o
1 12 4 59.148 57.297 0.802 9.158 o
1 12 5 160.308 161.635 1.855 1.247 o
1 12 6 246.060 250.072 2.767 0.529 o
1 12 7 155.026 155.529 1.815 1.336 o
1 12 8 49.401 48.495 0.802 12.535 o
1 12 9 103.747 102.132 1.374 2.961 o
1 12 10 132.581 132.009 1.744 1.802 o
1 12 11 68.385 66.812 1.003 6.714 o
1 12 12 106.124 103.907 1.484 2.811 o
1 12 13 58.150 55.883 0.942 9.161 o
1 12 14 36.680 35.692 0.772 21.061 o
1 12 15 63.896 61.418 1.173 7.327 o
1 12 16 82.366 81.048 1.514 4.351 o
1 12 17 22.404 21.275 0.612 50.434 o
1 12 18 29.491 27.862 0.692 31.584 o
1 12 19 4.300 3.710 0.391 351.512 o
1 12 20 51.935 50.099 1.103 10.517 o
1 12 21 11.351 10.758 0.491 136.511 o
1 12 22 22.713 20.924 0.942 35.883 o
1 12 23 1.223 1.504 0.561 203.668 o
1 12 24 34.345 33.195 1.133 18.793 o
1 12 25 0.359 -0.020 0.802 100.813 o
1 12 26 5.659 5.534 0.962 65.807 o
1 12 27 9.896 8.632 1.013 54.320 o
1 12 28 16.331 15.931 1.163 35.143 o
1 12 29 1.733 1.273 0.712 126.837 o
1 12 30 2.725 2.587 0.732 118.118 o
1 12 31 7.761 6.918 0.812 84.829 o
1 13 0 111.123 114.334 1.985 2.350 o
1 13 1 4.445 4.421 0.331 442.852 o
1 13 2 268.626 276.219 3.750 0.426 o
1 13 3 99.673 99.546 1.363 3.161 o
1 13 4 69.267 66.892 0.983 6.633 o
1 13 5 66.314 65.609 1.013 7.025 o
1 13 6 16.135 15.289 0.431 98.539 o
1 13 7 29.611 27.400 0.612 33.415 o
1 13 8 96.308 93.540 1.303 3.450 o
1 13 9 105.701 103.416 1.484 2.832 o
1 13 10 6.655 6.858 0.391 272.730 o
1 13 11 68.210 66.761 1.023 6.709 o
1 13 12 0.378 0.170 0.311 670.255 o
1 13 13 73.991 72.446 1.133 5.674 o
1 13 14 41.547 40.123 0.792 17.077 o
1 13 15 108.251 105.411 1.765 2.620 o
1 13 16 27.587 26.277 0.642 36.089 o
1 13 17 4.826 4.492 0.381 347.002 o
1 13 18 6.207 5.514 0.401 284.548 o
1 13 19 10.646 9.976 0.451 159.077 o
1 13 20 58.298 54.360 1.203 8.590 o
1 13 21 0.280 0.431 0.501 257.912 o
1 13 22 17.847 17.425 0.752 56.174 o
1 13 23 3.525 3.850 0.602 167.748 o
1 13 24 3.910 3.820 0.581 177.012 o
1 13 25 0.766 0.642 0.501 257.113 o
1 13 26 22.872 19.400 1.303 25.092 o
1 13 27 0.875 0.962 0.742 117.515 o
1 13 28 0.554 0.371 0.682 139.419 o
1 13 29 0.706 0.241 0.652 152.531 o
1 13 30 11.751 11.018 0.912 59.989 o
1 14 0 91.277 89.319 1.434 3.708 o
1 14 1 31.655 29.636 0.762 27.198 o
1 14 2 46.221 44.284 0.812 14.213 o
1 14 3 11.114 10.647 0.421 160.931 o
1 14 4 85.698 83.314 1.223 4.311 o
1 14 5 46.664 46.439 0.792 13.779 o
1 14 6 210.914 213.899 3.008 0.694 o
1 14 7 19.881 19.290 0.571 61.490 o
1 14 8 75.442 74.371 1.123 5.470 o
1 14 9 38.355 37.336 0.732 19.945 o
1 14 10 93.627 92.638 1.323 3.581 o
1 14 11 15.514 14.678 0.491 95.720 o
1 14 12 157.765 156.803 2.286 1.252 o
1 14 13 76.198 74.261 1.193 5.337 o
1 14 14 32.572 32.002 0.712 26.178 o
1 14 15 11.415 10.788 0.481 138.709 o
1 14 16 78.554 77.288 1.684 4.532 o
1 14 17 75.199 73.679 1.323 5.300 o
1 14 18 72.585 68.656 1.323 5.740 o
1 14 19 20.912 20.573 0.722 48.615 o
1 14 20 3.113 2.948 0.541 208.778 o
1 14 21 8.776 8.392 0.612 126.046 o
1 14 22 12.535 13.214 0.682 84.139 o
1 14 23 13.058 12.903 0.662 85.818 o
1 14 24 3.647 3.619 0.571 184.558 o
1 14 25 4.066 4.040 0.561 187.380 o
1 14 26 0.499 0.261 0.712 127.928 o
1 14 27 5.390 4.572 0.812 91.525 o
1 14 28 2.918 2.988 0.732 117.526 o
1 14 29 8.396 6.727 0.792 87.318 o
1 15 0 3.449 3.178 0.431 313.259 o
1 15 1 32.160 31.130 0.812 25.314 o
1 15 2 44.979 43.572 0.922 14.179 o
1 15 3 95.272 93.891 1.363 3.458 o
1 15 4 47.895 45.998 0.802 13.396 o
1 15 5 6.525 6.587 0.411 259.967 o
1 15 6 19.968 19.570 0.581 60.186 o
1 15 7 116.919 116.279 1.805 2.248 o
1 15 8 68.968 67.183 1.203 6.338 o
1 15 9 67.221 67.363 1.143 6.611 o
1 15 10 43.932 41.978 0.892 15.024 o
1 15 11 34.520 33.707 0.852 22.129 o
1 15 12 16.591 16.292 0.551 79.561 o
1 15 13 52.140 50.710 0.942 10.984 o
1 15 14 14.149 13.244 0.501 106.032 o
1 15 15 19.235 17.916 0.551 67.001 o
1 15 16 31.314 31.932 1.003 22.580 o
1 15 17 5.429 5.634 0.541 185.367 o
1 15 18 5.153 5.314 0.521 200.971 o
1 15 19 6.203 6.176 0.521 188.607 o
1 15 20 19.820 19.711 0.792 47.588 o
1 15 21 18.044 18.578 0.762 53.841 o
1 15 22 32.485 31.681 1.093 20.623 o
1 15 23 0.591 0.521 0.451 317.725 o
1 15 24 0.172 0.020 0.471 292.090 o
1 15 25 13.441 12.803 0.712 77.622 o
1 15 26 16.917 16.512 0.742 60.069 o
1 15 27 9.254 9.063 0.892 67.924 o
1 16 0 13.063 11.981 0.561 104.871 o
1 16 1 23.421 22.408 0.692 43.823 o
1 16 2 4.877 4.893 0.461 251.902 o
1 16 3 3.415 3.389 0.441 299.727 o
1 16 4 25.788 25.365 0.612 40.278 o
1 16 5 26.203 25.606 0.672 37.661 o
1 16 6 6.878 7.429 0.441 224.963 o
1 16 7 83.817 82.201 1.394 4.330 o
1 16 8 25.212 23.550 0.642 41.723 o
1 16 9 10.858 10.617 0.561 121.566 o
1 16 10 0.220 0.431 0.361 497.319 o
1 16 11 42.279 40.634 0.902 15.868 o
1 16 12 6.000 5.464 0.501 205.926 o
1 16 13 24.875 25.626 0.912 32.127 o
1 16 14 2.822 3.569 0.561 194.817 o
1 16 15 4.086 3.820 0.551 194.145 o
1 16 16 5.085 5.243 0.581 167.278 o
1 16 17 59.999 63.734 1.444 7.101 o
1 16 18 7.605 7.950 0.602 136.878 o
1 16 19 12.257 13.515 0.692 83.095 o
1 16 20 7.193 7.319 0.682 115.174 o
1 16 21 5.220 5.334 0.622 147.971 o
1 16 22 0.689 0.902 0.511 247.073 o
1 16 23 10.263 11.018 0.682 96.437 o
1 16 24 2.805 2.797 0.511 234.841 o
1 16 25 1.796 1.835 0.471 284.251 o
1 17 0 3.477 3.138 0.451 288.518 o
1 17 1 142.464 141.373 3.228 1.341 o
1 17 2 55.443 54.801 1.303 8.727 o
1 17 3 186.137 186.379 3.278 0.854 o
1 17 4 0.209 0.140 0.431 348.881 o
1 17 5 52.425 50.008 1.384 9.369 o
1 17 6 26.424 25.566 0.932 30.120 o
1 17 7 81.820 79.645 1.333 4.587 o
1 17 8 10.803 11.630 0.762 79.951 o
1 17 9 64.620 65.278 2.115 5.240 o
1 17 10 1.312 1.694 0.521 235.278 o
1 17 11 10.041 10.828 0.672 99.672 o
1 17 12 9.363 10.487 0.672 103.049 o
1 17 13 35.831 38.288 1.063 17.750 o
1 17 14 8.846 9.063 0.622 121.038 o
1 17 15 38.555 39.532 1.063 16.335 o
1 17 16 8.298 8.301 0.602 132.019 o
1 17 17 4.755 4.772 0.531 199.612 o
1 17 18 0.922 0.962 0.471 289.979 o
1 17 19 28.661 30.137 1.053 23.973 o
1 17 20 0.724 1.223 0.521 237.348 o
1 17 21 21.673 23.440 0.902 37.155 o
1 17 22 0.643 0.602 0.471 291.151 o
1 17 23 0.015 -0.150 0.622 167.874 o
1 18 0 11.182 11.349 0.722 85.520 o
1 18 1 10.434 10.677 1.043 50.087 o
1 18 2 10.273 10.347 0.702 93.754 o
1 18 3 1.233 1.644 0.682 138.505 o
1 18 4 3.420 3.479 0.702 126.007 o
1 18 5 31.814 31.060 1.494 15.804 o
1 18 6 14.925 15.450 1.023 43.995 o
1 18 7 52.945 55.332 2.296 6.062 o
1 18 8 7.052 7.319 0.632 131.089 o
1 18 9 7.325 7.539 0.592 143.275 o
1 18 10 9.588 10.116 0.652 107.411 o
1 18 11 29.849 31.040 0.942 24.873 o
1 18 12 16.358 17.034 0.722 62.488 o
1 18 13 11.977 13.043 0.662 89.622 o
1 18 14 8.511 8.873 0.581 135.647 o
1 18 15 2.243 2.166 0.471 280.452 o
1 18 16 6.901 6.998 0.541 169.151 o
1 18 17 11.443 12.402 0.622 100.335 o
1 18 18 7.482 8.502 0.551 154.784 o
1 18 19 20.462 22.277 1.053 33.392 o
1 18 20 0.679 0.612 0.471 291.064 o
1 18 21 6.295 6.336 0.632 136.912 o
1 19 0 5.667 5.795 0.581 162.399 o
1 19 1 16.489 17.004 0.762 58.842 o
1 19 2 16.851 18.227 0.952 44.114 o
1 19 3 8.880 9.474 0.802 81.260 o
1 19 4 10.802 11.540 0.832 70.360 o
1 19 5 0.551 0.251 0.662 148.013 o
1 19 6 2.052 2.256 0.551 207.557 o
1 19 7 4.202 4.271 0.461 263.410 o
1 19 8 28.584 29.456 1.213 21.345 o
1 19 9 2.885 3.158 0.441 307.048 o
1 19 10 3.471 3.188 0.441 300.251 o
1 19 11 4.796 4.722 0.451 263.314 o
1 19 12 5.747 5.925 0.521 193.523 o
1 19 13 8.621 9.123 0.561 140.887 o
1 19 14 10.005 10.838 0.581 120.813 o
1 19 15 7.681 8.752 0.541 156.466 o
1 19 16 0.737 0.802 0.411 381.441 o
1 19 17 7.260 7.589 0.511 178.424 o
1 19 18 1.405 1.815 0.471 286.364 o
1 20 0 47.346 47.813 1.404 10.443 o
1 20 1 1.539 1.674 0.581 189.188 o
1 20 2 4.413 3.730 0.622 154.693 o
1 20 3 1.698 2.376 0.612 170.255 o
1 20 4 28.124 29.245 1.093 23.840 o
1 20 5 5.028 5.203 0.672 129.768 o
1 20 6 31.730 32.493 1.153 19.944 o
1 20 7 1.776 1.785 0.602 176.354 o
1 20 8 8.682 8.883 0.531 152.176 o
1 20 9 1.859 1.905 0.391 406.694 o
1 20 10 1.485 1.093 0.371 459.851 o
1 20 11 0.910 0.922 0.371 466.049 o
1 20 12 16.346 16.292 0.952 46.058 o
1 20 13 3.594 4.181 0.401 345.348 o
1 20 14 8.781 8.993 0.782 85.480 o
1 20 15 4.568 4.391 0.581 172.349 o
1 21 0 0.105 0.351 0.511 248.038 o
1 21 1 15.355 15.229 0.782 61.639 o
1 21 2 3.737 3.790 0.571 183.712 o
1 21 3 27.994 28.694 1.414 18.553 o
1 21 4 17.054 17.495 1.163 33.983 o
1 21 5 8.178 8.532 0.672 111.723 o
1 21 6 1.882 1.905 0.772 107.627 o
1 21 7 4.316 5.213 0.622 152.112 o
1 21 8 35.375 37.416 1.143 17.297 o
1 21 9 7.315 6.818 0.521 176.327 o
1 21 10 19.698 20.793 1.193 29.754 o
2 0 0 143.072 146.817 1.885 1.519 o
2 0 1 10.472 11.319 0.471 147.608 o
2 0 2 144.260 146.847 2.376 1.434 o
2 0 3 15.138 14.758 0.421 107.948 o
2 0 4 7932.070 8223.800 143.940 0.000 o
2 0 5 278.295 321.526 4.091 0.365 o
2 0 6 3077.140 3288.810 47.071 0.003 o
2 0 7 2.934 3.629 0.241 845.267 o
2 0 8 1.181 1.163 0.201 1515.420 o
2 0 9 64.450 64.716 0.762 7.713 o
2 0 10 171.959 161.475 1.624 1.159 o
2 0 11 7.957 7.319 0.291 328.799 o
2 0 12 1058.900 1037.550 12.111 0.029 o
2 0 13 133.846 127.187 1.855 1.801 o
2 0 14 112.651 99.506 1.363 2.715 o
2 0 15 0.567 0.802 0.281 814.992 o
2 0 16 210.481 203.824 3.148 0.709 o
2 0 17 4.947 4.502 0.361 373.748 o
2 0 18 242.596 226.592 2.978 0.566 o
2 0 19 7.753 7.509 0.421 225.269 o
2 0 20 3.742 3.870 0.361 412.649 o
2 0 21 24.962 22.588 0.722 40.058 o
2 0 22 108.589 101.009 1.644 2.720 o
2 0 23 66.835 59.252 1.333 6.791 o
2 0 24 67.281 58.941 1.333 6.758 o
2 0 25 22.385 20.633 0.812 41.770 o
2 0 26 7.573 7.028 0.501 183.239 o
2 0 27 1.657 1.283 0.431 340.909 o
2 0 28 20.536 19.821 0.862 42.734 o
2 0 29 0.018 0.662 0.461 304.820 o
2 0 30 42.674 40.765 2.005 8.834 o
2 0 31 38.704 37.777 2.346 7.839 o
2 0 32 0.002 0.050 0.612 173.423 o
2 0 33 1.372 1.333 0.592 183.558 o
2 0 34 23.421 24.543 1.544 18.811 o
2 0 35 0.022 0.261 0.642 157.538 o
2 0 36 16.487 16.131 0.822 54.992 o
2 0 37 0.001 -0.411 0.672 143.753 o
2 1 0 36.624 36.654 0.662 21.910 o
2 1 1 61.288 62.240 0.993 7.989 o
2 1 2 612.984 704.058 8.752 0.076 o
2 1 3 7.155 7.419 0.291 354.156 o
2 1 4 468.958 532.839 6.898 0.130 o
2 1 5 185.366 188.013 2.356 0.917 o
2 1 6 1789.280 1981.520 23.861 0.009 o
2 1 7 350.737 379.404 3.930 0.250 o
2 1 8 678.860 697.832 6.868 0.070 o
2 1 9 1.864 1.434 0.211 1300.100 o
2 1 10 155.325 143.328 1.544 1.428 o
2 1 11 2.942 3.379 0.271 711.266 o
2 1 12 43.581 43.913 0.652 16.164 o
2 1 13 111.263 109.692 1.353 2.607 o
2 1 14 308.969 318.057 3.489 0.332 o
2 1 15 227.501 215.734 4.040 0.588 o
2 1 16 97.637 95.696 2.065 2.955 o
2 1 17 30.370 27.711 0.642 31.707 o
2 1 18 104.325 94.412 1.965 2.815 o
2 1 19 99.553 92.949 1.935 3.009 o
2 1 20 429.040 406.163 6.557 0.172 o
2 1 21 20.743 19.600 0.692 51.565 o
2 1 22 154.135 143.027 2.166 1.373 o
2 1 23 91.459 81.910 1.564 3.794 o
2 1 24 1.115 1.273 0.421 360.606 o
2 1 25 9.738 8.732 0.521 148.093 o
2 1 26 102.233 93.510 1.855 2.950 o
2 1 27 1.462 2.055 0.441 324.678 o
2 1 28 9.605 8.622 0.521 149.598 o
2 1 29 4.645 4.391 0.481 239.635 o
2 1 30 18.864 18.718 1.103 34.471 o
2 1 31 7.357 7.820 0.722 103.428 o
2 1 32 23.099 23.180 1.253 25.182 o
2 1 33 10.705 10.076 0.802 76.279 o
2 1 34 0.161 0.461 0.551 213.235 o
2 1 35 3.717 3.539 0.581 178.547 o
2 1 36 4.766 4.461 0.571 176.514 o
2 1 37 2.705 2.436 0.752 112.170 o
2 2 0 123.861 135.257 1.464 1.979 o
2 2 1 138.881 147.659 1.664 1.599 o
2 2 2 60.735 66.200 0.882 7.974 o
2 2 3 75.074 75.815 1.384 5.157 o
2 2 4 695.719 790.881 10.236 0.059 o
2 2 5 1144.760 1309.570 15.550 0.022 o
2 2 6 307.374 342.871 4.361 0.308 o
2 2 7 789.797 859.177 8.963 0.049 o
2 2 8 19.890 20.412 0.391 71.310 o
2 2 9 170.935 166.167 1.654 1.145 o
2 2 10 641.242 645.337 6.597 0.079 o
2 2 11 75.027 68.797 0.862 6.036 o
2 2 12 419.042 415.557 4.261 0.187 o
2 2 13 24.153 21.405 0.461 52.834 o
2 2 14 19.642 18.277 0.441 73.158 o
2 2 15 128.219 128.751 1.895 1.876 o
2 2 16 54.421 49.918 1.003 10.346 o
2 2 17 175.828 168.623 3.128 0.978 o
2 2 18 64.782 57.297 1.113 7.603 o
2 2 19 13.169 12.161 0.421 133.220 o
2 2 20 37.729 34.398 0.902 19.451 o
2 2 21 79.674 73.790 1.203 5.068 o
2 2 22 46.712 43.020 0.902 13.794 o
2 2 23 278.444 262.223 4.241 0.410 o
2 2 24 25.285 23.681 0.692 39.793 o
2 2 25 48.421 44.454 1.063 12.240 o
2 2 26 81.350 76.106 1.664 4.418 o
2 2 27 53.390 50.570 1.023 10.433 o
2 2 28 47.167 45.196 1.293 11.303 o
2 2 29 13.818 12.552 0.612 91.183 o
2 2 30 41.254 40.524 1.584 11.438 o
2 2 31 18.404 17.385 1.103 35.452 o
2 2 32 0.755 1.394 0.602 178.384 o
2 2 33 23.570 23.671 1.053 30.093 o
2 2 34 0.320 0.491 0.551 213.138 o
2 2 35 4.667 4.311 0.592 166.838 o
2 2 36 4.726 4.552 0.561 182.110 o
2 3 0 4.209 4.431 0.261 633.227 o
2 3 1 531.110 587.780 6.246 0.107 o
2 3 2 554.973 621.576 6.376 0.097 o
2 3 3 1054.610 1242.050 14.197 0.025 o
2 3 4 512.993 579.458 6.146 0.113 o
2 3 5 30.843 34.238 0.571 28.849 o
2 3 6 125.986 131.187 1.694 1.934 o
2 3 7 510.420 536.498 6.066 0.119 o
2 3 8 82.695 79.935 0.912 4.840 o
2 3 9 1145.440 1178.260 13.415 0.024 o
2 3 10 16.242 15.550 0.391 102.185 o
2 3 11 665.700 664.477 7.018 0.074 o
2 3 12 174.068 172.443 1.905 1.077 o
2 3 13 165.589 168.814 1.895 1.162 o
2 3 14 70.549 70.100 0.952 6.345 o
2 3 15 278.131 278.575 3.078 0.418 o
2 3 16 64.846 62.049 0.932 7.588 o
2 3 17 26.130 25.676 0.622 39.194 o
2 3 18 17.325 15.159 0.511 83.203 o
2 3 19 450.098 432.100 6.336 0.158 o
2 3 20 198.224 187.812 2.557 0.833 o
2 3 21 249.131 236.427 3.679 0.514 o
2 3 22 145.648 135.648 1.955 1.548 o
2 3 23 4.372 4.091 0.461 262.503 o
2 3 24 1.571 1.374 0.421 357.237 o
2 3 25 6.571 6.256 0.491 202.740 o
2 3 26 48.617 44.685 0.942 12.732 o
2 3 27 57.496 53.337 1.363 8.340 o
2 3 28 9.717 8.482 0.521 149.267 o
2 3 29 2.339 2.617 0.632 158.180 o
2 3 30 0.991 0.942 0.602 178.372 o
2 3 31 19.174 19.059 0.862 45.305 o
2 3 32 7.688 7.309 0.682 113.347 o
2 3 33 34.764 34.178 1.384 15.591 o
2 3 34 6.288 6.336 0.632 136.944 o
2 3 35 3.087 3.820 0.571 186.693 o
2 3 36 26.207 26.638 0.862 31.662 o
2 4 0 14.153 13.354 0.341 135.507 o
2 4 1 1347.730 1406.970 18.237 0.017 o
2 4 2 167.386 172.774 2.005 1.122 o
2 4 3 47.451 49.457 0.762 13.149 o
2 4 4 141.116 147.298 2.637 1.426 o
2 4 5 382.157 407.136 4.612 0.211 o
2 4 6 185.107 201.498 2.426 0.875 o
2 4 7 736.152 789.017 8.893 0.057 o
2 4 8 274.462 276.260 3.319 0.423 o
2 4 9 21.275 21.555 0.431 62.122 o
2 4 10 918.786 996.449 11.510 0.036 o
2 4 11 492.668 514.822 5.524 0.130 o
2 4 12 191.849 197.768 2.176 0.861 o
2 4 13 15.154 15.400 0.411 107.161 o
2 4 14 20.782 21.064 0.491 61.160 o
2 4 15 59.202 55.934 0.832 9.213 o
2 4 16 24.054 23.541 0.531 47.886 o
2 4 17 461.349 454.237 5.534 0.152 o
2 4 18 5.400 5.975 0.421 274.747 o
2 4 19 61.928 58.099 1.003 8.190 o
2 4 20 52.970 50.169 1.013 10.607 o
2 4 21 10.106 9.575 0.501 148.570 o
2 4 22 25.113 22.558 0.672 41.642 o
2 4 23 101.661 97.931 1.975 2.838 o
2 4 24 1.737 1.845 0.431 338.250 o
2 4 25 4.417 4.562 0.471 249.939 o
2 4 26 0.118 -0.020 1.003 64.530 o
2 4 27 33.349 32.614 0.983 21.441 o
2 4 28 2.502 2.486 0.431 328.300 o
2 4 29 48.694 45.306 1.464 10.142 o
2 4 30 2.945 3.108 0.632 155.976 o
2 4 31 4.919 3.740 0.622 152.660 o
2 4 32 2.625 2.577 0.592 178.840 o
2 4 33 5.746 6.015 0.642 136.346 o
2 4 34 10.242 10.146 0.732 88.660 o
2 4 35 0.964 1.143 0.521 236.933 o
2 4 36 13.161 13.104 0.672 83.601 o
2 5 0 326.786 336.665 3.810 0.296 o
2 5 1 424.442 462.007 5.033 0.169 o
2 5 2 6.110 5.985 0.271 455.190 o
2 5 3 429.240 455.309 5.093 0.168 o
2 5 4 34.063 34.960 0.531 25.926 o
2 5 5 117.943 126.605 1.604 2.161 o
2 5 6 196.716 207.864 2.206 0.807 o
2 5 7 597.342 633.287 6.948 0.087 o
2 5 8 1158.730 1252.980 16.302 0.022 o
2 5 9 250.919 266.805 3.058 0.489 o
2 5 10 430.722 463.611 5.624 0.163 o
2 5 11 14.813 14.607 0.401 113.900 o
2 5 12 55.381 56.184 0.822 9.984 o
2 5 13 204.402 212.195 2.486 0.748 o
2 5 14 7.489 8.382 0.351 273.565 o
2 5 15 222.947 229.941 2.697 0.632 o
2 5 16 1.669 1.734 0.281 770.567 o
2 5 17 7.271 7.539 0.391 254.653 o
2 5 18 81.478 79.033 1.293 4.665 o
2 5 19 8.151 7.810 0.471 188.845 o
2 5 20 45.870 43.502 0.932 13.832 o
2 5 21 67.857 63.172 1.323 6.478 o
2 5 22 10.183 9.605 0.521 141.195 o
2 5 23 0.064 0.160 0.411 383.844 o
2 5 24 7.987 7.409 0.511 172.673 o
2 5 25 105.525 101.992 1.785 2.742 o
2 5 26 3.445 3.449 0.451 287.172 o
2 5 27 21.983 21.525 0.812 41.704 o
2 5 28 20.958 21.204 0.812 43.485 o
2 5 29 29.855 29.566 1.424 17.571 o
2 5 30 6.070 6.507 0.672 123.826 o
2 5 31 27.184 28.393 1.183 22.919 o
2 5 32 6.151 6.547 0.652 130.018 o
2 5 33 18.088 18.287 1.684 18.766 o
2 5 34 4.093 3.900 0.692 127.417 o
2 5 35 8.460 8.953 0.782 86.330 o
2 5 36 12.234 11.630 0.962 54.121 o
2 6 0 470.149 495.743 5.083 0.142 o
2 6 1 553.253 572.230 5.905 0.104 o
2 6 2 81.036 85.961 1.083 4.626 o
2 6 3 26.498 27.862 0.431 41.812 o
2 6 4 119.701 114.805 1.303 2.325 o
2 6 5 309.453 321.255 3.700 0.327 o
2 6 6 341.808 346.340 4.201 0.271 o
2 6 7 281.849 305.765 3.900 0.375 o
2 6 8 259.889 269.242 3.439 0.457 o
2 6 9 82.839 86.512 1.293 4.337 o
2 6 10 132.005 136.160 2.376 1.659 o
2 6 11 385.905 409.181 4.903 0.206 o
2 6 12 113.655 115.787 1.614 2.385 o
2 6 13 70.958 71.223 1.003 6.182 o
2 6 14 2.670 2.607 0.281 705.106 o
2 6 15 7.146 6.497 0.331 324.768 o
2 6 16 114.721 109.511 2.246 2.234 o
2 6 17 374.496 362.311 5.745 0.223 o
2 6 18 418.536 419.898 6.787 0.172 o
2 6 19 45.631 46.610 1.003 13.037 o
2 6 20 19.057 18.157 0.852 46.748 o
2 6 21 180.803 184.273 6.517 0.619 o
2 6 22 114.754 112.830 3.339 1.821 o
2 6 23 51.452 50.500 2.426 6.005 o
2 6 24 43.530 41.396 2.015 8.640 o
2 6 25 21.120 20.442 0.792 44.797 o
2 6 26 73.581 70.080 3.058 3.377 o
2 6 27 32.823 30.508 1.845 12.160 o
2 6 28 15.954 15.700 1.604 21.291 o
2 6 29 9.858 9.825 1.343 32.642 o
2 6 30 14.575 13.795 2.266 11.752 o
2 6 31 0.144 0.441 0.662 148.105 o
2 6 32 0.630 0.411 0.822 95.888 o
2 6 33 2.228 2.045 0.662 145.214 o
2 6 34 8.493 9.093 0.772 87.890 o
2 6 35 15.062 15.249 2.186 12.457 o
2 7 0 18.733 17.806 0.401 81.193 o
2 7 1 75.103 71.965 1.113 5.617 o
2 7 2 358.489 364.887 3.810 0.250 o
2 7 3 60.334 61.919 0.812 8.510 o
2 7 4 288.343 300.161 3.088 0.381 o
2 7 5 136.804 141.012 1.744 1.665 o
2 7 6 258.944 259.737 3.038 0.479 o
2 7 7 261.484 259.707 3.439 0.464 o
2 7 8 570.282 625.517 10.106 0.086 o
2 7 9 394.768 420.530 9.905 0.161 o
2 7 10 22.211 21.926 0.712 45.484 o
2 7 11 5.105 4.832 0.321 431.885 o
2 7 12 59.665 60.225 1.404 7.453 o
2 7 13 28.553 28.503 0.632 33.614 o
2 7 14 313.604 309.906 4.151 0.323 o
2 7 15 108.867 107.336 1.895 2.528 o
2 7 16 124.677 119.316 2.306 1.924 o
2 7 17 27.367 27.902 0.852 30.134 o
2 7 18 14.998 15.189 0.511 94.299 o
2 7 19 64.406 65.548 1.564 6.276 o
2 7 20 3.641 3.700 0.401 348.712 o
2 7 21 66.239 67.393 2.827 3.970 o
2 7 22 24.496 24.202 1.183 25.755 o
2 7 23 22.953 22.718 1.163 27.766 o
2 7 24 64.002 63.724 3.549 3.199 o
2 7 25 75.178 72.647 2.767 3.595 o
2 7 26 25.562 25.034 1.835 14.170 o
2 7 27 39.094 45.818 2.286 7.688 o
2 7 28 17.858 18.407 2.697 8.226 o
2 7 29 20.205 20.342 1.985 13.767 o
2 7 30 14.516 14.156 0.942 50.764 o
2 7 31 5.574 6.116 1.504 27.912 o
2 7 32 36.508 37.637 4.552 2.787 o
2 7 33 3.083 3.118 0.662 142.293 o
2 7 34 3.265 2.928 0.632 155.315 o
2 7 35 1.810 2.176 0.692 133.582 o
2 8 0 332.832 361.168 4.151 0.273 o
2 8 1 219.142 214.581 3.158 0.655 o
2 8 2 107.376 113.602 1.494 2.621 o
2 8 3 233.902 230.773 2.577 0.597 o
2 8 4 22.429 23.621 0.481 53.564 o
2 8 5 81.501 80.757 1.073 4.783 o
2 8 6 189.784 192.685 2.597 0.863 o
2 8 7 284.519 278.225 4.291 0.385 o
2 8 8 295.540 298.487 4.391 0.351 o
2 8 9 82.852 82.221 1.765 4.066 o
2 8 10 96.493 95.245 2.326 2.850 o
2 8 11 11.489 11.229 0.461 141.911 o
2 8 12 111.912 107.456 1.815 2.474 o
2 8 13 54.916 54.309 1.353 8.696 o
2 8 14 15.364 14.327 0.451 103.369 o
2 8 15 25.971 25.014 0.652 39.037 o
2 8 16 186.637 182.298 2.416 0.923 o
2 8 17 14.891 14.938 0.561 88.501 o
2 8 18 168.013 158.457 2.587 1.123 o
2 8 19 14.534 14.828 0.521 96.203 o
2 8 20 20.602 20.874 0.692 50.539 o
2 8 21 4.649 4.522 0.431 287.329 o
2 8 22 71.532 71.844 3.880 2.626 o
2 8 23 0.294 -0.110 0.983 67.187 o
2 8 24 59.574 60.475 3.268 3.723 o
2 8 25 7.054 6.356 0.612 140.554 o
2 8 26 9.252 8.803 0.752 89.946 o
2 8 27 0.571 0.722 0.712 127.829 o
2 8 28 37.224 41.948 6.166 1.588 o
2 8 29 2.202 2.226 0.702 129.286 o
2 8 30 7.728 7.239 1.183 43.037 o
2 8 31 2.547 2.436 1.053 57.913 o
2 8 32 3.947 3.810 1.454 30.282 o
2 8 33 1.575 1.875 0.612 171.013 o
2 8 34 7.093 7.319 1.153 45.489 o
2 9 0 10.036 9.835 0.401 186.590 o
2 9 1 3.455 2.958 0.301 585.406 o
2 9 2 638.384 658.712 8.291 0.076 o
2 9 3 422.028 422.535 5.314 0.179 o
2 9 4 253.381 261.291 3.108 0.488 o
2 9 5 10.387 10.206 0.361 196.129 o
2 9 6 415.324 420.229 5.334 0.183 o
2 9 7 29.147 28.233 0.792 29.604 o
2 9 8 542.257 576.711 9.033 0.099 o
2 9 9 2.257 2.446 0.331 542.440 o
2 9 10 335.880 337.557 6.226 0.258 o
2 9 11 12.901 13.134 0.451 124.697 o
2 9 12 75.579 72.015 1.173 5.507 o
2 9 13 23.362 20.773 0.541 52.114 o
2 9 14 191.062 188.183 2.326 0.884 o
2 9 15 46.057 42.810 0.882 14.161 o
2 9 16 69.081 65.649 1.384 6.125 o
2 9 17 5.196 4.652 0.421 288.820 o
2 9 18 19.925 17.425 0.652 58.444 o
2 9 19 13.479 12.823 0.592 95.328 o
2 9 20 127.592 121.953 2.657 1.764 o
2 9 21 55.718 52.485 1.594 7.956 o
2 9 22 4.984 4.822 0.481 233.926 o
2 9 23 50.558 45.086 3.128 4.552 o
2 9 24 28.578 25.325 1.173 23.192 o
2 9 25 12.652 11.660 1.173 39.043 o
2 9 26 19.859 17.956 1.323 26.517 o
2 9 27 0.697 0.170 0.772 108.746 o
2 9 28 9.232 8.111 1.013 55.304 o
2 9 29 2.663 1.384 0.782 104.460 o
2 9 30 5.724 5.133 0.862 80.995 o
2 9 31 1.719 0.962 0.712 126.998 o
2 9 32 14.945 13.174 1.003 46.581 o
2 9 33 3.708 3.168 0.712 122.361 o
2 10 0 396.519 399.015 7.168 0.186 o
2 10 1 23.213 24.744 0.832 37.057 o
2 10 2 252.621 254.995 3.058 0.499 o
2 10 3 75.764 74.090 1.173 5.402 o
2 10 4 15.071 13.144 0.401 117.474 o
2 10 5 2.979 3.780 0.301 588.211 o
2 10 6 229.903 233.540 3.258 0.584 o
2 10 7 50.704 47.462 0.993 11.554 o
2 10 8 61.688 61.919 1.203 7.526 o
2 10 9 10.831 10.968 0.421 162.292 o
2 10 10 100.061 92.868 1.534 3.198 o
2 10 11 78.319 78.421 1.363 4.841 o
2 10 12 95.281 89.500 1.404 3.534 o
2 10 13 117.947 115.015 1.985 2.187 o
2 10 14 86.312 82.552 1.263 4.269 o
2 10 15 2.086 1.554 0.351 499.021 o
2 10 16 75.190 72.125 1.243 5.457 o
2 10 17 53.794 50.901 1.003 10.376 o
2 10 18 50.218 45.938 1.053 11.618 o
2 10 19 19.374 17.535 0.662 58.996 o
2 10 20 41.156 38.429 0.962 16.334 o
2 10 21 17.533 16.643 0.742 58.495 o
2 10 22 28.035 25.566 0.802 31.870 o
2 10 23 18.781 18.367 0.792 50.650 o
2 10 24 212.463 202.099 6.186 0.539 o
2 10 25 17.359 16.021 1.273 30.044 o
2 10 26 1.126 0.602 0.812 98.102 o
2 10 27 15.809 14.407 1.183 35.214 o
2 10 28 8.900 7.870 0.962 60.963 o
2 10 29 18.496 16.011 1.143 34.264 o
2 10 30 9.619 9.304 0.932 62.399 o
2 10 31 8.124 6.908 0.842 78.985 o
2 10 32 1.439 1.333 0.652 151.414 o
2 11 0 1.996 2.055 0.301 661.188 o
2 11 1 33.918 33.396 0.842 22.762 o
2 11 2 102.506 94.854 2.095 2.799 o
2 11 3 225.288 217.168 2.687 0.646 o
2 11 4 37.431 35.712 0.662 21.683 o
2 11 5 119.688 114.574 1.484 2.287 o
2 11 6 7.635 7.118 0.351 284.712 o
2 11 7 23.192 21.846 0.501 53.010 o
2 11 8 35.312 32.363 0.692 24.079 o
2 11 9 144.802 140.411 1.985 1.524 o
2 11 10 33.395 31.912 0.832 23.784 o
2 11 11 31.744 28.784 0.752 27.677 o
2 11 12 112.129 108.068 1.644 2.517 o
2 11 13 104.990 102.794 1.494 2.862 o
2 11 14 124.410 121.572 1.724 2.051 o
2 11 15 14.362 12.813 0.511 104.318 o
2 11 16 29.437 27.571 0.672 32.239 o
2 11 17 16.127 14.818 0.521 88.303 o
2 11 18 12.133 10.948 0.511 124.631 o
2 11 19 42.897 39.612 0.993 15.191 o
2 11 20 9.655 8.392 0.531 146.546 o
2 11 21 49.111 45.998 1.073 11.804 o
2 11 22 115.036 105.371 2.396 2.218 o
2 11 23 14.249 13.294 0.812 63.326 o
2 11 24 30.458 30.328 1.113 21.786 o
2 11 25 35.250 32.052 1.644 13.237 o
2 11 26 0.858 0.491 0.782 105.890 o
2 11 27 5.684 5.264 0.892 75.956 o
2 11 28 1.673 1.173 0.742 116.937 o
2 11 29 1.583 0.702 0.682 138.624 o
2 11 30 5.768 4.592 0.762 102.163 o
2 11 31 9.691 7.950 0.822 77.970 o
2 12 0 11.595 10.437 0.581 112.940 o
2 12 1 96.849 88.989 1.734 3.293 o
2 12 2 21.078 20.793 0.772 45.563 o
2 12 3 94.638 91.565 1.504 3.462 o
2 12 4 2.377 2.817 0.341 506.074 o
2 12 5 453.787 444.692 6.667 0.152 o
2 12 6 6.405 6.376 0.391 282.301 o
2 12 7 54.912 52.134 0.832 10.511 o
2 12 8 32.959 32.523 0.632 26.771 o
2 12 9 6.796 6.046 0.381 287.413 o
2 12 10 19.090 19.189 0.561 64.693 o
2 12 11 107.563 104.789 1.524 2.737 o
2 12 12 22.301 20.613 0.632 50.391 o
2 12 13 360.830 358.150 5.865 0.233 o
2 12 14 17.459 17.044 0.642 66.484 o
2 12 15 0.042 -0.211 0.782 106.066 o
2 12 16 0.431 0.672 0.361 496.054 o
2 12 17 39.669 37.105 0.852 18.230 o
2 12 18 0.370 0.912 0.361 495.752 o
2 12 19 31.082 27.952 0.812 27.536 o
2 12 20 0.453 0.301 0.391 423.423 o
2 12 21 24.561 22.458 1.263 24.331 o
2 12 22 13.885 13.455 0.802 64.977 o
2 12 23 40.250 37.346 1.213 14.835 o
2 12 24 43.655 42.499 2.105 8.157 o
2 12 25 13.328 13.765 0.772 69.210 o
2 12 26 3.143 2.617 0.812 95.947 o
2 12 27 3.349 3.028 0.792 100.241 o
2 12 28 1.694 1.374 0.702 130.441 o
2 12 29 14.025 12.392 0.972 50.385 o
2 12 30 0.752 0.321 0.602 178.908 o
2 13 0 0.558 0.802 0.371 468.756 o
2 13 1 122.919 119.748 2.657 1.855 o
2 13 2 67.158 64.456 1.404 6.345 o
2 13 3 226.837 226.913 3.359 0.600 o
2 13 4 14.809 14.979 0.511 95.836 o
2 13 5 203.945 203.132 2.677 0.762 o
2 13 6 15.233 14.537 0.471 100.555 o
2 13 7 3.583 3.669 0.331 484.123 o
2 13 8 85.729 83.254 1.534 4.079 o
2 13 9 212.691 209.999 3.429 0.675 o
2 13 10 25.302 24.312 0.672 39.954 o
2 13 11 20.181 18.427 0.612 59.189 o
2 13 12 25.617 24.653 0.692 38.579 o
2 13 13 122.131 119.306 2.025 2.046 o
2 13 14 1.980 2.095 0.381 424.486 o
2 13 15 122.320 118.685 2.035 2.045 o
2 13 16 11.297 11.259 0.531 124.332 o
2 13 17 12.209 12.001 0.531 115.963 o
2 13 18 0.771 0.762 0.351 522.084 o
2 13 19 55.023 49.146 1.504 8.586 o
2 13 20 10.072 9.855 0.742 87.845 o
2 13 21 17.195 16.222 0.852 51.428 o
2 13 22 2.640 2.456 0.571 191.293 o
2 13 23 0.475 0.381 0.521 238.325 o
2 13 24 1.153 1.093 0.521 236.550 o
2 13 25 19.959 19.640 0.842 44.731 o
2 13 26 0.829 0.682 0.712 127.724 o
2 13 27 13.038 12.221 1.003 49.458 o
2 13 28 1.163 1.343 0.672 142.862 o
2 13 29 5.076 4.552 0.722 114.555 o
2 14 0 0.117 0.381 0.371 471.101 o
2 14 1 39.260 35.331 0.983 17.662 o
2 14 2 38.819 37.536 1.023 16.996 o
2 14 3 2.425 2.246 0.381 416.702 o
2 14 4 27.317 26.729 0.692 34.851 o
2 14 5 46.110 45.377 0.912 13.551 o
2 14 6 137.259 135.087 1.995 1.662 o
2 14 7 5.373 5.314 0.351 366.465 o
2 14 8 17.087 16.793 0.491 82.746 o
2 14 9 45.324 44.865 0.792 14.534 o
2 14 10 54.879 52.786 0.972 10.035 o
2 14 11 83.821 81.750 1.734 4.054 o
2 14 12 14.376 14.427 0.531 96.561 o
2 14 13 64.482 64.265 1.183 7.052 o
2 14 14 9.000 8.572 0.451 184.787 o
2 14 15 0.392 0.521 0.331 590.650 o
2 14 16 16.672 15.319 0.541 82.347 o
2 14 17 6.355 5.885 0.561 167.415 o
2 14 18 28.190 26.378 0.922 28.434 o
2 14 19 13.580 12.863 0.792 67.434 o
2 14 20 1.041 1.063 0.541 219.751 o
2 14 21 9.710 9.113 0.692 100.007 o
2 14 22 2.047 1.765 0.541 216.017 o
2 14 23 6.673 6.336 0.612 142.581 o
2 14 24 11.958 11.309 1.073 46.004 o
2 14 25 0.084 -0.090 0.622 167.871 o
2 14 26 13.137 12.863 0.662 85.599 o
2 14 27 28.354 26.207 1.273 21.217 o
2 15 0 1.600 1.554 0.371 455.734 o
2 15 1 19.097 17.836 0.752 53.121 o
2 15 2 66.792 63.002 1.434 6.405 o
2 15 3 56.678 53.698 1.454 8.167 o
2 15 4 47.676 46.229 0.932 12.829 o
2 15 5 5.034 5.033 0.401 311.164 o
2 15 6 4.912 4.742 0.401 316.198 o
2 15 7 2.902 2.767 0.371 424.079 o
2 15 8 9.753 9.083 0.431 181.912 o
2 15 9 5.688 6.176 0.471 226.494 o
2 15 10 109.846 107.546 2.326 2.335 o
2 15 11 17.969 17.565 0.571 70.166 o
2 15 12 8.615 8.472 0.461 184.981 o
2 15 13 0.559 0.592 0.341 555.309 o
2 15 14 37.150 34.609 1.143 17.144 o
2 15 15 9.566 9.665 0.632 113.369 o
2 15 16 46.793 47.572 1.424 10.481 o
2 15 17 30.390 30.438 0.942 24.701 o
2 15 18 6.178 6.306 0.561 167.196 o
2 15 19 66.435 65.709 1.694 5.840 o
2 15 20 71.111 70.250 2.496 4.142 o
2 15 21 9.668 9.555 0.682 101.489 o
2 15 22 3.181 3.439 0.541 207.124 o
2 15 23 0.047 -0.261 0.642 157.545 o
2 15 24 3.271 3.068 0.501 239.722 o
2 15 25 3.039 3.158 0.471 270.423 o
2 15 26 9.354 8.933 0.571 133.427 o
2 16 0 324.743 303.219 14.628 0.161 o
2 16 1 2.505 2.557 0.531 220.397 o
2 16 2 45.583 41.968 1.093 13.248 o
2 16 3 3.605 3.228 0.521 220.212 o
2 16 4 13.083 11.951 0.652 89.084 o
2 16 5 1.638 1.293 0.401 392.674 o
2 16 6 55.948 54.350 1.213 8.954 o
2 16 7 54.387 52.705 1.253 9.244 o
2 16 8 13.276 12.462 0.622 92.097 o
2 16 9 14.275 13.735 0.571 92.657 o
2 16 10 101.041 100.979 2.296 2.652 o
2 16 11 71.329 72.065 1.544 5.399 o
2 16 12 55.841 56.365 1.323 8.479 o
2 16 13 15.246 15.851 0.722 66.895 o
2 16 14 12.931 12.412 0.672 85.667 o
2 16 15 9.747 10.176 0.632 111.297 o
2 16 16 11.783 11.870 0.662 92.647 o
2 16 17 15.965 16.192 0.722 64.558 o
2 16 18 8.237 8.572 0.602 131.601 o
2 16 19 12.305 12.281 0.762 75.002 o
2 16 20 2.953 3.319 0.581 182.248 o
2 16 21 2.133 2.296 0.551 207.198 o
2 16 22 6.504 6.386 0.612 143.318 o
2 16 23 0.752 0.652 0.481 278.912 o
2 16 24 4.964 4.862 0.521 204.305 o
2 17 0 2.406 2.837 0.692 132.165 o
2 17 1 22.246 21.184 1.544 19.747 o
2 17 2 0.019 0.762 0.642 157.495 o
2 17 3 52.800 51.673 2.115 6.728 o
2 17 4 39.358 38.318 1.333 13.983 o
2 17 5 2.677 2.877 0.692 131.648 o
2 17 6 4.053 4.572 0.541 198.561 o
2 17 7 5.252 5.414 0.642 139.603 o
2 17 8 2.299 2.998 0.612 168.011 o
2 17 9 62.149 64.185 1.965 5.750 o
2 17 10 12.972 13.284 0.672 83.952 o
2 17 11 29.097 29.616 0.912 26.553 o
2 17 12 16.763 16.863 0.732 60.850 o
2 17 13 4.948 5.053 0.541 190.902 o
2 17 14 19.373 19.971 0.762 49.869 o
2 17 15 1.287 1.333 0.461 300.462 o
2 17 16 3.867 4.421 0.511 221.903 o
2 17 17 2.237 2.436 0.471 279.569 o
2 17 18 1.719 1.845 0.461 296.829 o
2 17 19 2.576 2.567 0.531 220.031 o
2 17 20 5.344 5.755 0.581 164.379 o
2 17 21 2.056 2.146 0.521 231.680 o
2 17 22 4.671 4.702 0.551 187.870 o
2 18 0 63.073 61.257 4.923 2.055 o
2 18 1 96.223 91.585 4.451 1.769 o
2 18 2 4.161 4.602 0.692 126.331 o
2 18 3 7.911 7.870 0.752 95.019 o
2 18 4 35.089 34.068 1.233 17.113 o
2 18 5 22.903 23.029 1.033 31.548 o
2 18 6 24.645 24.703 1.494 19.219 o
2 18 7 0.185 0.070 0.612 173.405 o
2 18 8 3.312 3.248 0.581 180.937 o
2 18 9 0.439 0.692 0.531 229.310 o
2 18 10 23.442 24.202 0.962 32.730 o
2 18 11 10.500 11.068 0.732 86.434 o
2 18 12 21.513 22.929 0.782 42.671 o
2 18 13 0.832 1.003 0.441 330.796 o
2 18 14 2.758 3.078 0.461 284.342 o
2 18 15 6.960 6.988 0.712 108.467 o
2 18 16 6.681 7.359 0.531 174.351 o
2 18 17 6.798 6.818 0.511 186.132 o
2 18 18 5.690 6.607 0.581 159.876 o
2 18 19 7.045 7.489 0.602 141.279 o
2 19 0 2.427 2.115 0.612 168.843 o
2 19 1 5.176 5.474 0.672 128.819 o
2 19 2 12.427 12.161 0.792 71.007 o
2 19 3 5.495 5.314 0.662 131.474 o
2 19 4 31.243 31.130 1.123 20.983 o
2 19 5 5.444 4.993 0.942 68.943 o
2 19 6 1.619 2.386 0.892 80.798 o
2 19 7 9.309 9.575 1.073 49.259 o
2 19 8 12.336 12.181 0.722 80.602 o
2 19 9 9.120 9.625 0.672 105.746 o
2 19 10 9.804 10.086 0.682 99.951 o
2 19 11 1.601 1.524 0.511 243.749 o
2 19 12 8.893 9.123 0.652 112.627 o
2 19 13 9.716 10.066 0.662 104.692 o
2 19 14 5.517 5.815 0.592 158.516 o
2 19 15 56.416 61.037 1.775 6.855 o
2 19 16 10.488 11.259 0.551 124.481 o
2 20 0 9.428 9.113 0.682 103.257 o
2 20 1 16.465 15.811 0.802 56.923 o
2 20 2 4.546 4.512 0.602 161.956 o
2 20 3 10.371 9.555 0.692 96.775 o
2 20 4 2.447 2.988 0.822 94.163 o
2 20 5 2.562 3.389 0.852 87.493 o
2 20 6 6.295 6.807 0.942 67.095 o
2 20 7 13.088 13.064 1.083 43.416 o
2 20 8 0.375 0.592 0.772 108.771 o
2 20 9 0.140 0.261 0.441 333.216 o
2 20 10 2.142 2.266 0.481 269.649 o
2 20 11 11.825 12.141 0.652 93.705 o
2 20 12 8.453 8.903 0.832 78.001 o
2 20 13 4.242 4.070 0.832 89.422 o
2 21 0 5.126 5.043 0.561 178.159 o
2 21 1 3.122 3.629 0.531 214.279 o
2 21 2 2.018 2.516 0.782 104.534 o
2 21 3 8.973 10.878 0.942 61.095 o
2 21 4 17.474 16.833 1.093 36.976 o
2 21 5 20.099 20.583 1.183 29.875 o
2 21 6 0.475 0.872 0.732 120.937 o
3 0 1 26.501 23.661 0.451 45.326 o
3 0 2 90.834 91.365 1.223 3.801 o
3 0 3 30.659 27.260 0.501 34.320 o
3 0 4 53.490 55.222 0.752 10.703 o
3 0 5 182.053 187.562 1.985 0.961 o
3 0 6 5.771 4.963 0.281 477.979 o
3 0 7 599.651 616.704 6.637 0.089 o
3 0 8 1062.250 1091.320 13.053 0.028 o
3 0 9 43.084 47.753 0.782 14.886 o
3 0 10 452.794 456.523 5.885 0.154 o
3 0 11 280.346 268.560 3.850 0.409 o
3 0 12 2.623 2.115 0.261 818.304 o
3 0 13 1.168 1.353 0.251 987.790 o
3 0 14 32.498 28.273 0.682 28.428 o
3 0 15 43.531 38.820 0.972 15.243 o
3 0 16 37.680 34.168 0.812 20.494 o
3 0 17 446.353 446.507 6.747 0.154 o
3 0 18 8.384 8.512 0.381 232.808 o
3 0 19 14.212 14.156 0.471 107.977 o
3 0 20 4.904 4.461 0.361 375.372 o
3 0 21 19.242 18.989 0.832 46.923 o
3 0 22 14.553 14.527 0.481 103.088 o
3 0 23 134.062 125.222 3.880 1.369 o
3 0 24 0.172 0.481 0.331 591.798 o
3 0 25 0.779 0.832 0.371 467.318 o
3 0 26 0.147 -0.020 0.993 65.840 o
3 0 27 48.414 44.474 1.343 10.856 o
3 0 28 3.886 3.840 0.662 139.190 o
3 0 29 31.851 31.471 2.115 10.188 o
3 0 30 1.587 1.023 0.612 171.735 o
3 0 31 2.047 1.103 0.842 90.734 o
3 0 32 0.371 1.043 0.581 191.451 o
3 0 33 14.295 14.798 1.083 41.431 o
3 0 34 8.782 8.833 0.652 113.756 o
3 0 35 0.662 0.471 0.501 257.433 o
3 1 0 112.248 120.911 1.323 2.432 o
3 1 1 566.805 605.335 6.096 0.097 o
3 1 2 607.536 675.224 7.519 0.081 o
3 1 3 675.536 707.166 7.168 0.069 o
3 1 4 76.666 80.005 0.942 5.291 o
3 1 5 6.604 6.597 0.281 403.556 o
3 1 6 4.613 4.281 0.261 611.621 o
3 1 7 874.973 904.473 9.905 0.041 o
3 1 8 468.556 475.441 5.223 0.146 o
3 1 9 348.453 351.322 3.830 0.266 o
3 1 10 228.532 217.699 2.466 0.641 o
3 1 11 133.019 125.392 1.614 1.874 o
3 1 12 0.724 1.223 0.241 1092.220 o
3 1 13 168.362 162.036 2.085 1.152 o
3 1 14 14.929 13.765 0.391 117.862 o
3 1 15 115.852 113.291 1.634 2.356 o
3 1 16 7.496 6.627 0.361 284.629 o
3 1 17 0.941 1.313 0.351 517.809 o
3 1 18 50.740 46.580 1.203 10.764 o
3 1 19 146.899 158.718 2.496 1.324 o
3 1 20 88.831 84.898 2.446 3.182 o
3 1 21 158.860 141.864 2.206 1.324 o
3 1 22 98.977 95.535 3.128 2.335 o
3 1 23 25.119 23.942 0.742 38.163 o
3 1 24 96.014 86.993 1.835 3.305 o
3 1 25 3.186 3.198 0.441 303.487 o
3 1 26 42.618 36.664 0.932 16.326 o
3 1 27 54.317 50.500 1.273 9.387 o
3 1 28 1.001 0.802 0.612 172.665 o
3 1 29 18.000 18.377 1.263 29.305 o
3 1 30 8.144 7.950 0.812 82.925 o
3 1 31 12.676 13.023 0.942 54.246 o
3 1 32 5.683 5.985 0.812 89.794 o
3 1 33 30.680 29.526 1.544 15.786 o
3 1 34 3.818 4.291 0.581 176.334 o
3 1 35 1.376 1.674 0.511 244.276 o
3 2 0 48.530 48.545 0.672 13.294 o
3 2 1 211.483 223.865 2.336 0.699 o
3 2 2 66.456 65.408 0.792 7.336 o
3 2 3 7.556 7.018 0.281 358.171 o
3 2 4 472.716 504.756 5.113 0.139 o
3 2 5 430.922 454.648 4.642 0.169 o
3 2 6 243.643 263.938 3.028 0.511 o
3 2 7 406.828 418.014 4.421 0.193 o
3 2 8 207.537 220.777 2.797 0.703 o
3 2 9 181.166 190.038 2.336 0.938 o
3 2 10 7.341 9.214 0.431 212.590 o
3 2 11 292.026 298.296 3.579 0.370 o
3 2 12 208.702 205.097 2.857 0.728 o
3 2 13 81.004 78.472 1.203 4.796 o
3 2 14 86.852 82.933 1.584 3.988 o
3 2 15 3.191 3.128 0.311 561.663 o
3 2 16 172.112 168.042 2.968 1.020 o
3 2 17 331.451 331.080 4.512 0.286 o
3 2 18 211.532 202.590 2.948 0.717 o
3 2 19 118.636 116.429 3.158 1.797 o
3 2 20 48.152 45.006 1.474 10.227 o
3 2 21 3.321 3.619 0.391 370.915 o
3 2 22 71.044 66.090 2.115 4.795 o
3 2 23 182.290 175.751 6.076 0.663 o
3 2 24 19.377 17.695 0.712 55.333 o
3 2 25 61.285 54.460 1.484 7.415 o
3 2 26 1.721 1.474 0.411 372.747 o
3 2 27 14.389 12.863 0.561 95.759 o
3 2 28 11.567 12.181 0.832 68.066 o
3 2 29 29.236 28.463 1.825 13.216 o
3 2 30 18.166 17.786 0.842 49.105 o
3 2 31 4.280 4.060 0.622 154.568 o
3 2 32 3.786 3.599 0.602 167.207 o
3 2 33 9.027 10.016 0.862 71.438 o
3 2 34 7.325 7.168 0.612 137.006 o
3 2 35 7.653 7.890 0.602 136.774 o
3 3 0 36.440 36.634 0.541 23.183 o
3 3 1 109.741 116.820 1.454 2.520 o
3 3 2 232.922 248.298 2.627 0.572 o
3 3 3 36.170 37.296 0.622 22.391 o
3 3 4 242.825 258.293 3.078 0.519 o
3 3 5 307.159 320.573 4.662 0.318 o
3 3 6 29.439 29.155 0.551 33.737 o
3 3 7 278.439 283.628 3.168 0.412 o
3 3 8 908.165 966.232 12.011 0.037 o
3 3 9 134.951 136.992 1.664 1.737 o
3 3 10 41.156 41.757 0.722 17.361 o
3 3 11 12.655 13.214 0.461 124.107 o
3 3 12 49.948 46.630 0.742 12.884 o
3 3 13 199.204 201.678 2.617 0.790 o
3 3 14 105.286 103.696 1.815 2.712 o
3 3 15 68.924 67.493 1.203 6.326 o
3 3 16 4.670 4.542 0.331 433.274 o
3 3 17 9.971 9.174 0.391 196.594 o
3 3 18 93.222 87.144 1.644 3.537 o
3 3 19 3.617 3.138 0.341 467.775 o
3 3 20 66.015 59.332 1.434 6.684 o
3 3 21 20.812 18.738 0.702 51.746 o
3 3 22 71.894 67.223 1.724 5.285 o
3 3 23 102.298 92.046 2.005 2.896 o
3 3 24 25.512 23.430 0.682 39.976 o
3 3 25 38.120 34.629 1.063 17.547 o
3 3 26 89.083 79.805 1.514 4.006 o
3 3 27 3.973 3.960 0.481 248.332 o
3 3 28 12.128 11.149 0.742 79.859 o
3 3 29 5.891 5.544 0.642 136.723 o
3 3 30 31.597 29.987 1.343 17.926 o
3 3 31 2.889 2.817 0.581 183.455 o
3 3 32 20.192 20.422 1.173 30.195 o
3 3 33 8.127 8.492 0.642 120.205 o
3 3 34 0.054 -0.261 0.852 89.316 o
3 3 35 0.540 0.983 0.551 212.703 o
3 4 0 164.676 165.034 2.166 1.164 o
3 4 1 46.582 50.048 0.872 12.858 o
3 4 2 120.807 122.505 1.464 2.174 o
3 4 3 184.971 187.642 2.296 0.924 o
3 4 4 704.404 764.684 9.895 0.060 o
3 4 5 52.721 49.828 0.822 11.357 o
3 4 6 1175.770 1221.450 18.588 0.022 o
3 4 7 375.041 388.658 4.672 0.222 o
3 4 8 307.148 311.921 4.121 0.331 o
3 4 9 29.851 29.345 0.592 32.335 o
3 4 10 76.165 76.777 1.083 5.345 o
3 4 11 5.034 5.203 0.371 348.145 o
3 4 12 310.965 322.869 4.702 0.311 o
3 4 13 54.632 52.916 0.942 10.164 o
3 4 14 8.893 8.602 0.411 206.309 o
3 4 15 83.774 80.667 1.414 4.363 o
3 4 16 146.204 137.814 2.396 1.461 o
3 4 17 11.437 11.079 0.381 168.080 o
3 4 18 253.225 261.782 4.191 0.461 o
3 4 19 0.139 0.341 0.321 629.694 o
3 4 20 3.294 3.268 0.361 430.831 o
3 4 21 12.669 12.201 0.471 125.619 o
3 4 22 59.247 56.104 1.464 7.623 o
3 4 23 3.034 2.587 0.421 336.156 o
3 4 24 38.489 36.373 0.993 17.681 o
3 4 25 2.253 2.105 0.411 364.204 o
3 4 26 0.343 0.612 0.391 423.292 o
3 4 27 11.696 10.717 0.983 53.680 o
3 4 28 25.430 24.924 1.765 15.039 o
3 4 29 4.417 4.231 0.622 153.694 o
3 4 30 26.470 24.653 1.464 19.077 o
3 4 31 0.981 0.932 0.551 212.105 o
3 4 32 2.791 3.018 0.571 189.647 o
3 4 33 3.996 4.020 0.571 181.838 o
3 4 34 8.148 8.492 0.752 93.499 o
3 4 35 0.586 0.411 0.652 152.548 o
3 5 0 1.184 1.343 0.301 694.909 o
3 5 1 5.183 4.612 0.341 397.808 o
3 5 2 531.820 552.569 7.108 0.109 o
3 5 3 163.598 173.365 2.206 1.134 o
3 5 4 648.103 686.152 9.194 0.072 o
3 5 5 94.064 92.538 1.424 3.510 o
3 5 6 78.780 80.778 1.133 4.933 o
3 5 7 25.957 26.217 0.662 37.869 o
3 5 8 611.341 641.488 9.595 0.079 o
3 5 9 10.262 10.276 0.421 172.769 o
3 5 10 228.808 236.898 3.098 0.588 o
3 5 11 163.038 165.665 2.968 1.094 o
3 5 12 86.727 91.625 1.895 3.551 o
3 5 13 8.528 8.512 0.401 218.137 o
3 5 14 386.028 397.401 6.396 0.199 o
3 5 15 12.549 11.710 0.411 143.522 o
3 5 16 67.972 70.662 1.163 6.317 o
3 5 17 27.495 26.628 0.752 33.150 o
3 5 18 41.020 40.705 0.762 17.402 o
3 5 19 62.575 60.455 1.353 7.186 o
3 5 20 233.558 221.298 4.441 0.546 o
3 5 21 43.139 40.474 1.073 14.394 o
3 5 22 28.461 26.709 0.872 29.197 o
3 5 23 10.836 10.136 0.521 134.260 o
3 5 24 5.271 5.083 0.441 264.109 o
3 5 25 5.814 5.384 0.461 237.477 o
3 5 26 29.096 27.080 1.163 22.591 o
3 5 27 0.055 0.361 0.541 221.264 o
3 5 28 6.238 6.266 0.642 133.717 o
3 5 29 11.671 11.870 1.083 45.315 o
3 5 30 2.128 2.176 0.561 200.285 o
3 5 31 21.237 19.711 1.454 22.206 o
3 5 32 15.270 15.730 1.033 42.856 o
3 5 33 3.279 3.028 0.531 215.110 o
3 5 34 4.984 5.243 0.581 167.838 o
3 6 0 164.748 166.046 2.025 1.171 o
3 6 1 27.923 26.408 0.602 36.544 o
3 6 2 164.042 166.448 2.166 1.163 o
3 6 3 194.470 200.695 2.416 0.827 o
3 6 4 125.437 123.267 1.714 2.016 o
3 6 5 159.131 161.625 2.146 1.231 o
3 6 6 173.076 174.839 2.406 1.038 o
3 6 7 402.134 421.823 6.106 0.185 o
3 6 8 24.426 25.395 0.672 40.474 o
3 6 9 59.845 59.723 0.993 8.415 o
3 6 10 318.136 354.761 5.795 0.272 o
3 6 11 42.198 44.344 1.103 13.866 o
3 6 12 94.050 98.403 1.755 3.208 o
3 6 13 19.633 19.630 0.521 65.108 o
3 6 14 3.759 3.770 0.311 526.453 o
3 6 15 82.235 84.577 1.664 4.125 o
3 6 16 31.868 31.932 0.662 27.609 o
3 6 17 46.858 47.312 0.972 12.719 o
3 6 18 36.382 35.331 0.972 19.156 o
3 6 19 3.357 3.178 0.321 525.791 o
3 6 20 16.904 16.673 0.742 59.912 o
3 6 21 73.127 67.132 1.785 5.109 o
3 6 22 128.324 115.056 2.737 1.785 o
3 6 23 53.220 46.510 1.193 10.281 o
3 6 24 75.677 69.960 3.379 2.997 o
3 6 25 17.302 16.573 1.033 40.203 o
3 6 26 31.247 29.125 1.434 17.031 o
3 6 27 34.581 38.569 2.035 9.879 o
3 6 28 33.898 33.957 4.101 3.418 o
3 6 29 3.454 3.740 0.742 112.982 o
3 6 30 19.599 18.778 1.925 14.717 o
3 6 31 0.304 0.952 0.622 167.654 o
3 6 32 8.978 9.424 1.213 39.837 o
3 6 33 1.256 1.724 0.592 183.414 o
3 6 34 2.184 1.975 0.561 200.430 o
3 7 0 50.285 46.169 0.782 12.697 o
3 7 1 15.886 14.998 0.421 102.279 o
3 7 2 92.179 90.843 1.504 3.588 o
3 7 3 299.798 296.090 3.920 0.355 o
3 7 4 33.179 34.047 0.672 25.370 o
3 7 5 99.148 96.708 1.384 3.229 o
3 7 6 8.348 8.181 0.381 236.385 o
3 7 7 64.127 64.997 1.113 7.176 o
3 7 8 4.477 4.341 0.341 423.641 o
3 7 9 339.108 367.805 11.580 0.179 o
3 7 10 189.677 212.766 4.201 0.714 o
3 7 11 152.915 165.054 3.028 1.169 o
3 7 12 155.381 171.891 2.687 1.161 o
3 7 13 103.658 110.875 2.286 2.460 o
3 7 14 157.547 168.854 3.599 1.048 o
3 7 15 92.947 97.220 1.875 3.202 o
3 7 16 1.438 2.035 0.341 535.028 o
3 7 17 9.773 9.755 0.421 181.879 o
3 7 18 10.169 9.946 0.431 171.871 o
3 7 19 133.972 142.366 2.336 1.597 o
3 7 20 66.443 70.992 1.634 5.714 o
3 7 21 127.104 136.440 2.346 1.735 o
3 7 22 45.007 45.036 3.138 4.750 o
3 7 23 14.416 14.658 0.842 58.739 o
3 7 24 72.531 67.443 4.612 2.113 o
3 7 25 15.327 12.973 0.972 48.287 o
3 7 26 3.938 3.659 0.722 118.177 o
3 7 27 17.345 17.866 2.296 11.091 o
3 7 28 11.602 10.758 1.564 24.139 o
3 7 29 4.694 4.050 0.692 125.637 o
3 7 30 2.641 2.547 0.642 152.796 o
3 7 31 20.699 20.463 2.978 6.711 o
3 7 32 3.628 2.978 0.782 102.404 o
3 7 33 7.490 6.888 0.792 89.197 o
3 8 0 2.161 2.938 0.351 483.565 o
3 8 1 450.148 449.976 6.707 0.152 o
3 8 2 42.585 40.875 0.832 16.173 o
3 8 3 62.100 61.077 1.243 7.443 o
3 8 4 57.192 55.422 1.173 8.768 o
3 8 5 585.391 600.903 9.835 0.086 o
3 8 6 0.976 1.935 0.371 460.800 o
3 8 7 208.480 215.824 3.589 0.672 o
3 8 8 71.186 73.539 2.496 4.062 o
3 8 9 33.762 32.413 1.293 17.257 o
3 8 10 178.881 182.970 3.860 0.854 o
3 8 11 257.174 282.686 9.113 0.301 o
3 8 12 39.142 39.922 0.952 16.956 o
3 8 13 142.729 145.724 2.907 1.372 o
3 8 14 37.096 37.757 1.153 16.434 o
3 8 15 13.768 13.896 0.571 94.680 o
3 8 16 4.337 4.311 0.421 305.197 o
3 8 17 123.496 134.746 2.186 1.842 o
3 8 18 4.179 4.461 0.361 394.079 o
3 8 19 49.852 51.312 1.885 7.800 o
3 8 20 15.193 15.219 0.632 77.835 o
3 8 21 26.866 27.681 0.882 29.992 o
3 8 22 76.752 83.785 1.805 4.319 o
3 8 23 29.932 30.318 2.196 9.949 o
3 8 24 54.646 55.723 4.742 2.302 o
3 8 25 4.696 4.030 1.233 41.624 o
3 8 26 18.402 18.608 2.697 8.195 o
3 8 27 4.041 3.980 0.702 124.043 o
3 8 28 4.779 5.354 0.712 117.264 o
3 8 29 18.133 17.334 2.607 8.771 o
3 8 30 1.802 1.594 0.592 182.437 o
3 8 31 4.425 4.883 0.652 139.773 o
3 8 32 4.856 5.424 0.632 145.175 o
3 9 0 0.299 0.511 0.311 669.714 o
3 9 1 80.732 75.805 1.313 4.811 o
3 9 2 28.024 26.839 0.682 34.144 o
3 9 3 91.487 90.422 1.554 3.598 o
3 9 4 64.213 63.282 1.604 6.329 o
3 9 5 201.216 207.804 2.627 0.766 o
3 9 6 190.937 196.645 2.466 0.854 o
3 9 7 81.088 84.958 1.363 4.438 o
3 9 8 53.060 55.623 1.133 9.613 o
3 9 9 166.222 164.312 2.817 1.091 o
3 9 10 108.252 105.992 1.825 2.589 o
3 9 11 26.623 24.513 0.812 33.742 o
3 9 12 66.523 63.343 1.323 6.614 o
3 9 13 90.573 87.836 2.176 3.269 o
3 9 14 16.378 17.375 0.592 74.148 o
3 9 15 102.182 103.706 2.276 2.594 o
3 9 16 11.231 10.878 0.571 116.093 o
3 9 17 23.911 25.526 0.762 38.061 o
3 9 18 44.603 41.647 1.303 12.297 o
3 9 19 10.640 9.344 0.551 129.743 o
3 9 20 6.572 6.096 0.501 197.395 o
3 9 21 40.851 38.629 2.095 8.748 o
3 9 22 8.886 8.101 0.541 149.829 o
3 9 23 3.005 2.707 0.501 242.788 o
3 9 24 3.771 4.181 0.732 114.934 o
3 9 25 65.478 58.119 2.186 5.298 o
3 9 26 3.556 3.950 0.712 121.864 o
3 9 27 29.430 29.937 4.381 3.112 o
3 9 28 5.643 4.983 1.514 27.635 o
3 9 29 1.547 1.454 0.592 183.120 o
3 9 30 2.197 2.647 0.682 136.515 o
3 9 31 8.283 7.660 0.802 84.693 o
3 9 32 6.798 5.855 0.712 110.742 o
3 10 0 123.987 114.023 1.855 2.105 o
3 10 1 174.652 167.099 2.537 1.044 o
3 10 2 19.696 18.989 0.531 65.242 o
3 10 3 14.203 13.545 0.421 119.043 o
3 10 4 63.054 60.746 0.932 7.948 o
3 10 5 135.017 138.235 2.075 1.658 o
3 10 6 327.787 342.750 4.943 0.279 o
3 10 7 24.950 24.693 0.682 39.870 o
3 10 8 36.493 36.373 0.812 20.544 o
3 10 9 34.736 32.564 1.053 19.759 o
3 10 10 44.255 41.517 1.273 12.589 o
3 10 11 138.749 131.387 2.105 1.648 o
3 10 12 30.745 29.526 1.073 22.515 o
3 10 13 76.430 72.647 1.744 4.747 o
3 10 14 10.596 9.946 0.551 128.046 o
3 10 15 16.723 16.292 0.592 74.852 o
3 10 16 38.662 36.935 1.203 15.540 o
3 10 17 50.819 47.652 1.584 9.054 o
3 10 18 27.222 25.917 1.083 25.727 o
3 10 19 44.315 42.158 1.133 13.357 o
3 10 20 78.394 72.155 2.035 4.299 o
3 10 21 64.056 60.676 2.065 5.539 o
3 10 22 26.444 23.530 2.587 8.200 o
3 10 23 6.656 6.467 0.672 121.715 o
3 10 24 25.842 24.724 3.599 4.576 o
3 10 25 19.696 16.913 1.173 31.825 o
3 10 26 9.067 7.780 0.912 66.690 o
3 10 27 1.065 1.474 0.732 120.484 o
3 10 28 35.723 31.601 1.434 15.179 o
3 10 29 5.195 5.113 0.752 105.367 o
3 10 30 0.261 0.150 0.571 198.560 o
3 10 31 5.458 4.652 0.672 129.253 o
3 11 0 16.580 15.700 0.531 83.055 o
3 11 1 55.479 49.156 0.972 10.296 o
3 11 2 144.912 141.193 3.459 1.278 o
3 11 3 39.777 38.379 1.023 16.419 o
3 11 4 129.034 130.906 2.186 1.783 o
3 11 5 42.574 41.416 1.093 14.288 o
3 11 6 49.106 48.645 1.013 11.730 o
3 11 7 18.913 17.776 0.612 63.611 o
3 11 8 86.752 90.532 1.624 3.771 o
3 11 9 62.911 62.871 1.494 6.709 o
3 11 10 136.029 136.460 3.629 1.351 o
3 11 11 1.164 0.862 0.371 464.201 o
3 11 12 1.148 0.732 0.371 464.901 o
3 11 13 3.161 2.667 0.401 365.022 o
3 11 14 78.676 77.018 1.875 4.328 o
3 11 15 72.478 71.163 1.875 4.888 o
3 11 16 116.276 114.885 2.156 2.172 o
3 11 17 23.301 21.054 1.353 23.266 o
3 11 18 18.803 16.222 1.313 27.837 o
3 11 19 2.313 2.456 0.571 192.445 o
3 11 20 37.819 34.218 1.003 18.398 o
3 11 21 35.669 37.416 1.664 12.378 o
3 11 22 14.697 13.655 1.163 37.286 o
3 11 23 5.155 4.983 0.902 75.159 o
3 11 24 11.289 11.199 0.742 82.242 o
3 11 25 32.439 30.569 2.677 7.153 o
3 11 26 36.426 31.912 1.484 14.433 o
3 11 27 29.730 25.105 1.293 20.486 o
3 11 28 11.028 9.063 0.872 67.351 o
3 11 29 3.824 3.308 0.672 136.185 o
3 11 30 2.325 1.684 0.581 187.189 o
3 12 0 222.330 209.338 3.298 0.647 o
3 12 1 46.106 41.938 0.922 14.072 o
3 12 2 61.668 56.074 1.183 7.986 o
3 12 3 31.438 31.160 1.063 21.794 o
3 12 4 15.028 14.577 0.541 91.461 o
3 12 5 8.495 7.630 0.431 207.603 o
3 12 6 144.865 146.967 2.236 1.447 o
3 12 7 13.404 13.555 0.561 98.956 o
3 12 8 15.178 14.427 0.561 88.358 o
3 12 9 180.760 188.755 3.228 0.881 o
3 12 10 123.328 125.402 2.817 1.760 o
3 12 11 115.409 110.875 2.637 2.070 o
3 12 12 56.702 54.691 1.644 7.538 o
3 12 13 16.134 15.510 0.571 80.742 o
3 12 14 4.316 4.471 0.421 304.278 o
3 12 15 3.956 3.399 0.521 217.290 o
3 12 16 34.963 31.260 1.454 15.256 o
3 12 17 12.709 11.890 0.792 70.654 o
3 12 18 12.701 11.359 0.772 73.859 o
3 12 19 3.961 3.439 0.802 96.774 o
3 12 20 19.774 18.588 1.213 29.788 o
3 12 21 5.083 5.023 0.622 149.260 o
3 12 22 16.143 14.868 0.792 59.414 o
3 12 23 2.400 2.366 0.541 213.485 o
3 12 24 23.301 21.305 1.434 21.488 o
3 12 25 0.466 0.752 0.501 257.516 o
3 12 26 0.990 0.291 0.652 152.349 o
3 12 27 2.349 2.256 0.672 140.606 o
3 12 28 12.583 10.637 0.842 66.392 o
3 13 0 3.608 3.439 0.391 367.297 o
3 13 1 101.732 92.457 1.554 3.133 o
3 13 2 78.215 70.270 1.404 5.106 o
3 13 3 36.945 33.737 1.013 18.830 o
3 13 4 115.895 108.358 2.166 2.248 o
3 13 5 66.069 62.440 1.704 5.999 o
3 13 6 59.336 57.197 1.213 8.178 o
3 13 7 15.766 15.480 0.581 81.108 o
3 13 8 17.262 16.673 0.592 72.284 o
3 13 9 79.031 79.524 1.765 4.352 o
3 13 10 49.498 47.693 1.734 8.646 o
3 13 11 4.357 4.000 0.421 307.299 o
3 13 12 9.122 8.692 0.491 165.101 o
3 13 13 9.329 8.602 0.481 167.700 o
3 13 14 27.651 26.739 1.013 26.680 o
3 13 15 13.869 13.174 0.682 79.648 o
3 13 16 34.354 33.336 1.183 18.147 o
3 13 17 8.493 7.960 0.902 68.701 o
3 13 18 1.099 0.912 0.762 111.335 o
3 13 19 23.342 21.846 1.283 24.684 o
3 13 20 13.780 13.204 1.033 45.891 o
3 13 21 5.110 4.261 0.802 94.401 o
3 13 22 0.334 0.291 0.662 148.077 o
3 13 23 11.475 11.159 0.962 55.470 o
3 13 24 14.809 13.725 0.782 64.612 o
3 13 25 6.161 6.156 0.571 163.020 o
3 13 26 15.177 13.976 1.744 18.781 o
3 13 27 0.048 0.190 0.561 205.763 o
3 14 0 240.379 225.730 3.750 0.548 o
3 14 1 47.635 43.311 1.063 12.618 o
3 14 2 36.319 32.092 0.812 21.985 o
3 14 3 19.510 16.953 0.692 57.254 o
3 14 4 8.278 7.519 0.431 211.348 o
3 14 5 6.105 5.725 0.411 274.674 o
3 14 6 81.841 82.442 1.845 4.040 o
3 14 7 1.385 1.895 0.391 412.014 o
3 14 8 21.140 20.994 0.642 51.978 o
3 14 9 27.837 27.651 0.812 30.747 o
3 14 10 65.371 64.606 1.845 5.703 o
3 14 11 3.315 3.519 0.441 300.136 o
3 14 12 82.079 76.707 1.624 4.396 o
3 14 13 55.759 51.111 2.496 5.518 o
3 14 14 17.828 18.447 0.922 44.363 o
3 14 15 20.206 18.969 0.932 40.393 o
3 14 16 27.625 27.260 1.103 24.587 o
3 14 17 19.732 19.701 0.922 41.004 o
3 14 18 17.022 16.613 1.143 35.209 o
3 14 19 21.540 20.503 1.213 28.007 o
3 14 20 4.117 3.840 0.782 101.035 o
3 14 21 15.119 14.798 1.043 42.934 o
3 14 22 36.958 35.662 1.504 13.600 o
3 14 23 3.754 4.712 0.772 103.427 o
3 14 24 14.647 15.119 1.013 45.127 o
3 14 25 1.130 1.674 0.672 142.730 o
3 15 0 4.424 4.572 0.481 240.953 o
3 15 1 12.546 11.830 0.531 114.384 o
3 15 2 9.378 8.612 0.561 137.526 o
3 15 3 40.041 36.073 0.952 17.413 o
3 15 4 35.927 32.213 0.902 21.087 o
3 15 5 10.836 10.818 0.531 129.002 o
3 15 6 18.514 18.608 0.612 63.560 o
3 15 7 17.981 17.585 0.602 67.516 o
3 15 8 17.996 17.826 0.632 64.613 o
3 15 9 37.920 37.196 1.063 17.078 o
3 15 10 23.418 23.260 0.742 41.142 o
3 15 11 27.084 26.729 0.882 30.237 o
3 15 12 19.421 19.450 0.772 49.679 o
3 15 13 35.788 35.401 1.203 16.902 o
3 15 14 24.231 24.182 1.013 30.488 o
3 15 15 12.104 11.931 0.792 72.063 o
3 15 16 20.106 19.079 0.902 41.891 o
3 15 17 0.023 0.030 0.531 229.728 o
3 15 18 7.039 6.868 0.882 74.554 o
3 15 19 1.548 1.213 0.692 134.451 o
3 15 20 18.428 17.976 1.103 35.172 o
3 15 21 3.914 4.772 0.752 108.366 o
3 15 22 2.933 2.857 0.692 131.183 o
3 15 23 4.881 5.574 0.762 103.008 o
3 15 24 37.437 39.251 1.494 13.099 o
3 16 0 24.715 22.488 0.993 31.405 o
3 16 1 22.686 20.292 0.952 35.882 o
3 16 2 4.904 4.341 0.642 143.020 o
3 16 3 7.859 7.028 0.712 105.510 o
3 16 4 17.337 15.740 0.892 48.879 o
3 16 5 10.350 10.006 0.792 78.697 o
3 16 6 1.627 1.694 0.481 274.029 o
3 16 7 27.581 27.260 1.023 26.318 o
3 16 8 15.270 15.008 0.692 71.134 o
3 16 9 3.291 3.228 0.501 239.003 o
3 16 10 15.896 15.570 0.762 61.830 o
3 16 11 46.416 46.710 1.674 9.441 o
3 16 12 11.608 11.449 0.762 78.003 o
3 16 13 44.327 44.073 2.045 8.250 o
3 16 14 28.585 28.242 1.053 24.645 o
3 16 15 10.489 11.088 0.782 78.499 o
3 16 16 7.409 7.349 0.762 94.939 o
3 16 17 5.529 5.705 0.832 86.353 o
3 16 18 0.423 0.170 0.672 143.684 o
3 16 19 8.966 8.873 0.882 69.861 o
3 16 20 2.687 3.419 0.712 124.059 o
3 16 21 16.768 17.776 1.033 40.131 o
3 16 22 9.789 9.605 0.832 74.528 o
3 17 0 3.643 3.208 0.612 163.376 o
3 17 1 53.027 47.121 1.664 8.457 o
3 17 2 18.061 16.172 0.872 48.699 o
3 17 3 113.998 106.423 2.466 2.203 o
3 17 4 5.067 5.364 0.672 129.371 o
3 17 5 24.629 23.230 1.013 30.556 o
3 17 6 2.002 1.935 0.622 164.733 o
3 17 7 21.467 21.565 1.043 33.161 o
3 17 8 5.611 5.685 0.521 195.668 o
3 17 9 34.850 36.073 0.972 19.761 o
3 17 10 5.157 5.173 0.521 201.505 o
3 17 11 1.920 1.965 0.551 208.499 o
3 17 12 4.549 4.331 0.602 162.353 o
3 17 13 18.088 17.826 0.852 48.577 o
3 17 14 3.599 4.181 0.602 166.789 o
3 17 15 49.138 50.450 1.865 8.011 o
3 17 16 1.134 1.434 0.521 236.162 o
3 17 17 10.188 10.226 0.912 63.099 o
3 17 18 5.548 5.865 0.792 94.361 o
3 17 19 7.569 8.903 0.852 76.587 o
3 17 20 4.218 4.271 0.692 126.618 o
3 18 0 0.241 0.571 0.521 238.446 o
3 18 1 24.308 23.079 0.952 32.748 o
3 18 2 0.518 0.722 0.521 238.084 o
3 18 3 13.665 13.214 0.782 67.930 o
3 18 4 7.366 7.198 0.692 112.027 o
3 18 5 22.443 21.686 1.343 23.756 o
3 18 6 16.872 16.994 0.872 49.954 o
3 18 7 17.438 17.665 1.123 35.301 o
3 18 8 15.094 15.389 0.652 75.553 o
3 18 9 9.413 9.364 0.561 134.801 o
3 18 10 11.116 11.790 0.782 76.016 o
3 18 11 21.331 22.157 0.892 38.754 o
3 18 12 4.160 5.063 0.592 167.473 o
3 18 13 12.833 13.755 0.742 74.131 o
3 18 14 4.152 4.512 0.581 174.159 o
3 18 15 2.690 2.506 0.551 204.585 o
3 18 16 4.762 4.943 0.752 106.489 o
3 18 17 5.121 5.695 0.752 104.883 o
3 19 0 1.137 1.053 0.491 266.216 o
3 19 1 0.395 0.231 0.481 279.818 o
3 19 2 7.316 6.908 0.632 130.812 o
3 19 3 11.587 11.840 0.742 80.428 o
3 19 4 18.798 18.357 0.852 47.000 o
3 19 5 2.548 2.657 0.571 191.266 o
3 19 6 0.116 0.180 0.521 238.618 o
3 19 7 1.566 0.872 0.521 235.743 o
3 19 8 14.352 13.966 1.103 40.629 o
3 19 9 1.362 1.744 0.491 264.202 o
3 19 10 2.873 3.018 0.511 233.758 o
3 19 11 7.905 7.930 0.612 131.908 o
3 19 12 10.757 11.239 0.662 97.996 o
3 19 13 6.228 6.416 0.571 161.772 o
3 20 0 49.380 46.199 2.015 7.676 o
3 20 1 1.386 2.135 0.511 243.416 o
3 20 2 16.889 16.142 1.153 35.066 o
3 20 3 8.180 8.221 0.622 126.544 o
3 20 4 5.549 5.474 0.782 96.971 o
3 20 5 1.611 1.825 0.501 252.772 o
3 20 6 4.074 3.710 0.531 208.090 o
3 20 7 7.129 7.710 0.882 73.777 o
3 20 8 1.139 1.043 0.732 120.576 o
4 0 0 1950.520 2002.490 48.124 0.007 o
4 0 1 38.728 39.491 0.682 19.530 o
4 0 2 197.317 195.883 2.286 0.831 o
4 0 3 25.846 24.363 0.531 43.520 o
4 0 4 109.715 104.579 1.504 2.682 o
4 0 5 17.266 15.761 0.431 90.832 o
4 0 6 135.925 131.478 1.765 1.749 o
4 0 7 1.348 1.103 0.271 850.229 o
4 0 8 85.007 79.775 1.454 4.283 o
4 0 9 166.115 156.622 2.416 1.163 o
4 0 10 162.223 163.941 2.867 1.118 o
4 0 11 2.823 2.877 0.361 445.985 o
4 0 12 64.132 62.109 1.093 7.401 o
4 0 13 12.059 11.670 0.431 143.076 o
4 0 14 0.564 0.361 0.281 818.289 o
4 0 15 9.312 8.472 0.391 211.814 o
4 0 16 175.830 179.782 3.048 0.950 o
4 0 17 111.552 113.682 2.396 2.204 o
4 0 18 309.926 320.974 4.832 0.312 o
4 0 19 9.118 8.572 0.531 149.996 o
4 0 20 3.147 2.887 0.411 347.652 o
4 0 21 45.027 48.605 1.303 11.351 o
4 0 22 46.252 48.715 1.674 9.308 o
4 0 23 3.241 3.078 0.391 377.180 o
4 0 24 14.579 15.299 0.692 72.770 o
4 0 25 2.957 2.827 0.421 335.614 o
4 0 26 3.726 3.960 0.511 224.719 o
4 0 27 96.292 105.681 6.527 1.060 o
4 0 28 4.980 5.614 0.531 194.781 o
4 0 29 1.299 1.594 0.571 196.411 o
4 0 30 25.257 24.102 1.734 15.550 o
4 0 31 0.220 0.642 0.531 229.530 o
4 0 32 0.007 -0.271 0.852 89.316 o
4 0 33 0.133 -0.080 0.812 98.353 o
4 1 0 0.320 0.571 0.261 950.315 o
4 1 1 82.344 82.632 1.283 4.498 o
4 1 2 68.917 68.235 1.053 6.501 o
4 1 3 27.573 26.959 0.561 37.642 o
4 1 4 159.937 155.469 2.105 1.256 o
4 1 5 31.759 28.934 0.581 30.549 o
4 1 6 86.282 84.026 1.223 4.254 o
4 1 7 108.317 100.638 1.293 2.858 o
4 1 8 435.556 425.914 5.324 0.171 o
4 1 9 30.055 29.015 0.622 31.712 o
4 1 10 212.988 212.596 2.907 0.693 o
4 1 11 367.655 361.699 4.832 0.236 o
4 1 12 145.479 137.573 2.316 1.484 o
4 1 13 38.103 36.163 0.812 19.675 o
4 1 14 226.028 228.778 3.740 0.585 o
4 1 15 21.137 20.673 0.491 60.681 o
4 1 16 23.035 22.147 0.682 45.147 o
4 1 17 79.998 83.815 1.795 4.148 o
4 1 18 7.510 7.589 0.481 191.700 o
4 1 19 85.915 88.287 2.266 3.367 o
4 1 20 33.359 33.295 0.852 23.039 o
4 1 21 8.720 9.224 0.501 162.251 o
4 1 22 30.210 30.689 1.193 20.546 o
4 1 23 13.369 13.043 0.752 72.397 o
4 1 24 22.166 21.375 0.942 36.239 o
4 1 25 6.878 7.379 0.571 154.483 o
4 1 26 67.423 68.897 5.534 1.651 o
4 1 27 5.368 4.752 0.531 195.107 o
4 1 28 6.283 5.685 0.531 184.318 o
4 1 29 2.255 2.236 0.571 193.001 o
4 1 30 21.760 21.455 1.664 17.763 o
4 1 31 5.330 5.424 0.602 155.963 o
4 1 32 19.029 18.979 1.554 20.962 o
4 1 33 1.691 1.243 0.491 263.880 o
4 2 0 175.996 177.486 2.176 1.025 o
4 2 1 111.153 112.138 1.694 2.473 o
4 2 2 162.933 162.628 2.005 1.204 o
4 2 3 8.161 7.519 0.361 260.521 o
4 2 4 91.137 87.876 1.133 3.925 o
4 2 5 154.302 153.103 1.995 1.337 o
4 2 6 144.694 141.794 2.095 1.501 o
4 2 7 176.327 168.533 2.627 1.019 o
4 2 8 97.411 94.192 1.524 3.281 o
4 2 9 8.434 8.742 0.391 223.771 o
4 2 10 43.521 40.243 0.752 16.424 o
4 2 11 441.252 432.832 6.447 0.161 o
4 2 12 6.370 6.507 0.351 323.512 o
4 2 13 0.323 0.361 0.271 882.647 o
4 2 14 14.409 12.783 0.411 122.291 o
4 2 15 35.594 34.489 0.872 20.969 o
4 2 16 142.199 147.639 1.915 1.521 o
4 2 17 50.692 49.828 1.023 11.142 o
4 2 18 49.306 50.620 1.404 9.796 o
4 2 19 49.272 50.760 1.303 10.207 o
4 2 20 18.513 18.227 0.822 49.383 o
4 2 21 98.377 106.323 2.807 2.397 o
4 2 22 57.127 62.039 1.714 6.878 o
4 2 23 15.178 14.467 0.752 65.849 o
4 2 24 42.928 44.083 1.514 11.148 o
4 2 25 8.706 8.732 0.581 134.882 o
4 2 26 48.020 54.590 1.584 8.949 o
4 2 27 66.998 79.284 2.025 4.769 o
4 2 28 4.159 3.820 0.592 170.398 o
4 2 29 39.090 36.093 1.504 13.002 o
4 2 30 0.271 0.381 0.511 247.931 o
4 2 31 2.927 2.867 0.692 131.185 o
4 2 32 4.511 4.712 0.551 188.854 o
4 2 33 5.135 5.103 0.802 93.643 o
4 3 0 8.163 8.412 0.371 244.380 o
4 3 1 222.753 224.567 2.817 0.638 o
4 3 2 278.398 282.927 3.248 0.411 o
4 3 3 457.478 464.684 5.414 0.152 o
4 3 4 19.901 20.142 0.481 66.050 o
4 3 5 220.940 217.318 2.587 0.666 o
4 3 6 36.579 34.749 0.692 22.287 o
4 3 7 95.478 94.914 1.404 3.407 o
4 3 8 96.535 95.535 1.474 3.315 o
4 3 9 67.107 64.375 1.083 6.894 o
4 3 10 59.479 55.663 0.932 8.962 o
4 3 11 61.684 57.999 0.962 8.320 o
4 3 12 134.474 137.102 1.795 1.723 o
4 3 13 83.980 80.166 1.815 4.016 o
4 3 14 37.288 38.108 0.692 20.719 o
4 3 15 342.933 352.786 5.925 0.249 o
4 3 16 92.160 98.282 1.394 3.483 o
4 3 17 6.339 6.497 0.381 292.265 o
4 3 18 18.130 18.437 0.571 68.176 o
4 3 19 62.267 66.611 1.614 6.337 o
4 3 20 27.602 29.787 1.043 24.987 o
4 3 21 54.188 58.430 1.303 8.637 o
4 3 22 23.233 22.738 0.972 33.331 o
4 3 23 0.009 -0.130 0.912 77.926 o
4 3 24 5.751 5.895 0.461 235.093 o
4 3 25 35.962 38.068 1.374 14.697 o
4 3 26 9.145 9.334 0.812 79.213 o
4 3 27 6.059 6.416 0.842 83.053 o
4 3 28 3.225 2.887 0.762 108.325 o
4 3 29 4.461 5.464 0.922 72.555 o
4 3 30 13.939 12.983 1.193 36.602 o
4 3 31 7.974 7.489 0.602 136.101 o
4 3 32 10.276 10.647 0.862 68.514 o
4 3 33 16.591 16.552 2.607 8.871 o
4 4 0 11.720 10.677 0.401 160.574 o
4 4 1 58.241 56.315 0.882 9.247 o
4 4 2 324.042 333.146 4.201 0.297 o
4 4 3 230.737 228.116 2.867 0.603 o
4 4 4 30.434 29.135 0.571 32.136 o
4 4 5 504.595 501.999 7.670 0.121 o
4 4 6 44.767 43.432 0.862 14.622 o
4 4 7 234.621 233.510 2.968 0.579 o
4 4 8 123.044 123.587 1.995 1.994 o
4 4 9 9.754 8.963 0.421 187.143 o
4 4 10 14.256 14.397 0.441 111.999 o
4 4 11 198.080 207.764 4.010 0.703 o
4 4 12 10.527 10.427 0.471 151.192 o
4 4 13 64.654 67.794 1.203 6.784 o
4 4 14 75.427 77.339 1.394 5.060 o
4 4 15 22.320 21.966 0.581 51.287 o
4 4 16 58.361 60.696 1.003 8.558 o
4 4 17 70.970 71.995 1.664 5.261 o
4 4 18 3.789 3.970 0.371 392.012 o
4 4 19 10.659 11.068 0.461 150.233 o
4 4 20 18.529 18.738 0.932 42.685 o
4 4 21 12.604 11.530 0.561 108.633 o
4 4 22 5.530 5.504 0.481 224.522 o
4 4 23 57.918 60.726 1.524 7.343 o
4 4 24 23.303 22.047 1.855 14.660 o
4 4 25 7.857 8.151 0.652 119.316 o
4 4 26 20.801 20.633 1.775 16.388 o
4 4 27 12.746 12.823 1.444 27.129 o
4 4 28 6.638 5.935 1.945 16.804 o
4 4 29 11.031 11.239 1.293 34.062 o
4 4 30 3.434 3.399 0.752 110.423 o
4 4 31 0.064 0.170 0.672 143.747 o
4 4 32 1.944 2.206 0.892 80.682 o
4 5 0 137.266 136.761 1.975 1.653 o
4 5 1 136.431 134.365 2.025 1.674 o
4 5 2 95.040 93.871 1.384 3.459 o
4 5 3 189.628 191.652 2.938 0.846 o
4 5 4 346.974 350.540 5.253 0.254 o
4 5 5 324.194 327.692 4.652 0.294 o
4 5 6 69.103 68.616 1.414 5.933 o
4 5 7 39.320 39.040 0.842 18.009 o
4 5 8 13.297 13.775 0.461 117.280 o
4 5 9 251.085 257.902 3.689 0.483 o
4 5 10 34.948 37.045 1.043 18.662 o
4 5 11 0.072 0.331 0.321 629.895 o
4 5 12 77.705 81.710 1.795 4.335 o
4 5 13 92.685 96.067 1.524 3.438 o
4 5 14 47.200 49.968 0.892 12.597 o
4 5 15 8.366 8.171 0.431 205.673 o
4 5 16 5.253 5.213 0.391 317.183 o
4 5 17 0.357 0.531 0.341 556.673 o
4 5 18 34.098 35.040 0.812 22.480 o
4 5 19 90.674 98.312 1.664 3.395 o
4 5 20 18.781 19.721 0.622 60.523 o
4 5 21 47.475 50.901 1.343 10.382 o
4 5 22 23.831 24.182 1.013 30.837 o
4 5 23 7.166 6.807 0.461 211.954 o
4 5 24 59.725 64.075 1.724 6.481 o
4 5 25 14.258 13.003 1.233 34.488 o
4 5 26 11.213 10.617 0.912 61.169 o
4 5 27 21.391 21.114 3.649 4.577 o
4 5 28 0.550 0.622 0.712 127.856 o
4 5 29 3.461 3.168 0.742 113.460 o
4 5 30 5.181 5.314 0.772 100.210 o
4 5 31 10.954 11.329 1.534 25.105 o
4 5 32 1.664 2.316 0.652 150.380 o
4 6 0 80.598 75.975 1.233 4.888 o
4 6 1 168.369 167.961 2.917 1.051 o
4 6 2 2.799 2.897 0.361 446.279 o
4 6 3 77.356 76.857 1.494 4.829 o
4 6 4 65.645 65.999 1.143 6.874 o
4 6 5 196.397 199.553 2.747 0.802 o
4 6 6 123.411 126.545 1.975 1.965 o
4 6 7 13.462 14.156 0.471 112.903 o
4 6 8 3.686 3.840 0.341 455.348 o
4 6 9 18.453 18.608 0.551 68.442 o
4 6 10 52.023 52.705 0.892 10.942 o
4 6 11 77.645 86.011 2.276 3.741 o
4 6 12 149.126 159.500 3.058 1.221 o
4 6 13 233.611 257.622 3.820 0.522 o
4 6 14 199.100 211.864 2.928 0.752 o
4 6 15 6.231 5.985 0.401 279.703 o
4 6 16 35.886 35.431 0.742 21.982 o
4 6 17 111.476 114.324 2.216 2.263 o
4 6 18 37.368 39.060 0.842 19.000 o
4 6 19 6.019 6.326 0.421 261.816 o
4 6 20 19.935 20.763 0.732 49.761 o
4 6 21 23.979 24.894 0.632 43.029 o
4 6 22 13.659 12.632 0.722 75.916 o
4 6 23 54.847 51.733 4.662 2.387 o
4 6 24 5.467 5.675 0.792 94.701 o
4 6 25 5.256 4.522 0.762 103.323 o
4 6 26 10.087 10.567 0.952 58.725 o
4 6 27 13.051 13.304 1.003 48.789 o
4 6 28 14.399 14.186 1.664 20.555 o
4 6 29 8.021 8.131 0.792 86.558 o
4 6 30 16.317 19.249 1.554 21.787 o
4 6 31 16.029 19.249 1.504 23.072 o
4 6 32 4.849 6.386 1.203 43.200 o
4 7 0 0.097 0.050 0.301 716.910 o
4 7 1 69.237 68.055 1.153 6.336 o
4 7 2 220.838 218.070 3.248 0.639 o
4 7 3 76.343 75.023 1.233 5.252 o
4 7 4 89.666 85.480 1.654 3.731 o
4 7 5 108.475 107.677 1.785 2.575 o
4 7 6 3.224 3.349 0.321 527.470 o
4 7 7 18.661 18.828 0.521 69.725 o
4 7 8 99.900 99.796 1.634 3.029 o
4 7 9 59.138 60.325 1.494 7.293 o
4 7 10 82.459 87.956 2.206 3.560 o
4 7 11 1.137 0.892 0.401 398.132 o
4 7 12 103.072 104.258 2.186 2.605 o
4 7 13 105.057 112.599 2.506 2.314 o
4 7 14 7.851 9.083 0.471 185.149 o
4 7 15 38.345 39.111 1.063 16.504 o
4 7 16 4.538 4.532 0.401 325.130 o
4 7 17 2.230 1.785 0.391 402.810 o
4 7 18 54.017 56.084 1.363 8.666 o
4 7 19 39.060 42.128 1.013 16.034 o
4 7 20 133.572 144.641 3.900 1.281 o
4 7 21 28.887 31.000 0.912 26.173 o
4 7 22 12.205 12.432 0.632 95.046 o
4 7 23 52.095 57.578 2.356 5.888 o
4 7 24 13.116 14.979 1.454 26.281 o
4 7 25 61.459 68.105 2.627 4.467 o
4 7 26 15.587 19.640 1.584 21.277 o
4 7 27 22.404 25.766 1.724 16.160 o
4 7 28 5.155 6.497 1.243 40.425 o
4 7 29 5.836 7.229 1.263 38.831 o
4 7 30 4.324 4.542 1.183 45.172 o
4 7 31 0.536 0.361 1.093 54.295 o
4 8 0 0.902 0.972 0.351 519.981 o
4 8 1 7.181 6.477 0.381 275.027 o
4 8 2 12.329 13.064 0.501 118.265 o
4 8 3 154.569 160.863 3.008 1.175 o
4 8 4 36.337 38.399 0.882 19.333 o
4 8 5 36.964 37.216 0.782 20.323 o
4 8 6 210.170 222.301 3.940 0.637 o
4 8 7 28.323 29.997 0.832 28.696 o
4 8 8 11.822 12.121 0.501 125.109 o
4 8 9 190.722 215.052 6.587 0.551 o
4 8 10 79.122 82.261 2.757 3.296 o
4 8 11 16.761 17.906 0.632 68.181 o
4 8 12 203.080 230.893 4.271 0.630 o
4 8 13 57.533 63.764 1.474 7.328 o
4 8 14 12.246 12.402 0.561 108.194 o
4 8 15 74.255 81.038 1.855 4.490 o
4 8 16 41.331 44.103 1.494 11.608 o
4 8 17 2.378 2.697 0.421 343.354 o
4 8 18 10.435 10.627 0.531 132.493 o
4 8 19 12.946 13.074 0.602 95.534 o
4 8 20 46.425 48.334 1.684 9.266 o
4 8 21 9.080 9.334 0.602 124.798 o
4 8 22 14.153 15.460 0.722 70.418 o
4 8 23 0.148 0.481 0.662 148.100 o
4 8 24 34.164 38.900 1.965 10.357 o
4 8 25 1.192 1.043 1.143 49.561 o
4 8 26 14.577 16.944 1.494 24.245 o
4 8 27 1.318 1.013 1.133 50.428 o
4 8 28 23.643 27.872 1.684 16.148 o
4 8 29 5.603 5.655 1.203 43.047 o
4 8 30 7.900 8.442 1.233 39.468 o
4 9 0 20.198 19.480 0.652 55.275 o
4 9 1 38.847 38.830 0.912 17.683 o
4 9 2 332.922 347.132 4.732 0.274 o
4 9 3 3.017 3.840 0.411 342.593 o
4 9 4 165.826 176.584 2.516 1.076 o
4 9 5 9.448 10.196 0.491 155.135 o
4 9 6 9.787 9.915 0.481 156.977 o
4 9 7 7.076 7.088 0.461 211.337 o
4 9 8 109.816 117.031 2.286 2.245 o
4 9 9 118.032 125.532 3.389 1.672 o
4 9 10 4.847 5.424 0.521 202.994 o
4 9 11 9.457 9.314 0.561 134.671 o
4 9 12 22.665 21.656 0.872 38.201 o
4 9 13 3.536 3.950 0.471 262.172 o
4 9 14 126.456 128.370 3.048 1.636 o
4 9 15 5.982 6.326 0.521 189.845 o
4 9 16 101.363 102.694 2.246 2.645 o
4 9 17 19.233 19.991 0.782 48.944 o
4 9 18 32.295 31.070 1.303 17.968 o
4 9 19 65.733 70.100 2.486 4.422 o
4 9 20 49.949 53.538 1.524 8.960 o
4 9 21 1.387 1.213 0.501 254.758 o
4 9 22 9.688 10.206 0.812 77.012 o
4 9 23 3.338 3.659 0.702 125.988 o
4 9 24 4.680 5.434 0.993 62.922 o
4 9 25 5.726 7.108 1.263 38.893 o
4 9 26 11.011 13.174 1.414 28.738 o
4 9 27 2.341 2.186 1.143 49.283 o
4 10 0 27.075 27.571 0.832 31.076 o
4 10 1 36.895 35.461 0.852 20.150 o
4 10 2 5.515 5.985 0.421 272.793 o
4 10 3 3.266 3.409 0.401 357.452 o
4 10 4 54.091 55.372 1.003 9.840 o
4 10 5 62.240 65.067 1.123 7.401 o
4 10 6 95.899 98.002 1.714 3.167 o
4 10 7 52.286 54.440 1.093 10.017 o
4 10 8 35.435 36.413 0.962 19.477 o
4 10 9 53.435 56.385 1.243 9.120 o
4 10 10 152.651 157.655 2.827 1.229 o
4 10 11 12.148 12.783 0.632 94.541 o
4 10 12 116.038 121.261 4.000 1.542 o
4 10 13 8.892 9.143 0.551 142.400 o
4 10 14 14.155 14.447 0.962 49.583 o
4 10 15 18.962 18.808 1.153 32.407 o
4 10 16 11.921 11.570 0.592 106.019 o
4 10 17 31.069 31.110 1.434 16.754 o
4 10 18 57.659 52.284 1.313 8.544 o
4 10 19 3.130 3.329 0.612 164.955 o
4 10 20 4.082 4.080 0.632 150.753 o
4 10 21 13.328 12.753 1.103 42.102 o
4 10 22 14.188 14.457 1.143 38.392 o
4 10 23 22.431 23.370 1.343 23.356 o
4 10 24 9.956 11.439 1.033 51.008 o
4 11 0 64.663 65.218 1.895 5.643 o
4 11 1 27.941 26.739 1.033 26.028 o
4 11 2 20.315 19.851 0.662 53.969 o
4 11 3 30.872 30.679 0.962 23.931 o
4 11 4 33.154 35.200 1.193 18.141 o
4 11 5 29.265 30.067 0.722 30.023 o
4 11 6 47.079 47.662 1.123 11.876 o
4 11 7 75.013 78.141 1.534 4.904 o
4 11 8 12.280 12.913 0.642 92.006 o
4 11 9 206.221 218.090 4.792 0.612 o
4 11 10 7.699 8.351 0.561 149.791 o
4 11 11 0.196 0.401 0.421 365.549 o
4 11 12 16.717 17.475 0.672 65.354 o
4 11 13 52.582 50.610 1.835 7.691 o
4 11 14 23.877 23.871 1.093 28.629 o
4 11 15 21.887 21.525 1.053 32.452 o
4 11 16 4.318 4.552 0.451 270.418 o
4 11 17 21.492 23.290 3.008 6.510 o
4 11 18 47.484 50.419 4.030 3.140 o
4 11 19 23.912 24.483 1.073 28.921 o
4 11 20 27.581 27.601 1.434 18.607 o
4 11 21 0.389 0.912 0.742 117.715 o
4 11 22 8.173 8.642 0.942 63.681 o
4 11 23 1.189 1.604 0.742 117.138 o
4 11 24 10.112 12.322 1.003 52.890 o
4 11 25 21.061 21.375 1.193 28.631 o
4 12 0 1.337 2.837 0.501 251.769 o
4 12 1 297.683 300.011 10.918 0.226 o
4 12 2 14.188 14.607 0.662 78.746 o
4 12 3 27.261 28.172 0.832 30.586 o
4 12 4 24.816 25.977 0.902 32.301 o
4 12 5 12.086 12.693 0.511 118.953 o
4 12 6 16.926 17.154 0.692 63.473 o
4 12 7 70.985 72.556 1.694 5.196 o
4 12 8 6.483 6.226 0.511 191.696 o
4 12 9 5.826 5.474 0.521 194.751 o
4 12 10 9.024 9.264 0.571 134.466 o
4 12 11 34.659 34.148 1.013 19.889 o
4 12 12 12.698 12.121 0.531 112.550 o
4 12 13 14.521 13.224 0.541 97.361 o
4 12 14 4.446 4.301 0.461 260.453 o
4 12 15 3.949 3.900 0.622 156.127 o
4 12 16 3.935 4.441 0.762 105.946 o
4 12 17 78.125 82.702 6.196 1.289 o
4 12 18 6.769 7.660 1.133 47.093 o
4 12 19 27.300 27.070 1.414 19.126 o
4 12 20 5.199 4.231 0.792 96.522 o
4 12 21 16.959 17.445 1.143 34.923 o
4 12 22 1.496 1.313 0.702 130.668 o
4 12 23 10.505 10.437 0.932 60.288 o
4 12 24 3.449 3.679 0.742 113.043 o
4 12 25 3.922 3.389 0.712 121.683 o
4 12 26 1.709 2.075 0.652 150.502 o
4 13 0 14.424 13.064 0.712 74.252 o
4 13 1 25.224 24.623 1.113 26.853 o
4 13 2 45.268 43.933 1.785 9.318 o
4 13 3 73.231 70.942 2.376 4.180 o
4 13 4 8.248 8.562 0.551 149.043 o
4 13 5 26.018 26.277 1.003 28.374 o
4 13 6 58.481 58.330 1.815 6.680 o
4 13 7 98.258 98.443 1.835 3.012 o
4 13 8 30.968 30.709 0.882 25.229 o
4 13 9 101.580 102.243 2.176 2.679 o
4 13 10 3.604 3.599 0.421 321.575 o
4 13 11 29.898 29.195 1.073 23.126 o
4 13 12 16.234 14.918 0.752 62.708 o
4 13 13 25.131 24.473 0.962 30.992 o
4 13 14 1.905 1.895 0.461 295.521 o
4 13 15 28.788 30.498 1.634 15.117 o
4 13 16 15.735 17.304 1.584 21.577 o
4 13 17 0.827 0.712 0.531 228.782 o
4 13 18 3.521 3.178 0.802 97.522 o
4 13 19 1.353 1.133 0.712 127.239 o
4 13 20 0.284 0.170 0.652 152.695 o
4 13 21 12.338 12.292 0.972 52.685 o
4 13 22 0.968 0.170 0.632 162.210 o
4 13 23 0.117 -0.190 0.612 173.418 o
4 13 24 0.496 0.341 0.602 179.069 o
4 14 0 45.138 45.948 2.787 5.571 o
4 14 1 29.567 30.478 2.276 9.460 o
4 14 2 50.166 50.760 2.988 4.737 o
4 14 3 2.153 2.747 0.541 213.725 o
4 14 4 32.957 30.639 1.223 18.839 o
4 14 5 9.174 9.825 0.652 109.855 o
4 14 6 21.309 20.994 1.243 27.132 o
4 14 7 34.944 35.010 1.033 19.279 o
4 14 8 8.368 8.592 0.722 99.019 o
4 14 9 4.028 4.111 0.521 214.273 o
4 14 10 35.712 35.632 1.694 12.321 o
4 14 11 4.436 4.782 0.521 208.742 o
4 14 12 1.573 1.404 0.461 298.892 o
4 14 13 1.456 1.534 0.451 312.338 o
4 14 14 19.412 18.096 1.283 27.916 o
4 14 15 12.811 13.535 0.912 56.275 o
4 14 16 1.040 1.233 0.531 227.879 o
4 14 17 23.244 23.069 1.263 24.888 o
4 14 18 3.525 3.800 0.772 104.527 o
4 14 19 0.619 0.481 0.642 157.310 o
4 14 20 16.287 16.272 1.043 40.910 o
4 14 21 11.626 11.088 0.892 62.221 o
4 14 22 21.904 22.167 1.133 29.583 o
4 14 23 22.701 23.510 1.143 28.224 o
4 15 0 0.430 0.792 0.612 173.159 o
4 15 1 8.366 8.612 1.765 19.972 o
4 15 2 22.319 23.260 4.161 3.549 o
4 15 3 10.431 9.715 1.073 48.187 o
4 15 4 21.333 19.249 1.293 26.225 o
4 15 5 18.028 17.325 1.233 30.656 o
4 15 6 15.386 16.162 1.103 38.694 o
4 15 7 9.573 9.825 0.732 91.236 o
4 15 8 20.232 19.731 1.033 35.578 o
4 15 9 5.576 5.614 0.531 190.180 o
4 15 10 10.972 10.657 0.602 111.100 o
4 15 11 1.656 1.614 0.451 310.929 o
4 15 12 8.705 7.910 0.652 116.121 o
4 15 13 10.918 10.607 0.722 87.544 o
4 15 14 41.054 38.659 1.604 11.543 o
4 15 15 46.015 48.595 2.246 7.071 o
4 15 16 32.035 31.381 1.444 16.268 o
4 15 17 13.453 13.294 1.003 48.309 o
4 15 18 7.303 7.800 0.842 79.677 o
4 15 19 0.091 0.221 0.592 185.362 o
4 15 20 5.687 5.815 0.732 108.584 o
4 15 21 6.876 6.958 0.742 101.350 o
4 16 0 31.834 38.088 5.344 2.112 o
4 16 1 10.434 10.908 1.424 28.987 o
4 16 2 4.494 4.141 0.902 76.295 o
4 16 3 24.713 23.129 1.353 22.127 o
4 16 4 17.430 16.111 1.183 33.397 o
4 16 5 6.360 5.855 0.912 71.718 o
4 16 6 42.495 40.364 1.755 10.198 o
4 16 7 8.620 8.993 0.692 104.236 o
4 16 8 5.192 4.782 0.551 184.220 o
4 16 9 2.886 2.436 0.461 286.045 o
4 16 10 6.407 5.945 0.511 193.661 o
4 16 11 0.502 0.431 0.411 382.908 o
4 16 12 14.623 15.299 0.932 50.526 o
4 16 13 21.718 21.365 1.243 26.775 o
4 16 14 0.697 0.882 0.391 421.282 o
4 16 15 10.531 10.357 0.912 62.456 o
4 16 16 7.033 6.958 0.812 86.278 o
4 16 17 2.644 2.526 0.662 143.949 o
4 16 18 11.245 10.407 0.852 68.117 o
4 16 19 2.889 2.476 0.612 167.067 o
4 17 0 1.291 1.474 0.571 196.550 o
4 17 1 4.326 3.900 0.812 93.681 o
4 17 2 5.909 5.915 0.872 78.481 o
4 17 3 5.585 5.003 0.842 84.915 o
4 17 4 5.212 4.772 0.832 87.572 o
4 17 5 48.940 46.169 1.835 8.424 o
4 17 6 1.876 1.955 0.772 107.611 o
4 17 7 34.378 32.885 1.775 12.223 o
4 17 8 22.233 22.638 0.832 39.723 o
4 17 9 9.126 8.943 0.541 144.926 o
4 17 10 10.043 10.006 0.541 134.511 o
4 17 11 8.678 8.773 0.521 156.529 o
4 17 12 4.524 4.271 0.441 280.004 o
4 17 13 6.718 6.737 0.461 217.895 o
4 17 14 4.392 4.862 0.722 115.833 o
4 17 15 11.739 11.901 0.892 61.331 o
4 17 16 12.118 11.520 0.852 65.305 o
4 18 0 35.022 31.651 1.414 15.598 o
4 18 1 1.364 1.404 0.672 142.627 o
4 18 2 14.844 13.635 0.993 47.100 o
4 18 3 5.900 5.564 0.792 93.966 o
4 18 4 4.462 4.411 0.752 107.649 o
4 18 5 8.062 7.499 0.852 76.964 o
4 18 6 14.274 14.758 1.023 45.124 o
4 18 7 7.833 6.968 0.602 138.343 o
4 18 8 3.624 3.489 0.541 204.499 o
4 18 9 3.673 3.910 0.421 318.318 o
4 18 10 0.497 0.902 0.371 468.814 o
4 18 11 17.579 17.114 0.722 59.413 o
4 18 12 9.417 9.043 0.742 91.005 o
4 19 0 0.003 -0.090 0.561 205.774 o
4 19 1 6.672 6.166 0.732 105.445 o
4 19 2 5.060 4.622 0.692 123.800 o
4 19 3 15.173 12.512 0.882 55.819 o
4 19 4 6.947 7.048 0.762 96.499 o
4 19 5 3.884 3.429 0.672 135.869 o
4 19 6 8.576 8.331 0.792 85.016 o
4 19 7 0.594 1.303 0.602 178.613 o
5 0 1 50.080 52.184 0.932 11.347 o
5 0 2 60.513 61.408 1.414 7.248 o
5 0 3 2.586 2.446 0.301 632.277 o
5 0 4 389.287 369.740 5.324 0.214 o
5 0 5 123.095 112.910 1.734 2.166 o
5 0 6 47.118 45.086 0.722 14.178 o
5 0 7 41.887 39.953 0.672 17.779 o
5 0 8 46.056 44.975 0.892 13.739 o
5 0 9 46.105 43.883 0.852 14.117 o
5 0 10 4.194 4.211 0.341 434.309 o
5 0 11 175.730 176.995 2.637 0.994 o
5 0 12 10.825 10.316 0.421 166.004 o
5 0 13 69.337 69.900 1.554 5.640 o
5 0 14 292.493 305.404 4.572 0.348 o
5 0 15 9.445 9.555 0.431 182.797 o
5 0 16 1.393 1.243 0.341 542.391 o
5 0 17 7.429 7.399 0.381 260.916 o
5 0 18 3.639 3.419 0.411 336.320 o
5 0 19 20.547 21.144 0.682 50.922 o
5 0 20 6.781 6.396 0.461 219.213 o
5 0 21 44.439 45.216 1.434 11.162 o
5 0 22 2.315 2.446 0.561 199.166 o
5 0 23 27.707 28.754 1.554 16.655 o
5 0 24 0.179 0.211 0.501 258.054 o
5 0 25 14.904 16.773 1.013 43.870 o
5 0 26 3.992 4.291 0.561 187.093 o
5 0 27 14.171 14.567 1.103 40.520 o
5 0 28 2.573 3.068 0.531 218.809 o
5 0 29 12.335 13.304 1.023 48.157 o
5 0 30 25.206 26.899 1.724 15.363 o
5 0 31 9.604 9.625 1.013 54.099 o
5 1 0 13.346 12.833 0.451 122.423 o
5 1 1 61.813 60.094 1.434 7.124 o
5 1 2 2.763 2.366 0.311 591.810 o
5 1 3 225.055 226.803 3.098 0.616 o
5 1 4 121.021 112.218 1.494 2.280 o
5 1 5 14.846 14.207 0.381 118.442 o
5 1 6 5.416 4.852 0.321 420.367 o
5 1 7 1.462 1.223 0.281 787.229 o
5 1 8 14.812 14.738 0.451 105.542 o
5 1 9 67.400 68.255 1.113 6.585 o
5 1 10 44.793 44.975 0.862 14.334 o
5 1 11 4.054 3.619 0.341 447.571 o
5 1 12 59.928 58.530 0.942 8.609 o
5 1 13 56.981 57.097 1.213 8.554 o
5 1 14 165.890 170.638 2.416 1.108 o
5 1 15 151.624 159.800 2.958 1.212 o
5 1 16 43.056 44.344 1.123 13.470 o
5 1 17 8.949 8.712 0.441 189.389 o
5 1 18 39.097 41.727 1.083 15.533 o
5 1 19 52.020 54.470 1.564 8.431 o
5 1 20 10.012 9.845 0.501 148.218 o
5 1 21 8.549 8.031 0.531 156.590 o
5 1 22 0.782 0.852 0.521 237.584 o
5 1 23 3.569 3.770 0.571 184.572 o
5 1 24 22.245 22.989 2.486 9.093 o
5 1 25 35.913 40.294 1.103 16.884 o
5 1 26 8.323 8.161 0.622 125.971 o
5 1 27 0.997 0.832 0.501 256.422 o
5 1 28 15.424 17.395 0.983 44.690 o
5 1 29 12.758 14.387 1.053 45.021 o
5 1 30 22.701 25.315 0.993 31.958 o
5 1 31 11.625 10.296 0.912 60.767 o
5 2 0 399.209 383.996 5.554 0.201 o
5 2 1 98.539 90.212 1.484 3.337 o
5 2 2 55.663 51.202 0.882 10.303 o
5 2 3 16.645 15.901 0.411 96.189 o
5 2 4 35.091 34.990 0.682 23.374 o
5 2 5 81.157 78.331 1.454 4.565 o
5 2 6 15.759 14.948 0.451 99.106 o
5 2 7 41.462 39.722 0.952 16.021 o
5 2 8 25.957 25.275 0.612 40.078 o
5 2 9 36.850 36.694 0.682 21.549 o
5 2 10 43.037 44.063 0.772 15.694 o
5 2 11 142.682 145.063 2.246 1.483 o
5 2 12 18.532 19.229 0.521 69.472 o
5 2 13 118.743 125.252 1.895 2.088 o
5 2 14 57.326 59.182 1.163 8.464 o
5 2 15 127.370 133.292 2.206 1.786 o
5 2 16 58.592 61.438 1.123 8.185 o
5 2 17 8.067 8.291 0.441 203.210 o
5 2 18 33.475 34.769 0.882 22.067 o
5 2 19 27.575 28.453 0.762 31.791 o
5 2 20 32.858 34.138 1.083 19.928 o
5 2 21 11.491 12.252 0.632 98.545 o
5 2 22 22.801 23.871 1.875 14.341 o
5 2 23 6.976 6.637 0.622 136.579 o
5 2 24 16.345 17.505 2.246 11.646 o
5 2 25 3.796 4.040 0.551 195.186 o
5 2 26 0.128 0.020 0.491 268.749 o
5 2 27 13.680 14.848 1.484 25.202 o
5 2 28 0.128 0.371 0.481 279.982 o
5 2 29 22.412 26.689 1.033 30.389 o
5 2 30 2.718 2.557 0.642 152.601 o
5 3 0 151.236 140.561 2.085 1.431 o
5 3 1 208.155 197.437 2.998 0.740 o
5 3 2 14.264 14.317 0.391 120.950 o
5 3 3 78.915 79.143 1.594 4.545 o
5 3 4 131.464 130.044 1.855 1.817 o
5 3 5 12.776 12.733 0.411 136.526 o
5 3 6 14.322 13.254 0.411 121.105 o
5 3 7 14.244 13.785 0.421 117.819 o
5 3 8 67.954 70.712 1.283 6.140 o
5 3 9 29.940 28.954 0.782 28.704 o
5 3 10 102.640 106.674 2.065 2.638 o
5 3 11 92.211 95.766 1.654 3.390 o
5 3 12 100.947 104.278 2.125 2.692 o
5 3 13 10.968 11.269 0.511 131.914 o
5 3 14 118.283 123.607 1.935 2.103 o
5 3 15 18.813 18.658 0.551 67.169 o
5 3 16 1.916 1.744 0.351 500.395 o
5 3 17 8.933 9.354 0.451 181.032 o
5 3 18 2.751 3.028 0.391 385.902 o
5 3 19 54.574 56.074 1.744 7.418 o
5 3 20 24.277 24.643 1.303 23.020 o
5 3 21 16.838 16.663 2.216 11.927 o
5 3 22 4.268 3.900 0.782 100.745 o
5 3 23 21.018 22.788 2.176 11.560 o
5 3 24 16.488 17.876 2.316 10.987 o
5 3 25 24.668 28.353 1.123 25.725 o
5 3 26 27.077 30.739 1.664 15.173 o
5 3 27 1.368 1.333 0.491 264.967 o
5 3 28 5.674 5.825 0.882 77.219 o
5 3 29 14.036 14.547 2.416 10.433 o
5 3 30 18.084 18.808 2.456 9.732 o
5 4 0 456.047 453.024 6.457 0.151 o
5 4 1 58.639 56.676 1.063 8.707 o
5 4 2 312.737 324.594 4.281 0.314 o
5 4 3 84.711 83.745 1.394 4.232 o
5 4 4 16.426 16.172 0.511 84.969 o
5 4 5 1.754 1.734 0.341 531.946 o
5 4 6 71.498 73.459 1.494 5.398 o
5 4 7 39.335 38.459 1.303 14.212 o
5 4 8 6.570 5.955 0.371 303.436 o
5 4 9 38.410 37.296 1.273 14.942 o
5 4 10 99.838 97.370 2.426 2.668 o
5 4 11 28.363 28.002 0.722 32.103 o
5 4 12 100.628 100.268 2.647 2.495 o
5 4 13 13.748 13.144 0.622 88.692 o
5 4 14 21.726 22.047 0.642 49.601 o
5 4 15 13.036 12.652 0.501 114.909 o
5 4 16 50.203 51.031 1.353 9.796 o
5 4 17 10.652 10.497 0.511 137.231 o
5 4 18 29.802 31.691 1.043 22.937 o
5 4 19 5.340 5.504 0.441 260.180 o
5 4 20 28.023 29.416 0.892 27.939 o
5 4 21 8.197 8.522 1.263 37.593 o
5 4 22 25.787 26.518 2.125 11.200 o
5 4 23 3.492 3.238 0.632 154.154 o
5 4 24 23.463 24.332 3.369 5.227 o
5 4 25 5.001 5.093 0.551 184.452 o
5 4 26 0.384 0.271 0.481 279.810 o
5 4 27 8.941 9.655 0.862 71.928 o
5 4 28 7.751 8.492 0.622 128.031 o
5 4 29 1.756 1.985 0.622 165.176 o
5 4 30 3.967 4.040 0.632 151.236 o
5 5 0 445.752 459.430 8.843 0.141 o
5 5 1 47.567 45.537 1.133 11.975 o
5 5 2 182.445 192.464 3.288 0.857 o
5 5 3 29.917 29.586 0.782 28.430 o
5 5 4 89.498 87.485 1.664 3.685 o
5 5 5 20.079 19.460 0.782 47.909 o
5 5 6 15.967 15.109 0.632 75.322 o
5 5 7 16.817 15.881 0.592 75.253 o
5 5 8 76.809 75.223 1.544 4.869 o
5 5 9 23.401 23.049 0.872 36.444 o
5 5 10 61.355 63.373 1.464 6.919 o
5 5 11 4.819 4.592 0.361 375.891 o
5 5 12 21.290 20.172 0.882 40.519 o
5 5 13 19.775 20.222 0.772 48.328 o
5 5 14 57.225 57.056 1.273 8.354 o
5 5 15 49.031 49.086 0.983 11.820 o
5 5 16 73.012 76.015 1.233 5.489 o
5 5 17 21.439 22.137 0.742 45.256 o
5 5 18 6.121 5.504 0.401 286.242 o
5 5 19 8.293 8.201 0.431 206.463 o
5 5 20 21.282 20.352 0.932 38.243 o
5 5 21 3.433 3.780 0.521 219.531 o
5 5 22 6.987 8.412 0.762 94.659 o
5 5 23 21.307 22.357 2.526 8.928 o
5 5 24 12.979 14.026 0.702 78.487 o
5 5 25 4.391 4.953 0.551 188.852 o
5 5 26 20.003 22.287 1.313 25.583 o
5 5 27 1.134 1.283 0.471 288.701 o
5 5 28 2.330 2.747 0.642 153.279 o
5 5 29 4.144 4.111 0.642 146.147 o
5 6 0 3.647 3.549 0.351 439.190 o
5 6 1 115.934 112.810 1.785 2.317 o
5 6 2 4.481 4.993 0.371 363.831 o
5 6 3 60.546 60.145 1.644 6.782 o
5 6 4 7.083 7.399 0.401 251.447 o
5 6 5 27.556 26.949 0.872 29.929 o
5 6 6 148.180 150.747 3.268 1.237 o
5 6 7 19.416 20.031 0.762 49.732 o
5 6 8 25.954 27.019 1.023 27.638 o
5 6 9 29.222 30.719 1.153 21.695 o
5 6 10 61.570 64.285 2.135 5.452 o
5 6 11 67.620 70.932 1.995 5.044 o
5 6 12 48.210 51.753 1.674 8.779 o
5 6 13 9.113 9.354 0.461 174.570 o
5 6 14 22.824 23.220 0.702 43.736 o
5 6 15 4.826 5.354 0.421 289.137 o
5 6 16 117.695 124.871 2.246 2.017 o
5 6 17 50.321 52.114 1.343 9.712 o
5 6 18 49.645 51.522 1.213 10.425 o
5 6 19 2.986 2.827 0.471 272.299 o
5 6 20 0.384 0.160 0.471 291.890 o
5 6 21 19.236 22.117 0.983 37.449 o
5 6 22 24.106 25.927 1.474 19.537 o
5 6 23 17.369 18.056 1.895 15.545 o
5 6 24 6.027 7.138 0.652 129.311 o
5 6 25 6.712 7.469 0.581 151.090 o
5 6 26 19.777 21.114 1.384 24.176 o
5 6 27 19.022 20.031 2.115 12.523 o
5 6 28 18.433 18.257 0.882 45.905 o
5 6 29 4.411 4.271 1.093 52.733 o
5 7 0 17.042 17.625 0.501 80.103 o
5 7 1 72.968 73.639 1.594 5.143 o
5 7 2 79.063 78.281 1.564 4.594 o
5 7 3 63.391 65.829 1.484 6.519 o
5 7 4 2.516 2.577 0.341 505.608 o
5 7 5 33.600 33.937 1.153 18.716 o
5 7 6 81.854 86.191 2.015 3.792 o
5 7 7 50.619 49.748 1.424 9.556 o
5 7 8 16.304 16.994 0.642 70.079 o
5 7 9 84.049 85.279 2.286 3.481 o
5 7 10 5.986 6.256 0.391 291.805 o
5 7 11 4.850 5.153 0.441 269.501 o
5 7 12 17.558 18.417 0.752 55.728 o
5 7 13 46.687 48.214 1.193 11.561 o
5 7 14 4.600 5.103 0.411 306.401 o
5 7 15 76.133 79.163 1.474 4.856 o
5 7 16 82.792 85.530 1.414 4.276 o
5 7 17 63.469 65.298 1.263 6.964 o
5 7 18 32.231 33.346 1.353 16.936 o
5 7 19 5.315 5.504 0.592 160.446 o
5 7 20 12.906 13.906 0.772 70.089 o
5 7 21 5.176 5.705 0.571 170.502 o
5 7 22 10.819 12.091 0.752 80.775 o
5 7 23 5.689 6.226 0.702 116.398 o
5 7 24 6.948 7.830 0.722 104.678 o
5 7 25 23.470 25.586 1.594 17.821 o
5 7 26 1.010 1.434 1.053 58.400 o
5 7 27 13.474 15.279 1.333 30.163 o
5 7 28 14.684 14.668 1.323 30.080 o
5 8 0 0.011 0.451 0.321 629.898 o
5 8 1 112.776 115.527 2.095 2.261 o
5 8 2 12.876 13.475 0.461 121.456 o
5 8 3 12.916 12.753 0.451 126.071 o
5 8 4 17.801 16.833 0.501 78.570 o
5 8 5 55.139 55.332 1.394 8.456 o
5 8 6 36.203 34.609 0.962 19.547 o
5 8 7 72.314 68.686 1.203 5.923 o
5 8 8 3.050 3.479 0.401 360.369 o
5 8 9 3.859 3.870 0.401 343.421 o
5 8 10 10.275 10.928 0.622 109.321 o
5 8 11 59.637 59.693 2.907 4.283 o
5 8 12 4.996 5.213 0.461 248.544 o
5 8 13 29.731 30.358 1.133 21.851 o
5 8 14 39.797 42.319 1.213 14.175 o
5 8 15 11.781 11.119 0.612 103.745 o
5 8 16 37.534 37.617 1.093 16.864 o
5 8 17 82.893 91.595 5.554 1.452 o
5 8 18 29.820 31.421 1.534 15.879 o
5 8 19 3.606 4.361 0.672 135.361 o
5 8 20 17.779 18.848 0.912 44.715 o
5 8 21 9.885 10.778 0.742 87.027 o
5 8 22 2.779 2.998 0.561 196.257 o
5 8 23 14.738 15.891 0.692 71.403 o
5 8 24 1.767 2.095 0.461 295.763 o
5 8 25 2.142 3.178 1.053 57.923 o
5 8 26 13.296 14.257 1.303 31.684 o
5 8 27 1.539 1.855 1.033 60.538 o
5 9 0 95.425 96.087 1.775 3.188 o
5 9 1 0.559 1.073 0.401 400.819 o
5 9 2 63.033 63.373 1.534 6.586 o
5 9 3 51.749 50.921 1.253 9.902 o
5 9 4 7.430 7.790 0.461 202.804 o
5 9 5 10.768 10.647 0.501 138.710 o
5 9 6 56.335 57.337 1.464 7.930 o
5 9 7 71.418 74.752 2.055 4.596 o
5 9 8 14.619 14.507 0.551 92.169 o
5 9 9 94.265 102.724 2.286 2.827 o
5 9 10 23.893 25.435 0.882 34.172 o
5 9 11 24.169 26.117 0.832 35.056 o
5 9 12 21.042 22.879 1.123 30.278 o
5 9 13 106.417 117.482 2.366 2.285 o
5 9 14 16.917 17.375 0.712 61.518 o
5 9 15 3.367 3.599 0.662 140.962 o
5 9 16 35.592 38.659 3.178 5.139 o
5 9 17 0.285 0.511 0.581 191.689 o
5 9 18 17.603 18.076 1.634 19.875 o
5 9 19 7.788 7.960 0.712 104.217 o
5 9 20 6.614 7.038 0.672 120.791 o
5 9 21 21.049 22.879 0.942 36.647 o
5 9 22 2.822 3.740 0.491 249.735 o
5 9 23 0.002 -0.120 0.712 128.012 o
5 9 24 0.666 0.481 0.541 220.781 o
5 9 25 6.775 7.820 1.153 45.528 o
5 9 26 4.609 5.905 1.083 53.159 o
5 10 0 10.093 9.986 0.602 117.508 o
5 10 1 36.856 37.657 0.983 18.242 o
5 10 2 34.579 35.140 0.852 21.634 o
5 10 3 31.237 30.639 0.742 27.471 o
5 10 4 3.763 3.860 0.401 345.207 o
5 10 5 21.023 20.493 0.622 53.908 o
5 10 6 9.296 9.534 0.481 163.462 o
5 10 7 32.788 32.333 0.822 24.221 o
5 10 8 14.247 14.848 0.592 87.388 o
5 10 9 2.209 2.827 0.471 278.378 o
5 10 10 86.433 88.778 1.945 3.587 o
5 10 11 7.153 7.479 0.541 165.377 o
5 10 12 89.385 87.906 3.319 2.508 o
5 10 13 8.097 9.394 0.782 86.681 o
5 10 14 17.079 18.197 0.932 44.987 o
5 10 15 16.362 16.913 1.203 33.060 o
5 10 16 35.022 38.349 2.156 9.136 o
5 10 17 56.185 59.593 4.281 2.647 o
5 10 18 2.690 3.098 0.592 177.755 o
5 10 19 5.299 5.534 0.642 139.174 o
5 10 20 3.415 3.198 0.571 186.613 o
5 10 21 8.446 9.354 0.672 108.998 o
5 10 22 16.137 17.415 0.802 55.966 o
5 10 23 9.647 10.677 0.652 105.937 o
5 10 24 3.324 3.960 0.732 116.003 o
5 10 25 2.077 2.837 0.652 149.150 o
5 11 0 26.495 26.157 0.832 32.419 o
5 11 1 1.045 1.434 0.461 301.292 o
5 11 2 85.337 85.881 1.654 3.935 o
5 11 3 31.285 31.070 1.003 22.868 o
5 11 4 53.441 53.477 1.033 10.076 o
5 11 5 2.903 3.298 0.391 381.113 o
5 11 6 14.210 14.487 0.541 95.721 o
5 11 7 11.061 11.680 0.541 121.981 o
5 11 8 28.014 28.583 0.862 28.975 o
5 11 9 22.133 21.636 0.762 43.601 o
5 11 10 4.376 4.933 0.672 132.287 o
5 11 11 15.274 16.803 0.902 50.578 o
5 11 12 22.374 23.350 1.013 32.531 o
5 11 13 42.630 43.452 1.464 11.577 o
5 11 14 47.268 48.795 2.928 5.043 o
5 11 15 6.501 6.928 0.682 118.419 o
5 11 16 6.548 7.459 0.802 88.667 o
5 11 17 1.033 1.133 0.521 236.787 o
5 11 18 9.255 8.592 0.672 107.279 o
5 11 19 3.525 4.101 0.581 178.145 o
5 11 20 31.570 33.015 3.679 4.193 o
5 11 21 8.479 8.983 0.642 117.452 o
5 11 22 2.866 3.399 0.501 241.395 o
5 11 23 3.351 2.807 0.692 130.395 o
5 11 24 0.891 1.053 0.602 178.425 o
5 12 0 6.343 6.186 0.551 171.395 o
5 12 1 1.435 1.504 0.461 299.343 o
5 12 2 47.954 47.502 1.424 10.260 o
5 12 3 52.957 53.197 1.223 9.562 o
5 12 4 42.902 41.477 1.283 12.894 o
5 12 5 39.400 40.484 0.902 17.133 o
5 12 6 54.072 55.743 1.323 8.812 o
5 12 7 22.669 23.260 1.795 15.431 o
5 12 8 12.987 13.254 0.832 63.977 o
5 12 9 3.527 4.291 0.652 143.644 o
5 12 10 15.749 15.780 1.013 43.468 o
5 12 11 4.206 4.421 0.632 149.680 o
5 12 12 29.106 29.967 1.243 20.465 o
5 12 13 7.689 8.492 0.702 106.067 o
5 12 14 9.145 9.154 0.792 82.670 o
5 12 15 20.068 20.593 1.815 15.963 o
5 12 16 2.850 2.547 0.561 196.901 o
5 12 17 2.155 2.075 0.521 231.401 o
5 12 18 4.449 4.612 0.632 148.407 o
5 12 19 3.513 3.429 0.541 205.307 o
5 12 20 1.347 1.303 0.481 276.101 o
5 12 21 13.715 14.668 1.694 20.014 o
5 12 22 3.943 4.652 0.712 120.222 o
5 12 23 13.026 12.853 0.892 58.315 o
5 13 0 34.554 35.391 2.938 5.945 o
5 13 1 6.233 6.637 0.732 106.011 o
5 13 2 50.522 52.525 4.471 2.603 o
5 13 3 57.659 58.681 3.790 3.136 o
5 13 4 19.740 21.415 1.003 36.448 o
5 13 5 49.590 56.966 1.323 9.478 o
5 13 6 6.389 6.767 0.952 65.722 o
5 13 7 26.686 28.523 1.093 24.995 o
5 13 8 21.331 22.317 0.962 35.871 o
5 13 9 1.745 1.835 0.571 195.079 o
5 13 10 0.847 1.013 0.531 228.490 o
5 13 11 8.272 8.432 0.682 109.003 o
5 13 12 1.495 1.353 0.521 235.239 o
5 13 13 9.009 9.053 0.682 104.982 o
5 13 14 24.229 24.703 0.962 31.730 o
5 13 15 4.267 4.532 0.571 179.066 o
5 13 16 6.562 6.166 0.592 151.686 o
5 13 17 1.431 1.785 0.481 274.730 o
5 13 18 15.344 14.958 1.404 26.967 o
5 13 19 14.717 15.710 1.584 22.101 o
5 13 20 11.359 11.289 0.882 63.596 o
5 13 21 1.604 1.103 0.602 177.350 o
5 14 0 4.689 5.203 0.852 84.170 o
5 14 1 9.128 8.803 1.424 29.758 o
5 14 2 6.649 6.657 0.722 107.348 o
5 14 3 14.149 15.019 1.975 15.110 o
5 14 4 58.597 62.410 6.447 1.343 o
5 14 5 16.579 16.583 1.203 33.023 o
5 14 6 25.126 25.786 2.005 12.406 o
5 14 7 8.790 9.033 0.702 101.277 o
5 14 8 4.199 4.401 0.602 163.769 o
5 14 9 0.922 0.942 0.511 246.572 o
5 14 10 5.926 5.564 0.602 152.546 o
5 14 11 8.475 8.843 0.662 112.456 o
5 14 12 13.610 13.655 0.742 72.121 o
5 14 13 3.005 3.108 0.531 216.417 o
5 14 14 7.572 7.279 0.612 135.405 o
5 14 15 1.130 1.243 0.481 277.016 o
5 14 16 2.893 3.278 0.501 241.622 o
5 14 17 19.872 19.340 1.173 30.814 o
5 14 18 28.016 28.744 2.336 9.322 o
5 14 19 10.945 9.966 0.812 74.433 o
5 15 0 8.795 10.156 1.193 40.945 o
5 15 1 0.249 -0.010 0.742 117.832 o
5 15 2 3.152 3.208 0.602 170.356 o
5 15 3 5.380 6.366 0.662 129.958 o
5 15 4 7.568 6.737 0.882 73.850 o
5 15 5 8.529 8.732 0.922 65.540 o
5 15 6 7.001 7.108 0.882 74.430 o
5 15 7 6.161 5.985 0.612 146.082 o
5 15 8 19.938 20.803 1.223 28.636 o
5 15 9 13.773 13.254 0.993 48.666 o
5 15 10 6.498 7.058 0.602 145.482 o
5 15 11 4.481 5.093 0.561 181.957 o
5 15 12 1.581 1.674 0.501 253.200 o
5 15 13 8.630 8.793 0.612 125.760 o
5 15 14 5.820 6.216 0.551 175.000 o
5 15 15 0.128 0.421 0.431 348.824 o
5 15 16 7.675 7.670 0.812 84.222 o
5 15 17 2.029 2.156 0.421 349.912 o
5 16 0 0.017 0.401 0.511 248.062 o
5 16 1 14.162 14.968 2.958 7.098 o
5 16 2 7.342 8.031 1.785 19.700 o
5 16 3 12.195 10.387 0.922 58.787 o
5 16 4 17.935 17.675 1.103 35.736 o
5 16 5 12.165 11.058 0.932 57.355 o
5 16 6 0.125 0.110 0.612 173.411 o
5 16 7 17.027 15.580 1.013 42.122 o
5 16 8 12.355 13.144 0.682 84.893 o
5 16 9 0.515 0.862 0.441 332.043 o
5 16 10 18.309 18.618 0.772 52.599 o
5 16 11 3.748 3.980 0.491 241.266 o
5 16 12 0.130 0.491 0.421 365.578 o
5 16 13 0.104 0.110 0.411 383.836 o
5 16 14 5.221 5.835 0.712 115.409 o
5 17 0 3.253 2.747 0.632 155.611 o
5 17 1 13.500 11.921 0.892 58.301 o
5 17 2 2.599 2.105 0.632 158.170 o
5 17 3 12.800 11.630 0.882 60.741 o
5 17 4 3.375 3.569 0.662 140.981 o
5 17 5 4.691 4.191 0.672 132.457 o
5 17 6 2.328 1.694 0.581 187.165 o
5 17 7 9.780 8.813 0.772 84.890 o
5 17 8 2.766 2.767 0.602 172.400 o
5 17 9 6.603 6.537 0.702 113.016 o
5 17 10 7.717 7.078 0.712 105.891 o
5 18 1 0.095 0.571 0.541 221.208 o
6 0 0 31.042 25.445 0.962 25.673 o
6 0 1 7.904 6.978 0.381 255.786 o
6 0 2 0.353 0.261 0.311 670.143 o
6 0 3 0.309 0.401 0.331 591.399 o
6 0 4 4.346 3.720 0.371 382.035 o
6 0 5 19.323 17.074 0.632 61.930 o
6 0 6 71.578 66.541 1.614 5.502 o
6 0 7 8.569 8.492 0.381 229.732 o
6 0 8 8.311 7.690 0.381 241.493 o
6 0 9 12.569 12.271 0.471 126.116 o
6 0 10 8.038 7.439 0.441 209.176 o
6 0 11 9.040 8.803 0.561 139.149 o
6 0 12 156.353 157.495 2.968 1.180 o
6 0 13 46.534 47.081 1.323 11.081 o
6 0 14 59.820 62.521 1.654 6.710 o
6 0 15 6.932 7.229 0.411 247.676 o
6 0 16 26.148 26.829 0.962 29.035 o
6 0 17 3.426 3.639 0.471 264.719 o
6 0 18 0.733 0.712 0.421 363.789 o
6 0 19 1.088 0.962 0.511 246.162 o
6 0 20 4.255 3.860 0.561 186.834 o
6 0 21 10.216 10.968 0.662 100.757 o
6 0 22 21.398 22.207 1.283 25.644 o
6 0 23 12.226 12.542 1.083 44.480 o
6 0 24 2.544 2.396 0.501 246.643 o
6 0 25 9.862 11.038 1.043 50.485 o
6 0 26 0.236 0.451 0.451 318.393 o
6 0 27 0.786 0.561 0.431 347.227 o
6 1 0 42.736 36.604 0.832 17.047 o
6 1 1 60.082 55.663 1.424 7.646 o
6 1 2 90.055 76.366 1.464 4.084 o
6 1 3 20.101 17.455 0.612 60.717 o
6 1 4 83.711 72.165 1.574 4.484 o
6 1 5 57.397 51.161 1.013 9.570 o
6 1 6 11.349 10.728 0.401 164.555 o
6 1 7 47.440 47.131 1.033 12.289 o
6 1 8 26.736 26.438 0.632 37.436 o
6 1 9 1.145 1.103 0.291 746.093 o
6 1 10 15.141 15.590 0.632 77.364 o
6 1 11 36.164 35.972 1.133 17.375 o
6 1 12 104.023 102.092 2.146 2.627 o
6 1 13 2.726 2.917 0.351 470.842 o
6 1 14 14.518 14.588 0.561 91.013 o
6 1 15 51.763 53.507 1.544 8.609 o
6 1 16 25.998 25.095 1.123 25.924 o
6 1 17 28.800 30.669 1.253 20.284 o
6 1 18 25.208 26.799 1.343 21.266 o
6 1 19 10.660 11.540 0.592 112.726 o
6 1 20 13.646 14.377 0.722 73.398 o
6 1 21 5.129 5.334 0.581 166.786 o
6 1 22 6.372 6.928 0.602 146.523 o
6 1 23 4.127 4.151 0.541 199.432 o
6 1 24 8.568 8.211 1.474 28.125 o
6 1 25 2.505 2.376 0.491 256.649 o
6 1 26 13.131 15.089 1.273 32.787 o
6 1 27 3.115 3.549 0.481 257.842 o
6 2 0 56.274 50.931 1.343 8.781 o
6 2 1 9.820 8.722 0.431 183.297 o
6 2 2 5.126 5.233 0.391 319.585 o
6 2 3 70.608 62.501 1.624 5.737 o
6 2 4 30.882 27.621 0.802 28.055 o
6 2 5 18.699 17.084 0.632 63.661 o
6 2 6 31.372 30.077 0.902 24.818 o
6 2 7 17.642 16.903 0.541 75.255 o
6 2 8 11.513 10.507 0.391 167.284 o
6 2 9 38.247 38.810 0.832 18.697 o
6 2 10 29.006 28.152 0.882 27.850 o
6 2 11 54.307 53.688 1.353 8.845 o
6 2 12 53.112 55.222 1.263 9.214 o
6 2 13 44.095 44.615 1.253 12.345 o
6 2 14 13.313 13.194 0.652 85.816 o
6 2 15 81.349 80.567 1.965 3.999 o
6 2 16 2.390 2.486 0.421 344.405 o
6 2 17 40.707 42.108 1.855 9.788 o
6 2 18 9.255 9.745 0.561 134.582 o
6 2 19 1.880 1.915 0.451 308.474 o
6 2 20 10.922 11.890 0.682 92.335 o
6 2 21 10.115 11.008 0.672 99.024 o
6 2 22 18.509 20.513 1.073 35.212 o
6 2 23 20.958 22.518 1.604 18.854 o
6 2 24 1.461 1.604 0.561 203.019 o
6 2 25 8.227 8.552 0.682 108.944 o
6 2 26 4.530 4.672 0.521 208.445 o
6 2 27 6.972 7.820 1.063 52.806 o
6 3 0 2.564 2.176 0.361 458.703 o
6 3 1 88.600 78.662 1.554 4.032 o
6 3 2 37.302 33.195 0.932 19.677 o
6 3 3 79.241 68.466 1.323 5.185 o
6 3 4 62.739 58.801 1.724 6.444 o
6 3 5 28.932 26.598 0.792 30.635 o
6 3 6 21.175 19.771 0.672 51.595 o
6 3 7 18.271 17.575 0.642 63.382 o
6 3 8 19.057 19.360 0.511 68.182 o
6 3 9 51.104 52.585 1.343 9.526 o
6 3 10 7.164 7.219 0.391 259.617 o
6 3 11 0.627 0.561 0.321 625.993 o
6 3 12 0.427 0.231 0.321 628.681 o
6 3 13 5.139 4.572 0.451 259.871 o
6 3 14 13.305 12.993 0.652 86.225 o
6 3 15 31.513 31.862 1.564 14.992 o
6 3 16 19.055 20.663 0.942 40.297 o
6 3 17 8.890 9.354 0.652 112.131 o
6 3 18 62.175 63.533 1.734 6.248 o
6 3 19 20.292 21.545 1.203 28.782 o
6 3 20 6.556 6.787 0.581 154.131 o
6 3 21 4.339 4.963 0.972 65.877 o
6 3 22 7.143 7.249 0.692 112.725 o
6 3 23 3.762 3.890 0.612 161.663 o
6 3 24 2.175 2.707 0.571 192.486 o
6 3 25 13.909 14.638 1.333 30.106 o
6 3 26 1.096 1.333 0.441 328.934 o
6 3 27 6.590 7.429 0.652 126.344 o
6 4 0 2.277 2.887 0.441 314.617 o
6 4 1 155.714 138.365 2.466 1.342 o
6 4 2 78.231 71.704 1.724 4.684 o
6 4 3 47.382 42.990 1.253 11.721 o
6 4 4 57.725 51.723 1.363 8.428 o
6 4 5 4.801 4.431 0.371 362.908 o
6 4 6 17.099 15.680 0.692 64.983 o
6 4 7 26.568 25.405 0.972 29.033 o
6 4 8 7.650 7.349 0.441 214.969 o
6 4 9 21.799 21.776 0.742 44.950 o
6 4 10 27.182 27.330 1.043 26.143 o
6 4 11 62.603 64.165 1.965 5.714 o
6 4 12 2.293 2.316 0.351 487.389 o
6 4 13 15.493 16.051 0.802 58.679 o
6 4 14 15.930 16.262 0.812 56.742 o
6 4 15 9.337 9.645 0.672 104.836 o
6 4 16 29.318 31.641 2.316 9.180 o
6 4 17 6.523 6.717 0.622 138.608 o
6 4 18 1.930 2.306 0.541 215.463 o
6 4 19 8.227 9.364 0.642 117.736 o
6 4 20 22.431 24.152 1.424 21.467 o
6 4 21 11.535 12.602 0.792 72.627 o
6 4 22 7.618 8.081 0.702 107.023 o
6 4 23 9.793 11.249 1.023 52.127 o
6 4 24 0.328 -0.060 0.702 131.671 o
6 4 25 2.932 3.008 0.501 242.276 o
6 4 26 3.548 3.649 0.471 263.509 o
6 5 0 81.014 71.804 1.514 4.731 o
6 5 1 75.611 66.902 1.775 4.957 o
6 5 2 10.077 9.855 0.561 128.875 o
6 5 3 55.442 54.400 1.263 8.884 o
6 5 4 17.552 17.415 0.762 56.079 o
6 5 5 11.724 11.419 0.471 136.282 o
6 5 6 55.432 53.357 1.684 7.658 o
6 5 7 18.747 18.869 0.912 43.362 o
6 5 8 32.712 32.834 1.153 19.387 o
6 5 9 58.518 57.999 1.604 7.230 o
6 5 10 14.246 13.825 0.852 58.954 o
6 5 11 4.317 4.030 0.391 348.017 o
6 5 12 21.356 22.097 0.972 35.581 o
6 5 13 36.389 35.421 1.243 16.254 o
6 5 14 9.057 9.825 0.682 103.316 o
6 5 15 47.383 50.720 2.336 6.567 o
6 5 16 1.658 2.176 0.541 216.645 o
6 5 17 1.904 2.516 0.531 223.126 o
6 5 18 38.431 40.855 1.805 10.545 o
6 5 19 8.179 8.071 0.722 100.453 o
6 5 20 18.971 19.841 1.143 32.373 o
6 5 21 0.014 0.261 0.461 304.941 o
6 5 22 0.312 0.130 0.441 333.117 o
6 5 23 0.397 0.561 0.521 238.313 o
6 5 24 9.033 9.705 0.581 129.930 o
6 5 25 16.670 18.347 0.792 54.723 o
6 5 26 13.472 15.670 1.965 15.296 o
6 6 0 116.995 105.752 2.276 2.215 o
6 6 1 70.360 65.248 1.464 5.895 o
6 6 2 34.155 32.724 1.333 16.589 o
6 6 3 56.583 56.104 1.444 8.039 o
6 6 4 5.846 6.607 0.411 271.501 o
6 6 5 21.670 22.307 0.882 38.645 o
6 6 6 6.485 6.216 0.411 263.833 o
6 6 7 29.945 28.132 1.133 22.354 o
6 6 8 4.551 4.732 0.391 336.340 o
6 6 9 5.071 5.083 0.391 322.220 o
6 6 10 37.405 39.241 1.303 14.690 o
6 6 11 4.587 4.331 0.381 353.980 o
6 6 12 7.337 6.597 0.561 158.311 o
6 6 13 0.351 0.832 0.642 157.358 o
6 6 14 1.765 1.544 0.531 225.434 o
6 6 15 0.750 0.712 0.511 247.134 o
6 6 16 12.444 13.104 0.712 80.261 o
6 6 17 33.238 36.213 1.343 16.187 o
6 6 18 24.114 25.355 1.233 24.462 o
6 6 19 31.049 33.496 1.534 15.221 o
6 6 20 13.946 14.808 0.682 76.707 o
6 6 21 17.370 17.565 1.113 35.839 o
6 6 22 13.981 15.520 0.922 52.072 o
6 6 23 4.613 4.933 0.592 165.567 o
6 6 24 6.256 7.148 0.521 183.998 o
6 6 25 5.649 6.266 0.491 212.137 o
6 7 0 1.414 1.243 0.511 244.858 o
6 7 1 16.954 16.913 0.521 79.958 o
6 7 2 2.403 2.627 0.361 457.409 o
6 7 3 8.746 8.752 0.431 196.726 o
6 7 4 20.260 19.841 0.712 51.168 o
6 7 5 15.861 16.452 0.732 63.569 o
6 7 6 3.147 3.048 0.361 436.815 o
6 7 7 8.256 8.161 0.431 207.229 o
6 7 8 24.154 22.759 0.952 33.060 o
6 7 9 57.940 57.919 1.374 7.915 o
6 7 10 5.596 5.564 0.391 306.649 o
6 7 11 7.101 7.098 0.531 172.000 o
6 7 12 5.670 5.725 0.592 157.928 o
6 7 13 23.349 25.576 1.845 14.433 o
6 7 14 76.673 84.076 2.617 3.483 o
6 7 15 8.039 8.412 0.622 126.774 o
6 7 16 20.652 22.127 0.983 35.922 o
6 7 17 5.596 6.567 0.581 160.554 o
6 7 18 3.173 3.459 0.511 230.403 o
6 7 19 36.503 38.880 1.985 9.895 o
6 7 20 1.161 1.203 0.451 314.660 o
6 7 21 8.130 8.412 0.551 150.430 o
6 7 22 2.988 3.409 0.461 280.687 o
6 7 23 4.749 5.484 0.471 241.204 o
6 7 24 9.057 9.675 0.672 105.900 o
6 8 0 104.068 100.889 3.740 1.912 o
6 8 1 9.656 10.256 0.441 171.958 o
6 8 2 32.811 33.666 1.053 20.480 o
6 8 3 47.546 49.397 1.323 10.613 o
6 8 4 12.318 12.703 0.481 124.075 o
6 8 5 35.004 35.190 1.003 19.558 o
6 8 6 29.606 29.636 0.792 28.499 o
6 8 7 6.121 6.346 0.411 268.993 o
6 8 8 5.678 5.665 0.431 263.286 o
6 8 9 47.113 51.482 1.283 10.667 o
6 8 10 33.588 36.955 1.063 19.111 o
6 8 11 27.184 29.325 1.273 21.031 o
6 8 12 1.729 2.156 0.521 233.006 o
6 8 13 28.260 31.591 1.143 22.155 o
6 8 14 11.447 11.680 0.672 92.547 o
6 8 15 27.554 29.125 2.456 8.631 o
6 8 16 22.908 24.623 1.755 15.764 o
6 8 17 5.826 6.517 0.742 104.726 o
6 8 18 13.163 13.174 0.762 71.558 o
6 8 19 12.018 13.094 0.752 76.012 o
6 8 20 1.185 1.414 0.501 255.087 o
6 8 21 4.300 5.133 1.023 59.774 o
6 8 22 11.505 12.993 0.702 84.982 o
6 8 23 1.123 0.682 0.401 398.876 o
6 9 0 0.573 0.702 0.411 382.268 o
6 9 1 0.022 0.231 0.401 403.278 o
6 9 2 14.765 14.668 0.632 80.382 o
6 9 3 10.283 9.795 0.571 124.955 o
6 9 4 2.230 2.396 0.531 222.011 o
6 9 5 25.092 26.037 1.233 23.724 o
6 9 6 9.685 9.424 0.742 89.642 o
6 9 7 1.917 2.396 0.531 223.315 o
6 9 8 35.206 36.644 1.273 16.155 o
6 9 9 5.815 5.805 0.571 166.290 o
6 9 10 36.540 36.955 1.544 13.204 o
6 9 11 2.186 3.068 0.612 168.224 o
6 9 12 27.336 28.523 1.093 24.571 o
6 9 13 20.891 20.894 0.942 37.963 o
6 9 14 13.425 14.457 1.133 39.554 o
6 9 15 26.762 27.641 2.115 11.086 o
6 9 16 8.969 9.244 0.692 102.493 o
6 9 17 5.730 5.815 0.612 148.651 o
6 9 18 6.905 7.249 0.612 139.003 o
6 9 19 1.497 1.955 0.491 263.187 o
6 9 20 11.953 12.803 1.554 24.056 o
6 9 21 0.279 0.331 0.662 148.087 o
6 9 22 0.544 0.381 0.421 364.893 o
6 10 0 4.259 3.850 0.662 138.068 o
6 10 1 25.695 25.766 1.053 27.583 o
6 10 2 15.392 16.001 0.892 51.752 o
6 10 3 29.492 29.887 1.163 21.606 o
6 10 4 9.911 10.667 0.652 104.818 o
6 10 5 4.616 4.852 0.561 181.868 o
6 10 6 53.154 55.182 1.303 9.078 o
6 10 7 9.228 9.956 0.622 116.875 o
6 10 8 10.155 10.437 0.632 108.758 o
6 10 9 6.296 6.356 0.802 90.303 o
6 10 10 11.602 12.281 0.782 74.169 o
6 10 11 22.805 24.713 1.003 31.826 o
6 10 12 2.643 3.268 0.581 183.532 o
6 10 13 19.527 20.834 1.013 36.554 o
6 10 14 30.424 29.666 1.053 23.007 o
6 10 15 14.080 14.016 0.872 57.284 o
6 10 16 35.684 36.915 1.494 13.858 o
6 10 17 3.813 4.050 0.541 201.700 o
6 10 18 3.361 3.579 0.511 228.709 o
6 10 19 0.431 0.381 0.431 348.399 o
6 10 20 2.237 2.246 0.451 304.560 o
6 10 21 0.359 0.271 0.401 402.807 o
6 11 0 6.546 6.547 0.692 116.012 o
6 11 1 6.584 6.687 0.692 115.644 o
6 11 2 21.602 22.157 0.972 35.290 o
6 11 3 7.360 7.820 0.722 103.419 o
6 11 4 6.616 7.068 0.581 152.909 o
6 11 5 40.233 40.765 1.073 15.369 o
6 11 6 16.298 16.913 1.073 39.010 o
6 11 7 6.927 7.118 0.571 155.016 o
6 11 8 9.547 9.996 0.612 117.774 o
6 11 9 10.609 11.119 0.742 84.369 o
6 11 10 2.779 2.376 0.551 204.482 o
6 11 11 8.505 8.993 0.672 109.488 o
6 11 12 4.680 5.705 0.612 153.919 o
6 11 13 42.115 41.386 1.925 9.265 o
6 11 14 0.731 1.163 0.481 278.351 o
6 11 15 8.496 8.512 0.622 124.204 o
6 11 16 7.045 7.660 0.602 140.809 o
6 11 17 9.929 10.276 1.253 36.849 o
6 11 18 6.178 6.376 0.551 171.891 o
6 11 19 6.235 6.056 0.832 84.886 o
6 11 20 7.682 8.482 0.722 101.376 o
6 12 0 0.272 0.301 0.561 205.677 o
6 12 1 4.540 4.762 0.652 139.582 o
6 12 2 8.337 8.893 0.722 98.638 o
6 12 3 39.582 39.852 1.253 14.322 o
6 12 4 2.274 2.396 0.592 180.193 o
6 12 5 57.033 58.811 2.055 6.197 o
6 12 6 14.363 14.387 0.682 76.044 o
6 12 7 14.647 15.289 0.812 60.359 o
6 12 8 16.212 16.953 1.183 33.981 o
6 12 9 0.340 0.612 0.501 257.766 o
6 12 10 5.654 5.594 0.592 158.374 o
6 12 11 7.560 8.542 0.642 122.695 o
6 12 12 1.618 1.775 0.491 263.052 o
6 12 13 12.551 12.572 0.692 83.695 o
6 12 14 4.067 4.020 0.511 221.911 o
6 12 15 0.389 0.371 0.421 365.253 o
6 12 16 16.274 16.803 0.722 62.989 o
6 12 17 18.844 18.758 1.374 25.416 o
6 12 18 0.890 0.942 0.471 290.105 o
6 13 0 0.618 1.073 0.561 205.050 o
6 13 1 35.986 37.296 1.313 15.376 o
6 13 2 23.656 24.713 1.023 30.463 o
6 13 3 12.479 13.314 0.782 70.699 o
6 13 4 7.055 6.797 0.652 125.711 o
6 13 5 16.550 17.004 1.163 34.559 o
6 13 6 3.996 3.198 0.541 203.168 o
6 13 7 1.032 1.293 0.501 255.727 o
6 13 8 2.514 3.018 0.521 227.343 o
6 13 9 5.459 5.424 0.561 174.834 o
6 13 10 2.141 1.955 0.481 270.591 o
6 13 11 1.782 1.494 0.471 285.260 o
6 13 12 8.500 7.930 0.581 138.611 o
6 13 13 4.230 4.291 0.501 227.393 o
6 13 14 4.109 3.930 0.471 256.515 o
6 13 15 1.210 1.394 0.411 377.107 o
6 13 16 0.650 1.003 0.571 197.946 o
6 14 0 16.033 17.715 2.547 9.263 o
6 14 1 2.156 3.038 0.571 191.985 o
6 14 2 17.008 18.808 1.143 34.336 o
6 14 3 0.479 0.692 0.511 247.561 o
6 14 4 6.059 6.447 0.612 145.436 o
6 14 5 13.339 13.685 0.962 51.210 o
6 14 6 9.085 8.351 0.812 80.438 o
6 14 7 8.456 8.482 0.802 83.374 o
6 14 8 15.708 16.653 0.752 61.894 o
6 14 9 3.774 4.040 0.892 78.695 o
6 14 10 0.737 0.732 0.421 363.735 o
6 14 11 18.311 18.959 0.752 53.579 o
6 14 12 3.723 3.810 0.461 271.222 o
6 14 13 2.510 2.697 0.581 185.021 o
6 15 0 2.573 2.928 0.511 235.821 o
6 15 1 7.491 8.422 0.852 77.161 o
6 15 2 28.283 29.776 2.887 6.556 o
6 15 3 5.874 5.995 1.173 44.990 o
6 15 4 0.889 0.942 0.571 197.682 o
6 15 5 0.340 0.170 0.541 221.185 o
6 15 6 0.870 0.702 0.531 228.720 o
6 15 7 3.264 3.319 0.592 175.237 o
6 15 8 10.752 9.915 0.762 82.444 o
6 15 9 1.218 1.303 0.531 227.377 o
7 0 1 75.788 58.590 0.962 6.389 o
7 0 2 15.082 12.773 0.451 110.204 o
7 0 3 0.082 0.080 0.391 424.231 o
7 0 4 11.344 10.326 0.602 110.031 o
7 0 5 16.910 14.066 0.952 46.797 o
7 0 6 6.088 5.404 0.612 147.897 o
7 0 7 16.799 14.407 1.454 24.999 o
7 0 8 68.445 69.589 2.045 4.956 o
7 0 9 25.535 28.583 1.163 24.224 o
7 0 10 116.086 121.302 3.419 1.717 o
7 0 11 5.827 6.677 0.511 195.591 o
7 0 12 9.567 9.905 0.682 101.204 o
7 0 13 2.115 1.945 0.441 320.214 o
7 0 14 0.150 0.110 0.401 403.229 o
7 0 15 10.373 9.775 0.712 92.495 o
7 0 16 6.097 6.757 0.541 176.205 o
7 0 17 9.377 9.434 0.822 77.051 o
7 0 18 2.362 2.015 0.451 304.478 o
7 0 19 1.567 1.985 0.471 285.100 o
7 0 20 8.370 9.214 0.571 138.814 o
7 0 21 0.889 0.892 0.431 346.230 o
7 0 22 2.400 2.887 0.451 300.451 o
7 1 0 19.595 16.703 0.652 60.219 o
7 1 1 2.198 1.805 0.341 522.142 o
7 1 2 0.800 0.431 0.341 554.115 o
7 1 3 6.183 5.725 0.461 230.801 o
7 1 4 0.139 0.000 0.872 85.255 o
7 1 5 6.213 5.815 0.561 168.606 o
7 1 6 31.108 31.782 1.073 21.649 o
7 1 7 4.177 3.770 0.471 256.647 o
7 1 8 17.414 15.861 1.093 37.475 o
7 1 9 16.957 17.334 0.942 45.148 o
7 1 10 34.929 36.724 1.544 13.637 o
7 1 11 21.917 22.227 1.123 29.859 o
7 1 12 0.249 -0.150 0.802 100.821 o
7 1 13 7.007 6.747 0.541 169.300 o
7 1 14 2.178 2.065 0.381 421.863 o
7 1 15 18.460 18.387 1.023 38.503 o
7 1 16 14.678 15.089 0.802 61.431 o
7 1 17 2.674 2.727 0.371 428.917 o
7 1 18 21.540 22.648 0.722 45.571 o
7 1 19 7.643 8.191 0.481 187.085 o
7 1 20 12.782 13.986 0.642 87.843 o
7 1 21 3.919 4.391 0.481 246.791 o
7 1 22 1.900 2.065 0.431 336.017 o
7 2 0 24.409 19.540 0.772 41.264 o
7 2 1 27.630 22.698 1.093 26.329 o
7 2 2 7.596 6.336 0.421 236.632 o
7 2 3 3.973 3.639 0.411 329.261 o
7 2 4 36.959 36.333 0.902 19.345 o
7 2 5 18.923 18.578 0.942 41.765 o
7 2 6 20.523 19.871 0.972 37.694 o
7 2 7 20.868 21.345 0.812 43.517 o
7 2 8 15.140 15.359 0.962 47.645 o
7 2 9 32.565 34.799 1.343 16.672 o
7 2 10 5.096 5.284 0.461 246.901 o
7 2 11 6.407 6.246 0.461 224.773 o
7 2 12 13.136 14.186 0.832 62.711 o
7 2 13 0.752 0.441 0.361 494.920 o
7 2 14 0.648 0.581 0.361 495.127 o
7 2 15 15.078 14.427 0.962 48.352 o
7 2 16 1.945 2.296 0.361 469.136 o
7 2 17 8.306 8.111 0.632 123.172 o
7 2 18 7.636 7.559 0.581 145.104 o
7 2 19 22.785 21.666 0.722 44.269 o
7 2 20 5.406 5.274 0.501 212.442 o
7 2 21 8.247 8.642 0.983 59.111 o
7 2 22 4.201 4.552 0.541 197.668 o
7 3 0 12.577 10.838 0.581 106.562 o
7 3 1 0.192 -0.080 0.802 100.825 o
7 3 2 4.697 4.101 0.421 301.214 o
7 3 3 2.912 3.048 0.461 283.083 o
7 3 4 27.586 24.182 1.765 14.646 o
7 3 5 75.672 68.797 2.857 3.547 o
7 3 6 18.758 18.307 1.444 23.715 o
7 3 7 47.321 47.362 2.466 6.301 o
7 3 8 34.291 34.779 1.404 15.438 o
7 3 9 2.884 3.058 0.421 335.074 o
7 3 10 5.947 5.474 0.672 126.140 o
7 3 11 1.182 1.474 0.411 377.021 o
7 3 12 11.980 12.221 0.822 68.329 o
7 3 13 7.870 7.730 0.712 104.325 o
7 3 14 16.666 15.811 1.103 37.698 o
7 3 15 6.958 6.657 0.461 215.433 o
7 3 16 4.317 4.662 0.431 291.159 o
7 3 17 8.620 9.514 0.782 85.231 o
7 3 18 14.533 14.968 0.842 58.214 o
7 3 19 23.027 22.899 0.772 40.822 o
7 3 20 1.461 1.544 0.391 413.010 o
7 3 21 3.320 3.028 0.531 214.871 o
7 3 22 7.109 7.519 0.782 91.329 o
7 4 0 5.691 5.203 0.561 174.049 o
7 4 1 10.893 10.136 0.642 103.860 o
7 4 2 11.044 10.116 0.652 101.146 o
7 4 3 27.855 28.223 1.323 20.127 o
7 4 4 28.871 27.902 1.765 13.963 o
7 4 5 0.725 1.203 0.501 256.622 o
7 4 6 55.810 56.415 2.115 6.254 o
7 4 7 1.280 1.744 0.391 413.795 o
7 4 8 9.647 9.184 0.592 124.914 o
7 4 9 6.962 6.908 0.471 207.449 o
7 4 10 4.032 3.679 0.431 302.168 o
7 4 11 2.501 2.516 0.411 358.807 o
7 4 12 17.386 18.217 1.133 34.688 o
7 4 13 0.355 0.221 0.381 446.333 o
7 4 14 1.800 1.584 0.391 409.242 o
7 4 15 16.854 15.831 0.882 50.245 o
7 4 16 10.742 11.149 0.922 60.441 o
7 4 17 4.885 4.873 0.481 234.699 o
7 4 18 5.869 6.076 0.491 210.865 o
7 4 19 4.470 4.702 0.451 267.573 o
7 4 20 10.661 10.928 0.712 89.599 o
7 4 21 11.079 11.600 0.662 95.971 o
7 5 0 0.446 0.261 0.491 268.458 o
7 5 1 1.890 2.286 0.521 232.086 o
7 5 2 31.337 29.797 1.765 13.239 o
7 5 3 20.211 19.350 1.143 31.603 o
7 5 4 72.990 70.611 2.767 3.716 o
7 5 5 3.612 3.840 0.632 152.797 o
7 5 6 25.191 24.132 1.003 29.963 o
7 5 7 10.300 9.885 0.632 109.375 o
7 5 8 10.169 9.915 0.541 133.942 o
7 5 9 1.175 0.912 0.391 418.185 o
7 5 10 1.541 1.815 0.401 391.142 o
7 5 11 3.817 3.689 0.471 260.685 o
7 5 12 0.083 -0.010 0.742 117.842 o
7 5 13 16.877 16.703 1.003 42.204 o
7 5 14 1.609 1.053 0.381 435.459 o
7 5 15 2.066 2.055 0.451 306.625 o
7 5 16 4.780 4.983 0.491 227.189 o
7 5 17 2.525 2.697 0.441 313.150 o
7 5 18 3.030 3.399 0.431 317.123 o
7 5 19 13.632 14.096 0.962 50.531 o
7 5 20 8.485 8.141 0.752 93.048 o
7 5 21 3.846 4.010 0.742 112.022 o
7 6 0 3.210 3.319 0.712 123.196 o
7 6 1 2.047 2.206 0.521 231.587 o
7 6 2 2.229 2.186 0.501 248.987 o
7 6 3 39.077 39.612 2.366 7.636 o
7 6 4 21.791 21.656 1.514 20.392 o
7 6 5 1.945 1.945 0.401 386.239 o
7 6 6 9.565 9.755 0.521 145.416 o
7 6 7 15.344 15.129 0.752 64.617 o
7 6 8 7.647 7.860 0.491 183.591 o
7 6 9 5.470 5.665 0.451 248.398 o
7 6 10 27.290 28.052 1.163 23.344 o
7 6 11 6.224 6.256 0.471 219.800 o
7 6 12 27.064 27.130 1.043 26.301 o
7 6 13 5.106 5.053 0.451 257.183 o
7 6 14 1.945 2.486 0.451 305.908 o
7 6 15 2.736 3.088 0.461 284.498 o
7 6 16 8.375 8.672 0.762 90.647 o
7 6 17 2.587 2.747 0.431 326.015 o
7 6 18 0.917 0.822 0.391 420.213 o
7 6 19 0.638 0.281 0.361 495.994 o
7 6 20 19.451 22.929 1.213 28.573 o
7 7 0 4.287 4.502 0.712 119.584 o
7 7 1 19.628 19.530 2.857 7.299 o
7 7 2 14.233 13.976 0.892 55.326 o
7 7 3 37.826 37.757 2.055 9.386 o
7 7 4 16.801 18.157 1.103 36.527 o
7 7 5 0.564 0.832 0.391 422.051 o
7 7 6 11.345 11.499 0.561 115.964 o
7 7 7 22.232 23.410 1.073 30.697 o
7 7 8 10.285 10.176 0.581 121.112 o
7 7 9 7.123 6.898 0.471 205.646 o
7 7 10 17.568 18.718 0.672 61.368 o
7 7 11 4.457 4.592 0.441 278.742 o
7 7 12 4.106 4.933 0.431 292.254 o
7 7 13 34.886 36.323 1.484 14.248 o
7 7 14 1.282 1.293 0.421 359.522 o
7 7 15 2.926 2.577 0.491 253.200 o
7 7 16 2.180 2.526 0.421 346.468 o
7 7 17 3.521 3.970 0.441 294.931 o
7 7 18 4.495 4.812 0.471 247.734 o
7 7 19 8.983 9.815 1.865 17.826 o
7 8 0 0.106 -0.551 0.842 91.454 o
7 8 1 1.904 1.825 0.642 155.051 o
7 8 2 7.161 6.557 1.283 37.323 o
7 8 3 3.373 3.539 0.521 220.711 o
7 8 4 5.512 5.494 0.451 248.961 o
7 8 5 1.748 2.035 0.401 387.901 o
7 8 6 5.430 5.384 0.451 250.775 o
7 8 7 17.193 16.643 0.622 69.728 o
7 8 8 2.197 1.815 0.401 384.090 o
7 8 9 0.759 0.531 0.381 444.207 o
7 8 10 6.300 5.965 0.451 235.418 o
7 8 11 19.394 19.079 0.892 43.371 o
7 8 12 5.253 6.186 0.501 209.588 o
7 8 13 19.692 20.673 0.832 44.865 o
7 8 14 2.082 2.486 0.421 347.702 o
7 8 15 0.171 0.241 0.371 471.129 o
7 8 16 0.785 1.293 0.451 316.012 o
7 8 17 10.642 9.805 1.033 51.145 o
7 8 18 1.706 1.684 0.441 324.282 o
7 9 0 3.520 3.288 0.642 149.458 o
7 9 1 9.250 9.534 0.762 87.097 o
7 9 2 7.011 7.118 0.722 105.569 o
7 9 3 23.475 23.109 0.902 35.265 o
7 9 4 7.067 7.720 0.732 102.083 o
7 9 5 12.013 12.532 0.602 101.193 o
7 9 6 24.787 24.994 1.374 21.281 o
7 9 7 14.571 13.715 0.622 84.238 o
7 9 8 7.436 7.429 0.521 172.663 o
7 9 9 15.346 15.179 0.902 51.740 o
7 9 10 18.123 18.488 1.023 38.807 o
7 9 11 13.702 14.537 0.742 70.673 o
7 9 12 23.485 24.814 0.902 34.312 o
7 9 13 16.057 16.883 0.752 60.802 o
7 9 14 1.021 1.283 0.451 315.093 o
7 9 15 2.655 2.787 0.642 152.474 o
7 9 16 0.503 0.571 0.411 382.707 o
7 10 0 1.085 1.484 0.822 95.576 o
7 10 1 0.707 1.213 0.832 93.478 o
7 10 2 11.120 11.309 0.772 78.052 o
7 10 3 0.999 1.043 0.491 266.632 o
7 10 4 2.345 2.246 0.521 230.142 o
7 10 5 8.442 8.973 0.642 117.643 o
7 10 6 17.230 17.084 0.852 50.632 o
7 10 7 7.774 8.291 0.521 166.106 o
7 10 8 11.961 11.389 0.612 102.239 o
7 10 9 0.734 0.411 0.381 444.632 o
7 10 10 3.336 3.960 0.521 219.574 o
7 10 11 2.820 3.319 0.501 241.985 o
7 10 12 3.028 3.158 0.491 250.374 o
7 10 13 7.838 8.331 0.571 145.121 o
7 10 14 4.244 4.582 0.481 242.693 o
7 11 0 3.628 3.258 0.832 90.650 o
7 11 1 5.661 5.795 0.882 77.257 o
7 11 2 19.171 17.886 0.772 51.631 o
7 11 3 0.945 1.073 0.471 289.734 o
7 11 4 1.084 1.023 0.461 301.946 o
7 11 5 4.544 4.371 0.521 209.488 o
7 11 6 8.577 8.682 0.501 166.021 o
7 11 7 0.751 0.722 0.381 443.733 o
7 11 8 21.427 19.931 0.812 43.745 o
7 11 9 13.450 12.993 0.672 82.776 o
7 11 10 6.537 6.607 0.551 168.492 o
7 11 11 0.220 0.040 0.401 403.197 o
7 11 12 6.565 6.527 0.521 184.014 o
7 12 0 13.024 12.893 1.023 47.606 o
7 12 1 2.180 2.677 0.491 257.723 o
7 12 2 7.350 7.048 0.592 144.564 o
7 12 3 0.342 0.481 0.441 332.836 o
7 12 4 1.006 1.143 0.451 315.448 o
7 12 5 2.619 2.677 0.471 275.869 o
7 12 6 10.222 10.176 0.602 116.308 o
7 12 7 6.185 6.497 0.441 241.179 o
7 12 8 4.335 4.291 0.481 243.234 o
7 12 9 17.292 17.726 0.942 44.438 o
7 13 0 6.042 7.158 0.862 79.030 o
7 13 1 28.321 29.997 1.303 19.858 o
8 0 0 0.140 -0.341 0.672 143.748 o
8 0 1 0.002 -0.030 0.682 139.556 o
8 0 2 0.879 0.722 0.351 521.345 o
8 0 3 9.822 9.274 0.471 163.508 o
8 0 4 0.956 0.652 0.411 380.791 o
8 0 5 0.193 0.130 0.411 383.757 o
8 0 6 0.126 0.231 0.421 365.721 o
8 0 7 5.412 4.832 0.491 221.731 o
8 0 8 25.045 24.172 0.782 36.784 o
8 0 9 0.996 1.113 0.441 329.905 o
8 0 10 1.167 0.632 0.431 345.587 o
8 0 11 0.170 -0.311 0.722 124.475 o
8 0 12 0.527 0.471 0.421 364.822 o
8 0 13 0.893 0.531 0.421 363.521 o
8 0 14 2.408 1.885 0.421 347.449 o
8 0 15 1.730 1.825 0.722 123.103 o
8 1 0 0.664 0.622 0.351 523.406 o
8 1 1 0.933 0.912 0.361 491.834 o
8 1 2 10.123 7.830 0.551 138.391 o
8 1 3 10.468 8.903 0.752 86.327 o
8 1 4 9.730 8.291 0.541 142.888 o
8 1 5 10.238 8.823 0.762 85.361 o
8 1 6 17.320 15.901 0.962 44.431 o
8 1 7 25.678 25.515 1.083 26.953 o
8 1 8 42.250 41.858 2.115 8.306 o
8 1 9 5.132 5.183 0.511 208.381 o
8 1 10 0.854 0.852 0.441 330.991 o
8 1 11 7.932 7.730 0.802 85.396 o
8 1 12 3.319 3.208 0.471 267.716 o
8 1 13 6.088 5.745 0.491 210.317 o
8 1 14 5.342 5.033 0.411 294.094 o
8 2 0 0.265 -0.060 0.682 139.539 o
8 2 1 1.260 0.531 0.351 518.590 o
8 2 2 4.048 3.359 0.391 359.780 o
8 2 3 12.995 12.312 0.812 67.155 o
8 2 4 3.790 3.539 0.461 271.949 o
8 2 5 2.079 1.504 0.441 322.234 o
8 2 6 2.330 2.797 0.461 289.174 o
8 2 7 28.639 23.931 1.985 12.197 o
8 2 8 13.303 12.191 1.494 25.477 o
8 2 9 7.671 7.780 0.662 118.040 o
8 2 10 3.330 3.529 1.113 51.474 o
8 2 11 16.156 14.317 1.353 28.374 o
8 2 12 1.522 1.544 0.612 171.408 o
8 2 13 1.370 0.712 0.371 462.997 o
8 2 14 0.106 -0.271 0.602 179.248 o
8 3 0 3.620 3.238 0.471 264.785 o
8 3 1 4.346 3.529 0.471 256.141 o
8 3 2 5.255 4.712 0.612 153.553 o
8 3 3 13.534 12.181 1.404 28.302 o
8 3 4 1.716 1.333 0.551 210.049 o
8 3 5 1.914 1.574 0.551 209.133 o
8 3 6 0.359 0.411 0.541 221.098 o
8 3 7 9.465 7.870 0.782 85.173 o
8 3 8 10.582 9.143 1.183 40.758 o
8 3 9 4.995 4.842 0.602 159.055 o
8 3 10 3.969 3.068 0.922 74.040 o
8 3 11 3.269 3.028 0.541 207.754 o
8 3 12 4.449 4.502 0.531 202.791 o
8 3 13 3.113 3.720 0.411 342.054 o
8 3 14 7.776 6.948 0.812 84.765 o
8 4 0 0.184 -0.020 0.722 124.474 o
8 4 1 2.472 2.587 0.792 101.482 o
8 4 2 12.845 11.269 1.243 35.428 o
8 4 3 2.767 2.767 0.581 183.996 o
8 4 4 4.763 3.830 1.353 34.702 o
8 4 5 17.110 13.695 1.283 30.505 o
8 4 6 3.649 3.048 0.571 185.890 o
8 4 7 17.471 14.748 0.922 47.468 o
8 4 8 16.253 14.507 1.424 26.066 o
8 4 9 2.923 2.817 0.421 336.102 o
8 4 10 9.939 9.043 0.712 95.194 o
8 4 11 4.683 4.411 0.431 287.642 o
8 4 12 4.376 3.900 0.421 307.781 o
8 4 13 0.026 -0.211 0.592 185.380 o
8 5 0 12.357 12.211 1.394 29.128 o
8 5 1 4.793 4.582 0.612 155.946 o
8 5 2 0.893 1.203 0.551 212.023 o
8 5 3 3.321 2.928 0.732 116.918 o
8 5 4 3.400 3.198 0.592 174.939 o
8 5 5 7.320 6.256 0.852 79.352 o
8 5 6 17.711 17.094 0.932 44.877 o
8 5 7 1.298 1.253 0.401 395.700 o
8 5 8 4.328 4.301 0.441 282.434 o
8 5 9 15.636 14.106 0.602 81.907 o
8 5 10 1.326 1.323 0.381 436.953 o
8 5 11 1.058 0.722 0.311 660.011 o
8 5 12 4.750 4.963 0.501 219.890 o
8 6 0 0.009 0.140 0.521 238.645 o
8 6 1 6.598 5.785 1.033 56.817 o
8 6 2 1.831 1.504 0.551 209.486 o
8 6 3 0.857 1.023 0.541 220.124 o
8 6 4 16.275 15.480 0.652 71.555 o
8 6 5 13.998 13.334 1.043 44.921 o
8 6 6 13.201 13.224 1.113 41.409 o
8 6 7 11.983 10.968 0.692 88.436 o
8 6 8 1.450 1.644 0.391 412.627 o
8 6 9 2.219 1.845 0.381 422.872 o
8 6 10 0.983 1.343 0.311 655.971 o
8 6 11 0.840 0.642 0.551 212.537 o
8 7 0 3.673 3.018 0.561 192.101 o
8 7 1 2.845 2.436 0.541 211.353 o
8 7 2 0.319 0.060 0.501 258.019 o
8 7 3 0.935 0.231 0.371 468.235 o
8 7 4 4.429 4.341 0.672 133.025 o
8 7 5 10.391 10.507 0.782 79.490 o
8 7 6 7.856 7.399 0.712 104.914 o
8 7 7 8.675 7.910 0.762 90.865 o
8 7 8 0.158 0.722 0.361 497.063 o
8 7 9 3.695 3.579 0.632 152.953 o
8 8 0 6.245 5.705 0.602 150.499 o
8 8 1 1.574 1.333 0.521 235.021 o
8 8 2 0.568 0.201 0.481 279.631 o
8 8 3 6.645 6.557 0.632 134.793 o
8 8 4 13.261 11.880 0.662 86.964 o
8 8 5 1.250 1.434 0.682 138.592 o
8 8 6 20.379 17.595 1.003 37.792 o
;
_olex2_submission_special_instructions 'No special instructions were received'
loop_
_space_group_symop_id
_space_group_symop_operation_xyz
1 x,y,z
2 x+1/2,-y+1/2,-z
3 -x,y+1/2,-z+1/2
4 -x+1/2,-y,z+1/2
loop_
_atom_site_label
_atom_site_type_symbol
_atom_site_fract_x
_atom_site_fract_y
_atom_site_fract_z
_atom_site_U_iso_or_equiv
_atom_site_adp_type
_atom_site_occupancy
_atom_site_refinement_flags_posn
S(1) S 0.51597(2) 0.940248(9) 0.836651(5) 0.01677(2) Uani 1.000000 .
O(1) O 0.23439(7) 1.01198(2) 0.711978(15) 0.01317(4) Uani 1.000000 .
C(8) C 0.05082(8) 0.99619(3) 0.647046(18) 0.01204(4) Uani 1.000000 .
C(3) C 0.03657(9) 0.76096(3) 0.669709(19) 0.01444(4) Uani 1.000000 .
H(3) H -0.043(3) 0.6635(13) 0.6533(5) 0.039(3) Uani 1.000000 .
C(9) C -0.06134(8) 0.87191(3) 0.624864(18) 0.01271(4) Uani 1.000000 .
C(2) C 0.22828(9) 0.77907(3) 0.732030(19) 0.01435(5) Uani 1.000000 .
H(2) H 0.307(3) 0.7001(9) 0.7634(5) 0.035(3) Uani 1.000000 .
C(4) C -0.25400(9) 0.86224(4) 0.55854(2) 0.01587(5) Uani 1.000000 .
H(4) H -0.343(3) 0.7679(12) 0.5430(5) 0.036(3) Uani 1.000000 .
C(1) C 0.31889(8) 0.90860(3) 0.756754(19) 0.01258(4) Uani 1.000000 .
C(7) C -0.01546(9) 1.10927(3) 0.604941(19) 0.01496(5) Uani 1.000000 .
H(7) H 0.071(2) 1.1995(10) 0.6233(6) 0.033(2) Uani 1.000000 .
C(6) C -0.20353(10) 1.09671(4) 0.53945(2) 0.01752(5) Uani 1.000000 .
H(6) H -0.252(3) 1.1836(11) 0.5050(5) 0.041(3) Uani 1.000000 .
C(5) C -0.32428(10) 0.97357(4) 0.51615(2) 0.01788(5) Uani 1.000000 .
H(5) H -0.469(3) 0.9693(13) 0.4636(6) 0.042(3) Uani 1.000000 .
loop_
_atom_site_aniso_label
_atom_site_aniso_U_11
_atom_site_aniso_U_22
_atom_site_aniso_U_33
_atom_site_aniso_U_12
_atom_site_aniso_U_13
_atom_site_aniso_U_23
S(1) 0.01864(4) 0.01464(3) 0.01703(3) 0.00001(3) -0.00456(3) -0.00012(2)
O(1) 0.01537(8) 0.00992(7) 0.01424(8) -0.00103(7) -0.00032(7) -0.00016(6)
C(8) 0.01270(9) 0.01082(8) 0.01259(9) -0.00005(8) 0.00172(7) -0.00008(7)
C(3) 0.01710(11) 0.01040(8) 0.01583(10) -0.00187(8) 0.00158(9) -0.00129(7)
H(3) 0.056(7) 0.039(7) 0.023(5) 0.018(6) 0.008(5) 0.015(4)
C(9) 0.01264(9) 0.01222(9) 0.01325(10) -0.00107(8) 0.00209(8) -0.00147(8)
C(2) 0.01741(11) 0.01010(9) 0.01554(11) -0.00059(9) 0.00067(9) 0.00039(7)
H(2) 0.048(7) 0.015(5) 0.042(6) -0.001(5) 0.017(6) 0.005(4)
C(4) 0.01465(10) 0.01854(12) 0.01443(10) -0.00146(10) 0.00086(9) -0.00294(9)
H(4) 0.031(5) 0.041(7) 0.037(5) -0.010(6) -0.015(5) 0.002(5)
C(1) 0.01275(9) 0.01109(9) 0.01391(10) -0.00011(8) 0.00087(8) 0.00015(7)
C(7) 0.01694(11) 0.01302(9) 0.01491(10) 0.00069(9) 0.00120(9) 0.00177(7)
H(7) 0.029(5) 0.023(5) 0.047(5) -0.002(5) -0.008(5) 0.012(5)
C(6) 0.01787(12) 0.01958(13) 0.01511(11) 0.00196(11) 0.00078(10) 0.00296(9)
H(6) 0.046(6) 0.044(6) 0.031(5) 0.003(6) -0.002(6) 0.006(5)
C(5) 0.01641(11) 0.02325(14) 0.01399(11) 0.00026(11) 0.00005(9) -0.00035(10)
H(5) 0.036(6) 0.046(6) 0.043(7) 0.016(6) -0.002(6) 0.005(5)
loop_
_atom_type_symbol
_atom_type_description
_atom_type_scat_dispersion_real
_atom_type_scat_dispersion_imag
_atom_type_scat_source
_atom_type_scat_dispersion_source
C C 0.00347 0.00161
'Clementi & Roetti, C., At. Data Nucl. Data Tables 1974, 14, (177-478); Clementi & Raimondi, J. Chem. Phys., 1963, 38, (2686-2689)'
'Henke, Gullikson and Davis, At. Data and Nucl. Data Tables, 1993, 54, 2'
H H 0.00000 0.00000
'Clementi & Roetti, C., At. Data Nucl. Data Tables 1974, 14, (177-478); Clementi & Raimondi, J. Chem. Phys., 1963, 38, (2686-2689)'
'Henke, Gullikson and Davis, At. Data and Nucl. Data Tables, 1993, 54, 2'
N N 0.00653 0.00323
'Clementi & Roetti, C., At. Data Nucl. Data Tables 1974, 14, (177-478); Clementi & Raimondi, J. Chem. Phys., 1963, 38, (2686-2689)'
'Henke, Gullikson and Davis, At. Data and Nucl. Data Tables, 1993, 54, 2'
O O 0.01158 0.00611
'Clementi & Roetti, C., At. Data Nucl. Data Tables 1974, 14, (177-478); Clementi & Raimondi, J. Chem. Phys., 1963, 38, (2686-2689)'
'Henke, Gullikson and Davis, At. Data and Nucl. Data Tables, 1993, 54, 2'
loop_
_geom_angle_atom_site_label_1
_geom_angle_atom_site_label_2
_geom_angle_atom_site_label_3
_geom_angle
_geom_angle_site_symmetry_1
_geom_angle_site_symmetry_3
_geom_angle_publ_flag
C(1) O(1) C(8) 122.01(3) . . ?
C(9) C(8) O(1) 120.94(3) . . ?
C(7) C(8) O(1) 116.83(3) . . ?
C(7) C(8) C(9) 122.23(3) . . ?
C(9) C(3) H(3) 119.4(5) . . ?
C(2) C(3) H(3) 120.7(5) . . ?
C(2) C(3) C(9) 119.86(3) . . ?
C(3) C(9) C(8) 117.83(3) . . ?
C(4) C(9) C(8) 118.35(3) . . ?
C(4) C(9) C(3) 123.79(3) . . ?
H(2) C(2) C(3) 120.6(6) . . ?
C(1) C(2) C(3) 121.09(3) . . ?
C(1) C(2) H(2) 118.3(6) . . ?
H(4) C(4) C(9) 117.8(5) . . ?
C(5) C(4) C(9) 120.29(3) . . ?
C(5) C(4) H(4) 122.0(5) . . ?
O(1) C(1) S(1) 117.84(2) . . ?
C(2) C(1) S(1) 124.18(3) . . ?
C(2) C(1) O(1) 117.97(3) . . ?
H(7) C(7) C(8) 120.0(5) . . ?
C(6) C(7) C(8) 118.19(3) . . ?
C(6) C(7) H(7) 121.8(5) . . ?
H(6) C(6) C(7) 119.2(6) . . ?
C(5) C(6) C(7) 121.03(4) . . ?
C(5) C(6) H(6) 119.7(6) . . ?
C(6) C(5) C(4) 119.89(3) . . ?
H(5) C(5) C(4) 122.2(7) . . ?
H(5) C(5) C(6) 117.9(7) . . ?
loop_
_geom_bond_atom_site_label_1
_geom_bond_atom_site_label_2
_geom_bond_distance
_geom_bond_site_symmetry_2
_geom_bond_publ_flag
S(1) C(1) 1.6524(3) . ?
O(1) C(8) 1.3758(4) . ?
O(1) C(1) 1.3596(4) . ?
C(8) C(9) 1.3996(4) . ?
C(8) C(7) 1.3958(4) . ?
C(3) H(3) 1.082(14) . ?
C(3) C(9) 1.4347(5) . ?
C(3) C(2) 1.3592(5) . ?
C(9) C(4) 1.4105(5) . ?
C(2) H(2) 1.027(10) . ?
C(2) C(1) 1.4361(5) . ?
C(4) H(4) 1.062(12) . ?
C(4) C(5) 1.3871(6) . ?
C(7) H(7) 1.034(11) . ?
C(7) C(6) 1.3905(5) . ?
C(6) H(6) 1.091(10) . ?
C(6) C(5) 1.4065(6) . ?
C(5) H(5) 1.098(10) . ?
loop_
_refln_index_h
_refln_index_k
_refln_index_l
_refln_F_squared_meas
_refln_F_squared_sigma
2 0 0 146.44 1.88
4 0 0 1997.35 48
6 0 0 25.38 0.96
8 0 0 -0.34 0.67
1 1 0 45.49 0.55
2 1 0 36.56 0.66
3 1 0 120.6 1.32
4 1 0 0.57 0.26
5 1 0 12.8 0.45
6 1 0 36.51 0.83
7 1 0 16.66 0.65
8 1 0 0.62 0.35
0 2 0 4929.78 24.68
1 2 0 2611.63 27.1
2 2 0 134.91 1.46
3 2 0 48.42 0.67
4 2 0 177.03 2.17
5 2 0 383.01 5.54
6 2 0 50.8 1.34
7 2 0 19.49 0.77
8 2 0 -0.06 0.68
1 3 0 787.01 7.32
2 3 0 4.42 0.26
3 3 0 36.54 0.54
4 3 0 8.39 0.37
5 3 0 140.2 2.08
6 3 0 2.17 0.36
7 3 0 10.81 0.58
8 3 0 3.23 0.47
0 4 0 268.58 4.14
1 4 0 3460.15 39.12
2 4 0 13.32 0.34
3 4 0 164.61 2.16
4 4 0 10.65 0.4
5 4 0 451.86 6.44
6 4 0 2.88 0.44
7 4 0 5.19 0.56
8 4 0 -0.02 0.72
1 5 0 958.92 10.28
2 5 0 335.8 3.8
3 5 0 1.34 0.3
4 5 0 136.41 1.97
5 5 0 458.25 8.82
6 5 0 71.62 1.51
7 5 0 0.26 0.49
8 5 0 12.18 1.39
0 6 0 481.02 6.8
1 6 0 533.67 5.64
2 6 0 494.47 5.07
3 6 0 165.62 2.02
4 6 0 75.78 1.23
5 6 0 3.54 0.35
6 6 0 105.48 2.27
7 6 0 3.31 0.71
8 6 0 0.14 0.52
1 7 0 22.13 0.42
2 7 0 17.76 0.4
3 7 0 46.05 0.78
4 7 0 0.05 0.3
5 7 0 17.58 0.5
6 7 0 1.24 0.51
7 7 0 4.49 0.71
8 7 0 3.01 0.56
0 8 0 132.51 1.99
1 8 0 0.76 0.25
2 8 0 360.24 4.14
3 8 0 2.93 0.35
4 8 0 0.97 0.35
5 8 0 0.45 0.32
6 8 0 100.63 3.73
7 8 0 -0.55 0.84
8 8 0 5.69 0.6
1 9 0 192.16 2.56
2 9 0 9.81 0.4
3 9 0 0.51 0.31
4 9 0 19.43 0.65
5 9 0 95.84 1.77
6 9 0 0.7 0.41
7 9 0 3.28 0.64
0 10 0 1.12 0.34
1 10 0 354.05 4.42
2 10 0 397.99 7.15
3 10 0 113.73 1.85
4 10 0 27.5 0.83
5 10 0 9.96 0.6
6 10 0 3.84 0.66
7 10 0 1.48 0.82
1 11 0 77.98 1.21
2 11 0 2.05 0.3
3 11 0 15.66 0.53
4 11 0 65.05 1.89
5 11 0 26.09 0.83
6 11 0 6.53 0.69
7 11 0 3.25 0.83
0 12 0 1.75 0.54
1 12 0 21.79 0.52
2 12 0 10.41 0.58
3 12 0 208.8 3.29
4 12 0 2.83 0.5
5 12 0 6.17 0.55
6 12 0 0.3 0.56
7 12 0 12.86 1.02
1 13 0 114.04 1.98
2 13 0 0.8 0.37
3 13 0 3.43 0.39
4 13 0 13.03 0.71
5 13 0 35.3 2.93
6 13 0 1.07 0.56
7 13 0 7.14 0.86
0 14 0 95.4 2.5
1 14 0 89.09 1.43
2 14 0 0.38 0.37
3 14 0 225.15 3.74
4 14 0 45.83 2.78
5 14 0 5.19 0.85
6 14 0 17.67 2.54
1 15 0 3.17 0.43
2 15 0 1.55 0.37
3 15 0 4.56 0.48
4 15 0 0.79 0.61
5 15 0 10.13 1.19
6 15 0 2.92 0.51
0 16 0 68.83 2.98
1 16 0 11.95 0.56
2 16 0 302.44 14.59
3 16 0 22.43 0.99
4 16 0 37.99 5.33
5 16 0 0.4 0.51
1 17 0 3.13 0.45
2 17 0 2.83 0.69
3 17 0 3.2 0.61
4 17 0 1.47 0.57
5 17 0 2.74 0.63
0 18 0 65.23 2.57
1 18 0 11.32 0.72
2 18 0 61.1 4.91
3 18 0 0.57 0.52
4 18 0 31.57 1.41
1 19 0 5.78 0.58
2 19 0 2.11 0.61
3 19 0 1.05 0.49
4 19 0 -0.09 0.56
0 20 0 5.68 0.93
1 20 0 47.69 1.4
2 20 0 9.09 0.68
3 20 0 46.08 2.01
1 21 0 0.35 0.51
2 21 0 5.03 0.56
1 0 1 101.3 1.9
2 0 1 11.29 0.47
3 0 1 23.6 0.45
4 0 1 39.39 0.68
5 0 1 52.05 0.93
6 0 1 6.96 0.38
7 0 1 58.44 0.96
8 0 1 -0.03 0.68
-8 1 1 0.89 0.36
-7 1 1 1.5 0.33
-6 1 1 57.43 1.68
-5 1 1 62.27 1.35
-4 1 1 78.4 1
-3 1 1 597.48 6
-2 1 1 62.24 0.91
-1 1 1 3162.12 38.01
0 1 1 73.22 0.96
1 1 1 3210.8 40.94
2 1 1 62.08 0.99
3 1 1 603.78 6.08
4 1 1 82.42 1.28
5 1 1 59.94 1.43
6 1 1 55.52 1.42
7 1 1 1.8 0.34
8 1 1 0.91 0.36
-8 2 1 1.31 0.36
-7 2 1 21.98 1.19
-6 2 1 9.31 0.43
-5 2 1 95.5 1.55
-4 2 1 112.71 1.38
-3 2 1 225.44 2.3
-2 2 1 139.45 1.75
-1 2 1 1325.17 14.49
0 2 1 3380.45 45.99
1 2 1 1352.82 15.72
2 2 1 147.28 1.66
3 2 1 223.29 2.33
4 2 1 111.85 1.69
5 2 1 89.98 1.48
6 2 1 8.7 0.43
7 2 1 22.64 1.09
8 2 1 0.53 0.35
-8 3 1 3.45 0.47
-7 3 1 -0.46 0.87
-6 3 1 80.01 1.99
-5 3 1 199.6 2.85
-4 3 1 222.57 2.8
-3 3 1 116.65 1.47
-2 3 1 568.52 6.63
-1 3 1 204.08 2.35
0 3 1 1588.9 15.74
1 3 1 198.16 2.49
2 3 1 586.27 6.23
3 3 1 116.52 1.45
4 3 1 223.99 2.81
5 3 1 196.93 2.99
6 3 1 78.46 1.55
7 3 1 -0.08 0.8
8 3 1 3.52 0.47
-8 4 1 1.44 0.43
-7 4 1 11.15 0.66
-6 4 1 138.64 2.8
-5 4 1 52.32 1.17
-4 4 1 53.08 0.99
-3 4 1 52.2 0.8
-2 4 1 1413.7 15.79
-1 4 1 65.33 0.79
0 4 1 730.88 7.76
1 4 1 64.55 0.89
2 4 1 1403.36 18.19
3 4 1 49.92 0.87
4 4 1 56.17 0.88
5 4 1 56.53 1.06
6 4 1 138.01 2.46
7 4 1 10.11 0.64
8 4 1 2.58 0.79
-8 5 1 3.84 0.47
-7 5 1 1.88 0.68
-6 5 1 66.06 1.6
-5 5 1 47.56 1.26
-4 5 1 136.45 1.93
-3 5 1 4.11 0.3
-2 5 1 450.01 4.49
-1 5 1 354.88 3.67
0 5 1 328.81 3.39
1 5 1 347.73 3.78
2 5 1 460.82 5.02
3 5 1 4.6 0.34
4 5 1 134.02 2.02
5 5 1 45.42 1.13
6 5 1 66.73 1.77
7 5 1 2.28 0.52
8 5 1 4.57 0.61
-8 6 1 6.6 0.64
-7 6 1 1.3 0.66
-6 6 1 61.43 1.29
-5 6 1 117.71 2.26
-4 6 1 169.79 2.68
-3 6 1 27.32 0.56
-2 6 1 546.83 5.53
-1 6 1 364.33 4.29
0 6 1 440.74 4.95
1 6 1 393.73 3.87
2 6 1 570.76 5.89
3 6 1 26.34 0.6
4 6 1 167.53 2.91
5 6 1 112.52 1.78
6 6 1 65.08 1.46
7 6 1 2.2 0.52
8 6 1 5.77 1.03
-8 7 1 2.67 0.56
-7 7 1 19.17 1.68
-6 7 1 16.95 0.75
-5 7 1 72.74 1.33
-4 7 1 67.51 1.04
-3 7 1 17.36 0.49
-2 7 1 69.74 1.09
-1 7 1 348.76 3.65
0 7 1 2.78 0.22
1 7 1 364.95 4.02
2 7 1 71.78 1.11
3 7 1 14.96 0.42
4 7 1 67.88 1.15
5 7 1 73.45 1.59
6 7 1 16.87 0.52
7 7 1 19.48 2.85
8 7 1 2.43 0.54
-8 8 1 1.01 0.52
-7 8 1 1.37 0.63
-6 8 1 9.37 0.64
-5 8 1 112.18 1.75
-4 8 1 6.23 0.39
-3 8 1 449.23 6.17
-2 8 1 219.46 3.17
-1 8 1 1874.67 25.5
0 8 1 144.24 1.76
1 8 1 1863.23 26.22
2 8 1 214.03 3.15
3 8 1 448.82 6.69
4 8 1 6.46 0.38
5 8 1 115.23 2.09
6 8 1 10.23 0.44
7 8 1 1.82 0.64
8 8 1 1.33 0.52
-7 9 1 8.71 0.76
-6 9 1 0.12 0.57
-5 9 1 1.23 0.46
-4 9 1 39.82 0.98
-3 9 1 74.82 1.54
-2 9 1 2.44 0.27
-1 9 1 183.89 2.46
0 9 1 560.72 6.33
1 9 1 187.51 2.56
2 9 1 2.95 0.3
3 9 1 75.61 1.31
4 9 1 38.73 0.91
5 9 1 1.07 0.4
6 9 1 0.23 0.4
7 9 1 9.51 0.76
-7 10 1 0.78 0.81
-6 10 1 23.93 1.01
-5 10 1 37.2 0.98
-4 10 1 37.3 0.96
-3 10 1 158.3 3
-2 10 1 23.27 0.59
-1 10 1 376.01 4.42
0 10 1 30.45 0.56
1 10 1 373.39 4.33
2 10 1 24.68 0.83
3 10 1 166.67 2.53
4 10 1 35.37 0.85
5 10 1 37.56 0.98
6 10 1 25.7 1.05
7 10 1 1.21 0.83
-7 11 1 6.09 0.9
-6 11 1 6.65 0.69
-5 11 1 1.49 0.45
-4 11 1 28.35 0.98
-3 11 1 48.83 0.91
-2 11 1 29.45 1.08
-1 11 1 17.96 0.47
0 11 1 41.15 0.74
1 11 1 19.6 0.5
2 11 1 33.31 0.84
3 11 1 49.03 0.97
4 11 1 26.67 1.03
5 11 1 1.43 0.46
6 11 1 6.67 0.69
7 11 1 5.78 0.88
-7 12 1 3.55 0.81
-6 12 1 5.93 0.66
-5 12 1 1.55 0.47
-4 12 1 304.39 11.13
-3 12 1 41.55 0.91
-2 12 1 93.79 2.08
-1 12 1 13.31 0.47
0 12 1 782.04 11.14
1 12 1 13.46 0.4
2 12 1 88.76 1.73
3 12 1 41.83 0.92
4 12 1 299.24 10.89
5 12 1 1.5 0.46
6 12 1 4.75 0.65
7 12 1 2.67 0.49
-7 13 1 30.12 1.33
-6 13 1 37.93 2.52
-5 13 1 7.25 0.76
-4 13 1 26.99 1.28
-3 13 1 90.27 1.68
-2 13 1 124.64 2.91
-1 13 1 5.14 0.59
0 13 1 0.97 0.28
1 13 1 4.41 0.33
2 13 1 119.44 2.65
3 13 1 92.22 1.55
4 13 1 24.56 1.11
5 13 1 6.62 0.73
6 13 1 37.2 1.31
7 13 1 29.92 1.3
-6 14 1 2.64 0.54
-5 14 1 9.04 1.26
-4 14 1 30.15 2.06
-3 14 1 43.14 1.19
-2 14 1 37.28 1.31
-1 14 1 29.7 0.88
0 14 1 44.98 0.79
1 14 1 29.56 0.76
2 14 1 35.24 0.98
3 14 1 43.2 1.06
4 14 1 30.4 2.27
5 14 1 8.78 1.42
6 14 1 3.03 0.57
-6 15 1 7.82 1.41
-5 15 1 0.73 0.61
-4 15 1 7.68 1
-3 15 1 11.5 0.65
-2 15 1 19.48 0.89
-1 15 1 30.85 0.95
0 15 1 23.26 0.62
1 15 1 31.05 0.81
2 15 1 17.79 0.75
3 15 1 11.8 0.53
4 15 1 8.59 1.76
5 15 1 -0.01 0.74
6 15 1 8.4 0.85
-5 16 1 15.91 2.17
-4 16 1 11.21 2.54
-3 16 1 22.37 2.08
-2 16 1 3.31 0.4
-1 16 1 25.64 0.86
0 16 1 15.07 0.61
1 16 1 22.35 0.69
2 16 1 2.55 0.53
3 16 1 20.24 0.95
4 16 1 10.88 1.42
5 16 1 14.93 2.95
-5 17 1 14.53 2.19
-4 17 1 3.71 1.17
-3 17 1 47.06 2.49
-2 17 1 21.21 2.04
-1 17 1 146.45 2.94
0 17 1 34.33 1.04
1 17 1 141.01 3.22
2 17 1 21.13 1.54
3 17 1 47 1.66
4 17 1 3.89 0.81
5 17 1 11.89 0.89
-5 18 1 0.08 0.52
-4 18 1 0.9 0.51
-3 18 1 22.52 0.94
-2 18 1 90.89 5.65
-1 18 1 11.06 0.7
0 18 1 7.02 0.8
1 18 1 10.65 1.04
2 18 1 91.35 4.44
3 18 1 23.02 0.95
4 18 1 1.4 0.67
5 18 1 0.57 0.54
-4 19 1 5.46 0.7
-3 19 1 0.71 0.48
-2 19 1 4.39 0.65
-1 19 1 16.01 0.73
0 19 1 4.69 0.69
1 19 1 16.96 0.76
2 19 1 5.46 0.67
3 19 1 0.23 0.48
4 19 1 6.15 0.73
-3 20 1 1.23 0.46
-2 20 1 15.7 0.8
-1 20 1 2.11 0.48
0 20 1 5.03 0.65
1 20 1 1.67 0.58
2 20 1 15.77 0.8
3 20 1 2.13 0.51
-2 21 1 3.94 0.53
-1 21 1 15.52 1.14
0 21 1 27.93 1.02
1 21 1 15.19 0.78
2 21 1 3.62 0.53
0 0 2 1747.31 14.62
1 0 2 41.72 0.71
2 0 2 146.47 2.37
3 0 2 91.13 1.22
4 0 2 195.38 2.28
5 0 2 61.25 1.41
6 0 2 0.26 0.31
7 0 2 12.74 0.45
8 0 2 0.72 0.35
-8 1 2 7.84 0.45
-7 1 2 0.3 0.33
-6 1 2 76.32 1.44
-5 1 2 3.34 0.34
-4 1 2 74.72 1.03
-3 1 2 643.1 6.87
-2 1 2 676.76 8.13
-1 1 2 5401.44 66.92
0 1 2 1564.45 16.2
1 1 2 6201.19 99.96
2 1 2 702.25 8.73
3 1 2 673.49 7.5
4 1 2 68.06 1.05
5 1 2 2.36 0.31
6 1 2 76.17 1.46
7 1 2 0.43 0.34
8 1 2 7.81 0.55
-8 2 2 3.95 0.39
-7 2 2 6.05 0.53
-6 2 2 4.28 0.37
-5 2 2 57.37 1.22
-4 2 2 156.03 1.76
-3 2 2 65.46 0.89
-2 2 2 61.81 0.81
-1 2 2 154.64 1.96
0 2 2 16.6 0.32
1 2 2 154.21 1.7
2 2 2 66.03 0.88
3 2 2 65.24 0.79
4 2 2 162.21 2
5 2 2 51.07 0.88
6 2 2 5.22 0.39
7 2 2 6.32 0.42
8 2 2 3.35 0.39
-8 3 2 4.84 0.49
-7 3 2 4.41 0.6
-6 3 2 31.16 0.93
-5 3 2 12.2 0.44
-4 3 2 285.22 3.27
-3 3 2 253.47 2.63
-2 3 2 603.37 6.56
-1 3 2 467.64 4.91
0 3 2 808.75 8.51
1 3 2 457.77 5.99
2 3 2 619.98 6.36
3 3 2 247.66 2.62
4 3 2 282.2 3.24
5 3 2 14.28 0.39
6 3 2 33.11 0.93
7 3 2 4.09 0.42
8 3 2 4.7 0.61
-8 4 2 11.36 1.02
-7 4 2 11.32 1.5
-6 4 2 65.85 1.42
-5 4 2 309.11 4.97
-4 4 2 328.96 4.11
-3 4 2 132.59 1.71
-2 4 2 171.65 2.16
-1 4 2 1538.93 16.13
0 4 2 1933.88 19.53
1 4 2 1530.64 18.04
2 4 2 172.33 2
3 4 2 122.19 1.46
4 4 2 332.29 4.19
5 4 2 323.76 4.27
6 4 2 71.52 1.72
7 4 2 10.09 0.65
8 4 2 11.24 1.24
-8 5 2 0.99 0.43
-7 5 2 28.03 2.09
-6 5 2 9.49 0.56
-5 5 2 174.41 3.23
-4 5 2 91.89 1.59
-3 5 2 551.3 6.19
-2 5 2 7.35 0.25
-1 5 2 1210.59 12.96
0 5 2 154.26 1.72
1 5 2 1180.06 13.09
2 5 2 5.97 0.27
3 5 2 551.15 7.09
4 5 2 93.63 1.38
5 5 2 191.97 3.28
6 5 2 9.83 0.56
7 5 2 29.72 1.76
8 5 2 1.2 0.55
-8 6 2 2.36 0.57
-7 6 2 2.92 0.71
-6 6 2 30.69 0.88
-5 6 2 4.62 0.48
-4 6 2 2.01 0.33
-3 6 2 167.16 1.96
-2 6 2 85.2 1.07
-1 6 2 65.22 1.09
0 6 2 146.04 1.78
1 6 2 62.29 0.75
2 6 2 85.74 1.08
3 6 2 166.02 2.16
4 6 2 2.89 0.36
5 6 2 4.98 0.37
6 6 2 32.64 1.33
7 6 2 2.18 0.5
8 6 2 1.5 0.55
-8 7 2 -0.53 0.72
-7 7 2 13.16 1.01
-6 7 2 1.87 0.43
-5 7 2 77.3 1.48
-4 7 2 217.06 2.86
-3 7 2 90.21 1.26
-2 7 2 372.76 4.15
-1 7 2 146.74 1.75
0 7 2 1677.46 19.7
1 7 2 145.49 1.73
2 7 2 363.95 3.8
3 7 2 90.61 1.5
4 7 2 217.51 3.24
5 7 2 78.08 1.56
6 7 2 2.62 0.36
7 7 2 13.94 0.89
8 7 2 0.06 0.5
-8 8 2 0.18 0.77
-7 8 2 6.71 0.74
-6 8 2 31.03 0.89
-5 8 2 13.05 0.52
-4 8 2 12.24 0.53
-3 8 2 40.6 1
-2 8 2 115.37 1.71
-1 8 2 9.35 0.29
0 8 2 46.85 0.73
1 8 2 8.43 0.34
2 8 2 113.31 1.49
3 8 2 40.77 0.83
4 8 2 13.03 0.5
5 8 2 13.44 0.46
6 8 2 33.58 1.05
7 8 2 6.54 1.28
8 8 2 0.2 0.48
-7 9 2 7.45 0.73
-6 9 2 13.48 0.87
-5 9 2 61.74 1.3
-4 9 2 330.91 5.21
-3 9 2 26.5 0.83
-2 9 2 635.45 9.52
-1 9 2 423.98 5.58
0 9 2 2160.17 34.58
1 9 2 410.88 5.58
2 9 2 657.02 8.27
3 9 2 26.77 0.68
4 9 2 346.24 4.72
5 9 2 63.21 1.53
6 9 2 14.63 0.63
7 9 2 7.1 0.72
-7 10 2 10.79 1.05
-6 10 2 15.78 0.86
-5 10 2 31.62 0.9
-4 10 2 5.89 0.53
-3 10 2 19.93 0.67
-2 10 2 249.01 4.1
-1 10 2 149.07 1.85
0 10 2 0.34 0.24
1 10 2 148.98 1.91
2 10 2 254.34 3.05
3 10 2 18.94 0.53
4 10 2 5.97 0.42
5 10 2 35.05 0.85
6 10 2 15.96 0.89
7 10 2 11.28 0.77
-7 11 2 17.7 1.16
-6 11 2 22.3 0.97
-5 11 2 86.33 1.94
-4 11 2 18.54 0.74
-3 11 2 131.18 2.52
-2 11 2 100.75 2.26
-1 11 2 358.07 5.43
0 11 2 56.74 0.99
1 11 2 363.58 4.51
2 11 2 94.61 2.09
3 11 2 140.83 3.45
4 11 2 19.8 0.66
5 11 2 85.66 1.65
6 11 2 22.1 0.97
7 11 2 17.84 0.77
-7 12 2 7.3 0.89
-6 12 2 8.27 0.7
-5 12 2 44.92 1.09
-4 12 2 14.68 0.68
-3 12 2 51.91 1.04
-2 12 2 18.75 0.86
-1 12 2 71.53 1.23
0 12 2 50 0.98
1 12 2 74.65 1
2 12 2 20.74 0.77
3 12 2 55.93 1.18
4 12 2 14.57 0.66
5 12 2 47.38 1.42
6 12 2 8.87 0.72
7 12 2 7.03 0.59
-7 13 2 2.55 0.75
-6 13 2 24.79 2.25
-5 13 2 51.58 4.47
-4 13 2 43.21 1.89
-3 13 2 71.37 1.43
-2 13 2 67.25 1.74
-1 13 2 269.31 4.28
0 13 2 1.37 0.3
1 13 2 275.51 3.74
2 13 2 64.29 1.4
3 13 2 70.09 1.4
4 13 2 43.82 1.78
5 13 2 52.39 4.46
6 13 2 24.65 1.02
-6 14 2 17.5 1.79
-5 14 2 7.06 0.72
-4 14 2 49.89 2.83
-3 14 2 32.07 1.32
-2 14 2 41.02 1.41
-1 14 2 44.59 0.84
0 14 2 91.88 1.37
1 14 2 44.17 0.81
2 14 2 37.44 1.02
3 14 2 32.01 0.81
4 14 2 50.63 2.98
5 14 2 6.64 0.72
6 14 2 18.76 1.14
-6 15 2 30.37 2.22
-5 15 2 3.61 1.12
-4 15 2 23.39 3.71
-3 15 2 9.58 0.53
-2 15 2 64.98 2.17
-1 15 2 46.12 0.89
0 15 2 31.38 0.67
1 15 2 43.46 0.92
2 15 2 62.84 1.43
3 15 2 8.59 0.56
4 15 2 23.2 4.15
5 15 2 3.2 0.6
6 15 2 29.7 2.88
-5 16 2 7.27 1.14
-4 16 2 4.6 0.77
-3 16 2 4.5 0.69
-2 16 2 45.06 1.49
-1 16 2 4.47 0.38
0 16 2 12.62 0.58
1 16 2 4.88 0.46
2 16 2 41.86 1.09
3 16 2 4.33 0.64
4 16 2 4.13 0.9
5 16 2 8.01 1.78
-5 17 2 3.43 1
-4 17 2 6.9 1.47
-3 17 2 16.62 1.3
-2 17 2 0.42 0.51
-1 17 2 54.29 1.66
0 17 2 0.9 0.43
1 17 2 54.66 1.3
2 17 2 0.76 0.64
3 17 2 16.13 0.87
4 17 2 5.9 0.87
5 17 2 2.1 0.63
-4 18 2 17 3.13
-3 18 2 0.76 0.44
-2 18 2 3.8 0.67
-1 18 2 11.18 0.71
0 18 2 42.22 1.73
1 18 2 10.32 0.7
2 18 2 4.59 0.69
3 18 2 0.72 0.52
4 18 2 13.6 0.99
-4 19 2 3.59 0.65
-3 19 2 6.53 0.6
-2 19 2 12.82 0.81
-1 19 2 17.48 0.77
0 19 2 14.82 0.9
1 19 2 18.18 0.95
2 19 2 12.13 0.79
3 19 2 6.89 0.63
4 19 2 4.61 0.69
-3 20 2 15.7 0.75
-2 20 2 4.46 0.6
-1 20 2 4.23 0.52
0 20 2 0.5 0.56
1 20 2 3.72 0.62
2 20 2 4.5 0.6
3 20 2 16.1 1.15
-2 21 2 2.01 0.49
-1 21 2 4.28 0.6
0 21 2 6.32 0.64
1 21 2 3.78 0.57
2 21 2 2.51 0.78
1 0 3 1471.46 17.04
2 0 3 14.72 0.42
3 0 3 27.19 0.5
4 0 3 24.3 0.53
5 0 3 2.44 0.3
6 0 3 0.4 0.33
7 0 3 0.08 0.39
8 0 3 9.25 0.47
-8 1 3 8.62 0.46
-7 1 3 5.48 0.46
-6 1 3 17.85 0.6
-5 1 3 215.94 3.04
-4 1 3 25.62 0.54
-3 1 3 718.26 7.62
-2 1 3 7.36 0.28
-1 1 3 6499.4 123.54
0 1 3 59.68 0.96
1 1 3 6583.96 92.31
2 1 3 7.4 0.29
3 1 3 705.35 7.15
4 1 3 26.89 0.56
5 1 3 226.22 3.09
6 1 3 17.41 0.61
7 1 3 5.71 0.46
8 1 3 8.88 0.75
-8 2 3 11.18 0.76
-7 2 3 3.41 0.56
-6 2 3 60.56 1.12
-5 2 3 16.64 0.46
-4 2 3 7.64 0.35
-3 2 3 7.19 0.28
-2 2 3 71.65 0.92
-1 2 3 84.14 1.31
0 2 3 239.43 2.91
1 2 3 88.38 1.13
2 2 3 75.62 1.38
3 2 3 7 0.28
4 2 3 7.5 0.36
5 2 3 15.86 0.41
6 2 3 62.34 1.62
7 2 3 3.63 0.41
8 2 3 12.28 0.81
-8 3 3 11.2 0.72
-7 3 3 2.27 0.55
-6 3 3 69.41 1.33
-5 3 3 77.07 1.52
-4 3 3 466.81 6
-3 3 3 33.6 0.52
-2 3 3 1175.73 13.47
-1 3 3 776.79 8.43
0 3 3 4321.05 38.47
1 3 3 792.72 10.33
2 3 3 1238.86 14.16
3 3 3 37.2 0.62
4 3 3 463.49 5.4
5 3 3 78.94 1.59
6 3 3 68.29 1.32
7 3 3 3.04 0.46
8 3 3 12.15 1.4
-8 4 3 2.55 0.46
-7 4 3 28.78 2.58
-6 4 3 42.84 1.38
-5 4 3 77.19 1.27
-4 4 3 232.72 2.98
-3 4 3 192.3 2.06
-2 4 3 48.68 0.9
-1 4 3 582.34 5.91
0 4 3 52.78 0.76
1 4 3 591.34 6.97
2 4 3 49.33 0.76
3 4 3 187.16 2.29
4 4 3 227.53 2.86
5 4 3 83.53 1.39
6 4 3 42.88 1.25
7 4 3 28.15 1.32
8 4 3 2.76 0.58
-8 5 3 3.5 0.47
-7 5 3 20.03 1
-6 5 3 50.29 1.28
-5 5 3 26.29 0.91
-4 5 3 197.1 2.64
-3 5 3 168.25 1.86
-2 5 3 459.12 4.98
-1 5 3 23.39 0.46
0 5 3 1417.75 16.27
1 5 3 26.25 0.52
2 5 3 454.14 5.08
3 5 3 172.92 2.2
4 5 3 191.16 2.93
5 5 3 29.51 0.78
6 5 3 54.26 1.26
7 5 3 19.3 1.14
8 5 3 2.92 0.73
-8 6 3 1.13 0.44
-7 6 3 40.1 3.69
-6 6 3 48.59 1.47
-5 6 3 55.24 1.22
-4 6 3 75.56 1.34
-3 6 3 199.7 2.38
-2 6 3 25.56 0.45
-1 6 3 112.54 1.47
0 6 3 0.67 0.18
1 6 3 107.45 1.15
2 6 3 27.79 0.43
3 6 3 200.18 2.41
4 6 3 76.66 1.49
5 6 3 59.99 1.64
6 6 3 55.96 1.44
7 6 3 39.51 2.36
8 6 3 1.02 0.54
-8 7 3 0.59 0.53
-7 7 3 37.99 2.98
-6 7 3 8.18 0.53
-5 7 3 59.28 1.15
-4 7 3 71.85 1.35
-3 7 3 301.38 3.96
-2 7 3 59.09 0.8
-1 7 3 353.05 4.09
0 7 3 1146.83 12.95
1 7 3 359.05 4.17
2 7 3 61.76 0.81
3 7 3 295.33 3.91
4 7 3 74.83 1.23
5 7 3 65.66 1.48
6 7 3 8.73 0.43
7 7 3 37.66 2.05
8 7 3 0.23 0.37
-8 8 3 6.51 0.61
-7 8 3 3.56 0.68
-6 8 3 45.43 1.53
-5 8 3 12.57 0.51
-4 8 3 147.32 2.34
-3 8 3 58.71 1.12
-2 8 3 224.26 3.05
-1 8 3 112.15 1.31
0 8 3 1012.9 11.6
1 8 3 101.32 1.53
2 8 3 230.18 2.57
3 8 3 60.92 1.24
4 8 3 160.45 3
5 8 3 12.72 0.45
6 8 3 49.27 1.32
7 8 3 3.53 0.52
8 8 3 6.54 0.63
-7 9 3 22.97 0.99
-6 9 3 11.29 0.85
-5 9 3 54.19 1.19
-4 9 3 3.31 0.5
-3 9 3 89.56 1.76
-2 9 3 420.16 6.66
-1 9 3 90.76 1.4
0 9 3 5.38 0.33
1 9 3 89.71 1.55
2 9 3 421.45 5.3
3 9 3 90.19 1.55
4 9 3 3.83 0.41
5 9 3 50.79 1.25
6 9 3 9.77 0.57
7 9 3 23.05 0.9
-7 10 3 1.16 0.81
-6 10 3 30.16 1.66
-5 10 3 28.68 0.86
-4 10 3 3.68 0.52
-3 10 3 12.74 0.51
-2 10 3 73.22 1.85
-1 10 3 83.82 1.37
0 10 3 53.76 0.82
1 10 3 84.79 1.22
2 10 3 73.9 1.17
3 10 3 13.51 0.42
4 10 3 3.4 0.4
5 10 3 30.56 0.74
6 10 3 29.81 1.16
7 10 3 1.04 0.49
-7 11 3 1.23 0.77
-6 11 3 6.74 1.06
-5 11 3 30.56 0.89
-4 11 3 29.04 0.92
-3 11 3 36.08 0.97
-2 11 3 218.09 3.59
-1 11 3 156.8 2.54
0 11 3 69.12 1.06
1 11 3 160.16 1.86
2 11 3 216.61 2.68
3 11 3 38.28 1.02
4 11 3 30.6 0.96
5 11 3 30.99 1
6 11 3 7.8 0.72
7 11 3 1.07 0.47
-7 12 3 0.48 0.73
-6 12 3 39.54 1.74
-5 12 3 51.09 1.16
-4 12 3 26.55 1.06
-3 12 3 30.22 0.72
-2 12 3 91.69 1.89
-1 12 3 49.03 1.21
0 12 3 17.51 0.49
1 12 3 49.13 0.8
2 12 3 91.33 1.5
3 12 3 31.08 1.06
4 12 3 28.1 0.83
5 12 3 53.06 1.22
6 12 3 39.75 1.25
7 12 3 0.48 0.44
-7 13 3 6.83 0.83
-6 13 3 12.6 1.15
-5 13 3 61.47 5.83
-4 13 3 67.52 1.95
-3 13 3 33.01 0.84
-2 13 3 228.14 4.94
-1 13 3 103.38 1.68
0 13 3 159.09 2.21
1 13 3 99.29 1.36
2 13 3 226.33 3.35
3 13 3 33.65 1.01
4 13 3 70.76 2.37
5 13 3 58.53 3.78
6 13 3 13.28 0.78
-6 14 3 0.8 0.49
-5 14 3 16.13 1.47
-4 14 3 2.91 0.48
-3 14 3 17.67 0.85
-2 14 3 2.33 0.4
-1 14 3 11.53 0.6
0 14 3 50.24 0.92
1 14 3 10.62 0.42
2 14 3 2.24 0.38
3 14 3 16.91 0.69
4 14 3 2.74 0.54
5 14 3 14.98 1.97
6 14 3 0.69 0.51
-6 15 3 6.41 0.8
-5 15 3 6.14 1.04
-4 15 3 10.64 2.45
-3 15 3 36.73 1.34
-2 15 3 58.46 1.53
-1 15 3 95.1 1.64
0 15 3 11.1 0.46
1 15 3 93.65 1.36
2 15 3 53.56 1.45
3 15 3 35.98 0.95
4 15 3 9.69 1.07
5 15 3 6.35 0.66
6 15 3 5.98 1.17
-5 16 3 12.54 2.29
-4 16 3 28.79 4.94
-3 16 3 7.59 1.03
-2 16 3 3.48 0.4
-1 16 3 3.65 0.35
0 16 3 76.26 1.3
1 16 3 3.38 0.44
2 16 3 3.22 0.52
3 16 3 7.01 0.71
4 16 3 23.07 1.35
5 16 3 10.36 0.92
-5 17 3 14.3 3.4
-4 17 3 5.77 1.4
-3 17 3 108.32 2.5
-2 17 3 54.01 14.3
-1 17 3 185.1 4.15
0 17 3 2.84 0.45
1 17 3 185.9 3.27
2 17 3 51.54 2.11
3 17 3 106.15 2.46
4 17 3 4.99 0.84
5 17 3 11.6 0.88
-4 18 3 6.86 1.36
-3 18 3 13.05 0.65
-2 18 3 8.32 0.7
-1 18 3 1.35 0.55
0 18 3 69.8 1.97
1 18 3 1.64 0.68
2 18 3 7.85 0.75
3 18 3 13.18 0.78
4 18 3 5.55 0.79
-4 19 3 18.93 3.91
-3 19 3 11.54 1.19
-2 19 3 5.11 0.66
-1 19 3 9.84 0.66
0 19 3 27.12 1.25
1 19 3 9.45 0.8
2 19 3 5.3 0.66
3 19 3 11.81 0.74
4 19 3 12.48 0.88
-3 20 3 8.1 0.71
-2 20 3 9.85 0.7
-1 20 3 2.05 0.95
0 20 3 0.82 0.58
1 20 3 2.37 0.61
2 20 3 9.53 0.69
3 20 3 8.2 0.62
-2 21 3 9.69 0.63
-1 21 3 27.25 1.71
0 21 3 37.09 1.16
1 21 3 28.62 1.41
2 21 3 10.85 0.94
0 0 4 35.4 0.73
1 0 4 4988.86 63.64
2 0 4 8202.68 143.57
3 0 4 55.08 0.75
4 0 4 104.31 1.5
5 0 4 368.79 5.31
6 0 4 3.71 0.37
7 0 4 10.3 0.6
8 0 4 0.65 0.41
-8 1 4 7.93 0.46
-7 1 4 0.09 0.38
-6 1 4 77.35 1.49
-5 1 4 117.8 2.06
-4 1 4 155.46 1.85
-3 1 4 77 1.01
-2 1 4 516.43 6.96
-1 1 4 1705.12 23.3
0 1 4 2350.37 24.51
1 1 4 1794.97 42.97
2 1 4 531.47 6.88
3 1 4 79.8 0.94
4 1 4 155.07 2.1
5 1 4 111.93 1.49
6 1 4 71.98 1.57
7 1 4 0 0.87
8 1 4 8.27 0.54
-8 2 4 3.33 0.39
-7 2 4 37.86 1.77
-6 2 4 30.6 0.9
-5 2 4 32.95 0.78
-4 2 4 83.96 1.2
-3 2 4 505.84 5.48
-2 2 4 744.32 7.68
-1 2 4 421.64 4.08
0 2 4 29.65 0.59
1 2 4 469.35 5.44
2 2 4 788.85 10.21
3 2 4 503.46 5.1
4 2 4 87.65 1.13
5 2 4 34.9 0.68
6 2 4 27.55 0.8
7 2 4 36.24 0.9
8 2 4 3.53 0.46
-8 3 4 1.72 0.44
-7 3 4 24.93 1.4
-6 3 4 57.27 1.23
-5 3 4 122.31 1.76
-4 3 4 19.88 0.53
-3 3 4 238.94 2.58
-2 3 4 539.48 6.25
-1 3 4 845.65 8.99
0 3 4 554.65 5.93
1 3 4 874.46 15.25
2 3 4 577.97 6.13
3 3 4 257.63 3.07
4 3 4 20.09 0.48
5 3 4 129.71 1.85
6 3 4 58.65 1.72
7 3 4 24.12 1.76
8 3 4 1.33 0.55
-8 4 4 4.76 0.49
-7 4 4 26.68 1.84
-6 4 4 52.25 1.43
-5 4 4 13.02 0.53
-4 4 4 30.78 0.67
-3 4 4 740.11 8.09
-2 4 4 139.88 1.74
-1 4 4 276.19 3.01
0 4 4 533.63 5.51
1 4 4 296.74 3.51
2 4 4 146.92 2.63
3 4 4 762.72 9.87
4 4 4 29.06 0.57
5 4 4 16.13 0.51
6 4 4 51.59 1.36
7 4 4 27.83 1.76
8 4 4 3.82 1.35
-8 5 4 3.19 0.47
-7 5 4 68.84 5.87
-6 5 4 17 0.74
-5 5 4 82.5 1.8
-4 5 4 344.27 4.11
-3 5 4 652.29 6.94
-2 5 4 36.61 0.57
-1 5 4 1238.43 13.09
0 5 4 2868.85 38.1
1 5 4 1280.23 14.75
2 5 4 34.87 0.53
3 5 4 684.39 9.17
4 5 4 349.64 5.24
5 5 4 87.26 1.66
6 5 4 17.37 0.76
7 5 4 70.43 2.76
8 5 4 3.19 0.59
-8 6 4 15.14 1.34
-7 6 4 22.99 1.87
-6 6 4 5.85 0.5
-5 6 4 6.01 0.54
-4 6 4 64.33 1.33
-3 6 4 126.87 1.84
-2 6 4 117.45 1.63
-1 6 4 192.65 2.09
0 6 4 40.79 0.6
1 6 4 199.66 1.96
2 6 4 114.51 1.3
3 6 4 122.95 1.71
4 6 4 65.83 1.14
5 6 4 7.38 0.4
6 6 4 6.59 0.41
7 6 4 21.6 1.51
8 6 4 15.44 0.65
-8 7 4 4.1 0.59
-7 7 4 17.08 1.85
-6 7 4 17.1 0.65
-5 7 4 2.18 0.49
-4 7 4 88.6 1.76
-3 7 4 34.95 0.72
-2 7 4 276.83 3.34
-1 7 4 24.3 0.47
0 7 4 518.66 5.82
1 7 4 26.56 0.45
2 7 4 299.39 3.08
3 7 4 33.96 0.67
4 7 4 85.26 1.65
5 7 4 2.57 0.34
6 7 4 19.79 0.71
7 7 4 18.11 1.1
8 7 4 4.33 0.67
-8 8 4 12.2 0.8
-7 8 4 6.21 0.73
-6 8 4 11.93 0.58
-5 8 4 15.93 0.61
-4 8 4 35.81 0.91
-3 8 4 52.65 1.21
-2 8 4 21.12 0.55
-1 8 4 190.73 2.18
0 8 4 15.67 0.36
1 8 4 196.39 2.1
2 8 4 23.56 0.48
3 8 4 55.28 1.17
4 8 4 38.3 0.88
5 8 4 16.79 0.5
6 8 4 12.67 0.48
7 8 4 5.48 0.45
8 8 4 11.85 0.66
-7 9 4 8.19 0.74
-6 9 4 2.07 0.52
-5 9 4 7.16 0.54
-4 9 4 164.78 3.49
-3 9 4 62.03 1.23
-2 9 4 245.4 3.23
-1 9 4 57.34 1.04
0 9 4 711.07 8.14
1 9 4 61.96 0.95
2 9 4 260.62 3.1
3 9 4 63.12 1.6
4 9 4 176.13 2.51
5 9 4 7.77 0.46
6 9 4 2.39 0.53
7 9 4 7.7 0.73
-7 10 4 2.18 0.84
-6 10 4 11.3 1.21
-5 10 4 3.67 0.49
-4 10 4 53.98 1.46
-3 10 4 55.04 1.29
-2 10 4 15.13 0.56
-1 10 4 143.69 2.26
0 10 4 218.89 2.63
1 10 4 141.22 1.87
2 10 4 13.11 0.4
3 10 4 60.59 0.93
4 10 4 55.23 1
5 10 4 3.85 0.4
6 10 4 10.64 0.65
7 10 4 2.24 0.52
-7 11 4 1.04 0.76
-6 11 4 6.85 1.09
-5 11 4 54.94 1.71
-4 11 4 34.41 0.94
-3 11 4 117.47 2.34
-2 11 4 36.47 0.82
-1 11 4 149.42 2.67
0 11 4 80.07 1.16
1 11 4 146.22 1.81
2 11 4 35.62 0.66
3 11 4 130.57 2.18
4 11 4 35.11 1.19
5 11 4 53.34 1.03
6 11 4 7.05 0.58
7 11 4 1.02 0.46
-7 12 4 0.58 0.72
-6 12 4 2.85 0.93
-5 12 4 42.26 1.04
-4 12 4 25.59 1.07
-3 12 4 15.07 0.69
-2 12 4 2.39 0.37
-1 12 4 59.71 1.18
0 12 4 27.92 0.55
1 12 4 57.15 0.8
2 12 4 2.81 0.34
3 12 4 14.54 0.54
4 12 4 25.91 0.9
5 12 4 41.37 1.28
6 12 4 2.39 0.59
7 12 4 1.14 0.45
-6 13 4 6.05 0.63
-5 13 4 23.34 2.51
-4 13 4 8.36 0.68
-3 13 4 113.58 2.33
-2 13 4 14.21 0.69
-1 13 4 65.22 1.12
0 13 4 60.5 1.02
1 13 4 66.72 0.98
2 13 4 14.94 0.51
3 13 4 108.08 2.16
4 13 4 8.54 0.55
5 13 4 21.36 1
6 13 4 6.78 0.65
-6 14 4 6.89 0.6
-5 14 4 62.33 4.98
-4 14 4 31.37 1.84
-3 14 4 6.76 0.44
-2 14 4 24.54 1.08
-1 14 4 88.97 1.42
0 14 4 6.56 0.4
1 14 4 83.1 1.22
2 14 4 26.66 0.69
3 14 4 7.5 0.43
4 14 4 30.56 1.22
5 14 4 62.25 6.43
6 14 4 6.43 0.61
-6 15 4 1.12 0.45
-5 15 4 7.63 0.82
-4 15 4 22.69 3.65
-3 15 4 32.37 1.04
-2 15 4 48.82 1.16
-1 15 4 47.29 0.85
0 15 4 31.74 0.69
1 15 4 45.88 0.8
2 15 4 46.11 0.93
3 15 4 32.13 0.9
4 15 4 19.2 1.29
5 15 4 6.72 0.88
6 15 4 0.94 0.57
-5 16 4 20.46 3.16
-4 16 4 17.87 3.14
-3 16 4 16.22 1.66
-2 16 4 12.35 0.83
-1 16 4 25.25 0.84
0 16 4 342.29 5.54
1 16 4 25.3 0.61
2 16 4 11.92 0.65
3 16 4 15.7 0.89
4 16 4 16.07 1.18
5 16 4 17.63 1.1
-5 17 4 4.1 0.54
-4 17 4 6.96 1.54
-3 17 4 4.96 0.74
-2 17 4 43.03 1.79
-1 17 4 0.46 0.35
0 17 4 0.41 0.37
1 17 4 0.14 0.43
2 17 4 38.22 1.33
3 17 4 5.35 0.67
4 17 4 4.76 0.83
5 17 4 3.56 0.66
-4 18 4 3.95 1.06
-3 18 4 7.41 0.57
-2 18 4 35.42 1.69
-1 18 4 3.09 0.48
0 18 4 39.64 1.65
1 18 4 3.47 0.7
2 18 4 33.98 1.23
3 18 4 7.18 0.69
4 18 4 4.4 0.75
-4 19 4 6.62 2.03
-3 19 4 15.83 0.77
-2 19 4 32.24 0.96
-1 19 4 10.22 0.67
0 19 4 11.66 0.92
1 19 4 11.51 0.83
2 19 4 31.05 1.12
3 19 4 18.31 0.85
4 19 4 7.03 0.76
-3 20 4 4.83 0.62
-2 20 4 2.68 0.56
-1 20 4 26.64 3.58
0 20 4 5.26 0.56
1 20 4 29.17 1.09
2 20 4 2.98 0.82
3 20 4 5.46 0.78
-2 21 4 16.55 0.75
-1 21 4 16.71 1.66
0 21 4 0.33 0.52
1 21 4 17.45 1.16
2 21 4 16.79 1.09
1 0 5 19.43 0.34
2 0 5 320.7 4.08
3 0 5 187.08 1.98
4 0 5 15.72 0.43
5 0 5 112.62 1.73
6 0 5 17.03 0.63
7 0 5 14.03 0.95
8 0 5 0.13 0.41
-8 1 5 9.56 0.96
-7 1 5 5.1 0.58
-6 1 5 53.15 1.29
-5 1 5 13.75 0.41
-4 1 5 30.13 0.58
-3 1 5 6.75 0.3
-2 1 5 193.61 2.24
-1 1 5 310.81 3.58
0 1 5 32.05 0.41
1 1 5 361.63 3.53
2 1 5 187.53 2.35
3 1 5 6.58 0.28
4 1 5 28.86 0.58
5 1 5 14.17 0.38
6 1 5 51.03 1.01
7 1 5 5.8 0.56
8 1 5 8.8 0.76
-8 2 5 1.78 0.38
-7 2 5 17.43 1.3
-6 2 5 16.35 0.53
-5 2 5 77.39 1.38
-4 2 5 145.84 2.25
-3 2 5 436.59 4.59
-2 2 5 1233.7 14.91
-1 2 5 760.88 8.08
0 2 5 369.01 4.33
1 2 5 796.5 12.85
2 2 5 1306.21 15.51
3 2 5 453.48 4.63
4 2 5 152.71 1.99
5 2 5 78.13 1.45
6 2 5 17.04 0.63
7 2 5 18.53 0.94
8 2 5 1.5 0.44
-8 3 5 1.65 0.44
-7 3 5 75.4 2.91
-6 3 5 26.23 0.92
-5 3 5 12.39 0.47
-4 3 5 219.42 2.67
-3 3 5 306.79 3.09
-2 3 5 34.3 0.51
-1 3 5 270.18 3.01
0 3 5 1160.15 12.41
1 3 5 284.22 3.26
2 3 5 34.15 0.57
3 3 5 319.75 4.65
4 3 5 216.76 2.58
5 3 5 12.7 0.41
6 3 5 26.53 0.79
7 3 5 68.62 2.85
8 3 5 1.57 0.55
-8 4 5 13.9 1.16
-7 4 5 1.82 0.68
-6 4 5 4.68 0.47
-5 4 5 1.46 0.34
-4 4 5 486.44 6.76
-3 4 5 50.43 0.68
-2 4 5 391.96 5.37
-1 4 5 307.81 3
0 4 5 1899.24 20.78
1 4 5 315.94 3.52
2 4 5 406.09 4.6
3 4 5 49.7 0.82
4 4 5 500.71 7.65
5 4 5 1.73 0.34
6 4 5 4.42 0.37
7 4 5 1.2 0.5
8 4 5 13.66 1.28
-8 5 5 7.29 0.64
-7 5 5 2.99 0.71
-6 5 5 10.2 0.54
-5 5 5 19.61 0.73
-4 5 5 326.17 5.22
-3 5 5 89.87 1.21
-2 5 5 118.1 1.56
-1 5 5 115.54 1.18
0 5 5 2.77 0.23
1 5 5 116.32 1.42
2 5 5 126.28 1.6
3 5 5 92.3 1.42
4 5 5 326.85 4.64
5 5 5 19.41 0.78
6 5 5 11.39 0.47
7 5 5 3.83 0.63
8 5 5 6.24 0.85
-8 6 5 12.53 1.27
-7 6 5 1.67 0.67
-6 6 5 19.25 0.68
-5 6 5 25.62 0.81
-4 6 5 187.54 2.8
-3 6 5 156.53 2.3
-2 6 5 313.94 3.9
-1 6 5 433.74 4.89
0 6 5 422.41 4.14
1 6 5 422.05 4.27
2 6 5 320.43 3.69
3 6 5 161.21 2.14
4 6 5 199.04 2.74
5 6 5 26.88 0.87
6 6 5 22.25 0.88
7 6 5 1.94 0.4
8 6 5 13.3 1.04
-8 7 5 11.66 0.7
-7 7 5 0.23 0.64
-6 7 5 14.55 0.77
-5 7 5 32.77 0.9
-4 7 5 109.58 1.76
-3 7 5 97.58 1.71
-2 7 5 137.57 2.05
-1 7 5 459.92 5.56
0 7 5 138.99 1.58
1 7 5 464.32 4.77
2 7 5 140.65 1.74
3 7 5 96.46 1.38
4 7 5 107.4 1.78
5 7 5 33.85 1.15
6 7 5 16.41 0.73
7 7 5 0.83 0.39
8 7 5 10.48 0.78
-8 8 5 2.41 0.7
-7 8 5 2.19 0.93
-6 8 5 31.93 1.22
-5 8 5 53.4 1.18
-4 8 5 34.68 0.82
-3 8 5 602.16 13.68
-2 8 5 77.98 1.4
-1 8 5 1295.31 18.51
0 8 5 28.1 0.51
1 8 5 1322.03 16.66
2 8 5 80.55 1.07
3 8 5 599.36 9.81
4 8 5 37.12 0.78
5 8 5 55.19 1.39
6 8 5 35.1 1
7 8 5 2.03 0.4
8 8 5 1.43 0.68
-7 9 5 12.22 0.81
-6 9 5 23.21 1.03
-5 9 5 10.06 0.85
-4 9 5 9.7 0.59
-3 9 5 189.95 3.06
-2 9 5 9.06 0.49
-1 9 5 463.91 6.99
0 9 5 0.91 0.27
1 9 5 470.37 5.16
2 9 5 10.18 0.36
3 9 5 207.27 2.62
4 9 5 10.17 0.49
5 9 5 10.62 0.5
6 9 5 25.97 1.23
7 9 5 12.5 0.6
-7 10 5 9.05 1
-6 10 5 5.43 1.06
-5 10 5 19.21 0.72
-4 10 5 62.35 1.29
-3 10 5 124.53 4.4
-2 10 5 2.63 0.35
-1 10 5 284.84 3.69
0 10 5 87.6 1.25
1 10 5 284.48 3.37
2 10 5 3.77 0.3
3 10 5 137.88 2.07
4 10 5 64.9 1.12
5 10 5 20.44 0.62
6 10 5 4.84 0.56
7 10 5 8.95 0.64
-7 11 5 4.52 0.85
-6 11 5 39.74 1.85
-5 11 5 3.88 0.49
-4 11 5 30.65 1.19
-3 11 5 38.06 1.41
-2 11 5 109.43 1.99
-1 11 5 14.43 0.53
0 11 5 37.51 0.73
1 11 5 14.01 0.44
2 11 5 114.28 1.48
3 11 5 41.31 1.09
4 11 5 29.99 0.72
5 11 5 3.29 0.39
6 11 5 40.66 1.07
7 11 5 4.36 0.52
-7 12 5 2.93 0.78
-6 12 5 58.98 2.25
-5 12 5 37.84 1.35
-4 12 5 12.19 0.64
-3 12 5 7.8 0.65
-2 12 5 496.92 17.04
-1 12 5 165.61 2.67
0 12 5 112.45 1.45
1 12 5 161.22 1.85
2 12 5 443.55 6.65
3 12 5 7.61 0.43
4 12 5 12.66 0.51
5 12 5 40.38 0.9
6 12 5 58.66 2.05
7 12 5 2.67 0.47
-6 13 5 19.15 1.29
-5 13 5 51.38 4.19
-4 13 5 24.13 1.11
-3 13 5 61.34 1.78
-2 13 5 201.85 4.41
-1 13 5 66.63 1.23
0 13 5 46.04 0.85
1 13 5 65.44 1.01
2 13 5 202.61 2.67
3 13 5 62.28 1.7
4 13 5 26.21 1
5 13 5 56.82 1.32
6 13 5 16.96 1.16
-6 14 5 14.16 1.62
-5 14 5 18.05 1.64
-4 14 5 10.8 0.62
-3 14 5 5.95 0.44
-2 14 5 47.65 1.54
-1 14 5 44.31 1.04
0 14 5 95.71 1.65
1 14 5 46.32 0.79
2 14 5 45.26 0.91
3 14 5 5.71 0.41
4 14 5 9.8 0.65
5 14 5 16.54 1.2
6 14 5 13.65 0.96
-6 15 5 0.69 0.43
-5 15 5 9.25 1.01
-4 15 5 17.78 2.64
-3 15 5 10.46 0.62
-2 15 5 5.67 0.45
-1 15 5 5.81 0.39
0 15 5 2.53 0.35
1 15 5 6.57 0.41
2 15 5 5.02 0.4
3 15 5 10.79 0.53
4 15 5 17.28 1.23
5 15 5 8.71 0.92
6 15 5 0.17 0.54
-5 16 5 13.02 2.43
-4 16 5 6.7 0.71
-3 16 5 10.73 0.99
-2 16 5 1.69 0.38
-1 16 5 22.95 0.91
0 16 5 17.23 0.7
1 16 5 25.54 0.67
2 16 5 1.29 0.4
3 16 5 9.98 0.79
4 16 5 5.84 0.91
5 16 5 11.03 0.93
-5 17 5 4.86 1.35
-4 17 5 52.95 17.76
-3 17 5 22.26 1.38
-2 17 5 2.95 0.55
-1 17 5 54.87 1.09
0 17 5 52.61 0.96
1 17 5 49.88 1.38
2 17 5 2.87 0.69
3 17 5 23.17 1.01
4 17 5 46.05 1.83
5 17 5 4.18 0.67
-4 18 5 8.22 1.91
-3 18 5 21.9 1.14
-2 18 5 23.74 1.9
-1 18 5 30.62 1.24
0 18 5 81.51 2.12
1 18 5 30.98 1.49
2 18 5 22.97 1.03
3 18 5 21.63 1.34
4 18 5 7.48 0.85
-4 19 5 4.39 0.91
-3 19 5 2.29 0.42
-2 19 5 5.71 0.54
-1 19 5 0.48 0.47
0 19 5 5.42 0.68
1 19 5 0.25 0.66
2 19 5 4.98 0.94
3 19 5 2.65 0.57
4 19 5 3.42 0.67
-3 20 5 1.84 0.37
-2 20 5 2.02 0.43
-1 20 5 4.62 0.67
0 20 5 27.48 1.32
1 20 5 5.19 0.67
2 20 5 3.38 0.85
3 20 5 1.82 0.5
-2 21 5 19.57 0.8
-1 21 5 8.83 0.77
0 21 5 3.91 0.5
1 21 5 8.51 0.67
2 21 5 20.53 1.18
0 0 6 1691.11 24.33
1 0 6 17.63 0.35
2 0 6 3280.36 46.95
3 0 6 4.95 0.28
4 0 6 131.14 1.76
5 0 6 44.97 0.72
6 0 6 66.37 1.61
7 0 6 5.39 0.61
8 0 6 0.23 0.42
-8 1 6 15.55 0.96
-7 1 6 29.66 1.53
-6 1 6 11.06 0.44
-5 1 6 4.3 0.3
-4 1 6 82.39 1.24
-3 1 6 3.89 0.3
-2 1 6 1918.35 22.21
-1 1 6 430.67 4.98
0 1 6 678.81 9.37
1 1 6 441.51 5.89
2 1 6 1976.43 23.8
3 1 6 4.27 0.26
4 1 6 83.81 1.22
5 1 6 4.84 0.32
6 1 6 10.7 0.4
7 1 6 31.7 1.07
8 1 6 15.86 0.96
-8 2 6 2.51 0.45
-7 2 6 21.17 0.85
-6 2 6 26.74 1.04
-5 2 6 14.46 0.4
-4 2 6 145.66 2.02
-3 2 6 265.36 3.19
-2 2 6 297.53 3.09
-1 2 6 225.51 2.56
0 2 6 1814.49 23.92
1 2 6 243.43 4.43
2 2 6 341.99 4.35
3 2 6 263.26 3.02
4 2 6 141.43 2.09
5 2 6 14.91 0.45
6 2 6 30 0.9
7 2 6 19.82 0.97
8 2 6 2.79 0.46
-8 3 6 0.56 0.43
-7 3 6 18.46 0.79
-6 3 6 18.77 0.8
-5 3 6 13.67 0.44
-4 3 6 33.97 0.83
-3 3 6 28.52 0.53
-2 3 6 128.01 1.36
-1 3 6 182.19 3.77
0 3 6 220.4 2.73
1 3 6 185.28 3.54
2 3 6 130.85 1.69
3 3 6 29.08 0.55
4 3 6 34.66 0.69
5 3 6 13.22 0.41
6 3 6 19.72 0.67
7 3 6 18.26 1.44
8 3 6 0.41 0.54
-8 4 6 3.09 0.47
-7 4 6 58.99 6.26
-6 4 6 15.28 0.62
-5 4 6 65.65 1.32
-4 4 6 41.7 0.84
-3 4 6 1218.29 15.46
-2 4 6 187.44 1.97
-1 4 6 1650.11 18
0 4 6 1649.4 19.28
1 4 6 1739.5 25.3
2 4 6 200.98 2.42
3 4 6 1218.31 18.54
4 4 6 43.32 0.86
5 4 6 73.27 1.49
6 4 6 15.64 0.69
7 4 6 56.27 2.11
8 4 6 3.04 0.57
-8 5 6 16.52 1.02
-7 5 6 25.05 1.1
-6 5 6 48.9 1.57
-5 5 6 14.41 0.67
-4 5 6 65.86 1.43
-3 5 6 78.94 1.05
-2 5 6 203.49 2.36
-1 5 6 5.49 0.21
0 5 6 375.59 4
1 5 6 5.73 0.27
2 5 6 207.33 2.2
3 5 6 80.57 1.13
4 5 6 68.44 1.41
5 5 6 15.07 0.63
6 5 6 53.22 1.68
7 5 6 24.07 1
8 5 6 17.05 0.93
-8 6 6 13.07 1.2
-7 6 6 10.92 0.83
-6 6 6 5.25 0.47
-5 6 6 141.72 3.03
-4 6 6 119.3 1.94
-3 6 6 179.67 2.94
-2 6 6 334.83 4.65
-1 6 6 817.59 10.04
0 6 6 34.46 0.59
1 6 6 839.19 9.44
2 6 6 345.45 4.19
3 6 6 174.39 2.4
4 6 6 126.22 1.97
5 6 6 150.36 3.26
6 6 6 6.2 0.41
7 6 6 9.73 0.52
8 6 6 13.19 1.11
-8 7 6 7.63 0.63
-7 7 6 10.89 0.83
-6 7 6 3.33 0.44
-5 7 6 78.44 2.14
-4 7 6 2.76 0.34
-3 7 6 7.4 0.35
-2 7 6 252.39 3.26
-1 7 6 172.38 2.11
0 7 6 18.35 0.42
1 7 6 172.82 1.99
2 7 6 259.07 3.03
3 7 6 8.16 0.38
4 7 6 3.34 0.32
5 7 6 85.97 2.01
6 7 6 3.04 0.36
7 7 6 11.47 0.56
8 7 6 7.38 0.71
-7 8 6 5.07 0.7
-6 8 6 25.95 0.76
-5 8 6 34.56 0.94
-4 8 6 206.01 3.45
-3 8 6 1.73 0.33
-2 8 6 179.19 2.68
-1 8 6 173.43 2.19
0 8 6 445.41 4.55
1 8 6 177.66 2.09
2 8 6 192.19 2.59
3 8 6 1.93 0.37
4 8 6 221.73 3.93
5 8 6 34.52 0.96
6 8 6 29.56 0.79
7 8 6 5.37 0.45
8 8 6 17.55 1
-7 9 6 25.22 1.04
-6 9 6 8.48 0.78
-5 9 6 56.31 1.7
-4 9 6 9.34 0.59
-3 9 6 173.04 2.62
-2 9 6 398.54 5.61
-1 9 6 28.17 0.79
0 9 6 1.04 0.27
1 9 6 29.09 0.6
2 9 6 419.15 5.32
3 9 6 196.14 2.46
4 9 6 9.89 0.48
5 9 6 57.19 1.46
6 9 6 9.4 0.74
7 9 6 24.93 1.37
-7 10 6 16.08 1.16
-6 10 6 55.78 2.21
-5 10 6 9.74 0.85
-4 10 6 93.71 2.17
-3 10 6 341.93 5.92
-2 10 6 237.52 4.87
-1 10 6 194.74 2.79
0 10 6 567.99 7.52
1 10 6 192.51 2.35
2 10 6 232.94 3.25
3 10 6 341.87 4.93
4 10 6 97.75 1.71
5 10 6 9.51 0.48
6 10 6 55.04 1.3
7 10 6 17.04 0.85
-7 11 6 9.72 0.96
-6 11 6 17.65 1.33
-5 11 6 14.09 0.63
-4 11 6 43.9 1.43
-3 11 6 53.04 1.24
-2 11 6 7.06 0.37
-1 11 6 3.38 0.36
0 11 6 3.52 0.35
1 11 6 3.14 0.31
2 11 6 7.1 0.35
3 11 6 48.52 1.01
4 11 6 47.54 1.12
5 11 6 14.45 0.54
6 11 6 16.87 1.07
7 11 6 8.66 0.5
-7 12 6 9.74 0.92
-6 12 6 15.56 1.26
-5 12 6 52.89 5.17
-4 12 6 16.69 0.92
-3 12 6 124.31 2.51
-2 12 6 7.04 0.43
-1 12 6 247.32 3.88
0 12 6 6.7 0.37
1 12 6 249.43 2.76
2 12 6 6.36 0.39
3 12 6 146.59 2.23
4 12 6 17.11 0.69
5 12 6 55.6 1.32
6 12 6 14.35 0.68
7 12 6 10.15 0.6
-6 13 6 4.29 0.94
-5 13 6 7.04 0.75
-4 13 6 58.27 2.8
-3 13 6 51.96 1.28
-2 13 6 14.73 0.76
-1 13 6 16.02 0.61
0 13 6 37.99 0.78
1 13 6 15.25 0.43
2 13 6 14.5 0.47
3 13 6 57.05 1.21
4 13 6 58.18 1.81
5 13 6 6.75 0.95
6 13 6 3.19 0.54
-6 14 6 10.42 1.02
-5 14 6 26.3 1.96
-4 14 6 19.69 0.85
-3 14 6 70.06 2.03
-2 14 6 141.33 3.52
-1 14 6 216.5 3.26
0 14 6 18.65 0.53
1 14 6 213.35 3
2 14 6 134.74 1.99
3 14 6 82.23 1.84
4 14 6 20.94 1.24
5 14 6 25.72 2
6 14 6 8.33 0.81
-6 15 6 1.78 0.77
-5 15 6 8.22 1.32
-4 15 6 16.36 2.91
-3 15 6 18 0.81
-2 15 6 5.02 0.42
-1 15 6 19.22 0.7
0 15 6 7.2 0.4
1 15 6 19.52 0.58
2 15 6 4.73 0.4
3 15 6 18.56 0.61
4 15 6 16.12 1.1
5 15 6 7.09 0.88
6 15 6 0.7 0.53
-5 16 6 0.55 0.52
-4 16 6 46.84 6.62
-3 16 6 1.59 0.58
-2 16 6 58.5 1.51
-1 16 6 7.54 0.43
0 16 6 254.76 4.28
1 16 6 7.41 0.44
2 16 6 54.21 1.21
3 16 6 1.69 0.48
4 16 6 40.26 1.75
5 16 6 0.11 0.61
-5 17 6 3.32 0.52
-4 17 6 3.06 0.59
-3 17 6 2.03 0.48
-2 17 6 3.76 0.73
-1 17 6 26.14 0.91
0 17 6 12.13 0.54
1 17 6 25.5 0.93
2 17 6 4.56 0.54
3 17 6 1.93 0.62
4 17 6 1.95 0.77
5 17 6 1.69 0.58
-4 18 6 13.23 2.84
-3 18 6 17.84 1.63
-2 18 6 26.49 1.79
-1 18 6 14.14 0.93
0 18 6 21.62 1.44
1 18 6 15.41 1.02
2 18 6 24.64 1.49
3 18 6 16.95 0.87
4 18 6 14.72 1.02
-4 19 6 10.14 1.85
-3 19 6 0.2 0.39
-2 19 6 1.58 0.47
-1 19 6 1.73 0.5
0 19 6 0 0.41
1 19 6 2.25 0.55
2 19 6 2.38 0.89
3 19 6 0.18 0.52
4 19 6 8.31 0.79
-3 20 6 4.4 0.71
-2 20 6 7.44 0.7
-1 20 6 35.19 2.02
0 20 6 6.36 0.76
1 20 6 32.41 1.15
2 20 6 6.79 0.94
3 20 6 3.7 0.53
-2 21 6 0.41 0.46
-1 21 6 2.29 0.56
0 21 6 0.24 0.45
1 21 6 1.9 0.77
2 21 6 0.87 0.73
1 0 7 1190.7 13.94
2 0 7 3.62 0.24
3 0 7 615.12 6.62
4 0 7 1.1 0.27
5 0 7 39.85 0.67
6 0 7 8.47 0.38
7 0 7 14.37 1.45
8 0 7 4.82 0.49
-8 1 7 26.86 0.98
-7 1 7 3.63 0.69
-6 1 7 43 1.04
-5 1 7 1.35 0.27
-4 1 7 101.82 1.3
-3 1 7 871.59 11.06
-2 1 7 357.75 3.47
-1 1 7 1078.99 13.24
0 1 7 78.18 1.13
1 1 7 1076.63 12.26
2 1 7 378.43 3.92
3 1 7 902.15 9.88
4 1 7 100.38 1.29
5 1 7 1.22 0.28
6 1 7 47.01 1.03
7 1 7 3.76 0.47
8 1 7 25.45 1.08
-8 2 7 26.33 1.35
-7 2 7 20.24 1.3
-6 2 7 15.56 0.52
-5 2 7 40.13 0.8
-4 2 7 172.24 2.29
-3 2 7 424.79 4.93
-2 2 7 840.33 8.77
-1 2 7 902.81 11.14
0 2 7 104.64 1.45
1 2 7 924.15 15.02
2 2 7 856.97 8.94
3 2 7 416.94 4.41
4 2 7 168.1 2.62
5 2 7 39.62 0.95
6 2 7 16.86 0.54
7 2 7 21.29 0.81
8 2 7 23.87 1.98
-8 3 7 7.79 1.16
-7 3 7 48.54 1.81
-6 3 7 16.75 0.6
-5 3 7 14.17 0.42
-4 3 7 100.11 1.37
-3 3 7 276.85 2.98
-2 3 7 513.41 5.37
-1 3 7 103 1.98
0 3 7 1.48 0.21
1 3 7 108.24 1.58
2 3 7 535.12 6.05
3 3 7 282.9 3.16
4 3 7 94.67 1.4
5 3 7 13.75 0.42
6 3 7 17.53 0.64
7 3 7 47.24 2.46
8 3 7 7.85 0.78
-8 4 7 14.93 0.91
-7 4 7 1.42 0.7
-6 4 7 22.44 0.64
-5 4 7 37.43 0.77
-4 4 7 224.31 3.47
-3 4 7 380.74 5.21
-2 4 7 749.37 8.02
-1 4 7 273.07 2.76
0 4 7 428.03 4.31
1 4 7 286.81 3.26
2 4 7 786.99 8.87
3 4 7 387.66 4.66
4 4 7 232.91 2.96
5 4 7 38.36 1.3
6 4 7 25.34 0.97
7 4 7 1.74 0.39
8 4 7 14.71 0.92
-8 5 7 1.69 0.54
-7 5 7 8.91 1.41
-6 5 7 17.25 0.71
-5 5 7 17.31 0.69
-4 5 7 39.31 0.91
-3 5 7 23.42 0.48
-2 5 7 601.3 6
-1 5 7 49.08 0.68
0 5 7 30.96 0.56
1 5 7 51.79 0.74
2 5 7 631.66 6.93
3 5 7 26.15 0.66
4 5 7 38.94 0.84
5 5 7 15.84 0.59
6 5 7 18.82 0.91
7 5 7 9.86 0.63
8 5 7 1.25 0.4
-8 6 7 10.52 0.69
-7 6 7 14.57 0.96
-6 6 7 27.7 0.79
-5 6 7 20.45 0.73
-4 6 7 10.94 0.47
-3 6 7 418.26 5.59
-2 6 7 277.67 3.83
-1 6 7 83.35 0.99
0 6 7 507.96 5.47
1 6 7 87.88 1.01
2 6 7 304.98 3.89
3 6 7 420.74 6.09
4 6 7 14.12 0.47
5 6 7 19.98 0.76
6 6 7 28.06 1.13
7 6 7 15.09 0.75
8 6 7 10.94 0.69
-8 7 7 9.21 0.65
-7 7 7 22.83 1.11
-6 7 7 6.97 0.49
-5 7 7 48.66 1.13
-4 7 7 19.32 0.52
-3 7 7 61.35 1.13
-2 7 7 249.1 3.62
-1 7 7 54.81 0.79
0 7 7 8.47 0.33
1 7 7 58.4 0.79
2 7 7 259.04 3.43
3 7 7 64.83 1.11
4 7 7 18.78 0.52
5 7 7 49.62 1.42
6 7 7 8.14 0.43
7 7 7 23.35 1.07
8 7 7 7.89 0.76
-7 8 7 16.74 0.89
-6 8 7 5.94 0.47
-5 8 7 76.22 1.76
-4 8 7 28.26 0.68
-3 8 7 191.14 2.71
-2 8 7 268.89 3.64
-1 8 7 320.7 3.79
0 8 7 161.44 1.85
1 8 7 313.02 3.48
2 8 7 277.51 4.28
3 8 7 215.27 3.58
4 8 7 29.92 0.83
5 8 7 68.51 1.2
6 8 7 6.33 0.41
7 8 7 16.6 0.62
-7 9 7 15.73 1.4
-6 9 7 2.48 0.65
-5 9 7 73.49 2.2
-4 9 7 7.43 0.56
-3 9 7 79.71 1.72
-2 9 7 28.77 0.68
-1 9 7 52.11 0.84
0 9 7 117.15 1.68
1 9 7 54.9 1.11
2 9 7 28.16 0.79
3 9 7 84.74 1.36
4 9 7 7.07 0.46
5 9 7 74.56 2.05
6 9 7 2.39 0.53
7 9 7 13.68 0.62
-7 10 7 6.97 0.94
-6 10 7 10.56 1.17
-5 10 7 34.23 2.19
-4 10 7 54.67 1.43
-3 10 7 22.68 0.95
-2 10 7 47.63 1.08
-1 10 7 82.88 1.27
0 10 7 8.18 0.41
1 10 7 87.13 1.24
2 10 7 47.34 0.99
3 10 7 24.63 0.68
4 10 7 54.3 1.09
5 10 7 32.25 0.82
6 10 7 9.93 0.62
7 10 7 8.27 0.52
-7 11 7 1.39 0.77
-6 11 7 7.05 1.07
-5 11 7 11.85 0.9
-4 11 7 69.51 1.97
-3 11 7 19.87 0.79
-2 11 7 22.1 0.75
-1 11 7 37.32 0.76
0 11 7 327.65 5.2
1 11 7 39.03 0.72
2 11 7 21.79 0.5
3 11 7 17.73 0.61
4 11 7 77.94 1.53
5 11 7 11.65 0.54
6 11 7 7.1 0.57
7 11 7 0.72 0.38
-7 12 7 6.88 0.85
-6 12 7 18.03 1.32
-5 12 7 23.67 2.48
-4 12 7 71.81 1.84
-3 12 7 14.2 0.58
-2 12 7 59.97 1.96
-1 12 7 156.81 2.41
0 12 7 172 2.2
1 12 7 155.13 1.81
2 12 7 52 0.83
3 12 7 13.52 0.56
4 12 7 72.37 1.69
5 12 7 23.2 1.79
6 12 7 15.25 0.81
7 12 7 6.48 0.44
-6 13 7 1.38 0.85
-5 13 7 27.78 2.33
-4 13 7 95.75 4.99
-3 13 7 14.98 1.13
-2 13 7 3.95 0.41
-1 13 7 28.64 0.74
0 13 7 423.6 5.93
1 13 7 27.33 0.61
2 13 7 3.66 0.33
3 13 7 15.44 0.58
4 13 7 98.19 1.83
5 13 7 28.45 1.09
6 13 7 1.29 0.5
-6 14 7 10.12 1.01
-5 14 7 8.23 0.73
-4 14 7 38.75 5.29
-3 14 7 1.26 0.37
-2 14 7 4.26 0.41
-1 14 7 18.04 0.68
0 14 7 107.93 1.63
1 14 7 19.24 0.57
2 14 7 5.3 0.35
3 14 7 1.89 0.39
4 14 7 34.92 1.03
5 14 7 9.01 0.7
6 14 7 8.46 0.8
-6 15 7 4.23 0.82
-5 15 7 6.81 0.68
-4 15 7 9.87 1.92
-3 15 7 16.18 0.99
-2 15 7 2.84 0.39
-1 15 7 118.77 1.81
0 15 7 30.1 0.71
1 15 7 115.98 1.8
2 15 7 2.76 0.37
3 15 7 17.54 0.6
4 15 7 9.8 0.73
5 15 7 5.97 0.61
6 15 7 3.31 0.59
-5 16 7 17.11 2.36
-4 16 7 9.43 1.81
-3 16 7 29.93 2
-2 16 7 56.69 2.01
-1 16 7 84.6 1.61
0 16 7 35.56 1.02
1 16 7 81.99 1.39
2 16 7 52.57 1.25
3 16 7 27.19 1.02
4 16 7 8.97 0.69
5 16 7 15.54 1.01
-5 17 7 9.32 1.91
-4 17 7 37.53 14.79
-3 17 7 19.59 1.62
-2 17 7 5.05 0.61
-1 17 7 80.17 1.75
0 17 7 32.78 0.95
1 17 7 79.44 1.33
2 17 7 5.4 0.64
3 17 7 21.51 1.04
4 17 7 32.8 1.77
5 17 7 8.79 0.77
-4 18 7 7.45 2.06
-3 18 7 17.25 1.46
-2 18 7 0.07 0.48
-1 18 7 53.61 17.33
0 18 7 35.7 1.27
1 18 7 55.19 2.29
2 18 7 0.07 0.61
3 18 7 17.62 1.12
4 18 7 6.95 0.6
-4 19 7 0.58 0.44
-3 19 7 1.34 0.48
-2 19 7 10.38 1.33
-1 19 7 4.52 0.54
0 19 7 0.04 0.42
1 19 7 4.26 0.46
2 19 7 9.55 1.07
3 19 7 0.87 0.52
4 19 7 1.3 0.6
-3 20 7 7.56 0.77
-2 20 7 12.35 1.22
-1 20 7 1.89 0.46
0 20 7 16.68 1.21
1 20 7 1.78 0.6
2 20 7 13.03 1.08
3 20 7 7.69 0.88
-2 21 7 22.79 1.17
-1 21 7 4.41 0.46
0 21 7 0.79 0.45
1 21 7 5.2 0.62
0 0 8 149.59 2.53
1 0 8 1198.39 13.44
2 0 8 1.16 0.2
3 0 8 1088.52 13.02
4 0 8 79.57 1.45
5 0 8 44.86 0.89
6 0 8 7.67 0.38
7 0 8 69.41 2.04
8 0 8 24.11 0.78
-8 1 8 42.03 1.62
-7 1 8 18.3 0.97
-6 1 8 28.1 0.79
-5 1 8 14.48 0.42
-4 1 8 424.8 5.83
-3 1 8 484.04 6.02
-2 1 8 702.79 7.21
-1 1 8 559.2 6.85
0 1 8 975.16 10.88
1 1 8 573.3 7.02
2 1 8 696.04 6.85
3 1 8 474.22 5.21
4 1 8 424.82 5.31
5 1 8 14.7 0.45
6 1 8 26.37 0.63
7 1 8 15.82 1.09
8 1 8 41.75 2.11
-8 2 8 13 1.01
-7 2 8 16.89 0.94
-6 2 8 8.82 0.46
-5 2 8 26.06 0.62
-4 2 8 94.98 1.47
-3 2 8 214.6 2.8
-2 2 8 18.15 0.37
-1 2 8 212.95 3.86
0 2 8 1.41 0.2
1 2 8 229.02 4.34
2 2 8 20.36 0.39
3 2 8 220.21 2.79
4 2 8 93.95 1.52
5 2 8 25.21 0.61
6 2 8 10.48 0.39
7 2 8 15.32 0.96
8 2 8 12.16 1.49
-8 3 8 8.61 1.91
-7 3 8 33.51 1.01
-6 3 8 19.04 0.73
-5 3 8 62.94 1.31
-4 3 8 90.94 1.47
-3 3 8 927.54 11.98
-2 3 8 83.31 0.97
-1 3 8 1000.45 12.32
0 3 8 123.95 1.61
1 3 8 1035.07 12.81
2 3 8 79.73 0.91
3 3 8 963.75 11.98
4 3 8 95.29 1.47
5 3 8 70.53 1.28
6 3 8 19.31 0.51
7 3 8 34.69 1.4
8 3 8 9.12 1.18
-8 4 8 13.19 2.38
-7 4 8 10.36 0.84
-6 4 8 8.46 0.47
-5 4 8 7.28 0.37
-4 4 8 124.24 1.77
-3 4 8 310.21 3.51
-2 4 8 271.12 2.66
-1 4 8 241.76 3.22
0 4 8 49.25 0.74
1 4 8 257.39 2.98
2 4 8 275.55 3.31
3 4 8 311.12 4.11
4 4 8 123.27 1.99
5 4 8 5.94 0.37
6 4 8 7.33 0.44
7 4 8 9.16 0.59
8 4 8 14.47 1.42
-8 5 8 4.29 0.59
-7 5 8 9.77 0.82
-6 5 8 29.51 1.3
-5 5 8 69.69 1.41
-4 5 8 12.64 0.49
-3 5 8 624.01 7.69
-2 5 8 1179.87 12.9
-1 5 8 969.33 10.62
0 5 8 0.22 0.19
1 5 8 984.92 11.76
2 5 8 1249.76 16.26
3 5 8 639.84 9.57
4 5 8 13.74 0.46
5 5 8 75.03 1.54
6 5 8 32.75 1.15
7 5 8 9.89 0.54
8 5 8 4.29 0.44
-8 6 8 1.32 0.52
-7 6 8 8.02 0.77
-6 6 8 4.5 0.46
-5 6 8 25.6 0.81
-4 6 8 4.04 0.37
-3 6 8 24.11 0.54
-2 6 8 260.41 3.14
-1 6 8 51.55 0.72
0 6 8 15.62 0.37
1 6 8 53.64 0.69
2 6 8 268.55 3.43
3 6 8 25.33 0.67
4 6 8 3.83 0.34
5 6 8 26.95 1.02
6 6 8 4.72 0.39
7 6 8 7.84 0.49
8 6 8 1.64 0.39
-8 7 8 0.2 0.48
-7 7 8 11.52 0.81
-6 7 8 24.46 1.22
-5 7 8 15.77 0.68
-4 7 8 101.98 2.16
-3 7 8 5.62 0.35
-2 7 8 583.76 6.88
-1 7 8 99 1.24
0 7 8 345.71 3.79
1 7 8 94.07 1.33
2 7 8 623.91 10.08
3 7 8 4.33 0.34
4 7 8 99.54 1.63
5 7 8 16.95 0.64
6 7 8 22.7 0.95
7 7 8 10.15 0.58
8 7 8 0.72 0.36
-7 8 8 2.03 0.62
-6 8 8 5.21 0.59
-5 8 8 3.61 0.49
-4 8 8 13.79 0.51
-3 8 8 65.42 1.08
-2 8 8 283.61 3.65
-1 8 8 87.71 1.2
0 8 8 51.34 0.93
1 8 8 88.61 1.21
2 8 8 297.72 4.38
3 8 8 73.35 2.49
4 8 8 12.09 0.5
5 8 8 3.47 0.4
6 8 8 5.65 0.43
7 8 8 1.81 0.4
-7 9 8 8.02 0.7
-6 9 8 36.56 1.26
-5 9 8 14.51 0.95
-4 9 8 108.98 2.45
-3 9 8 46.44 1.01
-2 9 8 522.36 7.03
-1 9 8 5.39 0.34
0 9 8 262.81 3.26
1 9 8 4.77 0.33
2 9 8 575.23 9.01
3 9 8 55.48 1.13
4 9 8 116.73 2.28
5 9 8 14.47 0.55
6 9 8 36.55 1.27
7 9 8 7.41 0.52
-7 10 8 11.78 1.04
-6 10 8 10.16 1.16
-5 10 8 15.73 1
-4 10 8 34.3 0.94
-3 10 8 36.33 1.26
-2 10 8 58.71 1.12
-1 10 8 48.08 0.83
0 10 8 230.57 2.87
1 10 8 46.78 0.82
2 10 8 61.76 1.2
3 10 8 36.28 0.81
4 10 8 36.32 0.96
5 10 8 14.81 0.59
6 10 8 10.41 0.63
7 10 8 11.36 0.61
-7 11 8 23.78 1.27
-6 11 8 11.44 1.17
-5 11 8 29.64 1.91
-4 11 8 11.89 0.76
-3 11 8 103.21 2.41
-2 11 8 34.81 1.59
-1 11 8 153.56 2.25
0 11 8 152.83 2.19
1 11 8 153.16 2.04
2 11 8 32.28 0.69
3 11 8 90.3 1.62
4 11 8 12.88 0.64
5 11 8 28.51 0.86
6 11 8 9.97 0.61
7 11 8 19.88 0.81
-7 12 8 4.69 0.79
-6 12 8 18.84 1.3
-5 12 8 14.79 1.32
-4 12 8 6.67 0.56
-3 12 8 14.1 0.8
-2 12 8 33.58 1.1
-1 12 8 46.75 0.9
0 12 8 8.27 0.4
1 12 8 48.37 0.8
2 12 8 32.44 0.63
3 12 8 14.39 0.56
4 12 8 6.21 0.51
5 12 8 13.22 0.83
6 12 8 16.91 1.18
7 12 8 4.28 0.48
-6 13 8 2.29 0.83
-5 13 8 23.09 2.63
-4 13 8 30.18 1.35
-3 13 8 18.12 0.91
-2 13 8 82.59 1.6
-1 13 8 99.78 1.64
0 13 8 2.34 0.35
1 13 8 93.3 1.3
2 13 8 83.04 1.53
3 13 8 16.63 0.59
4 13 8 30.63 0.88
5 13 8 22.26 0.96
6 13 8 3.01 0.52
-6 14 8 20.43 1.24
-5 14 8 4.69 0.65
-4 14 8 8.78 0.79
-3 14 8 17.66 1.09
-2 14 8 17.94 0.8
-1 14 8 76.08 1.37
0 14 8 4.99 0.38
1 14 8 74.18 1.12
2 14 8 16.75 0.49
3 14 8 20.94 0.64
4 14 8 8.57 0.72
5 14 8 4.39 0.6
6 14 8 16.61 0.75
-6 15 8 14.14 1.02
-5 15 8 21.74 2.97
-4 15 8 20.24 3.09
-3 15 8 16.34 1.05
-2 15 8 7.56 0.5
-1 15 8 68.98 1.52
0 15 8 83.57 1.43
1 15 8 67.01 1.2
2 15 8 9.06 0.43
3 15 8 17.78 0.63
4 15 8 19.68 1.03
5 15 8 20.75 1.22
6 15 8 9.89 0.76
-5 16 8 13.73 1.71
-4 16 8 5.18 0.66
-3 16 8 13.73 1.5
-2 16 8 13.29 0.6
-1 16 8 24.06 0.64
0 16 8 31.41 1.01
1 16 8 23.49 0.64
2 16 8 12.43 0.62
3 16 8 14.97 0.69
4 16 8 4.77 0.55
5 16 8 13.11 0.68
-5 17 8 3.31 0.52
-4 17 8 28.65 4.82
-3 17 8 6.14 0.56
-2 17 8 3.03 0.5
-1 17 8 12.98 0.87
0 17 8 57.43 1.27
1 17 8 11.6 0.76
2 17 8 2.99 0.61
3 17 8 5.67 0.52
4 17 8 22.58 0.83
5 17 8 2.76 0.6
-4 18 8 3.87 0.54
-3 18 8 15.91 1.55
-2 18 8 3.07 0.52
-1 18 8 7.49 0.57
0 18 8 0.6 0.45
1 18 8 7.3 0.63
2 18 8 3.24 0.58
3 18 8 15.35 0.65
4 18 8 3.48 0.54
-3 19 8 12.63 1.32
-2 19 8 12.87 1.27
-1 19 8 30.79 0.91
0 19 8 35.96 1.48
1 19 8 29.38 1.21
2 19 8 12.15 0.72
3 19 8 13.93 1.1
-3 20 8 1.77 0.64
-2 20 8 0.38 0.4
-1 20 8 8.44 0.65
0 20 8 6.49 0.59
1 20 8 8.86 0.53
2 20 8 0.59 0.77
3 20 8 1.04 0.73
-1 21 8 34.51 2.22
0 21 8 22.21 1.14
1 21 8 37.32 1.14
1 0 9 1.41 0.19
2 0 9 64.55 0.76
3 0 9 47.63 0.78
4 0 9 156.22 2.41
5 0 9 43.77 0.85
6 0 9 12.24 0.47
7 0 9 28.51 1.16
8 0 9 1.11 0.44
-8 1 9 5.64 0.65
-7 1 9 17.78 0.97
-6 1 9 0.59 0.29
-5 1 9 65.65 1.1
-4 1 9 30.62 0.71
-3 1 9 329.18 3.75
-2 1 9 0.93 0.19
-1 1 9 710.38 9.12
0 1 9 4.03 0.26
1 1 9 687.47 9.17
2 1 9 1.43 0.21
3 1 9 350.42 3.82
4 1 9 28.94 0.62
5 1 9 68.08 1.11
6 1 9 1.1 0.29
7 1 9 17.29 0.94
8 1 9 5.17 0.51
-8 2 9 7.73 0.81
-7 2 9 34.24 1.24
-6 2 9 38.75 1.16
-5 2 9 33.42 0.75
-4 2 9 9.35 0.4
-3 2 9 190.3 2.48
-2 2 9 162.8 1.92
-1 2 9 10.62 0.38
0 2 9 367.45 4.19
1 2 9 9.98 0.35
2 2 9 165.74 1.65
3 2 9 189.55 2.33
4 2 9 8.72 0.39
5 2 9 36.6 0.68
6 2 9 38.71 0.83
7 2 9 34.71 1.34
8 2 9 7.76 0.66
-8 3 9 4.74 1.05
-7 3 9 3.47 0.87
-6 3 9 48.75 1.3
-5 3 9 28.5 0.68
-4 3 9 70.39 1.37
-3 3 9 131.71 1.74
-2 3 9 1172.52 13.31
-1 3 9 747.96 8.46
0 3 9 759.03 8.56
1 3 9 763.29 9.24
2 3 9 1175.23 13.38
3 3 9 136.64 1.66
4 3 9 64.21 1.08
5 3 9 28.88 0.78
6 3 9 52.45 1.34
7 3 9 3.05 0.42
8 3 9 4.83 0.6
-8 4 9 2.93 0.83
-7 4 9 7.94 1.12
-6 4 9 19.27 0.6
-5 4 9 37.58 0.82
-4 4 9 9.78 0.45
-3 4 9 30.95 0.56
-2 4 9 19.9 0.35
-1 4 9 456.17 4.64
0 4 9 203.51 2.79
1 4 9 469.38 4.91
2 4 9 21.5 0.43
3 4 9 29.27 0.59
4 4 9 8.94 0.42
5 4 9 37.2 1.27
6 4 9 21.72 0.74
7 4 9 6.89 0.47
8 4 9 2.81 0.42
-8 5 9 15.36 1.1
-7 5 9 0.78 0.93
-6 5 9 58.24 1.41
-5 5 9 23.14 0.68
-4 5 9 241.12 4.41
-3 5 9 10.03 0.39
-2 5 9 269.56 2.71
-1 5 9 36.32 0.52
0 5 9 759.06 7.9
1 5 9 39.27 0.61
2 5 9 266.12 3.05
3 5 9 10.25 0.42
4 5 9 257.24 3.68
5 5 9 22.99 0.87
6 5 9 57.85 1.6
7 5 9 0.91 0.39
8 5 9 14.07 0.6
-8 6 9 1.19 0.74
-7 6 9 5.75 0.72
-6 6 9 4.8 0.47
-5 6 9 29.24 0.86
-4 6 9 17.45 0.52
-3 6 9 62.09 1.08
-2 6 9 82.42 1.08
-1 6 9 167.18 1.76
0 6 9 50.05 0.69
1 6 9 168.62 1.82
2 6 9 86.29 1.29
3 6 9 59.57 0.99
4 6 9 18.56 0.55
5 6 9 30.64 1.15
6 6 9 5.07 0.39
7 6 9 5.65 0.45
8 6 9 1.84 0.38
-7 7 9 8.5 0.74
-6 7 9 54 1.47
-5 7 9 80.01 2.21
-4 7 9 62.14 1.03
-3 7 9 345.42 4.98
-2 7 9 393.23 4.39
-1 7 9 552.62 6.73
0 7 9 243.55 2.76
1 7 9 552.68 6.42
2 7 9 419.45 9.88
3 7 9 366.86 11.55
4 7 9 60.17 1.49
5 7 9 85.06 2.28
6 7 9 57.77 1.37
7 7 9 6.88 0.47
8 7 9 3.57 0.63
-7 8 9 0.76 0.6
-6 8 9 49.51 1.93
-5 8 9 2.96 0.5
-4 8 9 209.23 3.64
-3 8 9 33.44 0.64
-2 8 9 79.73 1.22
-1 8 9 88.62 1.17
0 8 9 3.93 0.31
1 8 9 89.98 1.21
2 8 9 82.01 1.76
3 8 9 32.33 1.29
4 8 9 214.5 6.57
5 8 9 3.86 0.4
6 8 9 51.35 1.28
7 8 9 0.53 0.38
-7 9 9 17.06 0.85
-6 9 9 6.09 0.73
-5 9 9 96.13 3.23
-4 9 9 128.68 3
-3 9 9 149.53 2.73
-2 9 9 2.81 0.33
-1 9 9 480.57 6.21
0 9 9 132.89 1.75
1 9 9 489.18 6.62
2 9 9 2.44 0.33
3 9 9 163.89 2.81
4 9 9 125.21 3.38
5 9 9 102.46 2.28
6 9 9 5.79 0.57
7 9 9 15.14 0.9
-7 10 9 0.41 0.77
-6 10 9 8.01 1.09
-5 10 9 2.61 0.73
-4 10 9 59.78 1.76
-3 10 9 36.87 0.71
-2 10 9 11.32 0.42
-1 10 9 20.2 0.54
0 10 9 63.81 1.06
1 10 9 20.12 0.55
2 10 9 10.94 0.42
3 10 9 32.48 1.05
4 10 9 56.24 1.24
5 10 9 2.82 0.47
6 10 9 6.34 0.8
7 10 9 0.41 0.38
-7 11 9 14.56 1.06
-6 11 9 11.43 1.17
-5 11 9 22.96 1.12
-4 11 9 192.91 9.06
-3 11 9 68.79 1.37
-2 11 9 139.68 2.11
-1 11 9 76.69 1.32
0 11 9 134.42 1.75
1 11 9 73.6 1.3
2 11 9 140.05 1.98
3 11 9 62.71 1.49
4 11 9 217.53 4.78
5 11 9 21.58 0.76
6 11 9 11.09 0.74
7 11 9 12.96 0.67
-7 12 9 19.29 1.08
-6 12 9 0.61 0.82
-5 12 9 4.94 1.09
-4 12 9 5.29 0.53
-3 12 9 201.39 3.37
-2 12 9 6.76 0.37
-1 12 9 102.88 1.52
0 12 9 7.33 0.38
1 12 9 101.87 1.37
2 12 9 6.03 0.38
3 12 9 188.27 3.22
4 12 9 5.46 0.52
5 12 9 4.28 0.65
6 12 9 0.61 0.5
7 12 9 17.68 0.94
-6 13 9 6.62 0.95
-5 13 9 2.9 1
-4 13 9 96.37 6.26
-3 13 9 87.14 1.9
-2 13 9 218 5.28
-1 13 9 104.22 1.78
0 13 9 411.57 5.5
1 13 9 103.15 1.48
2 13 9 209.46 3.42
3 13 9 79.32 1.76
4 13 9 101.98 2.17
5 13 9 1.83 0.57
6 13 9 5.41 0.56
-6 14 9 4.77 0.88
-5 14 9 1.74 0.58
-4 14 9 4.83 1.54
-3 14 9 26.59 1.51
-2 14 9 43.9 1.52
-1 14 9 38.44 0.95
0 14 9 5.49 0.4
1 14 9 37.24 0.73
2 14 9 44.75 0.79
3 14 9 27.58 0.81
4 14 9 4.1 0.52
5 14 9 0.94 0.51
6 14 9 4.03 0.89
-6 15 9 2.65 0.75
-5 15 9 15.81 2.28
-4 15 9 6.33 1.1
-3 15 9 34.24 1.6
-2 15 9 5.08 0.42
-1 15 9 72.09 1.53
0 15 9 25.41 0.64
1 15 9 67.19 1.14
2 15 9 6.16 0.47
3 15 9 37.1 1.06
4 15 9 5.6 0.53
5 15 9 13.22 0.99
6 15 9 1.3 0.53
-5 16 9 1.21 0.51
-4 16 9 3.13 0.62
-3 16 9 2.64 0.54
-2 16 9 13.62 0.74
-1 16 9 10.58 0.59
0 16 9 10.88 0.48
1 16 9 10.59 0.56
2 16 9 13.7 0.57
3 16 9 3.22 0.5
4 16 9 2.43 0.46
5 16 9 0.86 0.44
-5 17 9 7.05 0.95
-4 17 9 9.28 1.77
-3 17 9 36.62 1.36
-2 17 9 66.63 3.74
-1 17 9 66.45 1.9
0 17 9 16.03 1.42
1 17 9 65.11 2.11
2 17 9 64.02 1.96
3 17 9 35.98 0.97
4 17 9 8.92 0.54
5 17 9 6.52 0.7
-4 18 9 4 0.54
-3 18 9 9.04 0.82
-2 18 9 0.49 0.44
-1 18 9 7.83 0.71
0 18 9 10.07 0.74
1 18 9 7.52 0.59
2 18 9 0.69 0.53
3 18 9 9.34 0.56
4 18 9 3.9 0.42
-3 19 9 1.18 0.4
-2 19 9 9.78 1.01
-1 19 9 3.1 0.51
0 19 9 18.61 1.25
1 19 9 3.15 0.44
2 19 9 9.6 0.67
3 19 9 1.74 0.49
-2 20 9 0.15 0.39
-1 20 9 1.94 0.45
0 20 9 6.75 0.54
1 20 9 1.9 0.39
2 20 9 0.26 0.44
-1 21 9 7.4 0.85
0 21 9 1.36 0.36
1 21 9 6.8 0.52
0 0 10 1837.7 30.66
1 0 10 3.83 0.2
2 0 10 161.06 1.62
3 0 10 455.35 5.87
4 0 10 163.52 2.86
5 0 10 4.2 0.34
6 0 10 7.42 0.44
7 0 10 120.99 3.41
8 0 10 0.63 0.43
-8 1 10 0.78 0.43
-7 1 10 35.09 1.58
-6 1 10 13.84 0.59
-5 1 10 44.47 0.79
-4 1 10 205.81 3.22
-3 1 10 209.7 3.4
-2 1 10 140.75 1.57
-1 1 10 217.2 2.4
0 1 10 3105.21 48.13
1 1 10 219.1 2.81
2 1 10 142.96 1.54
3 1 10 217.14 2.46
4 1 10 212.05 2.9
5 1 10 44.86 0.86
6 1 10 15.55 0.63
7 1 10 36.63 1.54
8 1 10 0.85 0.44
-8 2 10 3.54 0.46
-7 2 10 4.47 0.69
-6 2 10 28.68 1.15
-5 2 10 46.33 0.78
-4 2 10 36.43 0.79
-3 2 10 7.32 0.32
-2 2 10 644.36 6.56
-1 2 10 144.91 1.71
0 2 10 23.35 0.48
1 2 10 156.66 1.86
2 2 10 643.68 6.58
3 2 10 9.19 0.43
4 2 10 40.14 0.75
5 2 10 43.95 0.77
6 2 10 28.08 0.88
7 2 10 5.27 0.46
8 2 10 3.52 1.11
-8 3 10 3.44 1.23
-7 3 10 6.14 0.72
-6 3 10 7.32 0.52
-5 3 10 101.8 2
-4 3 10 58.47 1.45
-3 3 10 37.62 0.65
-2 3 10 15.37 0.37
-1 3 10 115.71 1.3
0 3 10 321.41 3.95
1 3 10 119.03 1.43
2 3 10 15.51 0.39
3 3 10 41.65 0.72
4 3 10 55.52 0.93
5 3 10 106.4 2.06
6 3 10 7.2 0.39
7 3 10 5.46 0.67
8 3 10 3.06 0.92
-8 4 10 10.44 1.01
-7 4 10 3.45 0.99
-6 4 10 25.06 1.26
-5 4 10 100.05 1.8
-4 4 10 13.27 0.45
-3 4 10 72.3 1.09
-2 4 10 932.7 10.34
-1 4 10 430.29 4.4
0 4 10 38.84 0.52
1 4 10 421.63 4.9
2 4 10 993.89 11.48
3 4 10 76.58 1.08
4 4 10 14.36 0.44
5 4 10 97.12 2.42
6 4 10 27.26 1.04
7 4 10 3.67 0.43
8 4 10 9.02 0.71
-8 5 10 1.25 0.75
-7 5 10 2.08 0.94
-6 5 10 12.82 0.58
-5 5 10 58.32 1.34
-4 5 10 35.43 0.77
-3 5 10 231.42 3.19
-2 5 10 433.78 4.44
-1 5 10 850.75 9
0 5 10 19.01 0.37
1 5 10 895.06 9.53
2 5 10 462.42 5.61
3 5 10 236.29 3.09
4 5 10 36.95 1.04
5 5 10 63.21 1.46
6 5 10 13.79 0.85
7 5 10 1.81 0.4
8 5 10 1.32 0.38
-8 6 10 0.81 0.73
-7 6 10 27.89 1.07
-6 6 10 33.3 1.28
-5 6 10 64.5 1.11
-4 6 10 55.36 1.06
-3 6 10 324.92 4.15
-2 6 10 123.69 1.64
-1 6 10 270.45 2.82
0 6 10 398.48 4.27
1 6 10 267.99 2.97
2 6 10 135.81 2.37
3 6 10 353.85 5.78
4 6 10 52.57 0.89
5 6 10 64.12 2.13
6 6 10 39.14 1.3
7 6 10 27.98 1.16
8 6 10 1.34 0.31
-7 7 10 18.39 0.91
-6 7 10 5.34 0.47
-5 7 10 6.28 0.43
-4 7 10 89.87 1.61
-3 7 10 185.73 2.9
-2 7 10 21.27 0.49
-1 7 10 128.73 1.56
0 7 10 78.82 1.1
1 7 10 127.17 1.75
2 7 10 21.87 0.71
3 7 10 212.22 4.19
4 7 10 87.73 2.2
5 7 10 6.24 0.39
6 7 10 5.55 0.39
7 7 10 18.67 0.67
-7 8 10 5.8 0.99
-6 8 10 36.83 1.42
-5 8 10 11.83 0.63
-4 8 10 80.71 1.29
-3 8 10 168.76 2.36
-2 8 10 95.1 1.4
-1 8 10 23.32 0.54
0 8 10 181.46 2.23
1 8 10 22.94 0.52
2 8 10 95 2.32
3 8 10 182.5 3.85
4 8 10 82.05 2.75
5 8 10 10.9 0.62
6 8 10 36.86 1.06
7 8 10 5.95 0.45
-7 9 10 19.9 0.89
-6 9 10 38.24 1.27
-5 9 10 25.35 0.91
-4 9 10 6.19 0.55
-3 9 10 119.24 1.95
-2 9 10 317.48 4.21
-1 9 10 2.5 0.31
0 9 10 9.26 0.4
1 9 10 1.77 0.29
2 9 10 336.69 6.21
3 9 10 105.72 1.82
4 9 10 5.41 0.52
5 9 10 25.37 0.88
6 9 10 36.86 1.54
7 9 10 18.44 1.02
-7 10 10 3.41 0.83
-6 10 10 13 1.21
-5 10 10 92.89 3.45
-4 10 10 175.64 2.86
-3 10 10 46.11 1.09
-2 10 10 95.4 1.9
-1 10 10 165.56 2.22
0 10 10 65.09 1.06
1 10 10 166.69 2.43
2 10 10 92.63 1.53
3 10 10 41.41 1.27
4 10 10 157.25 2.82
5 10 10 88.55 1.94
6 10 10 12.25 0.78
7 10 10 3.95 0.52
-7 11 10 6.59 0.85
-6 11 10 4.15 0.94
-5 11 10 6.1 1.15
-4 11 10 8.16 0.51
-3 11 10 150.54 2.55
-2 11 10 31.4 0.8
-1 11 10 151.89 2.7
0 11 10 37.55 0.66
1 11 10 146.4 1.92
2 11 10 31.83 0.83
3 11 10 136.11 3.62
4 11 10 8.33 0.56
5 11 10 4.92 0.67
6 11 10 2.37 0.55
7 11 10 6.59 0.55
-6 12 10 7.39 1
-5 12 10 17.54 1.33
-4 12 10 8.67 0.52
-3 12 10 133.17 2.64
-2 12 10 18.77 0.73
-1 12 10 131.61 2.33
0 12 10 14.22 0.43
1 12 10 131.67 1.74
2 12 10 19.14 0.56
3 12 10 125.08 2.81
4 12 10 9.24 0.57
5 12 10 15.74 1.01
6 12 10 5.58 0.59
-6 13 10 2.71 0.87
-5 13 10 1.35 0.9
-4 13 10 4.13 0.52
-3 13 10 56.74 1.28
-2 13 10 23.97 0.87
-1 13 10 6.98 0.41
0 13 10 2.85 0.33
1 13 10 6.84 0.39
2 13 10 24.25 0.67
3 13 10 47.57 1.73
4 13 10 3.59 0.42
5 13 10 1.01 0.53
6 13 10 1.95 0.48
-6 14 10 1.62 0.77
-5 14 10 6.72 0.99
-4 14 10 40.16 6.09
-3 14 10 75.23 1.54
-2 14 10 53.39 1.54
-1 14 10 88.61 2
0 14 10 100.48 1.7
1 14 10 92.4 1.32
2 14 10 52.65 0.97
3 14 10 64.44 1.84
4 14 10 35.54 1.69
5 14 10 5.55 0.6
6 14 10 0.73 0.42
-5 15 10 8.92 1.01
-4 15 10 10.6 2.58
-3 15 10 24.39 1.92
-2 15 10 113.34 2.51
-1 15 10 38 1.29
0 15 10 64.87 1.59
1 15 10 41.87 0.89
2 15 10 107.27 2.32
3 15 10 23.2 0.74
4 15 10 10.63 0.6
5 15 10 7.04 0.6
-5 16 10 21.21 3.09
-4 16 10 6.45 1.18
-3 16 10 17.38 1.34
-2 16 10 107.92 4.41
-1 16 10 0.15 0.33
0 16 10 11.93 0.5
1 16 10 0.43 0.36
2 16 10 100.72 2.29
3 16 10 15.53 0.76
4 16 10 5.93 0.51
5 16 10 18.57 0.77
-5 17 10 9.17 0.94
-4 17 10 10.05 2.55
-3 17 10 5.38 0.69
-2 17 10 13.17 1.13
-1 17 10 1.86 0.49
0 17 10 30.83 1.25
1 17 10 1.69 0.52
2 17 10 13.25 0.67
3 17 10 5.16 0.52
4 17 10 9.98 0.54
5 17 10 7.06 0.71
-4 18 10 0.3 0.46
-3 18 10 11.29 1.21
-2 18 10 24.8 1.2
-1 18 10 10.29 0.87
0 18 10 4.66 0.51
1 18 10 10.09 0.65
2 18 10 24.14 0.96
3 18 10 11.76 0.78
4 18 10 0.9 0.37
-3 19 10 2.43 0.41
-2 19 10 9.82 0.7
-1 19 10 3.55 0.58
0 19 10 18 1.08
1 19 10 3.18 0.44
2 19 10 10.06 0.68
3 19 10 3.01 0.51
-2 20 10 2.03 0.43
-1 20 10 1.05 0.43
0 20 10 8.45 0.62
1 20 10 1.09 0.37
2 20 10 2.26 0.48
-1 21 10 19.66 2.48
0 21 10 14.7 0.67
1 21 10 20.74 1.19
1 0 11 1018.23 10.69
2 0 11 7.3 0.29
3 0 11 267.87 3.84
4 0 11 2.87 0.36
5 0 11 176.54 2.63
6 0 11 8.78 0.56
7 0 11 6.66 0.51
8 0 11 -0.31 0.72
-8 1 11 7.12 0.87
-7 1 11 23.41 0.83
-6 1 11 35.33 1.1
-5 1 11 3.56 0.34
-4 1 11 351.39 5.2
-3 1 11 121.91 2.21
-2 1 11 3.85 0.24
-1 1 11 24.19 0.48
0 1 11 110.32 1.68
1 1 11 22.61 0.42
2 1 11 3.37 0.27
3 1 11 125.07 1.61
4 1 11 360.77 4.82
5 1 11 3.61 0.34
6 1 11 35.88 1.13
7 1 11 22.17 1.12
8 1 11 7.71 0.8
-8 2 11 13.77 1.45
-7 2 11 7.3 0.77
-6 2 11 54.16 1.26
-5 2 11 142.55 2.02
-4 2 11 443.28 8.64
-3 2 11 294.98 3.38
-2 2 11 63.32 0.81
-1 2 11 498.66 5.09
0 2 11 1580.97 17.73
1 2 11 500.84 6.46
2 2 11 68.62 0.86
3 2 11 297.53 3.57
4 2 11 431.72 6.43
5 2 11 144.69 2.24
6 2 11 53.55 1.35
7 2 11 6.23 0.46
8 2 11 14.28 1.35
-8 3 11 2.2 0.67
-7 3 11 1.03 0.63
-6 3 11 0.43 0.32
-5 3 11 90.27 1.73
-4 3 11 58.35 1.11
-3 3 11 13.42 0.37
-2 3 11 645.89 6.77
-1 3 11 4.8 0.24
0 3 11 14.14 0.31
1 3 11 4.91 0.24
2 3 11 662.77 7
3 3 11 13.18 0.46
4 3 11 57.85 0.96
5 3 11 95.52 1.65
6 3 11 0.56 0.32
7 3 11 1.47 0.41
8 3 11 3.02 0.54
-8 4 11 5.75 0.89
-7 4 11 2.73 0.99
-6 4 11 61 1.26
-5 4 11 29.86 0.93
-4 4 11 198.36 5.12
-3 4 11 5.39 0.28
-2 4 11 499.83 5.36
-1 4 11 396.97 4.04
0 4 11 992.39 10.61
1 4 11 400.34 3.79
2 4 11 513.5 5.51
3 4 11 5.19 0.37
4 4 11 207.23 4
5 4 11 27.93 0.72
6 4 11 64 1.96
7 4 11 2.51 0.41
8 4 11 4.4 0.43
-8 5 11 1.63 0.74
-7 5 11 4.14 0.98
-6 5 11 4.1 0.51
-5 5 11 4.42 0.41
-4 5 11 0.24 0.29
-3 5 11 163.81 2.05
-2 5 11 13.48 0.38
-1 5 11 141.54 1.57
0 5 11 38.78 0.56
1 5 11 149.8 1.55
2 5 11 14.57 0.4
3 5 11 165.24 2.96
4 5 11 0.33 0.32
5 5 11 4.58 0.36
6 5 11 4.02 0.39
7 5 11 3.68 0.47
8 5 11 0.72 0.31
-7 6 11 7.93 1.06
-6 6 11 3.77 0.5
-5 6 11 68.43 1.47
-4 6 11 80 1.25
-3 6 11 40.8 0.8
-2 6 11 384.72 4.95
-1 6 11 430.93 4.85
0 6 11 263.83 2.86
1 6 11 433.79 4.79
2 6 11 408.13 4.89
3 6 11 44.23 1.1
4 6 11 85.79 2.27
5 6 11 70.75 1.99
6 6 11 4.32 0.38
7 6 11 6.24 0.47
8 6 11 0.64 0.55
-7 7 11 5.62 0.68
-6 7 11 8.7 0.79
-5 7 11 5.38 0.42
-4 7 11 1.56 0.37
-3 7 11 154.32 2.36
-2 7 11 5.32 0.32
-1 7 11 143.98 1.81
0 7 11 3.2 0.3
1 7 11 151.64 1.97
2 7 11 4.82 0.32
3 7 11 164.63 3.02
4 7 11 0.89 0.4
5 7 11 5.14 0.44
6 7 11 7.08 0.53
7 7 11 4.58 0.44
-7 8 11 21.29 0.92
-6 8 11 29.38 1.26
-5 8 11 59.74 1.32
-4 8 11 18.66 0.62
-3 8 11 276.87 7.18
-2 8 11 11.6 0.43
-1 8 11 415.5 5.04
0 8 11 42.93 0.77
1 8 11 430 5.46
2 8 11 11.2 0.46
3 8 11 281.96 9.09
4 8 11 17.86 0.63
5 8 11 59.54 2.9
6 8 11 29.25 1.27
7 8 11 19.03 0.89
-7 9 11 13.96 0.78
-6 9 11 2.08 0.66
-5 9 11 26.79 0.82
-4 9 11 9.74 0.59
-3 9 11 25.57 0.8
-2 9 11 12.88 0.46
-1 9 11 66.54 1.01
0 9 11 5.1 0.35
1 9 11 66.62 1.37
2 9 11 13.1 0.45
3 9 11 24.45 0.81
4 9 11 9.29 0.56
5 9 11 26.05 0.83
6 9 11 3.06 0.61
7 9 11 14.5 0.74
-7 10 11 3.81 0.82
-6 10 11 27 1.52
-5 10 11 6.18 0.77
-4 10 11 14.71 0.72
-3 10 11 147.79 2.76
-2 10 11 77.64 1.35
-1 10 11 77.67 1.17
0 10 11 39.53 0.78
1 10 11 77.65 1.14
2 10 11 78.22 1.36
3 10 11 131.05 2.1
4 10 11 12.75 0.63
5 10 11 7.46 0.54
6 10 11 24.65 1
7 10 11 3.31 0.5
-7 11 11 0.47 0.68
-6 11 11 10.97 1.09
-5 11 11 19.9 1.46
-4 11 11 0.23 0.47
-3 11 11 1.34 0.37
-2 11 11 29.1 0.72
-1 11 11 84.45 1.36
0 11 11 0.49 0.29
1 11 11 86.65 1.25
2 11 11 28.71 0.75
3 11 11 0.86 0.37
4 11 11 0.4 0.42
5 11 11 16.76 0.9
6 11 11 8.97 0.67
7 11 11 0.04 0.4
-6 12 11 8.67 1
-5 12 11 5.23 1.01
-4 12 11 40.04 0.93
-3 12 11 123.66 2.53
-2 12 11 103.17 2.39
-1 12 11 64.7 1.49
0 12 11 97.79 1.4
1 12 11 66.64 1
2 12 11 104.52 1.52
3 12 11 110.59 2.63
4 12 11 34.06 1.01
5 12 11 4.41 0.63
6 12 11 8.52 0.64
-6 13 11 2.53 0.87
-5 13 11 11.73 1.19
-4 13 11 30.55 2.72
-3 13 11 4.73 0.45
-2 13 11 18.28 0.67
-1 13 11 66.73 1.98
0 13 11 260.69 3.4
1 13 11 66.59 1.02
2 13 11 18.38 0.61
3 13 11 3.99 0.42
4 13 11 29.12 1.07
5 13 11 8.41 0.68
6 13 11 1.49 0.47
-6 14 11 24.6 1.27
-5 14 11 10.31 1.09
-4 14 11 5.02 0.91
-3 14 11 3.25 0.4
-2 14 11 86.78 2.11
-1 14 11 13.97 0.78
0 14 11 1.37 0.33
1 14 11 14.64 0.49
2 14 11 81.54 1.73
3 14 11 3.51 0.44
4 14 11 4.77 0.52
5 14 11 8.82 0.66
6 14 11 18.91 0.75
-5 15 11 6.04 0.93
-4 15 11 1.76 0.61
-3 15 11 30.86 1.6
-2 15 11 16.5 0.67
-1 15 11 33.72 1.27
0 15 11 5.24 0.39
1 15 11 33.62 0.85
2 15 11 17.52 0.57
3 15 11 26.66 0.88
4 15 11 1.61 0.45
5 15 11 5.08 0.56
-5 16 11 5.04 0.87
-4 16 11 0.56 0.56
-3 16 11 52.05 2.3
-2 16 11 75.24 3.47
-1 16 11 42.27 0.94
0 16 11 2.23 0.34
1 16 11 40.53 0.9
2 16 11 71.88 1.54
3 16 11 46.59 1.67
4 16 11 0.43 0.41
5 16 11 3.97 0.49
-4 17 11 9.26 2.03
-3 17 11 2.37 0.54
-2 17 11 31.02 1.43
-1 17 11 10.58 0.61
0 17 11 1.51 0.47
1 17 11 10.8 0.67
2 17 11 29.54 0.91
3 17 11 1.96 0.55
4 17 11 8.75 0.52
-4 18 11 18.58 3.82
-3 18 11 22.13 1.75
-2 18 11 10.63 0.85
-1 18 11 32.88 1.43
0 18 11 9.9 0.72
1 18 11 30.96 0.94
2 18 11 11.04 0.73
3 18 11 22.1 0.89
4 18 11 17.07 0.72
-3 19 11 7.82 1.65
-2 19 11 1.68 0.5
-1 19 11 4.91 0.53
0 19 11 22.73 1.18
1 19 11 4.71 0.45
2 19 11 1.52 0.51
3 19 11 7.91 0.61
-2 20 11 12.64 0.93
-1 20 11 0.94 0.49
0 20 11 19.99 1.12
1 20 11 0.92 0.37
2 20 11 12.11 0.65
0 21 11 1.39 0.72
0 0 12 252.08 3.13
1 0 12 98.44 1.14
2 0 12 1034.89 12.08
3 0 12 2.11 0.26
4 0 12 61.95 1.09
5 0 12 10.29 0.42
6 0 12 157.09 2.96
7 0 12 9.88 0.68
8 0 12 0.47 0.42
-8 1 12 3.03 0.46
-7 1 12 0.44 0.48
-6 1 12 102.82 1.68
-5 1 12 60.36 1.17
-4 1 12 143.04 2.14
-3 1 12 1.77 0.26
-2 1 12 44.16 0.66
-1 1 12 83.59 0.95
0 1 12 41.11 0.56
1 1 12 80.26 1.12
2 1 12 43.8 0.65
3 1 12 1.22 0.24
4 1 12 137.22 2.31
5 1 12 58.38 0.94
6 1 12 101.83 2.14
7 1 12 -0.15 0.8
8 1 12 3.2 0.47
-8 2 12 1.07 0.42
-7 2 12 15.58 0.7
-6 2 12 53.67 1.81
-5 2 12 20.26 0.53
-4 2 12 4.62 0.33
-3 2 12 200.72 3.16
-2 2 12 410.91 4.52
-1 2 12 571.22 5.72
0 2 12 6.57 0.27
1 2 12 581.42 6.1
2 2 12 414.49 4.25
3 2 12 204.57 2.85
4 2 12 6.49 0.35
5 2 12 19.18 0.52
6 2 12 55.08 1.26
7 2 12 14.15 0.83
8 2 12 1.54 0.61
-8 3 12 3.09 0.98
-7 3 12 12.64 0.85
-6 3 12 0.21 0.31
-5 3 12 96.22 1.88
-4 3 12 131.86 3.55
-3 3 12 49.61 0.84
-2 3 12 174.26 1.9
-1 3 12 596.32 6.04
0 3 12 7.21 0.26
1 3 12 615.42 6.42
2 3 12 172 1.9
3 3 12 46.51 0.74
4 3 12 136.75 1.79
5 3 12 104.01 2.12
6 3 12 0.23 0.32
7 3 12 12.19 0.82
8 3 12 4.49 0.53
-8 4 12 4.61 0.83
-7 4 12 18.69 1.37
-6 4 12 2.09 0.37
-5 4 12 100.3 1.84
-4 4 12 11.01 0.49
-3 4 12 306.56 3.58
-2 4 12 193.64 2.02
-1 4 12 1066.09 11.92
0 4 12 108.19 1.35
1 4 12 1070.56 11.63
2 4 12 197.26 2.17
3 4 12 322.04 4.69
4 4 12 10.4 0.47
5 4 12 100.01 2.64
6 4 12 2.31 0.35
7 4 12 18.17 1.13
8 4 12 3.89 0.42
-8 5 12 5.04 0.81
-7 5 12 -0.17 0.84
-6 5 12 20.99 0.85
-5 5 12 20.59 0.79
-4 5 12 85.85 1.44
-3 5 12 91.18 1.41
-2 5 12 54.29 0.76
-1 5 12 401.71 4.17
0 5 12 375.92 3.74
1 5 12 425.36 4.33
2 5 12 56.04 0.82
3 5 12 91.39 1.89
4 5 12 81.5 1.79
5 5 12 20.12 0.88
6 5 12 22.04 0.97
7 5 12 -0.01 0.74
8 5 12 4.95 0.5
-7 6 12 30.03 1.58
-6 6 12 7.35 0.74
-5 6 12 51.32 1.32
-4 6 12 154.02 2.27
-3 6 12 100.44 1.62
-2 6 12 112.54 1.44
-1 6 12 103.17 1.3
0 6 12 679.77 7.83
1 6 12 101.31 1.47
2 6 12 115.49 1.61
3 6 12 98.15 1.75
4 6 12 159.09 3.05
5 6 12 51.62 1.67
6 6 12 6.58 0.56
7 6 12 27.06 1.04
-7 7 12 4.85 0.95
-6 7 12 6.29 0.74
-5 7 12 19.51 0.61
-4 7 12 115.05 1.96
-3 7 12 159.39 2.19
-2 7 12 57.11 0.86
-1 7 12 56.96 0.96
0 7 12 131.08 1.66
1 7 12 58.49 1.02
2 7 12 60.07 1.4
3 7 12 171.45 2.68
4 7 12 103.99 2.18
5 7 12 18.37 0.75
6 7 12 5.71 0.59
7 7 12 4.92 0.43
-7 8 12 6.97 0.67
-6 8 12 2.53 0.85
-5 8 12 6.07 0.49
-4 8 12 220.34 3.7
-3 8 12 42.9 0.87
-2 8 12 113.73 1.6
-1 8 12 29.17 0.61
0 8 12 714.79 9.27
1 8 12 28.79 0.67
2 8 12 107.18 1.81
3 8 12 39.82 0.95
4 8 12 230.3 4.26
5 8 12 5.2 0.46
6 8 12 2.15 0.52
7 8 12 6.17 0.5
-7 9 12 24.93 0.94
-6 9 12 29.75 1.12
-5 9 12 23.95 0.76
-4 9 12 23.8 0.91
-3 9 12 70.85 1.23
-2 9 12 68.89 1.26
-1 9 12 21.02 0.54
0 9 12 64.44 1.04
1 9 12 20.81 0.59
2 9 12 71.83 1.17
3 9 12 63.18 1.32
4 9 12 21.6 0.87
5 9 12 22.82 1.12
6 9 12 28.45 1.09
7 9 12 24.75 0.9
-7 10 12 3.07 0.78
-6 10 12 3.37 0.96
-5 10 12 94.42 3.26
-4 10 12 134.48 3.66
-3 10 12 31.43 1.36
-2 10 12 93.52 1.96
-1 10 12 90.1 1.58
0 10 12 333.5 4.04
1 10 12 98.22 1.33
2 10 12 89.27 1.4
3 10 12 29.45 1.07
4 10 12 120.95 3.99
5 10 12 87.68 3.31
6 10 12 3.26 0.58
7 10 12 3.15 0.49
-6 11 12 6.06 0.96
-5 11 12 26.88 1.54
-4 11 12 20.67 0.76
-3 11 12 1.29 0.37
-2 11 12 104.88 2.08
-1 11 12 11.48 0.47
0 11 12 7.47 0.37
1 11 12 11.08 0.44
2 11 12 107.79 1.64
3 11 12 0.73 0.37
4 11 12 17.43 0.67
5 11 12 23.29 1.01
6 11 12 5.69 0.61
7 11 12 6.51 0.52
-6 12 12 2.44 0.89
-5 12 12 32.99 1.66
-4 12 12 13.9 0.66
-3 12 12 57.87 1.63
-2 12 12 21.81 0.72
-1 12 12 105.16 1.6
0 12 12 5.24 0.37
1 12 12 103.64 1.48
2 12 12 20.56 0.63
3 12 12 54.55 1.64
4 12 12 12.09 0.53
5 12 12 29.89 1.24
6 12 12 1.77 0.49
-6 13 12 10.66 1.02
-5 13 12 2.06 0.93
-4 13 12 17.48 1.25
-3 13 12 8.32 0.48
-2 13 12 24.45 0.86
-1 13 12 0.39 0.35
0 13 12 80.33 1.25
1 13 12 0.17 0.31
2 13 12 24.59 0.69
3 13 12 8.67 0.49
4 13 12 14.88 0.75
5 13 12 1.35 0.52
6 13 12 7.91 0.58
-6 14 12 4.83 0.79
-5 14 12 17.16 1.21
-4 14 12 1.89 0.53
-3 14 12 90.45 2.02
-2 14 12 13.96 0.76
-1 14 12 160.19 3.44
0 14 12 2.69 0.35
1 14 12 156.4 2.28
2 14 12 14.39 0.53
3 14 12 76.51 1.62
4 14 12 1.4 0.46
5 14 12 13.62 0.74
6 14 12 3.8 0.46
-5 15 12 1.89 0.81
-4 15 12 8.42 1.7
-3 15 12 18.3 1.72
-2 15 12 8.16 0.43
-1 15 12 16.6 0.65
0 15 12 43.88 0.86
1 15 12 16.25 0.55
2 15 12 8.45 0.46
3 15 12 19.4 0.77
4 15 12 7.89 0.65
5 15 12 1.67 0.5
-5 16 12 -0.02 0.73
-4 16 12 16.91 3.11
-3 16 12 11.73 1.25
-2 16 12 59.1 2.63
-1 16 12 6.51 0.6
0 16 12 7.78 0.42
1 16 12 5.45 0.5
2 16 12 56.22 1.32
3 16 12 11.42 0.76
4 16 12 15.26 0.93
5 16 12 0.49 0.42
-4 17 12 4.46 0.65
-3 17 12 5.05 0.58
-2 17 12 17.71 1.19
-1 17 12 9.97 0.6
0 17 12 -0.01 0.91
1 17 12 10.46 0.67
2 17 12 16.82 0.73
3 17 12 4.32 0.6
4 17 12 4.26 0.44
-4 18 12 10.8 2.62
-3 18 12 4.49 1.07
-2 18 12 22.04 1.46
-1 18 12 17.04 1.27
0 18 12 14.01 0.72
1 18 12 16.99 0.72
2 18 12 22.87 0.78
3 18 12 5.05 0.59
4 18 12 9.02 0.74
-3 19 12 11.22 1.67
-2 19 12 9.66 0.79
-1 19 12 5.36 0.64
0 19 12 0.41 0.41
1 19 12 5.91 0.52
2 19 12 9.1 0.65
3 19 12 11.21 0.66
-2 20 12 8.53 1.14
-1 20 12 15.45 1.44
0 20 12 6.67 0.45
1 20 12 16.25 0.95
2 20 12 8.88 0.83
1 0 13 480.95 4.93
2 0 13 126.86 1.85
3 0 13 1.35 0.25
4 0 13 11.64 0.43
5 0 13 69.72 1.55
6 0 13 46.96 1.32
7 0 13 1.94 0.44
8 0 13 0.53 0.42
-8 1 13 5.42 0.5
-7 1 13 6.83 0.58
-6 1 13 3.51 0.35
-5 1 13 50.97 1.1
-4 1 13 36.64 0.73
-3 1 13 159.22 3.05
-2 1 13 110.89 1.47
-1 1 13 389.5 4.26
0 1 13 11.04 0.31
1 1 13 410.62 4.41
2 1 13 109.41 1.35
3 1 13 161.62 2.08
4 1 13 36.07 0.81
5 1 13 56.95 1.21
6 1 13 2.91 0.35
7 1 13 6.73 0.54
8 1 13 5.73 0.49
-8 2 13 0.87 0.4
-7 2 13 0.2 0.46
-6 2 13 45.2 0.9
-5 2 13 115.88 1.86
-4 2 13 0.65 0.3
-3 2 13 75 1.25
-2 2 13 19.75 0.53
-1 2 13 646.19 7.1
0 2 13 37.72 0.63
1 2 13 667.82 7.27
2 2 13 21.35 0.46
3 2 13 78.27 1.2
4 2 13 0.36 0.27
5 2 13 124.93 1.89
6 2 13 44.5 1.25
7 2 13 0.44 0.36
8 2 13 0.71 0.37
-8 3 13 2.5 0.51
-7 3 13 9.72 0.6
-6 3 13 5.43 0.39
-5 3 13 11.01 0.41
-4 3 13 90.33 1.63
-3 3 13 197.8 3.33
-2 3 13 170.36 2.14
-1 3 13 324.84 3.19
0 3 13 385.65 4.09
1 3 13 330.57 3.4
2 3 13 168.38 1.89
3 3 13 201.16 2.61
4 3 13 79.96 1.81
5 3 13 11.24 0.51
6 3 13 4.56 0.45
7 3 13 7.71 0.71
8 3 13 3.71 0.41
-8 4 13 -0.11 0.72
-7 4 13 0.5 0.89
-6 4 13 15.35 0.67
-5 4 13 14.44 0.54
-4 4 13 67.46 1.18
-3 4 13 51.95 0.86
-2 4 13 16.65 0.4
-1 4 13 96.37 1.05
0 4 13 729.28 8.39
1 4 13 97.69 1.09
2 4 13 15.36 0.41
3 4 13 52.78 0.94
4 4 13 67.62 1.2
5 4 13 13.11 0.62
6 4 13 16.01 0.8
7 4 13 0.22 0.38
8 4 13 -0.21 0.59
-7 5 13 18.92 1.31
-6 5 13 35.66 1.02
-5 5 13 18.9 0.76
-4 5 13 102.55 2.3
-3 5 13 7.53 0.39
-2 5 13 200.94 2.91
-1 5 13 69.39 0.99
0 5 13 82.32 0.96
1 5 13 75.28 0.98
2 5 13 211.65 2.48
3 5 13 8.49 0.4
4 5 13 95.82 1.52
5 5 13 20.17 0.77
6 5 13 35.33 1.24
7 5 13 16.66 1
-7 6 13 4.33 0.94
-6 6 13 0.89 0.62
-5 6 13 10.47 0.68
-4 6 13 250.79 3.86
-3 6 13 16.91 0.53
-2 6 13 70 0.98
-1 6 13 50.65 0.76
0 6 13 1001.12 12.21
1 6 13 48.67 0.86
2 6 13 71.04 1
3 6 13 19.58 0.52
4 6 13 256.96 3.81
5 6 13 9.33 0.46
6 6 13 0.83 0.64
7 6 13 5.04 0.45
-7 7 13 34.8 1.63
-6 7 13 26.44 1.46
-5 7 13 50.51 1.23
-4 7 13 112.59 2.11
-3 7 13 100.99 1.47
-2 7 13 27.33 0.57
-1 7 13 206.05 2.52
0 7 13 96.27 1.43
1 7 13 219.22 3.07
2 7 13 28.43 0.63
3 7 13 110.59 2.28
4 7 13 112.31 2.5
5 7 13 48.09 1.19
6 7 13 25.51 1.84
7 7 13 36.23 1.48
-7 8 13 20.98 1.28
-6 8 13 31.03 1.52
-5 8 13 31.98 0.81
-4 8 13 63.04 1.14
-3 8 13 155.39 2.86
-2 8 13 52.32 0.93
-1 8 13 165.54 2.12
0 8 13 2.11 0.3
1 8 13 163.79 2.39
2 8 13 54.17 1.35
3 8 13 145.35 2.9
4 8 13 63.6 1.47
5 8 13 30.28 1.13
6 8 13 31.51 1.14
7 8 13 20.62 0.83
-7 9 13 16.4 1.12
-6 9 13 23.46 1.01
-5 9 13 125.92 2.07
-4 9 13 3.99 0.5
-3 9 13 93.97 1.84
-2 9 13 20.58 0.55
-1 9 13 138.39 1.84
0 9 13 4.29 0.35
1 9 13 137.21 2.22
2 9 13 20.72 0.54
3 9 13 87.61 2.17
4 9 13 3.94 0.47
5 9 13 117.18 2.36
6 9 13 20.84 0.94
7 9 13 16.84 0.75
-7 10 13 9.41 0.89
-6 10 13 23.84 1.39
-5 10 13 9.86 0.7
-4 10 13 9.46 0.59
-3 10 13 81.58 2.08
-2 10 13 117.06 2.38
-1 10 13 63.03 1.32
0 10 13 28.01 0.62
1 10 13 56.47 0.87
2 10 13 114.72 1.98
3 10 13 72.46 1.74
4 10 13 9.12 0.55
5 10 13 9.37 0.78
6 10 13 20.78 1.01
7 10 13 8.31 0.57
-6 11 13 47.03 1.85
-5 11 13 50.08 1.49
-4 11 13 59.09 1.88
-3 11 13 3.18 0.39
-2 11 13 94.33 1.69
-1 11 13 7.96 0.4
0 11 13 151.45 1.98
1 11 13 6.43 0.38
2 11 13 102.53 1.49
3 11 13 2.66 0.4
4 11 13 50.48 1.83
5 11 13 43.34 1.46
6 11 13 41.28 1.92
-6 12 13 15.74 1.17
-5 12 13 10.19 1.17
-4 12 13 16.2 0.69
-3 12 13 16.74 1.04
-2 12 13 355.18 5.64
-1 12 13 55.08 1.02
0 12 13 10.37 0.42
1 12 13 55.74 0.94
2 12 13 357.23 5.85
3 12 13 15.47 0.57
4 12 13 13.19 0.54
5 12 13 8.47 0.7
6 12 13 12.54 0.69
-6 13 13 5.51 0.85
-5 13 13 12.72 1.16
-4 13 13 30.97 1.17
-3 13 13 9.79 0.63
-2 13 13 112.9 2.13
-1 13 13 71.78 1.76
0 13 13 109.45 1.57
1 13 13 72.26 1.13
2 13 13 119 2.02
3 13 13 8.58 0.48
4 13 13 24.41 0.96
5 13 13 9.03 0.68
6 13 13 4.28 0.5
-6 14 13 2.76 0.73
-5 14 13 3.88 0.89
-4 14 13 1.79 0.66
-3 14 13 56.22 1.56
-2 14 13 61.46 1.13
-1 14 13 74.84 1.57
0 14 13 42.46 0.87
1 14 13 74.07 1.19
2 14 13 64.1 1.18
3 14 13 50.98 2.49
4 14 13 1.53 0.45
5 14 13 3.1 0.53
6 14 13 2.69 0.58
-5 15 13 11.7 1.05
-4 15 13 11.88 1.41
-3 15 13 43 2.52
-2 15 13 0.48 0.33
-1 15 13 49.44 1.11
0 15 13 41.6 0.8
1 15 13 50.58 0.94
2 15 13 0.59 0.34
3 15 13 35.31 1.2
4 15 13 10.58 0.72
5 15 13 8.77 0.61
-5 16 13 -0.33 0.71
-4 16 13 22.32 4.1
-3 16 13 46.7 15.57
-2 16 13 15.42 1.05
-1 16 13 27.19 1.45
0 16 13 0.44 0.48
1 16 13 25.56 0.91
2 16 13 15.81 0.72
3 16 13 43.96 2.04
4 16 13 21.31 1.24
5 16 13 0.11 0.41
-4 17 13 6.98 1.73
-3 17 13 20.57 2.01
-2 17 13 5.25 0.73
-1 17 13 37.46 1.24
0 17 13 24.25 0.89
1 17 13 38.19 1.06
2 17 13 5.04 0.54
3 17 13 17.78 0.85
4 17 13 6.72 0.46
-3 18 13 14.46 1.34
-2 18 13 1.07 0.43
-1 18 13 11.81 0.85
0 18 13 10.01 0.7
1 18 13 13.01 0.66
2 18 13 1 0.44
3 18 13 13.72 0.74
-3 19 13 6.67 1.11
-2 19 13 11.54 0.81
-1 19 13 8.82 0.57
0 19 13 -0.08 0.78
1 19 13 9.1 0.56
2 19 13 10.04 0.66
3 19 13 6.4 0.57
-2 20 13 3.53 0.8
-1 20 13 3.79 0.46
0 20 13 4.43 0.41
1 20 13 4.17 0.4
2 20 13 4.06 0.83
0 0 14 78.71 1.52
1 0 14 65.3 0.84
2 0 14 99.25 1.36
3 0 14 28.2 0.68
4 0 14 0.36 0.28
5 0 14 304.62 4.56
6 0 14 62.36 1.65
7 0 14 0.11 0.4
8 0 14 1.88 0.42
-8 1 14 5.9 0.66
-7 1 14 2.27 0.5
-6 1 14 15.97 0.61
-5 1 14 166.13 2.87
-4 1 14 232.02 3.21
-3 1 14 14.05 0.45
-2 1 14 313.02 4.32
-1 1 14 253.35 3.4
0 1 14 795.92 8.95
1 1 14 258.22 2.73
2 1 14 317.24 3.48
3 1 14 13.73 0.39
4 1 14 228.19 3.73
5 1 14 170.2 2.41
6 1 14 14.55 0.56
7 1 14 2.06 0.38
8 1 14 5.02 0.41
-8 2 14 -0.05 0.65
-7 2 14 0.63 0.45
-6 2 14 14.62 0.68
-5 2 14 55.03 0.99
-4 2 14 12.8 0.52
-3 2 14 82.53 1.66
-2 2 14 19.92 0.49
-1 2 14 291.29 3.1
0 2 14 115.63 1.36
1 2 14 303.31 3.32
2 2 14 18.23 0.44
3 2 14 82.72 1.58
4 2 14 12.75 0.41
5 2 14 59.03 1.16
6 2 14 13.16 0.65
7 2 14 0.58 0.36
8 2 14 -0.27 0.6
-8 3 14 6.45 1.11
-7 3 14 18.21 0.72
-6 3 14 12.68 0.71
-5 3 14 109.72 1.64
-4 3 14 38.25 0.95
-3 3 14 108.89 1.8
-2 3 14 68.01 1.04
-1 3 14 287.56 3.38
0 3 14 2.34 0.28
1 3 14 308.96 3.24
2 3 14 69.92 0.95
3 3 14 103.43 1.81
4 3 14 38.01 0.69
5 3 14 123.29 1.93
6 3 14 12.96 0.65
7 3 14 15.77 1.1
8 3 14 6.93 0.81
-7 4 14 2.24 0.56
-6 4 14 15.52 0.58
-5 4 14 21.68 0.68
-4 4 14 75.22 2.45
-3 4 14 9.07 0.43
-2 4 14 21.7 0.52
-1 4 14 133.34 1.42
0 4 14 414.51 4.19
1 4 14 140.4 1.7
2 4 14 21.01 0.49
3 4 14 8.58 0.41
4 4 14 77.14 1.39
5 4 14 21.99 0.64
6 4 14 16.22 0.81
7 4 14 1.58 0.39
-7 5 14 2.05 0.87
-6 5 14 10.48 0.79
-5 5 14 61.21 2.27
-4 5 14 46.78 2
-3 5 14 390.39 5.11
-2 5 14 7.04 0.33
-1 5 14 772.92 8.78
0 5 14 669.09 7.37
1 5 14 803.1 9.39
2 5 14 8.36 0.35
3 5 14 396.38 6.38
4 5 14 49.84 0.89
5 5 14 56.91 1.27
6 5 14 9.8 0.68
7 5 14 1.05 0.38
-7 6 14 1.83 0.85
-6 6 14 1.9 0.64
-5 6 14 22.98 0.87
-4 6 14 218.64 5.78
-3 6 14 4.21 0.39
-2 6 14 2.67 0.29
-1 6 14 18.87 0.42
0 6 14 977.96 12.25
1 6 14 19.94 0.49
2 6 14 2.6 0.28
3 6 14 3.76 0.31
4 6 14 211.32 2.92
5 6 14 23.16 0.7
6 6 14 1.54 0.53
7 6 14 2.48 0.45
-7 7 14 0.9 0.8
-6 7 14 88.63 2.59
-5 7 14 5 0.6
-4 7 14 10.43 0.52
-3 7 14 161.84 2.61
-2 7 14 316.14 4.42
-1 7 14 65.66 1.11
0 7 14 50.28 0.81
1 7 14 70.51 1.69
2 7 14 309.11 4.14
3 7 14 168.42 3.59
4 7 14 9.06 0.47
5 7 14 5.09 0.41
6 7 14 83.86 2.61
7 7 14 1.29 0.42
-7 8 14 1.94 0.81
-6 8 14 12.5 0.84
-5 8 14 41.79 1.01
-4 8 14 13.2 0.73
-3 8 14 40.5 0.94
-2 8 14 14.23 0.49
-1 8 14 22.64 0.54
0 8 14 68.83 1.09
1 8 14 22.48 0.61
2 8 14 14.29 0.45
3 8 14 37.66 1.15
4 8 14 12.37 0.56
5 8 14 42.21 1.21
6 8 14 11.65 0.67
7 8 14 2.48 0.42
-7 9 14 0.69 0.75
-6 9 14 15.63 0.87
-5 9 14 20.17 0.67
-4 9 14 139.62 5.31
-3 9 14 16.24 0.61
-2 9 14 189.33 2.61
-1 9 14 74.13 1.17
0 9 14 337.79 4.21
1 9 14 73.73 1.2
2 9 14 187.7 2.32
3 9 14 17.33 0.59
4 9 14 128.04 3.04
5 9 14 17.33 0.71
6 9 14 14.42 1.13
7 9 14 1.28 0.45
-6 10 14 33.19 1.56
-5 10 14 20.14 0.99
-4 10 14 14.97 0.78
-3 10 14 12.3 0.61
-2 10 14 82.37 1.86
-1 10 14 18.99 0.5
0 10 14 2.99 0.31
1 10 14 16.97 0.49
2 10 14 82.34 1.26
3 10 14 9.92 0.55
4 10 14 14.41 0.96
5 10 14 18.15 0.93
6 10 14 29.59 1.05
7 10 14 4.57 0.48
-6 11 14 1.09 0.85
-5 11 14 60.74 1.67
-4 11 14 29.07 0.88
-3 11 14 85.33 1.76
-2 11 14 121.92 2.05
-1 11 14 250.12 4.7
0 11 14 26.42 0.59
1 11 14 243.8 3.08
2 11 14 121.26 1.72
3 11 14 76.82 1.87
4 11 14 23.81 1.09
5 11 14 48.67 2.92
6 11 14 1.16 0.48
-6 12 14 3.51 0.83
-5 12 14 11.73 0.82
-4 12 14 4.79 0.53
-3 12 14 4.37 0.41
-2 12 14 17.77 0.61
-1 12 14 36.17 0.79
0 12 14 2.09 0.33
1 12 14 35.6 0.77
2 12 14 17 0.64
3 12 14 4.46 0.42
4 12 14 4.29 0.46
5 12 14 9.13 0.79
6 12 14 4.01 0.51
-6 13 14 6.11 0.81
-5 13 14 32.27 1.58
-4 13 14 2.14 0.67
-3 13 14 29.18 1.27
-2 13 14 2.11 0.33
-1 13 14 39.03 0.94
0 13 14 3.85 0.38
1 13 14 40.02 0.79
2 13 14 2.09 0.38
3 13 14 26.67 1.01
4 13 14 1.89 0.46
5 13 14 24.64 0.96
6 13 14 3.92 0.47
-5 14 14 8.65 0.99
-4 14 14 23.76 1.52
-3 14 14 21.47 1.75
-2 14 14 9.22 0.44
-1 14 14 29.45 0.75
0 14 14 92.69 1.41
1 14 14 31.92 0.71
2 14 14 8.55 0.45
3 14 14 18.4 0.92
4 14 14 18.05 1.28
5 14 14 7.26 0.61
-5 15 14 8.38 0.95
-4 15 14 48.85 3.64
-3 15 14 29.99 1.69
-2 15 14 33.57 1.33
-1 15 14 13.44 0.61
0 15 14 150.58 2.36
1 15 14 13.21 0.5
2 15 14 34.52 1.14
3 15 14 24.12 1.01
4 15 14 38.56 1.6
5 15 14 6.2 0.55
-5 16 14 6.95 0.83
-4 16 14 0.55 0.5
-3 16 14 31.07 1.45
-2 16 14 12.62 0.97
-1 16 14 2.9 0.51
0 16 14 16.07 0.84
1 16 14 3.56 0.56
2 16 14 12.38 0.67
3 16 14 28.17 1.05
4 16 14 0.88 0.39
5 16 14 5.82 0.71
-4 17 14 4.08 0.83
-3 17 14 4.49 0.56
-2 17 14 20.39 1.33
-1 17 14 9.39 0.69
0 17 14 13.73 0.72
1 17 14 9.04 0.62
2 17 14 19.92 0.76
3 17 14 4.17 0.6
4 17 14 4.85 0.72
-3 18 14 4 0.52
-2 18 14 3.21 0.45
-1 18 14 8.67 0.68
0 18 14 0.08 0.41
1 18 14 8.85 0.58
2 18 14 3.07 0.46
3 18 14 4.5 0.58
-2 19 14 6.45 0.46
-1 19 14 9.59 0.58
0 19 14 1.62 0.4
1 19 14 10.81 0.58
2 19 14 5.8 0.59
-1 20 14 8.51 0.75
0 20 14 0.71 0.35
1 20 14 8.97 0.78
1 0 15 92.91 1.24
2 0 15 0.8 0.28
3 0 15 38.72 0.97
4 0 15 8.45 0.39
5 0 15 9.53 0.43
6 0 15 7.21 0.41
7 0 15 9.75 0.71
8 0 15 1.82 0.72
-7 1 15 19.19 0.76
-6 1 15 54.25 1.38
-5 1 15 153.08 2.84
-4 1 15 20.19 0.55
-3 1 15 107.77 1.66
-2 1 15 222.61 3.12
-1 1 15 476.88 5.39
0 1 15 111.69 1.89
1 1 15 473.58 5.54
2 1 15 215.18 4.03
3 1 15 113 1.63
4 1 15 20.62 0.49
5 1 15 159.39 2.95
6 1 15 53.37 1.54
7 1 15 18.34 1.02
-7 2 15 15.45 0.89
-6 2 15 85.43 2.23
-5 2 15 128.39 1.87
-4 2 15 35.03 1.07
-3 2 15 4.09 0.33
-2 2 15 128.61 1.7
-1 2 15 134.39 1.81
0 2 15 1.99 0.34
1 2 15 131.71 1.68
2 2 15 128.42 1.89
3 2 15 3.12 0.31
4 2 15 34.4 0.87
5 2 15 132.95 2.2
6 2 15 80.36 1.96
7 2 15 14.39 0.96
-7 3 15 6.86 0.65
-6 3 15 32.09 0.87
-5 3 15 18.76 0.56
-4 3 15 351.61 5.75
-3 3 15 68.72 1.28
-2 3 15 288.38 3.66
-1 3 15 90.04 1.22
0 3 15 2221.2 34.53
1 3 15 97.44 1.15
2 3 15 277.86 3.07
3 3 15 67.32 1.2
4 3 15 351.88 5.91
5 3 15 18.61 0.55
6 3 15 31.78 1.56
7 3 15 6.64 0.46
-7 4 15 17.2 0.83
-6 4 15 10.11 0.65
-5 4 15 13 0.57
-4 4 15 20.93 1.05
-3 4 15 85.93 1.39
-2 4 15 55.96 0.92
-1 4 15 54.49 0.87
0 4 15 83.14 1
1 4 15 53.81 0.99
2 4 15 55.79 0.83
3 4 15 80.46 1.41
4 4 15 21.91 0.58
5 4 15 12.62 0.5
6 4 15 9.62 0.67
7 4 15 15.79 0.88
-7 5 15 2.09 0.54
-6 5 15 51.2 1.47
-5 5 15 53.57 1.53
-4 5 15 9.54 0.5
-3 5 15 11.05 0.46
-2 5 15 226.51 3.21
-1 5 15 218.21 2.36
0 5 15 18.59 0.42
1 5 15 213.64 2.45
2 5 15 229.35 2.69
3 5 15 11.68 0.41
4 5 15 8.15 0.43
5 5 15 48.96 0.98
6 5 15 50.59 2.33
7 5 15 2.05 0.45
-7 6 15 2.22 0.84
-6 6 15 0.94 0.59
-5 6 15 5.06 0.6
-4 6 15 6.97 0.61
-3 6 15 85.68 1.38
-2 6 15 6.41 0.35
-1 6 15 85.05 1.12
0 6 15 129.24 1.56
1 6 15 85.98 1.57
2 6 15 6.48 0.33
3 6 15 84.36 1.66
4 6 15 5.97 0.4
5 6 15 5.34 0.42
6 6 15 0.71 0.51
7 6 15 3.08 0.46
-7 7 15 1.8 0.8
-6 7 15 10.28 0.8
-5 7 15 86.35 2.6
-4 7 15 44.83 1.76
-3 7 15 92.75 1.38
-2 7 15 105.28 1.48
-1 7 15 480.67 5.78
0 7 15 0.66 0.29
1 7 15 484.42 6.63
2 7 15 107.06 1.89
3 7 15 96.97 1.87
4 7 15 39.01 1.06
5 7 15 78.96 1.47
6 7 15 8.39 0.62
7 7 15 2.57 0.49
-7 8 15 0.03 0.76
-6 8 15 29.28 1.11
-5 8 15 13.13 0.79
-4 8 15 85.79 1.91
-3 8 15 13.07 0.46
-2 8 15 24.4 0.56
-1 8 15 14.47 0.46
0 8 15 0.1 0.28
1 8 15 13.88 0.59
2 8 15 24.95 0.65
3 8 15 13.86 0.57
4 8 15 80.83 1.85
5 8 15 11.09 0.61
6 8 15 29.05 2.45
7 8 15 0.24 0.37
-7 9 15 1.8 0.79
-6 9 15 29.02 1.08
-5 9 15 3.21 0.58
-4 9 15 6.71 0.58
-3 9 15 110.98 2.33
-2 9 15 42.8 0.86
-1 9 15 81.35 1.37
0 9 15 50.76 0.87
1 9 15 83.72 1.16
2 9 15 42.7 0.88
3 9 15 103.44 2.27
4 9 15 6.31 0.52
5 9 15 3.59 0.66
6 9 15 27.57 2.11
7 9 15 2.78 0.64
-6 10 15 16.34 1.18
-5 10 15 18.04 0.95
-4 10 15 22.92 0.85
-3 10 15 18.44 0.96
-2 10 15 2.63 0.33
-1 10 15 118.61 2.13
0 10 15 14.09 0.43
1 10 15 118.39 1.58
2 10 15 1.55 0.35
3 10 15 16.25 0.59
4 10 15 18.76 1.15
5 10 15 16.87 1.2
6 10 15 13.98 0.87
-6 11 15 9.48 1.04
-5 11 15 8.28 0.8
-4 11 15 25.78 0.92
-3 11 15 75.97 1.49
-2 11 15 11.31 0.44
-1 11 15 56.69 1.17
0 11 15 31.43 0.64
1 11 15 51.51 0.89
2 11 15 12.78 0.51
3 11 15 70.98 1.87
4 11 15 21.47 1.05
5 11 15 6.91 0.68
6 11 15 8.49 0.62
-6 12 15 0.7 0.71
-5 12 15 23.82 1.09
-4 12 15 4.84 0.74
-3 12 15 4.73 0.47
-2 12 15 0.13 0.3
-1 12 15 61.39 1.05
0 12 15 0.1 0.31
1 12 15 61.26 1.17
2 12 15 -0.21 0.78
3 12 15 3.39 0.52
4 12 15 3.89 0.62
5 12 15 20.54 1.81
6 12 15 0.37 0.42
-6 13 15 0.66 0.68
-5 13 15 4.94 0.76
-4 13 15 34.62 2.02
-3 13 15 15.99 0.83
-2 13 15 119.29 2.73
-1 13 15 104.26 1.85
0 13 15 70.28 1.15
1 13 15 105.14 1.76
2 13 15 118.38 2.03
3 13 15 13.14 0.68
4 13 15 30.42 1.63
5 13 15 4.52 0.57
6 13 15 1.39 0.41
-5 14 15 0.68 0.8
-4 14 15 14.34 1.08
-3 14 15 22.68 1.31
-2 14 15 0.41 0.32
-1 14 15 11.15 0.61
0 14 15 5.4 0.38
1 14 15 10.76 0.48
2 14 15 0.52 0.33
3 14 15 18.92 0.93
4 14 15 13.5 0.91
5 14 15 1.24 0.48
-5 15 15 0.67 0.74
-4 15 15 50.83 1.97
-3 15 15 14.32 1.67
-2 15 15 9.63 0.77
-1 15 15 16.35 0.63
0 15 15 40.84 0.93
1 15 15 17.87 0.55
2 15 15 9.64 0.63
3 15 15 11.9 0.79
4 15 15 48.47 2.24
5 15 15 0.42 0.43
-4 16 15 10.27 1.92
-3 16 15 10 1.2
-2 16 15 10.36 0.89
-1 16 15 4.94 0.53
0 16 15 19.35 1.16
1 16 15 3.81 0.55
2 16 15 10.15 0.63
3 16 15 11.06 0.78
4 16 15 10.33 0.91
-4 17 15 13.14 2.05
-3 17 15 51.53 14.93
-2 17 15 1.42 0.46
-1 17 15 39.7 0.98
0 17 15 0.88 0.45
1 17 15 39.43 1.06
2 17 15 1.33 0.46
3 17 15 50.32 1.86
4 17 15 11.87 0.89
-3 18 15 3.22 0.5
-2 18 15 7.2 0.5
-1 18 15 2.5 0.45
0 18 15 3.61 0.46
1 18 15 2.16 0.47
2 18 15 6.97 0.71
3 18 15 2.5 0.55
-2 19 15 60.11 1.55
-1 19 15 7.41 0.67
0 19 15 0.49 0.39
1 19 15 8.73 0.54
2 19 15 60.88 1.77
-1 20 15 4.15 0.59
0 20 15 7.03 0.44
1 20 15 4.38 0.58
0 0 16 441.7 8.87
1 0 16 4.95 0.3
2 0 16 203.3 3.14
3 0 16 34.08 0.81
4 0 16 179.32 3.04
5 0 16 1.24 0.34
6 0 16 26.76 0.96
7 0 16 6.74 0.54
-7 1 16 15.97 0.7
-6 1 16 26.44 0.82
-5 1 16 40.75 0.97
-4 1 16 22.36 0.78
-3 1 16 7 0.38
-2 1 16 92.25 1.72
-1 1 16 68.26 1.28
0 1 16 482.86 5.57
1 1 16 69.36 1.08
2 1 16 95.45 2.06
3 1 16 6.61 0.36
4 1 16 22.09 0.68
5 1 16 44.23 1.12
6 1 16 25.03 1.12
7 1 16 15.05 0.8
-7 2 16 2.19 0.47
-6 2 16 2.29 0.54
-5 2 16 63.04 1.59
-4 2 16 144.57 2.23
-3 2 16 160.54 2.99
-2 2 16 49.19 0.83
-1 2 16 361.34 4.17
0 2 16 472.44 5.74
1 2 16 355.14 5.09
2 2 16 49.79 1
3 2 16 167.61 2.96
4 2 16 147.26 1.91
5 2 16 61.28 1.12
6 2 16 2.48 0.42
7 2 16 2.29 0.36
-7 3 16 5.14 0.51
-6 3 16 20.31 0.81
-5 3 16 2.25 0.35
-4 3 16 99.15 2.07
-3 3 16 5.99 0.33
-2 3 16 58.47 0.98
-1 3 16 16.67 0.44
0 3 16 841.24 10.78
1 3 16 17.24 0.48
2 3 16 61.89 0.93
3 3 16 4.53 0.33
4 3 16 98.03 1.39
5 3 16 1.74 0.35
6 3 16 20.61 0.94
7 3 16 4.65 0.43
-7 4 16 10.85 0.71
-6 4 16 31.64 0.96
-5 4 16 49.77 1.66
-4 4 16 56.74 1.41
-3 4 16 145.59 2.15
-2 4 16 24.09 0.6
-1 4 16 343.94 4.09
0 4 16 412.49 4.56
1 4 16 352.79 4.6
2 4 16 23.48 0.53
3 4 16 137.46 2.39
4 4 16 60.54 1
5 4 16 50.9 1.35
6 4 16 31.56 2.31
7 4 16 11.12 0.92
-7 5 16 4.78 0.59
-6 5 16 2 0.59
-5 5 16 74.84 2.84
-4 5 16 5.63 0.47
-3 5 16 69.84 1.08
-2 5 16 2.1 0.42
-1 5 16 497.49 6.19
0 5 16 57.63 0.8
1 5 16 507.59 6.08
2 5 16 1.73 0.28
3 5 16 70.48 1.16
4 5 16 5.2 0.39
5 5 16 75.82 1.23
6 5 16 2.17 0.54
7 5 16 4.97 0.49
-7 6 16 8.52 0.66
-6 6 16 12.79 0.82
-5 6 16 136.5 3.78
-4 6 16 38.92 1.2
-3 6 16 33.58 0.78
-2 6 16 108.86 2.25
-1 6 16 18.55 0.44
0 6 16 34.88 0.64
1 6 16 18.97 0.52
2 6 16 109.23 2.24
3 6 16 31.85 0.66
4 6 16 35.34 0.74
5 6 16 124.55 2.24
6 6 16 13.07 0.71
7 6 16 8.65 0.76
-7 7 16 2.05 0.81
-6 7 16 22.89 1.03
-5 7 16 93.7 2.08
-4 7 16 6.19 0.59
-3 7 16 1.87 0.41
-2 7 16 125.02 1.85
-1 7 16 190.53 2.57
0 7 16 4.76 0.34
1 7 16 204.63 3.72
2 7 16 119.01 2.3
3 7 16 2.03 0.34
4 7 16 4.52 0.4
5 7 16 85.31 1.41
6 7 16 22.07 0.98
7 7 16 2.52 0.42
-7 8 16 0.19 0.76
-6 8 16 23.54 1.09
-5 8 16 41.98 1.18
-4 8 16 48.73 1.63
-3 8 16 5.2 0.39
-2 8 16 175.2 2.82
-1 8 16 30.01 0.59
0 8 16 110.43 2.16
1 8 16 29.24 0.64
2 8 16 181.83 2.41
3 8 16 4.3 0.42
4 8 16 43.99 1.49
5 8 16 37.52 1.09
6 8 16 24.56 1.75
7 8 16 1.29 0.45
-6 9 16 9.71 0.76
-5 9 16 40.91 1.35
-4 9 16 105.64 2.82
-3 9 16 11.8 0.55
-2 9 16 67.49 1.63
-1 9 16 14.78 0.44
0 9 16 206.17 2.84
1 9 16 13.19 0.46
2 9 16 65.48 1.38
3 9 16 10.85 0.57
4 9 16 102.43 2.24
5 9 16 38.56 3.17
6 9 16 9.22 0.69
7 9 16 0.57 0.41
-6 10 16 39.1 1.67
-5 10 16 41.63 1.89
-4 10 16 14.54 0.63
-3 10 16 38.82 1.27
-2 10 16 71.59 1.18
-1 10 16 60.63 1.01
0 10 16 -0.03 0.84
1 10 16 62.97 0.99
2 10 16 71.94 1.24
3 10 16 36.84 1.2
4 10 16 11.54 0.59
5 10 16 38.25 2.15
6 10 16 36.82 1.49
-5 11 16 7.73 0.75
-4 11 16 4.51 0.52
-3 11 16 127.6 2.46
-2 11 16 29.57 0.96
-1 11 16 139.68 2.28
0 11 16 29.5 0.62
1 11 16 142.98 1.98
2 11 16 27.5 0.67
3 11 16 114.59 2.15
4 11 16 4.54 0.45
5 11 16 7.44 0.8
6 11 16 7.64 0.6
-5 12 16 3.21 0.64
-4 12 16 4.86 0.59
-3 12 16 37.56 1.63
-2 12 16 0.53 0.3
-1 12 16 75.93 1.22
0 12 16 25.26 0.6
1 12 16 80.84 1.51
2 12 16 0.67 0.36
3 12 16 31.18 1.45
4 12 16 4.43 0.76
5 12 16 2.54 0.56
6 12 16 16.76 0.72
-5 13 16 8.34 0.71
-4 13 16 17.2 1.72
-3 13 16 39.02 1.36
-2 13 16 10.6 0.42
-1 13 16 27.07 0.75
0 13 16 6.9 0.41
1 13 16 26.21 0.64
2 13 16 11.23 0.53
3 13 16 33.25 1.18
4 13 16 17.26 1.58
5 13 16 6.15 0.59
6 13 16 1 0.57
-5 14 16 3.01 0.68
-4 14 16 1.7 0.52
-3 14 16 29.46 1.48
-2 14 16 15.49 0.59
-1 14 16 76.02 1.3
0 14 16 6.56 0.41
1 14 16 77.09 1.68
2 14 16 15.28 0.54
3 14 16 27.19 1.1
4 14 16 1.23 0.53
5 14 16 3.27 0.5
-5 15 16 8.83 0.89
-4 15 16 36.54 2.24
-3 15 16 20.14 1.7
-2 15 16 44.93 1.56
-1 15 16 31.8 1.23
0 15 16 79.97 1.81
1 15 16 31.85 1
2 15 16 47.45 1.42
3 15 16 19.03 0.9
4 15 16 31.3 1.44
5 15 16 7.65 0.81
-4 16 16 7.53 1.02
-3 16 16 7.84 1.12
-2 16 16 13.18 0.97
-1 16 16 5.14 0.6
0 16 16 18.77 0.72
1 16 16 5.23 0.58
2 16 16 11.84 0.66
3 16 16 7.33 0.76
4 16 16 6.94 0.81
-4 17 16 12.42 2.01
-3 17 16 1.48 0.49
-2 17 16 4.19 0.48
-1 17 16 8.46 0.62
0 17 16 0.84 0.44
1 17 16 8.28 0.6
2 17 16 4.41 0.51
3 17 16 1.43 0.52
4 17 16 11.49 0.85
-3 18 16 5.38 0.51
-2 18 16 6.71 0.48
-1 18 16 6.5 0.51
0 18 16 64.59 2.21
1 18 16 6.98 0.54
2 18 16 7.34 0.53
3 18 16 4.93 0.75
-2 19 16 11.53 0.82
-1 19 16 1.24 0.4
0 19 16 4.5 0.44
1 19 16 0.8 0.41
2 19 16 11.23 0.55
1 0 17 105.83 1.65
2 0 17 4.49 0.36
3 0 17 445.36 6.73
4 0 17 113.39 2.39
5 0 17 7.38 0.38
6 0 17 3.63 0.47
7 0 17 9.41 0.82
-7 1 17 2.93 0.49
-6 1 17 29.27 0.96
-5 1 17 8.21 0.45
-4 1 17 83.54 1.31
-3 1 17 0.84 0.28
-2 1 17 27.63 0.66
-1 1 17 11.98 0.39
0 1 17 138.18 1.83
1 1 17 11.2 0.37
2 1 17 27.64 0.64
3 1 17 1.31 0.35
4 1 17 83.6 1.79
5 1 17 8.69 0.44
6 1 17 30.59 1.25
7 1 17 2.72 0.37
-7 2 17 8.44 0.57
-6 2 17 40.15 1.82
-5 2 17 6.75 0.42
-4 2 17 47.47 0.9
-3 2 17 348.77 4.48
-2 2 17 164.42 2.33
-1 2 17 230.92 2.87
0 2 17 9.17 0.42
1 2 17 237.24 3.14
2 2 17 168.19 3.12
3 2 17 330.23 4.5
4 2 17 49.7 1.02
5 2 17 8.27 0.44
6 2 17 42 1.85
7 2 17 8.09 0.63
-7 3 17 9.97 0.58
-6 3 17 9.12 0.64
-5 3 17 8.38 0.47
-4 3 17 6.1 0.44
-3 3 17 8.51 0.36
-2 3 17 24.89 0.61
-1 3 17 55.2 0.93
0 3 17 42.95 0.75
1 3 17 57.4 1.21
2 3 17 25.61 0.62
3 3 17 9.15 0.39
4 3 17 6.48 0.38
5 3 17 9.33 0.45
6 3 17 9.33 0.65
7 3 17 9.49 0.78
-7 4 17 5.65 0.61
-6 4 17 6.32 0.58
-5 4 17 10.2 0.53
-4 4 17 74.73 2.01
-3 4 17 10.59 0.42
-2 4 17 439.35 6.3
-1 4 17 6.19 0.35
0 4 17 39.84 0.69
1 4 17 6.2 0.41
2 4 17 453.07 5.52
3 4 17 11.05 0.38
4 4 17 71.81 1.66
5 4 17 10.47 0.51
6 4 17 6.7 0.62
7 4 17 4.86 0.48
-7 5 17 2.78 0.55
-6 5 17 1.68 0.61
-5 5 17 22.16 0.96
-4 5 17 0.4 0.4
-3 5 17 27.09 0.62
-2 5 17 7.22 0.49
-1 5 17 55.2 1.01
0 5 17 8.73 0.38
1 5 17 55.48 0.98
2 5 17 7.52 0.39
3 5 17 26.56 0.75
4 5 17 0.53 0.34
5 5 17 22.08 0.74
6 5 17 2.51 0.53
7 5 17 2.69 0.44
-7 6 17 2.99 0.55
-6 6 17 34.6 1.19
-5 6 17 52.05 1.61
-4 6 17 120.73 3.89
-3 6 17 50.5 1
-2 6 17 386.05 5.13
-1 6 17 196.61 2.62
0 6 17 434.18 5.1
1 6 17 205.12 2.8
2 6 17 361.38 5.73
3 6 17 47.19 0.97
4 6 17 114.03 2.21
5 6 17 51.98 1.34
6 6 17 36.12 1.34
7 6 17 2.74 0.43
-7 7 17 3.55 0.85
-6 7 17 6.07 0.71
-5 7 17 70.44 1.68
-4 7 17 2.72 0.55
-3 7 17 10.45 0.52
-2 7 17 28.96 0.73
-1 7 17 42.11 0.78
0 7 17 36.48 0.7
1 7 17 42.77 0.76
2 7 17 27.83 0.85
3 7 17 9.73 0.42
4 7 17 1.78 0.39
5 7 17 65.13 1.26
6 7 17 6.55 0.58
7 7 17 3.96 0.44
-7 8 17 10.7 1
-6 8 17 5.86 0.71
-5 8 17 98.21 2.34
-4 8 17 1.85 0.49
-3 8 17 124.65 2.88
-2 8 17 14.85 0.51
-1 8 17 283.63 3.97
0 8 17 3.39 0.32
1 8 17 297.47 4.45
2 8 17 14.9 0.56
3 8 17 134.4 2.18
4 8 17 2.69 0.42
5 8 17 91.36 5.54
6 8 17 6.5 0.74
7 8 17 9.78 1.03
-6 9 17 6.59 0.71
-5 9 17 0.67 0.69
-4 9 17 20.13 1.15
-3 9 17 24.6 0.88
-2 9 17 5.23 0.37
-1 9 17 8.68 0.39
0 9 17 107.44 1.39
1 9 17 9.42 0.42
2 9 17 4.64 0.42
3 9 17 25.46 0.76
4 9 17 19.94 0.78
5 9 17 0.51 0.58
6 9 17 5.8 0.61
-6 10 17 5.3 0.88
-5 10 17 63.67 2.37
-4 10 17 32.38 1.35
-3 10 17 54.15 1.98
-2 10 17 52.67 1.24
-1 10 17 186.42 2.62
0 10 17 121.39 1.62
1 10 17 194.59 2.78
2 10 17 50.77 1
3 10 17 47.53 1.58
4 10 17 31.03 1.43
5 10 17 59.44 4.27
6 10 17 4.04 0.54
-6 11 17 11.11 0.97
-5 11 17 1.35 0.6
-4 11 17 22 1.6
-3 11 17 23.08 0.84
-2 11 17 15.96 0.7
-1 11 17 58.59 1.01
0 11 17 8.29 0.42
1 11 17 57 1.14
2 11 17 14.78 0.52
3 11 17 21 1.35
4 11 17 23.23 3
5 11 17 1.13 0.52
6 11 17 10.25 1.25
-5 12 17 2.13 0.61
-4 12 17 82.06 8.91
-3 12 17 14.21 0.71
-2 12 17 35.61 0.97
-1 12 17 21.51 0.57
0 12 17 454.22 6.42
1 12 17 21.22 0.61
2 12 17 37.01 0.85
3 12 17 11.86 0.79
4 12 17 82.49 6.18
5 12 17 2.07 0.52
6 12 17 18.71 1.37
-5 13 17 1.64 0.59
-4 13 17 1.18 0.52
-3 13 17 10.6 0.83
-2 13 17 11.45 0.46
-1 13 17 4.89 0.4
0 13 17 5.4 0.38
1 13 17 4.48 0.38
2 13 17 11.97 0.53
3 13 17 7.94 0.9
4 13 17 0.71 0.53
5 13 17 1.78 0.48
-5 14 17 22.7 1.32
-4 14 17 29.37 1.26
-3 14 17 23.1 2.06
-2 14 17 7.38 0.79
-1 14 17 73.45 1.28
0 14 17 79.92 1.49
1 14 17 73.49 1.32
2 14 17 5.87 0.56
3 14 17 19.65 0.92
4 14 17 23.01 1.26
5 14 17 19.29 1.17
-4 15 17 15.98 1.67
-3 15 17 0.15 0.51
-2 15 17 28.38 1.15
-1 15 17 5.79 0.6
0 15 17 6.41 0.55
1 15 17 5.62 0.54
2 15 17 30.36 0.94
3 15 17 0.03 0.53
4 15 17 13.26 1
5 15 17 2.15 0.42
-4 16 17 2.84 0.48
-3 16 17 4.42 0.48
-2 16 17 17.7 1.26
-1 16 17 59.15 1.4
0 16 17 15.59 0.66
1 16 17 63.57 1.44
2 16 17 16.15 0.72
3 16 17 5.69 0.83
4 16 17 2.52 0.66
-3 17 17 10.46 0.85
-2 17 17 2.25 0.44
-1 17 17 4.5 0.5
0 17 17 5.9 0.51
1 17 17 4.76 0.53
2 17 17 2.43 0.47
3 17 17 10.2 0.91
-3 18 17 5 0.51
-2 18 17 6.87 0.47
-1 18 17 12.5 1.06
0 18 17 10.18 0.6
1 18 17 12.37 0.62
2 18 17 6.8 0.51
3 18 17 5.68 0.75
-1 19 17 7.43 0.65
0 19 17 3.12 0.41
1 19 17 7.57 0.51
0 0 18 708.24 13.18
1 0 18 60.66 1.28
2 0 18 226.01 2.97
3 0 18 8.49 0.38
4 0 18 320.15 4.82
5 0 18 3.41 0.41
6 0 18 0.71 0.42
7 0 18 2.01 0.45
-7 1 18 23.82 1.08
-6 1 18 29.18 0.95
-5 1 18 39.89 1.17
-4 1 18 7.99 0.48
-3 1 18 45.53 1.1
-2 1 18 97.79 2.29
-1 1 18 35.76 0.8
0 1 18 5.06 0.37
1 1 18 36.77 0.94
2 1 18 94.17 1.96
3 1 18 46.46 1.2
4 1 18 7.57 0.48
5 1 18 41.62 1.08
6 1 18 26.73 1.34
7 1 18 22.59 0.72
-7 2 18 8.21 0.66
-6 2 18 10.73 0.67
-5 2 18 33.59 1.11
-4 2 18 52.34 1.14
-3 2 18 207.04 5.17
-2 2 18 62.32 1.21
-1 2 18 388.48 5.36
0 2 18 9.48 0.43
1 2 18 366.25 4.87
2 2 18 57.15 1.11
3 2 18 202.07 2.94
4 2 18 50.49 1.4
5 2 18 34.68 0.88
6 2 18 9.72 0.56
7 2 18 7.54 0.58
-7 3 18 14.24 0.64
-6 3 18 63.42 1.78
-5 3 18 2.28 0.39
-4 3 18 19.6 0.7
-3 3 18 88.79 1.69
-2 3 18 15.63 0.52
-1 3 18 26.63 0.57
0 3 18 56.23 0.96
1 3 18 24.06 0.61
2 3 18 15.12 0.51
3 3 18 86.92 1.64
4 3 18 18.39 0.57
5 3 18 3.02 0.39
6 3 18 63.37 1.73
7 3 18 14.93 0.84
-7 4 18 6.31 0.61
-6 4 18 2.25 0.51
-5 4 18 28.64 0.84
-4 4 18 3.66 0.44
-3 4 18 247.51 3.34
-2 4 18 5.36 0.38
-1 4 18 330.77 3.98
0 4 18 0.84 0.29
1 4 18 312.51 4.31
2 4 18 5.96 0.42
3 4 18 261.11 4.18
4 4 18 3.96 0.37
5 4 18 31.61 1.04
6 4 18 2.3 0.54
7 4 18 6.06 0.49
-7 5 18 2.93 0.55
-6 5 18 39.78 1.27
-5 5 18 6.45 0.52
-4 5 18 32.97 1.31
-3 5 18 38.27 0.75
-2 5 18 83.36 1.72
-1 5 18 152.49 2.23
0 5 18 6.35 0.36
1 5 18 144.71 2.24
2 5 18 78.83 1.29
3 5 18 40.6 0.76
4 5 18 34.95 0.81
5 5 18 5.49 0.4
6 5 18 40.75 1.8
7 5 18 3.39 0.43
-7 6 18 1.08 0.52
-6 6 18 26.24 1.05
-5 6 18 55.13 2.39
-4 6 18 40.13 1.65
-3 6 18 35.76 0.94
-2 6 18 443.13 6.52
-1 6 18 184.34 2.41
0 6 18 131.97 1.85
1 6 18 178 2.48
2 6 18 418.82 6.77
3 6 18 35.24 0.97
4 6 18 38.96 0.84
5 6 18 51.39 1.21
6 6 18 25.29 1.23
7 6 18 0.82 0.39
-7 7 18 5.9 0.6
-6 7 18 3.68 0.67
-5 7 18 33.59 1.24
-4 7 18 56.42 1.83
-3 7 18 10.79 0.55
-2 7 18 16.56 0.67
-1 7 18 163.74 2.4
0 7 18 47.16 0.78
1 7 18 158.09 2.47
2 7 18 15.15 0.51
3 7 18 9.92 0.43
4 7 18 55.94 1.36
5 7 18 33.26 1.35
6 7 18 3.45 0.51
7 7 18 4.8 0.47
-6 8 18 14.25 0.84
-5 8 18 34.44 1.25
-4 8 18 9.59 0.6
-3 8 18 4.67 0.47
-2 8 18 168.5 2.73
-1 8 18 46.26 1.03
0 8 18 29.66 0.59
1 8 18 45.17 0.93
2 8 18 158.05 2.58
3 8 18 4.45 0.36
4 8 18 10.6 0.53
5 8 18 31.34 1.53
6 8 18 13.14 0.76
7 8 18 1.68 0.44
-6 9 18 6.84 0.68
-5 9 18 16.95 0.95
-4 9 18 31.25 1.03
-3 9 18 45.5 1.1
-2 9 18 20.44 0.67
-1 9 18 7.88 0.36
0 9 18 111.95 1.47
1 9 18 7.66 0.46
2 9 18 17.38 0.65
3 9 18 41.54 1.3
4 9 18 30.99 1.3
5 9 18 18.03 1.63
6 9 18 7.23 0.61
-6 10 18 3.63 0.83
-5 10 18 3.13 0.93
-4 10 18 54.42 1.22
-3 10 18 27.06 0.97
-2 10 18 49.43 0.85
-1 10 18 34.29 0.7
0 10 18 207.78 2.93
1 10 18 33.96 0.74
2 10 18 45.82 1.05
3 10 18 25.85 1.08
4 10 18 52.15 1.31
5 10 18 3.09 0.59
6 10 18 3.57 0.51
-6 11 18 6.69 0.87
-5 11 18 9.67 1.07
-4 11 18 48.81 4.18
-3 11 18 19.32 0.92
-2 11 18 12.67 0.52
-1 11 18 22.37 0.57
0 11 18 392.62 5.08
1 11 18 21.59 0.62
2 11 18 10.92 0.51
3 11 18 16.18 1.31
4 11 18 50.29 4.02
5 11 18 8.57 0.67
6 11 18 6.36 0.55
-5 12 18 5.44 0.96
-4 12 18 7.65 0.93
-3 12 18 14.13 0.76
-2 12 18 0.29 0.31
-1 12 18 26.26 0.68
0 12 18 37.84 0.74
1 12 18 27.79 0.69
2 12 18 0.91 0.36
3 12 18 11.33 0.77
4 12 18 7.64 1.13
5 12 18 4.6 0.63
6 12 18 0.94 0.47
-5 13 18 15.9 1.19
-4 13 18 3.91 0.55
-3 13 18 1.26 0.54
-2 13 18 0.46 0.29
-1 13 18 6.21 0.42
0 13 18 4.51 0.38
1 13 18 5.5 0.4
2 13 18 0.76 0.35
3 13 18 0.91 0.76
4 13 18 3.17 0.8
5 13 18 14.92 1.4
-5 14 18 31.56 1.91
-4 14 18 3.65 0.65
-3 14 18 16.2 1.02
-2 14 18 24.86 1
-1 14 18 65.44 1.85
0 14 18 6.4 0.4
1 14 18 68.48 1.32
2 14 18 26.31 0.92
3 14 18 16.57 1.14
4 14 18 3.79 0.77
5 14 18 28.67 2.33
-4 15 18 7.43 1.11
-3 15 18 7.48 0.89
-2 15 18 6.33 0.61
-1 15 18 6.13 0.7
0 15 18 6.76 0.54
1 15 18 5.3 0.52
2 15 18 6.29 0.56
3 15 18 6.85 0.88
4 15 18 7.78 0.84
-4 16 18 13.98 1.94
-3 16 18 0.75 0.48
-2 16 18 7.93 0.64
-1 16 18 7.26 0.54
0 16 18 48.49 1.09
1 16 18 7.93 0.6
2 16 18 8.55 0.6
3 16 18 0.17 0.67
4 16 18 10.38 0.85
-3 17 18 5.36 0.5
-2 17 18 1.46 0.42
-1 17 18 1.19 0.43
0 17 18 1.27 0.43
1 17 18 0.96 0.47
2 17 18 1.84 0.46
3 17 18 5.85 0.79
-2 18 18 5.91 0.44
-1 18 18 7.01 0.51
0 18 18 20.63 0.93
1 18 18 8.48 0.55
2 18 18 6.59 0.58
-1 19 18 1.68 0.35
0 19 18 14.66 0.81
1 19 18 1.81 0.47
1 0 19 81.05 1.5
2 0 19 7.49 0.42
3 0 19 14.12 0.47
4 0 19 8.55 0.53
5 0 19 21.09 0.68
6 0 19 0.96 0.51
7 0 19 1.98 0.47
-7 1 19 7.58 0.56
-6 1 19 11.4 0.68
-5 1 19 54.96 1.47
-4 1 19 91.69 2.66
-3 1 19 146.68 2.89
-2 1 19 90.12 2.02
-1 1 19 257.72 3.4
0 1 19 87.25 1.3
1 1 19 256.58 4.39
2 1 19 92.71 1.93
3 1 19 158.31 2.49
4 1 19 88.06 2.26
5 1 19 54.33 1.56
6 1 19 11.51 0.59
7 1 19 8.17 0.48
-7 2 19 23.54 0.78
-6 2 19 2.09 0.52
-5 2 19 28.8 0.88
-4 2 19 50.08 1.48
-3 2 19 115.36 2.42
-2 2 19 12.42 0.43
-1 2 19 325.66 4.17
0 2 19 282.67 3.48
1 2 19 313.5 6.03
2 2 19 12.13 0.42
3 2 19 116.13 3.15
4 2 19 50.63 1.3
5 2 19 28.38 0.76
6 2 19 1.91 0.45
7 2 19 21.61 0.72
-7 3 19 25.32 0.79
-6 3 19 22.71 0.83
-5 3 19 51.69 1.12
-4 3 19 62.91 1.5
-3 3 19 3.61 0.36
-2 3 19 430.46 6.41
-1 3 19 318.91 4.82
0 3 19 184.07 2.62
1 3 19 299.5 4.19
2 3 19 430.99 6.32
3 3 19 3.13 0.34
4 3 19 66.44 1.61
5 3 19 55.93 1.74
6 3 19 21.49 1.2
7 3 19 22.84 0.77
-7 4 19 4.15 0.77
-6 4 19 8.49 0.61
-5 4 19 5.06 0.43
-4 4 19 11 0.55
-3 4 19 0.5 0.35
-2 4 19 58.62 1.21
-1 4 19 47.62 0.98
0 4 19 82.82 1.36
1 4 19 48.01 0.94
2 4 19 57.95 1
3 4 19 0.34 0.32
4 4 19 11.04 0.46
5 4 19 5.49 0.44
6 4 19 9.34 0.64
7 4 19 4.69 0.45
-7 5 19 15.84 0.77
-6 5 19 10.46 0.78
-5 5 19 8.58 0.57
-4 5 19 86.57 1.8
-3 5 19 61.75 1.06
-2 5 19 10.02 0.49
-1 5 19 8.14 0.41
0 5 19 236.54 3.12
1 5 19 8.28 0.44
2 5 19 7.79 0.47
3 5 19 60.3 1.35
4 5 19 98.06 1.66
5 5 19 8.18 0.43
6 5 19 8.05 0.72
7 5 19 14.06 0.96
-7 6 19 0.44 0.51
-6 6 19 33.49 1.94
-5 6 19 2.91 0.69
-4 6 19 6.02 0.71
-3 6 19 3.82 0.43
-2 6 19 43.25 0.89
-1 6 19 14.03 0.46
0 6 19 40.05 0.74
1 6 19 15.17 0.58
2 6 19 46.49 1
3 6 19 3.17 0.32
4 6 19 6.31 0.42
5 6 19 2.82 0.47
6 6 19 33.41 1.53
7 6 19 0.28 0.36
-7 7 19 8.79 0.96
-6 7 19 40.28 1.26
-5 7 19 5.55 0.75
-4 7 19 41.12 1.31
-3 7 19 138.28 2.13
-2 7 19 68.65 1.35
-1 7 19 81.39 1.49
0 7 19 38.15 0.75
1 7 19 78.63 1.51
2 7 19 65.38 1.56
3 7 19 142 2.33
4 7 19 42.02 1.01
5 7 19 5.49 0.59
6 7 19 38.78 1.98
7 7 19 9.79 1.86
-6 8 19 12.67 1.02
-5 8 19 4.19 0.74
-4 8 19 12.96 0.64
-3 8 19 51.53 1.52
-2 8 19 14.22 0.66
-1 8 19 87.06 1.81
0 8 19 -0.41 0.86
1 8 19 85.01 1.82
2 8 19 14.79 0.52
3 8 19 51.18 1.88
4 8 19 13.04 0.6
5 8 19 4.35 0.67
6 8 19 13.06 0.75
-6 9 19 1.16 0.57
-5 9 19 8.39 0.78
-4 9 19 63.52 1.59
-3 9 19 10.78 0.62
-2 9 19 13.02 0.58
-1 9 19 37.47 0.87
0 9 19 6.56 0.38
1 9 19 37.14 0.91
2 9 19 12.79 0.59
3 9 19 9.32 0.55
4 9 19 69.92 2.48
5 9 19 7.94 0.71
6 9 19 1.95 0.49
-6 10 19 0.16 0.71
-5 10 19 6.11 0.97
-4 10 19 3.81 0.71
-3 10 19 46.53 1.13
-2 10 19 18.16 0.6
-1 10 19 34.61 0.73
0 10 19 23.86 0.57
1 10 19 37.57 0.85
2 10 19 17.49 0.66
3 10 19 42.05 1.13
4 10 19 3.32 0.61
5 10 19 5.52 0.64
6 10 19 0.38 0.43
-6 11 19 7.04 0.85
-5 11 19 3.25 0.89
-4 11 19 23.05 1.57
-3 11 19 1.68 0.43
-2 11 19 41.31 0.81
-1 11 19 9.72 0.41
0 11 19 3.71 0.37
1 11 19 10.64 0.53
2 11 19 39.51 0.99
3 11 19 2.45 0.57
4 11 19 24.42 1.07
5 11 19 4.09 0.58
6 11 19 6.04 0.83
-5 12 19 4.51 0.92
-4 12 19 28.58 2.06
-3 12 19 4.06 0.59
-2 12 19 29.3 0.82
-1 12 19 4.05 0.36
0 12 19 76.41 1.3
1 12 19 3.7 0.39
2 12 19 27.88 0.81
3 12 19 3.43 0.8
4 12 19 27 1.41
5 12 19 3.42 0.54
-5 13 19 16.16 1.18
-4 13 19 1.37 0.5
-3 13 19 23.04 1.3
-2 13 19 49.73 1.81
-1 13 19 10.55 0.47
0 13 19 30.46 0.66
1 13 19 9.95 0.45
2 13 19 49.02 1.5
3 13 19 21.79 1.28
4 13 19 1.13 0.71
5 13 19 15.67 1.58
-5 14 19 12.64 1.05
-4 14 19 0.68 0.49
-3 14 19 22.22 1.25
-2 14 19 14.32 0.79
-1 14 19 20.66 0.94
0 14 19 9.83 0.58
1 14 19 20.52 0.72
2 14 19 12.83 0.79
3 14 19 20.45 1.21
4 14 19 0.48 0.64
5 14 19 9.94 0.81
-4 15 19 -0.1 0.77
-3 15 19 1.68 0.51
-2 15 19 64.04 1.27
-1 15 19 7.53 0.61
0 15 19 6.71 0.54
1 15 19 6.16 0.52
2 15 19 65.54 1.69
3 15 19 1.21 0.69
4 15 19 0.22 0.59
-4 16 19 2.96 0.54
-3 16 19 8.32 0.73
-2 16 19 12.68 0.67
-1 16 19 12.98 0.94
0 16 19 10.35 0.58
1 16 19 13.48 0.69
2 16 19 12.25 0.76
3 16 19 8.85 0.88
4 16 19 2.47 0.61
-3 17 19 6.85 0.92
-2 17 19 3.03 0.39
-1 17 19 29.27 1.14
0 17 19 0.2 0.41
1 17 19 30.06 1.05
2 17 19 2.56 0.53
3 17 19 8.88 0.85
-2 18 19 6.54 0.4
-1 18 19 21.13 1.09
0 18 19 5.26 0.46
1 18 19 22.22 1.05
2 18 19 7.47 0.6
0 19 19 51.5 1.92
0 0 20 0.03 0.41
1 0 20 10.93 0.47
2 0 20 3.86 0.36
3 0 20 4.45 0.36
4 0 20 2.88 0.41
5 0 20 6.38 0.46
6 0 20 3.85 0.56
7 0 20 9.19 0.57
-7 1 20 13.86 0.64
-6 1 20 15.28 0.99
-5 1 20 9.32 0.5
-4 1 20 31.05 1.1
-3 1 20 81.11 2.26
-2 1 20 402.75 5.6
-1 1 20 53.97 0.99
0 1 20 22.33 0.6
1 1 20 54.51 1.47
2 1 20 405.12 6.54
3 1 20 84.68 2.44
4 1 20 33.21 0.85
5 1 20 9.82 0.5
6 1 20 14.34 0.72
7 1 20 13.95 0.64
-7 2 20 5.89 0.51
-6 2 20 12.82 0.69
-5 2 20 34.45 1.05
-4 2 20 17.5 0.6
-3 2 20 44.89 1.13
-2 2 20 34.07 0.65
-1 2 20 124.26 1.73
0 2 20 72.56 1.28
1 2 20 120.55 2.38
2 2 20 34.31 0.9
3 2 20 44.89 1.47
4 2 20 18.18 0.82
5 2 20 34.05 1.08
6 2 20 11.86 0.68
7 2 20 5.26 0.5
-7 3 20 1.54 0.43
-6 3 20 6.48 0.58
-5 3 20 22.92 1.27
-4 3 20 26.34 0.9
-3 3 20 66.13 1.38
-2 3 20 195.39 2.84
-1 3 20 97.04 1.81
0 3 20 8.16 0.45
1 3 20 102.91 1.8
2 3 20 187.33 2.55
3 3 20 59.18 1.43
4 3 20 29.71 1.04
5 3 20 24.58 1.3
6 3 20 6.77 0.58
7 3 20 1.54 0.39
-7 4 20 10.54 0.69
-6 4 20 25.21 0.85
-5 4 20 25.79 0.8
-4 4 20 19.15 0.69
-3 4 20 3.12 0.39
-2 4 20 52.34 1.13
-1 4 20 2.3 0.31
0 4 20 31.39 0.68
1 4 20 2.76 0.37
2 4 20 50.04 1.01
3 4 20 3.26 0.36
4 4 20 18.69 0.93
5 4 20 29.34 0.89
6 4 20 24.09 1.42
7 4 20 10.9 0.71
-7 5 20 9.11 0.98
-6 5 20 19.36 1
-5 5 20 21.22 1.3
-4 5 20 17.53 0.68
-3 5 20 233.38 3.28
-2 5 20 42.26 1.14
-1 5 20 224.77 2.74
0 5 20 31.14 0.86
1 5 20 215.67 3.15
2 5 20 43.39 0.93
3 5 20 220.73 4.43
4 5 20 19.67 0.62
5 5 20 20.3 0.93
6 5 20 19.79 1.14
7 5 20 8.12 0.75
-7 6 20 21.46 1.27
-6 6 20 15.27 0.85
-5 6 20 0.06 0.63
-4 6 20 20.04 0.73
-3 6 20 16.94 0.61
-2 6 20 18.36 0.59
-1 6 20 77.66 1.29
0 6 20 10.43 0.47
1 6 20 74.59 1.48
2 6 20 18.11 0.85
3 6 20 16.63 0.74
4 6 20 20.71 0.73
5 6 20 0.16 0.47
6 6 20 14.77 0.68
7 6 20 22.87 1.21
-6 7 20 1 0.6
-5 7 20 12.89 0.87
-4 7 20 141.14 3.75
-3 7 20 66.46 1.45
-2 7 20 2.76 0.49
-1 7 20 25.73 0.68
0 7 20 427.67 5.99
1 7 20 29.11 0.93
2 7 20 3.69 0.4
3 7 20 70.81 1.63
4 7 20 144.27 3.89
5 7 20 13.87 0.77
6 7 20 1.2 0.45
-6 8 20 1.55 0.59
-5 8 20 20.34 1
-4 8 20 47.98 1.37
-3 8 20 14.68 0.79
-2 8 20 20.38 0.74
-1 8 20 31.67 0.89
0 8 20 3.61 0.43
1 8 20 30 0.83
2 8 20 20.82 0.69
3 8 20 15.18 0.63
4 8 20 48.21 1.68
5 8 20 18.8 0.91
6 8 20 1.41 0.5
-6 9 20 13.36 1.07
-5 9 20 7.35 0.76
-4 9 20 51.13 2.14
-3 9 20 6.46 0.57
-2 9 20 136.52 2.34
-1 9 20 7.34 0.48
0 9 20 181.9 2.35
1 9 20 7 0.51
2 9 20 121.64 2.65
3 9 20 6.08 0.5
4 9 20 53.4 1.52
5 9 20 7.02 0.67
6 9 20 12.77 1.55
-6 10 20 2.3 0.74
-5 10 20 3.79 0.89
-4 10 20 5.35 0.74
-3 10 20 77.45 1.86
-2 10 20 41.47 1.12
-1 10 20 63.17 1.26
0 10 20 102.19 1.55
1 10 20 60.44 1.33
2 10 20 38.33 0.96
3 10 20 71.97 2.03
4 10 20 4.07 0.63
5 10 20 3.19 0.57
6 10 20 2.24 0.45
-5 11 20 34.77 1.61
-4 11 20 29.08 1.92
-3 11 20 34.5 1.49
-2 11 20 10.28 0.46
-1 11 20 138.68 2.34
0 11 20 23.35 0.57
1 11 20 138.4 2.27
2 11 20 8.37 0.53
3 11 20 34.13 1
4 11 20 27.53 1.43
5 11 20 32.93 3.67
6 11 20 8.46 0.72
-5 12 20 1.35 0.83
-4 12 20 4.99 0.7
-3 12 20 20.92 1.14
-2 12 20 0.32 0.3
-1 12 20 50.76 0.93
0 12 20 28.73 0.67
1 12 20 49.97 1.1
2 12 20 0.3 0.39
3 12 20 18.54 1.21
4 12 20 4.22 0.79
5 12 20 1.3 0.48
-5 13 20 12.74 1.07
-4 13 20 0.59 0.61
-3 13 20 15.26 1.08
-2 13 20 10.38 0.63
-1 13 20 55.79 1.05
0 13 20 2.21 0.35
1 13 20 54.22 1.2
2 13 20 9.83 0.74
3 13 20 13.17 1.03
4 13 20 0.17 0.65
5 13 20 11.26 0.88
-4 14 20 16.47 0.93
-3 14 20 4.19 0.56
-2 14 20 1.11 0.43
-1 14 20 3.35 0.48
0 14 20 -0.15 0.88
1 14 20 2.94 0.54
2 14 20 1.06 0.54
3 14 20 3.83 0.78
4 14 20 16.23 1.04
-4 15 20 5.47 0.53
-3 15 20 20.05 1.59
-2 15 20 69.35 1.72
-1 15 20 19.74 0.8
0 15 20 23.32 0.76
1 15 20 19.66 0.79
2 15 20 70.07 2.49
3 15 20 17.93 1.1
4 15 20 5.8 0.73
-3 16 20 2.68 0.48
-2 16 20 3.19 0.41
-1 16 20 6.86 0.47
0 16 20 0.69 0.43
1 16 20 7.3 0.68
2 16 20 3.31 0.58
3 16 20 3.41 0.71
-3 17 20 4.42 0.48
-2 17 20 4.73 0.4
-1 17 20 1.06 0.38
0 17 20 18.61 0.76
1 17 20 1.22 0.52
2 17 20 5.74 0.58
3 17 20 4.26 0.69
-1 18 20 0.83 0.34
0 18 20 2.3 0.4
1 18 20 0.61 0.47
1 0 21 77 1.11
2 0 21 22.53 0.72
3 0 21 18.94 0.83
4 0 21 48.48 1.3
5 0 21 45.1 1.43
6 0 21 10.94 0.66
7 0 21 0.89 0.43
-7 1 21 4.66 0.48
-6 1 21 5.9 0.58
-5 1 21 7.51 0.47
-4 1 21 8.61 0.48
-3 1 21 175.49 2.56
-2 1 21 21.75 0.67
-1 1 21 103.17 1.46
0 1 21 1.59 0.34
1 1 21 113.43 1.56
2 1 21 19.55 0.69
3 1 21 141.5 2.2
4 1 21 9.2 0.5
5 1 21 8.01 0.53
6 1 21 5.32 0.58
7 1 21 4.38 0.48
-7 2 21 8.84 0.54
-6 2 21 10.13 0.64
-5 2 21 9.79 0.5
-4 2 21 103.99 2.41
-3 2 21 3.64 0.35
-2 2 21 74.42 2.24
-1 2 21 7 0.41
0 2 21 51.28 0.97
1 2 21 7.77 0.43
2 2 21 73.6 1.2
3 2 21 3.61 0.39
4 2 21 106.05 2.8
5 2 21 12.22 0.63
6 2 21 10.98 0.67
7 2 21 8.62 0.98
-7 3 21 3.91 0.45
-6 3 21 4.74 0.58
-5 3 21 18.05 1
-4 3 21 52.75 1.63
-3 3 21 22.18 0.67
-2 3 21 261.06 6.79
-1 3 21 0.51 0.3
0 3 21 42.19 0.78
1 3 21 1.41 0.34
2 3 21 235.82 3.67
3 3 21 18.69 0.7
4 3 21 58.28 1.3
5 3 21 16.62 2.21
6 3 21 4.95 0.97
7 3 21 3.02 0.53
-7 4 21 11.01 0.69
-6 4 21 11.86 0.64
-5 4 21 8.36 0.63
-4 4 21 11.41 0.51
-3 4 21 11.83 0.5
-2 4 21 11.14 0.47
-1 4 21 3.18 0.34
0 4 21 144.28 1.95
1 4 21 2.93 0.39
2 4 21 9.55 0.5
3 4 21 12.17 0.47
4 4 21 11.5 0.56
5 4 21 8.5 1.26
6 4 21 12.57 0.79
7 4 21 11.57 0.66
-6 5 21 0.44 0.57
-5 5 21 4.13 0.56
-4 5 21 47.73 1.52
-3 5 21 43.62 0.98
-2 5 21 66.7 1.58
-1 5 21 27.8 0.61
0 5 21 154.55 2.15
1 5 21 27.27 0.72
2 5 21 63.01 1.32
3 5 21 40.37 1.07
4 5 21 50.77 1.34
5 5 21 3.77 0.52
6 5 21 0.26 0.46
7 5 21 4 0.74
-6 6 21 16.95 0.86
-5 6 21 21.78 1.02
-4 6 21 22.56 0.81
-3 6 21 69.33 1.58
-2 6 21 181.49 2.75
-1 6 21 42.83 0.77
0 6 21 16.96 0.6
1 6 21 42.35 1.85
2 6 21 183.8 6.5
3 6 21 66.96 1.78
4 6 21 24.83 0.63
5 6 21 22.06 0.98
6 6 21 17.52 1.11
-6 7 21 9.87 0.83
-5 7 21 5.25 0.72
-4 7 21 30.85 0.84
-3 7 21 130.24 3.37
-2 7 21 68.25 1.69
-1 7 21 115.81 1.7
0 7 21 224.19 3.6
1 7 21 112.33 4.59
2 7 21 67.22 2.82
3 7 21 136.09 2.34
4 7 21 30.92 0.91
5 7 21 5.69 0.57
6 7 21 8.39 0.55
-6 8 21 5.19 0.64
-5 8 21 10.04 0.8
-4 8 21 8.1 0.6
-3 8 21 27.22 1.02
-2 8 21 3.61 0.52
-1 8 21 33.63 1
0 8 21 17.88 0.61
1 8 21 30.21 1.26
2 8 21 4.51 0.43
3 8 21 27.61 0.88
4 8 21 9.31 0.6
5 8 21 10.75 0.74
6 8 21 5.12 1.02
-6 9 21 0.16 0.54
-5 9 21 23.11 1.02
-4 9 21 1.09 0.64
-3 9 21 38.91 1.27
-2 9 21 56.44 1.44
-1 9 21 130.55 2.33
0 9 21 1.36 0.43
1 9 21 113.73 2.49
2 9 21 52.35 1.59
3 9 21 38.53 2.09
4 9 21 1.21 0.5
5 9 21 22.82 0.94
6 9 21 0.33 0.66
-6 10 21 -0.2 0.65
-5 10 21 10.34 1.03
-4 10 21 14.17 0.88
-3 10 21 63.35 1.6
-2 10 21 17.54 0.76
-1 10 21 102.24 1.85
0 10 21 44 0.79
1 10 21 94.7 2.67
2 10 21 16.6 0.74
3 10 21 60.52 2.06
4 10 21 12.72 1.1
5 10 21 9.33 0.67
6 10 21 0.27 0.4
-5 11 21 9.47 1
-4 11 21 0.36 0.62
-3 11 21 36.96 1.33
-2 11 21 48.01 1.03
-1 11 21 118.64 2.23
0 11 21 17.54 0.52
1 11 21 109.19 2.68
2 11 21 45.88 1.07
3 11 21 37.32 1.66
4 11 21 0.91 0.74
5 11 21 8.96 0.64
-5 12 21 15.34 1.13
-4 12 21 17.4 1.47
-3 12 21 4.51 0.72
-2 12 21 24.52 1.21
-1 12 21 11.02 0.45
0 12 21 0.82 0.31
1 12 21 10.73 0.49
2 12 21 22.4 1.26
3 12 21 5.01 0.62
4 12 21 17.4 1.14
5 12 21 14.63 1.69
-5 13 21 1.69 0.79
-4 13 21 12.02 0.87
-3 13 21 5.33 0.58
-2 13 21 17.52 0.77
-1 13 21 0.32 0.44
0 13 21 67.87 1.49
1 13 21 0.43 0.5
2 13 21 16.18 0.85
3 13 21 4.25 0.8
4 13 21 12.26 0.97
5 13 21 1.1 0.6
-4 14 21 13.22 0.78
-3 14 21 15.98 1.11
-2 14 21 10.37 0.84
-1 14 21 8.38 0.59
0 14 21 0.52 0.45
1 14 21 8.37 0.61
2 14 21 9.09 0.69
3 14 21 14.76 1.04
4 14 21 11.06 0.89
-4 15 21 7.05 0.66
-3 15 21 5.34 0.53
-2 15 21 9.22 0.78
-1 15 21 17.46 0.65
0 15 21 2.17 0.46
1 15 21 18.53 0.76
2 15 21 9.53 0.68
3 15 21 4.76 0.75
4 15 21 6.94 0.74
-3 16 21 17.35 1.17
-2 16 21 2.09 0.38
-1 16 21 5.07 0.43
0 16 21 8.31 0.53
1 16 21 5.32 0.62
2 16 21 2.29 0.55
3 16 21 17.73 1.03
-2 17 21 2.14 0.35
-1 17 21 21.8 0.92
0 17 21 3.13 0.43
1 17 21 23.38 0.9
2 17 21 2.14 0.52
-1 18 21 6.39 0.4
0 18 21 3.31 0.45
1 18 21 6.32 0.63
0 0 22 273.37 5.95
1 0 22 67.69 1.37
2 0 22 100.75 1.64
3 0 22 14.49 0.48
4 0 22 48.59 1.67
5 0 22 2.44 0.56
6 0 22 22.15 1.28
7 0 22 2.88 0.45
-7 1 22 1.82 0.43
-6 1 22 7.24 0.59
-5 1 22 0.63 0.53
-4 1 22 30.85 1.1
-3 1 22 95.79 2.89
-2 1 22 156.46 5.91
-1 1 22 95.79 1.64
0 1 22 61.97 0.94
1 1 22 93.57 1.48
2 1 22 142.66 2.16
3 1 22 95.29 3.12
4 1 22 30.61 1.19
5 1 22 0.85 0.52
6 1 22 6.91 0.6
7 1 22 2.06 0.43
-7 2 22 5.7 0.48
-6 2 22 20.42 0.91
-5 2 22 26.16 1.42
-4 2 22 61.63 1.32
-3 2 22 72.98 2.13
-2 2 22 47.98 1.1
-1 2 22 142.49 2.48
0 2 22 239.95 2.89
1 2 22 149.53 1.97
2 2 22 42.91 0.9
3 2 22 65.92 2.11
4 2 22 61.88 1.71
5 2 22 23.81 1.87
6 2 22 20.46 1.07
7 2 22 4.54 0.54
-7 3 22 7.76 0.63
-6 3 22 7.24 0.57
-5 3 22 4.07 0.57
-4 3 22 21.54 0.55
-3 3 22 70.62 1.66
-2 3 22 148.59 4.2
-1 3 22 51.16 0.88
0 3 22 21.23 0.55
1 3 22 52.18 0.92
2 3 22 135.3 1.95
3 3 22 67.05 1.72
4 3 22 22.68 0.97
5 3 22 3.89 0.78
6 3 22 7.23 0.69
7 3 22 7.5 0.78
-6 4 22 8.15 0.58
-5 4 22 28.25 1.22
-4 4 22 5.37 0.44
-3 4 22 56.79 1.15
-2 4 22 23.74 0.75
-1 4 22 146.91 1.95
0 4 22 0.8 0.45
1 4 22 143.4 2.02
2 4 22 22.5 0.67
3 4 22 55.96 1.46
4 4 22 5.49 0.48
5 4 22 26.45 2.12
6 4 22 8.06 0.7
-6 5 22 0.16 0.56
-5 5 22 6.86 0.61
-4 5 22 22.31 0.61
-3 5 22 27.65 0.9
-2 5 22 9.42 0.51
-1 5 22 55.5 1.14
0 5 22 13.77 0.52
1 5 22 51.98 1.3
2 5 22 9.58 0.52
3 5 22 26.64 0.87
4 5 22 24.12 1.01
5 5 22 8.39 0.76
6 5 22 0.13 0.44
-6 6 22 16.14 0.83
-5 6 22 28.06 1.11
-4 6 22 15.22 0.61
-3 6 22 133.86 2.86
-2 6 22 117.94 2.42
-1 6 22 67.85 1.09
0 6 22 9.38 0.52
1 6 22 71.42 2.3
2 6 22 112.54 3.33
3 6 22 114.76 2.73
4 6 22 12.6 0.72
5 6 22 25.86 1.47
6 6 22 15.48 0.92
-6 7 22 3.01 0.61
-5 7 22 11.66 0.82
-4 7 22 11.23 0.64
-3 7 22 44.54 1.25
-2 7 22 26.57 0.88
-1 7 22 9.02 0.45
0 7 22 1.87 0.44
1 7 22 10.11 0.66
2 7 22 24.14 1.18
3 7 22 44.92 3.13
4 7 22 12.4 0.63
5 7 22 12.06 0.75
6 7 22 3.4 0.46
-6 8 22 11.51 0.73
-5 8 22 3.35 0.67
-4 8 22 13.53 0.88
-3 8 22 76.32 2.14
-2 8 22 72.24 2.06
-1 8 22 6.4 0.47
0 8 22 40.7 1.3
1 8 22 6.78 0.79
2 8 22 71.66 3.87
3 8 22 83.57 1.8
4 8 22 15.42 0.72
5 8 22 2.99 0.56
6 8 22 12.96 0.7
-6 9 22 0.44 0.67
-5 9 22 3.69 0.86
-4 9 22 9.33 0.79
-3 9 22 7.98 0.6
-2 9 22 5.94 0.57
-1 9 22 21.73 0.67
0 9 22 27.99 0.79
1 9 22 20.58 1.09
2 9 22 4.81 0.48
3 9 22 8.08 0.54
4 9 22 10.18 0.81
5 9 22 3.73 0.49
6 9 22 0.38 0.42
-5 10 22 15.54 1.13
-4 10 22 14.25 0.87
-3 10 22 27.45 1.15
-2 10 22 26.65 0.88
-1 10 22 11.82 0.54
0 10 22 33.12 0.8
1 10 22 12.29 0.67
2 10 22 25.5 0.8
3 10 22 23.47 2.58
4 10 22 14.42 1.14
5 10 22 17.37 0.8
-5 11 22 3.41 0.84
-4 11 22 8.72 0.75
-3 11 22 15.04 0.95
-2 11 22 109.86 2.05
-1 11 22 46.27 0.95
0 11 22 20.25 0.57
1 11 22 42.06 1.26
2 11 22 105.1 2.39
3 11 22 13.62 1.16
4 11 22 8.62 0.94
5 11 22 3.39 0.5
-5 12 22 4.32 0.85
-4 12 22 1.56 0.61
-3 12 22 17.07 0.95
-2 12 22 13.14 0.72
-1 12 22 23.19 0.7
0 12 22 0.28 0.31
1 12 22 20.87 0.94
2 12 22 13.42 0.8
3 12 22 14.83 0.79
4 12 22 1.31 0.7
5 12 22 4.64 0.71
-4 13 22 0.96 0.57
-3 13 22 0.57 0.64
-2 13 22 2.7 0.45
-1 13 22 18.66 0.72
0 13 22 0.98 0.46
1 13 22 17.38 0.75
2 13 22 2.45 0.57
3 13 22 0.29 0.66
4 13 22 0.17 0.63
-4 14 22 21.21 1.53
-3 14 22 35.74 1.21
-2 14 22 1.79 0.42
-1 14 22 12.87 0.6
0 14 22 1.35 0.45
1 14 22 13.18 0.68
2 14 22 1.76 0.54
3 14 22 35.57 1.5
4 14 22 22.11 1.13
-3 15 22 3.3 0.49
-2 15 22 3.69 0.43
-1 15 22 32.84 1.23
0 15 22 16.91 0.66
1 15 22 31.6 1.09
2 15 22 3.43 0.54
3 15 22 2.85 0.69
-3 16 22 9.3 1
-2 16 22 7.53 0.57
-1 16 22 0.8 0.37
0 16 22 18.69 0.73
1 16 22 0.9 0.51
2 16 22 6.37 0.61
3 16 22 9.58 0.83
-2 17 22 4.62 0.49
-1 17 22 0.75 0.35
0 17 22 5.84 0.45
1 17 22 0.6 0.47
2 17 22 4.69 0.55
1 0 23 141.15 2.87
2 0 23 59.1 1.33
3 0 23 124.9 3.87
4 0 23 3.07 0.39
5 0 23 28.68 1.55
6 0 23 12.51 1.08
-6 1 23 4.75 0.54
-5 1 23 3.86 0.57
-4 1 23 13.2 0.5
-3 1 23 23.59 0.91
-2 1 23 85.37 1.8
-1 1 23 3.29 0.37
0 1 23 8.78 0.43
1 1 23 2.98 0.4
2 1 23 81.7 1.56
3 1 23 23.88 0.74
4 1 23 13.01 0.75
5 1 23 3.76 0.57
6 1 23 4.14 0.54
-6 2 23 20.78 1.34
-5 2 23 6.45 0.74
-4 2 23 13.76 0.61
-3 2 23 180.38 3.59
-2 2 23 280.05 6.44
-1 2 23 191.59 2.78
0 2 23 70.63 1.18
1 2 23 189.85 2.65
2 2 23 261.55 4.23
3 2 23 175.3 6.06
4 2 23 14.43 0.75
5 2 23 6.62 0.62
6 2 23 22.46 1.6
-6 3 23 4.06 0.52
-5 3 23 22.53 0.96
-4 3 23 0.13 0.35
-3 3 23 100.74 2.44
-2 3 23 4.58 0.4
-1 3 23 32.18 0.67
0 3 23 0.13 0.34
1 3 23 32.22 0.88
2 3 23 4.08 0.46
3 3 23 91.81 2
4 3 23 -0.13 0.91
5 3 23 22.73 2.17
6 3 23 3.88 0.61
-6 4 23 11.41 0.61
-5 4 23 3.96 0.56
-4 4 23 54.72 1.52
-3 4 23 2.75 0.41
-2 4 23 105.53 2.09
-1 4 23 23.87 0.6
0 4 23 160.06 2.04
1 4 23 23.44 0.71
2 4 23 97.68 1.97
3 4 23 2.58 0.42
4 4 23 60.57 1.52
5 4 23 3.23 0.63
6 4 23 11.22 1.02
-6 5 23 0.26 0.55
-5 5 23 22.59 0.96
-4 5 23 7.01 0.43
-3 5 23 9.8 0.51
-2 5 23 -0.13 0.94
-1 5 23 7.58 0.48
0 5 23 5.71 0.47
1 5 23 7.66 0.51
2 5 23 0.16 0.41
3 5 23 10.11 0.52
4 5 23 6.79 0.46
5 5 23 22.3 2.52
6 5 23 0.56 0.52
-6 6 23 4.7 0.63
-5 6 23 18.4 0.95
-4 6 23 53.36 2.6
-3 6 23 49.12 1.37
-2 6 23 51.24 1.49
-1 6 23 39.15 0.75
0 6 23 5.45 0.47
1 6 23 36.64 1.45
2 6 23 50.37 2.42
3 6 23 46.39 1.19
4 6 23 51.6 4.65
5 6 23 18.01 1.89
6 6 23 4.92 0.59
-6 7 23 5.56 0.63
-5 7 23 5.97 0.94
-4 7 23 54.95 2.4
-3 7 23 14.54 0.7
-2 7 23 24.16 0.94
-1 7 23 5.82 0.41
0 7 23 90.24 1.72
1 7 23 5.91 0.58
2 7 23 22.66 1.16
3 7 23 14.62 0.84
4 7 23 57.43 2.35
5 7 23 6.21 0.7
6 7 23 5.47 0.47
-6 8 23 1.43 0.71
-5 8 23 15.61 1.15
-4 8 23 -0.03 0.87
-3 8 23 30.99 0.92
-2 8 23 0.28 0.48
-1 8 23 110.05 1.84
0 8 23 8.87 0.61
1 8 23 101.11 2.6
2 8 23 -0.11 0.98
3 8 23 30.24 2.19
4 8 23 0.48 0.66
5 8 23 15.85 0.69
6 8 23 0.68 0.4
-5 9 23 -0.39 0.72
-4 9 23 3.16 0.67
-3 9 23 3.42 0.74
-2 9 23 49.52 1.18
-1 9 23 5.5 0.45
0 9 23 4.75 0.54
1 9 23 6.14 0.76
2 9 23 44.97 3.12
3 9 23 2.7 0.5
4 9 23 3.65 0.7
5 9 23 -0.12 0.71
-5 10 23 11.07 1
-4 10 23 22.9 1.01
-3 10 23 7.32 0.8
-2 10 23 20.21 0.81
-1 10 23 14.37 0.58
0 10 23 73.77 1.69
1 10 23 11.27 0.89
2 10 23 18.32 0.79
3 10 23 6.45 0.67
4 10 23 23.31 1.34
5 10 23 10.65 0.65
-5 11 23 3.45 0.81
-4 11 23 1.02 0.6
-3 11 23 6.17 0.77
-2 11 23 14.92 0.98
-1 11 23 29.32 0.76
0 11 23 7.2 0.5
1 11 23 27.64 0.92
2 11 23 13.26 0.81
3 11 23 4.97 0.9
4 11 23 1.6 0.74
5 11 23 2.8 0.69
-5 12 23 14.72 1.05
-4 12 23 10.84 0.75
-3 12 23 2.81 0.7
-2 12 23 41.49 1.41
-1 12 23 0.95 0.55
0 12 23 50.16 1.08
1 12 23 1.5 0.56
2 12 23 37.25 1.21
3 12 23 2.36 0.54
4 12 23 10.41 0.93
5 12 23 12.82 0.89
-4 13 23 -0.25 0.76
-3 13 23 10.96 0.81
-2 13 23 0.15 0.47
-1 13 23 3.7 0.47
0 13 23 -0.06 0.86
1 13 23 3.84 0.6
2 13 23 0.38 0.52
3 13 23 11.13 0.96
4 13 23 -0.19 0.61
-4 14 23 24.52 0.91
-3 14 23 4.82 0.67
-2 14 23 6.76 0.57
-1 14 23 13.88 0.6
0 14 23 56.47 1.47
1 14 23 12.87 0.66
2 14 23 6.32 0.61
3 14 23 4.7 0.77
4 14 23 23.45 1.14
-3 15 23 4.66 0.62
-2 15 23 0.17 0.37
-1 15 23 0.84 0.4
0 15 23 26.2 0.76
1 15 23 0.52 0.45
2 15 23 -0.26 0.64
3 15 23 5.56 0.76
-2 16 23 1.04 0.37
-1 16 23 9.72 0.54
0 16 23 24.4 0.73
1 16 23 10.99 0.68
2 16 23 0.65 0.48
-1 17 23 -0.38 0.72
0 17 23 -0.12 0.68
1 17 23 -0.15 0.62
0 0 24 109.22 2.1
1 0 24 2.75 0.56
2 0 24 58.79 1.33
3 0 24 0.48 0.33
4 0 24 15.26 0.69
5 0 24 0.21 0.5
6 0 24 2.39 0.5
-6 1 24 8.82 0.61
-5 1 24 23.77 1.22
-4 1 24 21.48 0.75
-3 1 24 94.81 3.68
-2 1 24 0.92 0.42
-1 1 24 12.35 0.48
0 1 24 134.7 2.1
1 1 24 11.3 0.5
2 1 24 1.27 0.42
3 1 24 86.77 1.83
4 1 24 21.32 0.94
5 1 24 22.93 2.48
6 1 24 8.19 1.47
-6 2 24 1.73 0.43
-5 2 24 17.61 0.85
-4 2 24 44.94 1.35
-3 2 24 23.07 0.65
-2 2 24 24.53 0.81
-1 2 24 11.03 0.5
0 2 24 43.43 0.79
1 2 24 12.23 0.52
2 2 24 23.62 0.69
3 2 24 17.65 0.71
4 2 24 43.97 1.51
5 2 24 17.46 2.24
6 2 24 1.6 0.56
-6 3 24 2.24 0.47
-5 3 24 16.62 0.85
-4 3 24 4.76 0.42
-3 3 24 23.93 1.06
-2 3 24 1.09 0.37
-1 3 24 70.98 1.08
0 3 24 23.83 0.85
1 3 24 67.05 1.19
2 3 24 1.37 0.42
3 3 24 23.37 0.68
4 3 24 5.88 0.46
5 3 24 17.83 2.31
6 3 24 2.7 0.57
-6 4 24 0.06 0.43
-5 4 24 22.76 1.57
-4 4 24 21.75 0.64
-3 4 24 37.09 0.93
-2 4 24 1.54 0.4
-1 4 24 97.01 1.38
0 4 24 5.3 0.42
1 4 24 92.8 1.76
2 4 24 1.84 0.43
3 4 24 36.28 0.99
4 4 24 21.99 1.85
5 4 24 24.27 3.36
6 4 24 -0.06 0.7
-6 5 24 10.89 0.94
-5 5 24 12.78 1.54
-4 5 24 52.6 1.37
-3 5 24 4.18 0.44
-2 5 24 7.73 0.48
-1 5 24 30.92 0.76
0 5 24 2.69 0.44
1 5 24 29.75 0.93
2 5 24 7.39 0.51
3 5 24 5.07 0.44
4 5 24 63.91 1.72
5 5 24 13.99 0.7
6 5 24 9.68 0.58
-6 6 24 7.19 0.85
-5 6 24 6.25 0.91
-4 6 24 5.5 0.73
-3 6 24 76.17 1.56
-2 6 24 42.77 1.25
-1 6 24 118.06 1.79
0 6 24 133.29 2.75
1 6 24 115.78 5.11
2 6 24 41.29 2.01
3 6 24 69.78 3.37
4 6 24 5.66 0.79
5 6 24 7.12 0.65
6 6 24 7.13 0.52
-6 7 24 10.1 0.91
-5 7 24 7.98 0.97
-4 7 24 12.99 1.15
-3 7 24 72.53 1.53
-2 7 24 68.4 1.73
-1 7 24 59.58 1.06
0 7 24 1.35 0.42
1 7 24 60.48 2.94
2 7 24 63.56 3.54
3 7 24 67.27 4.6
4 7 24 14.94 1.45
5 7 24 7.81 0.72
6 7 24 9.65 0.67
-5 8 24 1.7 0.76
-4 8 24 35.12 1.23
-3 8 24 54.66 1.61
-2 8 24 62.64 1.7
-1 8 24 4.16 0.43
0 8 24 53.21 2.02
1 8 24 4.31 0.67
2 8 24 60.32 3.26
3 8 24 55.58 4.73
4 8 24 38.8 1.96
5 8 24 2.09 0.46
-5 9 24 0.65 0.74
-4 9 24 5.04 0.7
-3 9 24 4.23 0.73
-2 9 24 30.93 0.95
-1 9 24 4.1 0.43
0 9 24 8.38 0.61
1 9 24 3.09 0.92
2 9 24 25.26 1.17
3 9 24 4.17 0.73
4 9 24 5.42 0.99
5 9 24 0.48 0.54
-5 10 24 3.84 0.8
-4 10 24 10.72 0.78
-3 10 24 25.55 1.11
-2 10 24 226.31 7.17
-1 10 24 82.48 2.24
0 10 24 35.75 1.31
1 10 24 73.62 2.76
2 10 24 201.58 6.17
3 10 24 24.66 3.59
4 10 24 11.41 1.03
5 10 24 3.95 0.73
-5 11 24 0.44 0.72
-4 11 24 10.89 0.77
-3 11 24 11.87 0.86
-2 11 24 31.11 1.24
-1 11 24 2.98 0.57
0 11 24 1.62 0.51
1 11 24 3 0.94
2 11 24 30.25 1.11
3 11 24 11.17 0.74
4 11 24 12.29 1
5 11 24 1.05 0.6
-4 12 24 3.52 0.61
-3 12 24 22.64 1.02
-2 12 24 45.92 1.47
-1 12 24 38.3 1.48
0 12 24 3.93 0.6
1 12 24 33.11 1.13
2 12 24 42.39 2.1
3 12 24 21.25 1.43
4 12 24 3.67 0.74
-4 13 24 0.44 0.54
-3 13 24 15.09 0.87
-2 13 24 0.56 0.65
-1 13 24 3.7 0.56
0 13 24 1.47 0.44
1 13 24 3.81 0.58
2 13 24 1.09 0.52
3 13 24 13.69 0.78
4 13 24 0.34 0.6
-3 14 24 15.23 0.82
-2 14 24 11.67 0.82
-1 14 24 2.81 0.53
0 14 24 0.17 0.41
1 14 24 3.61 0.57
2 14 24 11.28 1.07
3 14 24 15.08 1.01
-3 15 24 38.87 1.37
-2 15 24 3.26 0.65
-1 15 24 -0.05 0.8
0 15 24 1.24 0.41
1 15 24 0.02 0.47
2 15 24 3.06 0.5
3 15 24 39.15 1.49
-2 16 24 6.03 0.65
-1 16 24 2.78 0.37
0 16 24 20 0.71
1 16 24 2.79 0.51
2 16 24 4.85 0.52
0 17 24 0.22 0.49
1 0 25 46.67 1.06
2 0 25 20.58 0.81
3 0 25 0.83 0.37
4 0 25 2.82 0.42
5 0 25 16.73 1.01
6 0 25 11.01 1.04
-6 1 25 2.85 0.49
-5 1 25 40.39 1.29
-4 1 25 7.87 0.48
-3 1 25 2.85 0.38
-2 1 25 8.01 0.51
-1 1 25 108.03 1.73
0 1 25 34.23 0.86
1 1 25 110.46 1.79
2 1 25 8.71 0.52
3 1 25 3.19 0.44
4 1 25 7.36 0.57
5 1 25 40.19 1.1
6 1 25 2.37 0.49
-6 2 25 7.74 1.28
-5 2 25 3.82 0.56
-4 2 25 8.2 0.5
-3 2 25 64.37 2.23
-2 2 25 43.52 1.31
-1 2 25 119.31 2.17
0 2 25 96.98 1.56
1 2 25 115.26 1.88
2 2 25 44.34 1.06
3 2 25 54.32 1.48
4 2 25 8.71 0.58
5 2 25 4.03 0.55
6 2 25 8.53 0.68
-6 3 25 12.89 1.32
-5 3 25 24.12 2.93
-4 3 25 38.25 2.69
-3 3 25 37.85 1.14
-2 3 25 4.47 0.48
-1 3 25 6.93 0.44
0 3 25 205.27 2.7
1 3 25 6.23 0.5
2 3 25 6.24 0.49
3 3 25 34.54 1.06
4 3 25 37.97 1.37
5 3 25 28.28 1.12
6 3 25 14.6 1.33
-6 4 25 3.13 0.53
-5 4 25 4.95 0.66
-4 4 25 7.75 0.79
-3 4 25 1.94 0.4
-2 4 25 4.55 0.49
-1 4 25 0.92 0.36
0 4 25 61.12 1
1 4 25 0.98 0.46
2 4 25 4.55 0.47
3 4 25 2.1 0.41
4 4 25 8.13 0.65
5 4 25 5.08 0.55
6 4 25 3 0.5
-6 5 25 17.98 1.08
-5 5 25 5.4 0.73
-4 5 25 16.02 0.83
-3 5 25 5.71 0.46
-2 5 25 107.26 2.02
-1 5 25 27.42 0.72
0 5 25 93.81 2.12
1 5 25 28.23 0.76
2 5 25 101.73 1.78
3 5 25 5.37 0.46
4 5 25 12.97 1.23
5 5 25 4.94 0.55
6 5 25 18.3 0.79
-6 6 25 6.33 0.82
-5 6 25 8.17 0.96
-4 6 25 4.67 0.59
-3 6 25 18.32 0.79
-2 6 25 21.52 0.72
-1 6 25 2.15 0.41
0 6 25 8 0.52
1 6 25 2.41 0.53
2 6 25 20.39 0.79
3 6 25 16.53 1.03
4 6 25 4.51 0.76
5 6 25 7.45 0.58
6 6 25 6.25 0.49
-5 7 25 25.84 1.36
-4 7 25 65.79 1.76
-3 7 25 15.83 0.95
-2 7 25 78.69 1.98
-1 7 25 60.36 1.12
0 7 25 17.63 0.64
1 7 25 61.13 2.8
2 7 25 72.46 2.76
3 7 25 12.94 0.97
4 7 25 67.93 2.62
5 7 25 25.52 1.59
-5 8 25 2.67 0.8
-4 8 25 1.19 0.63
-3 8 25 4.61 0.73
-2 8 25 6.67 0.57
-1 8 25 24.69 0.76
0 8 25 1.87 0.47
1 8 25 22.82 1.48
2 8 25 6.34 0.61
3 8 25 4.02 1.23
4 8 25 1.04 1.14
5 8 25 3.17 1.05
-5 9 25 6.42 0.86
-4 9 25 5.82 0.69
-3 9 25 69.31 1.86
-2 9 25 11.75 0.93
-1 9 25 60.09 1.65
0 9 25 6.84 0.59
1 9 25 55.94 3.29
2 9 25 11.63 1.17
3 9 25 57.97 2.18
4 9 25 7.09 1.26
5 9 25 7.8 1.15
-5 10 25 1.42 0.73
-4 10 25 3.92 0.65
-3 10 25 18.88 0.98
-2 10 25 18.56 1.04
-1 10 25 18.78 0.74
0 10 25 3.32 0.52
1 10 25 17.17 1.35
2 10 25 15.98 1.27
3 10 25 16.87 1.17
5 10 25 2.83 0.65
-4 11 25 22.1 1.19
-3 11 25 35.16 1.24
-2 11 25 36.63 1.32
-1 11 25 38.5 1.38
0 11 25 34.41 3.27
1 11 25 34.73 1.8
2 11 25 31.97 1.64
3 11 25 30.49 2.67
4 11 25 21.32 1.19
-4 12 25 4.28 0.63
-3 12 25 0.68 0.62
-2 12 25 13.84 0.99
-1 12 25 0.15 0.52
0 12 25 10.52 0.7
1 12 25 -0.02 0.8
2 12 25 13.73 0.77
3 12 25 0.75 0.5
4 12 25 3.38 0.71
-4 13 25 16.19 0.77
-3 13 25 7.02 0.71
-2 13 25 19.59 1.3
-1 13 25 0.59 0.5
0 13 25 1.8 0.56
1 13 25 0.64 0.5
2 13 25 19.59 0.84
3 13 25 6.14 0.57
-3 14 25 1.04 0.56
-2 14 25 -0.04 0.97
-1 14 25 3.53 0.53
0 14 25 16.72 1.53
1 14 25 4.03 0.56
2 14 25 -0.09 0.62
3 14 25 1.67 0.67
-2 15 25 2.56 0.63
-1 15 25 14.7 0.67
0 15 25 0.58 0.39
1 15 25 12.77 0.71
2 15 25 3.15 0.47
-1 16 25 1.06 0.44
0 16 25 11.65 0.59
1 16 25 1.83 0.47
0 0 26 33.32 0.98
1 0 26 14.91 0.55
2 0 26 7.01 0.5
3 0 26 -0.02 0.99
4 0 26 3.95 0.51
5 0 26 4.28 0.56
6 0 26 0.45 0.45
-6 1 26 14.54 1.3
-5 1 26 9.47 0.96
-4 1 26 78.99 2
-3 1 26 36.4 1.32
-2 1 26 93.86 2.05
-1 1 26 85.37 1.5
0 1 26 178.51 2.42
1 1 26 83.87 1.39
2 1 26 93.27 1.85
3 1 26 36.57 0.93
4 1 26 68.72 5.52
5 1 26 8.14 0.62
6 1 26 15.05 1.27
-6 2 26 4.76 0.72
-5 2 26 0.08 0.49
-4 2 26 50.51 3.15
-3 2 26 2.12 0.36
-2 2 26 76.54 2.7
-1 2 26 12.58 0.5
0 2 26 15.58 0.54
1 2 26 12.82 0.59
2 2 26 75.91 1.66
3 2 26 1.47 0.41
4 2 26 54.45 1.58
5 2 26 0.02 0.49
6 2 26 4.66 0.52
-6 3 26 0.53 0.48
-5 3 26 29.93 4.23
-4 3 26 9.1 0.73
-3 3 26 86.72 3.14
-2 3 26 43.82 1.51
-1 3 26 157.12 2.26
0 3 26 54.26 1.06
1 3 26 151.25 2.21
2 3 26 44.57 0.94
3 3 26 79.6 1.51
4 3 26 9.31 0.81
5 3 26 30.66 1.66
6 3 26 1.33 0.44
-6 4 26 4.3 0.74
-5 4 26 0.96 0.57
-4 4 26 20.43 1.32
-3 4 26 0.17 0.39
-2 4 26 -0.22 0.98
-1 4 26 2.21 0.39
0 4 26 5.24 0.43
1 4 26 2.54 0.46
2 4 26 -0.02 1
3 4 26 0.61 0.39
4 4 26 20.58 1.77
5 4 26 0.27 0.48
6 4 26 3.64 0.47
-6 5 26 14.74 0.99
-5 5 26 20.32 1.56
-4 5 26 10.89 0.67
-3 5 26 29 1.01
-2 5 26 3.07 0.47
-1 5 26 47.34 1.02
0 5 26 20.47 0.72
1 5 26 49.58 1.24
2 5 26 3.44 0.45
3 5 26 27.01 1.16
4 5 26 10.59 0.91
5 5 26 22.23 1.31
6 5 26 15.63 1.96
-5 6 26 21.97 1.27
-4 6 26 10.07 0.93
-3 6 26 34.76 1.3
-2 6 26 71.04 1.54
-1 6 26 -0.07 0.96
0 6 26 16.08 0.61
1 6 26 0.28 0.47
2 6 26 69.9 3.05
3 6 26 29.05 1.43
4 6 26 10.54 0.95
5 6 26 21.06 1.38
-5 7 26 1.49 0.76
-4 7 26 19.85 0.94
-3 7 26 4.55 0.75
-2 7 26 26.25 0.88
-1 7 26 5.4 0.47
0 7 26 46.07 1.17
1 7 26 5.1 0.59
2 7 26 24.97 1.83
3 7 26 3.65 0.72
4 7 26 19.59 1.58
5 7 26 1.43 1.05
-5 8 26 15.04 1.07
-4 8 26 14.87 0.86
-3 8 26 19.16 1.5
-2 8 26 8.93 0.7
-1 8 26 7.04 0.58
0 8 26 22.72 0.82
1 8 26 6.49 0.68
2 8 26 8.78 0.75
3 8 26 18.56 2.69
4 8 26 16.9 1.49
5 8 26 14.22 1.3
-5 9 26 4.74 0.8
-4 9 26 12.57 0.8
-3 9 26 3.68 0.72
-2 9 26 18.36 1.01
-1 9 26 3.27 0.49
0 9 26 21.78 0.8
1 9 26 3.64 0.99
2 9 26 17.91 1.32
3 9 26 3.94 0.71
4 9 26 13.14 1.41
5 9 26 5.89 1.08
-5 10 26 5.91 0.81
-4 10 26 1.64 0.6
-3 10 26 8.83 0.8
-2 10 26 0.94 0.69
-1 10 26 9.9 0.68
0 10 26 8.99 0.83
1 10 26 9.24 1.1
2 10 26 0.6 0.81
3 10 26 7.76 0.91
-4 11 26 1.83 0.57
-3 11 26 40.96 1.32
-2 11 26 1.39 0.8
-1 11 26 59.52 4.56
0 11 26 14.71 1.84
1 11 26 60.73 2.4
2 11 26 0.49 0.78
3 11 26 31.83 1.48
-4 12 26 1.74 0.55
-3 12 26 0.69 0.61
-2 12 26 3.37 0.7
-1 12 26 5.89 0.6
0 12 26 1.26 0.62
1 12 26 5.52 0.96
2 12 26 2.61 0.81
3 12 26 0.29 0.65
4 12 26 2.07 0.65
-3 13 26 16.29 0.84
-2 13 26 0.73 0.62
-1 13 26 23.24 0.84
0 13 26 6.37 0.72
1 13 26 19.35 1.3
2 13 26 0.68 0.71
3 13 26 13.94 1.74
-3 14 26 5.02 0.61
-2 14 26 13.37 0.81
-1 14 26 0.13 0.46
0 14 26 0.75 0.49
1 14 26 0.26 0.71
2 14 26 12.83 0.66
-2 15 26 8.88 0.69
-1 15 26 16.97 0.69
0 15 26 5.57 0.65
1 15 26 16.47 0.74
2 15 26 8.91 0.57
0 16 26 1.65 0.66
1 0 27 43.32 1.22
2 0 27 1.28 0.43
3 0 27 44.36 1.34
4 0 27 105.41 6.51
5 0 27 14.53 1.1
6 0 27 0.56 0.43
-6 1 27 3.11 0.46
-5 1 27 1.29 0.51
-4 1 27 4.77 0.52
-3 1 27 46.91 1.67
-2 1 27 1.73 0.45
-1 1 27 22.95 0.64
0 1 27 19.61 0.58
1 1 27 20.84 0.68
2 1 27 2.05 0.44
3 1 27 50.37 1.27
4 1 27 4.74 0.53
5 1 27 0.83 0.5
6 1 27 3.54 0.48
-6 2 27 6.55 0.96
-5 2 27 14.04 1.17
-4 2 27 73.55 5.11
-3 2 27 14.44 0.89
-2 2 27 51 1.83
-1 2 27 67.2 1.19
0 2 27 35.57 0.74
1 2 27 65.69 1.39
2 2 27 50.44 1.02
3 2 27 12.83 0.56
4 2 27 79.08 2.02
5 2 27 14.81 1.48
6 2 27 7.8 1.06
-6 3 27 5.65 1.32
-5 3 27 1.46 0.58
-4 3 27 6.71 0.6
-3 3 27 3.94 0.45
-2 3 27 55.24 1.83
-1 3 27 6.91 0.44
0 3 27 22.77 0.62
1 3 27 6.5 0.51
2 3 27 53.2 1.36
3 3 27 3.95 0.48
4 3 27 6.4 0.84
5 3 27 1.33 0.49
6 3 27 7.41 0.65
-5 4 27 9.14 1.14
-4 4 27 13.4 1.21
-3 4 27 12 0.63
-2 4 27 29.94 1.29
-1 4 27 17.59 0.55
0 4 27 24.16 0.63
1 4 27 17.34 0.64
2 4 27 32.53 0.98
3 4 27 10.69 0.98
4 4 27 12.79 1.44
5 4 27 9.63 0.86
-5 5 27 1.27 0.54
-4 5 27 20.75 1.59
-3 5 27 -0.08 0.93
-2 5 27 19.51 0.8
-1 5 27 21.97 0.67
0 5 27 57.51 1.34
1 5 27 21.02 0.79
2 5 27 21.47 0.81
3 5 27 0.36 0.54
4 5 27 21.06 3.64
5 5 27 1.28 0.47
-5 6 27 19.21 1.17
-4 6 27 13.17 0.8
-3 6 27 37.88 2.03
-2 6 27 30.25 0.86
-1 6 27 19.78 0.66
0 6 27 28.78 1.02
1 6 27 19.88 0.96
2 6 27 30.43 1.84
3 6 27 38.47 2.03
4 6 27 13.27 1
5 6 27 19.98 2.11
-5 7 27 13.33 1.04
-4 7 27 23.86 1.16
-3 7 27 18.48 1.09
-2 7 27 39.15 1.93
-1 7 27 66.22 1.61
0 7 27 40.03 1.27
1 7 27 63.64 2.77
2 7 27 45.7 2.28
3 7 27 17.82 2.29
4 7 27 25.7 1.72
5 7 27 15.24 1.33
-5 8 27 2.35 0.75
-4 8 27 1.52 0.61
-3 8 27 5.31 0.73
-2 8 27 0.57 0.72
-1 8 27 4.73 0.58
0 8 27 0.74 0.47
1 8 27 5.53 1.03
2 8 27 0.72 0.71
3 8 27 3.97 0.7
4 8 27 1.01 1.13
5 8 27 1.85 1.03
-5 9 27 5.23 0.8
-4 9 27 3.02 0.62
-3 9 27 33.42 1.22
-2 9 27 0.24 0.68
-1 9 27 41.43 2.48
0 9 27 49.67 2.96
1 9 27 38.67 1.89
2 9 27 0.17 0.77
3 9 27 29.86 4.37
4 9 27 2.18 1.14
-4 10 27 6.04 0.66
-3 10 27 0.78 0.65
-2 10 27 16.63 1.32
-1 10 27 7.84 0.64
0 10 27 16.45 0.96
1 10 27 7.19 1.02
2 10 27 14.37 1.18
3 10 27 1.47 0.73
-4 11 27 6.28 0.64
-3 11 27 31.64 1.15
-2 11 27 5.75 0.74
-1 11 27 38.07 1.91
0 11 27 26 1.44
1 11 27 35.96 1.77
2 11 27 5.25 0.89
3 11 27 25.04 1.29
-3 12 27 2.92 0.63
-2 12 27 2.95 0.67
-1 12 27 10.01 0.64
0 12 27 -0.02 0.8
1 12 27 8.61 1.01
2 12 27 3.02 0.79
3 12 27 2.25 0.67
-3 13 27 0.4 0.55
-2 13 27 13.65 1.09
-1 13 27 1.06 0.48
0 13 27 3.37 0.63
1 13 27 0.96 0.74
2 13 27 12.19 1
3 13 27 0.19 0.56
-2 14 27 29.68 1.5
-1 14 27 4.93 0.52
0 14 27 2.37 0.76
1 14 27 4.56 0.81
2 14 27 26.14 1.27
-1 15 27 10.09 0.56
0 15 27 -0.06 0.63
1 15 27 9.04 0.89
0 0 28 42.98 1.13
1 0 28 1.41 0.56
2 0 28 19.77 0.86
3 0 28 3.83 0.66
4 0 28 5.6 0.53
5 0 28 3.06 0.53
-5 1 28 18.25 1.14
-4 1 28 6.37 0.56
-3 1 28 1.26 0.61
-2 1 28 8.59 0.54
-1 1 28 53.57 1.23
0 1 28 37.02 0.75
1 1 28 50.95 1.19
2 1 28 8.6 0.52
3 1 28 0.8 0.61
4 1 28 5.67 0.53
5 1 28 17.35 0.98
-5 2 28 0.46 0.49
-4 2 28 4.62 0.59
-3 2 28 12.62 1.05
-2 2 28 43.03 1.66
-1 2 28 3.06 0.94
1 2 28 3.68 0.67
2 2 28 45.08 1.29
3 2 28 12.15 0.83
4 2 28 3.81 0.59
5 2 28 0.37 0.48
-5 3 28 6.19 0.79
-4 3 28 3.53 0.54
-3 3 28 12.06 0.76
-2 3 28 9.6 0.57
-1 3 28 25.66 0.64
0 3 28 21.92 0.6
1 3 28 22.57 0.7
2 3 28 8.46 0.52
3 3 28 11.12 0.74
4 3 28 2.88 0.76
5 3 28 5.81 0.88
-5 4 28 7.86 0.83
-4 4 28 7.49 0.6
-3 4 28 26.64 1.65
-2 4 28 2.49 0.55
-1 4 28 53.06 0.97
0 4 28 0.64 0.36
1 4 28 53.81 1.33
2 4 28 2.48 0.43
3 4 28 24.86 1.76
4 4 28 5.92 1.94
5 4 28 8.47 0.62
-5 5 28 2.68 0.54
-4 5 28 0.94 0.49
-3 5 28 6.1 0.63
-2 5 28 19.43 1.15
-1 5 28 31.55 0.79
0 5 28 7.49 0.51
1 5 28 31.23 1.12
2 5 28 21.15 0.81
3 5 28 6.25 0.64
4 5 28 0.62 0.71
5 5 28 2.74 0.64
-5 6 28 20.75 1.18
-4 6 28 15.31 0.7
-3 6 28 34.14 1.65
-2 6 28 14.42 1.01
-1 6 28 89.05 1.65
0 6 28 13.99 0.59
1 6 28 83.06 3.23
2 6 28 15.66 1.6
3 6 28 33.87 4.09
4 6 28 14.15 1.66
5 6 28 18.21 0.88
-5 7 28 15.81 1.05
-4 7 28 5.19 0.89
-3 7 28 11.81 0.85
-2 7 28 18.88 1.07
-1 7 28 50.9 2
0 7 28 14.68 0.6
1 7 28 56.46 2.56
2 7 28 18.36 2.69
3 7 28 10.73 1.56
4 7 28 6.48 1.24
5 7 28 14.63 1.32
-5 8 28 14.59 1
-4 8 28 24.93 0.99
-3 8 28 5.44 0.73
-2 8 28 40.56 1.39
-1 8 28 12.72 1.29
0 8 28 46.08 3
1 8 28 14.07 2.02
2 8 28 41.84 6.15
3 8 28 5.34 0.71
4 8 28 27.8 1.68
-4 9 28 16.26 0.83
-3 9 28 6.01 0.74
-2 9 28 9.07 0.84
-1 9 28 -0.45 0.83
0 9 28 2.17 0.68
1 9 28 0.23 0.84
2 9 28 8.09 1.01
3 9 28 4.97 1.51
-4 10 28 31.7 1.05
-3 10 28 38.43 2.04
-2 10 28 8.9 0.81
-1 10 28 20.62 0.98
0 10 28 113.31 8.94
1 10 28 20.09 1.37
2 10 28 7.85 0.96
3 10 28 31.52 1.43
-4 11 28 10.78 0.97
-3 11 28 12.06 0.79
-2 11 28 2.09 0.67
-1 11 28 11.89 0.8
0 11 28 13.12 0.85
1 11 28 12.4 1.11
2 11 28 1.17 0.74
3 11 28 9.04 0.87
-3 12 28 13.46 0.78
-2 12 28 1.28 0.61
-1 12 28 16.44 1.04
0 12 28 60.26 6.85
1 12 28 15.89 1.16
2 12 28 1.37 0.7
3 12 28 10.61 0.84
-2 13 28 0.74 0.58
-1 13 28 0.59 0.45
0 13 28 -0.29 0.68
1 13 28 0.37 0.68
2 13 28 1.34 0.67
-2 14 28 2.82 0.59
-1 14 28 2.37 0.46
0 14 28 8.25 0.89
1 14 28 2.98 0.73
1 0 29 56.75 1.29
2 0 29 0.66 0.46
3 0 29 31.39 2.11
4 0 29 1.59 0.57
5 0 29 13.27 1.02
-5 1 29 14.4 1.06
-4 1 29 2.13 0.48
-3 1 29 17.23 1.4
-2 1 29 4.44 0.48
-1 1 29 6.23 0.52
0 1 29 16.11 0.55
1 1 29 6.04 0.5
2 1 29 4.38 0.48
3 1 29 18.33 1.26
4 1 29 2.23 0.57
5 1 29 14.35 1.05
-5 2 29 27.44 1.06
-4 2 29 43.78 2.15
-3 2 29 27.55 1.82
-2 2 29 12.93 0.76
-1 2 29 86.63 2.34
0 2 29 139.95 2.17
1 2 29 84.3 1.92
2 2 29 12.52 0.61
3 2 29 28.39 1.82
4 2 29 36 1.5
5 2 29 26.62 1.03
-5 3 29 14.11 1.99
-4 3 29 4.04 0.55
-3 3 29 5.54 0.68
-2 3 29 1.98 0.68
-1 3 29 33.33 0.87
0 3 29 97.34 1.64
1 3 29 31.17 0.98
2 3 29 2.61 0.63
3 3 29 5.53 0.64
4 3 29 5.45 0.92
5 3 29 14.51 2.41
-5 4 29 1.46 0.52
-4 4 29 12.07 0.8
-3 4 29 3.75 0.74
-2 4 29 46.77 2.7
-1 4 29 6.68 0.5
0 4 29 26.04 0.7
1 4 29 6.29 0.51
2 4 29 45.19 1.46
3 4 29 4.22 0.62
4 4 29 11.21 1.29
5 4 29 1.98 0.62
-5 5 29 3.92 0.54
-4 5 29 3.64 0.51
-3 5 29 12.43 0.83
-2 5 29 28.61 1.23
-1 5 29 13.67 0.62
0 5 29 2.06 0.42
1 5 29 14.1 0.98
2 5 29 29.49 1.42
3 5 29 11.84 1.08
4 5 29 3.16 0.74
5 5 29 4.1 0.64
-5 6 29 6.55 0.82
-4 6 29 8.36 0.58
-3 6 29 4.73 0.59
-2 6 29 9.14 0.89
-1 6 29 2.17 0.59
0 6 29 10.82 0.75
1 6 29 2.39 0.74
2 6 29 9.8 1.34
3 6 29 3.73 0.74
4 6 29 8.11 0.79
5 6 29 4.26 1.09
-4 7 29 5.75 0.65
-3 7 29 5.13 0.72
-2 7 29 19.88 1.06
-1 7 29 8.52 0.7
0 7 29 3.79 0.65
1 7 29 8.19 1.16
2 7 29 20.29 1.98
3 7 29 4.04 0.69
4 7 29 7.21 1.26
-4 8 29 6.04 0.65
-3 8 29 19.02 0.95
-2 8 29 2.23 1.02
-1 8 29 22.77 1.05
0 8 29 0.39 0.59
1 8 29 24.88 3.3
2 8 29 2.22 0.7
3 8 29 17.29 2.6
4 8 29 5.64 1.2
-4 9 29 15.56 0.87
-3 9 29 1.97 0.65
-2 9 29 2.65 0.7
-1 9 29 5.96 1.09
0 9 29 -0.37 0.85
1 9 29 5.35 0.97
2 9 29 1.38 0.78
3 9 29 1.45 0.59
-4 10 29 5.01 0.85
-3 10 29 5.61 0.69
-2 10 29 20.29 0.98
-1 10 29 2.42 0.61
0 10 29 6.95 0.73
1 10 29 3.08 0.86
2 10 29 15.97 1.14
3 10 29 5.1 0.75
-3 11 29 3.86 0.63
-2 11 29 1.91 0.63
-1 11 29 4.23 0.69
0 11 29 39.09 2.54
1 11 29 4.69 0.85
2 11 29 0.7 0.68
3 11 29 3.3 0.67
-3 12 29 -0.46 0.96
-2 12 29 14.21 0.81
-1 12 29 2.31 0.56
0 12 29 29.54 1.47
1 12 29 1.27 0.71
2 12 29 12.36 0.97
-2 13 29 4.49 0.61
-1 13 29 0.2 0.5
0 13 29 6.2 0.85
1 13 29 0.24 0.65
2 13 29 4.54 0.72
0 14 29 4.7 0.76
1 14 29 6.71 0.79
0 0 30 21.6 0.83
1 0 30 1.53 0.46
2 0 30 40.66 2
3 0 30 1.02 0.61
4 0 30 24.04 1.73
5 0 30 26.83 1.72
-5 1 30 26.55 1.03
-4 1 30 21.31 1.88
-3 1 30 8.42 0.93
-2 1 30 19.06 1.41
-1 1 30 12.46 0.59
0 1 30 28.81 0.68
1 1 30 12.39 0.59
2 1 30 18.67 1.1
3 1 30 7.93 0.81
4 1 30 21.4 1.66
5 1 30 25.25 0.99
-5 2 30 2.38 0.55
-4 2 30 -0.12 0.89
-3 2 30 18.71 1.28
-2 2 30 38.66 2.37
-1 2 30 17.54 0.71
0 2 30 28.1 0.68
1 2 30 16.97 0.69
2 2 30 40.42 1.58
3 2 30 17.74 0.84
4 2 30 0.38 0.51
5 2 30 2.55 0.64
-5 3 30 17.75 2.34
-4 3 30 13.63 1.25
-3 3 30 31.67 2.11
-2 3 30 1.76 0.67
-1 3 30 49.02 1.29
0 3 30 57.75 1.04
1 3 30 48.71 1.67
2 3 30 0.94 0.6
3 3 30 29.91 1.34
4 3 30 12.95 1.19
5 3 30 18.76 2.45
-5 4 30 3.94 0.53
-4 4 30 2.65 0.49
-3 4 30 24.45 1.1
-2 4 30 2.82 0.77
-1 4 30 37.44 1
0 4 30 9.11 0.64
1 4 30 37.06 1.73
2 4 30 3.1 0.63
3 4 30 24.59 1.46
4 4 30 3.39 0.75
5 4 30 4.03 0.63
-4 5 30 5.32 0.52
-3 5 30 1.88 0.69
-2 5 30 6.98 0.84
-1 5 30 4.39 0.62
0 5 30 8.6 0.71
1 5 30 3.86 0.77
2 5 30 6.49 0.67
3 5 30 2.17 0.56
4 5 30 5.3 0.77
-4 6 30 17.76 0.84
-3 6 30 19.95 1.53
-2 6 30 13.77 0.96
-1 6 30 34.77 1.08
0 6 30 107.11 2.62
1 6 30 37.46 4.79
2 6 30 13.76 2.26
3 6 30 18.73 1.92
4 6 30 19.2 1.55
-4 7 30 5.09 0.62
-3 7 30 2.56 0.65
-2 7 30 16.38 0.98
-1 7 30 2.68 0.59
0 7 30 7.51 0.92
1 7 30 3.18 0.76
2 7 30 14.12 0.94
3 7 30 2.54 0.64
4 7 30 4.53 1.18
-4 8 30 9.09 0.67
-3 8 30 2 0.64
-2 8 30 7.17 1.1
-1 8 30 12.94 0.85
0 8 30 29.91 2.6
1 8 30 13.34 2.61
2 8 30 7.22 1.18
3 8 30 1.59 0.59
4 8 30 8.42 1.23
-4 9 30 2.66 0.8
-3 9 30 2.21 0.63
-2 9 30 5.81 1.02
-1 9 30 0.48 0.58
0 9 30 -0.2 0.83
1 9 30 0.66 0.79
2 9 30 5.12 0.86
3 9 30 2.64 0.68
-3 10 30 0.56 0.57
-2 10 30 10.95 1.12
-1 10 30 12.89 0.8
0 10 30 26.89 1.21
1 10 30 11.27 1.06
2 10 30 9.28 0.93
3 10 30 0.15 0.57
-3 11 30 1.7 0.56
-2 11 30 6.67 0.69
-1 11 30 13.9 1.17
0 11 30 8.41 0.72
1 11 30 10.66 0.98
2 11 30 4.58 0.76
3 11 30 1.68 0.58
-2 12 30 1.08 0.56
-1 12 30 2.42 0.55
0 12 30 4.35 0.78
1 12 30 2.58 0.73
2 12 30 0.32 0.6
-1 13 30 12.88 0.91
0 13 30 0 0.63
1 13 30 10.99 0.91
1 0 31 0.41 0.62
2 0 31 37.68 2.34
3 0 31 1.1 0.84
4 0 31 0.64 0.53
5 0 31 9.6 1.01
-5 1 31 10.32 2.12
-4 1 31 5.75 0.61
-3 1 31 12.97 0.78
-2 1 31 8.12 0.72
-1 1 31 37.68 2.06
0 1 31 2.06 0.53
1 1 31 40.42 1.61
2 1 31 7.8 0.72
3 1 31 12.99 0.94
4 1 31 5.41 0.6
5 1 31 10.27 0.91
-4 2 31 3.81 0.59
-3 2 31 3.91 0.65
-2 2 31 18.47 1.27
-1 2 31 18.05 0.94
0 2 31 25.99 0.86
1 2 31 18.83 0.89
2 2 31 17.34 1.1
3 2 31 4.05 0.62
4 2 31 2.86 0.69
-4 3 31 7.76 0.71
-3 3 31 3.35 0.63
-2 3 31 20.15 1.1
-1 3 31 0.24 0.61
0 3 31 12.49 0.68
1 3 31 1.25 0.62
2 3 31 19.01 0.86
3 3 31 2.81 0.58
4 3 31 7.47 0.6
-4 4 31 -0.16 0.75
-3 4 31 1.1 0.65
-2 4 31 4.84 0.78
-1 4 31 13.38 0.76
0 4 31 1.1 0.53
1 4 31 13.01 0.78
2 4 31 3.73 0.62
3 4 31 0.93 0.55
4 4 31 0.17 0.67
-4 5 31 11.64 0.98
-3 5 31 19.5 0.97
-2 5 31 26.99 1.18
-1 5 31 9.45 0.81
0 5 31 52.53 1.52
1 5 31 9.58 1.41
2 5 31 28.32 1.18
3 5 31 19.66 1.45
4 5 31 11.3 1.53
-4 6 31 18.17 1.15
-3 6 31 -0.55 0.86
-2 6 31 0.51 0.69
-1 6 31 19.4 0.84
0 6 31 90.98 2.31
1 6 31 18.21 2.16
2 6 31 0.44 0.66
3 6 31 0.95 0.62
4 6 31 19.2 1.5
-4 7 31 0.42 0.5
-3 7 31 20.79 1.37
-2 7 31 7.16 0.79
-1 7 31 25.09 0.91
0 7 31 24.44 0.94
1 7 31 26.42 2.62
2 7 31 6.1 1.5
3 7 31 20.41 2.97
4 7 31 0.36 1.09
-3 8 31 4.49 0.66
-2 8 31 2.42 0.92
-1 8 31 4.42 0.66
0 8 31 0.43 0.53
1 8 31 5.93 0.89
2 8 31 2.43 1.05
3 8 31 4.87 0.65
-3 9 31 9.31 0.72
-2 9 31 1.82 0.86
-1 9 31 29.1 1.6
0 9 31 0.37 0.57
1 9 31 25.47 1.41
2 9 31 0.96 0.71
3 9 31 7.64 0.8
-3 10 31 5.1 0.62
-2 10 31 9.18 1.02
-1 10 31 2.75 0.61
0 10 31 -0.07 0.77
1 10 31 1.66 0.75
2 10 31 6.89 0.84
3 10 31 4.64 0.67
-2 11 31 9.38 0.99
-1 11 31 25.23 0.96
0 11 31 10.31 0.95
1 11 31 22.01 1.22
2 11 31 7.93 0.82
-1 12 31 8.19 0.63
0 12 31 13.82 1
1 12 31 6.9 0.81
0 0 32 2.63 0.75
1 0 32 0.32 0.6
2 0 32 0.05 0.61
3 0 32 1.04 0.58
4 0 32 -0.27 0.85
-4 1 32 21.08 1.52
-3 1 32 6.15 0.67
-2 1 32 24.88 1.6
-1 1 32 3 0.65
0 1 32 38.72 1.32
1 1 32 2.42 0.63
2 1 32 23.12 1.25
3 1 32 5.97 0.81
4 1 32 18.93 1.55
-4 2 32 4.34 0.57
-3 2 32 3.49 0.62
-2 2 32 0.84 0.62
-1 2 32 14.46 0.81
0 2 32 2.46 0.54
1 2 32 14.52 0.85
2 2 32 1.39 0.6
3 2 32 3.59 0.6
4 2 32 4.7 0.55
-4 3 32 9.66 0.73
-3 3 32 19.87 2.13
-2 3 32 8.25 0.72
-1 3 32 17.95 0.86
0 3 32 57.45 1.3
1 3 32 19.47 1.23
2 3 32 7.29 0.68
3 3 32 20.37 1.17
4 3 32 10.62 0.86
-4 4 32 1.88 0.55
-3 4 32 3.35 0.67
-2 4 32 2.52 0.72
-1 4 32 8.07 0.85
0 4 32 37.85 0.99
1 4 32 8.68 0.7
2 4 32 2.57 0.59
3 4 32 3.01 0.57
4 4 32 2.2 0.89
-4 5 32 2.01 0.44
-3 5 32 15.11 0.87
-2 5 32 6.37 0.78
-1 5 32 25.92 1.16
0 5 32 31.66 1.02
1 5 32 26.17 1.59
2 5 32 6.53 0.65
3 5 32 15.69 1.03
4 5 32 2.31 0.65
-4 6 32 4.37 0.55
-3 6 32 8.32 0.74
-2 6 32 0.63 0.67
-1 6 32 18.86 0.82
0 6 32 2.82 0.58
1 6 32 17.98 1.35
2 6 32 0.41 0.82
3 6 32 9.4 1.21
4 6 32 6.37 1.2
-3 7 32 4.49 0.9
-2 7 32 38.33 1.3
-1 7 32 13.63 0.73
0 7 32 11.51 0.71
1 7 32 13.36 0.93
2 7 32 37.54 4.54
3 7 32 2.97 0.78
-3 8 32 5.11 0.88
-2 8 32 4.78 0.93
-1 8 32 4.11 0.63
0 8 32 0.62 0.58
1 8 32 3.92 0.72
2 8 32 3.8 1.45
3 8 32 5.41 0.63
-3 9 32 6.69 0.88
-2 9 32 15.1 1.16
-1 9 32 1.27 0.6
0 9 32 15.45 1.15
1 9 32 1.65 0.75
2 9 32 13.14 1
3 9 32 5.84 0.71
-2 10 32 1.11 0.77
-1 10 32 10.04 0.69
0 10 32 1.31 0.69
1 10 32 8.3 0.89
2 10 32 1.33 0.65
-1 11 32 23.27 0.89
0 11 32 3.64 0.73
1 11 32 18.51 1.09
1 0 33 12.95 0.77
2 0 33 1.33 0.59
3 0 33 14.76 1.08
4 0 33 -0.08 0.81
-4 1 33 1.51 0.5
-3 1 33 29.98 2.29
-2 1 33 10.7 0.87
-1 1 33 1.8 0.61
0 1 33 2.81 0.52
1 1 33 1.68 0.6
2 1 33 10.05 0.8
3 1 33 29.45 1.54
4 1 33 1.24 0.49
-4 2 33 4.71 0.56
-3 2 33 8.47 0.67
-2 2 33 23.2 1.47
-1 2 33 28.46 1.55
0 2 33 0.6 0.49
1 2 33 26.44 0.97
2 2 33 23.61 1.05
3 2 33 9.99 0.86
4 2 33 5.09 0.8
-4 3 33 16.23 1.57
-3 3 33 7.69 0.74
-2 3 33 35.39 2.34
-1 3 33 11.39 0.76
0 3 33 35.05 0.94
1 3 33 10.97 0.74
2 3 33 34.09 1.38
3 3 33 8.47 0.64
4 3 33 16.51 2.6
-3 4 33 3.62 0.64
-2 4 33 6.54 0.76
-1 4 33 16.85 0.98
0 4 33 7.33 0.58
1 4 33 17.43 0.82
2 4 33 6 0.64
3 4 33 4.01 0.57
-3 5 33 2.78 0.62
-2 5 33 17.86 0.98
-1 5 33 5.32 0.77
0 5 33 11.67 0.8
1 5 33 5.38 0.77
2 5 33 18.24 1.68
3 5 33 3.02 0.53
-3 6 33 1.72 0.58
-2 6 33 2.35 0.67
-1 6 33 4.43 0.73
0 6 33 0.22 0.52
1 6 33 3.26 0.72
2 6 33 2.04 0.66
3 6 33 1.72 0.59
-3 7 33 7.17 0.91
-2 7 33 3.82 0.67
-1 7 33 24.42 1.06
0 7 33 1.13 0.52
1 7 33 22.47 1.36
2 7 33 3.11 0.66
3 7 33 6.87 0.79
-3 8 33 1.85 0.75
-2 8 33 2.11 0.82
-1 8 33 6.13 0.64
0 8 33 6.93 0.67
1 8 33 5.64 0.71
2 8 33 1.87 0.61
-2 9 33 4.71 0.86
-1 9 33 5.71 0.6
0 9 33 -0.06 0.67
1 9 33 4.99 0.8
2 9 33 3.16 0.71
-1 10 33 3.46 0.53
0 10 33 4.99 0.76
1 10 33 2.67 0.68
0 0 34 8.63 0.84
1 0 34 6.51 0.67
2 0 34 24.48 1.54
3 0 34 8.81 0.65
-3 1 34 3.9 0.58
-2 1 34 -0.11 0.96
-1 1 34 5.13 0.64
0 1 34 8.8 0.59
1 1 34 5.9 0.76
2 1 34 0.46 0.55
3 1 34 4.28 0.58
-3 2 34 6.8 0.68
-2 2 34 0.54 0.57
-1 2 34 28.66 1.3
0 2 34 18.13 0.83
1 2 34 26.55 0.96
2 2 34 0.49 0.55
3 2 34 7.15 0.61
-3 3 34 0.26 0.57
-2 3 34 6.27 0.64
-1 3 34 12.69 0.77
0 3 34 3.85 0.52
1 3 34 12.35 0.74
2 3 34 6.32 0.63
3 3 34 -0.26 0.85
-3 4 34 7.74 0.69
-2 4 34 9.74 0.79
-1 4 34 36.51 2.93
0 4 34 5.55 0.53
1 4 34 36.23 1.07
2 4 34 10.12 0.73
3 4 34 8.47 0.75
-3 5 34 4.87 0.62
-2 5 34 3.81 0.67
-1 5 34 19.39 0.99
0 5 34 0.02 0.5
1 5 34 19.1 1.47
2 5 34 3.89 0.69
3 5 34 5.23 0.58
-3 6 34 1.92 0.75
-2 6 34 8.4 0.74
-1 6 34 28.81 1.13
0 6 34 26.15 0.89
1 6 34 25.87 2.76
2 6 34 9.07 0.77
3 6 34 1.97 0.56
-2 7 34 3.07 0.82
-1 7 34 2.43 0.65
0 7 34 9.52 0.63
1 7 34 2.46 0.65
2 7 34 2.92 0.63
-2 8 34 8.27 0.92
-1 8 34 1.8 0.8
0 8 34 24.91 1.32
1 8 34 1.94 0.6
2 8 34 7.3 1.15
-1 9 34 3.57 0.81
0 9 34 1.27 0.67
1 9 34 2.51 0.69
1 0 35 25.64 0.91
2 0 35 0.26 0.64
3 0 35 0.47 0.5
-3 1 35 1.38 0.51
-2 1 35 3.12 0.58
-1 1 35 1.42 0.56
0 1 35 20.31 0.83
1 1 35 2.3 0.56
2 1 35 3.53 0.58
3 1 35 1.67 0.51
-3 2 35 8.36 0.61
-2 2 35 4.23 0.59
-1 2 35 20.67 0.84
0 2 35 0.73 0.46
1 2 35 20.9 0.84
2 2 35 4.3 0.59
3 2 35 7.87 0.6
-3 3 35 0.6 0.54
-2 3 35 3.54 0.65
-1 3 35 3.05 0.59
0 3 35 2.26 0.48
1 3 35 3.41 0.58
2 3 35 3.81 0.57
3 3 35 0.98 0.55
-3 4 35 1.22 0.75
-2 4 35 0.82 0.6
-1 4 35 4.05 0.69
0 4 35 26.17 0.87
1 4 35 4.06 0.57
2 4 35 1.14 0.52
3 4 35 0.41 0.65
-2 5 35 9.2 0.74
-1 5 35 17.9 0.92
0 5 35 4.95 0.56
1 5 35 17.16 0.92
2 5 35 8.93 0.78
-2 6 35 15.9 0.83
-1 6 35 11.14 0.79
0 6 35 21.82 0.98
1 6 35 11.1 0.79
2 6 35 15.21 2.18
-2 7 35 1.51 0.74
-1 7 35 0.29 0.74
0 7 35 10.86 0.77
1 7 35 0.31 0.57
2 7 35 2.17 0.69
-1 8 35 3.08 0.76
0 8 35 1.44 0.68
1 8 35 3.5 0.73
0 0 36 1.84 0.65
1 0 36 0.73 0.52
2 0 36 16.09 0.82
-2 1 36 4.51 0.56
-1 1 36 0.37 0.52
0 1 36 12.47 0.59
1 1 36 0.33 0.51
2 1 36 4.45 0.57
-2 2 36 4.66 0.57
-1 2 36 8.18 0.64
0 2 36 1.86 0.45
1 2 36 8.29 0.63
2 2 36 4.54 0.56
-2 3 36 23.76 1.81
-1 3 36 4.87 0.59
0 3 36 0.62 0.43
1 3 36 4.6 0.56
2 3 36 26.57 0.86
-2 4 36 12.64 0.77
-1 4 36 4.04 0.66
0 4 36 0.76 0.48
1 4 36 4 0.55
2 4 36 13.07 0.67
-2 5 36 11.82 0.99
-1 5 36 5.46 0.66
0 5 36 0.94 0.61
1 5 36 5.5 0.68
2 5 36 11.6 0.96
-1 6 36 4.43 0.62
0 6 36 7.81 0.7
1 6 36 3.66 0.62
1 0 37 0.57 0.49
2 0 37 -0.41 0.67
-2 1 37 2.95 0.78
-1 1 37 5.66 0.57
0 1 37 12.2 0.56
1 1 37 5.27 0.56
2 1 37 2.43 0.75
-1 2 37 5.19 0.56
0 2 37 1.33 0.42
1 2 37 5.21 0.56
-1 3 37 1.49 0.5
0 3 37 13.91 0.71
1 3 37 0.8 0.48
-1 4 37 7.98 0.69
0 4 37 0.69 0.57
1 4 37 8.16 0.7
