#------------------------------------------------------------------------------
#$Date: 2022-05-07 06:13:32 +0300 (Sat, 07 May 2022) $
#$Revision: 275196 $
#$URL: file:///home/coder/svn-repositories/cod/cif/2/02/26/2022602.cif $
#------------------------------------------------------------------------------
#
# This file is available in the Crystallography Open Database (COD),
# http://www.crystallography.net/. The original data for this entry
# were provided by IUCr Journals, http://journals.iucr.org/.
#
# The file may be used within the scientific community so long as
# proper attribution is given to the journal article from which the
# data were obtained.
#
data_2022602
loop_
_publ_author_name
'Gordon, Matthew N.'
'Liu, Yanyao'
'Shafei, Ibrahim H.'
'Brown, M. Kevin'
'Skrabalak, Sara E.'
_publ_section_title
;
 Crystal structures of three \b-halolactic acids: hydrogen bonding
 resulting in differing <i>Z</i>'
;
_journal_coeditor_code           VP3024
_journal_issue                   4
_journal_name_full               'Acta Crystallographica Section C'
_journal_page_first              257
_journal_page_last               264
_journal_paper_doi               10.1107/S2053229622002856
_journal_volume                  78
_journal_year                    2022
_chemical_formula_moiety         'C3 H5 I O3'
_chemical_formula_sum            'C3 H5 I O3'
_chemical_formula_weight         215.97
_chemical_name_common            '3-Iodolactic acid'
_chemical_name_systematic
;
2-Hydroxy-3-iodopropanoic acid
;
_space_group_crystal_system      monoclinic
_space_group_IT_number           14
_space_group_name_Hall           '-P 2ybc'
_space_group_name_H-M_alt        'P 1 21/c 1'
_atom_sites_solution_hydrogens   mixed
_audit_creation_method
;
Olex2 1.5
(compiled 2021.07.19 svn.r715e62df for OlexSys, GUI svn.r6383)
;
_cell_angle_alpha                90
_cell_angle_beta                 92.848(3)
_cell_angle_gamma                90
_cell_formula_units_Z            4
_cell_length_a                   11.4762(8)
_cell_length_b                   5.4370(4)
_cell_length_c                   9.1941(7)
_cell_measurement_reflns_used    6362
_cell_measurement_temperature    153.00
_cell_measurement_theta_max      27.035
_cell_measurement_theta_min      3.555
_cell_volume                     572.97(7)
_computing_cell_refinement
;
SAINT (Bruker, 2016)
;
_computing_data_collection
;
APEX3 (Bruker, 2016)
;
_computing_data_reduction
;
SAINT (Bruker, 2016)
;
_computing_molecular_graphics
;
OLEX2 (Dolomanov <i>et al.</i>, 2009)
;
_computing_publication_material
;
OLEX2 (Dolomanov <i>et al.</i>, 2009),
Mercury (Macrae <i>et al.</i>, 2020) and
CrystalExplorer (Spackman <i>et al.</i>, 2021)
;
_computing_structure_refinement
;
SHELXL2017 (Sheldrick, 2015<i>b</i>)
;
_computing_structure_solution
;
SHELXT2018 (Sheldrick, 2015<i>a</i>)
;
_diffrn_ambient_temperature      153.00
_diffrn_measured_fraction_theta_full 0.999
_diffrn_measured_fraction_theta_max 0.999
_diffrn_measurement_device_type  'Bruker APEXII CCD'
_diffrn_measurement_method       '\f and \w scans'
_diffrn_radiation_probe          x-ray
_diffrn_radiation_type           MoK\a
_diffrn_radiation_wavelength     0.71073
_diffrn_reflns_av_R_equivalents  0.0558
_diffrn_reflns_av_unetI/netI     0.0240
_diffrn_reflns_limit_h_max       14
_diffrn_reflns_limit_h_min       -14
_diffrn_reflns_limit_k_max       7
_diffrn_reflns_limit_k_min       -6
_diffrn_reflns_limit_l_max       11
_diffrn_reflns_limit_l_min       -11
_diffrn_reflns_number            16586
_diffrn_reflns_theta_full        25.242
_diffrn_reflns_theta_max         27.492
_diffrn_reflns_theta_min         3.555
_exptl_absorpt_coefficient_mu    5.491
_exptl_absorpt_correction_T_max  0.7456
_exptl_absorpt_correction_T_min  0.5558
_exptl_absorpt_correction_type   multi-scan
_exptl_absorpt_process_details
;
(SADABS2016; Bruker, 2016)
;
_exptl_crystal_colour            colourless
_exptl_crystal_density_diffrn    2.504
_exptl_crystal_description       plate
_exptl_crystal_F_000             400
_exptl_crystal_size_max          0.27
_exptl_crystal_size_mid          0.16
_exptl_crystal_size_min          0.06
_refine_diff_density_max         0.593
_refine_diff_density_min         -0.665
_refine_ls_extinction_method     none
_refine_ls_goodness_of_fit_ref   1.095
_refine_ls_hydrogen_treatment    mixed
_refine_ls_matrix_type           full
_refine_ls_number_parameters     69
_refine_ls_number_reflns         1308
_refine_ls_number_restraints     0
_refine_ls_restrained_S_all      1.095
_refine_ls_R_factor_all          0.0337
_refine_ls_R_factor_gt           0.0246
_refine_ls_shift/su_max          0.000
_refine_ls_shift/su_mean         0.000
_refine_ls_structure_factor_coef Fsqd
_refine_ls_weighting_details
'w=1/[\s^2^(Fo^2^)+(0.0197P)^2^+1.2602P] where P=(Fo^2^+2Fc^2^)/3'
_refine_ls_weighting_scheme      calc
_refine_ls_wR_factor_gt          0.0540
_refine_ls_wR_factor_ref         0.0573
_reflns_number_gt                1102
_reflns_number_total             1308
_reflns_threshold_expression     'I > 2\s(I)'
_cod_data_source_file            vp3024sup1.cif
_cod_data_source_block           21166
_cod_original_sg_symbol_H-M      'P 21/c'
_cod_database_code               2022602
_shelx_space_group_comment
;
The symmetry employed for this shelxl refinement is uniquely defined
by the following loop, which should always be used as a source of
symmetry information in preference to the above space-group names.
They are only intended as comments.
;
_shelx_estimated_absorpt_t_min   0.319
_shelx_estimated_absorpt_t_max   0.734
_shelx_hkl_file
;
   0   0  -1    0.40    0.70
   0   0   1    0.50    1.00
   0   0   1   -0.90    0.50
   0   0   1    0.10    0.50
   0   0   1   -0.20    0.50
   0   0  -1    0.60    0.60
   0   0  -1   -0.30    1.00
   0   0  -1    0.40    0.70
   0   0   2 3449.35  167.38
   0   0  -2 3385.86  167.18
   0   0   2 3505.65  170.08
   0   0  -2 3530.55  167.68
   0   0   2 3467.95  167.38
   0   0  -2 3334.97  167.28
   0   0  -2 3452.15  170.08
   0   0   3    1.20    1.80
   0   0   3   -2.70    1.70
   0   0  -3    0.60    2.00
   0   0  -3    0.30    1.60
   0   0  -3    1.40    1.80
   0   0   3    1.30    1.80
   0   0   3    0.80    3.10
   0   0  -3   -0.40    3.30
   0   0  -4  371.66   22.70
   0   0  -4  381.06   22.80
   0   0   4  369.36   26.80
   0   0   4  402.36   23.00
   0   0  -4  372.96   23.30
   0   0   4  385.96   23.40
   0   0  -4  388.16   27.80
   0   0   5    6.20    7.00
   0   0   5    2.40    3.50
   0   0   5   -0.30    2.70
   0   0  -5    0.00    3.20
   0   0  -5    0.30    3.10
   0   0  -5    0.40    6.20
   0   0   5   -1.60    3.10
   0   0   6  499.15   31.30
   0   0   6  495.15   30.50
   0   0   6  459.05   36.40
   0   0  -6  492.95   31.40
   0   0  -6  473.55   30.30
   0   0  -6  514.65   30.90
   0   0   6  516.15   30.70
   0   0   7    7.00    5.40
   0   0  -7   -1.60    4.60
   0   0   7    4.00    4.40
   0   0   7    6.10   10.30
   0   0   7    7.40    6.30
   0   0   7    1.30    7.80
   0   0  -7   -6.70    4.30
   0   0   8  793.72   58.39
   0   0   8  863.91   50.79
   0   0   8  806.12   49.10
   0   0  -8  852.51   49.70
   0   0   8  837.92   49.30
   0   0  -9   -0.30    6.70
   0   0   9    8.80    8.50
   0   0  -9    4.30    9.60
   0   0  -9   -2.30    6.40
   0   0   9   -9.80   14.50
   0   0   9   -8.40    8.80
   0   0   9  -12.50    5.90
   0   0   9   -9.60   15.40
   0   0  10  256.47   39.20
   0   0  10  213.48   22.20
   0   0  10  348.37   44.40
   0   0 -10  217.98   23.40
   0   0  10  201.78   24.60
   0   0 -10  203.98   22.70
   0   0  10  221.58   25.80
   0   0  10  207.48   27.90
   0   0 -10  243.38   26.80
   0   0  11    4.60   10.80
   0   0  11    8.10   13.60
   0   0  11    6.30   17.00
   0   0  11  -17.10   26.10
   0   0  11   -1.00   28.90
   0   0 -11    1.90   10.90
   0   1   0    0.60    1.20
   0   1   0    0.00    0.90
   0   1   0   -1.80    0.90
   0   1   0    0.50    0.50
   0  -1   0    1.20    1.10
   0  -1   0    2.20    1.00
   0   1  -1 1809.92   85.29
   0   1  -1 1732.33   85.99
   0   1  -1 1787.92   86.79
   0   1   1 1817.12   85.59
   0  -1   1 1768.92   85.09
   0  -1   1 1800.82   86.79
   0  -1   1 1702.73   87.59
   0  -1   1 1708.03   85.89
   0  -1  -1 1723.43   85.69
   0  -1   1 1756.92   86.29
   0   1  -2 1151.48   57.89
   0   1   2 1154.98   56.49
   0   1  -2 1142.09   57.59
   0   1   2 1126.09   56.49
   0   1  -2 1128.99   58.09
   0  -1   2 1150.98   60.79
   0  -1  -2 1098.79   56.29
   0  -1   2 1141.49   58.09
   0  -1  -2 1127.49   56.69
   0  -1   2 1118.89   57.39
   0  -1  -2 1202.28   58.69
   0  -1   2 1167.38   57.99
   0  -1   2 1137.69   56.69
   0   1  -3 2172.48  110.09
   0   1   3 2237.18  108.69
   0   1  -3 2178.38  109.49
   0   1   3 2097.09  111.19
   0   1  -3 2260.07  110.19
   0   1   3 2231.48  108.19
   0   1   3 2269.67  108.59
   0  -1   3 2215.78  109.49
   0  -1   3 2184.18  109.89
   0  -1   3 2201.08  114.09
   0  -1  -3 2222.68  108.79
   0  -1   3 2193.48  109.99
   0  -1  -3 2187.38  111.79
   0  -1   3 2216.38  108.59
   0  -1  -3 2149.88  108.19
   0   1  -4 1475.95   77.39
   0   1  -4 1571.64   78.39
   0   1   4 1432.56   80.19
   0   1   4 1544.55   76.79
   0   1   4 1468.85   75.89
   0   1   4 1580.94   76.69
   0   1  -4 1500.25   78.09
   0  -1  -4 1507.05   76.19
   0  -1   4 1506.15   83.09
   0  -1  -4 1480.75   80.99
   0  -1   4 1566.74   78.29
   0  -1   4 1512.05   77.49
   0  -1   4 1448.46   76.39
   0  -1  -4 1502.25   76.89
   0  -1   4 1518.35   77.89
   0   1  -5  574.14   34.00
   0   1  -5  548.65   33.00
   0   1   5  527.85   36.60
   0   1   5  543.25   31.60
   0   1  -5  566.54   33.80
   0   1   5  576.54   32.30
   0   1   5  581.94   32.70
   0  -1  -5  532.95   32.40
   0  -1   5  576.54   33.90
   0  -1   5  507.25   38.40
   0  -1   5  563.44   33.10
   0  -1   5  592.44   33.80
   0  -1  -5  554.44   31.80
   0  -1  -5  583.34   38.10
   0   1   6  689.43   40.90
   0   1  -6  710.23   42.40
   0   1   6  733.43   42.10
   0   1   6  745.03   41.70
   0   1  -6  740.63   43.30
   0   1   6  722.03   47.50
   0  -1   6  706.63   49.30
   0  -1   6  714.93   49.60
   0  -1   6  757.82   42.80
   0  -1   6  763.52   43.30
   0  -1  -6  815.32   43.00
   0  -1  -6  737.93   43.80
   0  -1   6  708.93   41.80
   0  -1   6  718.43   43.30
   0   1   7   21.60    6.70
   0   1   7   48.90   13.80
   0   1   7   41.60    8.50
   0   1   7   19.20   10.70
   0   1  -7   35.50    7.70
   0   1  -7   41.40   10.30
   0   1   7   17.30    6.60
   0   1  -7   32.80    8.70
   0  -1   7   27.50    7.50
   0  -1   7   18.90    8.00
   0  -1   7   16.40   11.90
   0  -1   7   38.30   16.00
   0  -1   7   47.80    9.10
   0  -1   7   31.10    9.30
   0  -1  -7   29.50    7.50
   0   1   8    6.20   11.40
   0   1   8   -3.70    5.00
   0   1   8    4.50    6.90
   0   1   8   -3.70   12.30
   0   1  -8    0.20    6.80
   0   1  -8   -9.00    5.20
   0   1  -8    2.30    7.20
   0   1  -8   -8.10    5.00
   0  -1   8   -9.30    7.90
   0  -1   8   -2.60    7.40
   0  -1   8   -9.40   11.80
   0  -1   8   -8.70    7.10
   0  -1   8   -7.40   11.60
   0  -1   8   -2.20    5.40
   0   1  -9   76.79   14.10
   0   1   9   95.09   14.30
   0   1   9   62.29   20.60
   0   1   9  139.09   18.60
   0   1   9   94.89   25.00
   0   1  -9  110.69   17.30
   0   1   9   78.49   13.50
   0   1  -9  105.89   19.80
   0  -1   9   78.59   14.50
   0  -1   9  113.49   18.20
   0  -1  -9  102.79   16.10
   0  -1   9  147.99   28.50
   0  -1   9  110.49   17.00
   0  -1   9   87.79   16.20
   0  -1   9  136.59   29.40
   0  -1  -9   96.79   14.80
   0   1  10   97.59   17.40
   0   1 -10  116.19   18.70
   0   1 -10  104.49   17.90
   0   1  10   95.69   27.30
   0   1  10   93.49   26.60
   0   1  10  133.89   19.20
   0   1  10   94.79   16.10
   0   1 -10  144.99   22.80
   0  -1  10   73.49   30.50
   0  -1 -10   74.39   15.00
   0  -1 -10  140.69   21.00
   0  -1  10  128.59   21.40
   0  -1  10  102.49   18.10
   0  -1  10  119.89   31.20
   0  -1  10   88.89   19.20
   0   1 -11   64.59   16.80
   0   1  11   14.70   29.00
   0   1  11   73.39   16.90
   0   1  11   66.39   15.40
   0   1  11   59.99   33.00
   0   1 -11   84.79   17.80
   0   1  11   80.89   19.80
   0  -1  11   70.19   16.20
   0  -1  11   31.00   32.00
   0  -1 -11   75.59   16.90
   0  -1  11   53.59   35.30
   0  -1  11   20.50   31.60
   0   2   0   80.69    7.20
   0   2   0  104.09    6.00
   0   2   0   88.69    8.10
   0  -2   0   96.89    6.80
   0  -2   0  102.79    7.30
   0   2  -1 2056.09  102.89
   0   2  -1 1984.30   99.99
   0   2  -1 2065.69  103.59
   0   2  -1 2014.80  101.19
   0   2  -1 2055.09  101.19
   0   2   1 2082.49  101.29
   0   2   1 1984.60  102.09
   0  -2   1 2077.89  102.69
   0  -2   1 2238.68  100.09
   0  -2   1 2054.69  101.49
   0  -2   1 2048.59  103.29
   0  -2   1 2101.69  100.99
   0  -2   1 2079.49  103.99
   0   2  -2  300.87   16.10
   0   2   2  290.47   16.00
   0   2  -2  293.27   18.60
   0   2  -2  260.57   18.20
   0   2  -2  281.07   17.30
   0  -2   2  309.47   15.60
   0  -2   2  294.07   20.30
   0  -2   2  265.07   20.30
   0  -2   2  298.67   17.20
   0  -2   2  290.57   18.40
   0  -2  -2  283.57   16.60
   0  -2   2  296.17   17.80
   0   2  -3 1309.97   67.39
   0   2   3 1265.67   65.49
   0   2  -3 1264.57   65.69
   0   2  -3 1279.87   67.19
   0  -2   3 1199.48   74.19
   0  -2   3 1307.07   63.59
   0  -2  -3 1253.67   66.19
   0  -2   3 1230.78   69.89
   0  -2   3 1263.87   65.39
   0  -2   3 1294.27   66.39
   0  -2   3 1324.37   67.09
   0   2   4   83.69    7.50
   0   2  -4   90.99   10.00
   0   2   4   73.79   10.40
   0   2  -4   83.19    9.20
   0   2   4   90.09    7.70
   0   2  -4   74.69   10.60
   0  -2   4   73.29    9.70
   0  -2  -4   91.39   12.10
   0  -2   4   83.49    8.90
   0  -2   4  105.89   15.90
   0  -2  -4   80.29    7.10
   0  -2   4   76.29    7.70
   0  -2  -4   89.49    7.80
   0  -2   4   83.29   14.30
   0  -2   4   75.19   10.00
   0   2  -5  181.18   14.90
   0   2  -5  182.78   15.50
   0   2  -5  174.48   15.90
   0   2   5  172.88   13.00
   0   2   5  172.78   13.10
   0   2   5  176.68   13.10
   0   2   5  155.28   16.30
   0  -2   5  183.48   15.80
   0  -2   5  189.78   20.90
   0  -2   5  157.88   19.90
   0  -2   5  165.18   15.40
   0  -2  -5  171.18   12.60
   0  -2   5  187.48   13.60
   0  -2   5  170.08   14.50
   0   2   6   10.10    4.90
   0   2   6   15.70    8.50
   0   2  -6    3.90    5.30
   0   2   6   27.20    6.40
   0   2  -6    0.10    4.60
   0   2  -6   10.40    6.40
   0   2  -6    4.20    6.00
   0   2   6   14.20    4.70
   0  -2   6    9.50    5.50
   0  -2   6    1.20   10.10
   0  -2   6   19.30    6.20
   0  -2   6   14.20    6.20
   0  -2   6   16.80   10.70
   0  -2  -6    4.20    4.50
   0  -2   6   15.40    7.10
   0   2   7 1602.04   81.09
   0   2  -7 1521.65   82.69
   0   2   7 1491.15   79.49
   0   2  -7 1556.14   84.49
   0   2   7 1531.15   87.39
   0   2  -7 1482.05   82.79
   0   2  -7 1501.45   82.09
   0   2   7 1526.05   80.39
   0   2   7 1439.56   86.99
   0  -2   7 1503.75   92.39
   0  -2   7 1506.55   83.59
   0  -2   7 1618.74   84.59
   0  -2   7 1520.55   83.79
   0  -2   7 1573.04   82.79
   0  -2   7 1488.85   91.69
   0  -2  -7 1521.35   79.79
   0   2   8   21.00    7.40
   0   2  -8   30.10    8.70
   0   2  -8   31.80   10.20
   0   2  -8    7.80   12.80
   0   2   8   21.00   15.20
   0   2   8   34.40   14.70
   0   2   8   22.10    8.90
   0   2  -8   39.40   17.20
   0  -2   8   52.69   21.10
   0  -2   8   22.60   10.00
   0  -2   8   29.30   10.10
   0  -2   8   28.70    9.20
   0  -2   8   29.60   17.10
   0  -2   8   41.20   10.90
   0  -2  -8   14.80    6.90
   0   2   9  215.08   20.80
   0   2  -9  208.08   25.70
   0   2   9  245.48   35.30
   0   2   9  225.08   21.00
   0   2  -9  207.68   21.60
   0   2  -9  235.58   23.00
   0   2   9  203.28   22.80
   0   2   9  255.67   32.60
   0   2  -9  227.78   24.40
   0  -2   9  263.07   36.20
   0  -2   9  232.88   23.20
   0  -2  -9  232.48   21.50
   0  -2   9  288.67   38.50
   0  -2   9  290.27   43.90
   0   2  10   -3.00    9.10
   0   2 -10   -8.60   11.40
   0   2  10  -21.50    9.60
   0   2 -10    3.60    9.60
   0   2  10   40.60   24.80
   0   2 -10    5.40   14.90
   0   2  10    3.40   12.40
   0   2 -10    0.80   10.40
   0  -2 -10    2.80    9.30
   0  -2  10  -25.80   24.20
   0  -2  10   -1.80   26.40
   0  -2  10   12.30   27.80
   0  -2  10    2.60   14.90
   0  -2  10    6.30   11.10
   0   2  11  -16.40   15.00
   0   2 -11  -11.60   10.70
   0   2 -11    3.20   16.10
   0   2  11    8.40   12.90
   0   2 -11   -3.70   11.80
   0   2  11   11.60   31.60
   0  -2  11  -13.90   12.60
   0  -2  11  -15.10   32.10
   0  -2 -11   -6.20   12.70
   0   3   0   -3.30    3.20
   0   3   0    2.00    2.80
   0   3   0    4.10    2.10
   0  -3   0    4.50    3.40
   0  -3   0   -3.80    2.20
   0  -3   0    3.30    2.90
   0   3  -1  351.66   19.30
   0   3  -1  352.36   22.00
   0   3  -1  342.17   19.50
   0   3  -1  329.57   18.00
   0   3  -1  327.17   22.60
   0   3   1  348.37   20.40
   0   3   1  355.66   21.90
   0   3   1  336.77   19.00
   0  -3   1  363.56   21.90
   0  -3   1  357.56   22.70
   0  -3   1  331.17   21.20
   0   3   2  545.15   30.80
   0   3  -2  581.94   31.60
   0   3  -2  554.54   33.70
   0   3  -2  567.54   29.80
   0   3  -2  551.74   34.60
   0   3  -2  578.34   32.00
   0   3   2  573.24   32.30
   0  -3   2  566.94   31.10
   0  -3   2  608.34   35.50
   0  -3   2  626.24   29.40
   0  -3   2  560.34   31.90
   0  -3   2  584.04   36.00
   0  -3   2  576.74   33.50
   0   3   3  894.81   44.70
   0   3  -3  868.11   49.10
   0   3  -3  879.11   47.00
   0   3  -3  835.92   49.50
   0   3  -3  887.41   47.00
   0  -3   3  820.82   51.89
   0  -3   3  885.91   46.50
   0  -3   3  872.11   47.40
   0  -3   3  856.11   51.49
   0  -3   3  868.01   48.60
   0  -3   3  867.51   44.00
   0   3  -4 1781.72   91.89
   0   3  -4 1729.33   91.69
   0   3   4 1698.43   89.69
   0   3  -4 1773.12   94.29
   0   3  -4 1723.53   93.79
   0  -3   4 1806.82   94.59
   0  -3   4 1803.02   93.99
   0  -3   4 1778.42   88.09
   0  -3   4 1871.31   91.59
   0  -3   4 1848.42   98.39
   0   3  -5  518.85   32.50
   0   3  -5  543.75   34.60
   0   3   5  501.35   31.70
   0   3  -5  509.55   32.40
   0   3  -5  570.74   35.30
   0   3   5  504.65   32.90
   0   3   5  509.45   29.00
   0  -3   5  517.95   33.90
   0  -3   5  514.55   39.20
   0  -3   5  502.55   31.80
   0  -3   5  512.55   28.70
   0  -3   5  534.55   33.40
   0  -3   5  482.45   39.20
   0   3  -6  744.63   46.20
   0   3  -6  738.03   45.00
   0   3  -6  712.83   44.60
   0   3   6  794.12   41.40
   0   3   6  750.52   41.40
   0   3   6  689.33   46.10
   0   3  -6  781.62   47.60
   0  -3   6  782.32   53.79
   0  -3  -6  738.03   41.10
   0  -3   6  748.13   41.10
   0  -3   6  721.63   53.69
   0  -3   6  784.52   44.90
   0   3   7   27.50    6.70
   0   3  -7   17.10    9.00
   0   3  -7   23.90    9.50
   0   3  -7   27.10    9.80
   0   3   7   43.70   14.00
   0   3   7   38.80    7.90
   0   3  -7   24.30    7.90
   0  -3   7   17.90    8.40
   0  -3  -7   26.90    6.70
   0  -3  -7   29.80    7.10
   0  -3   7   21.50   17.90
   0  -3   7   16.10    7.90
   0   3   8    0.90    7.40
   0   3   8   10.30   12.10
   0   3  -8    3.40    9.90
   0   3   8    6.70   15.80
   0   3   8    0.80    6.50
   0   3  -8   -0.50    7.10
   0   3  -8    2.70    9.20
   0   3  -8   -2.70    8.60
   0  -3   8    9.00    8.40
   0  -3  -8    2.30    6.50
   0  -3   8    6.40   10.80
   0  -3  -8   12.90    8.10
   0  -3   8   -2.60    7.70
   0  -3   8   14.90   20.40
   0  -3   8   -6.10   17.90
   0  -3   8   14.20   11.10
   0   3   9   25.10    9.10
   0   3   9   18.60   11.00
   0   3  -9   40.30   11.60
   0   3  -9   44.70   15.20
   0   3  -9   11.50   10.50
   0   3   9   47.40   22.30
   0   3  -9   15.10   14.90
   0  -3   9   84.59   28.70
   0  -3   9   18.60   11.40
   0  -3   9   44.60   19.20
   0  -3  -9   28.40   11.70
   0  -3  -9   33.30   10.00
   0  -3   9   43.10   24.20
   0   3 -10   22.80   18.70
   0   3  10   58.59   15.30
   0   3 -10   39.50   16.30
   0   3 -10   28.50   12.40
   0   3  10   19.20   11.60
   0   3 -10   15.30   12.60
   0   3  10    3.50   26.60
   0   3  10   25.10   25.20
   0  -3 -10   34.90   12.20
   0  -3  10   -9.70   32.30
   0  -3  10   87.69   33.00
   0  -3  10   40.70   14.90
   0  -3  10   56.59   18.40
   0   4   0 2528.15  126.19
   0   4   0 2539.85  124.49
   0  -4   0 2220.78  121.19
   0  -4   0 2558.34  121.59
   0   4   1   50.99    6.20
   0   4  -1   38.60    8.90
   0   4  -1   52.69    9.00
   0   4   1   46.30    7.60
   0   4   1   39.50    8.10
   0  -4   1   31.20    8.10
   0  -4   1   51.09    8.00
   0  -4   1   54.69    8.20
   0   4   2  543.35   28.70
   0   4  -2  505.05   33.60
   0   4  -2  496.85   29.30
   0   4   2  522.45   31.30
   0   4   2  495.85   29.70
   0   4  -2  522.95   28.90
   0   4  -2  508.25   32.50
   0  -4   2  526.95   32.90
   0  -4   2  501.75   34.00
   0  -4   2  490.15   34.10
   0  -4   2  479.45   29.20
   0  -4   2  514.95   27.90
   0   4  -3   -1.20    5.30
   0   4  -3   -6.20    4.20
   0   4  -3    5.40    6.40
   0   4  -3    0.10    3.90
   0   4   3   -7.00    3.50
   0  -4   3   -1.50    3.90
   0  -4   3    0.40    8.40
   0  -4   3   -2.10    5.50
   0  -4   3    4.30   12.00
   0  -4   3    1.80    4.90
   0   4  -4   36.80    8.30
   0   4  -4   36.60    7.70
   0   4  -4   18.90    8.30
   0   4  -4   26.50    8.60
   0  -4   4   31.40    8.60
   0  -4   4   29.10    7.00
   0  -4   4   39.40    8.60
   0  -4   4   42.90   13.50
   0  -4   4   21.10   11.50
   0  -4   4   29.90    5.50
   0   4  -5    1.90    8.10
   0   4  -5   -0.30    7.20
   0   4  -5    6.50    5.70
   0   4  -5    1.60    7.70
   0   4   5   -3.60    6.10
   0   4   5    7.10    5.90
   0  -4   5    2.90    4.40
   0  -4   5    5.70   11.60
   0  -4   5   12.30   12.90
   0  -4   5   11.80    6.60
   0   4  -6  274.37   25.50
   0   4   6  263.07   20.90
   0   4  -6  287.97   24.50
   0   4  -6  271.87   22.80
   0   4   6  242.28   22.50
   0   4  -6  297.37   26.30
   0  -4   6  237.08   25.60
   0  -4   6  264.37   31.60
   0  -4   6  287.67   18.20
   0  -4   6  266.17   24.80
   0  -4   6  306.77   23.20
   0   4  -7    1.00    7.80
   0   4  -7   -2.90    9.80
   0   4  -7   -4.50    8.90
   0   4  -7   -9.60   10.80
   0   4   7   12.60   13.00
   0   4   7   10.00    9.80
   0  -4   7   -4.40    8.30
   0  -4   7    0.70   10.70
   0  -4   7   -1.00    6.10
   0  -4   7   -8.40   12.20
   0  -4   7   -9.50   18.10
   0  -4   7  -15.80   17.90
   0   4   8  319.37   32.70
   0   4  -8  276.97   28.30
   0   4  -8  255.17   29.30
   0   4   8  216.78   29.40
   0   4  -8  264.87   30.30
   0   4  -8  295.77   26.30
   0  -4   8  257.97   21.60
   0  -4   8  289.47   26.80
   0  -4   8  336.37   45.80
   0  -4   8  254.77   39.70
   0   4   9  -14.70   22.60
   0   4  -9   29.40   19.50
   0   4  -9   14.90   16.70
   0   4  -9  -10.90   12.70
   0   4   9   25.80   10.10
   0   4  -9  -12.70   10.80
   0  -4   9    5.70   31.60
   0  -4   9    6.00   13.20
   0  -4   9   38.00   33.30
   0   5   0  -12.30    6.30
   0   5   0   -9.40    7.00
   0   5  -1  305.97   23.80
   0   5   1  276.97   23.70
   0   5   1  280.07   22.00
   0   5   1  300.67   22.00
   0   5  -1  310.97   25.30
   0  -5   1  353.46   21.90
   0  -5   1  300.57   22.20
   0  -5   1  280.97   21.50
   0   5   2  113.19   14.80
   0   5   2   99.79   12.40
   0   5  -2  102.29   14.90
   0   5   2  114.19   10.70
   0  -5   2   97.29   13.10
   0  -5   2  105.99   16.50
   0  -5   2   93.09   13.30
   0   5  -3  606.74   34.40
   0   5   3  617.14   37.00
   0   5  -3  590.54   40.90
   0   5   3  587.44   34.70
   0   5   3  607.64   34.20
   0   5  -3  578.44   39.80
   0   5  -3  555.54   35.20
   0  -5   3  534.55   41.30
   0  -5   3  600.54   35.40
   0  -5   3  636.44   40.60
   0   5  -4   67.39   12.00
   0   5  -4   61.39   12.90
   0   5  -4   53.69   13.70
   0   5   4   81.39   10.70
   0   5  -4   76.69   10.60
   0  -5   4   75.29   10.20
   0  -5   4   65.89   18.50
   0  -5   4   70.19   12.10
   0  -5   4   62.39   13.70
   0  -5   4   78.79   18.00
   0   5  -5  240.48   19.90
   0   5  -5  209.18   25.00
   0   5  -5  207.48   24.40
   0   5   5  232.18   19.70
   0   5  -5  215.38   22.40
   0  -5   5  210.38   27.10
   0  -5   5  167.88   20.80
   0  -5   5  217.78   31.00
   0  -5   5  211.78   29.60
   0  -5   5  210.68   24.70
   0   5  -6    8.60   12.80
   0   5  -6   25.00   13.60
   0   5  -6   44.70   14.20
   0   5  -6   26.40   10.10
   0  -5   6   10.50   18.80
   0  -5   6   26.90   13.00
   0  -5   6   26.20   10.30
   0  -5   6   -0.30   14.90
   0  -5   6   -2.90   19.80
   0   5  -7   56.29   17.80
   0   5  -7   49.60   16.20
   0   5  -7   55.09   13.70
   0   5  -7   68.99   17.30
   0  -5   7   40.40   11.10
   0  -5   7   97.89   27.20
   0  -5   7   78.29   14.80
   0  -5   7   43.70   27.90
   0   5   8   24.60   14.50
   0   5  -8   25.80   19.50
   0   5   8   10.80   14.40
   0   5  -8   26.90   13.10
   0   5  -8   22.60   16.60
   0  -5   8   57.49   34.90
   0  -5   8   -8.70   34.30
   0  -5   8   13.30   14.30
   0   6   0   53.99   12.80
   0   6   0   37.10   12.90
   0   6  -1  405.96   33.30
   0   6   1  446.06   34.50
   0   6   1  479.25   32.30
   0   6  -1  462.65   36.10
   0   6   2    5.20    8.60
   0   6   2   17.50   12.90
   0   6  -2   56.59   14.70
   0   6   2   21.00   10.40
   0   6  -2   27.80   13.50
   0  -6   2   43.20   12.90
   0  -6   2   23.40   11.70
   0   6  -3   48.90   14.50
   0   6   3   53.79    9.90
   0   6  -3   37.20   15.20
   0  -6   3   47.70   17.30
   0  -6   3   55.99   14.90
   0   6   4    2.90    7.70
   0   6  -4   -2.10   13.70
   0   6  -4    7.70    8.00
   0   6  -4   13.60   13.30
   0  -6   4   -2.80   14.20
   0  -6   4   -1.60   18.30
   0  -6   4    1.70   11.80
   0  -6   4   16.60   15.90
   0   6   5   13.80   10.10
   0   6  -5   43.90   20.00
   0   6  -5   31.00   13.90
   0   6  -5   19.10   15.90
   0   6  -5    9.60    9.70
   0  -6   5   54.49   26.00
   0  -6   5   17.60    9.20
   0   6  -6    6.70   17.00
   0   6  -6  -12.80   15.80
   0   6   6    8.20   10.90
   0   6  -6    4.90   12.30
   0  -6   6   -9.00   11.10
   0  -6   6   43.50   29.60
   0   7   0  -23.00   16.60
   0   7   0  -27.50   15.60
   0   7  -1    4.40   19.70
   0   7   1   -3.30   16.80
   0   7   1   -0.60   18.20
   0   7  -1   58.69   17.80
  -1   0  11    0.10   10.60
   1   0 -11    8.40   10.90
  -1   0  11  -61.09   25.10
  -1   0  11    2.30   12.70
  -1   0  11  -12.50   15.40
   1   0 -11   -7.90   10.50
  -1   0  11   -8.10   28.00
  -1   0  10  -12.80   17.80
  -1   0  10    3.40    9.70
  -1   0  10    5.90   11.90
   1   0 -10    7.10   12.40
  -1   0  10   -2.00   12.90
  -1   0  10    2.90    9.00
  -1   0  10   15.30   21.00
   1   0  -9    3.00    7.30
  -1   0   9   -0.20    9.70
  -1   0   9    6.50   14.70
  -1   0   9  -18.30   15.70
  -1   0   9   13.10    7.30
   1   0  -9   17.40    9.50
  -1   0   9   12.10    9.10
  -1   0   9    4.20    7.50
  -1   0   8  232.98   20.20
  -1   0   8  232.48   28.90
   1   0  -8  216.58   21.10
  -1   0   8  236.88   20.40
   1   0  -8  250.67   21.70
   1   0  -8  267.97   21.10
  -1   0   8  226.28   21.00
   1   0  -7    0.10    4.70
  -1   0   7   -4.00    4.00
  -1   0   7   -7.90    9.30
   1   0  -7   -4.90    4.70
  -1   0   7   -2.90    5.20
   1   0  -7   -3.10    4.70
  -1   0   7    1.80    4.90
  -1   0   7    7.20    5.40
   1   0  -7    9.40   10.50
  -1   0   6 2060.79  109.29
  -1   0   6 2190.28  110.19
  -1   0   6 2116.99  108.69
   1   0  -6 2163.38  109.29
   1   0  -6 2124.39  117.39
   1   0  -6 2149.19  109.09
  -1   0   6 2177.48  117.09
   1   0  -6 2111.29  110.29
  -1   0   5   -7.50    3.00
  -1   0   5    3.50    3.10
  -1   0   5   12.90    7.70
  -1   0   5   -0.20    3.10
   1   0  -5   -1.50    6.30
   1   0  -5    5.10    3.60
   1   0  -5   -2.60    3.30
   1   0  -5    2.40    3.40
  -1   0   4  720.83   44.40
   1   0  -4  736.63   40.40
  -1   0   4  759.62   39.50
  -1   0   4  718.93   40.10
   1   0  -4  667.23   43.90
   1   0  -4  734.93   39.60
  -1   0   4  820.92   43.80
   1   0  -4  721.03   39.70
  -1   0   3    0.00    1.60
   1   0  -3   -0.90    1.70
   1   0  -3    1.30    1.80
  -1   0   3   -1.30    1.70
  -1   0   3    0.20    1.60
   1   0  -3   -1.40    1.70
   1   0  -3    3.00    3.40
  -1   0   3   -1.00    2.60
  -1   0   2    7.30    3.30
  -1   0   2    7.20    2.20
   1   0  -2   13.90    2.50
   1   0  -2   10.50    3.60
   1   0  -2    7.20    2.10
   1   0  -2   15.40    2.70
  -1   0   2   10.00    2.40
  -1   0   2   10.50    2.20
  -1   0   1    0.20    0.60
  -1   0   1   -0.30    0.70
   1   0  -1    1.00    1.30
  -1   0   1    0.60    0.60
   1   0  -1    0.20    0.80
   1   0  -1    0.60    0.70
   1   0  -1    0.20    0.70
   1   0  -1    0.90    0.70
  -1   0   1    0.20    0.80
  -1   0   1   -0.10    1.30
   1   0   1    0.90    1.50
  -1   0  -1   -0.70    0.60
   1   0   1   -0.40    0.70
   1   0   1    1.20    1.00
  -1   0  -1    0.10    0.70
   1   0   1    1.20    0.80
  -1   0  -1    2.50    1.70
  -1   0  -2 9846.51  477.45
   1   0   2 9999.00  477.95
  -1   0  -3   -0.90    1.60
   1   0   3   -1.90    3.00
   1   0   3   -1.10    1.70
  -1   0  -3   -1.30    1.70
   1   0   3    4.20    2.30
   1   0   3   -1.10    1.40
  -1   0  -3   -0.40    1.50
   1   0   3   -4.70    3.30
   1   0   4 1543.25   79.79
  -1   0  -4 1489.75   79.09
   1   0   4 1551.14   84.49
  -1   0  -4 1576.74   79.49
  -1   0  -4 1629.24   79.79
   1   0   4 1553.34   79.79
   1   0   4 1519.55   83.79
   1   0   4 1576.24   79.19
   1   0   5   -0.70    6.50
  -1   0  -5   -0.30    3.00
   1   0   5   -2.00    2.80
  -1   0  -5    3.90    3.50
   1   0   5   -0.80    2.60
   1   0   5    0.40    3.40
   1   0   5    6.00    7.20
   1   0   6  563.64   40.30
  -1   0  -6  525.75   33.30
  -1   0  -6  541.95   33.70
   1   0   6  576.74   40.90
   1   0   6  561.04   33.40
   1   0   6  549.54   34.20
   1   0   6  580.74   34.20
  -1   0  -6  533.15   33.20
  -1   0  -7    0.40    5.00
   1   0   7   -4.00    6.10
   1   0   7    5.50   10.90
   1   0   7    4.40    4.60
   1   0   7   -2.30    5.80
  -1   0  -7   -4.30    5.30
   1   0   7   18.10   11.80
  -1   0  -7   -1.50    4.40
  -1   0  -8  862.21   50.69
  -1   0  -8  832.32   50.19
   1   0   8  818.22   49.70
   1   0   8  900.01   61.89
   1   0   8  822.22   50.59
   1   0   8  820.42   51.29
   1   0   8  898.01   60.39
   1   0   9  -22.70    9.30
   1   0   9  -10.80   16.30
  -1   0  -9  -11.00    6.40
   1   0   9    0.60    6.80
   1   0   9   -2.90    8.60
   1   0   9   -7.50   14.70
  -1   0  -9    8.50    7.70
  -1   0  -9    6.10   10.00
  -1   0 -10  189.68   23.40
  -1   0 -10  128.49   18.80
   1   0  10  149.29   19.20
   1   0  10  142.69   31.70
   1   0  10  132.69   20.20
   1   0  10  198.38   24.20
   1   0  10  141.79   31.50
   1   0  11   40.50   29.70
  -1   0 -11  -18.40   10.60
   1   0  11  -31.80   18.10
   1   0  11   11.60   15.00
   1   0  11   30.70   29.10
   1   0  11   12.90   11.60
  -1   1  11  135.19   21.90
  -1   1  11  100.09   37.00
   1   1 -11  127.19   20.60
  -1   1  11  111.09   18.80
  -1   1  11  137.59   20.20
   1   1 -11  113.29   19.20
  -1  -1  11  110.89   19.60
  -1  -1  11  134.19   27.10
  -1  -1  11  153.08   40.50
  -1  -1  11  131.39   38.90
   1  -1 -11  102.89   19.70
   1   1 -10  181.78   21.70
  -1   1  10  174.48   20.50
  -1   1  10  159.68   20.00
  -1   1  10  177.38   23.00
  -1   1  10  155.28   25.00
   1   1 -10  171.88   22.30
   1   1 -10  178.48   24.00
  -1   1  10  156.18   30.50
  -1   1  10  223.58   36.80
  -1  -1  10  170.98   21.10
  -1  -1  10  133.59   30.10
  -1  -1  10  261.47   40.60
   1  -1 -10  174.98   22.70
  -1  -1  10  194.28   24.90
  -1   1   9   57.39   11.60
  -1   1   9   67.39   12.20
   1   1  -9   88.49   18.90
  -1   1   9   47.80   21.30
  -1   1   9  102.29   15.50
   1   1  -9   60.89   14.20
   1   1  -9   79.79   12.60
   1  -1  -9  100.69   15.10
  -1  -1   9   92.49   27.20
  -1  -1   9   36.50   12.70
  -1  -1   9   70.29   14.70
  -1  -1   9   85.59   23.70
  -1  -1   9   61.49   13.10
  -1  -1   9   81.89   15.50
  -1   1   8  278.57   22.70
   1   1  -8  291.97   24.80
   1   1  -8  298.17   25.20
  -1   1   8  322.67   24.30
  -1   1   8  320.17   32.30
   1   1  -8  278.57   24.40
  -1   1   8  289.57   22.10
  -1  -1   8  293.07   24.50
  -1  -1   8  320.37   24.30
  -1  -1   8  323.37   34.60
   1  -1  -8  304.17   24.50
  -1  -1   8  290.67   24.00
  -1  -1   8  321.97   25.60
   1   1  -7   51.69   10.20
  -1   1   7   38.90    9.10
  -1   1   7   55.79    9.70
  -1   1   7   57.39    9.40
   1   1  -7   61.19   10.70
   1   1  -7   70.59   11.80
  -1   1   7   74.49   15.90
  -1  -1   7   41.00   15.70
   1  -1  -7   49.80    9.40
  -1  -1   7   60.09   10.10
  -1  -1   7   63.29   11.90
   1  -1  -7   60.09    9.50
  -1  -1   7   59.09   11.10
   1  -1  -7   55.59   15.70
   1  -1  -7   52.89   10.20
  -1  -1   7   46.40    9.90
  -1   1   6   55.09   13.10
   1   1  -6   70.39   10.90
   1   1  -6   43.50    9.10
   1   1  -6   72.09   11.90
  -1   1   6   50.99    8.20
   1   1  -6   46.10   14.30
  -1   1   6   67.19    8.80
  -1   1   6   49.00    8.90
   1  -1  -6   65.89   14.00
  -1  -1   6   59.09   10.20
  -1  -1   6   70.89   10.90
  -1  -1   6   74.99   10.60
  -1  -1   6   76.69   15.40
   1  -1  -6   50.89    8.00
  -1  -1   6   72.59   10.90
  -1   1   5  650.03   35.80
  -1   1   5  600.84   40.90
  -1   1   5  656.93   37.10
   1   1  -5  684.83   38.70
   1   1  -5  665.63   37.90
   1   1  -5  688.43   38.90
  -1   1   5  659.03   37.10
   1  -1  -5  659.13   37.60
  -1  -1   5  654.13   37.90
  -1  -1   5  654.33   44.30
   1  -1  -5  671.03   36.00
   1  -1  -5  628.34   36.40
   1  -1  -5  634.54   42.20
  -1  -1   5  702.73   38.90
  -1  -1   5  647.94   37.10
  -1  -1   5  702.13   38.40
  -1   1   4 1433.56   78.09
   1   1  -4 1490.95   75.99
  -1   1   4 1467.15   74.29
   1   1  -4 1489.35   75.39
  -1   1   4 1435.26   72.99
   1   1  -4 1490.35   75.89
  -1   1   4 1489.35   74.39
   1   1  -4 1397.26   80.49
  -1  -1   4 1457.95   74.39
   1  -1  -4 1403.86   78.59
   1  -1  -4 1457.65   74.79
  -1  -1   4 1484.55   75.39
   1  -1  -4 1487.05   73.19
  -1  -1   4 1521.75   75.99
   1  -1  -4 1414.36   73.79
  -1  -1   4 1487.75   80.99
  -1  -1   4 1423.66   75.19
   1   1  -3 4452.85  211.08
   1   1  -3 4267.97  210.88
  -1   1   3 4262.77  209.38
  -1   1   3 4200.78  212.18
   1   1  -3 4391.06  210.48
   1   1  -3 4025.10  214.48
  -1  -1   3 4373.86  215.08
  -1  -1   3 4331.67  210.48
  -1  -1   3 4416.96  209.58
   1  -1  -3 4276.87  212.88
  -1  -1   3 4430.26  210.88
   1  -1  -3 4255.37  208.98
   1  -1  -3 4292.77  209.78
  -1  -1   3 4316.57  210.68
  -1   1   2 1404.66   67.89
  -1   1   2 1404.66   67.99
   1   1  -2 1338.67   68.99
  -1   1   2 1321.87   71.39
   1   1  -2 1384.96   68.79
   1   1  -2 1407.76   69.49
   1   1  -2 1395.86   68.39
   1   1  -2 1363.26   71.89
  -1  -1   2 1317.77   71.59
   1  -1  -2 1357.46   70.19
  -1  -1   2 1397.66   67.99
  -1  -1   2 1384.96   68.89
   1  -1  -2 1393.26   67.69
   1  -1  -2 1366.96   68.09
  -1  -1   2 1376.36   68.99
  -1  -1   2 1375.96   69.19
   1   1  -1 4069.59  196.38
  -1   1   1 3951.20  194.78
  -1   1   1 4080.29  195.68
  -1   1   1 4071.09  194.88
   1   1  -1 3898.01  195.48
   1   1  -1 4037.80  197.58
   1   1  -1 4166.18  195.28
  -1   1   1 4329.97  196.38
   1   1  -1 3951.70  195.68
   1  -1  -1 4070.29  194.98
   1  -1  -1 4179.68  194.98
  -1  -1   1 3961.70  195.58
   1  -1  -1 4165.38  196.28
  -1  -1   1 4049.29  197.48
  -1  -1   1 3945.21  196.18
  -1  -1   1 3840.32  195.48
  -1   1   0 1226.98   61.69
   1   1   0 1193.68   61.09
  -1   1   0 1196.18   61.59
   1   1   0 1281.77   60.99
   1   1   0 1312.87   60.79
  -1   1   0 1163.18   60.79
  -1   1   0 1220.08   60.39
  -1   1   0 1269.07   60.49
  -1  -1   0 1325.07   60.89
   1  -1   0 1171.08   60.79
   1  -1   0 1233.78   61.79
   1  -1   0 1217.28   60.59
  -1  -1   0 1274.97   60.79
   1  -1   0 1259.17   60.39
   1  -1   0 1270.67   61.79
  -1   1  -1 1083.39   55.19
  -1   1  -1 1099.89   52.99
  -1   1  -1 1035.90   53.69
   1   1   1 1088.09   52.39
  -1   1  -1 1054.69   53.59
  -1   1  -1 1104.89   52.99
   1  -1   1 1080.49   52.79
   1  -1   1 1046.50   53.09
   1  -1   1 1037.70   53.79
   1  -1   1 1101.09   54.99
  -1  -1  -1 1007.30   52.49
   1  -1   1 1049.99   53.59
  -1   1  -2  123.39   11.10
  -1   1  -2  134.69    9.60
   1   1   2  119.79    8.00
  -1   1  -2  129.59    8.90
  -1   1  -2  130.99    8.90
   1   1   2  112.99    9.40
   1   1   2  121.59    9.20
  -1   1  -2  128.89    9.10
   1   1   2  130.99    7.80
   1  -1   2  115.59   10.80
  -1  -1  -2  126.69    7.80
   1  -1   2  135.89    9.70
  -1  -1  -2  127.89    7.80
   1  -1   2  132.59    8.70
   1   1   3  661.13   34.10
   1   1   3  641.54   33.50
   1   1   3  634.64   34.20
  -1   1  -3  650.83   34.70
   1   1   3  628.04   36.80
  -1   1  -3  665.73   35.00
   1   1   3  623.84   36.20
  -1   1  -3  637.44   35.40
  -1   1  -3  619.74   34.60
  -1  -1  -3  644.24   33.60
   1  -1   3  635.84   35.20
  -1  -1  -3  608.24   33.50
   1  -1   3  624.04   38.30
   1  -1   3  636.34   39.20
   1  -1   3  653.83   34.60
   1  -1   3  675.43   35.70
  -1   1  -4 1425.36   70.59
  -1   1  -4 1342.27   70.79
   1   1   4 1388.36   69.59
  -1   1  -4 1365.16   69.59
  -1   1  -4 1341.47   69.99
   1   1   4 1370.46   69.49
   1   1   4 1327.17   73.29
   1   1   4 1348.27   68.89
   1   1   4 1338.77   72.89
   1  -1   4 1292.47   70.49
  -1  -1  -4 1322.87   68.89
   1  -1   4 1330.97   75.89
   1  -1   4 1346.07   70.89
  -1  -1  -4 1384.66   69.09
  -1   1  -5 2064.19  105.89
   1   1   5 2040.00  104.99
   1   1   5 2071.29  105.39
   1   1   5 2021.20  104.59
   1   1   5 2047.10  109.99
  -1   1  -5 2216.08  106.69
  -1   1  -5 2109.89  106.79
   1   1   5 2083.39  110.49
   1  -1   5 1976.00  112.59
   1  -1   5 2107.09  105.79
   1  -1   5 2108.09  112.59
  -1  -1  -5 2016.20  104.49
   1  -1   5 2082.49  106.79
   1  -1   5 2055.89  106.69
  -1  -1  -5 2106.69  104.99
  -1   1  -6  405.16   26.90
  -1   1  -6  394.96   26.90
   1   1   6  435.06   32.30
   1   1   6  382.36   26.20
   1   1   6  396.36   26.20
   1   1   6  426.06   26.00
  -1   1  -6  417.16   25.50
   1   1   6  372.76   30.90
  -1   1  -6  442.76   27.90
   1  -1   6  441.96   34.80
   1  -1   6  389.06   27.50
   1  -1   6  397.46   26.50
   1  -1   6  406.96   28.10
  -1  -1  -6  385.86   25.60
   1  -1   6  365.16   32.40
  -1   1  -7  739.93   46.50
   1   1   7  777.02   46.40
   1   1   7  756.32   52.79
   1   1   7  775.62   53.09
   1   1   7  796.12   45.50
  -1   1  -7  816.12   47.80
  -1   1  -7  817.82   47.20
  -1   1  -7  779.22   44.40
   1   1   7  775.92   45.80
  -1  -1  -7  771.02   45.30
   1  -1   7  867.11   56.59
   1  -1   7  775.62   47.40
   1  -1   7  805.92   46.60
  -1  -1  -7  789.62   45.70
   1  -1   7  794.72   47.90
   1  -1   7  791.82   55.89
   1   1   8  136.39   16.70
   1   1   8  133.49   16.90
   1   1   8  164.98   24.30
  -1   1  -8  157.88   20.50
   1   1   8  124.59   24.40
  -1   1  -8  134.59   15.50
  -1   1  -8  126.79   16.80
   1   1   8  148.59   15.30
  -1  -1  -8  119.69   14.70
   1  -1   8  148.79   16.40
   1  -1   8  164.48   27.10
   1  -1   8  165.08   21.10
   1  -1   8   83.89   23.00
   1  -1   8  147.39   19.20
  -1   1  -9    6.20   10.40
  -1   1  -9   15.20    9.30
   1   1   9    6.50   16.20
   1   1   9   18.50    8.80
  -1   1  -9    6.60    8.20
   1   1   9   32.00   18.60
   1   1   9   20.40   10.40
   1   1   9   14.70    9.20
   1  -1   9   23.30   17.70
  -1  -1  -9    9.90    7.60
   1  -1   9    7.10    9.70
   1  -1   9   -5.70   18.60
   1  -1   9   19.70   11.10
   1  -1   9    9.80    8.50
   1  -1   9   -5.70   10.30
  -1  -1  -9   28.80   11.50
   1   1  10  -11.30   12.10
   1   1  10    4.10   10.70
   1   1  10   -1.40    8.60
  -1   1 -10    2.20    9.00
  -1   1 -10   11.30   10.40
   1   1  10   -4.10   19.70
   1   1  10  -16.30   21.70
  -1   1 -10    0.30   14.20
   1  -1  10   11.60   14.50
   1  -1  10    7.40   23.00
   1  -1  10   50.19   33.90
   1  -1  10   16.20    9.30
  -1  -1 -10    6.40    9.20
   1  -1  10   10.60   13.00
  -1  -1 -10   19.20   13.00
  -1   1 -11    9.50   11.90
   1   1  11   -8.20   13.90
   1   1  11  -22.80   26.70
   1   1  11    0.80   28.90
  -1   1 -11   15.90   13.00
   1   1  11   26.10   18.10
   1   1  11   24.30   12.00
   1  -1  11   34.40   13.80
   1  -1  11  -11.90   28.80
  -1  -1 -11    7.90   12.00
   1  -1  11   20.70   29.40
  -1   2  11   23.30   12.40
  -1   2  11    1.40   35.10
   1   2 -11    3.00   14.60
  -1   2  11   44.20   32.50
  -1   2  11  -26.70   14.80
   1   2 -11    6.80   12.70
   1   2 -11    6.50   12.20
  -1  -2  11   22.70   15.30
   1  -2 -11    3.20   12.50
  -1  -2  11   14.90   29.80
   1   2 -10    8.50   11.40
   1   2 -10    4.00    9.40
   1   2 -10   -3.00   14.70
  -1   2  10  -11.20    8.80
  -1   2  10   12.90    9.10
  -1   2  10    0.50   22.80
  -1   2  10   17.00   12.00
   1   2 -10   -4.60   10.50
  -1  -2  10    0.20   13.90
   1  -2 -10    3.00    9.60
  -1  -2  10   13.80   13.30
  -1  -2  10   18.00   27.10
  -1  -2  10   -9.50    9.70
  -1  -2  10   10.80   16.40
  -1  -2  10   -0.60   24.90
  -1   2   9   98.29   23.70
  -1   2   9  117.49   15.80
   1   2  -9   91.59   15.70
  -1   2   9  139.99   24.50
   1   2  -9  151.78   21.50
  -1   2   9   95.59   14.60
   1   2  -9  123.39   19.10
   1   2  -9  128.59   18.90
  -1   2   9  105.49   14.30
  -1  -2   9  111.69   27.80
   1  -2  -9   81.39   23.00
  -1  -2   9  152.88   32.50
  -1  -2   9  131.69   17.60
  -1  -2   9  128.89   18.80
   1   2  -8    1.70    6.40
   1   2  -8    2.10    8.80
  -1   2   8    5.00   11.30
  -1   2   8    5.30    6.60
  -1   2   8   -1.30    5.60
  -1  -2   8   13.20    8.80
  -1  -2   8   17.60    8.50
   1  -2  -8    1.40    7.30
  -1  -2   8    7.50    8.60
  -1  -2   8    9.10   16.20
  -1  -2   8    9.60   14.10
  -1  -2   8   -3.00    6.20
  -1   2   7 1161.38   62.29
  -1   2   7 1109.39   60.19
  -1   2   7 1148.29   62.49
   1   2  -7 1203.48   66.49
   1   2  -7 1136.99   64.39
  -1   2   7 1192.38   69.19
   1  -2  -7 1143.09   61.39
  -1  -2   7 1121.99   72.59
  -1  -2   7 1156.78   62.49
  -1  -2   7 1117.49   73.99
  -1  -2   7 1117.59   64.69
  -1  -2   7 1143.29   64.29
   1  -2  -7 1165.58   63.29
  -1  -2   7 1118.49   64.99
   1  -2  -7 1126.49   70.49
   1   2  -6  -13.50    4.40
  -1   2   6   -1.70    4.20
  -1   2   6   11.10    7.70
   1   2  -6    2.20    4.90
   1   2  -6   -4.20    5.60
  -1   2   6    1.50    3.70
   1  -2  -6    1.80    4.20
   1  -2  -6    7.00    7.90
   1  -2  -6   -1.60    4.00
  -1  -2   6   -3.10    5.00
  -1  -2   6    3.70    5.10
  -1  -2   6    5.00    4.30
  -1  -2   6   -3.20    4.60
   1   2  -5 2240.38  112.19
  -1   2   5 2143.39  108.49
   1   2  -5 2261.07  111.69
  -1   2   5 2116.79  107.99
   1   2  -5 2187.48  110.49
  -1   2   5 2098.89  112.39
  -1  -2   5 2164.38  111.09
   1  -2  -5 2181.68  107.59
  -1  -2   5 2232.68  118.59
  -1  -2   5 2148.29  110.39
  -1  -2   5 2183.78  111.19
   1  -2  -5 2072.49  113.59
  -1  -2   5 2145.89  108.29
   1  -2  -5 2050.69  108.69
   1   2  -4   54.49    8.00
  -1   2   4   66.59    6.30
  -1   2   4   41.00    6.00
   1   2  -4   65.19    9.80
   1   2  -4   45.00    7.80
  -1   2   4   52.79    9.00
   1   2  -4   41.20   11.40
  -1  -2   4   55.29    8.40
   1  -2  -4   58.69   10.20
  -1  -2   4   55.89    7.80
  -1  -2   4   67.59    9.50
  -1  -2   4   49.50    6.10
   1  -2  -4   45.40    6.30
  -1  -2   4   55.09   12.30
   1  -2  -4   47.10    5.60
   1   2  -3  210.78   15.70
  -1   2   3  216.38   12.80
   1   2  -3  221.38   18.70
   1   2  -3  215.88   14.50
   1   2  -3  206.48   13.60
  -1   2   3  200.28   14.40
  -1   2   3  219.78   12.40
   1   2  -3  205.08   14.70
  -1  -2   3  206.68   12.60
  -1  -2   3  192.78   14.70
   1  -2  -3  201.38   12.00
  -1  -2   3  202.98   14.20
   1  -2  -3  190.68   15.00
  -1  -2   3  197.68   14.50
  -1   2   2   35.30    5.20
   1   2  -2   33.50    4.30
  -1   2   2   32.60    4.60
   1   2  -2   38.90    8.10
   1   2  -2   24.60    6.50
   1   2  -2   28.20    4.90
  -1  -2   2   29.70    4.50
  -1  -2   2   25.10    4.80
  -1  -2   2   33.00    3.90
  -1  -2   2   29.00    6.90
  -1  -2   2   38.40    5.20
   1  -2  -2   38.20    5.60
   1  -2  -2   28.70    4.70
  -1   2   1 2367.46  108.39
  -1   2   1 2263.17  109.19
   1   2  -1 2220.58  108.09
   1   2  -1 2309.17  107.39
   1   2  -1 2199.18  109.69
   1   2  -1 2146.89  107.69
   1   2  -1 2244.18  110.39
  -1  -2   1 2051.69  107.49
  -1  -2   1 2059.09  107.59
  -1  -2   1 2261.27  107.49
  -1  -2   1 2088.39  109.79
  -1  -2   1 2180.88  109.29
   1  -2  -1 2131.59  109.19
   1  -2  -1 2310.97  108.39
  -1   2   0   27.70    2.80
  -1   2   0   22.70    3.70
  -1   2   0   20.80    4.40
   1   2   0   24.50    4.10
   1   2   0   26.20    3.20
  -1   2   0   31.00    5.00
   1  -2   0   20.10    3.40
   1  -2   0   28.90    3.20
  -1  -2   0   27.20    3.40
   1  -2   0   33.20    4.80
   1  -2   0   23.80    4.70
  -1  -2   0   22.80    3.10
  -1   2  -1 6746.12  322.77
  -1   2  -1 6915.01  324.37
   1   2   1 6929.71  322.77
  -1   2  -1 6748.42  322.97
   1   2   1 6779.42  323.67
  -1   2  -1 6581.44  325.67
  -1   2  -1 6505.65  324.87
   1   2   1 6704.53  322.97
   1  -2   1 6360.36  322.97
   1  -2   1 7152.78  325.57
   1  -2   1 6192.28  323.87
   1  -2   1 6718.03  322.47
   1  -2   1 6636.84  325.17
  -1   2  -2   78.79    7.20
   1   2   2   74.89    5.80
   1   2   2   79.89    5.90
  -1   2  -2   79.09    9.30
  -1   2  -2   81.69    8.30
   1  -2   2   70.99    8.00
   1  -2   2   80.89    6.90
   1  -2   2   72.59    7.30
   1  -2   2   82.59   10.80
  -1   2  -3 1695.23   89.09
   1   2   3 1749.53   87.79
  -1   2  -3 1784.52   89.49
  -1   2  -3 1792.72   88.09
   1   2   3 1685.73   88.09
  -1   2  -3 1703.83   87.89
   1  -2   3 1721.23   88.49
   1  -2   3 1751.62   85.49
   1  -2   3 1751.52   92.49
   1  -2   3 1747.03   87.49
   1  -2   3 1684.03   93.29
   1  -2   3 1755.62   89.19
  -1   2  -4    1.00    3.50
   1   2   4    0.50    2.40
  -1   2  -4    2.90    3.90
  -1   2  -4    5.80    4.40
   1   2   4    2.60    4.80
   1   2   4   -4.10    2.70
  -1   2  -4    5.20    3.30
   1   2   4   -0.60    4.20
  -1  -2  -4   -0.20    2.30
   1  -2   4    4.30    4.10
   1  -2   4    2.40    3.50
   1  -2   4    9.70    7.10
   1  -2   4   -2.50    6.20
   1  -2   4    1.20    2.70
   1  -2   4    2.40    3.30
  -1  -2  -4    3.70    2.70
  -1   2  -5  103.49   11.70
  -1   2  -5   88.79   11.90
  -1   2  -5   95.09   11.50
   1   2   5  119.49   15.10
   1   2   5  111.49   15.20
   1   2   5  117.99   10.80
  -1   2  -5  122.19   11.70
   1   2   5  100.89    9.50
   1   2   5  111.69   10.50
   1  -2   5  121.99   12.60
   1  -2   5  103.59   11.00
  -1  -2  -5  104.29    9.70
   1  -2   5  110.69   18.30
  -1  -2  -5   96.49    9.20
   1  -2   5  124.69   10.60
   1  -2   5   96.59   18.10
   1  -2   5  102.19   13.10
   1   2   6    4.50    4.10
   1   2   6    8.90    7.60
  -1   2  -6    1.70    5.30
   1   2   6    7.70    5.40
   1   2   6   -1.80    7.80
   1   2   6   -2.70    4.70
  -1   2  -6    6.70    5.80
  -1   2  -6    7.40    4.90
  -1   2  -6    4.80    5.70
   1  -2   6    0.90    9.50
   1  -2   6    3.40    5.90
   1  -2   6   -5.30    9.30
  -1  -2  -6    5.40    4.40
  -1  -2  -6    1.60    3.80
   1  -2   6   -0.40    4.60
   1  -2   6    2.50    4.40
   1  -2   6    0.30    6.30
   1   2   7   34.20    8.60
  -1   2  -7   33.70    9.20
   1   2   7   38.50    8.40
  -1   2  -7   23.80    9.00
   1   2   7   31.40    7.30
   1   2   7   17.00   10.50
  -1   2  -7   29.80    8.40
  -1   2  -7   17.30    7.20
   1   2   7   29.70   13.10
   1  -2   7   42.30    9.50
   1  -2   7  -22.00   13.30
   1  -2   7   31.30   10.10
   1  -2   7   18.40    8.50
   1  -2   7   42.80   10.20
  -1  -2  -7   26.60    7.00
   1  -2   7   26.40   15.70
  -1  -2  -7   24.50    7.70
  -1   2  -8   42.40   10.70
   1   2   8   21.10    8.70
   1   2   8   27.20   16.10
   1   2   8    9.40   12.90
  -1   2  -8   32.50   11.70
  -1   2  -8   36.30    9.70
   1   2   8    6.80    9.30
   1  -2   8   21.40    9.90
  -1  -2  -8   31.30    9.40
  -1  -2  -8   15.30   10.10
   1  -2   8   26.60   10.70
   1  -2   8   45.30   20.00
   1  -2   8   62.39   22.60
   1  -2   8   27.00    8.40
   1  -2   8   39.10   11.70
   1   2   9  492.95   36.00
  -1   2  -9  563.54   39.50
  -1   2  -9  483.05   38.00
   1   2   9  487.15   43.40
   1   2   9  502.95   35.20
  -1   2  -9  454.25   35.60
   1   2   9  473.95   33.80
  -1   2  -9  485.75   34.30
   1   2   9  544.45   47.00
   1  -2   9  437.46   51.39
  -1  -2  -9  423.86   47.10
   1  -2   9  611.44   52.19
   1  -2   9  531.95   36.50
  -1  -2  -9  510.05   34.20
   1  -2   9  531.45   39.90
   1   2  10    4.00   24.70
  -1   2 -10    4.90   11.00
  -1   2 -10    8.10    9.90
   1   2  10   -1.70   11.30
   1   2  10    1.80   13.00
   1   2  10   14.70    9.60
  -1   2 -10   13.80   16.00
  -1   2 -10   -8.20    8.40
   1   2  10   54.99   35.00
   1  -2  10  -18.10   19.90
   1  -2  10   13.30   10.80
   1  -2  10   26.80   30.30
   1  -2  10   -4.50   26.50
  -1  -2 -10   -4.70    9.40
  -1   2 -11   99.79   19.30
   1   2  11  153.98   37.90
   1   2  11   71.09   17.60
   1   2  11  110.19   22.90
  -1   2 -11  114.19   22.90
   1  -2  11  117.69   20.70
   1  -2  11   92.29   36.50
  -1  -2 -11  100.59   17.80
  -1   3  10  204.68   36.50
   1   3 -10  188.28   24.10
   1   3 -10  155.18   25.60
   1   3 -10  143.99   21.70
  -1   3  10  144.39   33.00
  -1   3  10  126.99   18.80
  -1   3  10  133.49   19.10
   1   3 -10  188.88   29.30
  -1  -3  10  122.19   39.40
  -1  -3  10  202.38   41.90
  -1  -3  10  169.88   22.90
   1  -3 -10  157.08   19.60
  -1  -3  10  166.28   23.00
  -1   3   9   21.20    9.80
  -1   3   9   19.50   20.90
   1   3  -9   22.90   12.90
  -1   3   9   22.80    9.90
   1   3  -9   28.30   11.70
   1   3  -9   14.20    9.90
   1   3  -9   41.20   14.10
   1  -3  -9   16.10   10.30
  -1  -3   9   10.70   24.80
   1  -3  -9   14.70   10.30
  -1  -3   9   27.20   27.20
  -1  -3   9   51.59   13.60
  -1  -3   9   21.50   13.20
  -1  -3   9   36.80   18.80
   1   3  -8  132.89   18.80
   1   3  -8  147.19   19.50
  -1   3   8  111.69   24.10
  -1   3   8  121.49   15.20
   1   3  -8  156.68   21.40
   1   3  -8  111.69   18.00
  -1   3   8  120.29   15.00
  -1   3   8  114.49   19.30
  -1  -3   8  129.39   15.50
  -1  -3   8  138.79   18.10
   1  -3  -8  108.29   13.90
  -1  -3   8  120.59   28.00
  -1  -3   8  113.19   20.00
  -1  -3   8  113.19   18.00
  -1  -3   8  162.38   31.30
   1   3  -7   71.29   12.20
  -1   3   7   79.99   11.00
  -1   3   7   72.59   10.80
   1   3  -7   73.29   14.50
   1   3  -7   59.29   12.50
   1   3  -7   94.89   14.50
  -1  -3   7   87.89   21.90
  -1  -3   7  102.39   23.00
  -1  -3   7   91.69   11.60
  -1  -3   7   60.49   11.80
   1  -3  -7   66.59    9.40
   1   3  -6   11.80    8.10
   1   3  -6   15.60    7.30
  -1   3   6   11.40    4.80
  -1   3   6    6.50    4.90
   1   3  -6   10.30    6.80
  -1  -3   6   11.40   12.30
  -1  -3   6   17.80    5.40
   1  -3  -6   12.10    5.80
   1  -3  -6   -0.90    9.10
  -1  -3   6    9.00    6.10
  -1  -3   6   -5.50   11.50
   1  -3  -6   22.20    5.00
   1   3  -5   14.50    6.30
   1   3  -5   18.80    7.20
  -1   3   5   11.90    3.90
  -1   3   5    7.70    5.80
  -1   3   5    8.00    4.20
  -1  -3   5   10.60    4.20
  -1  -3   5   -2.90    5.20
  -1  -3   5    7.50   10.20
  -1  -3   5   14.50   10.20
   1  -3  -5    4.70    7.20
  -1  -3   5    3.70    4.80
  -1  -3   5    6.00    5.90
   1   3  -4  710.43   42.00
   1   3  -4  734.53   39.80
  -1   3   4  739.33   38.70
  -1  -3   4  527.75   43.60
  -1  -3   4  669.63   45.20
   1  -3  -4  664.73   39.80
  -1  -3   4  698.33   40.90
  -1  -3   4  701.63   39.20
  -1  -3   4  669.13   41.80
  -1  -3   4  712.23   36.40
   1   3  -3  609.94   37.20
  -1   3   3  601.64   34.50
   1   3  -3  608.84   34.80
   1   3  -3  600.74   33.30
  -1  -3   3  642.64   32.90
  -1  -3   3  616.04   36.40
  -1  -3   3  644.14   34.70
  -1  -3   3  605.44   39.40
  -1  -3   3  632.54   35.10
   1  -3  -3  618.64   34.60
  -1  -3   3  605.14   39.70
   1   3  -2 1611.14   84.59
   1   3  -2 1600.64   83.19
  -1   3   2 1644.04   87.49
  -1   3   2 1740.83   83.69
   1   3  -2 1705.63   87.69
  -1  -3   2 1716.13   88.99
  -1  -3   2 1659.83   88.29
  -1  -3   2 1686.63   86.69
   1  -3  -2 1748.72   84.29
  -1  -3   2 1693.53   84.79
  -1  -3   2 1735.13   83.39
   1  -3  -2 1690.83   86.19
  -1  -3   2 1661.13   84.29
   1   3  -1  738.53   36.30
   1   3  -1  685.63   39.50
  -1   3   1  699.23   37.30
  -1   3   1  707.53   39.30
   1   3  -1  667.43   40.10
  -1   3   1  693.93   37.10
  -1  -3   1  691.23   42.60
  -1  -3   1  698.33   36.10
  -1  -3   1  697.53   38.80
   1  -3  -1  779.92   37.20
  -1  -3   1  686.23   38.80
   1  -3  -1  694.33   39.60
   1   3   0  886.51   42.80
   1   3   0  835.12   45.70
  -1   3   0  815.42   45.50
  -1   3   0  805.42   44.20
   1   3   0  805.52   44.50
  -1   3   0  771.02   43.70
   1  -3   0  906.01   44.40
   1  -3   0  810.82   43.40
  -1  -3   0  800.82   41.60
  -1  -3   0  823.92   41.90
   1   3   1    7.00    2.70
  -1   3  -1    9.70    2.90
  -1   3  -1    7.80    4.50
   1   3   1    3.20    4.00
  -1   3  -1   11.90    4.40
   1   3   1   12.60    3.80
  -1   3  -1    5.70    3.00
   1  -3   1    7.00    2.30
   1  -3   1   19.90    5.70
   1  -3   1    9.40    3.90
   1  -3   1    9.20    3.10
  -1   3  -2  358.96   22.70
   1   3   2  340.07   20.00
  -1   3  -2  348.97   20.70
  -1   3  -2  331.77   23.00
   1   3   2  326.27   20.10
  -1   3  -2  340.37   20.20
   1  -3   2  325.47   20.80
   1  -3   2  311.17   23.60
   1  -3   2  352.36   22.30
   1  -3   2  350.76   19.80
   1  -3   2  325.87   24.90
  -1   3  -3  427.06   26.70
  -1   3  -3  374.46   23.80
  -1   3  -3  413.26   26.80
  -1   3  -3  382.16   24.20
   1  -3   3  375.16   24.60
   1  -3   3  344.67   28.60
   1  -3   3  430.76   26.30
   1  -3   3  395.66   28.40
   1  -3   3  395.36   23.60
   1   3   4  650.33   35.80
  -1   3  -4  688.13   37.80
  -1   3  -4  623.74   39.40
  -1   3  -4  666.33   39.90
   1   3   4  607.94   35.40
  -1   3  -4  672.63   38.00
   1  -3   4  651.73   33.60
   1  -3   4  626.04   39.30
   1  -3   4  686.33   37.20
   1  -3   4  637.54   38.40
   1  -3   4  622.64   43.10
  -1   3  -5  341.77   25.70
  -1   3  -5  327.97   23.90
   1   3   5  338.17   23.50
  -1   3  -5  343.97   25.10
  -1   3  -5  318.77   23.20
   1   3   5  321.07   23.60
   1  -3   5  318.57   19.70
   1  -3   5  338.67   30.70
   1  -3   5  323.97   22.90
   1  -3   5  356.46   24.90
   1  -3   5  323.87   25.10
   1  -3   5  367.66   32.30
   1   3   6  308.07   19.90
  -1   3  -6  261.87   21.90
  -1   3  -6  335.27   24.60
  -1   3  -6  266.37   24.60
   1   3   6  284.87   19.00
   1   3   6  301.37   24.70
   1   3   6  272.57   20.50
  -1   3  -6  265.57   23.20
   1  -3   6  289.17   32.30
   1  -3   6  309.57   19.80
   1  -3   6  285.27   31.60
   1  -3   6  305.57   22.60
  -1   3  -7  126.79   15.50
   1   3   7  156.38   21.30
  -1   3  -7  130.19   18.70
  -1   3  -7  117.19   17.10
   1   3   7  122.29   13.80
  -1   3  -7  103.39   15.70
   1   3   7   97.19   12.20
   1   3   7  121.19   14.20
  -1  -3  -7  105.89   12.80
   1  -3   7  135.69   14.00
   1  -3   7  132.29   26.10
   1  -3   7  160.98   36.20
  -1  -3  -7  111.69   12.30
   1  -3   7  117.99   15.60
   1   3   8  191.98   17.50
   1   3   8  197.18   25.40
  -1   3  -8  196.68   24.20
   1   3   8  171.08   19.20
  -1   3  -8  168.98   22.70
   1   3   8  242.28   29.40
   1   3   8  203.88   19.20
  -1   3  -8  212.58   20.80
  -1   3  -8  188.48   22.80
   1  -3   8  306.57   40.70
   1  -3   8  205.88   36.00
   1  -3   8  219.48   25.20
   1  -3   8  187.08   20.80
   1  -3   8  172.98   18.50
  -1  -3  -8  169.98   17.10
  -1  -3  -8  165.38   18.20
   1  -3   8  205.18   25.00
   1   3   9   12.40   21.00
  -1   3  -9    7.60   11.90
   1   3   9   -8.00    9.70
  -1   3  -9    7.80    9.70
   1   3   9    9.90    8.70
   1   3   9    1.70    9.60
   1   3   9   44.40   27.00
  -1   3  -9   30.90   14.40
  -1   3  -9   10.40    9.50
   1  -3   9    2.80   10.40
   1  -3   9  -18.10   26.00
   1  -3   9   24.90   24.40
  -1  -3  -9   -4.60    8.10
  -1  -3  -9    3.40   10.90
   1   3  10   13.80   26.80
  -1   3 -10    0.50   10.40
   1   3  10  -20.50   11.50
   1   3  10   14.10   13.70
  -1   3 -10   10.40   13.70
   1   3  10   11.00   10.80
  -1   3 -10    0.30   11.50
   1  -3  10   23.60   33.40
  -1  -3 -10   -9.00   10.40
   1  -3  10   10.50   14.00
   1  -3  10  -36.30   34.00
   1  -3  10    6.00   12.20
  -1   4   9   31.60   11.10
   1   4  -9   25.20   18.20
   1   4  -9   30.80   16.20
   1   4  -9   21.20   13.80
  -1   4   9    3.40   10.30
   1   4  -9   29.80   13.20
  -1   4   9   43.50   24.70
  -1  -4   9   32.00   14.80
  -1  -4   9   41.80   46.20
  -1  -4   9   46.90   33.40
   1   4  -8   93.29   16.40
  -1   4   8   90.19   18.70
   1   4  -8  119.29   20.00
   1   4  -8  116.59   19.80
   1   4  -8   95.39   20.20
  -1   4   8  113.19   23.00
  -1  -4   8  123.79   14.80
  -1  -4   8  109.99   18.00
  -1  -4   8  122.19   31.10
  -1  -4   8  111.59   32.10
  -1   4   7   81.49   14.60
   1   4  -7   85.99   17.40
   1   4  -7   85.39   14.20
   1   4  -7   98.49   16.40
  -1   4   7  110.39   18.70
   1   4  -7  109.19   18.10
  -1  -4   7  117.49   17.20
  -1  -4   7  103.69   26.40
  -1  -4   7   61.19   23.40
  -1  -4   7   91.69   14.90
  -1  -4   7   86.09   16.20
  -1  -4   7  100.09   12.80
  -1   4   6  671.93   41.70
   1   4  -6  755.42   47.90
   1   4  -6  678.13   43.80
   1   4  -6  706.63   43.50
   1   4  -6  689.83   46.30
  -1   4   6  645.94   42.90
  -1  -4   6  681.33   45.40
  -1  -4   6  710.23   38.70
  -1  -4   6  716.33   44.00
  -1  -4   6  716.73   53.09
  -1  -4   6  722.13   43.20
   1   4  -5   -0.10    7.60
   1   4  -5    2.10    5.90
   1   4  -5   14.20    7.50
   1   4  -5   -0.50    8.50
  -1   4   5    4.30    7.20
  -1  -4   5    8.40   12.10
  -1  -4   5   17.20   13.00
  -1  -4   5   12.60    6.80
  -1  -4   5    7.30    5.10
  -1   4   4  463.85   26.20
   1   4  -4  467.05   28.80
   1   4  -4  395.56   31.20
   1   4  -4  476.15   32.00
   1   4  -4  474.25   28.70
  -1  -4   4  355.56   25.20
  -1  -4   4  459.15   28.60
  -1  -4   4  457.05   27.80
  -1  -4   4  462.25   30.60
  -1  -4   4  409.36   34.70
  -1  -4   4  433.16   34.60
   1   4  -3    2.80    3.80
   1   4  -3   -8.20    4.40
   1   4  -3    6.80    7.00
   1   4  -3    2.00    5.70
   1   4  -3   -0.80    3.90
  -1  -4   3   -5.10    3.90
  -1  -4   3    0.30    6.40
  -1  -4   3   -8.70    4.20
  -1  -4   3   -1.30    7.90
  -1  -4   3    3.00    3.40
  -1   4   2   62.69    9.20
   1   4  -2   46.60    9.60
   1   4  -2   49.70    6.20
   1   4  -2   52.19    6.80
   1   4  -2   49.40    6.80
   1   4  -2   44.10    9.60
  -1  -4   2   50.39    6.50
  -1  -4   2   57.79   10.60
  -1  -4   2   65.89   11.70
  -1  -4   2   41.30    8.10
  -1  -4   2   45.80    5.80
   1   4  -1    9.30    5.90
  -1   4   1    2.50    5.20
   1   4  -1   14.30    3.70
  -1   4   1    8.10    3.00
   1   4  -1    7.80    5.50
  -1   4   1    0.00    4.40
  -1  -4   1    5.70    5.10
  -1  -4   1    3.10    4.10
  -1  -4   1   14.60    5.60
   1  -4  -1   10.60    4.10
  -1   4   0  984.40   54.49
   1   4   0 1006.70   53.39
  -1   4   0  989.00   52.39
   1   4   0 1008.60   54.79
   1  -4   0  797.92   51.39
   1  -4   0  983.80   51.39
   1  -4   0  997.30   52.39
   1   4   1  285.97   21.50
  -1   4  -1  290.37   18.60
  -1   4  -1  313.17   21.60
  -1   4  -1  285.47   22.50
   1   4   1  312.97   20.90
   1   4   1  328.07   18.60
   1  -4   1  304.77   22.70
   1  -4   1  288.37   20.80
   1  -4   1  313.27   20.90
  -1   4  -2 2046.70   99.89
   1   4   2 1997.70  101.19
  -1   4  -2 1961.80  104.99
   1   4   2 2084.89   99.99
   1   4   2 1996.40  102.19
  -1   4  -2 1957.70  103.59
   1  -4   2 2009.60  104.09
   1  -4   2 1983.50  101.09
   1  -4   2 1961.70   98.99
   1  -4   2 1929.91  102.79
  -1   4  -3  180.98   16.10
  -1   4  -3  199.68   18.30
   1   4   3  219.58   15.50
   1   4   3  192.38   14.80
  -1   4  -3  207.68   19.10
  -1   4  -3  205.18   15.10
   1  -4   3  201.18   18.00
   1  -4   3  191.98   16.60
   1  -4   3  189.48   14.40
   1  -4   3  198.08   22.10
  -1   4  -4  488.75   30.20
   1   4   4  534.35   30.50
  -1   4  -4  462.65   31.10
  -1   4  -4  474.65   33.70
   1   4   4  502.55   28.50
  -1   4  -4  453.95   33.20
   1  -4   4  460.35   36.10
   1  -4   4  462.65   31.50
   1  -4   4  520.05   33.60
   1  -4   4  514.85   29.90
   1  -4   4  465.75   38.50
  -1   4  -5    5.20    8.20
  -1   4  -5    6.30    7.40
  -1   4  -5    3.70    5.40
  -1   4  -5    3.50    7.10
   1  -4   5   -4.90   12.10
   1  -4   5    6.10    6.00
   1  -4   5   -6.60   11.90
  -1   4  -6   19.30    7.80
   1   4   6   20.20    7.60
  -1   4  -6   27.40   11.10
  -1   4  -6   11.00    8.80
   1   4   6   18.00    8.60
  -1   4  -6   36.60   11.00
   1  -4   6   15.80    7.80
   1  -4   6   16.30   17.50
   1  -4   6   39.60   17.60
   1  -4   6   16.40   10.50
   1  -4   6   25.40   11.10
   1  -4   6   19.00    5.60
  -1   4  -7   -3.90    9.10
  -1   4  -7   10.90   10.50
   1   4   7    6.30    9.60
  -1   4  -7    6.20    7.60
  -1   4  -7    5.90   12.00
   1   4   7   20.50   11.90
   1  -4   7    9.60   11.60
   1  -4   7  -23.70   19.20
   1  -4   7   -7.50   18.40
   1  -4   7    0.90    8.70
   1  -4   7   11.20    6.40
   1  -4   7  -10.60   12.80
  -1   4  -8  246.38   28.60
  -1   4  -8  233.18   23.90
  -1   4  -8  226.18   26.40
  -1   4  -8  282.07   30.40
   1   4   8  294.37   30.60
   1   4   8  213.08   26.00
   1  -4   8  159.48   42.10
   1  -4   8  266.07   25.20
   1  -4   8  246.48   20.50
   1  -4   8  266.67   40.60
  -1   4  -9  -31.90   32.80
  -1   4  -9   -3.20   12.10
   1   4   9   18.60   11.80
   1   4   9   -7.10    9.10
  -1   4  -9   -1.60   22.00
  -1   4  -9   -7.40   12.40
   1   4   9  -37.50   20.80
   1  -4   9  -18.40   34.50
   1  -4   9   43.90   33.80
   1  -4   9    7.00   10.90
   1  -4   9   -1.00   12.80
   1   5  -8   42.30   14.70
  -1   5   8   11.00   18.40
   1   5  -8   31.40   20.00
   1   5  -8   37.20   17.30
  -1  -5   8   21.60   14.60
  -1  -5   8   18.10   12.60
  -1   5   7   18.90   12.30
  -1   5   7   42.30   12.70
   1   5  -7   31.20   11.90
   1   5  -7   25.50   15.00
   1   5  -7   36.80   16.20
   1   5  -7   47.80   16.30
  -1  -5   7   -5.30   24.20
  -1  -5   7   28.40   25.50
  -1  -5   7   22.70   12.10
  -1  -5   7   12.50   12.00
   1   5  -6   -3.70   11.10
   1   5  -6   -4.80    8.80
   1   5  -6    6.30   11.40
   1   5  -6  -16.60   11.70
  -1  -5   6  -11.10    8.90
  -1  -5   6   -6.50    7.90
  -1  -5   6   -1.20   17.90
  -1  -5   6  -12.80   19.60
  -1  -5   6   -0.30   12.50
  -1  -5   6  -13.50   13.40
   1   5  -5  183.28   18.50
   1   5  -5  176.28   23.20
   1   5  -5  205.38   23.30
   1   5  -5  183.18   20.10
  -1  -5   5  154.68   14.10
  -1  -5   5  170.18   17.50
  -1  -5   5  164.68   26.30
  -1  -5   5  158.28   18.30
  -1  -5   5  136.89   19.60
   1   5  -4  216.98   18.90
   1   5  -4  265.77   24.60
  -1   5   4  215.48   17.50
   1   5  -4  186.38   23.10
   1   5  -4  195.08   19.10
  -1  -5   4  211.28   25.40
  -1  -5   4  213.58   14.70
  -1  -5   4  181.28   21.80
  -1  -5   4  262.57   23.30
  -1  -5   4  209.58   26.20
  -1  -5   4  211.28   17.80
  -1   5   3  481.85   32.80
   1   5  -3  533.05   30.70
  -1   5   3  502.45   29.90
   1   5  -3  495.05   36.00
   1   5  -3  528.15   37.70
  -1  -5   3  510.65   36.70
  -1  -5   3  507.85   36.40
   1   5  -2  198.68   20.80
  -1   5   2  218.68   14.70
   1   5  -2  194.28   14.30
  -1   5   2  193.98   19.10
  -1  -5   2  188.08   19.20
  -1  -5   2  207.38   18.70
  -1  -5   2  213.58   18.90
   1   5  -1  319.77   26.30
   1   5  -1  298.67   18.90
  -1   5   1  337.17   22.80
  -1   5   1  305.67   24.70
   1   5  -1  320.87   25.20
  -1  -5   1  334.77   20.80
  -1  -5   1  332.47   21.20
  -1   5   0  117.09   13.90
  -1   5   0  100.09   15.00
   1   5   0  120.49   16.10
   1   5   0  117.69   14.70
   1   5   0  104.29   10.70
   1  -5   0  128.29   12.80
   1  -5   0  131.39   12.50
   1   5   1  159.08   17.50
   1   5   1  184.28   14.30
   1   5   1  154.28   16.20
  -1   5  -1  152.28   18.00
  -1   5  -1  161.88   16.90
   1  -5   1  158.38   17.00
   1  -5   1  138.19   16.80
   1  -5   1  150.48   15.50
   1   5   2    0.10    7.10
   1   5   2    4.60    4.90
  -1   5  -2   -0.40    8.20
  -1   5  -2    0.40    5.90
   1   5   2   -6.60    6.40
  -1   5  -2    0.70    7.60
   1  -5   2   -4.50    8.20
   1  -5   2    2.40   10.60
   1  -5   2    8.30    7.60
  -1   5  -3   73.29   10.30
  -1   5  -3   86.39   14.50
   1   5   3   92.29   11.10
   1   5   3  111.19   13.30
  -1   5  -3   98.99   13.00
  -1   5  -3  104.69   16.70
   1  -5   3  109.89   10.10
   1  -5   3   60.59   12.30
   1  -5   3   86.29   15.60
   1  -5   3   85.89   18.00
   1   5   4  145.49   14.60
   1   5   4  128.29   14.30
  -1   5  -4  152.68   19.50
  -1   5  -4  133.19   13.90
  -1   5  -4  123.69   15.30
  -1   5  -4  123.59   18.60
   1  -5   4  131.09   16.50
   1  -5   4  157.18   28.30
   1  -5   4  121.29   21.30
   1  -5   4  117.59   17.70
   1  -5   4  121.79   13.10
  -1   5  -5  483.95   37.40
  -1   5  -5  482.95   32.20
  -1   5  -5  503.55   37.50
   1   5   5  500.35   32.10
  -1   5  -5  462.25   34.90
   1  -5   5  482.75   52.49
   1  -5   5  492.45   42.00
   1  -5   5  502.55   45.20
   1  -5   5  472.35   31.40
  -1   5  -6  107.69   14.70
  -1   5  -6   54.99   15.30
   1   5   6  100.19   15.20
  -1   5  -6   85.39   17.70
  -1   5  -6  123.89   17.70
   1  -5   6   93.89   14.00
   1  -5   6  115.89   20.00
   1  -5   6  125.19   29.40
   1  -5   6  143.89   27.80
   1  -5   6   62.59   17.40
  -1   5  -7  161.78   24.00
  -1   5  -7  161.78   23.60
   1   5   7  165.78   21.30
  -1   5  -7  155.68   23.10
  -1   5  -7  142.89   19.20
   1  -5   7  164.98   19.70
   1  -5   7  116.59   30.50
   1  -5   7  104.79   43.60
  -1   5  -8   -7.70   20.20
  -1   5  -8   41.60   18.10
  -1   5  -8   21.20   12.80
   1  -5   8   23.00   48.10
   1  -5   8   50.39   15.20
   1  -5   8   58.39   34.70
   1  -5   8   32.80   10.40
   1   6  -6   25.90   18.00
  -1   6   6   29.50   11.90
   1   6  -6    1.50   12.10
   1   6  -6   26.20   16.10
   1   6  -6   24.80   17.50
  -1  -6   6  -19.40   12.20
  -1  -6   6   40.20   30.10
  -1   6   5  171.48   18.70
   1   6  -5  167.88   20.40
   1   6  -5  178.98   29.70
   1   6  -5  177.98   20.10
   1   6  -5  119.79   23.60
  -1  -6   5  154.08   29.60
  -1  -6   5  132.09   15.70
  -1  -6   5  113.19   21.20
   1   6  -4   20.50    8.40
   1   6  -4   -8.40   13.30
  -1   6   4   21.70    8.60
   1   6  -4  -16.20   10.00
   1   6  -4  -11.80   13.00
  -1  -6   4   30.30   16.70
  -1  -6   4    5.40   16.60
  -1  -6   4   -5.70   17.50
   1   6  -3   -3.60   12.10
  -1   6   3   -9.20   12.90
  -1   6   3   -6.90    7.00
   1   6  -3    1.30   12.90
  -1  -6   3   16.40   14.30
  -1  -6   3  -16.50   11.80
   1   6  -2    5.90   11.20
  -1   6   2  -24.40   10.80
  -1   6   2    3.10    7.40
   1   6  -2    7.80   12.20
  -1  -6   2   16.10   10.70
  -1  -6   2   14.70   11.50
  -1   6   1   42.70   11.80
   1   6  -1   38.10   12.90
   1   6  -1   38.10   12.30
  -1   6   1   45.90   13.20
   1   6   0   19.00    6.60
  -1   6   0    2.00   10.50
   1   6   0   20.10   11.80
   1   6   0   14.00   10.90
  -1   6   0   13.40   11.00
   1   6   1  391.26   32.10
  -1   6  -1  412.36   31.20
  -1   6  -1  380.86   32.80
   1   6   1  388.16   30.00
   1   6   1  363.26   25.10
   1  -6   1  423.56   27.20
   1  -6   1  358.86   28.00
   1   6   2    3.10    9.00
  -1   6  -2    8.10   11.70
  -1   6  -2    8.50   11.90
   1   6   2   12.00   10.50
   1   6   2    8.20   18.20
   1  -6   2   15.60   10.90
   1  -6   2    6.10   13.40
   1  -6   2    8.50   14.00
  -1   6  -3  156.18   21.90
   1   6   3  207.98   17.90
  -1   6  -3  155.08   22.20
  -1   6  -3  212.18   24.40
   1   6   3  143.99   19.90
   1  -6   3  165.18   25.50
   1  -6   3  145.69   22.60
  -1   6  -4   59.09   10.80
  -1   6  -4   56.59   16.60
  -1   6  -4   18.60   12.90
   1   6   4   50.99   10.70
  -1   6  -4   31.90   15.80
   1  -6   4   51.19    9.40
   1  -6   4   22.70   18.10
   1  -6   4   57.69   17.40
   1  -6   4   46.50   22.90
  -1   6  -5   32.50   15.40
  -1   6  -5   -5.80    9.00
   1   6   5   16.70    9.30
  -1   6  -5  -12.40   14.90
   1  -6   5   29.60   25.40
   1  -6   5   -2.70    8.60
  -1   6  -6    2.10   18.70
  -1   6  -6   20.30   16.40
   1   6   6   10.40   12.10
   1  -6   6   -3.40   11.10
   1  -6   6    0.20   29.80
   1   7  -1   18.60   18.60
  -1   7   1    9.20   15.90
  -1   7   1    4.80   17.30
   1   7  -1   24.40   17.70
  -1   7   0   55.19   19.50
   1   7   0   58.89   19.90
  -1   7   0   74.89   19.20
   1   7   0   53.99   19.00
   1   7   1   30.60   17.60
  -1   7  -1   12.90   17.20
   1   7   1  -11.40   15.30
   2   0 -11  -17.20   10.00
  -2   0  11    0.10   10.80
  -2   0  11    8.00   27.40
  -2   0  11  -18.80   25.90
  -2   0  11   -5.70   14.60
  -2   0  10   98.09   17.00
   2   0 -10   89.39   15.30
  -2   0  10  109.39   19.40
  -2   0  10   88.69   15.60
  -2   0  10  155.08   31.80
  -2   0  10   96.39   17.80
   2   0 -10   77.79   16.50
  -2   0   9   -7.90   15.00
   2   0  -9   -5.60    6.80
  -2   0   9   -7.70    8.70
   2   0  -9    0.60    8.50
   2   0  -9   22.00   29.80
  -2   0   9   -4.10    6.40
  -2   0   9    8.30    7.70
  -2   0   9    5.10    8.70
   2   0  -8  307.57   34.40
  -2   0   8  279.37   23.00
  -2   0   8  265.27   30.20
  -2   0   8  312.77   24.70
   2   0  -8  310.57   23.30
   2   0  -8  359.36   26.40
  -2   0   8  292.47   23.80
   2   0  -8  318.17   24.40
  -2   0   7  -10.00    3.90
  -2   0   7    1.20    5.20
   2   0  -7   -1.60    5.50
   2   0  -7   -6.80    9.90
  -2   0   7   -7.20    4.30
   2   0  -7    3.10    5.20
   2   0  -7    3.20    4.80
  -2   0   7    8.30    6.00
  -2   0   7    0.90   10.20
   2   0  -6 2159.38  107.59
   2   0  -6 2130.89  107.69
  -2   0   6 2132.49  106.89
  -2   0   6 2083.39  108.19
   2   0  -6 2107.19  109.09
  -2   0   6 2006.10  114.49
  -2   0   6 2049.70  108.19
   2   0  -6 2024.50  115.69
  -2   0   6 2196.98  108.59
   2   0  -5    9.90    6.40
  -2   0   5   -3.00    3.10
  -2   0   5    2.00    3.00
   2   0  -5   -0.10    3.50
  -2   0   5    0.30    2.90
   2   0  -5   -1.80    3.10
  -2   0   5    2.60    6.40
  -2   0   5    2.30    3.20
  -2   0   4 4744.93  226.98
   2   0  -4 4504.95  232.18
   2   0  -4 4502.95  226.18
   2   0  -4 4734.93  226.18
  -2   0   4 4522.85  226.68
   2   0  -4 4697.23  227.58
  -2   0   4 4645.84  231.68
  -2   0   4 4664.53  226.78
  -2   0   4 4663.13  225.68
  -2   0   3   -0.50    1.80
  -2   0   3    2.30    1.80
   2   0  -3    0.40    1.80
   2   0  -3    1.70    1.80
  -2   0   3    2.40    3.40
   2   0  -3   -0.70    1.90
   2   0  -3   -2.40    3.80
  -2   0   3    0.50    2.00
  -2   0   3   -1.90    1.50
   2   0  -2 1462.55   72.49
  -2   0   2 1458.45   72.69
   2   0  -2 1494.45   72.29
  -2   0   2 1450.05   71.89
   2   0  -2 1475.55   72.99
   2   0  -2 1429.46   72.89
  -2   0   2 1520.95   72.79
  -2   0   2 1427.16   72.59
   2   0  -2 1452.45   75.79
  -2   0   2 1450.25   75.39
   2   0  -1   -0.10    0.80
   2   0  -1    0.90    1.10
  -2   0   1    1.10    1.20
   2   0  -1    1.10    1.00
   2   0  -1   -0.70    1.90
   2   0  -1    0.30    1.80
   2   0  -1    0.40    1.00
  -2   0   1    0.80    1.80
  -2   0   1    0.10    1.70
  -2   0   1    0.00    0.90
  -2   0   1    0.10    0.80
  -2   0   0  151.98   11.60
   2   0   0  182.88   10.00
  -2   0   0  174.88   10.20
   2   0   0  175.78   10.10
   2   0   0  177.38    9.90
   2   0   0  178.28   12.10
  -2   0   0  154.18   10.80
  -2   0   0  177.58   10.60
   2   0   1    0.30    0.80
   2   0   1    0.70    0.90
  -2   0  -1   -0.40    0.80
   2   0   1    1.50    1.00
  -2   0  -1   -0.90    0.80
  -2   0  -1    1.70    1.40
   2   0   1   -0.30    2.00
  -2   0  -1    1.00    0.80
   2   0   1    1.90    1.50
  -2   0  -1    1.90    2.20
  -2   0  -2 5142.69  248.88
   2   0   2 5176.68  248.68
   2   0   2 4910.71  251.17
  -2   0  -2 5104.59  251.87
   2   0   2 5158.38  249.78
  -2   0  -2 5305.97  248.88
   2   0   2 5189.48  249.18
   2   0   3   -1.70    2.10
   2   0   3   -0.10    2.20
  -2   0  -3    5.30    3.70
   2   0   3   -1.50    3.70
  -2   0  -3    1.50    1.80
  -2   0  -3   -0.80    1.90
   2   0   3   -1.20    1.60
   2   0   4 5567.64  271.57
  -2   0  -4 5653.43  270.67
  -2   0  -4 5695.83  271.57
   2   0   4 5394.26  274.97
   2   0   4 5448.05  271.37
   2   0   4 5487.25  270.17
  -2   0  -4 5594.44  270.77
  -2   0  -5    3.40    3.70
   2   0   5    4.20    4.10
   2   0   5   -0.60    2.90
  -2   0  -5    8.20    4.20
   2   0   5    0.00    6.60
  -2   0  -5   -5.00    3.20
   2   0   5   -5.50    5.60
   2   0   5    2.40    3.70
   2   0   6  621.94   44.30
  -2   0  -6  640.94   36.70
   2   0   6  618.94   37.40
   2   0   6  633.84   36.30
  -2   0  -6  486.55   42.70
  -2   0  -6  600.94   36.90
   2   0   6  594.84   37.30
   2   0   6  668.83   44.10
   2   0   7    3.30    6.50
   2   0   7   -6.20   10.40
   2   0   7    3.90    6.10
  -2   0  -7    2.50    5.90
   2   0   7   -2.00   11.10
   2   0   7  -11.00    4.00
  -2   0  -7   -6.00    4.30
  -2   0  -7   -0.60    5.00
   2   0   8   -7.30   13.50
  -2   0  -8   16.40    6.80
   2   0   8   11.40    6.30
   2   0   8   11.70    8.40
   2   0   8   51.09   18.20
   2   0   8   23.40    9.00
   2   0   9    3.10    7.40
   2   0   9    0.60    9.60
   2   0   9   17.90   10.60
  -2   0  -9   -0.30    7.30
   2   0   9   12.30   19.40
  -2   0  -9   15.30   10.60
   2   0  10  222.58   38.60
   2   0  10  226.88   27.60
   2   0  10  274.67   41.60
  -2   0 -10  235.08   23.80
   2   0  10  200.58   23.30
  -2   0 -10  243.98   29.60
   2   0  11   33.10   30.70
   2   0  11    2.80   11.70
   2   0  11    1.30   30.00
   2   0  11  -11.20   19.20
  -2   0 -11  -11.80   10.40
  -2   1  11   15.50   15.70
  -2   1  11   24.60   11.50
   2   1 -11   14.90   13.50
  -2   1  11   13.40   28.50
  -2   1  11   29.60   12.80
  -2  -1  11   42.60   31.40
  -2  -1  11   23.70   27.00
  -2  -1  11   19.70   15.30
  -2  -1  11   25.90   13.20
   2   1 -10   36.20   15.60
  -2   1  10   72.99   13.20
   2   1 -10   44.60   13.50
  -2   1  10   52.59   11.80
  -2   1  10   55.39   14.20
  -2   1  10   34.30   21.50
  -2   1  10   66.29   18.50
  -2  -1  10   51.69   16.80
  -2  -1  10   90.09   17.70
   2  -1 -10   39.90   12.80
  -2  -1  10   78.19   17.30
   2  -1 -10   32.10   13.70
  -2  -1  10   67.59   28.60
  -2  -1  10   56.59   25.80
  -2  -1  10   41.10   12.00
  -2   1   9  432.26   36.80
  -2   1   9  469.45   32.90
  -2   1   9  416.96   29.90
   2   1  -9  421.96   33.20
   2   1  -9  446.06   33.80
  -2   1   9  448.96   32.60
  -2   1   9  433.76   45.30
  -2  -1   9  532.15   34.80
   2  -1  -9  469.55   33.00
  -2  -1   9  450.05   34.00
   2  -1  -9  473.45   34.20
   2  -1  -9  477.35   30.80
  -2  -1   9  417.36   33.90
   2  -1  -9  381.56   43.40
  -2  -1   9  462.25   33.30
  -2  -1   9  453.85   45.70
  -2   1   8  210.58   19.50
  -2   1   8  224.08   17.80
  -2   1   8  213.58   28.70
   2   1  -8  218.28   20.70
   2   1  -8  251.77   21.30
  -2   1   8  224.48   19.90
   2   1  -8  205.08   31.60
   2   1  -8  240.08   21.60
  -2  -1   8  247.38   32.90
  -2  -1   8  258.57   21.10
   2  -1  -8  211.38   20.80
  -2  -1   8  197.68   21.00
  -2  -1   8  212.78   20.70
  -2  -1   8  201.38   20.00
   2  -1  -8  195.98   17.80
   2  -1  -8  239.88   38.80
   2   1  -7  228.58   20.00
  -2   1   7  226.28   24.00
  -2   1   7  184.88   17.30
   2   1  -7  228.68   19.50
  -2   1   7  189.08   15.80
   2   1  -7  210.08   18.70
  -2   1   7  198.28   20.90
   2   1  -7  234.28   28.20
  -2   1   7  194.48   17.40
   2  -1  -7  220.88   19.00
   2  -1  -7  204.08   17.10
  -2  -1   7  230.18   19.70
  -2  -1   7  222.68   18.60
  -2  -1   7  225.88   25.70
   2  -1  -7  224.78   16.70
   2  -1  -7  208.18   24.50
  -2  -1   7  202.28   18.40
  -2  -1   7  228.28   18.70
   2   1  -6  669.23   49.10
   2   1  -6  725.33   43.00
   2   1  -6  766.02   42.60
  -2   1   6  722.43   41.80
  -2   1   6  742.53   47.40
  -2   1   6  707.83   39.60
   2   1  -6  760.62   43.90
  -2   1   6  712.43   41.30
   2  -1  -6  744.43   42.60
  -2  -1   6  794.82   43.50
  -2  -1   6  693.23   49.40
  -2  -1   6  726.13   42.70
   2  -1  -6  710.33   48.40
  -2  -1   6  708.63   41.50
   2  -1  -6  718.63   41.10
   2  -1  -6  745.13   39.90
  -2  -1   6  688.03   41.70
  -2   1   5    9.60    6.00
  -2   1   5    6.40    3.30
   2   1  -5    1.50    4.10
   2   1  -5    3.90    3.80
  -2   1   5    0.40    2.70
   2   1  -5    3.00    6.40
  -2   1   5    0.00    2.90
   2   1  -5    4.50    3.60
  -2  -1   5    1.60    3.40
  -2  -1   5    6.90    7.50
   2  -1  -5    4.00    3.00
  -2  -1   5    4.20    3.80
  -2  -1   5    1.70    3.40
   2  -1  -5    0.30    3.40
   2  -1  -5    4.70    6.20
  -2  -1   5    0.40    3.70
   2  -1  -5    4.40    2.80
  -2   1   4  185.38   13.20
   2   1  -4  206.48   15.00
  -2   1   4  194.78   13.70
  -2   1   4  186.28   16.70
   2   1  -4  159.28   18.00
   2   1  -4  203.98   14.40
   2   1  -4  197.98   14.90
   2  -1  -4  207.88   18.00
  -2  -1   4  201.78   14.30
  -2  -1   4  189.98   18.60
   2  -1  -4  202.28   14.30
  -2  -1   4  196.18   13.70
  -2  -1   4  191.68   14.50
   2  -1  -4  191.88   13.10
  -2  -1   4  197.98   14.40
  -2   1   3  344.27   19.00
  -2   1   3  289.97   19.10
   2   1  -3  315.27   19.90
   2   1  -3  323.17   19.30
  -2   1   3  306.67   19.30
   2   1  -3  331.07   20.10
  -2   1   3  330.57   18.70
   2   1  -3  330.97   19.50
   2   1  -3  334.87   23.70
  -2   1   3  332.17   21.70
  -2  -1   3  324.77   19.50
  -2  -1   3  331.67   18.80
   2  -1  -3  303.47   18.20
  -2  -1   3  314.17   19.40
  -2  -1   3  324.17   19.50
   2  -1  -3  319.37   19.10
   2  -1  -3  332.27   22.50
   2  -1  -3  314.17   18.80
  -2  -1   3  321.77   23.00
  -2   1   2 5844.81  290.17
   2   1  -2 6112.09  294.17
   2   1  -2 6193.38  291.17
  -2   1   2 6069.19  289.67
  -2   1   2 6133.99  291.17
   2   1  -2 6108.09  290.87
  -2   1   2 5971.80  291.97
   2   1  -2 6025.60  290.17
   2   1  -2 5663.03  289.97
  -2   1   2 5917.31  289.67
  -2  -1   2 6031.90  290.67
   2  -1  -2 5790.12  289.27
  -2  -1   2 5976.80  289.67
  -2  -1   2 6176.08  290.57
  -2  -1   2 5850.92  293.27
   2  -1  -2 6119.79  289.97
  -2  -1   2 5837.92  290.27
   2  -1  -2 6197.88  290.37
  -2   1   1 1719.73   89.49
   2   1  -1 1779.42   91.29
   2   1  -1 1786.02   89.19
  -2   1   1 1917.21   91.39
  -2   1   1 1747.33   89.29
   2   1  -1 1781.42   89.79
   2   1  -1 1900.11   89.19
   2   1  -1 1790.12   88.79
  -2   1   1 1826.62   88.69
  -2   1   1 1910.11   88.89
  -2  -1   1 1796.02   89.09
  -2  -1   1 1770.02   88.89
   2  -1  -1 1836.52   89.09
   2  -1  -1 1704.73   89.49
   2  -1  -1 1868.61   88.89
  -2  -1   1 1883.71   89.09
   2  -1  -1 1932.31   91.39
  -2  -1   1 1762.62   89.49
  -2   1   0 1357.16   63.69
   2   1   0 1327.77   63.99
   2   1   0 1271.37   62.99
  -2   1   0 1369.56   65.99
  -2   1   0 1328.87   63.49
  -2   1   0 1277.27   63.59
   2   1   0 1297.97   63.09
  -2   1   0 1245.98   64.49
   2   1   0 1292.27   64.59
  -2   1   0 1241.98   62.49
   2  -1   0 1147.39   62.59
   2  -1   0 1272.67   65.89
  -2  -1   0 1368.76   63.09
   2  -1   0 1293.77   63.59
  -2  -1   0 1332.27   63.89
   2  -1   0 1222.58   64.49
   2  -1   0 1248.68   63.59
  -2  -1   0 1254.87   62.89
   2  -1   0 1328.97   63.59
  -2  -1   0 1341.87   64.69
  -2   1  -1 2351.96  113.79
  -2   1  -1 2295.97  112.89
   2   1   1 2324.47  111.99
  -2   1  -1 2288.97  115.49
  -2   1  -1 2300.77  112.89
  -2   1  -1 2289.27  113.79
   2   1   1 2340.27  111.79
   2   1   1 2465.75  113.69
   2   1   1 2309.17  112.89
  -2  -1  -1 2442.16  112.09
  -2  -1  -1 2243.58  111.79
   2  -1   1 2289.67  112.69
   2  -1   1 2331.77  111.49
   2  -1   1 2144.69  113.49
  -2  -1  -1 2307.47  113.39
   2  -1   1 2329.37  113.99
   2  -1   1 2365.66  115.39
   2  -1   1 2190.48  112.99
   2   1   2  409.16   20.80
  -2   1  -2  365.46   22.10
  -2   1  -2  417.46   22.20
  -2   1  -2  441.86   22.50
  -2   1  -2  393.46   22.90
  -2   1  -2  403.96   25.60
   2   1   2  397.56   22.80
   2   1   2  375.06   21.10
   2  -1   2  404.66   21.80
  -2  -1  -2  377.86   23.10
  -2  -1  -2  403.26   20.80
  -2  -1  -2  389.46   21.00
   2  -1   2  388.56   22.60
   2  -1   2  401.66   22.50
   2  -1   2  376.16   22.90
   2  -1   2  374.56   24.60
   2   1   3   17.00    5.40
  -2   1  -3   18.70    4.30
  -2   1  -3   29.10    6.50
   2   1   3   17.40    3.40
  -2   1  -3   23.70    4.70
  -2   1  -3   19.90    4.40
  -2  -1  -3   23.20    3.80
   2  -1   3   13.40    6.70
   2  -1   3   17.40    4.40
  -2  -1  -3   16.70    3.20
   2  -1   3   21.00    4.50
   2  -1   3   17.20    4.40
   2  -1   3   25.90    4.40
  -2   1  -4   13.00    4.30
   2   1   4    7.80    5.50
  -2   1  -4   10.30    4.90
   2   1   4   10.30    4.50
   2   1   4   12.00    3.50
   2   1   4   12.10    3.70
  -2   1  -4    5.00    3.40
   2   1   4   13.10    6.10
  -2   1  -4   18.40    5.40
   2  -1   4   11.90    8.60
  -2  -1  -4   12.80    3.60
   2  -1   4   14.70    4.60
  -2  -1  -4    8.90    3.60
   2  -1   4   13.30    4.40
   2  -1   4   13.90    4.90
   2   1   5  947.91   50.99
  -2   1  -5  966.60   51.39
  -2   1  -5  976.60   52.39
  -2   1  -5  970.60   51.29
   2   1   5  851.81   55.09
   2   1   5  969.90   55.09
  -2   1  -5  942.01   51.59
   2   1   5  922.61   50.59
   2   1   5  898.71   49.40
   2  -1   5  856.81   56.59
   2  -1   5  880.11   51.69
   2  -1   5  937.21   52.19
   2  -1   5  893.91   58.19
  -2  -1  -5  918.01   49.90
  -2  -1  -5  939.01   49.70
   2  -1   5  919.31   50.49
   2   1   6  808.42   51.39
   2   1   6  795.02   45.20
   2   1   6  811.52   50.59
   2   1   6  709.53   44.60
  -2   1  -6  797.72   46.30
   2   1   6  852.51   44.30
  -2   1  -6  789.82   45.40
  -2   1  -6  764.42   43.10
  -2  -1  -6  785.72   44.20
   2  -1   6  753.52   44.50
   2  -1   6  787.32   46.30
   2  -1   6  759.72   53.69
   2  -1   6  741.33   51.59
  -2  -1  -6  778.32   43.80
   2  -1   6  768.52   46.20
   2   1   7  379.76   33.20
   2   1   7  326.57   28.40
  -2   1  -7  382.96   27.50
  -2   1  -7  348.77   26.90
  -2   1  -7  336.07   25.90
   2   1   7  385.76   33.60
   2   1   7  356.66   26.70
   2   1   7  357.26   25.00
  -2  -1  -7  377.66   25.50
   2  -1   7  383.56   35.50
   2  -1   7  399.76   28.70
   2  -1   7  380.16   28.30
  -2  -1  -7  384.86   26.10
   2  -1   7  394.16   26.50
   2  -1   7  395.46   34.60
  -2   1  -8  298.47   24.20
  -2   1  -8  271.17   25.30
  -2   1  -8  287.47   25.30
   2   1   8  309.17   25.20
   2   1   8  276.27   33.00
   2   1   8  311.77   25.80
   2   1   8  284.47   24.20
   2   1   8  319.77   47.40
   2  -1   8  259.67   26.00
  -2  -1  -8  306.67   23.40
   2  -1   8  310.07   24.20
   2  -1   8  302.07   36.10
   2  -1   8  306.97   26.20
   2  -1   8  379.36   37.90
   2   1   9  293.27   38.50
   2   1   9  159.08   18.50
  -2   1  -9  193.38   23.70
  -2   1  -9  154.78   20.70
   2   1   9  190.68   22.60
   2   1   9  167.38   30.10
  -2   1  -9  175.38   24.80
   2   1   9  165.38   21.40
   2  -1   9  243.58   38.40
   2  -1   9  196.98   34.80
   2  -1   9  174.08   22.70
   2  -1   9  186.38   20.30
   2  -1   9  200.88   25.00
  -2  -1  -9  174.48   19.10
   2   1  10   10.90   14.50
   2   1  10   11.70   12.30
  -2   1 -10    0.00   10.60
  -2   1 -10    5.80   14.90
   2   1  10   16.90   10.40
   2   1  10  -14.10   22.90
   2   1  10   19.10   21.90
   2  -1  10    2.80   14.10
   2  -1  10   10.80   25.70
   2  -1  10    0.20   15.40
  -2  -1 -10   22.00   10.10
   2  -1  10    7.90    9.60
   2   1  11    3.10   14.80
   2   1  11   27.00   30.90
   2   1  11   -4.40   27.70
   2   1  11   -4.50   17.80
   2   1  11   -8.10   12.70
  -2   1 -11    0.50   11.50
   2  -1  11    6.00   12.00
   2  -1  11   -6.50   33.30
   2  -1  11  -14.80   34.30
  -2  -1 -11    4.40   11.50
  -2   2  11  180.28   51.09
   2   2 -11   99.49   20.70
  -2   2  11   56.89   35.70
  -2   2  11   77.39   18.10
   2   2 -11   74.79   16.80
   2   2 -11   97.69   20.40
  -2   2  11   64.29   19.10
  -2  -2  11   95.39   38.10
  -2  -2  11  122.09   42.70
  -2  -2  11   70.99   17.10
  -2   2  10   -0.10   10.60
   2   2 -10   17.60   12.70
  -2   2  10   -6.40    8.80
  -2   2  10  -15.20    9.00
   2   2 -10   19.30   14.70
   2   2 -10   -8.10    9.30
  -2  -2  10   -3.90   13.20
  -2  -2  10   -7.30   13.10
  -2  -2  10    7.40   10.40
  -2  -2  10   -0.80   25.60
  -2  -2  10  -10.10   26.20
  -2   2   9    9.50   15.50
  -2   2   9   11.60   11.60
   2   2  -9   11.60    9.80
   2   2  -9    0.80   11.20
  -2   2   9   13.90    8.20
  -2   2   9    9.50    7.20
  -2   2   9    5.30    8.40
  -2  -2   9   26.00   20.40
  -2  -2   9   14.10    9.80
  -2  -2   9  -29.10   18.20
   2  -2  -9    3.10    9.10
  -2  -2   9    8.20   21.40
  -2  -2   9   15.00   10.10
  -2  -2   9    8.60   10.80
   2  -2  -9    5.60    9.40
   2  -2  -9   -2.40   17.90
   2   2  -8   49.10   11.70
  -2   2   8   46.60   14.90
  -2   2   8   53.99   10.00
  -2   2   8   63.89   10.70
   2   2  -8   43.20   11.90
   2  -2  -8   32.40   17.40
  -2  -2   8   49.10   10.70
  -2  -2   8   59.39   11.60
  -2  -2   8   59.39   21.40
  -2  -2   8   49.20   12.20
   2  -2  -8   50.39   10.40
  -2  -2   8   52.09   13.60
   2  -2  -8   44.80   10.60
  -2   2   7  122.29   13.30
   2   2  -7  163.38   17.40
  -2   2   7  123.09   13.60
   2   2  -7  147.69   16.40
  -2   2   7  116.69   18.80
   2   2  -7  138.19   25.70
   2   2  -7  119.99   16.20
   2  -2  -7  123.19   20.80
  -2  -2   7  152.18   16.60
   2  -2  -7  128.79   14.30
   2  -2  -7  127.89   13.10
  -2  -2   7  121.59   14.70
  -2  -2   7  139.89   15.90
  -2  -2   7  131.39   14.50
  -2  -2   7  147.89   24.20
   2   2  -6  145.79   14.70
   2   2  -6  112.29   14.20
   2   2  -6  122.99   13.70
   2   2  -6  179.68   26.50
  -2   2   6  133.39   12.00
  -2   2   6  107.09   16.10
  -2   2   6  125.99   12.20
  -2  -2   6  144.79   26.80
  -2  -2   6  130.09   12.20
   2  -2  -6  111.29   12.40
  -2  -2   6  132.79   14.20
  -2  -2   6  111.29   13.20
   2  -2  -6  136.59   19.50
  -2  -2   6   99.19   13.30
   2  -2  -6  119.59   11.40
   2   2  -5 2172.68  113.79
  -2   2   5 2116.19  114.99
   2   2  -5 2164.48  120.69
   2   2  -5 2284.87  113.09
  -2   2   5 2269.57  110.69
  -2   2   5 2150.58  111.19
   2   2  -5 2200.78  114.29
  -2  -2   5 2202.58  110.69
  -2  -2   5 2241.98  113.29
   2  -2  -5 2170.88  109.99
   2  -2  -5 2243.18  111.89
  -2  -2   5 2298.97  119.39
  -2  -2   5 2261.07  113.79
  -2  -2   5 2171.68  120.09
   2  -2  -5 2151.38  116.99
   2   2  -4   27.90    6.20
  -2   2   4   23.30    4.40
   2   2  -4   19.00    5.50
   2   2  -4   24.60    6.50
   2   2  -4   17.00    8.40
   2   2  -4   22.00    5.80
  -2   2   4   25.50    7.20
  -2   2   4   31.40    5.20
  -2  -2   4   32.30    6.60
   2  -2  -4   23.80    4.10
  -2  -2   4   31.90    9.50
  -2  -2   4   19.40    5.30
   2  -2  -4   17.30    7.00
  -2  -2   4   29.10    5.10
   2  -2  -4   17.10    4.40
  -2  -2   4   15.80    5.10
   2   2  -3 2937.71  159.38
  -2   2   3 3162.08  153.08
   2   2  -3 3098.89  155.08
   2   2  -3 3170.78  153.78
  -2   2   3 3099.29  152.38
   2   2  -3 3223.68  156.38
  -2   2   3 3179.98  155.38
   2   2  -3 3116.29  154.38
  -2   2   3 3054.69  153.68
  -2  -2   3 3084.19  155.28
   2  -2  -3 3148.08  156.88
  -2  -2   3 3231.88  154.88
  -2  -2   3 3175.48  152.78
   2  -2  -3 3033.50  152.18
   2  -2  -3 3183.38  153.48
   2  -2  -3 3076.29  153.48
  -2  -2   3 3174.88  154.58
  -2   2   2  130.59    9.50
   2   2  -2  103.29    8.30
   2   2  -2  121.89    9.90
   2   2  -2  112.79   10.30
  -2   2   2  118.89   10.60
   2   2  -2  106.49   11.70
  -2   2   2  111.39    7.60
  -2   2   2  115.19    7.50
   2  -2  -2   95.09    7.70
   2  -2  -2  118.09    8.10
  -2  -2   2  123.39    9.00
   2  -2  -2  123.09    9.50
  -2  -2   2   99.89   10.70
  -2  -2   2  100.99    8.30
   2  -2  -2  121.49   10.50
  -2  -2   2  117.29    8.40
  -2  -2   2  108.99    9.60
  -2   2   1   49.50    4.70
   2   2  -1   34.20    5.60
   2   2  -1   46.10    4.80
  -2   2   1   31.90    5.50
   2   2  -1   37.60    4.90
  -2   2   1   41.80    4.30
   2   2  -1   42.90    4.10
  -2   2   1   44.10    4.30
   2   2  -1   37.60    6.60
  -2   2   1   58.59    8.00
   2  -2  -1   43.20    4.30
   2  -2  -1   48.30    4.20
  -2  -2   1   47.10    6.70
   2  -2  -1   45.10    6.00
  -2  -2   1   38.70    4.00
   2  -2  -1   62.59    8.10
  -2  -2   1   40.20    4.30
  -2  -2   1   41.30    4.80
  -2  -2   1   47.80    5.40
   2   2   0    1.80    1.70
   2   2   0    2.50    2.20
  -2   2   0    2.00    2.00
  -2   2   0    1.60    1.40
  -2   2   0   -1.10    1.20
  -2   2   0    0.80    2.50
   2   2   0    2.70    2.50
  -2   2   0    1.10    2.80
   2  -2   0    1.30    1.90
   2  -2   0    0.20    1.50
   2  -2   0    1.20    2.70
   2  -2   0    0.80    1.50
  -2  -2   0    1.20    2.20
   2  -2   0   -4.60    2.70
  -2  -2   0    2.60    1.70
   2   2   1 1711.63   86.89
  -2   2  -1 1555.94   91.59
  -2   2  -1 1663.23   88.39
  -2   2  -1 1843.22   90.99
  -2   2  -1 1833.72   86.99
   2   2   1 1741.53   86.19
  -2   2  -1 1734.83   88.29
   2  -2   1 1809.52   89.79
   2  -2   1 1781.02   88.29
   2  -2   1 1770.72   87.59
  -2  -2  -1 1831.62   85.99
   2  -2   1 1809.72   89.99
   2  -2   1 1761.02   86.59
   2   2   2  256.17   16.50
  -2   2  -2  269.57   15.40
  -2   2  -2  235.18   19.00
   2   2   2  263.57   15.00
  -2   2  -2  241.08   16.70
  -2   2  -2  241.78   16.60
  -2   2  -2  235.88   15.50
   2  -2   2  209.48   16.70
   2  -2   2  242.98   15.90
   2  -2   2  234.08   14.80
   2  -2   2  255.37   18.90
   2  -2   2  214.58   16.10
   2   2   3 3327.77  167.28
  -2   2  -3 3307.47  165.78
  -2   2  -3 3401.26  164.58
  -2   2  -3 3309.27  170.18
  -2   2  -3 3402.76  166.18
  -2   2  -3 3405.36  164.98
   2   2   3 3285.27  165.08
   2  -2   3 3292.17  164.08
   2  -2   3 3301.67  165.98
   2  -2   3 3309.77  169.18
  -2   2  -4   68.19    9.40
   2   2   4   57.89   10.00
   2   2   4   75.19   10.50
   2   2   4   67.69    7.40
  -2   2  -4   62.59    8.00
   2   2   4   55.59    6.20
  -2   2  -4   86.59    9.50
  -2   2  -4   76.49   10.80
   2  -2   4   63.29    9.50
   2  -2   4   70.39   10.40
   2  -2   4   66.69   12.30
   2  -2   4   56.89    8.20
   2  -2   4   62.79   13.40
  -2  -2  -4   66.99    6.90
  -2  -2  -4   68.99    6.30
  -2   2  -5  817.62   47.40
   2   2   5  830.42   46.50
  -2   2  -5  834.72   47.70
   2   2   5  767.92   49.30
  -2   2  -5  870.01   49.00
   2   2   5  890.61   46.00
   2   2   5  814.72   48.90
  -2   2  -5  810.42   47.10
   2   2   5  853.81   44.60
   2  -2   5  851.11   46.90
  -2  -2  -5  831.02   44.40
   2  -2   5  892.21   56.69
  -2  -2  -5  839.92   44.90
   2  -2   5  821.42   51.49
   2  -2   5  849.52   53.79
   2   2   6   33.50    6.80
   2   2   6   30.10   11.10
  -2   2  -6   48.50   13.30
  -2   2  -6   31.10    8.30
   2   2   6   29.70    7.60
   2   2   6   23.50   10.60
  -2   2  -6   29.30    7.70
  -2   2  -6   35.00    8.00
   2   2   6   27.30    8.00
   2  -2   6   48.80   14.90
   2  -2   6   32.80    8.90
   2  -2   6   39.50    8.80
   2  -2   6   36.20   14.30
   2  -2   6   25.90    7.70
  -2  -2  -6   33.10    7.10
  -2  -2  -6   36.80    7.00
  -2   2  -7    6.90    6.10
   2   2   7   22.10    8.30
   2   2   7    9.40    7.20
   2   2   7   17.40   12.10
  -2   2  -7   12.30    7.00
   2   2   7   17.00    6.10
  -2   2  -7   11.40    8.10
  -2   2  -7    7.10    5.70
   2  -2   7    7.50   13.70
   2  -2   7   13.90    8.10
   2  -2   7   13.00    6.90
   2  -2   7   18.10    7.30
  -2  -2  -7   19.80    6.10
  -2  -2  -7   11.60    7.00
   2  -2   7    9.60   15.30
   2   2   8   58.39   11.80
  -2   2  -8   49.99   10.40
   2   2   8   50.79   16.10
   2   2   8   45.20   11.30
  -2   2  -8   62.59   13.20
   2   2   8   42.70    9.40
  -2   2  -8   58.99   12.50
  -2   2  -8   44.40   13.50
   2   2   8   39.10   18.30
   2  -2   8   42.40   13.20
   2  -2   8   53.49   22.60
   2  -2   8   39.90   12.60
  -2  -2  -8   51.89   11.80
  -2  -2  -8   46.10   10.70
   2  -2   8   80.79   13.10
   2  -2   8   47.00   20.90
   2  -2   8   56.49   12.40
   2   2   9  141.89   26.00
  -2   2  -9  195.78   23.00
  -2   2  -9  129.29   19.90
   2   2   9  133.19   18.30
   2   2   9  129.09   16.60
   2   2   9  171.88   29.50
   2   2   9  154.48   19.60
  -2   2  -9  194.08   25.00
  -2   2  -9  134.99   16.90
   2  -2   9  134.99   31.50
  -2  -2  -9  116.99   15.80
  -2  -2  -9  132.59   18.30
   2  -2   9  120.59   17.40
   2  -2   9  121.19   21.00
   2  -2   9  143.59   22.80
   2  -2   9   92.59   30.20
  -2   2 -10    6.30    8.40
   2   2  10  -17.20   22.50
   2   2  10   -6.10   13.70
   2   2  10   -7.30   12.60
   2   2  10   -5.60    9.50
  -2   2 -10   -9.20   21.80
  -2   2 -10   16.60   12.10
   2   2  10   13.00   20.90
  -2   2 -10  -12.30    9.50
   2  -2  10   -3.40   46.60
   2  -2  10   -6.40   28.20
   2  -2  10    6.90   10.40
   2  -2  10    1.40   17.90
  -2  -2 -10   -7.00    9.50
   2   2  11  155.78   39.90
  -2   2 -11  165.28   23.80
   2   2  11  113.09   24.10
   2   2  11  159.08   20.30
  -2   2 -11  141.19   30.40
   2  -2  11  149.09   41.60
   2  -2  11   37.40   43.20
   2  -2  11  149.69   22.60
  -2  -2 -11  127.79   19.20
   2   3 -10  145.19   24.60
   2   3 -10   82.09   19.20
  -2   3  10   94.19   16.60
  -2   3  10  106.49   16.90
   2   3 -10   69.79   18.30
  -2   3  10  108.59   38.10
  -2   3  10   64.79   32.70
   2   3 -10   86.99   17.10
  -2  -3  10   26.00   33.30
  -2  -3  10   99.59   17.70
  -2  -3  10  204.48   43.90
  -2  -3  10   94.39   19.10
   2   3  -9  219.48   25.40
  -2   3   9  252.07   22.90
   2   3  -9  225.68   29.40
  -2   3   9  219.58   21.50
   2   3  -9  246.58   28.30
  -2  -3   9  245.18   25.10
  -2  -3   9  204.58   22.60
  -2  -3   9  279.37   37.30
  -2  -3   9  247.88   39.00
   2  -3  -9  199.78   22.00
  -2  -3   9  244.08   40.10
  -2   3   8  221.28   19.00
  -2   3   8  162.18   18.70
   2   3  -8  203.48   24.00
   2   3  -8  187.18   23.30
  -2   3   8  210.18   27.30
  -2  -3   8  185.78   31.50
   2  -3  -8  215.38   29.10
   2  -3  -8  242.98   20.80
   2  -3  -8  225.48   19.00
  -2  -3   8  199.28   23.40
  -2  -3   8  212.68   21.70
  -2  -3   8  215.58   19.40
  -2  -3   8  252.47   38.30
  -2  -3   8  218.88   24.80
   2   3  -7  101.89   17.70
  -2   3   7   66.89    9.80
   2   3  -7   96.59   14.70
  -2   3   7   89.39   11.50
  -2  -3   7   69.59   12.90
   2  -3  -7   50.69    9.80
  -2  -3   7   79.89   11.30
   2  -3  -7   63.59   15.90
  -2  -3   7  105.29   24.60
  -2  -3   7   68.69   18.70
  -2  -3   7   64.19   12.10
   2  -3  -7   67.79   10.60
  -2   3   6  281.27   19.80
  -2   3   6  283.07   18.70
   2   3  -6  266.07   21.90
   2   3  -6  297.47   24.90
   2   3  -6  311.47   23.60
   2  -3  -6  268.87   19.90
   2  -3  -6  277.27   25.70
   2  -3  -6  269.27   17.90
  -2  -3   6  263.87   18.90
  -2  -3   6  286.77   30.50
  -2  -3   6  267.67   21.90
   2   3  -5   -3.40    4.90
  -2   3   5   -3.20    2.80
   2   3  -5    6.60    5.60
  -2   3   5   -5.60    3.60
   2   3  -5   -7.40    5.40
   2  -3  -5   -2.80    3.90
  -2  -3   5    3.70    4.90
  -2  -3   5    4.30    5.10
   2  -3  -5   -4.40    6.80
  -2  -3   5   11.00    4.20
  -2  -3   5   -1.00    8.90
   2  -3  -5    2.10    3.90
  -2  -3   5    2.50    5.70
  -2   3   4  125.69   10.40
  -2   3   4  123.19    9.00
   2   3  -4   99.69   11.60
   2   3  -4  143.19   21.10
  -2   3   4  124.59   12.90
   2   3  -4  122.79   14.50
   2   3  -4  137.49   12.00
   2   3  -4  138.19   13.00
   2  -3  -4  112.49   13.70
  -2  -3   4  123.59   13.10
  -2  -3   4  139.09   12.30
  -2  -3   4  132.69   18.80
  -2  -3   4  114.59   11.80
  -2  -3   4  124.99   10.10
  -2   3   3  177.18   13.50
   2   3  -3  180.08   13.50
   2   3  -3  181.58   18.90
  -2   3   3  146.99   14.60
   2   3  -3  164.48   15.70
   2   3  -3  194.48   14.50
   2  -3  -3  154.68   14.40
  -2  -3   3  176.58   14.80
  -2  -3   3  174.88   17.60
  -2  -3   3  186.98   12.80
  -2  -3   3  197.38   13.70
  -2  -3   3  180.58   13.40
   2  -3  -3  158.58   13.70
   2   3  -2 2632.84  128.89
   2   3  -2 2586.24  124.49
   2   3  -2 2376.16  123.19
  -2   3   2 2797.82  125.69
   2   3  -2 2583.24  123.19
  -2   3   2 2523.75  125.19
   2   3  -2 2467.35  126.79
  -2  -3   2 2477.65  127.29
  -2  -3   2 2549.24  125.89
   2  -3  -2 2493.35  125.69
  -2  -3   2 2358.46  123.09
  -2  -3   2 2241.08  122.89
  -2  -3   2 2420.96  123.49
   2  -3  -2 2513.55  124.79
   2   3  -1 1164.18   56.99
  -2   3   1 1071.89   56.69
  -2   3   1 1078.69   58.19
   2   3  -1 1127.09   59.69
  -2   3   1 1127.09   59.39
   2  -3  -1 1104.39   59.89
   2  -3  -1 1036.90   55.89
  -2  -3   1 1140.39   56.69
   2  -3  -1 1210.88   59.49
  -2  -3   1 1110.99   58.79
  -2   3   0 2281.97  113.69
  -2   3   0 2271.37  115.49
  -2   3   0 2234.88  115.39
  -2   3   0 2419.76  112.19
   2   3   0 2338.37  113.19
  -2   3   0 2287.57  112.09
   2   3   0 2300.87  114.69
  -2  -3   0 2504.55  111.69
   2  -3   0 2320.37  115.59
   2  -3   0 2147.89  112.99
   2  -3   0 2328.37  116.49
  -2  -3   0 2074.99  112.39
   2  -3   0 2145.89  112.09
  -2   3  -1 1413.76   74.29
  -2   3  -1 1369.36   75.09
   2   3   1 1498.25   73.59
   2   3   1 1527.05   73.69
  -2   3  -1 1434.16   72.89
  -2   3  -1 1436.36   71.69
  -2   3  -1 1390.16   76.39
   2  -3   1 1378.26   73.59
   2  -3   1 1393.66   71.19
   2  -3   1 1458.15   76.29
   2  -3   1 1386.06   72.69
   2  -3   1 1513.65   75.39
  -2   3  -2  772.92   42.40
  -2   3  -2  776.62   44.80
  -2   3  -2  791.42   44.20
  -2   3  -2  773.32   47.20
   2   3   2  801.72   42.00
   2   3   2  799.82   42.30
  -2   3  -2  807.52   41.90
   2  -3   2  766.92   43.80
   2  -3   2  796.82   41.30
   2  -3   2  761.82   46.00
   2   3   3    2.80    3.30
  -2   3  -3    6.10    4.40
  -2   3  -3   -2.50    4.00
  -2   3  -3    0.30    2.90
  -2   3  -3   -2.80    3.70
   2  -3   3   -0.30    4.10
   2  -3   3    2.20    6.50
   2  -3   3   -0.30    3.10
   2  -3   3    0.40    4.40
   2   3   4   71.19    8.80
  -2   3  -4   83.09    9.60
  -2   3  -4   87.19   12.20
  -2   3  -4   83.99   11.10
  -2   3  -4   79.99   12.50
   2   3   4   91.09    9.40
   2  -3   4   74.39   11.40
   2  -3   4   75.89   16.20
   2  -3   4   78.79   11.20
   2  -3   4   83.69   12.00
   2  -3   4   70.99    6.40
   2  -3   4   87.29   16.20
   2   3   5  430.06   27.20
  -2   3  -5  409.86   28.80
  -2   3  -5  445.76   27.60
  -2   3  -5  388.86   29.40
  -2   3  -5  417.76   28.50
   2  -3   5  405.66   26.70
   2  -3   5  430.06   23.90
   2  -3   5  436.16   34.70
   2  -3   5  366.76   29.10
   2  -3   5  378.86   30.70
   2  -3   5  435.66   37.00
   2   3   6  527.55   35.30
   2   3   6  582.64   32.80
  -2   3  -6  616.34   38.60
  -2   3  -6  592.34   36.90
   2   3   6  634.54   38.40
  -2   3  -6  626.34   39.90
   2  -3   6  577.34   36.40
   2  -3   6  563.34   33.40
   2  -3   6  508.45   44.10
   2  -3   6  641.74   48.60
  -2   3  -7  128.49   17.90
  -2   3  -7  107.09   14.70
   2   3   7  141.19   20.20
   2   3   7   77.09   14.40
   2   3   7  100.39   13.30
  -2   3  -7  124.09   17.40
  -2   3  -7  125.59   17.60
   2   3   7  104.99   11.90
   2  -3   7  113.79   15.20
   2  -3   7  108.49   14.00
  -2  -3  -7  115.79   11.90
  -2  -3  -7  104.49   13.30
   2  -3   7  152.88   32.00
   2  -3   7   94.29   16.40
   2  -3   7  131.39   27.30
   2   3   8  190.48   20.30
  -2   3  -8  199.78   20.50
   2   3   8  219.38   27.80
  -2   3  -8  217.28   21.80
   2   3   8  191.58   28.10
  -2   3  -8  210.98   23.20
   2   3   8  183.68   17.40
   2   3   8  205.48   20.10
  -2   3  -8  233.38   26.10
   2  -3   8  235.38   37.20
   2  -3   8  238.18   36.70
   2  -3   8  169.18   23.50
  -2  -3  -8  186.08   17.20
   2  -3   8  167.58   23.40
   2  -3   8  200.08   20.90
  -2  -3  -8  198.58   19.70
   2  -3   8  203.38   20.30
  -2   3  -9   21.90   11.00
   2   3   9   32.90   10.40
   2   3   9   30.40   18.40
   2   3   9   40.80   12.60
  -2   3  -9   61.09   16.50
   2   3   9   46.10   23.50
   2   3   9   40.90   12.80
  -2   3  -9   25.10   10.90
   2  -3   9   42.90   31.40
  -2  -3  -9   47.20   12.80
   2  -3   9   59.79   28.40
   2  -3   9   43.10   14.60
  -2  -3  -9   56.69   11.10
   2  -3   9   31.30   12.00
  -2   3 -10   17.50   12.30
   2   3  10   -2.00   27.00
   2   3  10   30.50   15.50
   2   3  10   36.30   12.30
   2   3  10    6.40   14.40
  -2   3 -10   26.80   13.10
   2  -3  10   43.70   15.60
   2  -3  10   24.00   14.00
  -2  -3 -10   35.20   13.70
   2  -3  10   27.00   38.90
   2  -3  10   35.00   33.40
  -2   4   9   17.80   10.00
  -2   4   9   15.40   25.10
  -2   4   9    7.60    9.30
   2   4  -9  -16.70   19.10
   2   4  -9  -15.10   15.60
   2   4  -9  -16.40   17.00
   2   4  -9  -13.40   13.60
  -2  -4   9    2.70   13.10
  -2  -4   9   -1.80   30.30
  -2  -4   9   -8.10   11.60
   2  -4  -9   -8.90   11.20
   2   4  -8   50.59   13.00
   2   4  -8   62.19   16.00
   2   4  -8   75.19   16.70
  -2   4   8   48.50   11.00
  -2   4   8   62.59   10.50
  -2   4   8   53.29   16.10
   2   4  -8   38.30   15.70
  -2  -4   8   70.69   15.10
  -2  -4   8   61.89   27.30
  -2  -4   8   51.49   11.30
  -2  -4   8  117.59   31.10
   2   4  -7    7.90   10.80
   2   4  -7    0.20    7.30
  -2   4   7    4.70    5.40
  -2   4   7   -2.90   10.30
   2   4  -7   16.70   10.90
   2   4  -7    5.30   10.10
  -2  -4   7   -7.30    6.90
  -2  -4   7    6.90   10.50
  -2  -4   7   -5.60   11.60
  -2  -4   7    9.20   19.20
  -2  -4   7   21.70   19.10
  -2  -4   7   -1.30    8.90
   2   4  -6  401.06   32.40
  -2   4   6  351.26   28.30
   2   4  -6  363.36   28.80
   2   4  -6  384.06   31.40
   2   4  -6  376.16   28.60
  -2  -4   6  382.26   29.20
  -2  -4   6  399.36   29.00
   2  -4  -6  434.66   31.70
  -2  -4   6  413.66   31.00
  -2  -4   6  424.06   38.50
  -2  -4   6  398.46   25.60
  -2   4   5   23.50    9.40
   2   4  -5   31.20    8.50
   2  -4  -5   18.20    9.40
  -2  -4   5   56.39    8.40
  -2  -4   5   28.60   10.90
  -2  -4   5   65.19   17.00
  -2  -4   5   53.09   15.90
  -2  -4   5   53.39   10.80
   2   4  -4  781.02   43.20
   2   4  -4  709.53   46.70
   2   4  -4  779.42   42.10
  -2   4   4  689.03   42.80
   2   4  -4  777.22   47.70
  -2  -4   4  776.82   50.29
  -2  -4   4  777.42   45.80
   2  -4  -4  790.92   43.80
  -2  -4   4  739.93   42.80
  -2  -4   4  782.82   50.19
  -2  -4   4  690.13   41.10
  -2  -4   4  752.62   42.90
   2   4  -3   26.00    8.70
  -2   4   3   30.60    7.50
   2   4  -3   43.10    6.80
   2   4  -3   35.90    9.60
   2   4  -3   24.40    6.10
  -2   4   3   36.00   11.40
  -2  -4   3   33.80    8.10
  -2  -4   3   20.70    5.40
   2  -4  -3   23.50    8.20
   2  -4  -3   37.40    8.00
  -2  -4   3   21.30    5.60
  -2  -4   3   27.50   11.60
  -2  -4   3   31.40    5.80
   2   4  -2  285.57   21.90
   2   4  -2  242.28   18.00
  -2   4   2  284.17   20.50
  -2   4   2  276.27   18.10
   2   4  -2  222.58   21.10
   2   4  -2  242.38   16.60
   2  -4  -2  292.17   21.50
  -2  -4   2  263.87   19.90
   2  -4  -2  284.27   18.40
  -2  -4   2  275.87   21.60
  -2  -4   2  259.37   20.90
  -2  -4   2  294.47   17.10
  -2   4   1   16.00    6.30
   2   4  -1   16.40    6.20
   2   4  -1   13.20    6.40
  -2   4   1    5.10    4.50
   2   4  -1   12.10    4.40
  -2   4   1   18.40    6.40
  -2  -4   1   17.40    6.10
  -2  -4   1    7.20    3.90
   2  -4  -1   21.10    6.70
   2  -4  -1    8.80    7.80
  -2  -4   1   12.60    5.40
   2   4   0   87.69   12.30
   2   4   0   97.89   11.40
  -2   4   0   67.39   10.80
  -2   4   0   80.59   11.40
   2   4   0   73.99    9.00
  -2   4   0   73.49    9.90
   2  -4   0   63.19   11.10
   2  -4   0  102.29    9.60
   2   4   1   11.00    6.20
  -2   4  -1    2.50    3.10
  -2   4  -1    1.10    4.00
   2   4   1   10.70    4.10
   2   4   1   11.90    5.30
  -2   4  -1    0.00    5.40
  -2   4  -1   10.70    5.60
   2  -4   1   13.60    7.10
   2  -4   1    4.60    4.80
   2   4   2 1245.28   63.69
  -2   4  -2 1243.58   63.49
  -2   4  -2 1195.98   64.59
  -2   4  -2 1160.58   67.99
   2   4   2 1274.87   65.29
  -2   4  -2 1244.98   67.29
   2   4   2 1258.07   65.89
   2  -4   2 1241.28   65.29
   2  -4   2 1262.67   66.59
   2  -4   2 1172.58   62.49
   2  -4   2 1231.18   71.29
   2  -4   2 1229.28   68.19
  -2   4  -3   23.70    7.10
  -2   4  -3   25.90    8.10
  -2   4  -3   20.00    7.90
   2   4   3   31.60    6.80
   2   4   3   40.40    7.30
  -2   4  -3   39.40    7.00
   2  -4   3   28.70   12.60
   2  -4   3   15.30    4.90
   2  -4   3   34.50   13.80
   2  -4   3   30.00    7.50
   2  -4   3   23.90    8.00
  -2   4  -4  983.00   56.59
   2   4   4  959.00   52.69
  -2   4  -4  929.51   52.39
   2   4   4  946.61   51.39
  -2   4  -4 1015.10   54.59
  -2   4  -4  930.91   56.39
   2  -4   4  920.61   52.49
   2  -4   4  967.40   62.89
   2  -4   4  929.61   55.79
   2  -4   4  982.30   60.29
   2  -4   4  947.31   54.69
   2   4   5   68.59   11.00
  -2   4  -5   78.09   14.10
  -2   4  -5   74.39   12.90
  -2   4  -5   56.39   12.70
   2  -4   5   83.89   18.80
   2  -4   5   77.59   13.60
   2  -4   5   52.39    9.30
  -2   4  -6   24.10    8.30
   2   4   6   29.60    8.90
  -2   4  -6   30.20   10.70
  -2   4  -6   24.40   10.60
   2   4   6   17.00    7.70
   2  -4   6   30.60   19.60
   2  -4   6   45.00    9.60
   2  -4   6   -0.70   10.30
   2  -4   6   23.20   12.10
   2  -4   6   16.20   16.50
  -2   4  -7   -1.90   11.20
   2   4   7   -1.50    9.30
   2   4   7   13.40   11.70
  -2   4  -7    6.20    7.90
  -2   4  -7   -6.30    9.20
   2   4   7    4.90    9.40
  -2   4  -7    7.50   13.20
   2  -4   7    8.20    6.00
   2  -4   7   -8.00    8.00
   2  -4   7    8.90   12.60
   2  -4   7   15.30   20.00
   2  -4   7   26.60   22.80
   2  -4   7  -13.70   12.70
  -2   4  -8   16.90   10.60
   2   4   8    1.50   16.70
   2   4   8  -14.10   12.90
  -2   4  -8   -7.60   15.30
  -2   4  -8   22.80   11.60
   2   4   8    6.30   11.30
  -2   4  -8   11.80   11.70
   2  -4   8    6.20    9.50
   2  -4   8    5.50   10.60
   2  -4   8    1.00   28.10
   2  -4   8    8.40   23.90
   2   4   9    5.10   13.10
  -2   4  -9  -12.70   20.00
  -2   4  -9   14.20   27.20
  -2   4  -9    4.00   12.70
   2  -4   9   53.79   39.20
   2  -4   9   41.50   11.90
   2  -4   9   24.00   13.60
   2   5  -8   10.80   16.20
   2   5  -8   50.69   19.30
   2   5  -8   41.90   15.10
  -2   5   8   14.50   21.10
   2   5  -8   28.50   17.90
  -2  -5   8   37.10   15.00
  -2  -5   8   31.20   15.60
   2   5  -7   95.79   16.00
  -2   5   7  118.89   19.50
   2   5  -7  124.39   21.80
   2   5  -7  102.89   18.90
   2   5  -7  101.79   21.30
  -2   5   7   36.60   15.80
  -2  -5   7   90.29   15.70
  -2  -5   7  104.49   17.00
  -2  -5   7  109.69   31.30
  -2  -5   7   86.39   28.50
   2   5  -6   57.29   16.50
   2   5  -6   51.69   14.10
   2   5  -6   64.69   13.40
  -2   5   6   59.09   11.10
   2   5  -6   56.79   16.90
  -2   5   6   64.79   13.30
  -2  -5   6   56.79   11.30
  -2  -5   6   84.49   33.20
  -2  -5   6   63.09   22.70
  -2  -5   6   41.90   13.30
  -2  -5   6   42.10   12.40
   2   5  -5    4.70    9.40
   2   5  -5    3.90    7.30
   2   5  -5    0.50   10.60
   2   5  -5   11.20   11.40
  -2  -5   5    7.60    9.60
  -2  -5   5   -2.80   16.30
  -2  -5   5   -7.30    6.80
  -2  -5   5   -9.00    7.80
  -2  -5   5    4.60   18.80
  -2  -5   5   -3.00   10.60
   2   5  -4   10.10    7.10
   2   5  -4    6.10    9.50
   2   5  -4   -1.40    7.30
   2   5  -4   15.40   10.80
   2   5  -4   11.10    6.70
  -2   5   4    1.50    8.10
  -2  -5   4   -2.10    8.10
  -2  -5   4    5.50   13.50
  -2  -5   4   23.10   13.30
  -2  -5   4   -1.30    6.70
  -2  -5   4   15.20    9.60
  -2  -5   4   -4.20    5.40
  -2   5   3  324.37   25.30
   2   5  -3  364.46   31.30
  -2   5   3  334.97   21.70
   2   5  -3  330.77   29.10
   2   5  -3  297.27   21.80
   2   5  -3  337.47   22.90
  -2  -5   3  371.86   26.90
  -2  -5   3  312.37   28.20
  -2  -5   3  353.56   28.80
  -2  -5   3  355.36   21.20
   2   5  -2  186.08   20.80
  -2   5   2  193.78   19.30
  -2   5   2  186.58   15.90
   2   5  -2  191.38   14.60
  -2  -5   2  204.08   19.10
  -2  -5   2  188.58   18.60
  -2   5   1  638.84   40.90
  -2   5   1  656.43   38.10
   2   5  -1  646.84   42.70
   2   5  -1  638.94   35.70
   2   5  -1  657.53   41.70
  -2  -5   1  675.23   35.40
  -2  -5   1  638.74   35.10
   2  -5  -1  637.34   36.00
   2   5   0   47.30   11.60
   2   5   0   49.99   10.60
   2   5   0   47.20    7.80
  -2   5   0   51.09    9.50
  -2   5   0   29.00    9.60
   2  -5   0   48.10   10.80
   2  -5   0   32.20   10.40
   2  -5   0   37.70    7.80
   2   5   1  382.56   27.30
   2   5   1  338.27   23.50
  -2   5  -1  333.77   29.70
   2   5   1  364.56   26.20
  -2   5  -1  374.46   26.20
   2  -5   1  314.27   27.80
   2  -5   1  329.07   26.70
   2  -5   1  351.56   24.70
  -2   5  -2    3.60    8.20
   2   5   2    1.60    6.90
  -2   5  -2    1.50    8.30
   2   5   2   -3.10    7.70
  -2   5  -2    2.70    4.20
   2   5   2    6.80    5.20
  -2   5  -2    5.10    8.10
   2  -5   2   10.70    9.50
   2  -5   2    2.80    3.90
   2  -5   2    3.90    8.00
   2  -5   2   -0.70    6.70
   2  -5   2   -2.20   11.30
  -2   5  -3   28.60    8.90
  -2   5  -3   40.80   10.80
  -2   5  -3   23.50    7.20
   2   5   3   29.70    6.80
  -2   5  -3   24.60    9.50
   2   5   3   24.40    8.60
   2  -5   3   15.70   15.60
   2  -5   3   19.70   11.20
   2  -5   3   28.80    6.20
   2  -5   3   15.50   11.90
  -2   5  -4   34.80   12.70
   2   5   4   52.19    9.60
  -2   5  -4   45.30    9.00
  -2   5  -4   36.30   11.80
  -2   5  -4   16.70   10.90
   2   5   4   37.80    9.20
   2  -5   4   19.70   18.30
   2  -5   4   39.40    8.00
   2  -5   4   24.60   14.60
   2  -5   4   43.70   11.60
   2  -5   4   60.99   13.70
  -2   5  -5   86.69   15.50
   2   5   5   77.69   11.60
  -2   5  -5   64.49   11.60
   2   5   5   87.39   15.60
  -2   5  -5   59.79   14.60
  -2   5  -5   91.29   15.70
   2  -5   5   93.29   21.00
   2  -5   5   93.39   24.80
   2  -5   5   72.59   20.70
   2  -5   5   81.09   11.70
   2  -5   5   73.19   15.50
  -2   5  -6   90.89   18.20
  -2   5  -6   93.49   22.00
   2   5   6   83.29   13.70
   2   5   6   83.69   12.30
  -2   5  -6   70.89   13.20
  -2   5  -6   65.99   15.10
   2  -5   6   94.69   19.70
   2  -5   6   89.89   25.70
   2  -5   6   86.09   28.10
   2  -5   6  101.59   28.30
   2  -5   6   72.09   13.20
  -2   5  -7  181.88   25.80
  -2   5  -7  104.59   22.50
   2   5   7  154.78   19.70
  -2   5  -7  125.99   18.00
  -2   5  -7  127.79   21.90
   2  -5   7  173.08   21.20
   2  -5   7  166.28   34.50
  -2   5  -8   29.30   17.30
   2   5   8   39.40   15.40
  -2   5  -8   14.00   15.60
  -2   5  -8   72.79   23.00
  -2   5  -8    9.00   12.60
   2  -5   8   25.00   14.70
   2  -5   8   49.40   37.70
   2   6  -6   39.10   19.70
  -2   6   6   17.20   13.20
   2   6  -6   25.80   13.80
  -2   6   6   47.70   22.50
   2   6  -6   29.40   20.60
   2   6  -6    4.90   14.80
  -2  -6   6   27.50   28.60
  -2   6   5  299.57   24.80
   2   6  -5  279.97   27.70
   2   6  -5  324.77   35.10
   2   6  -5  325.57   27.00
  -2  -6   5  302.97   24.70
  -2  -6   5  324.07   31.90
  -2  -6   5  309.87   38.70
   2   6  -4   20.60   14.40
   2   6  -4    1.90   11.10
  -2   6   4   11.80   14.00
   2   6  -4    6.70   15.60
  -2   6   4    6.30    8.50
  -2  -6   4   13.80   16.70
  -2  -6   4  -12.60   16.60
  -2   6   3  318.17   28.50
   2   6  -3  314.17   32.10
   2   6  -3  352.36   33.50
  -2   6   3  347.67   25.90
  -2   6   3  338.27   22.50
  -2  -6   3  225.48   33.60
  -2  -6   3  346.47   34.00
   2   6  -2   15.10   12.60
   2   6  -2   22.30   13.10
  -2   6   2   11.40   12.00
  -2  -6   2   26.90    9.10
  -2  -6   2   10.90    9.90
  -2   6   1   -3.70    9.50
   2   6  -1   12.70   12.10
   2   6  -1    6.10    6.50
   2   6  -1  -29.40   10.50
  -2   6   1   21.00   11.50
   2   6   0   11.80   12.70
   2   6   0    0.60   11.80
   2   6   0   -7.50    6.30
  -2   6   0   -4.60   10.60
  -2   6   0    0.20    9.80
   2  -6   0   11.10    9.10
   2   6   1   89.49   12.40
   2   6   1  123.39   17.20
  -2   6  -1  118.29   18.40
  -2   6  -1  105.99   16.10
   2   6   1  112.79   18.10
   2  -6   1  106.39   17.00
   2  -6   1  108.69   15.10
  -2   6  -2   11.30   14.40
   2   6   2   32.20   11.90
  -2   6  -2   47.50   14.10
   2   6   2   30.20   10.40
   2   6   2   50.19   14.80
   2  -6   2   20.30   12.70
   2  -6   2   33.30   17.30
   2   6   3  360.86   29.70
  -2   6  -3  379.06   25.00
  -2   6  -3  376.76   29.70
   2   6   3  393.66   27.30
  -2   6  -3  364.86   33.60
  -2   6  -3  382.96   33.10
   2  -6   3  328.27   33.50
   2  -6   3  428.26   37.40
   2  -6   3  348.67   39.30
  -2   6  -4    4.80   13.70
  -2   6  -4   -3.20    7.90
  -2   6  -4   25.00   14.70
   2   6   4   17.50   10.50
  -2   6  -4    0.50   13.60
   2   6   4   19.60   11.50
   2  -6   4   27.50    8.50
   2  -6   4  -14.10   17.40
   2  -6   4    5.00   15.50
   2  -6   4    5.10   22.50
   2  -6   4   -9.00   16.70
  -2   6  -5  127.19   22.60
  -2   6  -5  193.38   24.10
  -2   6  -5  182.38   20.00
  -2   6  -5  104.89   36.10
   2   6   5  169.28   20.00
   2   6   5  181.88   22.30
   2  -6   5  195.68   35.70
  -2   6  -6   20.60   11.80
  -2   6  -6   35.90   37.60
  -2   6  -6   11.50   16.30
   2  -6   6   27.00   12.10
   2  -6   6    7.30   33.40
   3   0 -11    8.10   11.30
  -3   0  11    6.50   13.30
  -3   0  11    9.10   11.70
   3   0 -11   -7.80   12.60
  -3   0  11   19.80   15.10
  -3   0  11    1.90   27.00
   3   0 -10  361.36   28.90
  -3   0  10  325.27   28.20
  -3   0  10  329.47   29.60
  -3   0  10  326.07   30.40
  -3   0  10  356.26   42.60
   3   0 -10  320.97   31.20
   3   0 -10  410.76   52.59
  -3   0  10  322.87   32.40
   3   0 -10  325.27   30.10
  -3   0   9    4.90    7.80
  -3   0   9    3.00    7.00
   3   0  -9    2.30    9.10
   3   0  -9   10.60    8.00
   3   0  -9   -5.70   31.10
  -3   0   9    6.40   15.80
   3   0  -9    0.80    8.40
  -3   0   9    9.80    8.50
  -3   0   9   -0.70    9.80
   3   0  -8   88.89   13.50
   3   0  -8   99.79   13.90
  -3   0   8  106.39   14.10
   3   0  -8   97.99   14.80
  -3   0   8   86.99   20.40
   3   0  -8  117.49   24.70
  -3   0   8   75.89   13.10
  -3   0   8   99.79   14.30
   3   0  -7   -5.60    4.80
   3   0  -7   -1.00    5.10
  -3   0   7    0.00    9.60
   3   0  -7    3.20   10.50
   3   0  -7   -2.60    5.20
  -3   0   7    1.00    4.70
  -3   0   7   -4.50    4.60
  -3   0   7    5.00    5.80
   3   0  -7    0.10    6.30
   3   0  -6  160.18   15.40
   3   0  -6  177.08   14.40
  -3   0   6  152.28   13.30
   3   0  -6  207.68   27.70
  -3   0   6  158.58   19.80
  -3   0   6  147.89   15.50
  -3   0   6  155.88   14.20
  -3   0   6  175.28   15.00
   3   0  -5    4.90    7.10
  -3   0   5    3.40    3.40
   3   0  -5    0.30    3.50
  -3   0   5   -6.90    2.70
  -3   0   5    0.80    3.30
  -3   0   5    1.20    6.20
   3   0  -5   -1.70    3.20
  -3   0   5    0.60    3.00
  -3   0   4 2562.64  128.09
   3   0  -4 2619.64  127.59
  -3   0   4 2593.14  132.99
  -3   0   4 2558.04  126.79
  -3   0   4 2502.15  127.79
   3   0  -4 2534.05  134.29
   3   0  -4 2527.25  127.89
   3   0  -4 2520.65  127.49
  -3   0   4 2710.23  128.79
  -3   0   3    4.20    2.20
   3   0  -3    1.10    1.90
  -3   0   3   -2.10    2.00
   3   0  -3   -1.60    2.80
   3   0  -3    2.40    2.30
  -3   0   3   -1.90    3.50
  -3   0   3    0.40    1.80
   3   0  -3   -0.50    2.40
  -3   0   3   -1.40    1.50
   3   0  -3    0.20    2.00
   3   0  -3   -0.90    4.10
   3   0  -2 5647.74  278.77
  -3   0   2 5935.41  279.37
   3   0  -2 5626.94  279.67
  -3   0   2 5660.93  279.37
   3   0  -2 5900.11  279.27
  -3   0   2 5822.62  282.77
   3   0  -2 5707.23  279.67
   3   0  -2 5894.21  283.27
   3   0  -2 5815.12  280.47
  -3   0   2 5734.83  279.27
  -3   0   1    4.60    1.80
  -3   0   1   -0.30    1.00
  -3   0   1    0.40    1.10
   3   0  -1   -0.60    2.50
   3   0  -1   -0.10    2.90
   3   0  -1   -0.40    1.20
  -3   0   1    0.70    2.40
   3   0  -1    0.70    1.30
   3   0  -1    0.00    1.10
  -3   0   1   -1.00    2.40
  -3   0   0    8.50    2.50
  -3   0   0   10.40    2.60
   3   0   0   10.00    2.40
   3   0   0    9.70    2.40
   3   0   0    3.20    3.10
  -3   0   0   11.40    4.50
  -3   0   0    6.20    3.00
   3   0   0    9.10    2.20
   3   0   0    6.10    3.00
  -3   0   0    9.80    2.40
   3   0   1   -1.10    1.00
   3   0   1    1.60    1.20
  -3   0  -1   -3.40    2.40
  -3   0  -1   -0.20    1.10
  -3   0  -1    4.70    2.40
   3   0   1   -0.30    0.90
  -3   0  -1    1.90    1.40
   3   0   1   -2.10    2.50
  -3   0  -1    0.50    1.10
   3   0   1    1.30    1.90
  -3   0  -2 1583.24   74.69
   3   0   2 1521.35   74.29
   3   0   2 1512.75   74.89
  -3   0  -2 1481.15   77.89
  -3   0  -2 1453.95   74.49
   3   0   2 1504.95   74.39
   3   0   2 1499.25   77.69
  -3   0  -2 1413.06   74.09
   3   0   2 1497.85   74.39
  -3   0  -3   -0.60    1.90
  -3   0  -3    4.50    5.10
   3   0   3    5.80    3.10
   3   0   3   -1.00    3.90
  -3   0  -3    1.60    2.20
   3   0   3    2.40    2.50
   3   0   4 1635.44   83.19
   3   0   4 1526.55   86.39
  -3   0  -4 1651.73   82.29
  -3   0  -4 1667.03   82.79
  -3   0  -4 1572.84   87.99
   3   0   4 1619.44   81.89
   3   0   4 1617.84   83.89
  -3   0  -5    2.30    2.90
   3   0   5    7.20    4.80
   3   0   5   -0.20    2.80
   3   0   5   -1.10    4.00
   3   0   5   -6.40    5.90
  -3   0  -5   -6.20    3.30
   3   0   6 1397.56   86.99
  -3   0  -6 1493.45   79.59
  -3   0  -6 1508.55   78.89
   3   0   6 1512.35   78.59
   3   0   6 1543.95   80.69
   3   0   6 1484.95   85.89
   3   0   7    2.80    6.10
   3   0   7    0.20    6.70
  -3   0  -7   -0.40    4.80
   3   0   7    1.00    4.90
   3   0   7   13.20   12.90
   3   0   7    2.00   11.40
  -3   0  -8    3.50    6.20
   3   0   8   34.40   17.10
   3   0   8   22.10    9.90
   3   0   8   20.70   10.50
   3   0   9    9.10   10.80
   3   0   9    8.50   11.60
   3   0   9   -4.20   19.00
  -3   0  -9   -8.40    7.40
  -3   0  -9   -4.50   11.10
   3   0   9    7.60    7.90
   3   0  10   88.39   19.50
   3   0  10  109.39   31.60
   3   0  10   66.29   28.20
   3   0  10   74.59   14.90
  -3   0 -10  115.09   22.20
   3   0  10  104.89   20.80
   3   0  11  -44.40   46.70
   3   0  11   34.80   21.10
   3   0  11   21.60   33.40
  -3   0 -11    2.30   11.80
  -3   1  11    5.50   38.70
  -3   1  11  -14.70   12.10
  -3   1  11   17.30   12.70
   3   1 -11   18.40   14.70
  -3   1  11   22.00   14.60
   3   1 -11    5.70   13.40
  -3  -1  11   -3.30   12.50
  -3  -1  11  -31.70   14.10
   3  -1 -11    8.20   14.40
  -3  -1  11  -11.70   29.90
  -3   1  10   11.00   10.60
   3   1 -10    9.10   13.10
  -3   1  10   20.60   20.50
   3   1 -10    5.90   12.10
  -3   1  10   24.80   10.80
  -3   1  10   10.40   10.00
   3   1 -10   27.40   13.30
  -3  -1  10   22.20   14.50
   3  -1 -10   15.50   26.10
  -3  -1  10   12.80   10.10
  -3  -1  10    1.20   23.70
   3  -1 -10   12.10   11.70
   3  -1 -10   14.60    8.50
  -3  -1  10    1.90   11.30
  -3  -1  10    6.90   12.20
   3   1  -9  215.68   22.40
   3   1  -9  199.58   23.20
   3   1  -9  273.87   40.50
  -3   1   9  211.68   21.20
  -3   1   9  217.68   21.60
   3   1  -9  205.78   22.20
  -3   1   9  184.78   31.20
   3  -1  -9  205.88   22.40
  -3  -1   9  188.78   22.40
  -3  -1   9  239.68   22.90
  -3  -1   9  230.78   22.70
  -3  -1   9  290.07   38.10
   3  -1  -9  197.58   19.10
   3  -1  -9  182.08   32.50
  -3  -1   9  208.68   22.20
   3   1  -8  317.47   25.90
  -3   1   8  317.07   32.60
   3   1  -8  326.47   35.90
  -3   1   8  355.86   37.10
   3   1  -8  375.16   28.00
  -3   1   8  310.47   22.10
   3   1  -8  277.97   24.80
  -3  -1   8  319.87   35.20
  -3  -1   8  334.77   25.00
  -3  -1   8  323.77   25.90
   3  -1  -8  330.87   35.60
   3  -1  -8  326.77   22.80
   3  -1  -8  296.07   25.90
  -3  -1   8  317.17   25.70
  -3   1   7 1072.69   66.19
  -3   1   7 1053.09   61.09
   3   1  -7 1059.69   61.59
  -3   1   7 1055.19   58.69
  -3   1   7 1056.99   59.69
  -3   1   7 1078.79   56.49
   3   1  -7 1017.30   60.19
   3   1  -7 1096.89   70.59
   3   1  -7 1015.50   59.29
  -3  -1   7 1118.99   60.69
  -3  -1   7 1137.09   69.89
  -3  -1   7 1117.79   61.19
   3  -1  -7 1096.19   57.09
   3  -1  -7 1010.20   68.19
  -3  -1   7 1026.40   58.89
  -3  -1   7 1091.49   59.19
   3  -1  -7  979.10   60.09
  -3   1   6  293.87   21.70
   3   1  -6  288.67   22.90
  -3   1   6  298.27   19.20
   3   1  -6  285.87   21.60
  -3   1   6  322.57   22.70
  -3   1   6  353.86   27.70
  -3   1   6  312.97   21.20
   3   1  -6  311.77   30.00
   3   1  -6  319.77   23.00
   3  -1  -6  299.67   19.50
  -3  -1   6  329.27   29.20
  -3  -1   6  308.97   21.70
   3  -1  -6  300.07   20.70
   3  -1  -6  336.57   23.20
  -3  -1   6  279.07   29.90
  -3  -1   6  337.17   23.20
   3  -1  -6  323.97   28.60
   3   1  -5 1079.99   56.99
  -3   1   5 1047.60   56.09
   3   1  -5 1041.80   58.39
   3   1  -5 1088.89   57.89
  -3   1   5 1084.69   57.09
  -3   1   5  998.20   60.89
  -3   1   5 1024.60   57.09
  -3  -1   5 1104.59   64.09
   3  -1  -5 1087.59   63.69
  -3  -1   5 1044.40   56.69
  -3  -1   5 1072.19   57.89
  -3  -1   5 1026.60   56.19
   3  -1  -5 1078.19   57.69
  -3  -1   5 1070.49   57.39
   3  -1  -5 1039.20   55.69
  -3   1   4  402.76   27.90
  -3   1   4  439.76   24.80
   3   1  -4  389.06   29.80
   3   1  -4  405.66   25.10
  -3   1   4  399.76   24.70
   3   1  -4  408.46   25.70
   3   1  -4  388.46   24.20
   3   1  -4  403.66   25.40
  -3   1   4  452.65   24.30
  -3  -1   4  411.26   24.00
  -3  -1   4  430.96   24.90
   3  -1  -4  429.16   29.80
  -3  -1   4  404.36   24.40
   3  -1  -4  399.36   23.60
   3  -1  -4  420.06   25.10
  -3  -1   4  396.16   25.30
  -3  -1   4  385.16   29.20
   3  -1  -4  377.66   24.60
  -3   1   3   80.09    9.40
   3   1  -3   85.99    8.60
  -3   1   3   83.89    7.60
  -3   1   3   87.79    7.30
  -3   1   3   92.19   10.30
   3   1  -3   90.49   13.60
   3   1  -3   83.89    7.60
   3   1  -3   82.39    8.40
  -3   1   3   83.99    8.10
   3  -1  -3   90.59    8.10
   3  -1  -3   79.29    7.00
   3  -1  -3   76.59   11.50
  -3  -1   3   79.59    7.80
   3  -1  -3   84.29    8.90
  -3  -1   3   83.99    7.80
  -3  -1   3   90.99    8.40
  -3  -1   3  104.79    7.80
  -3  -1   3   95.29   11.30
  -3   1   2  100.69    7.20
  -3   1   2   98.99    7.50
  -3   1   2   87.79    9.70
  -3   1   2   95.09    9.60
   3   1  -2  118.49   11.40
   3   1  -2  114.89    8.30
  -3   1   2  103.19    7.80
   3   1  -2  106.49    8.50
   3   1  -2  108.09    8.40
   3   1  -2  103.59    7.70
  -3  -1   2  101.39    8.00
   3  -1  -2   87.89    7.90
  -3  -1   2  103.29    7.70
  -3  -1   2  102.69   10.20
  -3  -1   2   96.19    7.90
   3  -1  -2  101.89    7.30
  -3  -1   2   98.29    7.40
   3  -1  -2  121.89    9.20
   3  -1  -2   80.99    9.90
   3  -1  -2  106.59    7.80
  -3   1   1 3687.23  185.88
   3   1  -1 3782.92  182.28
  -3   1   1 3760.62  183.08
  -3   1   1 3943.71  182.28
  -3   1   1 3475.45  181.08
   3   1  -1 3670.33  182.38
   3   1  -1 3543.55  182.38
   3   1  -1 3741.43  184.68
  -3   1   1 3861.01  181.98
   3   1  -1 3764.22  181.88
   3  -1  -1 3924.81  182.08
   3  -1  -1 3978.90  185.98
   3  -1  -1 3467.95  182.28
   3  -1  -1 3846.52  183.28
  -3  -1   1 3794.42  181.78
   3  -1  -1 3673.53  181.68
  -3  -1   1 3692.73  181.38
  -3  -1   1 3814.82  182.38
  -3   1   0 5368.76  233.38
  -3   1   0 4683.33  228.28
   3   1   0 5051.39  230.88
   3   1   0 4385.56  228.68
   3   1   0 4883.41  228.18
  -3   1   0 4611.74  228.28
   3   1   0 4893.81  227.98
  -3   1   0 4949.80  228.98
  -3   1   0 4639.04  229.28
   3  -1   0 4808.12  228.48
   3  -1   0 4348.37  228.48
  -3  -1   0 4480.35  227.98
   3  -1   0 4794.42  228.68
  -3  -1   0 4478.85  228.68
   3  -1   0 4748.62  229.58
   3  -1   0 4690.73  227.48
  -3  -1   0 4607.24  230.58
  -3  -1   0 5017.10  227.98
   3  -1   0 4220.68  231.38
   3   1   1 2593.94  131.69
   3   1   1 2608.74  131.79
  -3   1  -1 2616.94  131.69
  -3   1  -1 2848.92  133.09
  -3   1  -1 2691.13  135.29
  -3   1  -1 2751.32  131.39
   3   1   1 2777.12  131.29
   3   1   1 2613.44  133.79
   3   1   1 2836.72  131.19
  -3   1  -1 2712.23  131.89
  -3  -1  -1 2538.95  131.59
   3  -1   1 2761.22  130.69
  -3  -1  -1 2639.54  132.19
   3  -1   1 2734.23  134.79
   3  -1   1 2610.84  132.09
  -3  -1  -1 2861.41  133.89
  -3  -1  -1 2796.82  131.09
   3  -1   1 2671.83  132.99
   3  -1   1 2597.14  131.39
   3   1   2 1435.66   71.69
   3   1   2 1437.36   72.49
  -3   1  -2 1431.96   72.49
  -3   1  -2 1440.76   72.69
  -3   1  -2 1519.65   73.99
   3   1   2 1415.26   73.79
  -3   1  -2 1460.85   73.09
   3   1   2 1414.86   71.09
   3  -1   2 1452.45   73.79
   3  -1   2 1509.05   72.39
   3  -1   2 1437.96   73.39
   3  -1   2 1469.65   71.09
   3  -1   2 1441.16   76.19
  -3  -1  -2 1416.06   71.59
   3  -1   2 1416.76   72.99
  -3  -1  -2 1421.96   71.19
  -3  -1  -2 1402.26   74.29
   3   1   3 1703.03   90.09
  -3   1  -3 1716.23   87.89
  -3   1  -3 1717.23   88.39
   3   1   3 1681.83   87.39
  -3   1  -3 1868.71   88.69
  -3   1  -3 1742.53   93.69
  -3   1  -3 1834.02   89.79
   3   1   3 1795.82   86.79
  -3  -1  -3 1760.12   86.79
  -3  -1  -3 1692.33   87.19
   3  -1   3 1752.82   88.59
   3  -1   3 1806.72   89.09
   3  -1   3 1767.32   89.59
  -3  -1  -3 1694.53   90.99
   3  -1   3 1690.23   93.19
   3  -1   3 1722.83   87.79
  -3   1  -4    7.80    4.40
  -3   1  -4    3.40    6.40
   3   1   4    2.90    4.00
  -3   1  -4    1.90    2.90
  -3   1  -4    3.40    3.40
   3   1   4    6.60    5.40
  -3   1  -4   -1.30    3.10
   3   1   4    1.40    2.30
   3  -1   4   -4.90    3.20
   3  -1   4   -3.50    5.90
   3  -1   4    5.30    4.00
  -3  -1  -4   10.70    5.90
  -3  -1  -4    1.40    2.90
   3  -1   4   -1.20    2.50
   3  -1   4    4.30    4.20
  -3  -1  -4    3.10    2.40
  -3   1  -5   93.79   11.80
   3   1   5  112.59   12.00
  -3   1  -5  117.59   10.30
  -3   1  -5  117.29   12.20
  -3   1  -5  110.89   11.00
   3   1   5  121.99   15.90
   3   1   5   94.69   10.90
   3   1   5  113.79   17.10
   3   1   5  102.09    9.70
   3  -1   5  104.79   12.10
  -3  -1  -5   94.69   10.50
   3  -1   5  118.49   10.90
  -3  -1  -5   98.69    9.50
   3  -1   5  100.49   17.50
   3  -1   5  108.69   12.60
   3   1   6  158.68   22.80
   3   1   6  145.99   13.50
  -3   1  -6  185.98   15.60
   3   1   6  143.49   15.10
   3   1   6  167.58   16.20
  -3   1  -6  183.68   16.70
  -3   1  -6  169.78   16.30
  -3   1  -6  166.78   13.60
   3   1   6  224.48   21.70
   3  -1   6  176.58   17.20
   3  -1   6  143.39   18.50
   3  -1   6  157.58   14.50
   3  -1   6  170.88   21.30
   3  -1   6  155.68   24.80
  -3  -1  -6  148.39   13.70
  -3  -1  -6  167.78   15.00
  -3   1  -7  390.76   28.40
   3   1   7  389.06   34.30
   3   1   7  389.06   25.80
   3   1   7  371.46   27.90
  -3   1  -7  401.96   28.80
   3   1   7  380.66   27.60
  -3   1  -7  359.36   26.60
  -3  -1  -7  374.96   26.70
   3  -1   7  410.36   36.70
   3  -1   7  361.66   28.90
   3  -1   7  381.36   26.70
   3  -1   7  395.96   37.30
   3  -1   7  377.96   29.10
  -3  -1  -7  344.47   25.20
   3   1   8  204.28   29.00
  -3   1  -8  211.08   19.80
   3   1   8  203.48   18.80
   3   1   8  220.28   22.00
   3   1   8  196.88   21.30
  -3   1  -8  185.78   21.90
   3  -1   8  203.98   22.90
   3  -1   8  182.88   30.60
   3  -1   8  207.18   33.30
   3  -1   8  229.38   22.30
   3  -1   8  216.58   23.60
  -3  -1  -8  255.17   21.30
  -3  -1  -8  169.18   17.90
  -3   1  -9  129.39   19.20
   3   1   9  169.78   18.20
   3   1   9  102.29   17.90
   3   1   9  194.98   31.80
  -3   1  -9  145.69   23.90
   3   1   9  162.18   30.60
   3   1   9  131.09   19.90
  -3   1  -9  154.98   26.10
  -3  -1  -9  153.88   20.20
   3  -1   9  156.58   30.90
  -3  -1  -9  149.79   17.60
   3  -1   9  145.49   18.40
   3  -1   9  115.49   31.10
   3  -1   9  156.48   23.10
   3   1  10  104.59   16.70
   3   1  10  167.08   34.20
   3   1  10   82.49   20.90
  -3   1 -10  104.69   16.90
   3   1  10  114.59   29.70
   3   1  10  103.29   21.00
   3  -1  10   97.59   21.30
  -3  -1 -10   99.99   16.40
   3  -1  10   45.00   35.30
   3  -1  10  103.59   33.80
   3  -1  10  123.99   18.20
   3  -1  10  123.49   25.00
  -3   1 -11   33.60   14.00
   3   1  11   34.00   21.60
   3   1  11   59.89   33.30
   3   1  11   27.00   13.50
   3   1  11   59.09   34.80
   3  -1  11   -2.20   37.70
   3  -1  11   52.39   35.10
   3  -1  11   23.00   16.30
  -3  -1 -11   29.50   13.80
  -3   2  11   96.49   19.70
  -3   2  11   90.69   18.80
   3   2 -11  116.49   19.60
   3   2 -11   80.69   20.80
  -3  -2  11  108.79   40.10
  -3  -2  11  120.79   21.70
  -3  -2  11  139.79   51.69
   3   2 -10   -9.80   11.50
   3   2 -10    9.40   11.60
  -3   2  10    4.20   10.50
  -3   2  10   -6.90    9.60
   3   2 -10  -16.70   14.70
  -3  -2  10  -14.70   12.50
  -3  -2  10   15.90   26.70
  -3  -2  10   -6.50   10.70
   3  -2 -10  -12.00   37.60
  -3  -2  10    4.20   14.20
   3  -2 -10  -18.60   11.50
  -3   2   9  212.28   27.40
  -3   2   9  290.87   25.20
   3   2  -9  275.17   27.70
   3   2  -9  298.77   28.40
   3   2  -9  253.67   26.50
  -3   2   9  277.47   32.30
  -3  -2   9  400.56   47.80
   3  -2  -9  275.77   24.30
  -3  -2   9  288.77   26.40
  -3  -2   9  277.27   26.80
   3  -2  -9  245.18   36.80
  -3  -2   9  284.67   25.50
   3  -2  -9  309.17   26.70
   3   2  -8   16.40   19.60
   3   2  -8   -5.70    7.50
  -3   2   8   16.30   10.00
  -3   2   8   12.10    7.20
  -3   2   8    8.60    6.60
   3   2  -8   21.20    9.40
  -3   2   8    7.90   12.30
  -3  -2   8   -8.40    7.00
  -3  -2   8    6.80    8.00
   3  -2  -8   10.30    7.60
   3  -2  -8   11.40    7.80
  -3  -2   8  -18.30   16.20
  -3  -2   8   24.80    8.70
   3  -2  -8   21.50   15.50
   3   2  -7   55.89   11.10
   3   2  -7   52.69   12.00
  -3   2   7   33.00    8.10
   3   2  -7    7.30   13.60
   3   2  -7    5.80    8.20
  -3   2   7   35.80    8.10
  -3   2   7   36.40   11.80
  -3   2   7   26.10    9.40
   3  -2  -7   20.20    7.00
  -3  -2   7   24.00    8.20
  -3  -2   7   35.20    9.90
   3  -2  -7   54.69   15.10
  -3  -2   7   45.90    8.80
  -3  -2   7   42.10   10.20
  -3  -2   7   20.60   15.50
   3  -2  -7   39.70    9.90
   3   2  -6   14.50    6.30
   3   2  -6  -19.90   10.00
  -3   2   6    4.90    4.20
  -3   2   6  -12.80    6.60
  -3   2   6   -1.90    4.20
   3   2  -6    5.30    5.20
  -3   2   6    0.20    6.10
   3   2  -6   -3.10    5.00
  -3  -2   6    4.70    5.10
   3  -2  -6   -1.20    4.20
  -3  -2   6    0.60    4.30
  -3  -2   6    0.40    4.70
   3  -2  -6    4.70    8.80
   3  -2  -6    5.00    5.20
  -3  -2   6   -0.80    4.40
  -3  -2   6   10.80   14.00
  -3   2   5 1178.88   64.89
   3   2  -5 1253.37   64.99
   3   2  -5 1217.18   66.29
  -3   2   5 1161.18   67.49
   3   2  -5 1226.58   64.89
   3   2  -5 1201.38   73.09
  -3   2   5 1242.98   64.09
  -3   2   5 1211.28   62.79
   3   2  -5 1265.57   66.99
  -3  -2   5 1247.48   65.19
  -3  -2   5 1240.68   65.69
   3  -2  -5 1149.08   69.79
  -3  -2   5 1229.88   71.99
   3  -2  -5 1175.18   62.49
  -3  -2   5 1193.28   62.89
   3  -2  -5 1114.69   63.99
   3   2  -4   68.29    8.20
   3   2  -4   59.69    9.70
  -3   2   4   58.59    7.80
  -3   2   4   70.49   11.20
  -3   2   4   63.29    9.00
  -3   2   4   70.39   10.40
   3   2  -4   49.60   12.30
   3   2  -4   63.59    9.20
  -3   2   4   51.49    6.70
   3   2  -4   62.99    8.40
  -3  -2   4   69.99    8.60
   3  -2  -4   65.79    6.60
  -3  -2   4   62.79    6.90
  -3  -2   4   62.99    7.90
  -3  -2   4   65.29    9.10
  -3  -2   4   46.00   10.40
   3  -2  -4   77.09    8.30
   3  -2  -4   54.19   11.20
   3   2  -3 3147.69  157.08
  -3   2   3 3137.59  157.28
  -3   2   3 3123.29  155.58
  -3   2   3 3144.09  156.28
   3   2  -3 3190.78  163.58
  -3   2   3 3259.47  158.18
   3   2  -3 3328.47  159.68
   3   2  -3 3126.49  158.38
   3   2  -3 3301.37  157.48
  -3   2   3 3126.49  159.38
   3  -2  -3 3115.89  155.78
  -3  -2   3 3187.68  156.18
  -3  -2   3 3208.88  158.48
  -3  -2   3 3257.67  158.08
   3  -2  -3 3241.28  160.98
   3  -2  -3 3158.28  156.78
   3  -2  -3 3166.88  157.38
  -3  -2   3 3199.18  157.28
  -3   2   2    7.00    2.90
  -3   2   2    8.80    2.70
   3   2  -2    6.00    3.10
  -3   2   2   12.40    4.20
   3   2  -2    3.00    2.20
   3   2  -2   16.70    6.20
   3   2  -2    7.60    3.50
   3   2  -2   13.80    3.70
  -3   2   2   12.70    5.60
   3  -2  -2    4.60    5.00
   3  -2  -2    9.40    2.80
  -3  -2   2    6.80    3.00
  -3  -2   2    9.40    3.40
  -3  -2   2    5.80    3.40
  -3  -2   2    3.70    2.50
   3  -2  -2    7.30    3.20
   3  -2  -2    7.10    3.90
  -3  -2   2    9.10    4.80
  -3   2   1 3068.99  155.08
  -3   2   1 2975.60  145.39
   3   2  -1 3162.68  145.89
  -3   2   1 2770.32  149.88
   3   2  -1 3122.29  148.29
   3   2  -1 2928.61  149.39
   3   2  -1 2596.54  146.49
   3   2  -1 3121.89  146.59
  -3  -2   1 2595.44  146.49
  -3  -2   1 3301.97  149.09
   3  -2  -1 3179.78  146.59
   3  -2  -1 2991.00  148.19
   3  -2  -1 3036.10  146.49
  -3  -2   1 3055.49  145.59
   3  -2  -1 2902.71  150.28
  -3  -2   1 3087.89  146.39
   3   2   0  108.89    9.20
   3   2   0   88.19    6.70
  -3   2   0   96.09    7.80
  -3   2   0  114.49   11.00
   3   2   0   94.19    8.30
  -3   2   0  106.79    7.60
  -3   2   0  101.29    9.50
   3   2   0   96.89    6.60
  -3  -2   0   89.99    7.80
   3  -2   0   99.99    7.70
   3  -2   0   91.19    7.80
  -3  -2   0  101.39    9.00
   3  -2   0   88.19   10.70
   3  -2   0  103.59    7.90
   3  -2   0  103.99    9.70
  -3   2  -1    4.50    4.30
  -3   2  -1    5.00    2.30
  -3   2  -1   10.70    3.10
   3   2   1    3.90    3.40
  -3   2  -1    7.80    3.60
  -3   2  -1    8.50    3.40
   3   2   1    8.70    3.70
  -3  -2  -1    3.10    2.40
   3  -2   1    6.90    4.50
   3  -2   1    4.30    2.40
  -3  -2  -1    7.20    3.50
   3  -2   1    5.50    2.20
   3  -2   1    6.90    3.20
   3  -2   1    2.30    3.70
  -3   2  -2   -1.50    2.80
  -3   2  -2   -1.70    2.40
   3   2   2   -5.20    3.50
  -3   2  -2   -1.50    2.90
  -3   2  -2    4.90    5.40
   3   2   2    1.50    2.40
  -3   2  -2   -2.70    1.90
   3  -2   2    2.50    2.10
   3  -2   2    0.40    2.80
   3  -2   2   11.50    5.90
   3  -2   2   -1.10    3.00
   3  -2   2    4.60    4.00
  -3  -2  -2    4.20    3.60
   3   2   3 1806.72   95.79
  -3   2  -3 1919.01   98.89
  -3   2  -3 1913.91  104.09
  -3   2  -3 1957.70   99.59
  -3   2  -3 1968.10   98.39
   3   2   3 1961.10   97.79
   3   2   3 1952.70   97.89
  -3   2  -3 1969.30   97.69
   3  -2   3 1868.51  102.49
   3  -2   3 1952.90   99.69
   3  -2   3 1926.81   98.89
   3  -2   3 1977.40   97.39
  -3  -2  -3 1985.90   94.99
  -3  -2  -3 1919.21   98.99
   3  -2   3 1965.90   99.99
   3   2   4   25.60    4.40
   3   2   4   20.40    7.30
  -3   2  -4   29.20    6.80
  -3   2  -4   12.50    9.60
  -3   2  -4   20.80    5.90
   3   2   4   21.80    4.90
  -3   2  -4   24.30    6.40
   3   2   4   29.80    7.20
  -3   2  -4   22.40    5.30
   3  -2   4   17.40    4.90
  -3  -2  -4   18.70    3.80
   3  -2   4   25.30    6.80
  -3  -2  -4   20.50    4.50
   3  -2   4   16.00    7.80
  -3   2  -5 2243.48  113.79
   3   2   5 2313.57  115.59
  -3   2  -5 2243.68  115.59
   3   2   5 2171.08  110.39
  -3   2  -5 2312.77  113.79
  -3   2  -5 2192.48  114.29
   3   2   5 2285.57  112.49
   3   2   5 2182.08  117.29
   3  -2   5 2179.78  115.69
   3  -2   5 2205.78  115.49
   3  -2   5 2156.18  112.79
  -3  -2  -5 2206.78  111.39
  -3  -2  -5 2189.08  110.39
   3  -2   5 2168.88  120.09
   3   2   6   20.20    5.20
  -3   2  -6   12.70    6.20
  -3   2  -6    8.10    5.20
  -3   2  -6   12.70    6.80
   3   2   6   10.60   10.30
   3   2   6   10.80    6.90
   3   2   6   19.40    6.80
  -3   2  -6   20.90    8.20
   3   2   6   11.00    9.60
   3  -2   6    4.80    6.50
   3  -2   6   11.70   11.80
   3  -2   6    6.70   13.00
  -3  -2  -6   11.80    4.50
  -3  -2  -6    4.10    5.90
   3  -2   6   20.50    6.40
   3   2   7  242.78   20.70
   3   2   7  220.28   25.00
  -3   2  -7  211.78   19.10
  -3   2  -7  241.78   20.20
   3   2   7  188.58   20.50
  -3   2  -7  224.08   22.30
   3   2   7  251.27   18.10
  -3   2  -7  231.38   22.10
   3  -2   7  268.07   31.50
  -3  -2  -7  258.17   19.60
   3  -2   7  249.68   20.10
   3  -2   7  198.78   31.30
  -3  -2  -7  215.78   17.40
   3  -2   7  187.68   21.80
  -3   2  -8  -23.60    9.80
   3   2   8   -7.40    8.70
  -3   2  -8   -7.10    7.20
   3   2   8  -10.80   13.00
  -3   2  -8    3.70    7.40
  -3   2  -8    7.70    6.70
   3   2   8   12.60   14.80
   3   2   8    2.10    9.10
   3   2   8    5.10    7.10
  -3  -2  -8    2.60    6.10
   3  -2   8    0.30    7.70
  -3  -2  -8   -0.40    8.60
   3  -2   8   16.10   17.40
   3  -2   8    5.30   11.20
   3  -2   8   14.90   10.80
   3  -2   8   -5.00   19.40
   3   2   9   -3.30   16.70
   3   2   9  -18.50   17.40
  -3   2  -9    2.20    8.20
  -3   2  -9    1.40   14.20
   3   2   9   -9.30   10.10
  -3   2  -9    1.20   10.50
   3   2   9    9.90   12.30
  -3   2  -9    9.60    8.00
   3   2   9    3.10    7.70
  -3  -2  -9  -11.90    7.50
  -3  -2  -9   -1.20   11.80
   3  -2   9    0.00    9.00
   3  -2   9    0.20   12.40
   3  -2   9   10.60   23.00
   3  -2   9   -1.40   25.50
   3  -2   9  -11.60   12.80
   3   2  10    0.50    9.20
   3   2  10   13.20   14.00
   3   2  10  -10.70   21.60
   3   2  10   -1.50   16.00
  -3   2 -10  -15.00   11.30
   3   2  10   17.40   23.90
  -3   2 -10    8.70    9.30
  -3   2 -10   -0.60   10.00
   3  -2  10   -8.90   29.00
   3  -2  10  -53.39   26.90
  -3  -2 -10    0.60   10.10
   3  -2  10   -2.10   11.00
  -3   2 -11   47.10   16.50
  -3   2 -11   42.40   17.50
   3   2  11   10.80   18.20
   3   2  11   31.50   33.70
   3   2  11   -8.80   21.80
   3   2  11   45.10   14.30
  -3  -2 -11   47.80   15.50
   3  -2  11    8.20   36.40
   3  -2  11   14.50   43.80
   3   3 -10   36.30   18.00
   3   3 -10   12.50   16.50
   3   3 -10   16.80   13.80
  -3   3  10   12.80   11.20
   3  -3 -10   -2.10   13.60
  -3  -3  10    8.10   13.20
  -3  -3  10   14.40   14.50
  -3  -3  10  -46.10   28.30
  -3  -3  10   -6.80   30.40
   3   3  -9   42.40   15.50
   3   3  -9   21.60   13.40
  -3   3   9   13.60   10.20
  -3   3   9   30.50   11.20
  -3   3   9   44.00   19.60
  -3   3   9   29.50   15.50
  -3  -3   9   36.50   13.10
   3  -3  -9   44.10   11.70
   3  -3  -9   11.40   10.60
  -3  -3   9   69.99   27.40
  -3  -3   9   40.10   24.60
  -3  -3   9   50.89   13.40
  -3   3   8  360.96   31.40
  -3   3   8  269.87   29.50
   3   3  -8  337.17   30.10
   3   3  -8  303.57   28.20
   3   3  -8  296.87   27.70
  -3   3   8  292.07   23.20
  -3   3   8  298.47   24.70
  -3  -3   8  292.37   26.90
  -3  -3   8  289.87   28.40
  -3  -3   8  360.66   41.20
  -3  -3   8  312.87   27.40
   3  -3  -8  319.97   23.20
   3  -3  -8  292.57   25.20
   3  -3  -8  391.16   37.70
   3   3  -7  324.77   25.80
  -3   3   7  278.67   27.10
  -3   3   7  278.07   25.60
  -3   3   7  304.87   25.00
   3   3  -7  355.36   38.80
   3   3  -7  289.37   27.20
   3   3  -7  299.87   26.00
  -3   3   7  305.47   21.50
   3  -3  -7  315.97   31.60
   3  -3  -7  325.47   24.00
  -3  -3   7  294.17   25.00
  -3  -3   7  319.57   26.40
  -3  -3   7  285.37   35.00
  -3  -3   7  310.07   22.20
   3   3  -6  342.07   25.20
  -3   3   6  344.57   25.80
  -3   3   6  325.27   23.00
   3   3  -6  350.76   35.50
  -3   3   6  316.07   21.30
   3   3  -6  347.97   26.30
   3   3  -6  328.67   27.10
  -3  -3   6  413.76   35.20
   3  -3  -6  339.87   21.30
  -3  -3   6  324.07   21.90
   3  -3  -6  328.27   23.50
   3  -3  -6  332.17   30.20
  -3  -3   6  329.97   25.30
   3   3  -5  162.18   16.80
  -3   3   5  138.99   10.90
   3   3  -5  136.89   14.90
   3   3  -5  120.49   13.70
   3   3  -5  179.88   25.60
  -3   3   5  145.59   12.60
   3   3  -5  141.49   14.00
  -3  -3   5  144.19   14.80
  -3  -3   5  138.59   13.80
  -3  -3   5  144.09   11.80
   3  -3  -5  120.49   10.80
   3  -3  -5  126.29   12.90
  -3  -3   5  193.08   24.90
   3   3  -4   54.69   10.20
   3   3  -4   51.39    8.20
  -3   3   4   58.49   10.50
  -3   3   4   42.00    8.00
   3   3  -4   56.09   13.60
   3   3  -4   53.39    8.90
   3   3  -4   62.29    9.40
  -3   3   4   64.09    9.40
  -3   3   4   56.19    7.90
   3  -3  -4   65.49    9.70
  -3  -3   4   65.79    8.90
   3  -3  -4   54.29    7.60
  -3  -3   4   50.99    8.60
   3  -3  -4   56.09   12.00
  -3  -3   4   61.39   13.40
  -3  -3   4   62.09    9.40
   3  -3  -4   62.09    7.50
  -3  -3   4   69.69    8.20
  -3   3   3   21.10    5.60
  -3   3   3   20.30    7.60
   3   3  -3   30.00    5.50
   3   3  -3   28.40    7.10
   3   3  -3   56.09    7.90
  -3   3   3   31.90    5.20
  -3   3   3   35.60    5.30
   3   3  -3   33.90    6.80
  -3   3   3   34.30    6.50
   3   3  -3   34.20   10.40
  -3  -3   3   30.60    6.20
  -3  -3   3   29.10    6.00
   3  -3  -3   32.60    6.90
   3  -3  -3   37.40    5.80
  -3  -3   3   43.60   10.10
   3  -3  -3   37.00    8.40
   3  -3  -3   32.20    5.40
  -3  -3   3   32.40    5.60
  -3   3   2  102.19   12.20
  -3   3   2   98.19    8.60
   3   3  -2   96.89    9.50
   3   3  -2  111.09   13.50
  -3   3   2   99.19   10.50
   3   3  -2  111.19    9.60
   3   3  -2   98.69   11.40
   3   3  -2  101.09    8.40
  -3   3   2  115.89    8.30
  -3   3   2   82.89    8.00
  -3  -3   2   95.49    8.90
   3  -3  -2  103.09    8.10
   3  -3  -2  106.99    8.40
   3  -3  -2   91.99   11.90
   3  -3  -2   97.49   11.00
  -3  -3   2  104.19   12.00
  -3  -3   2  107.19   10.40
  -3  -3   2   89.99    8.90
  -3  -3   2   95.59    8.20
   3   3  -1  344.37   22.60
  -3   3   1  327.27   22.00
  -3   3   1  399.56   25.50
   3   3  -1  385.76   25.00
  -3   3   1  421.86   22.00
   3   3  -1  388.26   21.30
  -3   3   1  370.16   20.80
  -3   3   1  397.66   25.00
   3   3  -1  386.66   25.20
   3  -3  -1  398.76   22.00
  -3  -3   1  445.56   23.30
   3  -3  -1  429.16   26.00
   3  -3  -1  384.06   21.80
   3  -3  -1  412.76   26.90
   3   3   0 1211.38   71.49
  -3   3   0 1452.85   71.89
   3   3   0 1442.56   73.49
  -3   3   0 1535.85   71.59
  -3   3   0 1386.86   74.79
   3   3   0 1398.76   71.89
  -3   3   0 1477.25   74.49
   3  -3   0 1355.76   71.09
   3  -3   0 1432.96   75.09
   3  -3   0 1316.07   75.19
   3  -3   0 1342.87   71.19
  -3  -3   0 1554.34   71.69
  -3  -3   0 1407.96   71.69
   3  -3   0 1410.06   71.59
   3   3   1  367.86   22.20
  -3   3  -1  380.46   27.20
  -3   3  -1  391.76   22.80
   3   3   1  366.96   23.40
  -3   3  -1  388.76   21.90
  -3   3  -1  390.96   25.10
  -3   3  -1  408.06   24.10
  -3  -3  -1  376.86   20.40
   3  -3   1  396.56   23.30
   3  -3   1  382.86   23.70
   3  -3   1  375.76   26.10
   3  -3   1  379.16   25.90
   3  -3   1  391.96   21.60
   3   3   2 1534.75   79.49
  -3   3  -2 1616.44   80.59
  -3   3  -2 1587.84   79.49
  -3   3  -2 1546.45   85.99
  -3   3  -2 1654.83   82.19
  -3   3  -2 1502.55   82.29
   3  -3   2 1527.55   81.59
   3  -3   2 1586.14   83.99
   3  -3   2 1596.94   84.49
   3  -3   2 1494.25   80.79
   3  -3   2 1596.94   78.99
   3   3   3  330.77   20.70
  -3   3  -3  315.17   21.50
  -3   3  -3  297.97   22.40
  -3   3  -3  323.57   20.50
   3   3   3  321.57   19.20
  -3   3  -3  339.47   23.10
   3   3   3  291.17   19.20
  -3   3  -3  299.57   26.80
   3  -3   3  315.57   19.80
   3  -3   3  305.47   22.70
   3  -3   3  317.57   25.90
   3  -3   3  328.57   24.60
  -3   3  -4  121.19   13.30
   3   3   4  111.79   11.70
   3   3   4   97.89   11.60
  -3   3  -4  112.49   13.00
  -3   3  -4  126.49   11.40
   3   3   4  112.99   11.00
  -3   3  -4  101.89   13.50
   3  -3   4  136.49   19.40
   3  -3   4   95.29   10.50
   3  -3   4   90.29   12.60
   3  -3   4  114.99   14.30
  -3   3  -5   14.40    7.20
  -3   3  -5   14.20    7.20
   3   3   5   26.00    8.40
  -3   3  -5   23.10    8.40
  -3   3  -5   27.50    7.20
   3   3   5   23.80    8.70
   3  -3   5   25.30    9.30
   3  -3   5   56.79   17.00
   3  -3   5   21.60    5.40
   3  -3   5   19.40   12.40
   3  -3   5   18.80    6.50
  -3   3  -6  269.57   23.40
  -3   3  -6  259.87   20.70
   3   3   6  291.17   23.60
  -3   3  -6  247.88   21.80
   3   3   6  222.88   23.20
  -3   3  -6  266.47   23.70
   3  -3   6  181.78   30.50
   3  -3   6  248.08   18.10
   3  -3   6  275.07   20.70
   3  -3   6  267.57   30.00
  -3   3  -7  368.66   27.50
  -3   3  -7  373.16   28.70
   3   3   7  371.86   31.20
   3   3   7  336.47   23.40
  -3   3  -7  387.86   31.00
   3   3   7  350.46   30.90
  -3   3  -7  337.97   30.40
   3   3   7  381.26   26.60
   3   3   7  304.07   26.90
   3  -3   7  438.46   40.80
  -3  -3  -7  410.86   23.70
   3  -3   7  375.66   27.30
  -3  -3  -7  376.46   25.40
   3  -3   7  312.27   31.20
   3  -3   7  415.86   32.50
   3  -3   7  399.96   41.40
   3  -3   7  366.56   25.20
  -3   3  -8  216.98   22.00
   3   3   8  187.98   21.50
  -3   3  -8  233.08   25.10
   3   3   8  214.98   27.90
   3   3   8  244.28   18.50
   3   3   8  214.48   22.40
  -3   3  -8  229.18   27.60
  -3   3  -8  222.58   22.60
   3   3   8  235.28   28.50
   3  -3   8  210.18   26.40
   3  -3   8  215.38   35.10
   3  -3   8  160.98   30.20
  -3  -3  -8  211.08   18.00
   3  -3   8  210.08   27.90
  -3  -3  -8  187.48   21.30
   3  -3   8  232.28   21.50
   3  -3   8  225.48   39.00
   3   3   9   41.60   22.40
  -3   3  -9   36.90   13.90
   3   3   9   37.00   13.80
  -3   3  -9   45.70   13.30
  -3   3  -9   36.20   12.10
   3   3   9   33.80   13.50
  -3   3  -9   90.09   22.00
   3   3   9   48.10   20.00
   3   3   9   59.89   10.90
   3  -3   9   36.90   13.60
   3  -3   9   39.90   28.60
   3  -3   9   28.50   12.30
   3  -3   9   53.59   33.10
  -3  -3  -9   37.10   10.00
  -3  -3  -9   25.90   14.20
   3   3  10   20.30   15.80
   3   3  10   66.69   13.20
   3   3  10   29.50   27.30
   3   3  10   73.39   18.50
  -3   3 -10   62.49   15.20
  -3   3 -10   51.49   17.90
   3  -3  10   63.99   34.50
  -3  -3 -10   70.79   22.80
   3  -3  10   60.89   18.00
   3  -3  10   -9.40   39.30
   3  -3  10   57.09   15.80
   3   4  -9  -12.00   14.50
   3   4  -9  -18.30   16.00
  -3   4   9   -0.60   11.00
  -3   4   9   15.40   10.00
  -3  -4   9   28.60   15.00
  -3  -4   9  -20.20   28.90
  -3  -4   9    4.00   14.50
  -3  -4   9   26.60   32.20
  -3   4   8   76.39   18.70
  -3   4   8   31.90   15.20
  -3   4   8   33.80   10.80
   3   4  -8   45.80   15.40
   3   4  -8   46.40   16.10
   3   4  -8   56.89   15.70
  -3   4   8   51.39   10.00
   3  -4  -8   26.30   19.80
  -3  -4   8   58.49   14.80
  -3  -4   8   47.90   25.10
   3  -4  -8   25.50   10.70
  -3  -4   8   14.30   23.50
   3   4  -7   42.50   14.10
  -3   4   7   36.90   13.30
   3   4  -7   48.10   12.30
  -3   4   7   44.30   10.30
  -3   4   7   39.10   13.70
  -3   4   7   38.70    7.60
  -3  -4   7   55.89   10.20
   3  -4  -7   31.10   16.10
  -3  -4   7   76.89   15.60
  -3  -4   7   48.80   12.00
  -3  -4   7   16.40   11.10
  -3  -4   7   58.89   22.40
  -3  -4   7   56.09   21.00
  -3   4   6  123.49   12.10
  -3   4   6  120.79   13.90
  -3   4   6  104.59   16.50
   3   4  -6   89.69   16.20
  -3   4   6  108.49   17.10
   3   4  -6  123.69   16.30
   3  -4  -6  124.89   20.00
  -3  -4   6  125.19   15.90
  -3  -4   6  152.78   26.10
  -3  -4   6  130.49   14.50
  -3  -4   6   78.19   20.50
  -3  -4   6  142.39   16.70
  -3  -4   6  155.48   23.20
  -3   4   5   29.10    6.00
   3   4  -5   22.10   14.10
   3   4  -5   24.10   10.10
  -3   4   5   15.00    9.50
   3   4  -5   14.00    8.30
  -3   4   5   29.00   11.10
   3   4  -5   22.20    8.30
  -3  -4   5   33.80    8.30
  -3  -4   5   20.50   14.20
  -3  -4   5   12.00    8.40
   3  -4  -5   28.10   10.80
  -3  -4   5   30.50    9.80
   3   4  -4 1169.28   62.69
   3   4  -4 1198.08   66.29
   3   4  -4 1106.29   60.59
  -3   4   4 1057.09   60.79
  -3   4   4 1062.49   60.89
   3   4  -4 1137.59   60.59
   3  -4  -4 1179.88   62.79
  -3  -4   4 1123.19   60.59
  -3  -4   4 1102.29   61.09
  -3  -4   4 1142.29   67.59
  -3  -4   4 1125.69   60.19
   3  -4  -4 1165.68   63.89
   3   4  -3   58.29   11.60
  -3   4   3   47.80    9.20
   3   4  -3   71.79    8.80
   3   4  -3   68.59    8.90
   3   4  -3   58.69    9.20
  -3   4   3   60.99    8.70
  -3   4   3   47.50    9.50
   3  -4  -3   41.00    9.50
  -3  -4   3   50.99    7.40
  -3  -4   3   50.79    7.90
  -3  -4   3   61.79   10.30
  -3  -4   3   59.39    8.40
   3  -4  -3   41.50    9.70
  -3   4   2 1630.74   83.09
  -3   4   2 1272.27   85.79
   3   4  -2 1552.74   84.19
   3   4  -2 1658.03   79.99
  -3   4   2 1479.75   78.39
   3  -4  -2 1593.64   82.39
  -3  -4   2 1659.33   79.79
  -3  -4   2 1604.34   83.29
  -3   4   1  252.47   21.40
   3   4  -1  245.28   17.00
  -3   4   1  229.38   16.10
  -3   4   1  264.87   20.40
   3   4  -1  270.87   20.50
  -3  -4   1  233.28   16.90
  -3  -4   1  223.68   18.10
   3  -4  -1  263.97   21.80
  -3  -4   1  295.07   18.10
   3  -4  -1  243.68   20.50
  -3   4   0   51.79   11.60
  -3   4   0   46.50    9.20
  -3   4   0   42.10    7.90
  -3   4   0   42.60    7.40
   3   4   0   50.79    9.20
  -3   4   0   42.30    6.40
   3   4   0   46.50    7.80
   3  -4   0   58.79   11.60
   3  -4   0   39.60   10.30
   3  -4   0   41.80    6.80
   3  -4   0   48.10    6.60
   3  -4   0   37.90    6.70
   3   4   1   36.70    8.10
   3   4   1   46.60    7.10
   3   4   1   28.50    7.00
  -3   4  -1   23.50    8.10
  -3   4  -1   37.00    6.80
  -3   4  -1   22.30    7.00
  -3   4  -1   34.20    5.50
   3  -4   1   36.80    9.90
   3  -4   1   37.70    9.50
   3  -4   1   35.60    5.60
   3  -4   1   32.30    7.20
   3  -4   1   28.30    6.30
   3   4   2  177.48   15.40
   3   4   2  151.88   13.60
  -3   4  -2  186.98   13.50
  -3   4  -2  161.38   21.30
  -3   4  -2  193.88   15.60
  -3   4  -2  185.98   17.10
  -3   4  -2  194.08   17.50
   3  -4   2  201.28   16.90
   3  -4   2  179.38   12.90
   3   4   3   55.99    9.00
  -3   4  -3   73.59    8.80
   3   4   3   62.59    9.00
  -3   4  -3   62.89   10.30
  -3   4  -3   57.59   11.30
  -3   4  -3   52.39   10.70
   3  -4   3   49.00    9.80
   3  -4   3   51.49   13.10
   3  -4   3   58.69    7.80
   3  -4   3   46.30   10.20
  -3   4  -4  707.63   45.80
  -3   4  -4  786.22   45.00
  -3   4  -4  725.53   46.30
  -3   4  -4  691.93   42.00
   3   4   4  721.33   42.50
   3  -4   4  748.13   53.89
   3  -4   4  769.22   46.50
   3  -4   4  770.12   50.89
   3  -4   4  768.22   42.00
  -3   4  -5   71.59   13.40
  -3   4  -5   46.60    8.90
  -3   4  -5   50.29   19.70
  -3   4  -5   48.00   11.60
   3   4   5   49.50   10.00
   3  -4   5   48.40   11.00
   3  -4   5   52.69    9.00
   3  -4   5   35.10   14.10
   3  -4   5   17.90   18.90
   3  -4   5   35.50   15.40
   3   4   6  585.34   33.80
  -3   4  -6  515.85   39.30
   3   4   6  524.05   33.90
  -3   4  -6  563.84   39.80
  -3   4  -6  598.14   40.20
  -3   4  -6  518.65   35.70
   3   4   6  553.44   36.60
   3  -4   6  571.44   47.90
   3  -4   6  594.74   52.69
   3  -4   6  583.94   42.30
   3  -4   6  584.64   47.20
   3  -4   6  581.14   36.10
  -3   4  -7   22.10   11.70
   3   4   7   28.50   11.90
   3   4   7   35.20   12.80
  -3   4  -7   35.80   10.30
  -3   4  -7   30.40   12.40
  -3   4  -7   38.70   15.10
   3   4   7   28.20   12.60
   3   4   7   27.70   10.60
   3  -4   7   54.09   27.00
   3  -4   7   -9.60   19.30
   3  -4   7   12.40   14.80
   3  -4   7   41.80    7.80
   3  -4   7   26.30   10.30
   3  -4   7   44.00   15.60
  -3   4  -8   17.20    9.90
  -3   4  -8  -28.70   16.70
   3   4   8    9.30   13.20
  -3   4  -8    2.00   11.50
   3   4   8    7.90   24.10
  -3   4  -8   -8.40   12.80
   3   4   8    6.40   15.30
   3  -4   8  -16.00   29.60
   3  -4   8    8.10   13.50
   3  -4   8   -3.80    8.40
   3  -4   8  -22.20   23.90
  -3   4  -9   -8.10   15.40
  -3   4  -9  -16.40   21.80
  -3   4  -9    4.00   11.70
  -3   4  -9    3.90   12.80
   3   4   9   22.50   14.60
   3  -4   9    4.20   37.30
   3  -4   9   13.20   13.30
   3  -4   9    8.10   11.60
  -3   5   8   64.29   25.00
   3   5  -8   30.10   18.20
   3   5  -8   61.99   16.60
   3   5  -8   72.99   20.10
   3   5  -8   63.09   19.90
  -3  -5   8   75.29   18.10
  -3  -5   8   18.30   16.40
  -3  -5   8   24.90   32.60
   3   5  -7  140.59   20.20
   3   5  -7  165.58   20.40
  -3   5   7  124.09   26.40
   3   5  -7  151.48   24.30
  -3   5   7   82.59   20.10
   3   5  -7  140.29   23.70
  -3  -5   7  126.29   19.10
  -3  -5   7  167.58   33.10
  -3  -5   7  118.29   30.30
  -3  -5   7  155.58   19.90
   3   5  -6  110.29   16.10
   3   5  -6   98.09   19.30
   3   5  -6   87.09   15.50
   3   5  -6  107.89   21.40
  -3   5   6   94.29   19.20
  -3  -5   6   73.59   14.90
  -3  -5   6  111.79   15.70
  -3  -5   6   85.49   23.40
  -3  -5   6   77.59   13.60
   3  -5  -6   80.59   16.90
   3   5  -5  262.97   22.90
   3   5  -5  237.88   27.30
  -3   5   5  277.57   25.30
   3   5  -5  284.07   28.80
   3   5  -5  268.17   22.30
  -3   5   5  205.78   20.80
  -3  -5   5  243.28   25.80
  -3  -5   5  236.38   30.70
  -3  -5   5  269.57   32.00
  -3  -5   5  263.47   22.40
   3  -5  -5  237.48   22.60
  -3  -5   5  251.87   29.00
   3   5  -4   55.89   10.60
   3   5  -4   54.79   10.70
  -3   5   4   63.99   16.50
   3   5  -4   75.99   16.50
  -3   5   4   52.59   10.00
   3   5  -4   79.49   15.90
   3   5  -4   60.39   10.30
  -3   5   4   64.39   12.20
  -3  -5   4   52.99   10.00
  -3  -5   4   76.69   18.20
  -3  -5   4   66.59   17.30
   3  -5  -4   63.39   11.30
  -3  -5   4   67.39   10.20
  -3  -5   4   59.59   10.10
   3   5  -3    9.20    6.40
  -3   5   3   -1.20    7.50
   3   5  -3   -4.80    5.60
   3   5  -3   -4.00    6.10
   3   5  -3   -8.00    8.80
   3   5  -3    8.90    9.80
  -3   5   3    0.40    7.10
  -3   5   3    0.70    7.80
  -3  -5   3    5.90   10.30
   3  -5  -3  -10.00    7.90
  -3  -5   3    8.40   11.10
  -3  -5   3    1.10    6.10
  -3   5   2   70.29    8.40
   3   5  -2   73.39    9.90
  -3   5   2   68.79   12.60
  -3   5   2   63.99   11.10
   3   5  -2   51.49   13.50
   3   5  -2   64.49   15.80
  -3  -5   2   59.89    8.80
  -3  -5   2   54.19   11.30
  -3  -5   2   69.89   12.50
   3  -5  -2   69.49   10.90
  -3   5   1  720.33   44.70
   3   5  -1  756.02   48.50
   3   5  -1  780.82   42.30
  -3   5   1  772.72   47.00
   3   5  -1  786.52   47.60
   3  -5  -1  766.32   44.60
  -3  -5   1  813.52   40.90
  -3  -5   1  690.93   40.40
  -3   5   0  384.86   26.30
  -3   5   0  451.25   30.50
   3   5   0  316.17   23.70
   3   5   0  402.96   28.60
   3   5   0  365.66   29.20
  -3   5   0  364.36   28.70
   3  -5   0  295.67   27.90
   3  -5   0  405.46   25.00
   3   5   1  516.85   33.70
   3   5   1  449.86   31.00
  -3   5  -1  509.95   31.30
  -3   5  -1  549.15   33.90
  -3   5  -1  504.95   35.30
  -3   5  -1  519.75   29.70
   3   5   1  518.35   34.80
   3  -5   1  437.96   35.40
   3  -5   1  500.95   34.50
  -3   5  -2   88.89   14.90
  -3   5  -2  111.79   13.60
  -3   5  -2   87.99   10.90
   3   5   2   88.79   12.90
  -3   5  -2  114.29   15.40
   3   5   2  102.19   12.50
   3  -5   2  104.69   14.40
   3  -5   2  115.99   20.60
   3  -5   2   94.19   16.60
   3  -5   2  113.59   10.50
   3   5   3   99.89   13.10
   3   5   3   75.99   10.80
  -3   5  -3   52.99   13.30
  -3   5  -3   73.39   13.60
  -3   5  -3  114.59   15.30
  -3   5  -3  119.49   11.90
   3  -5   3  108.39   11.20
   3  -5   3   55.49   21.40
   3  -5   3   80.99   17.10
   3  -5   3   84.99   13.40
   3  -5   3  124.39   23.40
  -3   5  -4   17.40   10.10
  -3   5  -4    4.00    6.30
  -3   5  -4    7.70   10.40
  -3   5  -4   12.60    9.40
   3   5   4    8.60    8.10
   3   5   4    1.00    6.70
   3  -5   4    9.60   14.30
   3  -5   4    8.10   11.50
   3  -5   4    4.80   10.90
   3  -5   4   18.20   12.00
   3  -5   4   -8.90   16.60
  -3   5  -5   13.60   12.80
   3   5   5    8.70    8.30
  -3   5  -5   12.50    7.50
  -3   5  -5    9.20   12.10
  -3   5  -5    4.50   10.60
   3   5   5   -0.30    7.50
   3  -5   5   16.00   13.10
   3  -5   5   54.29   22.40
   3  -5   5   -8.20   17.30
   3  -5   5   13.20   15.10
   3  -5   5   11.50    7.40
  -3   5  -6    9.60   12.10
  -3   5  -6    4.50   14.90
   3   5   6   11.50    9.60
  -3   5  -6   13.70    9.00
   3   5   6   12.20    9.50
  -3   5  -6   15.40   12.70
   3  -5   6    2.20   21.00
   3  -5   6    2.60   24.00
   3  -5   6    6.10    9.10
  -3   5  -7   63.49   17.50
  -3   5  -7   38.70   16.40
  -3   5  -7   84.79   20.60
   3   5   7   37.70   13.20
   3   5   7    6.20   14.30
  -3   5  -7   54.89   13.10
   3   5   7   19.60   11.60
   3  -5   7   42.30   12.20
   3  -5   7   42.50   34.40
   3  -5   7  120.49   29.70
   3   6  -5   46.00   17.80
  -3   6   5   50.89   12.20
   3   6  -5   31.90   22.80
   3   6  -5   41.70   13.00
  -3   6   5   15.80   15.80
   3   6  -5   14.90   12.70
  -3  -6   5   -2.30   21.30
  -3  -6   5   74.69   20.70
   3   6  -4   82.79   20.30
   3   6  -4   83.49   13.60
  -3   6   4   44.40   15.30
   3   6  -4  100.89   21.50
  -3   6   4   90.29   15.40
  -3   6   4   91.79   12.10
  -3  -6   4   92.89   21.20
  -3  -6   4   85.99   21.30
  -3  -6   4   92.69   13.00
  -3   6   3  178.68   24.30
   3   6  -3  188.28   26.20
   3   6  -3  180.58   25.00
   3   6  -3  207.38   20.00
  -3   6   3  210.98   16.70
  -3  -6   3  226.58   25.50
   3   6  -2   42.10   15.10
   3   6  -2   36.90    9.70
  -3   6   2   15.10   12.70
   3   6  -2   33.80   15.80
  -3  -6   2   31.80   10.30
  -3  -6   2   38.80    9.70
   3   6  -1  154.98   21.80
   3   6  -1  201.38   26.10
   3   6  -1  198.88   17.90
  -3   6   1  181.38   23.90
   3  -6  -1  190.58   18.30
   3  -6  -1  205.48   17.50
   3   6   0    8.40   11.70
  -3   6   0   -2.70    9.80
   3   6   0  -15.40   11.50
  -3   6   0   -1.20   11.50
   3   6   0   -2.40    7.90
   3  -6   0    9.90   11.90
  -3   6  -1    2.00   11.50
   3   6   1   17.80   11.30
   3   6   1   12.20   12.50
   3   6   1    9.10    9.10
  -3   6  -1    5.30   11.00
   3  -6   1   10.50   16.10
   3  -6   1   29.60   11.90
   3  -6   1   27.20   16.60
   3   6   2   -8.90    9.80
  -3   6  -2    9.40   12.60
   3   6   2  -31.00   12.90
   3  -6   2   -3.30   17.60
   3  -6   2    5.90   13.90
   3  -6   2  -18.50   15.30
  -3   6  -3  189.28   17.60
   3   6   3  145.79   19.80
  -3   6  -3  199.98   24.90
  -3   6  -3  206.98   25.70
  -3   6  -3  199.18   25.70
   3  -6   3  286.07   34.30
   3  -6   3  151.48   24.50
   3  -6   3  250.87   29.20
   3  -6   3  178.88   17.00
  -3   6  -4    9.70   14.90
  -3   6  -4   -9.90   13.30
  -3   6  -4  -13.20   14.50
  -3   6  -4    6.30    8.40
   3   6   4    6.00    9.30
   3   6   4   -0.20   12.20
   3  -6   4    2.30   25.80
   3  -6   4    8.00    7.70
   3  -6   4   16.10   19.90
   3  -6   4  -14.10   17.40
  -3   6  -5  206.88   21.40
  -3   6  -5  196.38   25.10
  -3   6  -5  185.38   26.10
  -3   6  -5  172.38   25.40
   3   6   5  188.78   22.20
   3   6   5  211.18   24.50
   3  -6   5  184.78   40.40
   3  -6   5  206.18   20.30
  -4   0  11   -3.60   13.30
   4   0 -11  -21.90   34.10
  -4   0  11   10.30   27.20
   4   0 -11    0.90   12.20
  -4   0  11    8.60   14.00
  -4   0  11   -2.20   11.50
   4   0 -11   -1.10   13.60
  -4   0  10  320.07   26.60
   4   0 -10  326.67   35.70
  -4   0  10  325.57   29.30
   4   0 -10  313.67   46.70
   4   0 -10  286.67   26.80
  -4   0  10  269.57   38.50
  -4   0  10  266.27   28.70
   4   0 -10  298.17   30.90
  -4   0   9    3.60    8.80
   4   0  -9   -7.40    8.30
  -4   0   9    0.90    7.70
   4   0  -9   -4.20    8.10
   4   0  -9  -22.80   11.20
  -4   0   9  -12.50   16.90
   4   0  -9   18.00   18.10
  -4   0   9    2.10    7.40
   4   0  -8 1208.08   70.59
  -4   0   8 1237.08   77.79
   4   0  -8 1237.68   67.39
   4   0  -8 1193.08   67.29
  -4   0   8 1177.48   65.79
  -4   0   8 1273.47   70.29
   4   0  -8 1206.58   81.29
  -4   0   8 1191.08   67.99
  -4   0   7   -0.80    4.50
   4   0  -7    0.90    6.00
  -4   0   7    6.20    5.20
   4   0  -7    6.00    7.10
  -4   0   7    4.90    5.10
   4   0  -7   -1.30    5.00
   4   0  -7   -2.00    5.20
  -4   0   7    2.20    9.40
   4   0  -7  -20.60   10.80
   4   0  -6   -0.30    4.40
   4   0  -6  -13.80    8.30
  -4   0   6    2.40    3.70
  -4   0   6    1.90    4.50
   4   0  -6    5.40    6.10
  -4   0   6    2.70    9.10
   4   0  -6    3.40    4.30
  -4   0   6    4.70    4.20
   4   0  -6    2.20    4.90
  -4   0   6   -2.00    4.20
   4   0  -5    0.90    4.20
   4   0  -5   -3.60    3.30
   4   0  -5    4.80    7.50
  -4   0   5    3.90    5.80
   4   0  -5   -4.60    4.70
  -4   0   5   -0.10    3.10
  -4   0   5   -9.30    3.00
  -4   0   5    1.00    3.50
  -4   0   5    2.30    2.90
   4   0  -5    2.50    3.10
   4   0  -4 1835.52   95.09
   4   0  -4 1862.71  101.19
   4   0  -4 1863.61   93.79
  -4   0   4 1959.30   99.99
  -4   0   4 1886.91   94.29
   4   0  -4 1855.31   95.49
  -4   0   4 1832.72   92.69
   4   0  -4 1790.82   93.69
   4   0  -4 1880.91   95.49
  -4   0   4 1863.21   94.89
  -4   0   4 1862.21   94.09
   4   0  -3    0.20    2.20
  -4   0   3   -0.40    4.50
   4   0  -3   -3.70    2.10
  -4   0   3   -1.20    2.30
   4   0  -3    0.40    2.60
  -4   0   3    1.10    2.10
  -4   0   3    1.60    2.60
   4   0  -3   -7.60    4.40
   4   0  -3    3.20    3.80
   4   0  -3    3.00    2.80
   4   0  -2 3338.47  162.18
   4   0  -2 3271.87  164.78
   4   0  -2 3255.87  159.58
   4   0  -2 3335.37  160.08
  -4   0   2 3349.17  163.98
  -4   0   2 3217.08  159.78
   4   0  -2 3196.08  160.48
  -4   0   2 3306.57  160.28
  -4   0   2 3197.28  159.78
   4   0  -2 3270.27  160.68
  -4   0   1   -0.50    1.60
   4   0  -1    1.50    2.00
  -4   0   1    1.10    3.30
   4   0  -1   -1.50    1.40
  -4   0   1    0.50    1.40
   4   0  -1    1.40    3.90
   4   0  -1    1.80    1.70
  -4   0   1   -2.20    2.70
  -4   0   1    0.00    1.50
   4   0  -1    3.30    3.50
  -4   0   0 9362.06  459.25
  -4   0   0 9451.85  457.25
  -4   0   0 9474.95  457.75
   4   0   0 9593.24  459.15
  -4   0   0 9526.25  461.95
   4   0   0 9780.22  457.15
   4   0   0 9415.46  457.25
   4   0   0 9465.45  457.55
   4   0   0 9549.14  461.55
  -4   0   0 9246.58  457.25
   4   0   1    1.60    1.50
  -4   0  -1    1.80    1.70
   4   0   1   -0.20    1.40
  -4   0  -1   -0.10    1.40
   4   0   1    0.20    1.70
   4   0   1   -3.50    2.50
   4   0   1    1.80    3.70
  -4   0  -1    1.60    3.10
  -4   0  -1    0.70    1.70
  -4   0  -1    2.90    4.10
   4   0   2  847.82   43.80
  -4   0  -2  854.31   48.10
  -4   0  -2  838.22   44.00
  -4   0  -2  831.92   44.40
   4   0   2  829.32   43.60
   4   0   2  856.71   44.40
  -4   0  -2  846.42   43.70
   4   0   2  872.61   44.50
   4   0   2  853.01   47.50
  -4   0  -3    0.40    2.40
  -4   0  -3    2.70    5.60
   4   0   3   -1.00    2.00
   4   0   3    1.60    5.00
   4   0   3   -0.40    3.40
   4   0   3   -1.40    1.70
   4   0   3   -0.80    2.70
  -4   0  -3    2.80    2.30
   4   0   4 1631.74   84.09
  -4   0  -4 1646.74   85.09
   4   0   4 1705.73   87.19
  -4   0  -4 1598.24   90.89
   4   0   4 1707.13   89.79
   4   0   4 1671.93   85.69
  -4   0  -5   -2.30    2.80
   4   0   5   -2.10    6.30
   4   0   5    2.80    3.10
   4   0   5    6.70    5.30
  -4   0  -5    5.10    4.00
  -4   0  -5    2.80    8.30
  -4   0  -6 1201.28   65.79
   4   0   6 1175.18   66.79
   4   0   6 1143.69   66.89
  -4   0  -6 1186.28   64.39
   4   0   6 1268.27   64.59
   4   0   6 1232.58   72.09
   4   0   7    3.90    4.70
  -4   0  -7    6.30    5.40
   4   0   7   11.00   13.50
   4   0   7  -17.20    6.40
   4   0   7   30.30   13.40
   4   0   7    0.30   12.50
   4   0   8  207.78   23.00
   4   0   8  227.28   20.20
   4   0   8  244.68   34.70
  -4   0  -8  216.78   20.10
   4   0   8  355.36   35.70
   4   0   8  208.78   23.70
   4   0   9   23.10   19.70
   4   0   9    8.60   21.50
   4   0   9   -3.40   12.50
   4   0   9   -2.70    7.50
   4   0   9   -5.20   12.00
  -4   0  -9    1.00   11.70
  -4   0  -9    8.10    7.90
   4   0  10   -5.40   25.30
   4   0  10  -12.00   26.00
   4   0  10   27.60   17.60
   4   0  10  -26.80   14.50
  -4   0 -10   21.30   10.80
   4   0  10   21.70   10.50
   4   0  11  -46.50   33.20
  -4   0 -11   11.50   13.10
   4   0  11   15.40   22.40
   4   0  11    9.40   33.60
   4   0  11  -26.00   11.90
  -4   1  11   40.10   13.20
   4   1 -11   21.30   13.70
   4   1 -11   -6.30   19.20
   4   1 -11   17.40   15.30
  -4   1  11   45.60   26.80
   4  -1 -11   43.50   44.40
   4  -1 -11   39.80   16.40
  -4  -1  11   50.79   16.00
  -4  -1  11   27.60   34.10
  -4  -1  11   53.89   17.90
  -4   1  10   -1.60   18.50
  -4   1  10   -6.30    9.10
   4   1 -10   -5.30   10.40
  -4   1  10    2.20   10.20
  -4   1  10    5.60    9.70
   4   1 -10   13.80   27.70
   4   1 -10   20.60   13.60
   4   1 -10   -5.20   11.30
  -4  -1  10   -2.60   13.90
  -4  -1  10   12.20   10.90
   4  -1 -10  -16.30    8.30
   4  -1 -10   -1.50   24.90
   4  -1 -10   -1.00   10.70
  -4  -1  10    9.90   12.20
  -4  -1  10  -25.20   24.40
  -4  -1  10   -6.80   11.60
  -4   1   9   14.20    8.70
   4   1  -9    3.10   19.10
  -4   1   9   13.10   14.30
  -4   1   9    2.90   10.90
   4   1  -9   12.10    9.60
   4   1  -9   20.10   10.50
   4   1  -9    1.50    9.80
  -4   1   9    7.70    7.20
  -4   1   9   19.00    8.50
  -4  -1   9   -6.30   18.00
  -4  -1   9    0.70    8.90
   4  -1  -9    8.40   17.80
   4  -1  -9    1.80    9.00
  -4  -1   9   11.10    9.00
  -4  -1   9    9.30    9.40
   4  -1  -9   10.60    7.30
   4  -1  -9    1.60    8.60
  -4   1   8  117.79   14.70
  -4   1   8  116.59   16.80
   4   1  -8  157.18   18.90
   4   1  -8   95.99   25.40
  -4   1   8   84.59   12.00
   4   1  -8  114.39   17.20
   4   1  -8  124.69   16.60
  -4   1   8  108.19   20.90
   4  -1  -8  103.59   12.80
  -4  -1   8  137.19   17.50
  -4  -1   8  150.38   18.60
  -4  -1   8  109.49   17.80
   4  -1  -8  132.79   24.10
  -4  -1   8  132.19   27.10
   4  -1  -8   97.59   15.90
  -4  -1   8  127.19   15.50
  -4   1   7  421.86   30.00
  -4   1   7  407.86   25.60
   4   1  -7  424.06   30.30
  -4   1   7  411.66   29.60
  -4   1   7  438.86   35.70
   4   1  -7  433.26   29.60
   4   1  -7  437.56   31.70
  -4   1   7  441.26   28.70
   4   1  -7  444.36   40.50
  -4  -1   7  464.85   29.30
  -4  -1   7  433.06   30.70
   4  -1  -7  433.86   30.80
  -4  -1   7  444.56   28.90
   4  -1  -7  475.75   40.00
  -4  -1   7  403.56   38.00
  -4  -1   7  441.96   30.00
   4  -1  -7  454.65   27.00
  -4   1   6  900.01   49.30
  -4   1   6  979.40   52.39
   4   1  -6  994.90   63.79
  -4   1   6  983.00   59.09
   4   1  -6  963.90   55.39
   4   1  -6  943.21   53.99
  -4   1   6  948.91   53.49
  -4   1   6  924.21   53.29
   4  -1  -6 1040.40   62.79
   4  -1  -6  955.50   53.39
  -4  -1   6 1010.10   54.99
  -4  -1   6  947.51   52.59
  -4  -1   6  925.91   52.29
   4  -1  -6  914.61   51.69
   4  -1  -6  956.70   54.49
  -4  -1   6  992.70   53.69
  -4  -1   6  883.21   60.29
  -4   1   5 1000.20   55.99
   4   1  -5 1035.20   55.69
  -4   1   5 1000.80   60.69
  -4   1   5 1005.80   54.99
   4   1  -5  970.60   56.59
   4   1  -5 1088.59   57.09
   4   1  -5 1044.00   57.79
   4   1  -5  981.30   69.39
  -4   1   5  987.50   55.89
  -4  -1   5 1027.80   55.99
   4  -1  -5 1137.29   64.39
  -4  -1   5 1114.79   57.49
  -4  -1   5 1050.19   55.39
   4  -1  -5 1055.69   54.89
  -4  -1   5 1035.80   55.49
   4  -1  -5  999.80   56.79
  -4  -1   5 1066.79   62.89
   4  -1  -5 1039.90   56.69
   4   1  -4  781.42   50.69
  -4   1   4  793.02   44.20
   4   1  -4  862.41   45.40
   4   1  -4  792.62   43.80
  -4   1   4  848.02   43.70
   4   1  -4  778.22   45.30
  -4   1   4  839.12   48.60
   4   1  -4  832.02   45.20
  -4   1   4  804.22   44.10
   4  -1  -4  809.52   45.30
   4  -1  -4  799.12   43.30
   4  -1  -4  800.22   49.90
  -4  -1   4  864.11   45.40
  -4  -1   4  780.42   43.70
  -4  -1   4  827.52   49.50
  -4  -1   4  823.42   44.30
   4  -1  -4  812.72   44.80
  -4  -1   4  780.72   43.40
   4   1  -3  330.37   25.10
   4   1  -3  332.27   19.70
  -4   1   3  328.87   19.30
   4   1  -3  357.06   20.90
   4   1  -3  326.57   20.70
  -4   1   3  321.67   19.80
   4   1  -3  324.27   20.60
  -4   1   3  337.57   19.80
  -4   1   3  335.37   23.50
   4  -1  -3  311.47   19.10
   4  -1  -3  345.07   20.30
   4  -1  -3  292.47   23.70
  -4  -1   3  311.77   23.80
   4  -1  -3  280.47   20.80
  -4  -1   3  324.97   19.70
   4  -1  -3  324.17   20.60
  -4  -1   3  337.47   19.50
  -4  -1   3  325.27   19.80
  -4  -1   3  320.27   20.30
  -4   1   2  167.18   15.20
  -4   1   2  192.48   12.20
   4   1  -2  186.88   13.40
   4   1  -2  186.18   16.30
  -4   1   2  198.68   12.60
   4   1  -2  189.18   12.90
  -4   1   2  170.48   11.70
  -4   1   2  175.48   15.30
   4   1  -2  173.08   12.00
  -4  -1   2  183.68   12.10
   4  -1  -2  193.68   12.20
   4  -1  -2  170.18   13.90
  -4  -1   2  196.38   12.70
   4  -1  -2  179.68   12.70
   4  -1  -2  196.48   16.80
   4  -1  -2  206.18   12.90
  -4  -1   2  190.68   15.70
  -4  -1   2  188.18   12.10
  -4   1   1   48.40    5.60
  -4   1   1   53.09    7.70
   4   1  -1   60.29    5.30
   4   1  -1   61.19    9.20
   4   1  -1   57.99    5.80
   4   1  -1   41.30    5.80
  -4   1   1   52.49    4.80
  -4   1   1   31.00    7.40
  -4   1   1   40.60    5.40
   4  -1  -1   59.19    7.40
   4  -1  -1   71.19    6.60
   4  -1  -1   48.10    5.40
  -4  -1   1   53.19    4.90
  -4  -1   1   46.70    6.50
   4  -1  -1   55.99   10.40
  -4  -1   1   68.19   11.60
   4  -1  -1   61.59    5.70
  -4  -1   1   57.09    5.30
   4   1   0  761.42   42.30
   4   1   0  809.32   42.90
   4   1   0  820.32   43.20
  -4   1   0  673.73   41.80
   4   1   0  847.52   45.90
  -4   1   0  827.22   43.50
   4   1   0  814.82   42.00
  -4   1   0  784.62   43.10
  -4   1   0  764.62   46.50
  -4   1   0  815.12   41.70
   4  -1   0  749.23   42.40
  -4  -1   0  945.61   42.40
   4  -1   0  812.12   41.50
  -4  -1   0  872.21   42.30
   4  -1   0  898.01   43.00
   4  -1   0  862.31   44.10
   4   1   1 2435.26  132.29
   4   1   1 2685.03  132.79
   4   1   1 2624.74  133.29
   4   1   1 2520.85  132.49
  -4   1  -1 2717.33  132.79
  -4   1  -1 2809.62  131.99
  -4   1  -1 2757.32  133.09
  -4   1  -1 2772.22  137.69
  -4   1  -1 2597.74  133.79
  -4  -1  -1 2776.22  133.09
  -4  -1  -1 2739.63  133.49
   4  -1   1 2759.72  134.39
   4  -1   1 2743.73  137.69
   4  -1   1 2656.83  132.39
   4  -1   1 2680.03  133.99
   4  -1   1 2691.63  133.29
  -4  -1  -1 2945.71  136.69
  -4  -1  -1 2821.72  132.39
   4   1   2 2271.87  109.69
   4   1   2 2266.77  110.09
  -4   1  -2 2228.38  110.29
  -4   1  -2 2193.88  110.99
  -4   1  -2 2257.27  115.29
  -4   1  -2 2237.68  110.49
   4   1   2 2208.88  112.39
   4   1   2 2238.88  109.09
   4  -1   2 2194.68  111.79
   4  -1   2 2202.88  108.59
   4  -1   2 2136.39  111.09
   4  -1   2 2224.28  109.79
  -4  -1  -2 2178.48  109.29
  -4  -1  -2 2331.27  109.29
   4  -1   2 2165.58  110.69
  -4  -1  -2 2180.58  112.89
   4   1   3 1697.03   87.79
   4   1   3 1748.82   83.69
  -4   1  -3 1617.94   86.89
   4   1   3 1629.64   84.49
  -4   1  -3 1553.24   90.29
   4   1   3 1766.12   85.19
  -4   1  -3 1673.63   85.39
  -4   1  -3 1774.92   85.19
   4  -1   3 1677.13   85.69
   4  -1   3 1684.43   85.89
  -4  -1  -3 1591.44   88.29
  -4  -1  -3 1770.62   83.89
   4  -1   3 1633.64   90.79
  -4  -1  -3 1597.24   84.09
   4  -1   3 1644.84   86.79
   4  -1   3 1716.23   83.59
   4  -1   3 1687.53   84.59
  -4   1  -4  715.63   39.00
  -4   1  -4  714.93   39.80
  -4   1  -4  630.24   44.80
  -4   1  -4  677.43   40.60
   4   1   4  684.73   37.50
   4   1   4  703.13   42.40
   4   1   4  692.13   39.00
  -4   1  -4  731.33   38.80
   4  -1   4  688.43   38.50
   4  -1   4  710.53   44.70
  -4  -1  -4  737.93   37.90
  -4  -1  -4  724.23   38.70
   4  -1   4  713.13   40.40
   4  -1   4  688.33   40.80
   4  -1   4  656.23   39.00
  -4   1  -5  127.89   20.90
   4   1   5  101.49   12.90
   4   1   5  102.49    9.40
  -4   1  -5   90.79   10.00
   4   1   5   98.39   14.70
  -4   1  -5  115.69   11.80
  -4   1  -5  105.99   12.10
  -4   1  -5   99.29    9.90
  -4  -1  -5   81.89   12.20
  -4  -1  -5  101.09    9.40
   4  -1   5   79.89    9.60
   4  -1   5   86.49   11.30
   4  -1   5   59.39   13.30
   4  -1   5   80.59   13.50
  -4   1  -6   17.70    5.90
   4   1   6   16.40    9.30
   4   1   6   28.50    8.50
   4   1   6   14.30    7.00
   4   1   6   29.40   11.60
  -4   1  -6   18.70    6.70
  -4   1  -6   28.50    9.20
   4   1   6   19.10    5.60
   4  -1   6   15.30   11.90
  -4  -1  -6   26.60    6.30
   4  -1   6   10.70    6.90
   4  -1   6   15.70    5.70
   4  -1   6   28.80    8.30
  -4  -1  -6   28.20    7.50
   4   1   7   84.49   11.50
  -4   1  -7  125.59   15.70
  -4   1  -7  120.39   17.00
   4   1   7  103.99   18.30
   4   1   7   82.79   19.00
   4   1   7   51.99   11.40
   4   1   7   82.99   14.00
  -4  -1  -7   51.39   13.80
  -4  -1  -7  102.79   11.40
   4  -1   7   61.59   13.80
   4  -1   7   91.09   20.30
   4  -1   7   85.09   21.40
   4  -1   7   62.39   11.00
   4  -1   7   86.49   14.90
   4   1   8   96.89   13.30
  -4   1  -8  112.59   17.80
   4   1   8  110.89   16.50
   4   1   8  110.29   22.30
   4   1   8   81.49   25.20
   4   1   8   84.79   15.70
  -4   1  -8  133.99   17.20
   4  -1   8  103.99   14.40
  -4  -1  -8   99.29   15.10
   4  -1   8  108.09   23.80
   4  -1   8   72.89   16.50
   4  -1   8   94.79   24.10
   4  -1   8   66.49   14.50
  -4  -1  -8  114.79   14.70
   4   1   9  152.38   29.30
   4   1   9  162.78   22.60
  -4   1  -9  200.38   26.70
   4   1   9  213.28   32.20
   4   1   9  194.68   24.10
   4   1   9  194.08   19.50
  -4   1  -9  150.58   19.50
  -4  -1  -9  177.38   18.80
   4  -1   9  162.08   34.10
   4  -1   9  151.78   30.80
  -4  -1  -9  179.28   22.40
   4  -1   9  164.18   22.70
   4  -1   9  170.48   19.90
   4  -1   9  135.79   22.20
   4   1  10   48.60   12.30
   4   1  10   46.40   16.90
  -4   1 -10   71.19   15.00
   4   1  10   63.69   19.30
   4   1  10   58.69   43.90
   4   1  10   52.19   26.20
   4  -1  10    5.50   30.70
   4  -1  10   67.09   20.20
  -4  -1 -10   53.69   13.00
   4  -1  10   63.89   13.90
   4  -1  10   73.39   30.40
   4   1  11  -17.40   47.70
   4   1  11   38.60   14.00
  -4   1 -11   43.00   15.00
   4   1  11   29.80   23.60
   4   1  11   60.29   33.30
   4  -1  11   89.79   45.40
   4  -1  11   45.40   15.90
   4  -1  11   64.09   37.80
   4   2 -11  150.38   24.70
  -4   2  11  125.59   20.80
  -4   2  11  140.29   20.40
  -4  -2  11   76.19   55.59
  -4  -2  11  130.89   22.60
   4  -2 -11  110.29   22.60
   4   2 -10  -24.30   30.00
   4   2 -10   12.00   13.70
   4   2 -10   10.90   15.40
  -4   2  10   16.00   22.40
  -4   2  10  -10.10   10.30
   4   2 -10    0.90   13.40
  -4   2  10   11.50   10.80
   4  -2 -10    1.90   12.00
  -4  -2  10    1.80   11.70
  -4  -2  10  -38.50   27.40
  -4  -2  10    9.30   14.80
  -4  -2  10    0.80   15.20
   4   2  -9  230.58   25.40
  -4   2   9  195.08   29.30
   4   2  -9  258.97   43.30
   4   2  -9  218.88   25.00
   4   2  -9  249.18   25.80
  -4   2   9  218.68   23.00
  -4   2   9  193.78   20.90
  -4   2   9  196.98   26.40
  -4  -2   9  244.68   30.90
   4  -2  -9  216.28   21.70
  -4  -2   9  189.78   23.00
   4  -2  -9  209.08   24.10
   4  -2  -9  172.78   33.10
  -4  -2   9  317.27   42.80
  -4  -2   9  225.68   24.80
  -4   2   8   -0.70   11.80
  -4   2   8   -4.60    6.10
  -4   2   8   -6.50    9.10
   4   2  -8    2.60    8.50
   4   2  -8   12.40    8.40
   4   2  -8   -0.20    8.90
  -4   2   8    4.20    6.70
   4   2  -8   17.30   17.60
   4  -2  -8   11.30    7.40
  -4  -2   8  -16.60   15.00
  -4  -2   8    1.40    7.40
   4  -2  -8  -12.40   14.40
   4  -2  -8    2.90    8.00
  -4  -2   8   -4.00    8.00
  -4  -2   8   -5.70    8.40
  -4  -2   8   -1.60    7.60
   4   2  -7  298.67   25.40
   4   2  -7  369.66   36.60
   4   2  -7  289.57   25.20
  -4   2   7  310.97   21.80
  -4   2   7  290.47   24.80
  -4   2   7  301.27   23.30
   4   2  -7  299.97   23.70
  -4  -2   7  266.47   34.50
   4  -2  -7  277.07   23.80
   4  -2  -7  306.87   32.40
  -4  -2   7  305.27   23.90
  -4  -2   7  309.17   24.60
  -4  -2   7  307.17   22.10
  -4  -2   7  274.97   23.30
  -4   2   6   16.70    6.40
   4   2  -6    5.90    9.80
   4   2  -6    8.00    6.40
  -4   2   6    3.00    4.40
   4   2  -6    4.90    5.40
  -4   2   6    6.10    6.50
   4   2  -6    9.70    6.70
  -4   2   6   12.00   11.00
  -4  -2   6    1.10    5.20
  -4  -2   6    6.30    5.90
   4  -2  -6    7.60   10.40
   4  -2  -6    4.90    5.00
  -4  -2   6    2.10    5.40
   4  -2  -6    5.10    6.80
  -4  -2   6    2.90   10.90
  -4  -2   6   11.50    4.90
  -4   2   5   16.20    5.90
  -4   2   5    1.60    6.60
   4   2  -5   34.40    7.00
   4   2  -5   12.00    6.80
  -4   2   5   22.10    8.70
  -4   2   5   19.50    6.30
  -4   2   5   17.80    4.70
   4   2  -5   23.90   11.00
   4   2  -5   25.20    7.30
   4   2  -5   33.10    7.80
  -4  -2   5   23.70    6.80
   4  -2  -5   16.90    4.50
   4  -2  -5   15.20    6.20
   4  -2  -5   11.70    5.50
   4  -2  -5   17.30   10.00
  -4  -2   5   24.70   10.80
  -4  -2   5   28.80    6.90
  -4  -2   5   21.40    5.50
  -4  -2   5   22.10    6.10
  -4   2   4   24.00    7.90
   4   2  -4   18.60    5.60
   4   2  -4   12.20    5.40
  -4   2   4   15.20    3.90
   4   2  -4    0.40    7.30
   4   2  -4   14.00    5.00
  -4   2   4   14.50    6.40
   4   2  -4   12.20    4.60
  -4   2   4   15.60    4.70
  -4   2   4   11.70    4.90
   4  -2  -4   13.20    4.80
   4  -2  -4   15.70    3.90
  -4  -2   4   17.00    4.40
   4  -2  -4   13.50    5.20
  -4  -2   4   17.50    4.90
   4  -2  -4   16.30    8.00
  -4  -2   4   15.30    5.20
  -4  -2   4   14.70    8.00
  -4   2   3 2214.28  112.09
  -4   2   3 2229.18  109.39
   4   2  -3 2149.88  116.39
   4   2  -3 2168.68  111.89
   4   2  -3 2144.39  109.39
   4   2  -3 2265.87  110.59
   4   2  -3 2172.08  111.09
  -4   2   3 2215.98  108.69
  -4   2   3 2204.98  113.39
  -4   2   3 2136.49  109.49
   4  -2  -3 2202.08  108.99
   4  -2  -3 2177.58  114.49
   4  -2  -3 2207.98  109.79
   4  -2  -3 2244.18  111.09
  -4  -2   3 2198.18  110.69
  -4  -2   3 2210.68  109.19
  -4  -2   3 2190.78  110.69
  -4  -2   3 2145.89  109.59
   4   2  -2  429.16   24.70
   4   2  -2  434.76   25.80
   4   2  -2  376.06   27.80
  -4   2   2  476.95   24.30
  -4   2   2  401.96   23.20
   4   2  -2  456.45   25.10
   4   2  -2  393.66   23.30
  -4   2   2  409.86   25.40
  -4   2   2  409.86   23.70
  -4  -2   2  393.86   24.10
  -4  -2   2  367.36   24.20
   4  -2  -2  412.46   25.40
   4  -2  -2  449.26   29.20
  -4  -2   2  417.96   23.50
  -4  -2   2  453.75   28.10
   4  -2  -2  433.26   24.10
   4  -2  -2  383.06   24.20
  -4   2   1 4075.69  192.38
  -4   2   1 4004.80  193.98
  -4   2   1 4210.68  196.08
   4   2  -1 4139.99  197.68
   4   2  -1 4076.69  195.58
  -4   2   1 3541.05  198.38
   4   2  -1 3544.55  194.08
   4   2  -1 4082.99  193.88
  -4   2   1 3803.82  194.28
  -4  -2   1 4124.49  193.68
   4  -2  -1 4188.88  196.28
  -4  -2   1 4125.69  192.88
  -4  -2   1 4247.48  196.68
  -4  -2   1 4128.79  194.78
   4  -2  -1 3295.77  193.58
  -4   2   0  245.68   15.90
  -4   2   0  266.07   17.50
   4   2   0  256.37   14.70
   4   2   0  191.28   15.50
  -4   2   0  253.07   15.30
   4   2   0  227.38   17.10
   4   2   0  242.48   14.70
  -4   2   0  257.77   19.70
   4  -2   0  238.68   13.80
  -4  -2   0  210.98   17.40
  -4  -2   0  260.37   14.40
   4  -2   0  240.28   15.40
   4  -2   0  266.07   15.70
   4  -2   0  208.08   19.20
  -4  -2   0  264.67   16.20
  -4  -2   0  251.27   14.70
   4  -2   0  230.08   15.50
   4  -2   0  247.18   17.40
  -4   2  -1  276.67   17.70
  -4   2  -1  271.87   16.80
  -4   2  -1  285.17   21.40
  -4   2  -1  282.27   18.70
   4   2   1  276.87   16.80
   4   2   1  239.58   15.50
   4   2   1  281.37   19.00
  -4   2  -1  278.87   16.70
   4  -2   1  253.67   17.10
   4  -2   1  266.47   16.20
  -4  -2  -1  275.57   15.30
  -4  -2  -1  277.37   17.50
   4  -2   1  284.97   20.90
  -4  -2  -1  317.77   19.40
   4  -2   1  253.17   17.60
   4  -2   1  246.38   18.50
   4   2   2   11.90    5.40
  -4   2  -2   11.20    4.40
   4   2   2    3.90    2.70
   4   2   2    9.00    2.80
  -4   2  -2    6.20    3.90
  -4   2  -2   10.80    6.70
  -4   2  -2    9.10    3.30
  -4   2  -2   10.00    3.80
   4   2   2    7.30    3.20
   4  -2   2   10.50    4.00
   4  -2   2    9.00    2.20
  -4  -2  -2   11.00    4.90
   4  -2   2    4.80    3.00
   4  -2   2    8.50    4.00
  -4  -2  -2    6.70    2.50
   4  -2   2    5.60    5.90
   4  -2   2    0.70    4.60
  -4  -2  -2    9.10    3.00
  -4   2  -3  181.58   14.20
   4   2   3  140.79   13.20
  -4   2  -3  154.98   12.00
  -4   2  -3  160.78   17.40
  -4   2  -3  141.09   12.80
   4   2   3  144.49    9.80
  -4   2  -3  151.48   12.90
   4   2   3  155.48   12.30
   4   2   3  165.18   11.40
   4  -2   3  145.09   14.00
  -4  -2  -3  157.48   10.20
   4  -2   3  157.68   13.50
   4  -2   3  146.79    9.50
   4  -2   3  146.69   17.10
  -4  -2  -3  151.78   10.80
   4  -2   3  157.28   11.80
  -4  -2  -3  111.09   13.50
   4  -2   3  152.18   14.00
   4   2   4    6.50    6.30
   4   2   4    2.50    3.60
  -4   2  -4    5.90    4.30
  -4   2  -4    8.10    4.60
  -4   2  -4   10.80    4.60
  -4   2  -4    1.20    9.00
   4   2   4    5.10    2.80
  -4   2  -4    2.30    4.40
  -4  -2  -4    7.90    3.00
  -4  -2  -4    8.80    7.30
  -4  -2  -4    3.70    3.70
   4  -2   4    6.10    8.30
   4  -2   4    4.70    6.40
   4  -2   4    9.00    3.30
   4  -2   4    7.80    3.80
   4  -2   4    9.70    8.90
   4  -2   4    9.80    5.60
  -4   2  -5  576.14   43.90
   4   2   5  596.84   35.20
   4   2   5  611.44   40.50
   4   2   5  578.84   38.00
   4   2   5  592.04   32.90
  -4   2  -5  563.34   35.50
  -4   2  -5  596.64   35.40
  -4   2  -5  608.14   38.00
  -4   2  -5  642.04   37.40
   4  -2   5  617.54   43.10
   4  -2   5  557.14   37.80
   4  -2   5  603.94   35.20
  -4  -2  -5  606.04   32.90
   4   2   6   -0.20    6.00
  -4   2  -6   -7.10    6.90
  -4   2  -6    1.50    5.80
   4   2   6  -10.10    9.20
   4   2   6   18.20    8.50
   4   2   6   -7.60    8.80
  -4   2  -6   -1.70    4.30
   4   2   6    3.00    4.30
  -4   2  -6   -0.10    5.20
   4  -2   6   -4.10    4.70
   4  -2   6    1.50   11.70
   4  -2   6    5.30    7.20
  -4  -2  -6   -1.10    3.70
  -4  -2  -6    6.30    6.30
  -4   2  -7 1076.19   60.59
   4   2   7 1051.39   57.19
  -4   2  -7 1025.50   59.09
   4   2   7  997.90   61.09
  -4   2  -7 1063.59   66.09
   4   2   7 1029.50   67.49
  -4   2  -7 1089.89   62.79
   4   2   7 1096.89   60.69
   4   2   7 1057.49   64.89
   4  -2   7 1037.10   74.29
  -4  -2  -7 1120.29   57.39
   4  -2   7 1059.19   69.89
   4  -2   7 1010.80   63.19
   4  -2   7 1070.89   59.79
  -4   2  -8   13.30    7.80
   4   2   8   15.60    6.80
   4   2   8    7.50   10.50
   4   2   8   20.60   16.10
   4   2   8   16.00   10.50
   4   2   8   18.80   15.60
  -4   2  -8    8.40    7.40
  -4   2  -8   19.10    9.40
  -4   2  -8    5.80   11.50
   4  -2   8   -6.60   18.40
   4  -2   8   20.20   15.30
   4  -2   8   21.60    8.50
  -4  -2  -8   12.50   10.60
  -4  -2  -8   13.50    6.90
   4  -2   8   14.90   22.20
   4  -2   8   11.90   11.40
   4   2   9   60.39   15.60
  -4   2  -9   79.29   15.70
   4   2   9   79.89   16.80
   4   2   9   74.79   12.40
  -4   2  -9   87.79   14.50
   4   2   9   49.99   21.20
  -4   2  -9   63.39   12.10
   4   2   9   75.79   22.60
  -4   2  -9   61.29   18.80
  -4  -2  -9   74.79   12.10
   4  -2   9   65.59   13.10
   4  -2   9   56.09   24.00
   4  -2   9   39.50   17.60
  -4  -2  -9   75.79   15.90
   4  -2   9   61.19   27.30
   4  -2   9  109.89   34.80
  -4   2 -10   16.30   12.90
   4   2  10   -0.30    9.70
   4   2  10   38.60   25.80
   4   2  10   10.60   15.30
   4   2  10   20.60   25.70
  -4   2 -10   14.10   11.00
   4   2  10   20.50   17.50
  -4  -2 -10   -5.40    9.90
   4  -2  10    7.50   30.80
   4  -2  10   14.10   12.30
   4   3 -10   -1.00   17.60
   4   3 -10  -24.40   20.30
  -4   3  10    0.60   13.30
  -4   3  10   -7.50   11.60
   4   3 -10   -9.80   15.60
  -4  -3  10   53.69   33.80
   4  -3 -10   -6.00   13.70
  -4  -3  10  -19.20   32.00
  -4  -3  10    8.70   13.80
  -4   3   9  -29.00   16.20
  -4   3   9    9.00   10.40
   4   3  -9   -7.10   11.40
   4   3  -9  -10.20   13.40
  -4   3   9    2.70    8.80
   4   3  -9    5.50   12.40
   4  -3  -9   11.50   21.50
  -4  -3   9   -5.20   11.30
  -4  -3   9   15.30   11.20
   4  -3  -9    0.90   11.90
  -4  -3   9   -9.70   25.10
   4  -3  -9   -3.20    9.60
   4   3  -8  103.49   19.30
   4   3  -8  181.68   21.30
   4   3  -8  150.68   34.00
   4   3  -8  137.49   20.00
  -4   3   8  138.39   21.40
  -4   3   8  158.98   16.10
  -4   3   8  151.78   17.90
   4  -3  -8  104.49   16.70
  -4  -3   8  140.29   19.20
  -4  -3   8  142.19   18.90
   4  -3  -8  136.39   26.20
  -4  -3   8  120.09   28.90
   4  -3  -8  105.89   16.20
  -4  -3   8  133.19   17.50
  -4  -3   8  137.79   18.60
   4   3  -7  237.58   22.20
  -4   3   7  217.58   18.00
  -4   3   7  228.98   23.50
   4   3  -7  213.68   23.20
   4   3  -7  220.98   22.90
   4   3  -7  317.77   37.00
  -4   3   7  260.97   25.30
  -4   3   7  227.78   20.60
   4  -3  -7  220.88   20.70
   4  -3  -7  222.48   30.00
  -4  -3   7  261.47   23.60
  -4  -3   7  250.37   23.20
  -4  -3   7  319.37   38.40
  -4  -3   7  206.18   18.50
   4  -3  -7  210.98   17.90
  -4  -3   7  236.78   21.50
   4   3  -6  778.22   48.70
  -4   3   6  718.83   40.20
   4   3  -6  739.43   43.60
   4   3  -6  700.93   53.79
   4   3  -6  734.83   43.90
   4   3  -6  779.82   47.30
  -4   3   6  687.43   42.50
  -4   3   6  700.93   44.00
  -4  -3   6  778.22   45.50
  -4  -3   6  752.02   41.10
  -4  -3   6  757.92   53.19
   4  -3  -6  702.23   43.00
   4  -3  -6  705.23   50.39
  -4  -3   6  722.43   44.90
   4  -3  -6  687.23   40.10
  -4   3   5  635.14   36.30
   4   3  -5  646.24   41.00
   4   3  -5  625.44   39.30
  -4   3   5  637.74   38.20
  -4   3   5  678.13   39.80
   4   3  -5  687.63   42.80
   4   3  -5  649.43   39.00
   4   3  -5  624.04   47.90
   4  -3  -5  664.83   36.80
  -4  -3   5  660.23   39.00
  -4  -3   5  681.13   40.60
   4  -3  -5  696.13   39.20
  -4  -3   5  687.73   38.80
   4  -3  -5  706.23   45.80
  -4  -3   5  684.13   47.90
   4   3  -4 1023.80   55.99
  -4   3   4 1030.70   58.39
   4   3  -4 1016.20   62.59
  -4   3   4  992.80   51.79
  -4   3   4  966.60   55.39
  -4   3   4  991.00   52.99
  -4   3   4  944.41   53.69
   4   3  -4  979.80   53.59
   4   3  -4 1013.00   54.49
   4   3  -4 1054.99   57.89
   4  -3  -4  998.20   58.79
   4  -3  -4 1032.40   54.99
  -4  -3   4  992.60   60.19
  -4  -3   4 1063.69   53.29
   4  -3  -4  992.50   52.89
  -4  -3   4 1006.70   55.59
  -4  -3   4  937.81   53.49
   4  -3  -4  933.61   53.19
  -4  -3   4  988.70   55.09
  -4   3   3  205.38   15.10
   4   3  -3  207.98   16.10
  -4   3   3  204.28   15.00
  -4   3   3  213.88   17.00
   4   3  -3  203.48   14.90
  -4   3   3  221.68   14.70
   4   3  -3  213.78   16.60
  -4   3   3  212.48   20.40
   4   3  -3  214.88   18.40
   4   3  -3  221.48   21.70
  -4  -3   3  223.68   20.30
   4  -3  -3  214.98   19.50
   4  -3  -3  248.38   15.60
   4  -3  -3  201.28   15.00
  -4  -3   3  179.18   15.60
  -4  -3   3  222.18   17.10
   4  -3  -3  259.17   18.10
  -4  -3   3  219.88   16.30
   4   3  -2   85.19   10.60
   4   3  -2   71.49   13.30
  -4   3   2   69.69    9.90
   4   3  -2   66.39    7.20
  -4   3   2   65.19    7.60
  -4   3   2   81.29    7.90
  -4   3   2   71.39    7.40
  -4   3   2   55.29   11.40
   4   3  -2   85.49    9.00
   4   3  -2   77.09    9.30
   4  -3  -2   78.99    7.80
  -4  -3   2   74.89    8.20
  -4  -3   2   86.69    9.00
  -4  -3   2   86.19   11.80
  -4  -3   2   77.19    7.00
   4  -3  -2   58.99    7.70
   4  -3  -2   65.99   10.20
   4  -3  -2   63.49   11.80
  -4   3   1   53.19   10.30
  -4   3   1   45.60    8.00
   4   3  -1   52.39    8.50
  -4   3   1   33.50    4.40
  -4   3   1   47.10    7.00
   4   3  -1   46.80    5.40
   4   3  -1   54.69    9.80
  -4   3   1   46.50    6.40
   4   3  -1   44.80    6.10
   4   3  -1   56.29    7.60
   4  -3  -1   34.40    5.70
   4  -3  -1   30.90    9.40
  -4  -3   1   48.20    9.20
   4  -3  -1   43.60    6.10
  -4  -3   1   54.59    7.60
   4  -3  -1   46.10    8.40
   4   3   0  703.33   39.20
  -4   3   0  683.83   37.90
  -4   3   0  735.53   40.50
   4   3   0  619.84   37.80
   4   3   0  711.43   39.00
  -4   3   0  702.43   37.10
  -4   3   0  689.53   37.40
  -4   3   0  714.13   42.20
   4  -3   0  724.13   41.10
  -4  -3   0  680.73   37.90
   4  -3   0  581.84   41.40
   4  -3   0  656.43   37.20
   4  -3   0  693.43   37.40
  -4  -3   0  612.64   38.30
   4  -3   0  784.62   37.90
   4   3   1  724.23   39.00
   4   3   1  749.92   40.80
  -4   3  -1  696.53   39.00
  -4   3  -1  742.03   38.70
  -4   3  -1  685.03   41.40
  -4   3  -1  689.23   39.90
   4   3   1  698.63   38.70
  -4   3  -1  701.43   44.00
   4  -3   1  730.73   43.70
   4  -3   1  719.93   40.20
   4  -3   1  731.73   42.90
  -4  -3  -1  788.42   39.00
   4  -3   1  700.23   38.10
   4  -3   1  672.73   39.30
  -4   3  -2 1023.50   57.49
  -4   3  -2 1007.00   61.59
   4   3   2 1044.50   54.79
  -4   3  -2 1066.19   56.89
  -4   3  -2 1066.09   55.69
  -4   3  -2 1009.10   54.39
   4   3   2 1102.79   54.29
  -4  -3  -2  999.60   53.99
   4  -3   2 1019.00   59.89
   4  -3   2 1034.90   59.09
   4  -3   2 1085.59   54.19
   4  -3   2 1005.00   56.69
  -4   3  -3  450.55   30.80
  -4   3  -3  503.35   29.00
   4   3   3  515.25   29.50
   4   3   3  506.45   29.20
  -4   3  -3  472.05   31.20
  -4   3  -3  484.25   36.70
  -4   3  -3  470.55   29.90
   4  -3   3  490.55   33.40
   4  -3   3  461.75   31.30
   4  -3   3  487.55   30.80
   4  -3   3  494.95   28.50
   4  -3   3  490.45   35.10
  -4   3  -4  735.03   52.39
  -4   3  -4  812.42   43.90
   4   3   4  726.33   43.30
  -4   3  -4  771.42   45.90
   4   3   4  766.82   44.00
  -4   3  -4  783.92   45.30
   4   3   4  777.02   47.60
  -4   3  -4  771.12   46.60
   4  -3   4  795.22   51.19
   4  -3   4  750.42   46.70
   4  -3   4  814.42   43.50
   4  -3   4  804.32   48.20
  -4   3  -5  161.98   17.60
  -4   3  -5  137.69   14.30
   4   3   5  146.29   16.30
  -4   3  -5  157.78   16.40
   4   3   5  137.39   17.20
  -4   3  -5  188.58   18.50
   4   3   5  170.88   15.60
   4  -3   5  158.08   11.20
   4  -3   5  150.48   18.50
   4  -3   5  173.68   12.80
   4  -3   5  141.99   14.10
   4  -3   5  130.49   21.00
  -4   3  -6  246.58   20.90
  -4   3  -6  217.38   19.40
   4   3   6  229.18   19.00
   4   3   6  232.48   22.40
   4   3   6  215.78   15.40
  -4   3  -6  203.78   22.40
   4  -3   6  226.68   34.70
   4  -3   6  199.68   17.00
   4  -3   6  219.48   23.50
  -4  -3  -6  209.18   17.50
   4  -3   6  278.67   36.70
   4  -3   6  248.68   19.20
   4   3   7   17.40    9.10
  -4   3  -7    8.80    9.40
   4   3   7   -4.60   12.40
   4   3   7  -10.20    9.30
   4   3   7   10.40   13.10
  -4   3  -7   -5.80   11.10
   4   3   7    0.10    6.10
  -4   3  -7    8.40    6.80
  -4  -3  -7   12.90    5.60
   4  -3   7   13.00   21.00
   4  -3   7   11.60    8.20
   4  -3   7  -15.00   18.50
   4  -3   7    7.20   16.20
   4  -3   7    5.80    7.10
   4   3   8   57.19   10.10
   4   3   8   48.90   18.10
   4   3   8   77.79   20.70
   4   3   8   26.60   13.40
   4   3   8  109.59   16.50
  -4   3  -8   71.09   13.90
  -4   3  -8  115.99   19.90
  -4   3  -8   62.79   12.60
  -4   3  -8   89.89   17.80
   4  -3   8   41.10   17.10
  -4  -3  -8   98.39   14.30
   4  -3   8   64.09   12.90
  -4  -3  -8   91.99   11.10
   4  -3   8   70.39   19.90
   4  -3   8   96.89   15.60
   4  -3   8   46.10   23.60
   4  -3   8   75.69   30.20
  -4   3  -9   74.69   17.10
   4   3   9   69.59   17.10
  -4   3  -9   83.79   21.60
   4   3   9   37.60   15.80
   4   3   9   69.59   12.80
  -4   3  -9   85.69   16.00
   4   3   9  123.69   25.80
   4   3   9   80.59   24.60
  -4   3  -9   77.69   14.20
   4  -3   9   69.69   15.10
   4  -3   9   94.89   34.40
   4  -3   9   49.40   27.20
   4  -3   9   75.29   16.10
  -4  -3  -9   53.79   16.10
  -4  -3  -9   93.19   13.30
   4   3  10  113.49   21.80
   4   3  10  110.19   32.50
  -4   3 -10   91.49   21.20
   4   3  10   84.29   15.10
   4   3  10   68.39   20.10
  -4   3 -10   88.39   17.20
  -4   3 -10   93.59   17.80
   4  -3  10   70.09   16.90
  -4  -3 -10   67.29   17.20
   4  -3  10  212.98   85.39
   4  -3  10   88.89   20.20
   4  -3  10   90.49   37.20
  -4   4   9    5.10   12.90
  -4   4   9   11.50    9.60
   4   4  -9   18.30   21.10
   4   4  -9   23.20   18.30
  -4  -4   9   14.30   31.60
  -4  -4   9   18.60   36.00
  -4  -4   9    2.70   14.40
   4  -4  -9    0.20   12.90
  -4  -4   9   12.10   13.50
   4   4  -8  347.27   31.00
  -4   4   8  349.17   27.40
   4   4  -8  310.47   32.60
  -4   4   8  265.87   22.60
  -4   4   8  242.18   31.30
   4   4  -8  330.87   30.60
  -4   4   8  286.67   32.70
   4  -4  -8  317.97   37.60
   4  -4  -8  302.07   24.90
  -4  -4   8  336.07   29.80
  -4  -4   8  361.56   45.80
  -4  -4   8  313.47   44.30
   4  -4  -8  251.67   25.00
  -4  -4   8  278.07   25.40
  -4   4   7    7.10   12.90
  -4   4   7   -0.70    6.40
   4   4  -7   15.40   10.60
   4   4  -7   -1.70   10.40
  -4   4   7  -17.10    7.80
  -4   4   7   -8.40   12.10
   4   4  -7    2.60   10.40
  -4  -4   7   17.00   10.20
  -4  -4   7  -13.20   10.60
  -4  -4   7   -0.90   19.20
   4  -4  -7   -2.50    8.00
  -4  -4   7    5.80   10.20
   4  -4  -7    4.70   15.60
   4  -4  -7    4.30    9.00
  -4   4   6    1.70   11.30
   4   4  -6   25.70    9.40
  -4   4   6   22.00    6.20
  -4   4   6   11.90    8.30
   4   4  -6   -2.40    9.80
   4   4  -6   23.80    8.90
  -4   4   6    5.80    9.70
  -4  -4   6   13.20    8.10
   4  -4  -6   10.70   12.70
  -4  -4   6   11.40    8.90
  -4  -4   6    1.10   14.60
  -4  -4   6   -2.60   13.40
  -4  -4   6   22.90   11.20
  -4   4   5   -6.00   12.70
   4   4  -5   17.40    8.10
   4   4  -5   26.40    8.20
  -4   4   5   35.60    9.60
   4   4  -5   25.20   16.40
   4   4  -5   30.20    9.40
   4   4  -5   29.20   11.30
  -4   4   5   29.50    7.40
  -4   4   5   24.30    6.80
   4  -4  -5   18.00   11.60
  -4  -4   5   36.70   14.50
  -4  -4   5   16.80    6.90
  -4  -4   5   29.10    9.40
   4  -4  -5   25.50    7.70
  -4  -4   5   22.30    8.30
   4  -4  -5   20.90    7.60
  -4  -4   5   24.90    8.20
   4   4  -4  378.96   25.60
  -4   4   4  354.36   25.00
   4   4  -4  365.26   23.20
   4   4  -4  372.86   30.60
  -4   4   4  319.37   21.60
  -4   4   4  338.67   22.00
   4   4  -4  311.97   23.60
  -4   4   4  336.47   23.40
   4   4  -4  296.17   31.80
  -4  -4   4  339.17   29.90
   4  -4  -4  353.66   28.00
  -4  -4   4  345.97   24.10
   4  -4  -4  347.97   26.30
  -4  -4   4  307.47   22.30
   4   4  -3   21.40    6.90
   4   4  -3   16.20    5.50
  -4   4   3   28.00    7.90
  -4   4   3    6.60    5.10
  -4   4   3    9.70    4.90
   4   4  -3   17.00    7.90
  -4   4   3   16.30    4.90
   4   4  -3   27.20   11.80
   4   4  -3   13.60    6.40
  -4  -4   3    6.30    5.80
   4  -4  -3   20.10    5.30
  -4  -4   3   15.20   14.50
   4  -4  -3   27.50    9.30
  -4  -4   3   17.10    5.30
  -4  -4   3    2.00    5.30
   4  -4  -3   19.10    9.30
   4   4  -2 1006.10   59.09
  -4   4   2  954.80   52.69
   4   4  -2 1064.09   55.59
   4   4  -2 1028.00   53.59
  -4   4   2 1013.00   57.79
   4   4  -2 1099.09   61.09
   4   4  -2 1130.29   56.09
  -4   4   2 1057.39   53.89
  -4   4   2 1042.90   54.09
  -4  -4   2  969.50   54.09
   4  -4  -2 1044.00   59.29
  -4  -4   2 1036.10   55.29
  -4  -4   2 1035.70   57.99
   4  -4  -2  999.90   58.89
   4   4  -1    4.90    4.60
   4   4  -1    3.80    6.00
  -4   4   1    6.20    6.40
  -4   4   1   -1.30    3.90
   4   4  -1    3.90    7.40
  -4  -4   1    3.80    4.60
   4  -4  -1    1.00    4.00
   4  -4  -1    9.90   10.00
   4  -4  -1   -0.90    7.30
   4  -4  -1    1.60    3.80
  -4  -4   1   -2.70    5.70
   4   4   0 1251.17   63.59
  -4   4   0 1221.28   62.49
  -4   4   0 1221.48   63.39
  -4   4   0 1130.79   63.39
   4   4   0 1220.58   65.79
  -4   4   0 1198.68   66.49
   4  -4   0 1196.88   68.09
   4  -4   0 1185.08   62.69
   4  -4   0 1191.48   62.79
   4  -4   0 1248.78   62.19
  -4  -4   0 1220.28   62.09
   4  -4   0  987.90   79.59
  -4   4  -1   17.90   15.00
   4   4   1   27.40    6.40
  -4   4  -1   29.10    8.40
  -4   4  -1   20.10    6.90
  -4   4  -1   32.90    6.20
   4   4   1   24.40    7.60
  -4   4  -1   24.20    6.60
   4  -4   1   29.50   10.50
   4  -4   1   32.90   11.00
   4  -4   1   33.80    6.50
   4  -4   1   28.70    7.00
   4  -4   1   36.20    8.00
  -4   4  -2    6.40    6.40
  -4   4  -2   -2.80    9.10
  -4   4  -2   -4.80    5.30
  -4   4  -2    1.10    6.20
  -4   4  -2    8.60    4.00
   4   4   2    6.60    5.80
   4   4   2    4.60    4.80
   4  -4   2    5.10    9.00
   4  -4   2    6.00    6.60
   4  -4   2    8.00    6.30
   4  -4   2    3.30    4.00
   4   4   3    3.70    4.90
   4   4   3    6.90    6.50
  -4   4  -3    8.20    6.80
  -4   4  -3   18.90    5.30
  -4   4  -3   12.10    7.20
  -4   4  -3   16.30    7.50
   4  -4   3   14.00    8.10
   4  -4   3   31.60   11.50
  -4   4  -4  437.56   32.60
  -4   4  -4  521.75   32.70
   4   4   4  436.96   29.30
   4  -4   4  492.25   37.80
   4  -4   4  447.96   28.40
   4  -4   4  457.75   33.30
   4  -4   4  435.56   34.60
  -4   4  -5   24.60    6.90
  -4   4  -5   38.20   12.00
  -4   4  -5   28.30    9.70
  -4   4  -5   39.10   11.50
   4   4   5   26.20    7.40
   4  -4   5   25.10   11.00
   4  -4   5   32.00   12.90
   4  -4   5   56.39   17.80
   4  -4   5   42.80   20.10
   4  -4   5   31.80    8.40
  -4   4  -6  401.46   34.50
   4   4   6  421.06   30.70
   4   4   6  435.26   32.60
   4   4   6  417.06   29.10
  -4   4  -6  456.85   33.70
  -4   4  -6  409.86   29.80
  -4   4  -6  462.75   35.10
   4  -4   6  462.95   42.40
   4  -4   6  415.76   29.30
   4  -4   6  415.16   34.50
   4  -4   6  409.66   53.89
   4  -4   6  457.45   48.30
  -4   4  -7   45.20   12.90
   4   4   7   34.20   11.10
   4   4   7   51.09   13.90
  -4   4  -7   36.40   10.80
  -4   4  -7   45.50   14.30
   4   4   7   39.00   13.80
  -4   4  -7   58.69   17.40
   4  -4   7   25.30   17.70
   4  -4   7   28.90   10.70
   4  -4   7   20.30   21.00
   4   4   8   91.39   20.70
  -4   4  -8   76.89   17.20
   4   4   8   29.50   15.30
  -4   4  -8   79.19   23.50
   4   4   8   76.89   15.80
  -4   4  -8   76.49   14.70
  -4   4  -8   86.89   19.60
   4  -4   8   93.99   12.30
   4  -4   8   51.79   28.20
   4  -4   8   81.59   15.00
   4  -4   8   44.00   34.70
  -4   4  -9  -30.20   15.00
   4   4   9   -2.80   13.00
  -4   4  -9   -9.30   11.20
  -4   4  -9    1.40   13.30
   4   4   9    0.50   23.20
   4  -4   9  -22.40   42.00
   4  -4   9   13.60   12.60
   4  -4   9  -29.10   36.00
   4  -4   9   11.80   13.40
  -4   5   7  157.58   26.50
   4   5  -7  149.69   20.20
   4   5  -7  156.68   30.40
   4   5  -7  219.68   26.90
   4   5  -7  167.58   33.60
  -4  -5   7  196.98   22.70
  -4  -5   7  228.68   38.20
   4  -5  -7  132.39   26.30
  -4  -5   7  230.68   38.30
  -4   5   6   72.09   16.00
   4   5  -6   28.20   15.20
   4   5  -6   30.20   15.80
  -4   5   6   41.50   16.00
   4   5  -6   73.59   13.90
  -4  -5   6   25.90   21.90
  -4  -5   6   51.09   13.30
  -4  -5   6   44.30   23.60
  -4  -5   6   40.60   15.70
   4  -5  -6   57.59   17.20
  -4  -5   6   59.09   14.40
  -4   5   5  311.57   27.70
  -4   5   5  329.97   27.30
   4   5  -5  337.37   25.50
   4   5  -5  317.47   31.80
   4   5  -5  308.07   25.50
   4  -5  -5  346.97   30.00
  -4  -5   5  295.77   34.90
  -4  -5   5  254.17   24.00
  -4  -5   5  375.16   26.80
  -4  -5   5  357.96   37.60
  -4  -5   5  318.07   30.10
  -4  -5   5  337.77   25.50
   4   5  -4   28.10    8.80
  -4   5   4   51.49   11.20
   4   5  -4   32.80    9.60
  -4   5   4   35.50   11.30
  -4   5   4   47.30   11.50
   4   5  -4   64.09   14.30
  -4  -5   4   35.50   15.00
  -4  -5   4   44.70    9.80
  -4  -5   4   33.50    8.40
  -4  -5   4   21.00   15.50
  -4  -5   4   32.70    9.60
   4  -5  -4   39.90   13.50
   4  -5  -4   43.50   15.90
   4   5  -3  113.89   17.50
   4   5  -3  141.69   15.30
  -4   5   3  126.69   13.70
  -4   5   3  131.69   17.60
  -4   5   3  146.89   18.00
   4  -5  -3  120.59   16.90
  -4  -5   3  143.69   19.90
  -4  -5   3  149.09   16.00
  -4  -5   3  153.58   19.60
   4   5  -2   -1.60    8.30
   4   5  -2   14.90    7.10
  -4   5   2   21.00   10.10
  -4   5   2    3.90    9.40
  -4  -5   2   12.90   10.40
  -4  -5   2   11.30    8.00
  -4  -5   2    2.20    8.40
   4  -5  -2   14.60    9.70
   4   5  -1    1.90    6.30
   4   5  -1  -11.20   13.90
   4   5  -1    7.60   10.50
  -4   5   1    1.50   14.20
  -4   5   1   10.90   10.60
  -4  -5   1   -7.10    7.10
  -4  -5   1   -3.80    6.80
   4  -5  -1  -23.00   14.70
   4  -5  -1   -0.90   10.60
  -4   5   0   83.79   16.40
   4   5   0  102.49   13.30
   4   5   0  116.39   15.90
  -4   5   0  141.29   13.60
  -4   5   0  134.99   14.60
  -4   5   0  135.99   14.70
  -4   5   0  142.09   17.90
   4   5   0  141.29   18.30
   4  -5   0   84.39   11.30
   4  -5   0   97.89   18.90
   4  -5   0  125.49   14.30
   4  -5   0  113.09   17.90
  -4   5  -1  626.54   39.00
  -4   5  -1  590.14   43.60
   4   5   1  668.63   40.50
   4   5   1  573.84   37.40
  -4   5  -1  593.24   36.40
  -4   5  -1  623.64   37.40
  -4   5  -1  610.34   41.30
   4   5   1  664.43   41.30
   4  -5   1  659.13   36.00
   4  -5   1  607.54   47.60
   4   5   2  227.98   19.60
  -4   5  -2  238.58   22.40
  -4   5  -2  246.68   24.20
   4   5   2  223.48   21.60
  -4   5  -2  231.58   21.70
  -4   5  -2  248.18   18.30
   4  -5   2  277.77   23.10
   4  -5   2  273.17   22.80
   4  -5   2  229.38   17.60
   4  -5   2  233.68   26.70
   4   5   3  692.73   39.80
   4   5   3  653.63   41.90
  -4   5  -3  612.34   44.00
  -4   5  -3  673.23   42.50
  -4   5  -3  734.03   44.50
  -4   5  -3  646.24   38.60
   4  -5   3  675.83   38.10
   4  -5   3  677.73   43.30
   4  -5   3  650.03   46.90
  -4   5  -4   15.30   10.60
   4   5   4    5.50    9.00
   4   5   4    2.50    7.60
  -4   5  -4   20.20    7.60
  -4   5  -4   15.70   10.60
  -4   5  -4   23.60   12.40
   4  -5   4   21.40    6.90
   4  -5   4   31.30   21.60
   4  -5   4   16.70   16.00
   4  -5   4    5.60   12.20
   4  -5   4   13.00   13.00
  -4   5  -5   26.10    9.30
  -4   5  -5   46.30   19.30
   4   5   5   42.00   11.40
   4   5   5   35.40    9.70
  -4   5  -5   46.80   13.80
  -4   5  -5   48.60   13.90
   4  -5   5   52.89   20.90
   4  -5   5   17.00   25.00
   4  -5   5   28.30   15.10
   4  -5   5   21.50    8.40
   4  -5   5   10.50   15.40
   4   5   6   11.30   11.30
  -4   5  -6   37.30   17.30
  -4   5  -6   -4.70    8.60
   4   5   6   12.90   10.30
  -4   5  -6    1.40   12.80
  -4   5  -6   23.00   14.40
   4  -5   6   17.40   22.00
   4  -5   6    5.40    9.20
  -4   5  -7    8.10   11.50
  -4   5  -7   -1.60   16.90
  -4   5  -7    6.50   21.10
  -4   5  -7   -0.20   15.20
   4   5   7   -7.10   15.70
   4   5   7   -1.60   11.90
   4  -5   7  -33.00   32.50
   4  -5   7    4.30   11.00
   4  -5   7   22.10   27.20
  -4   6   5   31.70   15.50
   4   6  -5   12.30   19.20
   4   6  -5   33.30   12.50
   4   6  -5   19.90   12.70
   4   6  -5   41.30   20.60
  -4  -6   5   46.80   13.80
  -4  -6   5   34.10   23.10
   4   6  -4    9.90   16.90
  -4   6   4   15.30    9.00
   4   6  -4   -9.10   10.10
   4   6  -4    1.20   16.90
   4   6  -4   -3.90   11.20
  -4   6   4    6.10   15.80
  -4   6   4   17.30   13.50
  -4  -6   4    7.10   11.90
  -4  -6   4   -2.20   19.00
  -4  -6   4   -3.60   17.80
   4   6  -3  198.28   20.70
   4   6  -3  162.08   23.50
   4   6  -3  201.28   27.40
  -4   6   3  163.18   21.90
  -4  -6   3  178.18   21.90
  -4  -6   3  212.08   32.70
  -4   6   2   62.79   16.40
   4   6  -2   60.49   16.70
   4   6  -2   63.69   11.70
   4   6  -2   64.99   18.10
  -4  -6   2   63.99   12.20
  -4  -6   2   58.19   12.20
   4  -6  -2   54.29   14.60
   4   6  -1  406.06   33.60
   4   6  -1  288.87   33.70
  -4   6   1  347.27   32.40
   4   6  -1  416.56   27.90
   4   6   0   45.50   11.00
   4   6   0   93.89   17.80
   4   6   0   51.79   14.10
  -4   6   0   73.39   13.70
  -4   6   0   43.70   15.30
   4  -6   0   16.20   26.30
   4   6   1  154.28   18.00
   4   6   1  119.09   20.00
  -4   6  -1  120.09   19.60
   4   6   1  131.19   18.90
  -4   6  -1   97.49   16.70
   4  -6   1  157.58   18.10
   4  -6   1  152.58   25.60
   4  -6   1  145.09   22.50
  -4   6  -2  -13.80   12.00
  -4   6  -2   -3.10    8.30
  -4   6  -2    1.40   12.80
   4   6   2    4.30   11.90
   4  -6   2   33.90   18.70
   4  -6   2   15.80   16.30
   4  -6   2    8.10   21.20
   4   6   3    6.30    9.80
  -4   6  -3    2.20   13.60
  -4   6  -3    0.30   13.80
  -4   6  -3   -6.00    7.60
   4   6   3   16.10   12.30
  -4   6  -3   18.80   14.30
   4  -6   3   18.80   16.60
   4  -6   3  -22.90   17.60
   4  -6   3    3.80   18.20
   4  -6   3    3.40    8.80
   4  -6   3   -4.00   24.00
   4   6   4   39.40   11.20
  -4   6  -4   18.90   16.70
  -4   6  -4   20.70   16.00
  -4   6  -4   -0.50    9.00
   4   6   4   19.10   13.50
   4  -6   4   10.40   28.30
   4  -6   4  -22.50   19.00
   4   6   5   73.39   15.30
  -4   6  -5   74.69   20.80
  -4   6  -5  113.09   25.70
  -4   6  -5   68.89   16.10
   4   6   5   76.39   17.70
  -4   6  -5   77.39   19.90
   4  -6   5  137.79   36.80
   4  -6   5   74.79   13.60
   5   0 -11  -17.80   15.00
   5   0 -11   -8.40   12.30
   5   0 -11    5.50   33.50
  -5   0  11    5.40   14.50
  -5   0  11   26.40   29.50
  -5   0  10   79.09   28.00
  -5   0  10  100.69   17.30
  -5   0  10  153.88   18.60
   5   0 -10  123.69   32.60
  -5   0  10  110.59   18.50
   5   0 -10  112.49   16.90
   5   0 -10   80.99   17.90
   5   0  -9  -51.59   19.10
  -5   0   9    3.40   10.10
   5   0  -9   13.20   12.70
  -5   0   9    5.60    8.60
   5   0  -9   -7.60    9.30
  -5   0   9   -0.70    8.30
   5   0  -9   24.20    9.80
  -5   0   9   -9.40    7.70
  -5   0   9  -13.70   18.20
   5   0  -8  354.86   29.30
  -5   0   8  369.26   36.60
  -5   0   8  398.06   27.80
  -5   0   8  341.27   24.90
   5   0  -8  357.46   27.00
   5   0  -8  346.67   39.40
  -5   0   8  403.26   29.60
   5   0  -8  368.16   26.90
   5   0  -8  333.77   29.10
   5   0  -7   -3.70    5.00
  -5   0   7    4.90    5.40
  -5   0   7   -1.20    8.80
  -5   0   7   -0.10    5.50
  -5   0   7    9.30    5.40
   5   0  -7   -7.40   10.80
   5   0  -7   -5.10    5.60
   5   0  -7   -4.50    8.50
   5   0  -7   -4.90    6.20
  -5   0   6 1132.49   63.99
  -5   0   6 1170.58   62.79
   5   0  -6 1175.08   64.19
   5   0  -6 1185.48   65.29
   5   0  -6 1196.48   62.49
   5   0  -6 1147.19   62.29
   5   0  -6 1137.99   72.69
  -5   0   6 1130.99   60.59
  -5   0   6 1136.49   69.69
   5   0  -5    3.40    4.40
   5   0  -5   -4.70    7.50
   5   0  -5    3.90    3.60
  -5   0   5   -2.00    6.30
   5   0  -5    3.50    3.90
  -5   0   5    5.60    3.00
   5   0  -5    5.20    6.30
   5   0  -5    4.70    4.80
  -5   0   5    3.40    3.40
  -5   0   5    0.40    4.20
   5   0  -4    4.80    5.30
   5   0  -4   -7.60    5.80
   5   0  -4   -1.80    2.90
   5   0  -4    1.00    3.50
  -5   0   4   -4.40    5.60
   5   0  -4    1.00    3.50
  -5   0   4    0.10    2.80
  -5   0   4    0.70    2.90
  -5   0   4    1.20    3.30
   5   0  -4   -0.30    3.50
  -5   0   3    0.70    2.60
   5   0  -3    0.90    3.20
  -5   0   3    5.10    5.50
   5   0  -3   -5.20    5.90
   5   0  -3    2.30    2.70
   5   0  -3    2.90    3.60
  -5   0   3   -0.80    2.60
   5   0  -3    3.70    4.80
  -5   0   3   -1.90    2.10
   5   0  -3   -0.90    2.30
   5   0  -2 3386.06  160.68
  -5   0   2 3371.96  165.38
  -5   0   2 3162.58  160.08
  -5   0   2 3220.88  160.28
   5   0  -2 3261.67  161.38
   5   0  -2 3127.29  160.38
   5   0  -2 3389.46  161.68
   5   0  -2 3241.98  163.78
   5   0  -2 3303.27  166.88
   5   0  -1    1.30    4.30
   5   0  -1    8.00    6.30
  -5   0   1    5.70    4.50
  -5   0   1    1.30    2.40
  -5   0   1    0.20    2.00
  -5   0   1   -0.20    2.00
  -5   0   1    6.70    5.00
   5   0  -1    2.10    2.50
  -5   0   0 2834.42  141.79
   5   0   0 2999.90  141.29
  -5   0   0 2756.92  143.99
  -5   0   0 2947.51  147.19
   5   0   0 2851.21  141.59
  -5   0   0 2795.62  141.29
   5   0   0 2832.92  143.39
   5   0   0 2921.01  146.69
  -5   0   0 2924.31  141.39
  -5   0  -1    2.10    2.40
   5   0   1    7.60    6.10
   5   0   1    1.00    2.00
   5   0   1    2.60    2.30
   5   0   1    4.60    3.80
  -5   0  -1   -4.80    5.10
  -5   0  -1    6.60    2.90
  -5   0  -1   -4.40    4.10
   5   0   1    1.60    2.30
  -5   0  -1   -0.50    2.10
  -5   0  -2 1349.56   73.99
   5   0   2 1430.46   76.89
  -5   0  -2 1461.15   72.79
  -5   0  -2 1453.45   77.99
   5   0   2 1430.46   73.19
   5   0   2 1456.05   73.69
   5   0   2 1421.66   71.99
   5   0   2 1412.66   71.89
  -5   0  -2 1465.15   72.49
  -5   0  -3   -4.20    2.40
   5   0   3   -4.40    4.00
   5   0   3   -0.40    2.10
   5   0   3   -1.50    2.70
   5   0   3    8.00    6.90
  -5   0  -3   -1.20    2.60
   5   0   3    5.00    3.80
  -5   0  -3   -2.50    3.60
  -5   0  -3   -0.60    6.70
   5   0   3    0.10    2.20
  -5   0  -4    9.90    4.40
   5   0   4    6.90    7.00
  -5   0  -4    9.00    3.80
   5   0   4    7.40    3.50
  -5   0  -4   16.70    9.70
   5   0   4    7.50    5.10
   5   0   4   13.00    4.90
   5   0   4    7.40    3.60
   5   0   5    4.30    3.80
   5   0   5    2.20    8.70
  -5   0  -5    0.20    3.30
   5   0   5    1.30    5.00
   5   0   5   -0.50    3.10
  -5   0  -5   11.50    9.60
   5   0   5    2.10    5.40
  -5   0  -5   -5.00    4.30
  -5   0  -6  785.42   43.40
  -5   0  -6  762.22   53.69
   5   0   6  744.43   50.39
   5   0   6  709.63   46.60
   5   0   6  771.02   43.00
   5   0   7  -10.40    7.40
   5   0   7   -9.20   12.10
   5   0   7    8.70    9.20
   5   0   7    6.10    5.40
  -5   0  -7    2.50    4.90
   5   0   7  -12.10   11.30
  -5   0  -8  936.41   57.09
   5   0   8  935.21   54.09
  -5   0  -8 1011.00   54.79
   5   0   8  870.51   86.49
   5   0   8  925.21   58.39
   5   0   8  868.01   58.19
   5   0   9   -1.00   11.90
  -5   0  -9  -14.90   12.80
  -5   0  -9   11.30    8.00
   5   0   9  -14.20   13.00
   5   0   9    9.30   20.70
   5   0   9   12.10   21.90
   5   0   9    2.60    8.00
   5   0  10   39.10   12.40
   5   0  10   48.40   31.40
  -5   0 -10   39.90   12.50
   5   0  10   36.30   19.70
   5   0  10   69.09   29.90
   5   0  11    0.30   24.90
   5   0  11   -4.20   37.20
   5   0  11   12.40   13.00
   5   0  11  -84.69   32.70
  -5   0 -11    9.10   13.10
   5   1 -11  111.19   20.90
  -5   1  11  119.59   20.80
   5   1 -11  136.39   23.00
  -5   1  11  125.99   32.80
   5   1 -11   54.59   38.50
  -5   1  11   95.89   16.50
   5   1 -11  106.09   26.00
  -5   1  11   71.79   17.20
  -5  -1  11  204.48   43.90
  -5  -1  11  146.59   22.60
   5  -1 -11  147.89   26.00
  -5  -1  11  102.89   21.10
   5  -1 -11  109.39   39.30
   5  -1 -11   91.19   16.50
   5   1 -10   49.99   15.10
  -5   1  10   68.39   24.30
   5   1 -10   46.10   15.70
   5   1 -10   50.69   18.90
  -5   1  10   50.49   13.00
  -5   1  10   59.09   14.50
   5   1 -10   57.79   28.60
  -5  -1  10   41.40   14.10
  -5  -1  10   58.49   15.70
  -5  -1  10   52.59   26.30
   5  -1 -10   44.70   12.10
   5  -1 -10   49.80   18.60
   5  -1 -10   21.80   26.40
  -5   1   9   10.10    8.90
  -5   1   9    6.10    7.20
   5   1  -9   43.00   22.90
   5   1  -9   18.00   11.50
   5   1  -9   10.30   19.10
  -5   1   9   -2.50    8.10
  -5   1   9   14.10   16.30
  -5   1   9    8.20   12.20
  -5  -1   9   -0.80    8.70
   5  -1  -9   -1.30    8.90
   5  -1  -9    1.30    7.40
   5  -1  -9   16.00   10.40
  -5  -1   9   -4.50   19.70
  -5  -1   9    8.40   10.10
   5  -1  -9  -12.50   19.00
  -5  -1   9    3.60    9.30
  -5   1   8   14.20   10.20
  -5   1   8   13.80    7.40
   5   1  -8    9.20    9.20
  -5   1   8   16.10    6.90
  -5   1   8   13.60    6.20
  -5   1   8   24.00   15.70
   5   1  -8   10.90    9.20
   5   1  -8    7.10   16.50
   5   1  -8   31.20   19.20
   5  -1  -8   -4.20   16.80
   5  -1  -8    5.90    8.40
   5  -1  -8   23.50    6.90
  -5  -1   8   21.40   15.50
  -5  -1   8   18.00    8.90
  -5  -1   8   37.50   10.00
  -5  -1   8    9.70    7.80
  -5  -1   8   21.30    8.90
  -5   1   7   69.39    8.60
  -5   1   7   89.49   13.10
   5   1  -7   82.29   12.30
   5   1  -7   75.89   20.40
   5   1  -7   72.09   12.90
   5   1  -7   84.09   13.60
  -5   1   7   73.39   16.30
  -5   1   7   73.69   12.40
   5  -1  -7   56.49   12.00
  -5  -1   7   79.29   12.30
   5  -1  -7   73.39   12.90
   5  -1  -7   47.90   17.40
  -5  -1   7   85.19   20.10
   5  -1  -7   63.79    9.10
  -5  -1   7   71.89   13.20
  -5  -1   7   67.49   11.20
   5   1  -6  332.77   25.30
  -5   1   6  295.17   27.90
  -5   1   6  327.07   23.40
  -5   1   6  305.07   23.20
   5   1  -6  309.37   22.50
   5   1  -6  337.97   24.40
   5   1  -6  348.87   33.40
  -5   1   6  338.57   22.50
   5  -1  -6  295.37   24.00
  -5  -1   6  312.37   22.90
   5  -1  -6  304.07   30.50
  -5  -1   6  352.86   24.80
   5  -1  -6  321.97   22.50
  -5  -1   6  326.87   22.50
   5  -1  -6  345.27   24.90
  -5  -1   6  382.76   31.50
   5   1  -5 1115.39   62.29
  -5   1   5 1091.29   60.49
  -5   1   5 1098.39   65.79
   5   1  -5 1074.79   61.59
   5   1  -5 1099.59   59.89
   5   1  -5 1107.49   69.59
  -5   1   5 1095.09   59.49
   5   1  -5 1108.59   61.29
  -5  -1   5 1154.28   67.19
  -5  -1   5 1161.28   61.89
   5  -1  -5 1154.18   59.59
  -5  -1   5 1086.49   59.59
  -5  -1   5 1093.69   59.49
  -5  -1   5 1130.99   61.99
   5  -1  -5 1235.58   69.49
   5  -1  -5 1123.79   61.59
   5  -1  -5 1210.38   62.39
  -5   1   4 1699.43   86.09
  -5   1   4 1662.63   91.69
  -5   1   4 1637.94   86.49
   5   1  -4 1614.84   86.29
   5   1  -4 1604.44   94.19
   5   1  -4 1706.23   88.39
   5   1  -4 1752.22   87.99
   5   1  -4 1713.53   88.09
  -5   1   4 1682.43   86.89
  -5  -1   4 1721.23   86.59
   5  -1  -4 1639.94   87.49
  -5  -1   4 1670.93   92.59
  -5  -1   4 1661.73   86.09
  -5  -1   4 1732.63   87.99
   5  -1  -4 1838.02   89.19
  -5  -1   4 1731.33   86.89
   5  -1  -4 1725.43   86.19
   5  -1  -4 1705.83   93.89
  -5   1   3 2679.63  132.19
  -5   1   3 2740.23  132.89
  -5   1   3 2603.84  136.89
  -5   1   3 2707.03  135.69
  -5   1   3 2591.34  131.69
   5   1  -3 2796.72  133.99
   5   1  -3 2699.13  133.49
   5   1  -3 2651.53  139.29
   5   1  -3 2685.73  132.29
   5   1  -3 2605.04  133.49
   5  -1  -3 2641.24  132.09
   5  -1  -3 2334.37  134.89
   5  -1  -3 2641.54  133.49
  -5  -1   3 2815.12  138.39
  -5  -1   3 2616.14  131.89
   5  -1  -3 2803.32  139.59
   5  -1  -3 2692.93  134.89
  -5  -1   3 2741.23  132.49
   5   1  -2  518.55   29.30
   5   1  -2  551.84   34.20
  -5   1   2  519.85   28.20
  -5   1   2  516.75   29.10
  -5   1   2  497.95   27.90
  -5   1   2  563.54   33.90
   5   1  -2  494.05   29.30
   5   1  -2  515.15   28.40
   5   1  -2  521.55   29.80
  -5   1   2  543.35   32.40
  -5  -1   2  524.85   28.90
   5  -1  -2  428.76   30.20
  -5  -1   2  536.75   32.90
  -5  -1   2  485.15   27.90
   5  -1  -2  528.75   29.40
   5  -1  -2  548.75   35.30
   5  -1  -2  487.65   28.60
  -5  -1   2  497.65   28.40
  -5   1   1  883.41   46.50
   5   1  -1 1004.50   53.29
   5   1  -1  911.41   47.30
  -5   1   1  862.11   52.89
  -5   1   1  907.91   50.69
   5   1  -1  906.51   49.30
   5   1  -1  971.70   48.20
   5   1  -1  840.22   47.90
  -5   1   1  914.11   48.10
  -5   1   1  832.52   48.00
  -5  -1   1  922.71   48.50
  -5  -1   1  984.20   51.79
   5  -1  -1  927.51   47.60
  -5  -1   1  969.80   47.90
   5  -1  -1  859.21   49.80
   5  -1  -1  936.91   48.40
  -5  -1   1  934.01   47.00
  -5   1   0    0.10    2.30
   5   1   0    1.20    2.50
   5   1   0   17.90    6.80
  -5   1   0   -0.50    2.10
   5   1   0    0.80    4.20
   5   1   0    4.70    2.50
  -5   1   0   -4.50    5.90
   5   1   0    0.30    2.30
  -5   1   0   -4.30    3.10
  -5   1   0    3.00    2.90
  -5  -1   0    3.10    2.50
   5  -1   0    7.10    6.40
  -5  -1   0    2.00    2.80
   5  -1   0   -0.20    2.30
   5  -1   0   -1.40    2.20
  -5  -1   0    3.30    2.60
   5  -1   0   -4.60    3.50
   5  -1   0   -0.30    2.30
   5   1   1  167.88   15.50
   5   1   1  137.39   12.50
  -5   1  -1  144.19   10.70
   5   1   1  158.28   10.70
  -5   1  -1  139.09   11.90
   5   1   1  142.99   10.70
  -5   1  -1  144.29   10.20
  -5   1  -1  132.39   15.10
  -5   1  -1  147.09   11.00
  -5  -1  -1  127.99   10.10
   5  -1   1  139.19   14.30
   5  -1   1  134.19   14.60
   5  -1   1  139.29   12.30
  -5  -1  -1  136.99   11.30
   5  -1   1  151.68   10.10
   5  -1   1  159.78   12.60
  -5  -1  -1  172.98   11.40
   5  -1   1  151.58   11.50
   5   1   2  874.71   44.10
   5   1   2  842.82   43.80
  -5   1  -2  850.11   49.99
   5   1   2  771.62   47.00
  -5   1  -2  832.22   43.90
  -5   1  -2  822.72   44.20
   5   1   2  823.82   42.80
   5   1   2  843.02   44.70
  -5   1  -2  759.32   44.50
  -5  -1  -2  853.11   43.50
  -5  -1  -2  847.02   43.40
   5  -1   2  852.21   45.50
   5  -1   2  821.42   43.40
   5  -1   2  789.32   45.80
   5  -1   2  841.32   44.80
   5  -1   2  815.32   42.40
   5  -1   2  813.32   48.50
   5   1   3 1427.86   72.39
   5   1   3 1381.16   70.89
  -5   1  -3 1452.35   79.49
   5   1   3 1417.76   72.39
  -5   1  -3 1385.96   72.89
  -5   1  -3 1409.56   72.89
  -5   1  -3 1461.65   72.49
   5   1   3 1362.86   75.49
  -5  -1  -3 1433.36   71.39
   5  -1   3 1382.46   71.89
   5  -1   3 1474.15   78.49
   5  -1   3 1387.16   73.39
   5  -1   3 1467.05   73.79
  -5  -1  -3 1347.07   71.69
   5  -1   3 1339.97   74.59
   5   1   4 1247.68   63.09
  -5   1  -4 1258.17   64.59
  -5   1  -4 1238.48   64.49
   5   1   4 1214.78   64.69
  -5   1  -4 1215.18   72.49
   5   1   4 1263.87   68.69
   5   1   4 1217.28   64.29
  -5   1  -4 1185.88   65.09
   5  -1   4 1210.28   70.69
   5  -1   4 1217.98   62.89
  -5  -1  -4 1301.17   63.49
  -5  -1  -4 1189.18   63.99
   5  -1   4 1224.38   65.99
   5  -1   4 1181.88   64.99
   5  -1   4 1220.38   67.19
   5  -1   4 1211.28   63.89
  -5   1  -5  812.42   54.49
  -5   1  -5  781.92   44.90
  -5   1  -5  834.92   47.10
   5   1   5  851.31   50.79
   5   1   5  786.62   44.10
   5   1   5  853.11   46.90
   5   1   5  814.82   49.20
   5   1   5  816.92   45.70
  -5   1  -5  835.02   45.90
   5  -1   5  841.32   53.19
   5  -1   5  766.92   49.70
  -5  -1  -5  823.12   45.90
  -5  -1  -5  825.72   44.70
   5  -1   5  827.52   45.40
   5  -1   5  856.71   49.20
   5  -1   5  821.82   46.30
   5  -1   5  787.52   44.20
   5   1   6  117.29   18.80
  -5   1  -6  137.79   13.20
   5   1   6  134.49   12.60
   5   1   6  150.08   18.00
  -5   1  -6  149.79   14.40
  -5   1  -6  168.68   27.50
  -5   1  -6  160.08   16.40
  -5  -1  -6  166.58   13.70
   5  -1   6  135.19   20.50
  -5  -1  -6  154.28   15.80
   5  -1   6  146.99   13.70
   5   1   7  159.68   19.00
   5   1   7  178.68   21.20
  -5   1  -7  198.48   16.90
  -5   1  -7  162.88   19.80
   5   1   7  174.28   17.10
   5   1   7  181.58   24.90
   5  -1   7  217.68   17.40
   5  -1   7  152.38   29.00
   5  -1   7  180.48   26.60
  -5  -1  -7  170.98   15.80
   5  -1   7  146.39   20.10
  -5   1  -8    6.50    6.90
  -5   1  -8   -6.20   10.50
   5   1   8   -9.90   10.70
   5   1   8   18.50   16.20
   5   1   8   10.20    6.70
   5   1   8    9.80   16.40
  -5  -1  -8   12.00   10.10
   5  -1   8   -0.30   12.20
   5  -1   8    0.90   10.80
   5  -1   8  -12.30   20.90
  -5  -1  -8   17.00    7.60
   5  -1   8    6.10   18.10
   5  -1   8   -1.50    6.60
   5   1   9   26.00   16.10
  -5   1  -9   12.10    8.70
   5   1   9    3.50   14.00
   5   1   9   20.40    9.10
   5   1   9   -8.40   20.70
   5   1   9   31.40   21.10
  -5   1  -9   41.30   15.40
  -5  -1  -9   11.30   13.80
  -5  -1  -9   27.20    9.10
   5  -1   9   22.50   10.50
   5  -1   9   13.40   15.10
   5  -1   9   43.80   16.20
   5  -1   9   33.60   20.90
   5   1  10   39.50   12.70
   5   1  10   25.00   28.10
   5   1  10   56.59   27.70
   5   1  10   29.90   19.50
  -5   1 -10   44.20   12.70
   5  -1  10   30.60   34.30
  -5  -1 -10   33.40   12.10
   5  -1  10   25.60   27.90
   5  -1  10   10.90   19.50
   5  -1  10   27.60   13.60
   5   2 -10    5.30   32.30
  -5   2  10    5.20   11.60
  -5   2  10  -17.60   21.20
   5   2 -10  -17.50   12.10
   5   2 -10   -9.60   13.90
  -5   2  10    6.00   11.70
   5  -2 -10   11.50   27.50
  -5  -2  10  -64.29   27.10
   5  -2 -10   18.10   13.20
  -5  -2  10   12.40   12.60
  -5   2   9  385.66   40.10
  -5   2   9  414.56   35.70
  -5   2   9  331.27   28.30
   5   2  -9  395.76   34.20
   5   2  -9  467.65   50.99
  -5   2   9  350.36   30.80
   5   2  -9  382.46   33.70
  -5  -2   9  366.66   30.30
   5  -2  -9  303.87   43.30
  -5  -2   9  359.56   32.30
  -5  -2   9  402.16   48.40
   5  -2  -9  412.16   29.60
  -5  -2   9  398.36   32.30
  -5  -2   9  391.66   32.90
   5  -2  -9  397.76   33.20
  -5   2   8   -8.60   11.10
   5   2  -8    0.80   19.10
   5   2  -8   -1.90    8.30
   5   2  -8   -4.20    8.90
  -5   2   8    6.00    7.10
   5   2  -8   -4.70    8.80
  -5   2   8    2.60   10.20
  -5   2   8    9.40   13.10
  -5  -2   8   -1.90    8.10
  -5  -2   8   27.10   17.70
   5  -2  -8   18.60   17.30
   5  -2  -8   -0.20    8.30
  -5  -2   8    5.00   18.40
  -5  -2   8   -2.80    7.40
  -5  -2   8    3.30    8.80
   5   2  -7  979.60   74.39
  -5   2   7  954.70   53.29
   5   2  -7  960.90   55.49
  -5   2   7  959.70   56.09
   5   2  -7  986.90   57.79
  -5   2   7  884.71   57.49
   5   2  -7 1019.90   69.69
   5  -2  -7  936.11   65.39
  -5  -2   7  955.20   55.49
   5  -2  -7  916.91   52.89
  -5  -2   7  978.70   55.89
  -5  -2   7  957.00   65.69
   5  -2  -7  988.90   56.89
  -5  -2   7  967.70   57.29
  -5   2   6   21.00    6.10
  -5   2   6   11.90   10.50
   5   2  -6   20.50    8.50
   5   2  -6    8.60    8.00
   5   2  -6   -0.20   12.30
  -5   2   6    7.80    6.50
   5   2  -6   12.60    7.50
   5   2  -6    3.10    6.50
  -5   2   6    9.90    5.70
  -5  -2   6   12.00    5.80
   5  -2  -6   23.80    8.20
  -5  -2   6   16.70    6.80
  -5  -2   6   14.00    6.90
   5  -2  -6    5.70    6.60
   5  -2  -6   17.60    6.30
   5   2  -5  271.27   20.80
  -5   2   5  283.07   19.40
  -5   2   5  287.77   18.10
   5   2  -5  273.87   21.60
   5   2  -5  233.08   18.60
   5   2  -5  293.17   21.70
  -5   2   5  226.28   21.30
   5   2  -5  269.87   27.80
  -5   2   5  258.77   23.40
  -5   2   5  275.07   19.90
  -5  -2   5  256.67   18.20
  -5  -2   5  267.97   25.90
  -5  -2   5  283.97   19.40
  -5  -2   5  257.27   19.50
  -5  -2   5  279.47   20.70
   5  -2  -5  211.08   24.80
   5  -2  -5  268.77   18.00
   5  -2  -5  255.67   20.20
   5  -2  -5  228.48   20.00
  -5   2   4   14.30    4.70
   5   2  -4    6.80    5.10
  -5   2   4   10.40    4.80
  -5   2   4   13.10    7.40
   5   2  -4    7.70    5.20
   5   2  -4    8.40    4.80
  -5   2   4    5.00    7.10
  -5   2   4   11.70    3.60
   5   2  -4    6.60    8.50
   5   2  -4    7.30    4.10
   5  -2  -4    9.60    6.20
  -5  -2   4   10.30    4.20
   5  -2  -4   15.00    8.80
   5  -2  -4    8.60    3.80
   5  -2  -4   11.50    5.00
  -5  -2   4    5.90    7.20
  -5  -2   4   11.40    5.50
  -5  -2   4   11.40    4.50
  -5  -2   4    6.60    4.80
   5   2  -3  406.46   26.90
  -5   2   3  399.06   28.50
   5   2  -3  405.36   24.60
   5   2  -3  457.55   26.70
  -5   2   3  404.96   24.40
  -5   2   3  440.96   25.30
  -5   2   3  424.86   24.20
   5   2  -3  384.96   30.60
   5   2  -3  394.66   26.00
  -5   2   3  425.86   29.50
   5  -2  -3  412.26   24.80
   5  -2  -3  449.76   27.40
  -5  -2   3  431.56   26.00
  -5  -2   3  416.96   24.70
   5  -2  -3  394.46   30.40
  -5  -2   3  435.06   25.10
   5  -2  -3  440.06   25.70
  -5  -2   3  387.36   30.30
   5   2  -2    5.80    3.60
   5   2  -2    6.90    2.80
  -5   2   2    6.80    2.90
   5   2  -2    6.80    6.20
  -5   2   2   12.10    3.90
  -5   2   2   12.40    5.40
  -5   2   2    7.20    3.70
   5   2  -2    9.60    4.70
  -5   2   2    1.30    6.00
   5   2  -2   17.60    5.20
   5  -2  -2    9.00    5.00
  -5  -2   2    7.90    3.70
   5  -2  -2    5.60    3.50
   5  -2  -2    7.00    3.50
   5  -2  -2   19.90    8.70
  -5  -2   2    7.70    5.60
  -5  -2   2    5.30    2.50
  -5  -2   2    3.30    3.80
   5   2  -1 2321.97  114.99
  -5   2   1 2473.25  116.29
  -5   2   1 2332.17  117.99
  -5   2   1 2427.56  116.89
   5   2  -1 2300.47  120.09
  -5   2   1 2412.06  122.79
   5   2  -1 2362.16  117.69
   5   2  -1 2475.65  116.99
   5   2  -1 2298.67  115.89
  -5   2   1 2215.88  113.89
   5  -2  -1 2259.87  115.19
  -5  -2   1 2372.06  114.69
  -5  -2   1 2334.57  115.49
   5  -2  -1 2327.57  122.49
   5  -2  -1 2168.18  116.09
   5  -2  -1 2363.66  118.59
   5  -2  -1 1975.90  115.69
  -5  -2   1 2460.75  119.39
  -5  -2   1 2431.46  116.89
  -5   2   0  164.78   10.20
  -5   2   0  177.58   13.80
   5   2   0  108.69   11.60
   5   2   0  169.28   11.10
  -5   2   0  137.19   12.20
   5   2   0  158.48   14.80
  -5   2   0  136.29   11.30
   5   2   0  157.58   12.30
  -5   2   0  171.48   17.30
   5  -2   0  157.18   13.70
   5  -2   0  149.19   11.90
   5  -2   0  147.19   10.20
   5  -2   0  152.58   11.90
   5  -2   0  166.18   11.70
   5  -2   0  144.89   16.60
  -5  -2   0  117.49   11.40
  -5  -2   0  142.39   10.50
  -5  -2   0  163.68   10.80
  -5  -2   0  136.59   14.50
   5   2   1 3910.51  204.18
  -5   2  -1 4366.86  212.28
   5   2   1 4309.37  205.58
  -5   2  -1 4364.06  203.38
  -5   2  -1 4411.26  207.98
  -5   2  -1 4338.87  205.48
  -5   2  -1 4386.26  205.98
  -5  -2  -1 4372.86  206.78
   5  -2   1 4298.07  206.78
   5  -2   1 4165.38  204.98
  -5  -2  -1 4118.79  204.28
  -5  -2  -1 4177.78  204.08
   5  -2   1 3682.03  202.98
   5  -2   1 4211.88  210.88
   5  -2   1 4317.47  208.28
  -5  -2  -1 3756.02  207.98
   5  -2   1 4178.08  206.18
   5   2   2   16.40    4.00
  -5   2  -2    9.60    4.80
   5   2   2    4.30    6.40
   5   2   2   13.40    4.30
   5   2   2   11.90    4.60
  -5   2  -2   18.70    4.30
  -5   2  -2    9.30    4.10
  -5   2  -2    3.30    6.20
   5   2   2   15.90    4.40
   5  -2   2   21.10    6.10
   5  -2   2   20.10    6.20
  -5  -2  -2   23.30    4.50
  -5  -2  -2    8.20    6.20
   5  -2   2   15.70    3.20
  -5  -2  -2    9.40    3.10
   5  -2   2    6.50    7.00
   5  -2   2   12.20    3.70
   5  -2   2    7.50    3.70
   5   2   3  279.07   21.30
   5   2   3  254.07   19.30
  -5   2  -3  300.17   26.20
  -5   2  -3  284.27   20.10
  -5   2  -3  283.97   18.60
  -5   2  -3  303.17   19.90
   5   2   3  268.57   18.70
  -5   2  -3  307.87   21.00
   5   2   3  269.77   16.50
   5  -2   3  261.77   20.70
   5  -2   3  280.97   16.00
   5  -2   3  293.57   24.80
  -5  -2  -3  282.07   17.10
   5  -2   3  299.17   20.70
   5  -2   3  287.37   18.40
   5  -2   3  286.97   21.20
  -5  -2  -3  254.17   17.20
  -5  -2  -3  287.37   22.00
  -5   2  -4   73.19   14.80
   5   2   4   22.50    5.70
   5   2   4   39.70   10.10
  -5   2  -4   59.19    9.50
   5   2   4   30.80    5.20
   5   2   4   17.70    5.80
   5  -2   4   30.40    7.90
  -5  -2  -4   39.50    5.70
   5  -2   4   69.59   10.80
  -5  -2  -4   16.10    9.00
  -5  -2  -4   30.70    6.20
  -5   2  -5  371.26   24.50
  -5   2  -5  385.96   25.40
  -5   2  -5  365.46   34.10
   5   2   5  392.76   22.40
   5   2   5  401.76   28.70
  -5   2  -5  336.47   26.50
  -5   2  -5  375.76   26.20
   5   2   5  361.46   24.60
   5  -2   5  397.66   27.80
   5  -2   5  350.46   27.60
  -5  -2  -5  361.96   22.10
   5  -2   5  365.26   22.00
   5  -2   5  329.37   23.50
  -5  -2  -5  341.37   29.50
   5  -2   5  365.16   31.90
  -5  -2  -5  344.87   23.70
   5  -2   5  380.16   27.70
  -5   2  -6    6.30    5.30
   5   2   6   15.70    5.40
   5   2   6   -1.40   10.10
   5   2   6    5.90    9.20
  -5   2  -6   13.40    7.20
  -5   2  -6   13.10    6.20
  -5   2  -6  -13.20   15.30
  -5   2  -6    1.00    7.50
   5   2   6    7.40    7.10
   5   2   6   19.90    7.10
   5  -2   6   20.00   12.60
   5  -2   6   16.80    5.80
   5  -2   6   -8.10    7.40
  -5  -2  -6    6.40    4.50
  -5  -2  -6    8.90    6.60
   5  -2   6   19.60    6.60
  -5   2  -7  224.48   31.50
   5   2   7  211.48   17.00
   5   2   7  190.18   27.60
  -5   2  -7  190.98   18.00
   5   2   7  187.48   25.00
   5   2   7  172.28   20.30
   5   2   7  189.28   18.40
  -5   2  -7  192.28   22.30
   5   2   7  158.68   21.80
  -5   2  -7  245.38   22.30
  -5  -2  -7  192.68   19.50
   5  -2   7  129.29   19.30
   5  -2   7  174.88   30.30
   5  -2   7  185.98   28.70
   5  -2   7  186.98   17.80
  -5  -2  -7  171.28   15.50
   5   2   8   -5.30   11.20
   5   2   8    0.20   16.50
   5   2   8    8.40    6.60
  -5   2  -8   22.60    7.90
   5   2   8    7.90   16.10
  -5   2  -8   13.10    8.10
   5   2   8    9.20   12.10
  -5   2  -8   16.70   12.70
   5  -2   8    4.00    7.50
   5  -2   8   -4.10   13.50
   5  -2   8   10.60   19.60
  -5  -2  -8   10.20    6.90
   5  -2   8   30.20   21.50
  -5   2  -9  192.98   26.90
   5   2   9  109.09   20.10
   5   2   9  172.78   18.30
   5   2   9  145.59   28.50
   5   2   9  155.28   33.20
  -5   2  -9  156.58   20.70
   5   2   9  181.78   23.60
   5  -2   9  199.08   62.49
   5  -2   9  152.08   35.60
  -5  -2  -9  152.18   18.30
  -5  -2  -9  139.29   24.10
   5  -2   9  133.49   24.50
   5  -2   9  190.88   21.30
   5   2  10   11.10   19.60
   5   2  10   11.60   11.60
  -5   2 -10    1.20   11.50
   5   2  10   30.50   27.30
   5  -2  10   56.29   32.40
  -5  -2 -10   -1.40   10.20
   5  -2  10   20.70   50.09
   5  -2  10   14.40   12.50
  -5   3  10   49.70   15.90
   5   3 -10   77.69   20.10
  -5   3  10   68.39   15.60
  -5  -3  10  112.09   21.30
  -5  -3  10   50.49   37.60
   5  -3 -10   71.59   18.00
  -5   3   9   29.50   20.60
  -5   3   9   -1.30   18.30
  -5   3   9  -15.70   10.60
   5   3  -9   14.70   13.60
   5   3  -9   14.40   12.40
   5   3  -9   10.30   31.20
   5  -3  -9   10.20   22.20
  -5  -3   9   25.80   13.30
  -5  -3   9   16.30   12.70
   5  -3  -9   27.30   12.50
  -5  -3   9   19.70   29.20
   5   3  -8   -7.30   23.30
   5   3  -8  -12.50    9.40
  -5   3   8    5.30    7.90
  -5   3   8    1.60   14.20
  -5   3   8    8.40    9.10
  -5   3   8    3.80   12.40
   5   3  -8    1.60   11.60
   5   3  -8    8.70   11.00
  -5  -3   8   10.50   11.00
  -5  -3   8   20.20   12.20
  -5  -3   8   18.30   21.90
   5  -3  -8   -7.90    8.70
  -5  -3   8   15.10   11.30
  -5  -3   8   22.30    8.90
   5  -3  -8    8.60    9.50
   5  -3  -8   14.10   18.90
   5   3  -7    2.20    8.70
  -5   3   7    4.80    5.90
   5   3  -7    7.30   10.80
   5   3  -7    5.40    8.50
   5   3  -7  -31.00   16.70
  -5   3   7   13.10   11.80
  -5   3   7   11.80   10.00
  -5   3   7    9.00    7.40
  -5  -3   7    5.60    9.40
  -5  -3   7  -10.90   13.90
  -5  -3   7   16.50   17.00
   5  -3  -7   -1.80   14.90
   5  -3  -7   10.50    8.20
   5  -3  -7    3.00    7.10
  -5  -3   7    8.10    8.80
   5   3  -6  420.56   28.60
   5   3  -6  392.06   29.60
  -5   3   6  410.96   32.90
  -5   3   6  370.76   25.00
   5   3  -6  383.16   32.00
   5   3  -6  428.26   31.00
   5   3  -6  391.16   39.00
  -5   3   6  440.26   29.20
  -5   3   6  414.36   29.30
  -5  -3   6  404.26   29.40
  -5  -3   6  458.55   29.20
   5  -3  -6  373.86   30.50
   5  -3  -6  379.46   28.20
  -5  -3   6  405.76   29.80
   5  -3  -6  396.26   36.40
  -5  -3   6  414.96   26.50
  -5  -3   6  437.46   37.80
  -5   3   5  255.67   18.30
   5   3  -5  255.87   21.80
  -5   3   5  278.17   21.50
   5   3  -5  288.67   20.60
  -5   3   5  257.27   19.80
  -5   3   5  264.57   24.30
   5   3  -5  286.67   30.10
   5   3  -5  292.37   23.10
   5   3  -5  288.77   24.10
   5  -3  -5  285.47   19.50
  -5  -3   5  284.47   20.10
   5  -3  -5  296.07   21.10
  -5  -3   5  267.47   21.70
   5  -3  -5  284.97   22.10
  -5  -3   5  264.47   21.60
  -5  -3   5  258.27   27.40
   5  -3  -5  272.67   27.60
  -5   3   4  930.11   52.49
  -5   3   4 1007.60   51.79
  -5   3   4  815.32   56.99
   5   3  -4  936.01   61.69
  -5   3   4  953.10   56.39
   5   3  -4 1057.39   54.99
   5   3  -4 1008.00   52.99
   5   3  -4  982.10   56.69
  -5   3   4  983.20   52.69
   5   3  -4 1029.60   55.69
   5  -3  -4 1003.20   55.09
  -5  -3   4  988.00   55.19
  -5  -3   4 1067.29   60.39
  -5  -3   4  945.61   52.59
  -5  -3   4 1038.70   53.49
   5  -3  -4  888.01   52.69
   5  -3  -4  956.20   53.09
   5   3  -3  405.56   24.20
  -5   3   3  409.86   24.50
   5   3  -3  412.36   26.30
  -5   3   3  391.46   30.30
  -5   3   3  361.46   23.40
   5   3  -3  429.96   26.50
  -5   3   3  362.66   24.30
   5   3  -3  369.46   27.30
  -5   3   3  390.96   26.80
   5   3  -3  372.66   30.80
  -5  -3   3  379.46   25.20
   5  -3  -3  416.06   25.00
  -5  -3   3  405.16   24.00
   5  -3  -3  398.26   24.50
   5  -3  -3  388.86   30.40
  -5  -3   3  421.36   25.80
  -5  -3   3  445.86   30.50
   5  -3  -3  401.96   27.20
   5   3  -2  351.46   20.70
   5   3  -2  316.77   26.30
  -5   3   2  305.97   23.30
   5   3  -2  336.47   24.30
   5   3  -2  337.67   22.10
  -5   3   2  383.86   22.30
   5   3  -2  337.87   22.90
  -5   3   2  353.36   21.40
  -5   3   2  330.97   27.40
  -5   3   2  349.77   19.90
   5  -3  -2  390.36   29.20
   5  -3  -2  330.47   24.50
  -5  -3   2  359.26   22.40
  -5  -3   2  367.66   25.90
   5  -3  -2  274.87   22.40
  -5  -3   2  321.77   19.90
  -5  -3   2  333.37   21.50
   5  -3  -2  384.46   22.20
  -5   3   1   50.89    9.30
   5   3  -1   63.09    7.70
   5   3  -1   65.99    8.90
  -5   3   1   58.99    5.40
  -5   3   1   51.89    7.90
  -5   3   1   39.90   10.80
   5   3  -1   55.49    6.30
  -5   3   1   66.89    8.50
   5   3  -1   58.19    9.30
  -5  -3   1   56.89    5.60
   5  -3  -1   36.00    6.50
  -5  -3   1   73.19   10.50
   5  -3  -1   52.39   12.40
   5  -3  -1   47.00    8.80
  -5  -3   1   44.80    6.40
  -5  -3   1   31.70    6.60
  -5   3   0    8.10    7.50
  -5   3   0   16.80    4.60
   5   3   0   18.80    5.30
  -5   3   0    9.00    4.90
   5   3   0   18.30    6.50
  -5   3   0   23.10    7.00
   5   3   0   13.60    3.70
   5   3   0   17.20    4.40
   5   3   0   12.50    5.60
   5  -3   0    4.40    7.80
  -5  -3   0   10.20    4.80
   5  -3   0    6.10    4.40
   5  -3   0   11.00    3.90
  -5  -3   0    9.30    7.40
   5  -3   0   21.80    6.90
  -5   3  -1  187.68   13.90
  -5   3  -1  191.08   14.70
   5   3   1  191.28   15.80
  -5   3  -1  199.08   20.00
  -5   3  -1  199.28   16.80
   5   3   1  203.98   14.90
  -5   3  -1  190.28   15.20
  -5  -3  -1  187.48   15.20
   5  -3   1  171.58   17.40
   5  -3   1  201.88   19.90
  -5  -3  -1  207.08   16.60
   5  -3   1  172.38   15.20
   5  -3   1  200.98   14.00
   5  -3   1  186.68   14.70
  -5   3  -2  792.52   45.30
  -5   3  -2  767.82   46.10
   5   3   2  796.82   43.50
  -5   3  -2  785.52   44.40
  -5   3  -2  794.32   51.09
  -5   3  -2  833.22   43.60
   5   3   2  839.62   45.20
   5  -3   2  796.62   45.90
   5  -3   2  782.62   47.50
   5  -3   2  810.22   49.50
  -5  -3  -2  751.62   43.90
   5  -3   2  847.62   45.40
   5  -3   2  734.73   43.00
   5   3   3  615.94   36.20
  -5   3  -3  601.04   44.40
  -5   3  -3  624.94   38.70
  -5   3  -3  609.54   37.30
  -5   3  -3  631.04   36.00
  -5   3  -3  602.94   38.40
   5   3   3  729.73   38.70
   5  -3   3  610.34   42.50
   5  -3   3  624.54   40.60
  -5  -3  -3  617.64   37.50
   5  -3   3  677.43   43.70
   5  -3   3  606.34   38.00
   5  -3   3  632.84   35.70
  -5   3  -4  891.41   49.20
  -5   3  -4  940.71   52.79
   5   3   4  863.11   49.40
  -5   3  -4  873.71   51.39
  -5   3  -4  838.62   58.79
   5   3   4  838.92   50.39
  -5   3  -4  890.21   50.99
   5  -3   4  899.31   52.89
   5  -3   4  859.11   56.89
   5  -3   4  906.41   54.19
   5  -3   4  911.81   48.90
   5   3   5  101.29   13.40
  -5   3  -5  141.69   17.00
  -5   3  -5  139.89   16.10
   5   3   5  137.49   17.10
  -5   3  -5  135.59   17.30
  -5   3  -5  135.79   13.60
   5   3   5  135.89   14.60
  -5   3  -5   76.29   22.00
   5  -3   5  172.28   24.50
   5  -3   5  144.09   13.60
   5  -3   5  145.59   10.20
   5   3   6   83.49   17.00
   5   3   6   97.09   12.80
  -5   3  -6  111.69   15.70
  -5   3  -6  130.39   17.50
  -5   3  -6  102.79   16.90
   5   3   6  110.09   17.30
   5   3   6  103.69   10.30
  -5   3  -6  111.19   14.70
   5   3   6   89.39   13.30
   5  -3   6  117.09   13.40
   5  -3   6  109.59   17.40
  -5  -3  -6   85.69   11.70
   5  -3   6   79.39   14.90
   5  -3   6  122.19   31.10
   5  -3   6   97.59   10.20
  -5   3  -7   10.80   12.20
   5   3   7  -14.30   13.10
  -5   3  -7    4.60    9.00
   5   3   7   17.90    6.60
   5   3   7  -31.60   12.50
   5   3   7   19.20    8.80
  -5   3  -7   -2.40    9.60
   5   3   7   23.00   12.50
   5   3   7   19.80   10.10
  -5   3  -7   15.80    7.80
   5  -3   7   23.10   18.90
   5  -3   7    6.60   23.30
   5  -3   7   -9.10   12.10
   5  -3   7    8.10   12.00
   5  -3   7    0.70    7.40
   5  -3   7   11.50    6.20
   5   3   8   20.30   17.40
  -5   3  -8    3.60    8.40
   5   3   8    0.70   12.30
   5   3   8    4.70   17.40
  -5   3  -8   24.40   12.80
  -5   3  -8   -2.20    9.30
   5   3   8   14.90   13.70
   5   3   8    7.90    9.50
   5  -3   8    9.00   11.00
   5  -3   8    0.50    7.70
  -5  -3  -8    8.70    7.70
   5  -3   8    9.90    9.20
  -5  -3  -8   -5.20   13.50
   5  -3   8  -21.00   21.50
   5  -3   8   12.40   28.90
   5   3   9   50.99   17.60
   5   3   9   29.40   17.10
   5   3   9   30.80   13.10
  -5   3  -9   35.00   12.10
   5   3   9   17.30   24.80
  -5   3  -9   29.20   14.10
  -5   3  -9   31.50   12.70
   5   3   9   37.40    9.60
   5  -3   9    0.70   29.20
   5  -3   9   44.70   26.00
   5  -3   9    9.20   35.30
  -5  -3  -9   33.50   10.60
   5  -3   9   25.10   13.40
   5   4  -9   15.70   16.90
  -5   4   9   -8.30   13.40
   5   4  -9   33.00   16.30
  -5   4   9   14.30   11.30
   5   4  -9   22.00   31.60
   5  -4  -9  -19.60   13.60
  -5  -4   9   34.20   21.10
  -5  -4   9    8.10   15.30
  -5  -4   9   -1.20   50.69
  -5   4   8  100.89   23.80
   5   4  -8  232.78   28.90
   5   4  -8  182.38   24.40
  -5   4   8  145.19   19.10
  -5   4   8  221.08   26.10
  -5   4   8  164.08   18.70
   5   4  -8  150.88   22.30
  -5  -4   8  221.08   24.20
   5  -4  -8  132.09   18.50
  -5  -4   8  178.78   22.80
  -5  -4   8  189.78   34.60
   5  -4  -8  177.28   22.10
   5  -4  -8  153.98   29.90
  -5   4   7   82.29   14.20
   5   4  -7   86.99   16.50
  -5   4   7   29.80   21.20
  -5   4   7   81.49   11.70
   5   4  -7  102.09   16.80
  -5   4   7  135.19   18.70
   5   4  -7  100.69   31.20
   5   4  -7   62.59   16.20
  -5  -4   7  100.09   14.70
  -5  -4   7   94.49   25.30
   5  -4  -7   91.89   14.70
   5  -4  -7   70.29   12.50
  -5  -4   7  119.69   27.30
  -5  -4   7   80.19   15.60
   5   4  -6  362.16   29.90
  -5   4   6  336.97   24.00
   5   4  -6  424.16   28.50
   5   4  -6  385.56   45.20
  -5   4   6  329.67   32.20
   5   4  -6  361.26   32.20
  -5   4   6  363.96   28.80
   5   4  -6  379.96   28.80
  -5   4   6  348.77   26.20
   5  -4  -6  345.97   27.10
  -5  -4   6  377.06   29.70
  -5  -4   6  336.07   27.10
   5  -4  -6  326.47   26.70
   5  -4  -6  337.97   34.30
  -5  -4   6  378.96   29.60
  -5  -4   6  383.36   36.90
  -5   4   5   -8.70   11.40
  -5   4   5    5.80    6.60
   5   4  -5   -6.80   16.20
   5   4  -5   11.40    8.30
   5   4  -5    0.50    7.20
   5   4  -5   23.20    9.70
  -5   4   5    6.70    8.70
  -5   4   5   33.50   12.50
  -5   4   5    6.40    7.10
   5   4  -5    8.50    7.00
  -5  -4   5   18.00   13.90
  -5  -4   5   36.30    9.70
  -5  -4   5    2.00    8.30
  -5  -4   5   15.40    8.90
   5  -4  -5   14.30    7.20
   5  -4  -5    5.10   10.40
   5  -4  -5   30.10   14.20
  -5  -4   5    1.00    6.30
  -5   4   4    8.80    5.30
   5   4  -4   -3.60    5.30
   5   4  -4   -3.30   12.80
   5   4  -4    4.50    6.90
   5   4  -4    2.90    6.60
  -5   4   4    4.70    5.50
   5   4  -4    0.10    7.80
  -5   4   4    2.50    8.30
  -5   4   4    1.20    6.50
  -5  -4   4    2.40   10.80
   5  -4  -4    0.30    5.60
   5  -4  -4    4.60   10.40
  -5  -4   4    7.60    7.20
  -5  -4   4   -3.00    6.60
   5  -4  -4    5.70    6.00
   5  -4  -4   -6.40    9.40
   5   4  -3   58.99   12.60
  -5   4   3   91.39   10.10
   5   4  -3   76.99   17.10
  -5   4   3   71.09    9.50
  -5   4   3   93.59   10.10
   5   4  -3  103.39   12.40
   5   4  -3   98.49   13.10
  -5   4   3   84.69   12.70
   5   4  -3   95.79   10.60
  -5  -4   3   75.89   10.40
  -5  -4   3  104.59   20.20
   5  -4  -3   84.69   15.50
  -5  -4   3   87.69    9.80
   5  -4  -3   65.79    9.70
   5  -4  -3   84.79   10.50
  -5  -4   3   83.09   11.30
   5  -4  -3   74.99   13.80
   5   4  -2  613.54   37.60
   5   4  -2  600.94   34.80
   5   4  -2  652.43   40.70
  -5   4   2  626.94   33.60
   5   4  -2  646.34   42.70
  -5   4   2  662.53   36.10
  -5   4   2  634.34   39.70
   5   4  -2  664.43   37.30
  -5   4   2  641.54   36.30
  -5  -4   2  541.75   36.60
   5  -4  -2  658.43   43.50
  -5  -4   2  635.74   34.10
  -5  -4   2  699.23   40.40
   5  -4  -2  625.34   36.00
   5  -4  -2  658.23   41.20
   5  -4  -2  641.34   36.20
  -5   4   1   35.70    7.00
   5   4  -1   45.40    7.90
   5   4  -1   36.70    9.40
   5   4  -1   32.30   10.20
  -5   4   1   57.39   11.00
  -5   4   1   38.20    7.40
  -5  -4   1   38.40    9.30
   5  -4  -1   38.10    6.80
   5  -4  -1   39.20   12.90
   5  -4  -1   30.70   10.60
   5  -4  -1   48.60    7.90
  -5  -4   1   45.90    8.40
   5   4   0 1406.96   73.49
  -5   4   0 1443.56   77.09
   5   4   0 1403.36   76.19
  -5   4   0 1466.65   74.29
  -5   4   0 1429.26   73.09
   5   4   0 1352.66   73.99
   5  -4   0 1280.47   72.79
  -5  -4   0 1311.27   73.79
   5  -4   0 1357.56   79.89
   5  -4   0 1470.65   72.59
   5  -4   0 1411.86   78.29
  -5  -4   0 1460.55   73.89
  -5   4  -1   34.10    7.70
   5   4   1   47.90    8.30
  -5   4  -1   39.90    7.70
  -5   4  -1   38.50    8.30
   5   4   1   44.60    9.30
  -5   4  -1   30.00   14.20
   5   4   1   29.60    7.00
  -5   4  -1   25.10    9.10
   5  -4   1   22.70    7.50
   5  -4   1   21.50   12.80
   5  -4   1   32.10    6.90
   5  -4   1   24.60    8.00
   5  -4   1   28.00   12.70
  -5  -4  -1   32.80    6.60
  -5   4  -2  670.43   43.10
  -5   4  -2  728.03   39.50
   5   4   2  692.73   39.70
  -5   4  -2  727.73   41.30
   5   4   2  723.93   42.10
  -5   4  -2  710.23   41.90
   5  -4   2  676.23   46.40
   5  -4   2  656.63   39.20
   5  -4   2  648.14   45.10
   5  -4   2  682.83   42.20
  -5   4  -3   94.89   11.70
  -5   4  -3  120.09   14.90
  -5   4  -3  131.79   16.20
   5   4   3  122.09   12.90
   5  -4   3   99.79   18.50
   5  -4   3  136.09   17.70
   5  -4   3  135.29   12.10
  -5   4  -4    3.60    8.10
  -5   4  -4   -5.80    4.80
   5   4   4   -0.10    6.00
   5   4   4   -4.50    7.40
  -5   4  -4   12.50   16.60
  -5   4  -4    7.80    8.50
  -5   4  -4   -5.60    8.10
   5   4   4    5.40    6.20
   5  -4   4  -17.00   12.50
   5  -4   4    1.40    5.20
   5   4   5   26.10    9.20
  -5   4  -5   27.00   10.40
  -5   4  -5   13.10   11.00
  -5   4  -5   36.90    8.80
  -5   4  -5   27.80   10.10
   5   4   5    7.20   11.30
   5   4   5   23.00    8.80
   5  -4   5   39.60   14.10
   5  -4   5   20.80   14.10
   5  -4   5   51.69    9.40
   5  -4   5    9.70   16.30
   5   4   6  174.38   18.70
   5   4   6  142.39   25.90
  -5   4  -6  203.28   22.20
  -5   4  -6  179.88   23.00
  -5   4  -6  186.98   23.00
  -5   4  -6  123.69   16.40
   5   4   6  166.28   19.30
   5  -4   6  153.08   24.30
   5  -4   6  156.78   22.40
   5  -4   6  120.89   27.00
   5  -4   6  136.59   34.70
   5  -4   6  139.79   16.90
  -5   4  -7   -0.10   12.60
   5   4   7    7.00    9.70
  -5   4  -7   36.80   16.80
   5   4   7   24.00   14.40
  -5   4  -7   10.70    8.50
   5   4   7   21.00   13.80
  -5   4  -7  -16.90   10.20
   5  -4   7  -10.20    9.10
   5  -4   7    7.50   22.10
   5  -4   7   23.60   30.50
  -5   4  -8  159.08   26.60
  -5   4  -8  227.38   27.40
   5   4   8  246.48   26.00
  -5   4  -8  227.38   28.70
   5   4   8  258.17   33.10
   5   4   8  124.59   27.80
  -5   4  -8  223.78   30.30
   5  -4   8  223.08   24.00
   5  -4   8  285.17   41.30
   5  -4   8  247.08   18.10
   5  -4   8  213.48   20.90
   5  -4   8  205.38   49.00
   5   5  -7    6.70   15.90
  -5   5   7   -4.80   17.30
   5   5  -7   -7.00   14.10
  -5  -5   7  -15.50   13.50
  -5  -5   7  -21.20   24.60
  -5  -5   7    8.90   16.10
  -5   5   6   30.00   17.40
   5   5  -6   29.60   14.20
   5   5  -6   55.29   13.30
   5   5  -6   34.40   13.40
  -5   5   6   22.30   14.10
   5   5  -6   22.60   14.50
  -5  -5   6    8.90   11.90
   5  -5  -6   15.10   17.20
  -5  -5   6  -17.00   22.30
  -5  -5   6   43.20   26.80
  -5  -5   6   31.50   14.90
   5   5  -5  225.98   27.40
  -5   5   5  147.79   24.60
  -5   5   5  167.08   21.80
   5   5  -5  220.28   23.30
   5   5  -5  217.58   22.60
   5   5  -5  215.88   20.30
  -5   5   5  198.48   21.70
  -5  -5   5  193.38   27.70
  -5  -5   5  225.28   20.90
  -5  -5   5  171.08   21.50
   5   5  -4  222.68   21.10
  -5   5   4  178.68   24.30
   5   5  -4  187.48   18.00
   5   5  -4  195.88   20.90
  -5   5   4  209.78   18.80
   5   5  -4  208.58   25.00
  -5   5   4  206.38   25.10
   5  -5  -4  180.08   23.40
  -5  -5   4  207.38   17.80
  -5  -5   4  211.38   20.30
  -5  -5   4  263.57   28.40
  -5  -5   4  176.28   20.50
  -5   5   3  500.45   29.50
  -5   5   3  465.45   28.10
  -5   5   3  450.05   45.90
   5   5  -3  439.76   36.10
   5   5  -3  505.25   32.30
  -5   5   3  429.36   35.20
  -5  -5   3  522.15   32.40
  -5  -5   3  473.55   35.60
   5  -5  -3  529.05   37.00
   5  -5  -3  446.56   38.80
  -5   5   2  103.49   12.30
   5   5  -2   95.99   12.90
  -5   5   2   65.39   15.00
  -5   5   2   78.29   14.50
   5   5  -2   64.19   14.20
   5  -5  -2   85.89   18.60
   5  -5  -2   96.79   17.10
  -5  -5   2   95.79   13.40
  -5  -5   2   68.49   13.30
  -5   5   1   74.29   10.60
   5   5  -1   84.49   15.00
  -5   5   1   62.59   15.40
  -5   5   1   88.49   15.00
  -5   5   1   80.99   11.00
   5   5  -1   59.09   10.70
  -5  -5   1   95.89   12.70
   5  -5  -1   63.79   17.00
   5  -5  -1   92.69   11.10
   5  -5  -1   93.89   18.50
  -5  -5   1   69.59   12.00
  -5  -5   1   93.99   13.20
  -5   5   0    2.30   11.60
  -5   5   0    1.30    7.60
   5   5   0    8.70    7.40
  -5   5   0    2.10    7.10
   5   5   0   13.20    9.20
  -5   5   0   -4.60    8.70
   5  -5   0    1.10   12.70
   5  -5   0    0.10    6.10
   5  -5   0    2.80   14.60
  -5   5  -1   52.89   16.60
  -5   5  -1   34.70    9.10
   5   5   1   46.20   10.30
  -5   5  -1   41.30   10.40
  -5   5  -1   36.60   10.30
   5   5   1   42.20   12.10
  -5   5  -1   35.60   11.30
   5  -5   1   34.10   26.50
   5  -5   1   29.00   16.10
   5  -5   1   42.20    8.40
   5  -5   1   27.30   10.20
   5  -5   1   53.79   11.70
  -5   5  -2   91.69   14.30
   5   5   2   94.59   12.70
  -5   5  -2   78.19   11.30
  -5   5  -2   87.19   15.50
  -5   5  -2   81.59   20.60
  -5   5  -2  101.99   14.60
   5   5   2  100.39   15.20
   5  -5   2   83.69   14.50
   5  -5   2   69.99   17.70
   5  -5   2  111.69   13.00
  -5   5  -3  341.77   37.40
  -5   5  -3  336.97   23.60
  -5   5  -3  330.97   29.00
  -5   5  -3  324.07   29.00
   5   5   3  362.06   25.20
  -5   5  -3  314.97   27.80
   5  -5   3  325.37   22.80
   5  -5   3  295.07   33.50
   5  -5   3  284.67   33.10
  -5   5  -4  146.99   15.40
   5   5   4  111.59   17.90
  -5   5  -4  118.79   19.00
  -5   5  -4   99.99   18.00
  -5   5  -4  148.79   20.80
   5   5   4  144.09   16.70
   5  -5   4   69.19   22.00
   5  -5   4  120.29   19.80
   5  -5   4  146.69   20.30
   5  -5   4  130.19   14.90
  -5   5  -5  354.16   31.40
  -5   5  -5  267.17   22.50
   5   5   5  290.97   26.10
   5   5   5  226.08   23.60
  -5   5  -5  260.67   30.70
  -5   5  -5  248.48   27.90
   5  -5   5  315.27   42.80
   5  -5   5  273.27   22.60
   5  -5   5  237.08   30.00
   5   5   6   21.70   11.10
  -5   5  -6    6.50   18.30
  -5   5  -6   19.30   15.40
  -5   5  -6    9.60   14.70
  -5   5  -6   25.50   10.10
   5  -5   6   39.70   25.10
   5  -5   6   13.60   10.40
   5  -5   6   -3.10   31.00
  -5   5  -7   11.40   11.60
   5   5   7   11.70   19.80
  -5   5  -7   42.20   24.10
   5   5   7   31.30   14.60
  -5   5  -7   28.20   16.90
   5  -5   7  -23.20   37.80
   5  -5   7   70.39   41.60
   5   6  -5   26.00   13.00
   5   6  -5   36.90   21.10
   5   6  -5  -30.50   19.00
  -5   6   5   38.40   14.30
   5   6  -5   14.10   14.10
  -5   6   5    1.80   18.00
   5   6  -5   15.80   17.50
  -5  -6   5   63.49   25.50
  -5  -6   5   16.20   19.40
  -5   6   4   25.20   10.90
   5   6  -4   17.10   12.70
  -5   6   4    9.60   15.30
   5   6  -4   22.60   18.60
  -5   6   4    7.10   26.50
  -5  -6   4   19.90   19.50
   5  -6  -4   13.80   16.50
  -5   6   3   87.69   18.50
   5   6  -3   72.39   13.90
   5   6  -3   87.09   18.60
   5   6  -3   47.40   19.10
  -5   6   3   50.89   16.40
  -5  -6   3   98.09   18.20
   5  -6  -3   61.99   17.20
  -5  -6   3   65.39   18.50
  -5  -6   3   75.99   26.40
   5   6  -2  -24.30   13.90
  -5   6   2   -0.50   14.10
  -5   6   2   17.00   14.50
   5   6  -2   14.20   11.00
   5   6  -2  -18.70   14.70
   5  -6  -2   12.10   15.30
  -5  -6   2   -6.60   12.20
  -5  -6   2    5.80   12.40
   5   6  -1  190.78   25.80
  -5   6   1  166.78   22.80
   5   6  -1  166.58   23.60
   5   6  -1  198.38   22.20
  -5   6   1  173.68   23.70
   5  -6  -1  160.78   24.00
   5   6   0   57.99   12.70
   5   6   0   49.20   17.10
  -5   6   0   91.69   18.00
   5   6   0   85.39   18.00
  -5   6   0   93.09   21.30
   5  -6   0   47.30   19.70
  -5   6  -1  208.48   27.50
   5   6   1  173.88   24.20
   5   6   1  241.88   26.80
  -5   6  -1  229.98   24.30
  -5   6  -1  166.88   20.60
  -5   6  -1  212.68   21.00
   5   6   1  217.48   21.90
   5  -6   1  170.58   27.10
   5  -6   1  239.78   26.30
   5   6   2   28.00   12.10
  -5   6  -2   26.00   12.20
  -5   6  -2   25.10   14.40
   5   6   2   46.30   14.70
  -5   6  -2   51.19   16.20
   5   6   2    6.20   14.40
   5  -6   2   65.49   19.00
   5  -6   2   41.50   10.50
   5  -6   2   45.50   21.20
   5  -6   2   -0.20   15.80
   5   6   3   21.70   12.40
   5   6   3   22.40   14.20
  -5   6  -3   37.80   15.80
  -5   6  -3    6.20    8.60
  -5   6  -3    8.80   16.20
   5  -6   3   34.90   28.90
   5  -6   3   11.90   10.30
   5   6   4   14.80   15.20
  -5   6  -4   16.20   17.30
  -5   6  -4   13.50   16.50
  -5   6  -4   -3.00   18.40
  -5   6  -4   -1.10    9.50
   5   6   4    5.80   12.20
   5  -6   4   -5.90   21.50
   5  -6   4    6.70   32.00
   5  -6   4   15.60   10.50
  -6   0  11    2.40   14.10
   6   0 -11  -20.80   29.70
  -6   0  11   -9.90   13.20
   6   0 -11    5.60   15.80
  -6   0  11   -7.60   31.50
   6   0 -11   38.30   34.70
   6   0 -11    6.90   13.90
  -6   0  10   -1.60   10.50
   6   0 -10   15.60   11.70
  -6   0  10   14.60   12.10
   6   0 -10   14.00   13.40
  -6   0  10   10.20   22.60
   6   0 -10   -2.90   27.10
  -6   0  10   28.90   11.50
   6   0 -10   -9.90   20.50
  -6   0   9  -12.80   10.70
   6   0  -9   -5.10    9.60
   6   0  -9  -15.10   20.70
  -6   0   9   -2.50    8.80
   6   0  -9  -24.60    8.90
   6   0  -9    1.00   10.40
  -6   0   9   -7.40    8.50
  -6   0   9    5.80    7.90
  -6   0   8  626.14   40.60
  -6   0   8  650.23   42.60
  -6   0   8  659.83   40.40
   6   0  -8  635.94   43.50
   6   0  -8  663.73   55.59
   6   0  -8  635.74   39.90
   6   0  -8  583.74   43.20
  -6   0   8  599.44   49.60
  -6   0   8  629.24   37.40
   6   0  -8  633.64   40.20
   6   0  -7   -4.50    6.30
   6   0  -7   10.10   13.40
   6   0  -7    2.20    9.60
  -6   0   7    0.90    4.60
   6   0  -7   -6.40    6.40
  -6   0   7   -6.30    5.20
  -6   0   7   -3.80    5.80
   6   0  -7   -0.30    5.50
  -6   0   7    1.00   11.80
   6   0  -6 1730.73   92.29
  -6   0   6 1784.02   89.79
   6   0  -6 1773.72   89.59
  -6   0   6 1725.43   97.59
   6   0  -6 1660.63   92.09
   6   0  -6 1723.43  100.89
  -6   0   6 1641.64   90.99
   6   0  -6 1673.53   89.09
  -6   0   5   -1.70    8.20
   6   0  -5    5.20    5.80
  -6   0   5    5.80    4.70
   6   0  -5    1.30    4.60
   6   0  -5   -1.80    4.00
  -6   0   5   -1.20    3.50
  -6   0   5   -1.20    3.70
   6   0  -5    1.10    4.70
   6   0  -5    5.80    9.20
   6   0  -4 1464.05   78.59
   6   0  -4 1472.65   87.19
  -6   0   4 1522.15   78.89
  -6   0   4 1612.44   80.29
  -6   0   4 1557.54   78.99
   6   0  -4 1573.94   79.09
   6   0  -4 1579.24   81.19
   6   0  -4 1521.95   82.29
  -6   0   4 1478.45   84.99
   6   0  -4 1523.05   80.69
  -6   0   3   -2.30    2.50
   6   0  -3   -4.00    3.80
   6   0  -3    0.00    3.40
   6   0  -3    6.00    7.70
   6   0  -3   -2.50    2.60
  -6   0   3   -0.30    2.00
   6   0  -3   -0.80    3.10
   6   0  -3   -7.90    5.70
  -6   0   3   -0.40    2.90
  -6   0   3    3.10    6.70
   6   0  -2  105.29   13.70
   6   0  -2  154.28   17.30
   6   0  -2  129.39   10.50
  -6   0   2  126.89   10.10
   6   0  -2  136.39   11.90
  -6   0   2  147.69   15.50
  -6   0   2  147.49   11.50
  -6   0   2  123.19   10.20
   6   0  -2  137.49   11.70
   6   0  -1   -6.40    2.60
   6   0  -1   -1.40    2.60
  -6   0   1   -0.10    5.30
  -6   0   1   -2.60    2.20
  -6   0   1    0.80    2.80
  -6   0   1   -6.50    4.40
   6   0  -1   -0.40    2.80
   6   0  -1    5.20    5.80
  -6   0   1   -1.20    2.70
   6   0  -1    1.60    4.90
   6   0   0 2340.57  121.09
  -6   0   0 2241.58  117.49
  -6   0   0 2168.38  117.79
  -6   0   0 2278.67  114.69
   6   0   0 2344.07  115.29
   6   0   0 2263.47  117.09
  -6   0   0 2471.35  121.99
   6   0   0 2398.96  114.69
   6   0   0 2275.97  114.79
  -6   0   0 2286.97  114.79
   6   0   1    2.10    6.20
  -6   0  -1   -0.10    3.50
   6   0   1   -0.30    2.80
   6   0   1    1.10    2.70
  -6   0  -1    2.90    4.90
   6   0   1   -3.30    2.60
  -6   0  -1    1.10    2.70
  -6   0  -1    8.70    7.00
  -6   0  -1    0.40    2.70
   6   0   1   -3.80    4.10
  -6   0  -2 2808.42  136.79
  -6   0  -2 2832.92  143.49
   6   0   2 2507.15  137.19
   6   0   2 2669.93  135.39
  -6   0  -2 2879.61  136.79
   6   0   2 2772.82  135.49
  -6   0  -2 2755.42  135.99
   6   0   2 2904.91  137.39
   6   0   2 2782.92  141.79
  -6   0  -2 2533.45  138.09
  -6   0  -3  -17.00    6.80
  -6   0  -3   -3.30    2.90
   6   0   3    3.90    3.50
   6   0   3   -5.40    4.30
   6   0   3   -2.20    6.70
  -6   0  -3    2.50    2.80
  -6   0  -3   -3.90    4.60
   6   0   3   -1.90    2.20
   6   0   3    2.40    2.90
  -6   0  -4 1127.29   60.79
   6   0   4 1168.28   66.89
   6   0   4 1120.29   61.89
  -6   0  -4 1067.69   67.79
  -6   0  -4 1132.19   60.09
  -6   0  -4 1130.19   61.19
   6   0   4 1144.89   64.89
   6   0   4 1204.88   59.99
   6   0   4 1148.19   59.99
  -6   0  -5   17.10   10.80
   6   0   5    2.20    7.40
   6   0   5    6.80    4.30
   6   0   5   -5.40    6.00
  -6   0  -5   16.30    5.90
   6   0   5   16.20    9.60
   6   0   6   -3.30   13.60
   6   0   6   16.90   10.80
  -6   0  -6    4.90    4.40
   6   0   6    0.10    8.20
   6   0   6    5.00    4.40
   6   0   6   -5.80    4.30
  -6   0  -6    4.20   13.20
   6   0   7  -13.70   13.40
  -6   0  -7   -7.80    5.10
   6   0   7    1.60    9.70
   6   0   7  -10.20    8.80
   6   0   7   -5.50    5.40
   6   0   7    0.50    5.30
  -6   0  -8  156.38   20.80
   6   0   8  130.59   15.80
   6   0   8  138.49   16.80
  -6   0  -8  117.99   15.40
   6   0   8  135.29   27.00
   6   0   8  132.99   19.60
   6   0   8   80.59   42.40
   6   0   9  -10.60    8.00
   6   0   9   -8.80   14.50
   6   0   9    8.50   24.50
   6   0   9   -3.60   15.10
   6   0   9  -14.60   22.60
  -6   0  -9  -19.00    7.80
   6   0  10  119.99   50.39
   6   0  10  176.88   24.30
  -6   0 -10  166.08   20.90
   6   0  10  180.08   29.80
   6   0  10  171.68   38.20
   6   1 -11   35.40   39.60
  -6   1  11   33.40   16.60
   6   1 -11   29.00   16.70
  -6   1  11   31.20   16.10
   6   1 -11   60.19   19.00
   6   1 -11    0.00   25.80
  -6   1  11   27.30   29.90
  -6  -1  11   30.70   34.20
   6  -1 -11   34.40   16.80
  -6  -1  11   47.80   21.20
   6  -1 -11   63.49   35.80
   6   1 -10  161.98   37.80
   6   1 -10  197.48   25.80
  -6   1  10  155.28   20.80
   6   1 -10  195.28   27.10
  -6   1  10  147.79   18.40
  -6   1  10  182.28   23.90
  -6   1  10  106.59   29.30
   6   1 -10  164.88   30.50
  -6  -1  10  165.38   23.60
   6  -1 -10  143.89   36.90
   6  -1 -10  165.38   24.80
  -6  -1  10  197.68   24.00
  -6   1   9  214.18   22.80
   6   1  -9  190.88   25.60
  -6   1   9  227.98   26.60
   6   1  -9  233.88   24.50
   6   1  -9  217.68   39.40
   6   1  -9  199.88   25.10
   6   1  -9  207.88   24.60
  -6   1   9  177.18   20.80
  -6   1   9  210.08   32.50
  -6  -1   9  250.57   37.10
   6  -1  -9  172.58   21.90
  -6  -1   9  198.18   23.60
   6  -1  -9  143.99   32.50
  -6  -1   9  185.48   21.50
  -6  -1   9  235.08   23.20
  -6  -1   9  177.08   23.20
   6  -1  -9  211.98   25.40
   6   1  -8   46.60   19.20
  -6   1   8   38.40    9.30
  -6   1   8   16.80    9.50
  -6   1   8   49.60   13.50
   6   1  -8   52.79   13.00
   6   1  -8   33.80   11.10
   6   1  -8   30.20   10.30
   6  -1  -8   41.10   12.60
  -6  -1   8   15.60   15.90
  -6  -1   8   69.99   12.50
  -6  -1   8   36.10   10.10
   6  -1  -8    7.70   17.00
  -6  -1   8   39.80   11.50
  -6  -1   8   35.70    9.30
   6  -1  -8   30.40   11.60
   6  -1  -8   83.59   15.10
   6   1  -7   19.30   11.40
   6   1  -7   23.10    7.90
  -6   1   7   22.60    6.90
   6   1  -7   47.00   18.00
  -6   1   7   21.10    9.40
   6   1  -7   19.50    9.00
   6   1  -7   18.50    8.50
   6  -1  -7   35.00   10.20
  -6  -1   7   21.20    8.20
  -6  -1   7   20.30    7.40
  -6  -1   7   38.70   17.80
   6  -1  -7    5.10   14.90
   6  -1  -7   25.30   10.80
  -6  -1   7   19.00   13.70
  -6  -1   7   45.50    9.40
  -6   1   6   -4.80    5.00
   6   1  -6   -6.40    4.70
   6   1  -6    2.60    5.70
   6   1  -6    2.80    6.10
   6   1  -6  -12.10   11.60
  -6   1   6    2.30    9.70
   6   1  -6   -1.00    7.70
  -6   1   6    1.70    4.30
   6   1  -6    7.20    6.30
  -6   1   6    0.20    5.20
  -6  -1   6    2.50    4.40
  -6  -1   6    6.60    4.70
  -6  -1   6   -8.10   10.20
   6  -1  -6   27.10   13.10
   6  -1  -6    8.60    8.40
  -6  -1   6    3.20    4.80
  -6  -1   6    1.60    5.50
   6  -1  -6   -1.00    5.90
   6   1  -5  409.46   27.10
  -6   1   5  403.96   25.20
  -6   1   5  403.36   26.30
  -6   1   5  371.86   25.30
  -6   1   5  452.45   32.30
   6   1  -5  398.86   25.40
   6   1  -5  428.16   28.60
   6   1  -5  382.16   27.40
   6   1  -5  372.16   27.30
   6   1  -5  387.66   34.50
   6  -1  -5  411.46   25.30
  -6  -1   5  386.86   25.50
   6  -1  -5  436.76   28.80
  -6  -1   5  405.16   25.30
  -6  -1   5  395.46   27.00
  -6  -1   5  394.86   32.20
   6  -1  -5  372.46   26.80
   6  -1  -5  402.26   34.00
  -6   1   4  357.06   22.80
   6   1  -4  357.76   31.00
  -6   1   4  365.46   23.30
  -6   1   4  393.36   24.40
  -6   1   4  389.16   29.50
   6   1  -4  371.76   25.20
   6   1  -4  370.36   23.50
   6   1  -4  406.76   26.20
   6   1  -4  380.46   24.90
   6  -1  -4  383.36   25.10
   6  -1  -4  381.96   26.40
  -6  -1   4  479.45   43.30
   6  -1  -4  359.76   21.80
   6  -1  -4  385.26   31.70
  -6  -1   4  362.66   24.70
   6  -1  -4  357.56   25.10
   6  -1  -4  362.06   24.70
  -6  -1   4  394.56   25.00
   6   1  -3 1414.76   75.49
  -6   1   3 1460.55   73.89
  -6   1   3 1412.86   72.39
   6   1  -3 1401.36   72.79
   6   1  -3 1339.97   73.89
   6   1  -3 1376.06   73.89
  -6   1   3 1378.46   72.29
  -6   1   3 1349.36   78.09
   6   1  -3 1329.87   79.79
   6   1  -3 1501.85   75.09
  -6   1   3 1457.95   76.79
   6  -1  -3 1392.86   71.19
   6  -1  -3 1479.05   81.49
   6  -1  -3 1450.05   74.39
  -6  -1   3 1406.96   73.69
  -6  -1   3 1404.96   72.49
  -6  -1   3 1430.76   78.69
   6  -1  -3 1502.35   76.19
   6  -1  -3 1399.66   74.19
  -6  -1   3 1417.56   72.59
   6  -1  -3 1406.46   72.89
   6   1  -2 2664.03  139.49
  -6   1   2 2737.73  138.09
  -6   1   2 2619.64  143.89
  -6   1   2 2861.71  139.39
   6   1  -2 2843.52  139.59
   6   1  -2 2772.32  140.79
  -6   1   2 2757.52  137.29
   6   1  -2 2730.13  137.99
  -6   1   2 2877.01  142.39
   6   1  -2 2922.21  139.59
   6   1  -2 2827.32  145.69
  -6  -1   2 2813.52  143.39
   6  -1  -2 2540.65  138.69
   6  -1  -2 2907.71  139.29
  -6  -1   2 2919.21  137.99
  -6  -1   2 2732.83  138.49
   6  -1  -2 2925.41  139.79
  -6  -1   2 2755.82  141.59
   6  -1  -2 2725.73  146.19
   6  -1  -2 2842.92  141.49
  -6   1   1  569.24   37.50
   6   1  -1  538.45   31.40
   6   1  -1  530.55   30.70
  -6   1   1  545.95   30.00
  -6   1   1  529.75   34.50
   6   1  -1  565.64   37.30
   6   1  -1  555.84   33.20
   6   1  -1  576.64   31.60
  -6   1   1  590.44   31.90
  -6   1   1  555.34   31.10
   6  -1  -1  529.75   30.90
   6  -1  -1  560.34   31.40
  -6  -1   1  565.94   35.90
   6  -1  -1  527.05   37.00
  -6  -1   1  554.14   30.40
  -6  -1   1  578.74   31.30
   6  -1  -1  533.25   31.20
  -6  -1   1  582.64   31.80
   6  -1  -1  461.15   32.80
   6   1   0  755.12   45.00
  -6   1   0  767.32   45.60
   6   1   0  853.21   43.70
  -6   1   0  825.12   43.60
   6   1   0  777.52   43.10
  -6   1   0  834.62   44.30
  -6   1   0  846.02   50.39
  -6   1   0  850.01   42.80
   6   1   0  734.93   48.10
   6   1   0  832.42   43.40
   6  -1   0  720.93   43.50
  -6  -1   0  873.91   43.20
   6  -1   0  838.62   43.50
   6  -1   0  808.72   46.10
  -6  -1   0  847.52   49.40
  -6  -1   0  814.02   44.10
   6  -1   0  849.12   49.90
  -6  -1   0  748.03   43.20
   6   1   1  157.58   16.20
   6   1   1  144.19   11.50
  -6   1  -1  139.69   12.90
  -6   1  -1  156.98   17.20
  -6   1  -1  166.98   12.20
  -6   1  -1  127.49   10.70
   6   1   1  146.29   14.00
   6   1   1  160.68   11.20
  -6   1  -1  150.98   11.80
   6   1   1  142.19   11.60
   6  -1   1  156.08   11.70
   6  -1   1  159.48   11.90
  -6  -1  -1  151.78   23.40
  -6  -1  -1  130.29   11.90
   6  -1   1  151.68   12.30
  -6  -1  -1  159.38   11.80
   6  -1   1  138.69   13.70
  -6  -1  -1  117.49   10.60
   6  -1   1  147.79   17.30
   6  -1   1  151.48   13.70
   6   1   2  145.39   11.70
  -6   1  -2  164.78   12.70
  -6   1  -2  150.98   11.90
   6   1   2  141.59   12.10
  -6   1  -2  161.58   13.30
   6   1   2  163.18   13.50
   6   1   2  138.09   15.90
   6   1   2  153.88   11.40
  -6   1  -2  163.48   18.90
   6  -1   2  171.98   13.40
   6  -1   2  168.38   15.20
  -6  -1  -2  150.38   12.10
  -6  -1  -2  143.59   12.70
   6  -1   2  134.79   11.00
   6  -1   2  177.28   18.00
  -6  -1  -2  162.18   11.90
   6  -1   2  143.49   14.10
   6  -1   2  157.58   11.60
   6   1   3  279.37   17.60
   6   1   3  279.57   19.30
  -6   1  -3  289.97   18.80
  -6   1  -3  289.57   19.80
   6   1   3  296.67   23.70
   6   1   3  275.77   18.60
  -6   1  -3  307.57   26.50
  -6   1  -3  294.57   19.70
   6  -1   3  281.17   20.60
  -6  -1  -3  287.17   18.70
  -6  -1  -3  281.47   18.10
   6  -1   3  294.57   17.60
   6  -1   3  291.17   25.00
   6  -1   3  276.47   20.00
   6  -1   3  278.07   18.30
   6  -1   3  254.57   21.30
   6   1   4  500.45   31.60
   6   1   4  550.14   29.90
  -6   1  -4  530.65   31.40
   6   1   4  558.44   36.60
  -6   1  -4  545.85   31.10
  -6   1  -4  507.35   39.00
   6   1   4  518.15   30.90
  -6   1  -4  490.15   33.50
  -6  -1  -4  504.25   30.90
   6  -1   4  512.35   30.40
   6  -1   4  468.25   32.40
   6  -1   4  532.45   37.60
   6  -1   4  502.75   29.40
   6  -1   4  545.65   32.50
  -6  -1  -4  563.74   30.30
   6  -1   4  502.05   34.20
  -6   1  -5 1225.18   62.29
  -6   1  -5 1224.68   62.49
   6   1   5 1189.68   67.99
   6   1   5 1142.49   63.29
   6   1   5 1144.79   60.59
  -6   1  -5 1189.28   63.89
   6   1   5 1096.89   61.79
  -6   1  -5 1107.59   72.29
   6   1   5 1093.59   66.49
  -6  -1  -5 1185.98   61.09
   6  -1   5 1153.48   66.29
   6  -1   5 1113.89   64.29
  -6  -1  -5 1074.49   86.09
   6  -1   5 1175.68   61.79
  -6  -1  -5 1117.49   62.29
   6  -1   5 1123.69   69.59
   6  -1   5 1135.49   62.99
   6  -1   5 1192.78   60.79
   6   1   6  235.68   25.30
  -6   1  -6  283.67   21.10
   6   1   6  286.47   19.80
  -6   1  -6  299.07   23.60
   6   1   6  270.07   21.00
  -6   1  -6  277.77   33.40
   6   1   6  295.87   27.60
   6  -1   6  278.07   22.80
   6  -1   6  297.77   25.10
   6  -1   6  272.67   29.40
  -6  -1  -6  297.67   31.80
   6  -1   6  271.77   19.80
  -6  -1  -6  302.17   20.40
   6  -1   6  296.07   20.90
  -6   1  -7  226.48   18.70
   6   1   7  249.78   18.40
   6   1   7  173.08   26.00
   6   1   7  249.78   23.20
  -6   1  -7  224.68   19.30
   6   1   7  196.38   19.20
  -6   1  -7  228.78   22.80
   6  -1   7  212.98   30.80
   6  -1   7  198.68   23.00
  -6  -1  -7  230.68   18.40
   6  -1   7  203.38   18.10
  -6  -1  -7  203.98   21.40
   6  -1   7  235.28   19.00
   6   1   8   66.19   27.10
   6   1   8   49.60    9.90
   6   1   8   59.69   14.80
   6   1   8   53.19   19.50
  -6   1  -8   50.39   13.60
   6   1   8   59.79   23.00
  -6   1  -8   34.10   10.70
   6   1   8   47.90   11.60
  -6  -1  -8   44.40   14.10
   6  -1   8   55.29   25.60
   6  -1   8   32.40   14.50
   6  -1   8   27.20   14.10
   6  -1   8   38.60   10.30
  -6  -1  -8   29.10    8.90
   6  -1   8   57.29   23.70
   6   1   9   31.10   22.70
   6   1   9   14.30    8.50
   6   1   9    3.50   16.20
   6   1   9   10.90    9.80
  -6   1  -9    9.80    9.40
   6   1   9  -10.80   15.80
   6   1   9   39.30   25.70
   6  -1   9    1.70   26.40
  -6  -1  -9   12.20    9.30
   6  -1   9    1.90    9.30
   6  -1   9  -18.00   23.40
   6  -1   9   -5.20   14.70
   6   1  10    7.30   13.30
   6   1  10   -8.60   29.70
  -6   1 -10  -17.10   11.00
   6   1  10   22.40   21.90
   6   1  10   -6.40   28.90
  -6  -1 -10    6.20   11.20
   6  -1  10    1.20   12.80
   6  -1  10   49.60   34.30
   6  -1  10   12.40   36.20
  -6   2  10    1.30   22.60
  -6   2  10    7.50   11.90
   6   2 -10   -4.90   14.60
   6   2 -10    6.40   15.00
   6   2 -10   65.79   37.10
   6  -2 -10    1.40   14.00
  -6  -2  10    4.80   13.90
  -6  -2  10  -16.70   30.70
   6  -2 -10   23.60   29.50
   6   2  -9  137.19   34.60
   6   2  -9  113.49   18.90
  -6   2   9   83.29   13.80
   6   2  -9  108.49   18.70
  -6   2   9   66.29   14.60
  -6   2   9   81.59   22.30
   6   2  -9  118.59   20.80
  -6  -2   9  136.29   20.30
   6  -2  -9   61.69   15.50
  -6  -2   9  112.59   17.70
  -6  -2   9  138.69   32.20
  -6  -2   9  148.69   20.40
   6  -2  -9  101.99   28.40
  -6   2   8   17.00    9.00
   6   2  -8   26.90   11.00
   6   2  -8   33.50   23.40
  -6   2   8   25.70   13.80
  -6   2   8   20.90    8.80
   6   2  -8   17.60   10.80
   6   2  -8   38.70   12.40
  -6   2   8   21.70   16.10
   6  -2  -8   12.90   18.00
  -6  -2   8   43.90   12.30
   6  -2  -8   18.80   12.40
  -6  -2   8   46.50   16.30
   6  -2  -8   20.80    9.30
  -6  -2   8   36.80   10.70
   6  -2  -8   26.10   11.00
  -6  -2   8   27.70   21.40
   6   2  -7  509.55   37.10
   6   2  -7  490.35   45.70
  -6   2   7  482.65   34.30
  -6   2   7  550.24   35.90
   6   2  -7  529.95   37.80
  -6   2   7  421.86   61.69
   6   2  -7  551.44   35.00
  -6   2   7  496.05   34.90
  -6  -2   7  551.84   34.90
   6  -2  -7  563.24   33.20
   6  -2  -7  430.56   34.50
  -6  -2   7  574.14   45.80
  -6  -2   7  505.65   34.30
  -6  -2   7  509.95   33.10
   6  -2  -7  512.75   36.10
   6  -2  -7  597.54   47.60
  -6  -2   7  562.44   37.10
  -6   2   6   85.89   10.20
  -6   2   6   50.99   10.70
   6   2  -6   80.09   14.00
   6   2  -6   97.59   24.80
   6   2  -6   88.49   12.40
   6   2  -6   78.49   13.20
  -6   2   6   70.19   10.90
  -6   2   6   91.49   16.90
   6   2  -6   72.79   12.80
   6  -2  -6   72.49   11.90
  -6  -2   6   62.69   10.80
  -6  -2   6   98.39   13.80
  -6  -2   6   85.99   19.50
   6  -2  -6   65.69   17.90
  -6  -2   6   65.39   10.60
   6  -2  -6   62.49   12.20
  -6   2   5 1111.59   57.59
  -6   2   5 1116.39   65.19
   6   2  -5 1064.99   61.39
   6   2  -5 1094.79   61.49
   6   2  -5 1059.59   60.79
  -6   2   5 1117.49   62.39
   6   2  -5 1033.10   58.29
  -6   2   5 1075.59   59.19
  -6   2   5 1033.80   58.39
   6   2  -5 1067.39   69.19
   6  -2  -5 1011.20   57.49
   6  -2  -5 1055.19   59.99
  -6  -2   5 1187.58   67.69
  -6  -2   5 1154.38   61.09
  -6  -2   5 1143.39   58.29
   6  -2  -5  983.00   66.39
   6   2  -4    9.30    6.60
   6   2  -4    2.60    4.40
  -6   2   4   -1.60    3.30
   6   2  -4    6.70    6.20
  -6   2   4    5.30    7.50
  -6   2   4    7.70    7.60
   6   2  -4    6.10    3.90
  -6   2   4    6.80    4.50
   6   2  -4   16.80    9.90
  -6   2   4   -0.10    4.10
  -6  -2   4   -0.50    4.60
   6  -2  -4    0.60    6.70
  -6  -2   4    7.70    4.70
  -6  -2   4    5.00    3.80
   6  -2  -4    5.60    5.50
  -6  -2   4    0.80    7.70
   6  -2  -4   12.30   10.20
   6  -2  -4   -5.20    3.70
   6   2  -3  281.07   20.60
  -6   2   3  250.07   23.20
   6   2  -3  272.47   20.60
  -6   2   3  284.47   18.20
   6   2  -3  290.17   18.40
  -6   2   3  276.77   23.40
  -6   2   3  285.37   19.20
  -6   2   3  273.77   17.70
   6   2  -3  213.58   23.20
   6   2  -3  272.97   19.80
   6  -2  -3  280.87   21.60
  -6  -2   3  271.07   17.90
   6  -2  -3  270.47   20.10
  -6  -2   3  311.97   24.50
   6  -2  -3  276.87   26.30
   6  -2  -3  262.27   19.10
   6   2  -2   12.30    4.40
  -6   2   2    0.50    2.80
   6   2  -2   18.10    8.10
   6   2  -2    5.70    3.40
  -6   2   2    6.60    3.80
  -6   2   2   11.10    8.00
  -6   2   2    9.00    4.60
   6   2  -2    7.70    4.80
   6   2  -2    3.40    4.40
  -6   2   2    0.50    5.60
   6  -2  -2    4.00    4.10
   6  -2  -2    8.60    4.10
   6  -2  -2    7.40    5.90
  -6  -2   2    3.20    4.00
  -6  -2   2    8.10    4.40
  -6  -2   2    8.00    3.30
   6  -2  -2  -18.50    7.90
  -6   2   1 1096.49   56.89
   6   2  -1 1103.19   61.69
   6   2  -1 1118.39   56.89
  -6   2   1 1156.58   64.09
  -6   2   1 1050.79   58.49
  -6   2   1 1027.90   53.89
  -6   2   1 1075.79   56.09
   6   2  -1 1057.99   57.89
   6   2  -1 1025.20   55.09
   6   2  -1 1062.59   56.19
   6  -2  -1  995.50   55.19
  -6  -2   1 1087.19   55.79
   6  -2  -1 1050.79   56.49
  -6  -2   1 1047.40   54.79
   6  -2  -1 1087.49   59.29
  -6  -2   1 1054.19   59.99
   6  -2  -1 1017.10   63.09
   6  -2  -1 1069.19   55.49
  -6  -2   1 1072.69   56.79
  -6   2   0   25.50    5.20
   6   2   0   13.30    4.40
  -6   2   0   31.40    7.10
  -6   2   0   33.50    6.80
   6   2   0   31.70    5.50
   6   2   0   23.30    5.40
   6   2   0   19.10    8.30
  -6   2   0   41.40   11.40
   6  -2   0   11.30    4.50
   6  -2   0    9.20    4.70
   6  -2   0   20.40    5.10
   6  -2   0   22.00    4.50
   6  -2   0   26.70    8.90
  -6  -2   0   21.30    8.00
  -6  -2   0   20.20    4.60
   6  -2   0   16.80    6.50
  -6  -2   0   27.40    4.60
  -6  -2   0   22.70    5.20
  -6   2  -1 2486.45  126.59
   6   2   1 2513.05  127.89
   6   2   1 2743.43  128.09
  -6   2  -1 2794.22  137.69
  -6   2  -1 2554.34  128.79
   6   2   1 2537.05  128.99
   6   2   1 2589.64  129.69
   6   2   1 2549.44  133.29
  -6   2  -1 2712.53  129.59
  -6   2  -1 2641.04  131.09
   6  -2   1 2645.24  129.99
   6  -2   1 2500.25  134.99
   6  -2   1 2643.14  131.79
  -6  -2  -1 2333.97  127.49
  -6  -2  -1 2414.96  132.79
   6  -2   1 2617.54  130.19
  -6  -2  -1 2644.74  130.39
   6  -2   1 2517.55  128.49
   6   2   2  108.29   10.60
   6   2   2  128.79   10.10
  -6   2  -2  142.29   19.60
  -6   2  -2  124.49   12.90
  -6   2  -2  130.29   11.90
   6   2   2  139.89   11.30
  -6   2  -2  133.49   11.00
   6   2   2  143.79   16.00
   6   2   2  114.59   11.90
  -6  -2  -2  140.59   17.40
   6  -2   2  108.39   10.20
   6  -2   2  118.99    9.00
   6  -2   2  126.09   14.60
  -6  -2  -2  116.09    9.90
   6  -2   2  112.39   16.60
  -6  -2  -2  117.99   10.30
   6  -2   2  115.49   13.10
   6   2   3 1592.24   79.79
  -6   2  -3 1506.65   80.99
  -6   2  -3 1544.85   79.99
  -6   2  -3 1568.14   81.99
   6   2   3 1450.65   83.69
  -6   2  -3 1573.54   89.49
   6   2   3 1539.05   78.29
   6   2   3 1613.34   80.39
  -6  -2  -3 1494.55   84.19
   6  -2   3 1643.14   84.69
  -6  -2  -3 1550.04   78.99
   6  -2   3 1615.64   79.89
   6  -2   3 1542.45   81.99
   6  -2   3 1495.05   83.59
  -6  -2  -3 1372.36   78.79
   6  -2   3 1534.55   77.29
   6  -2   3 1729.43   88.59
   6   2   4  144.19   11.50
   6   2   4  156.58   13.80
   6   2   4  133.09   17.30
  -6   2  -4  180.68   18.50
  -6   2  -4  176.88   15.30
  -6   2  -4  184.98   14.10
  -6   2  -4  169.18   24.00
   6   2   4  133.49   14.00
   6  -2   4  177.88   17.80
   6  -2   4  184.48   17.10
   6  -2   4  150.08   17.00
  -6  -2  -4  146.59   20.20
  -6  -2  -4  131.49   11.70
  -6  -2  -4  126.09   12.70
  -6   2  -5    5.50   13.30
  -6   2  -5   11.90    5.60
  -6   2  -5    5.20    5.70
  -6   2  -5   17.40    7.90
   6   2   5    8.90    4.40
   6   2   5   22.00   10.40
   6   2   5    7.10    6.40
   6   2   5   16.60    6.30
  -6  -2  -5   17.50    6.70
   6  -2   5    5.70    7.40
   6  -2   5    4.40    4.10
   6  -2   5   -5.60    6.80
  -6  -2  -5    8.30   11.70
   6  -2   5    7.50    4.90
   6  -2   5   12.80   12.20
  -6  -2  -5   11.60    5.20
   6  -2   5    7.60    9.30
   6   2   6    3.00    9.50
   6   2   6   13.10   11.80
  -6   2  -6  -21.90   15.60
  -6   2  -6    3.10    8.20
  -6   2  -6   -1.20    5.80
   6   2   6   -2.30    5.00
   6   2   6    3.90    4.80
  -6   2  -6    2.70    5.20
  -6  -2  -6    7.00    5.20
   6  -2   6    2.40    5.40
   6  -2   6   13.10    9.50
   6  -2   6  -24.50    9.40
   6  -2   6    0.00    4.70
   6  -2   6   10.80   14.10
  -6   2  -7  246.08   20.70
  -6   2  -7  234.88   20.90
   6   2   7  264.27   18.80
   6   2   7  220.18   28.10
   6   2   7  257.87   24.60
   6   2   7  249.58   21.50
  -6   2  -7  221.28   25.00
   6   2   7  219.78   31.20
   6  -2   7  241.98   20.40
   6  -2   7  292.77   37.20
   6  -2   7  212.98   26.60
  -6  -2  -7  235.68   19.00
   6  -2   7  230.08   18.60
  -6  -2  -7  218.38   22.40
   6   2   8    4.70    7.10
   6   2   8  -18.20   18.10
   6   2   8    1.40   17.50
   6   2   8   10.00    8.20
   6   2   8   22.80   14.00
  -6   2  -8    5.00    8.10
  -6   2  -8  -37.30   12.90
  -6   2  -8    0.10    7.70
  -6  -2  -8   -4.70    6.70
   6  -2   8   14.60    7.60
  -6  -2  -8   -4.40   12.70
   6  -2   8  -22.50   20.70
   6  -2   8   -0.40   15.30
   6  -2   8   23.40   26.50
   6  -2   8  -21.30   13.00
   6  -2   8    3.30    7.70
   6   2   9   95.49   16.10
  -6   2  -9  153.88   19.40
   6   2   9  110.39   15.00
   6   2   9  127.99   37.10
   6   2   9  132.89   28.70
   6   2   9   65.39   19.80
   6   2   9   92.79   29.10
   6  -2   9  151.88   18.00
   6  -2   9  163.18   42.50
   6  -2   9  117.69   18.10
  -6  -2  -9  124.59   15.30
   6  -2   9  189.88   47.40
   6   2  10    5.50   11.00
   6   2  10    8.00   29.80
   6   2  10   26.50   22.90
  -6   2 -10  -15.00   12.00
   6   2  10  -16.30   12.40
   6  -2  10   -6.70   35.80
   6  -2  10   -9.00   11.90
   6  -2  10  -38.40   36.20
  -6  -2 -10   -2.60   11.60
   6   3  -9  207.08   43.70
   6   3  -9  151.98   22.70
  -6   3   9   92.99   24.10
  -6   3   9   77.59   15.90
  -6   3   9  132.99   16.70
   6   3  -9   99.99   20.90
   6   3  -9  106.59   20.40
  -6  -3   9  117.49   20.90
   6  -3  -9   65.09   29.80
  -6  -3   9  157.18   37.40
   6  -3  -9   90.29   18.30
   6   3  -8  104.59   28.50
   6   3  -8   79.19   16.70
   6   3  -8   79.49   16.80
  -6   3   8   76.99   12.90
  -6   3   8   93.69   31.70
  -6   3   8   64.49   13.50
  -6   3   8  113.59   18.90
   6   3  -8   65.79   16.90
  -6  -3   8   99.19   27.30
  -6  -3   8   87.09   13.60
   6  -3  -8   69.49   12.70
   6  -3  -8   74.19   24.20
  -6  -3   8   48.90   14.20
   6  -3  -8   71.49   15.40
  -6  -3   8   85.69   17.80
   6   3  -7   37.50   11.20
  -6   3   7   39.10    8.80
   6   3  -7   15.80   19.30
  -6   3   7   17.30    8.90
  -6   3   7   59.59   12.90
  -6   3   7    5.30   13.00
   6   3  -7   28.20   10.30
   6   3  -7   34.60   11.80
   6   3  -7   31.40   12.30
  -6  -3   7   46.10   11.60
   6  -3  -7   39.20   11.30
  -6  -3   7   36.10   10.50
  -6  -3   7   44.00   20.00
   6  -3  -7   45.60   19.20
  -6  -3   7   42.30   12.40
   6  -3  -7   43.30   13.00
  -6  -3   7   46.30   10.30
   6  -3  -7   42.30   11.70
   6   3  -6    3.40    8.60
  -6   3   6    0.30    6.50
   6   3  -6    3.20    7.50
  -6   3   6  -14.90   10.50
   6   3  -6  -15.40    7.20
  -6   3   6    8.60    8.20
  -6   3   6   -0.20    5.20
   6   3  -6    0.20   16.00
   6   3  -6    2.30    8.00
  -6   3   6   -5.40   10.80
  -6  -3   6   11.70   13.30
   6  -3  -6    3.90    7.80
  -6  -3   6  -14.40    5.90
   6  -3  -6   10.40    9.70
   6  -3  -6  -10.60   13.10
  -6  -3   6   16.60    8.70
  -6  -3   6    6.70    8.30
   6  -3  -6   14.30    6.80
   6   3  -5  126.89   14.00
   6   3  -5  152.68   19.90
   6   3  -5  124.69   16.10
  -6   3   5  143.09   15.00
  -6   3   5  159.28   14.90
  -6   3   5  151.08   19.70
   6   3  -5  149.19   24.40
   6   3  -5  151.88   25.20
  -6   3   5  136.69   12.50
  -6  -3   5  182.58   25.20
   6  -3  -5  162.08   18.10
  -6  -3   5  110.09   16.70
   6  -3  -5  127.09   21.60
  -6  -3   5  126.09   15.60
  -6  -3   5  143.09   14.60
   6  -3  -5   98.89   18.00
  -6   3   4  590.54   34.50
   6   3  -4  591.44   44.60
   6   3  -4  637.34   38.00
  -6   3   4  584.34   34.60
   6   3  -4  593.84   37.60
   6   3  -4  602.64   34.90
  -6   3   4  557.64   39.90
   6   3  -4  617.44   39.40
  -6   3   4  608.44   35.50
   6  -3  -4  649.54   43.90
   6  -3  -4  621.34   36.40
  -6  -3   4  619.74   34.90
   6  -3  -4  630.04   38.60
  -6  -3   4  608.74   36.90
   6  -3  -4  543.35   35.30
  -6  -3   4  562.24   41.90
  -6  -3   4  537.55   35.60
  -6   3   3  870.11   44.50
  -6   3   3  744.03   42.50
  -6   3   3  780.12   47.50
  -6   3   3  846.12   45.10
   6   3  -3  790.32   43.60
   6   3  -3  779.12   45.70
  -6   3   3  713.23   54.69
   6   3  -3  820.12   46.60
   6   3  -3  782.42   47.60
   6   3  -3  836.42   53.09
  -6  -3   3  799.32   49.99
   6  -3  -3  832.12   45.40
  -6  -3   3  817.82   45.50
   6  -3  -3  825.72   57.69
   6  -3  -3  815.92   47.80
   6  -3  -3  758.12   44.10
  -6  -3   3  760.32   43.00
  -6  -3   3  771.62   44.90
   6   3  -2 1979.70  107.69
  -6   3   2 2010.80  109.09
   6   3  -2 2002.70  104.59
   6   3  -2 2025.50  101.99
  -6   3   2 2051.49  104.39
  -6   3   2 1735.33  101.19
   6   3  -2 2013.40  100.09
  -6   3   2 1853.01   98.49
  -6   3   2 2135.79  101.29
   6  -3  -2 2059.29  102.29
  -6  -3   2 1906.31  101.09
  -6  -3   2 2024.90   99.69
   6  -3  -2 1954.20  101.39
  -6  -3   2 2079.99  105.79
   6  -3  -2 2055.49  104.99
  -6  -3   2 2134.69  102.49
   6  -3  -2 1836.12  108.99
  -6   3   1  328.17   21.10
   6   3  -1  302.57   25.00
   6   3  -1  322.67   20.20
  -6   3   1  323.37   23.20
   6   3  -1  314.07   19.10
   6   3  -1  336.47   21.30
  -6   3   1  234.88   19.50
  -6   3   1  266.17   26.50
   6   3  -1  316.67   22.80
  -6   3   1  311.27   17.40
   6  -3  -1  328.27   28.90
   6  -3  -1  306.97   23.70
   6  -3  -1  258.97   20.00
  -6  -3   1  312.87   19.70
   6  -3  -1  297.47   20.20
  -6  -3   1  300.47   23.70
  -6  -3   1  267.47   20.90
   6   3   0  526.95   35.30
  -6   3   0  530.05   32.70
   6   3   0  526.35   32.10
  -6   3   0  561.14   34.90
  -6   3   0  597.54   40.40
   6   3   0  569.34   34.50
  -6   3   0  569.84   32.50
   6   3   0  544.25   30.90
   6   3   0  524.75   30.40
   6  -3   0  528.75   32.10
  -6  -3   0  571.54   42.20
   6  -3   0  536.45   38.80
   6  -3   0  535.25   35.60
   6  -3   0  531.55   31.90
   6  -3   0  543.85   32.60
  -6  -3   0  592.14   30.10
  -6  -3   0  527.45   33.20
  -6  -3   0  534.65   30.30
  -6   3  -1   92.39   16.90
  -6   3  -1   71.29   11.20
   6   3   1   80.09   12.80
  -6   3  -1  103.49   11.10
  -6   3  -1   79.99    9.40
   6   3   1   67.79    9.80
   6   3   1   48.10    7.40
   6  -3   1   66.69   15.20
   6  -3   1   64.69    9.80
   6  -3   1   79.79   10.90
  -6  -3  -1   66.99   10.40
  -6  -3  -1   77.09   13.40
   6  -3   1   67.39    9.60
   6  -3   1   92.69   13.80
   6   3   2   -0.70    4.00
   6   3   2   -1.30    4.00
  -6   3  -2    4.60    4.90
  -6   3  -2   -0.40    5.50
   6   3   2    7.40    7.90
  -6   3  -2   -2.80    3.30
  -6   3  -2   -1.40    9.20
   6   3   2   -1.20    3.50
  -6  -3  -2    2.90    7.70
   6  -3   2    4.80    5.10
   6  -3   2    2.10    6.00
   6  -3   2    0.00    8.80
   6  -3   2    2.30    3.80
   6  -3   2    1.80    7.30
   6   3   3   60.69   11.90
  -6   3  -3   40.60    9.30
   6   3   3   39.50    7.40
  -6   3  -3   47.00    9.40
  -6   3  -3   40.90    9.00
  -6   3  -3   59.49   15.90
  -6   3  -3   40.50    7.40
   6  -3   3   42.40   12.00
   6  -3   3   28.60    6.50
   6  -3   3   51.59   10.80
  -6  -3  -3   38.40   11.00
   6  -3   3   73.39   16.50
  -6   3  -4  297.47   34.20
   6   3   4  350.26   21.80
  -6   3  -4  337.47   26.40
   6   3   4  374.66   23.60
  -6   3  -4  349.27   23.80
   6   3   4  388.06   24.80
   6   3   4  303.17   26.80
  -6   3  -4  327.97   25.90
  -6   3  -4  347.47   27.00
   6  -3   4  364.46   30.30
   6  -3   4  389.96   24.20
   6  -3   4  378.36   33.70
  -6  -3  -4  377.46   28.40
   6  -3   4  345.17   28.20
   6   3   5  396.56   26.30
  -6   3  -5  335.07   26.80
  -6   3  -5  378.06   29.20
  -6   3  -5  366.66   24.90
   6   3   5  371.06   29.30
  -6   3  -5  308.67   38.30
  -6   3  -5  372.46   28.10
   6   3   5  351.36   21.60
   6  -3   5  342.87   31.50
   6  -3   5  301.37   34.60
   6  -3   5  381.46   24.80
  -6  -3  -5  329.27   23.50
  -6  -3  -5  337.17   22.30
  -6   3  -6  370.36   42.20
  -6   3  -6  316.47   27.90
   6   3   6  308.67   25.00
   6   3   6  291.07   30.30
   6   3   6  344.47   23.70
   6   3   6  346.17   25.50
  -6   3  -6  280.27   27.50
   6   3   6  327.87   29.90
  -6   3  -6  324.97   24.10
  -6   3  -6  323.67   26.20
   6  -3   6  304.27   23.60
  -6  -3  -6  297.67   20.70
   6  -3   6  274.77   34.30
   6  -3   6  330.67   20.10
   6  -3   6  323.87   30.90
   6   3   7   43.20   12.40
  -6   3  -7   69.49   16.20
   6   3   7   52.19   18.20
  -6   3  -7   47.60   12.30
   6   3   7   49.60   18.60
  -6   3  -7   42.10   13.60
   6   3   7   49.20    8.30
   6   3   7   40.00   11.30
   6   3   7   21.90   14.60
  -6   3  -7   43.50   10.20
  -6  -3  -7   43.90    8.40
   6  -3   7   37.30   27.60
  -6  -3  -7   52.49   12.40
   6  -3   7   58.19   11.90
   6  -3   7   48.70    8.20
   6  -3   7    5.70   15.60
   6  -3   7   32.90   14.00
   6  -3   7   33.70   21.20
   6   3   8   48.40   22.50
  -6   3  -8   59.09   13.80
   6   3   8   38.70   15.50
   6   3   8   31.80   17.90
  -6   3  -8  101.79   21.00
   6   3   8   54.19   10.00
  -6   3  -8   50.59   12.10
   6   3   8   35.50   20.00
   6   3   8   54.69   13.50
   6  -3   8   66.39   28.10
   6  -3   8   51.19   36.20
  -6  -3  -8   41.90   10.00
   6  -3   8   61.09    9.80
  -6  -3  -8   64.39   15.80
   6  -3   8   38.20   11.90
   6   3   9  -24.00   17.40
  -6   3  -9   16.60   19.70
   6   3   9    5.80    9.10
   6   3   9    2.90   12.80
   6   3   9   54.99   26.90
  -6   3  -9   -4.60   12.00
  -6  -3  -9   -7.60   10.30
   6  -3   9    0.10   11.40
   6  -3   9   51.29   42.00
   6  -3   9   -1.70    9.50
   6  -3   9   17.00   32.20
  -6   4   8  126.99   18.70
   6   4  -8  181.28   22.70
   6   4  -8  153.98   25.10
  -6   4   8  174.08   27.80
   6   4  -8  208.88   44.10
  -6   4   8  116.39   15.50
  -6  -4   8  175.88   20.40
  -6  -4   8  160.88   23.10
  -6  -4   8  116.39   33.00
   6  -4  -8  110.69   18.00
   6   4  -7    1.30   11.20
   6   4  -7   -6.80   25.10
  -6   4   7    0.70    8.10
  -6   4   7   -2.80    9.50
   6   4  -7  -15.30   10.90
  -6   4   7   -7.60   15.40
   6   4  -7   -0.30   10.90
  -6   4   7  -15.00   14.40
   6   4  -7   -8.50   12.90
   6  -4  -7   -6.10   12.00
  -6  -4   7  -17.30   19.50
  -6  -4   7    7.40   12.50
   6  -4  -7   -1.80   19.20
   6  -4  -7  -12.40   11.00
   6   4  -6  483.95   35.70
   6   4  -6  449.46   36.10
  -6   4   6  475.65   30.40
   6   4  -6  507.65   47.30
  -6   4   6  432.66   32.90
   6   4  -6  437.26   34.00
   6   4  -6  454.25   36.90
  -6   4   6  444.56   31.50
  -6  -4   6  461.65   32.20
   6  -4  -6  481.25   32.80
  -6  -4   6  461.25   34.30
  -6  -4   6  500.55   43.00
  -6  -4   6  433.76   33.10
   6  -4  -6  417.76   42.10
  -6   4   5   30.80    9.20
   6   4  -5   27.40   19.10
  -6   4   5   13.30   13.70
   6   4  -5   22.10   10.50
  -6   4   5   23.10    8.20
   6   4  -5   37.30   11.20
  -6   4   5   36.00   14.50
  -6   4   5   41.30   10.20
   6   4  -5   30.30    9.20
   6   4  -5   46.00   12.90
   6  -4  -5   48.20   13.60
  -6  -4   5   29.20   10.30
   6  -4  -5   35.70   15.10
  -6  -4   5   23.00    8.20
  -6  -4   5   26.10   14.40
   6  -4  -5   15.20    8.70
   6  -4  -5   15.90    8.70
   6   4  -4  275.87   20.00
   6   4  -4  308.17   31.70
  -6   4   4  274.47   19.90
  -6   4   4  209.38   23.60
   6   4  -4  284.67   23.00
  -6   4   4  234.88   27.60
  -6   4   4  236.58   20.90
   6   4  -4  273.17   22.90
   6   4  -4  261.47   24.60
   6  -4  -4  247.18   25.20
   6  -4  -4  209.18   19.90
  -6  -4   4  265.37   21.90
  -6  -4   4  277.27   19.50
   6  -4  -4  257.07   28.10
  -6  -4   4  274.47   21.90
  -6  -4   4  255.97   27.60
   6   4  -3   37.20   14.80
  -6   4   3   16.70    6.40
   6   4  -3   34.60    8.70
   6   4  -3   22.40    9.70
  -6   4   3   14.70    9.20
   6   4  -3   32.30    8.00
   6   4  -3   19.50    6.70
  -6   4   3   21.80    5.80
  -6   4   3   18.80    6.90
  -6   4   3   27.60   18.20
   6  -4  -3   18.00   11.00
  -6  -4   3   14.00    6.00
  -6  -4   3   17.00    7.20
   6  -4  -3   33.90    8.20
  -6  -4   3   37.40   14.50
  -6  -4   3   21.00    7.60
   6  -4  -3   38.30   13.90
  -6   4   2   78.89    8.20
  -6   4   2   82.49   11.20
   6   4  -2  111.79   18.60
   6   4  -2  107.59   12.40
   6   4  -2   72.09   12.40
  -6   4   2   77.29   10.80
   6   4  -2   87.79   17.50
  -6   4   2   97.69   14.00
   6   4  -2   84.59   10.20
   6  -4  -2   81.79   11.20
  -6  -4   2   77.19   13.50
  -6  -4   2   83.99    8.80
  -6  -4   2   78.89   11.90
   6  -4  -2   72.49   18.10
   6  -4  -2   77.09   15.00
   6  -4  -2   75.99   11.00
   6   4  -1   74.19   10.40
   6   4  -1   96.19   14.90
   6   4  -1   99.99   15.20
  -6   4   1   65.39   12.40
   6   4  -1   67.89    8.90
  -6   4   1   79.69   11.10
  -6   4   1   97.29   11.80
   6  -4  -1   51.49   15.60
  -6  -4   1  102.79   14.70
   6  -4  -1   81.19   10.90
  -6  -4   1   71.09   11.70
   6  -4  -1   65.09   10.10
   6   4   0  552.24   33.60
  -6   4   0  552.74   36.80
  -6   4   0  573.84   34.10
   6   4   0  531.45   36.70
  -6   4   0  571.24   34.20
   6   4   0  598.04   36.20
   6  -4   0  604.24   42.30
  -6  -4   0  580.64   36.20
   6  -4   0  491.05   33.80
   6  -4   0  561.04   32.80
   6  -4   0  521.35   32.80
  -6  -4   0  558.34   35.00
   6   4   1   69.59   10.80
   6   4   1  113.09   15.00
  -6   4  -1   89.69   15.60
  -6   4  -1  123.49   13.60
  -6   4  -1   95.59   12.30
   6   4   1  103.79   12.90
   6  -4   1   81.49   17.60
  -6  -4  -1   95.49   12.50
   6  -4   1   72.19   12.60
   6  -4   1   95.79   17.70
  -6   4  -2  804.52   47.40
   6   4   2  903.91   49.99
  -6   4  -2  831.62   48.10
   6   4   2  784.32   45.10
  -6   4  -2  898.01   50.89
   6   4   2  791.82   46.40
  -6  -4  -2  769.92   44.90
   6  -4   2  843.22   45.70
   6  -4   2  738.43   51.69
   6  -4   2  844.82   48.90
   6  -4   2  753.82   53.99
   6   4   3    2.50    7.00
  -6   4  -3    1.10    5.10
   6   4   3    2.90    5.70
  -6   4  -3   -1.80    7.50
  -6   4  -3   -0.90    7.90
  -6   4  -3   -2.30    7.40
  -6   4  -3    8.80   14.90
   6  -4   3   10.20   10.10
   6  -4   3   23.30   13.90
   6  -4   3   -3.80   12.60
   6  -4   3   13.60    8.60
   6  -4   3   -0.30    5.40
   6   4   4  319.07   23.30
   6   4   4  291.47   22.80
  -6   4  -4  271.77   25.80
   6   4   4  242.68   22.20
  -6   4  -4  282.97   25.60
  -6   4  -4  300.77   22.00
  -6   4  -4  283.37   25.60
  -6   4  -4  291.07   38.00
   6  -4   4  314.97   32.60
   6  -4   4  321.77   22.00
   6  -4   4  276.07   32.00
   6  -4   4  343.77   35.00
  -6   4  -5   10.40   10.10
  -6   4  -5   12.90    6.90
  -6   4  -5   33.40   23.10
  -6   4  -5    5.50   10.00
   6   4   5   12.10   11.90
   6   4   5   20.30   11.10
  -6   4  -5   15.40   11.70
   6   4   5   21.10    8.10
   6  -4   5   21.90   14.40
   6  -4   5   13.80   18.20
   6  -4   5    3.10    7.10
  -6   4  -6   28.00    9.30
  -6   4  -6   37.90   15.40
  -6   4  -6   17.50   11.60
  -6   4  -6   38.50   13.60
   6   4   6   36.80   10.60
   6   4   6   60.79   15.20
   6  -4   6   41.20   17.90
   6  -4   6   38.00   21.70
   6  -4   6   71.89   12.40
  -6   4  -7  -16.00   11.80
  -6   4  -7    1.00    9.00
  -6   4  -7   -6.30   11.40
   6   4   7   19.60    9.80
   6   4   7    8.20   16.90
  -6   4  -7  -13.50   17.00
   6   4   7   16.70   16.10
   6  -4   7  -17.70   22.80
   6  -4   7    3.80    9.40
   6  -4   7  -21.70   31.70
  -6   4  -8  162.28   24.50
  -6   4  -8   95.89   16.30
   6   4   8  112.39   25.70
  -6   4  -8   99.29   27.50
   6   4   8  101.69   17.90
   6   4   8   89.89   24.70
  -6   4  -8  120.79   20.40
   6  -4   8   93.79   47.70
   6  -4   8   84.59   15.70
   6   5  -7   -8.10   14.80
  -6   5   7   -3.20   17.70
  -6   5   7   -2.70   11.60
   6   5  -7  -23.90   15.00
   6   5  -7   17.80   15.20
  -6  -5   7   -0.70   14.80
  -6  -5   7  -22.00   25.90
  -6  -5   7   -7.70   17.40
   6   5  -6  -10.00   12.60
   6   5  -6   17.00   17.10
  -6   5   6   -0.50   13.50
   6   5  -6    4.80   13.30
  -6   5   6   -9.90   10.60
   6   5  -6  -16.20   11.30
  -6   5   6   17.60   18.80
  -6   5   6    4.20    9.80
  -6  -5   6   14.70   15.50
  -6  -5   6  -16.80   12.70
   6  -5  -6  -44.00   30.70
   6  -5  -6    0.50   20.50
   6   5  -5   49.20   14.50
   6   5  -5   71.79   15.30
   6   5  -5   61.19   12.80
   6   5  -5   69.99   18.10
  -6   5   5   33.00   19.50
  -6   5   5   51.39   11.60
  -6   5   5   54.89   11.30
  -6   5   5   63.19   12.90
  -6   5   5   73.49   17.60
   6  -5  -5   54.79   20.50
  -6  -5   5  106.39   14.00
   6  -5  -5  103.49   22.20
  -6  -5   5   82.19   14.20
  -6  -5   5   92.59   15.50
  -6  -5   5   50.59   20.80
  -6   5   4   23.90    9.30
   6   5  -4   34.10   14.90
  -6   5   4   12.70    8.40
   6   5  -4   24.70    9.50
  -6   5   4   57.59   15.00
   6   5  -4   36.80   22.00
  -6   5   4   30.80   10.80
   6   5  -4   34.00   11.40
  -6   5   4   18.80   20.00
   6  -5  -4   23.90    9.30
  -6  -5   4   34.70   11.20
  -6  -5   4   16.40   16.10
   6  -5  -4   54.19   18.60
  -6   5   3  371.66   22.20
   6   5  -3  409.46   27.90
  -6   5   3  320.77   33.50
   6   5  -3  353.16   24.50
  -6   5   3  333.17   29.40
   6   5  -3  389.36   38.40
   6   5  -3  370.66   28.40
   6   5  -3  298.27   30.40
  -6   5   3  358.26   25.10
  -6   5   3  326.27   25.30
   6  -5  -3  415.06   35.70
   6  -5  -3  334.07   25.70
  -6  -5   3  368.76   31.70
   6  -5  -3  312.97   33.90
  -6   5   2  144.99   15.00
   6   5  -2  105.19   17.30
   6   5  -2  151.08   22.50
  -6   5   2   92.89   19.10
  -6   5   2  101.79   16.30
  -6   5   2  127.39   15.50
   6   5  -2  136.19   18.10
   6  -5  -2   84.59   20.50
   6  -5  -2  107.79   13.80
   6  -5  -2  134.99   21.60
  -6  -5   2  128.59   17.60
   6  -5  -2  119.19   14.50
  -6   5   1  358.66   25.00
  -6   5   1  353.76   29.10
   6   5  -1  327.47   25.40
   6   5  -1  325.87   29.20
  -6   5   1  343.37   24.30
  -6   5   1  335.77   33.40
   6  -5  -1  246.58   32.10
  -6  -5   1  380.46   27.40
   6  -5  -1  323.07   23.80
   6  -5  -1  346.77   26.00
  -6   5   0   -0.40   10.30
  -6   5   0   14.10    8.90
  -6   5   0   10.60   14.60
  -6   5   0   11.80    7.50
   6   5   0   10.30   10.90
   6   5   0    1.80    8.40
   6  -5   0    8.00    7.50
   6  -5   0   -7.00   15.30
  -6  -5   0   18.00   13.40
   6  -5   0    0.10    9.70
   6  -5   0   14.70   16.80
  -6   5  -1   81.09   13.20
  -6   5  -1   84.99   13.30
   6   5   1   76.99   14.60
  -6   5  -1   54.69   18.60
  -6   5  -1   68.19   14.10
  -6   5  -1  113.19   14.60
   6  -5   1   84.79   13.60
   6  -5   1   75.19   20.00
   6  -5   1   83.49   14.90
   6  -5   1   65.19   10.50
   6  -5   1  126.59   23.80
  -6   5  -2   32.80   11.50
   6   5   2   19.00    9.40
  -6   5  -2   22.70   18.20
   6   5   2   21.90   11.10
  -6   5  -2   14.00    7.70
  -6   5  -2   22.40   10.80
  -6   5  -2   37.50   11.00
   6  -5   2   -6.70   16.40
   6  -5   2   43.10   13.70
   6  -5   2   30.30    9.30
   6  -5   2   42.90   13.00
   6  -5   2    3.80   19.00
  -6   5  -3   25.00   12.60
  -6   5  -3   23.10   21.50
  -6   5  -3   49.50    9.90
  -6   5  -3   61.19   14.30
   6   5   3   40.10   12.20
   6   5   3   52.39   11.00
   6  -5   3   43.00   15.90
   6  -5   3   33.10    9.20
   6  -5   3   38.70   19.60
  -6   5  -4  110.49   19.20
  -6   5  -4  137.29   16.20
   6   5   4  135.79   17.50
   6   5   4  116.89   17.70
  -6   5  -4  164.08   21.60
  -6   5  -4  115.99   18.80
   6  -5   4  148.39   25.70
   6  -5   4  137.79   15.90
  -6   5  -5  254.97   28.70
  -6   5  -5  218.28   20.80
  -6   5  -5  228.78   29.20
   6   5   5  217.88   22.90
  -6   5  -5  188.88   25.70
   6   5   5  186.48   23.90
   6  -5   5  246.88   30.20
   6  -5   5  228.68   21.20
   6  -5   5  211.38   32.90
  -6   5  -6   45.60   21.10
  -6   5  -6   46.00   11.70
   6   5   6   49.90   13.40
  -6   5  -6   35.10   19.30
   6  -5   6   38.30   12.20
   6  -5   6   43.60   28.10
   6  -5   6    9.20   36.30
   6   6  -4   -8.60   17.60
   6   6  -4  -29.00   13.70
   6   6  -4    7.60   20.00
  -6   6   4   -4.40   17.40
  -6  -6   4   22.10   17.90
   6   6  -3   29.80   20.30
   6   6  -3   67.69   15.40
   6   6  -3   49.70   20.90
  -6   6   3   40.50   17.20
  -6  -6   3   49.30   17.10
  -6  -6   3   46.70   18.40
   6   6  -2   -4.80   16.80
  -6   6   2   17.20   15.10
   6   6  -2  -14.40   14.70
   6   6  -2   22.00   13.10
  -6  -6   2   13.10   14.20
   6  -6  -2   10.90   23.20
  -6  -6   2   -1.70   13.80
   6   6  -1   81.99   19.20
  -6   6   1  127.99   20.90
   6   6  -1  105.39   17.50
  -6   6   1  111.79   36.00
  -6   6   1   96.49   13.50
   6   6  -1  132.99   23.00
   6  -6  -1  101.69   23.80
  -6   6   0  -18.50    9.00
   6   6   0    2.10   14.60
  -6   6   0  -26.30   14.10
   6   6   0   11.10   10.70
  -6   6   0   -1.10   32.10
  -6   6   0  -10.10   12.30
   6   6   0  -23.80   15.40
   6  -6   0   -4.60   20.60
  -6   6  -1  261.67   30.60
  -6   6  -1  299.17   25.20
   6   6   1  272.37   32.00
  -6   6  -1  213.98   27.90
  -6   6  -1  274.27   27.40
   6   6   1  289.17   25.80
   6   6   1  328.67   31.90
   6  -6   1  292.17   29.30
   6   6   2   71.19   18.10
   6   6   2   29.00   12.50
  -6   6  -2   48.50   14.00
  -6   6  -2   29.20   15.80
  -6   6  -2   46.10   16.00
   6   6   2   53.69   17.30
   6  -6   2   49.20   11.80
   6  -6   2   37.90   17.60
  -6   6  -3  102.49   16.20
  -6   6  -3   88.89   19.40
   6   6   3  116.59   21.60
  -6   6  -3   79.69   19.90
   6   6   3   74.69   16.60
  -6   6  -3  133.79   22.60
   6  -6   3   94.19   17.10
   6  -6   3  111.69   23.60
  -7   0  10   91.99   18.70
   7   0 -10  104.09   18.40
   7   0 -10  111.29   37.80
  -7   0  10  137.79   34.30
   7   0 -10  109.29   22.30
  -7   0   9   17.00   10.10
   7   0  -9   -0.90    9.80
   7   0  -9    0.80   11.10
   7   0  -9   10.20   19.00
   7   0  -9  -18.00   11.20
  -7   0   9  -12.60    8.90
   7   0  -9  -12.80   23.00
   7   0  -8   60.39   23.50
   7   0  -8   62.39   12.60
   7   0  -8   52.29   14.30
  -7   0   8   56.09   11.90
  -7   0   8   38.00   10.10
  -7   0   8   44.80   11.50
  -7   0   7  -11.20   12.20
  -7   0   7    1.20    5.70
   7   0  -7   -3.80   13.90
   7   0  -7    3.30    7.30
   7   0  -7    1.90    6.50
   7   0  -7    4.60    7.70
   7   0  -7   -5.20   11.70
   7   0  -6 1041.40   56.69
   7   0  -6  960.40   55.79
   7   0  -6  953.60   58.79
   7   0  -6  979.10   60.49
   7   0  -6 1102.49   69.69
  -7   0   6 1072.79   56.39
  -7   0   6  990.70   58.09
   7   0  -6  994.30   59.09
  -7   0   6 1069.29   65.29
   7   0  -5    7.00    9.80
   7   0  -5   -6.50    4.60
  -7   0   5    1.80    4.30
   7   0  -5    4.70    4.40
   7   0  -5   -0.60    5.30
   7   0  -5   -2.40    5.90
  -7   0   5   -2.30    4.50
  -7   0   5    4.20    8.20
   7   0  -5   -6.70    8.60
  -7   0   5   -3.30    3.80
   7   0  -4 1655.63   83.49
   7   0  -4 1627.44   93.79
  -7   0   4 1597.64   91.29
  -7   0   4 1572.54   82.69
  -7   0   4 1616.44   84.69
   7   0  -4 1645.04   85.89
   7   0  -4 1608.44   85.29
   7   0  -4 1566.34   85.09
  -7   0   4 1670.33   90.99
   7   0  -4 1543.15   87.69
  -7   0   3   -1.50    3.60
   7   0  -3   -1.30    4.10
   7   0  -3   -3.10    8.20
  -7   0   3   -3.30    6.60
  -7   0   3    2.90    3.30
   7   0  -3   -1.00    4.10
  -7   0   3    8.30    3.90
   7   0  -3    6.10    3.80
   7   0  -3   -0.30    3.90
   7   0  -3    2.10    7.80
   7   0  -2  826.22   48.10
   7   0  -2  868.31   50.69
  -7   0   2  905.91   53.59
   7   0  -2  887.81   55.69
   7   0  -2  883.91   47.30
  -7   0   2  874.01   46.50
  -7   0   2  889.51   46.60
   7   0  -2  813.52   47.80
  -7   0   2  879.51   48.00
   7   0  -1    1.80    3.50
   7   0  -1   -1.20    3.10
  -7   0   1   -1.50    3.10
  -7   0   1    3.60    3.80
  -7   0   1  -10.60    6.60
   7   0  -1   -0.50    5.10
   7   0  -1   -1.10    8.00
  -7   0   1  -13.00    5.10
  -7   0   1   -1.60    2.90
   7   0  -1    1.10    3.50
  -7   0   0  948.01   54.69
   7   0   0  996.50   54.39
  -7   0   0  970.40   51.69
   7   0   0  995.70   51.49
  -7   0   0 1007.90   52.49
   7   0   0  941.61   51.99
   7   0   0  988.50   58.69
  -7   0   0  983.00   58.89
   7   0   0  978.20   51.79
  -7   0   0  947.11   51.69
   7   0   1    1.70    2.90
  -7   0  -1   -2.00    3.20
   7   0   1   -1.10    3.20
   7   0   1    1.50    7.70
  -7   0  -1    1.70    3.50
  -7   0  -1    4.30    3.20
  -7   0  -1    3.30    5.40
  -7   0  -1    2.90    8.50
   7   0   1   -0.20    3.10
   7   0   1    2.80    5.00
  -7   0  -2 2581.04  133.19
  -7   0  -2 2611.24  134.79
   7   0   2 2707.83  132.09
  -7   0  -2 2716.13  133.39
   7   0   2 2567.64  131.99
   7   0   2 2548.15  133.59
  -7   0  -2 2747.53  132.99
   7   0   2 2612.24  139.09
  -7   0  -2 2787.92  141.99
   7   0   3   -0.40    3.10
   7   0   3    5.50    8.20
   7   0   3   -0.70    2.70
  -7   0  -3    3.50    9.90
  -7   0  -3    0.70    3.50
  -7   0  -3   -3.60    6.00
   7   0   3    5.90    4.90
  -7   0  -3    2.70    4.10
   7   0   3   12.00    6.40
  -7   0  -4  999.10   62.69
  -7   0  -4 1026.40   53.29
  -7   0  -4  847.22   54.09
   7   0   4 1010.70   60.49
   7   0   4  981.10   58.69
   7   0   4  989.90   52.49
   7   0   4 1020.30   55.49
  -7   0  -4  985.80   54.39
   7   0   4  957.00   52.49
   7   0   5   33.10    9.20
  -7   0  -5   33.00   14.90
   7   0   5   64.79   14.30
   7   0   5   39.20    7.20
   7   0   6  129.49   19.50
  -7   0  -6  110.29   12.80
   7   0   6  129.19   17.30
   7   0   6  128.09   13.40
   7   0   6  167.38   23.70
   7   0   7    3.90   10.80
  -7   0  -7    9.70    6.20
  -7   0  -7   -0.60   18.90
   7   0   7    0.60    5.30
   7   0   7   -2.40   13.40
  -7   0  -7  -17.50    9.00
   7   0   8   22.90    9.50
  -7   0  -8   22.70    9.20
   7   0   8    5.10   21.00
   7   0   8   24.90   16.20
   7   0   8   17.70   13.30
  -7   0  -8   31.60   13.70
   7   0   8   10.10   20.70
   7   0   8   12.20    7.60
   7   0   9    5.30   25.90
   7   0   9    4.50    9.90
   7   0   9  -15.60   17.70
   7   0   9    0.90   29.00
   7   0   9    7.30    9.30
  -7   0  -9  -13.80    8.30
   7   0  10   86.39   42.10
   7   0  10   53.99   26.70
   7   0  10   84.09   17.00
   7   0  10   69.19   35.00
   7   0  10  111.69   16.80
  -7   0 -10   72.39   15.50
  -7   1  10   56.59   20.50
  -7   1  10   67.79   14.50
   7   1 -10   48.00   16.40
   7   1 -10   33.50   15.90
   7   1 -10    7.10   28.70
  -7   1  10   71.19   29.00
   7   1 -10   77.69   25.90
   7  -1 -10   45.70   17.00
  -7  -1  10   67.39   17.90
  -7  -1  10   87.29   16.80
   7  -1 -10   53.79   31.60
   7  -1 -10   45.50   21.00
   7   1  -9  253.07   29.90
   7   1  -9  308.47   28.80
   7   1  -9  241.68   43.80
   7   1  -9  329.67   28.90
  -7   1   9  306.97   28.00
  -7   1   9  322.47   38.50
   7   1  -9  329.37   44.20
  -7   1   9  289.57   25.40
   7  -1  -9  212.08   37.20
   7  -1  -9  317.17   41.70
  -7  -1   9  284.97   27.50
   7  -1  -9  263.87   30.20
  -7  -1   9  322.97   26.90
  -7  -1   9  257.57   28.10
  -7  -1   9  327.57   43.80
   7   1  -8  305.97   41.30
   7   1  -8  363.36   28.10
   7   1  -8  332.37   26.50
  -7   1   8  361.86   28.20
   7   1  -8  322.17   32.20
  -7   1   8  339.37   25.10
  -7   1   8  272.57   25.90
   7   1  -8  299.47   29.10
   7  -1  -8  318.97   29.10
  -7  -1   8  373.16   29.00
   7  -1  -8  288.67   41.10
  -7  -1   8  272.47   37.90
   7  -1  -8  319.07   25.60
  -7  -1   8  286.47   26.00
   7  -1  -8  298.77   39.90
  -7   1   7  420.56   29.30
  -7   1   7  418.36   30.30
  -7   1   7  388.86   36.90
   7   1  -7  396.36   30.60
   7   1  -7  392.96   41.80
   7   1  -7  383.56   28.60
  -7   1   7  433.46   28.20
   7   1  -7  406.16   32.50
  -7  -1   7  421.96   38.90
   7  -1  -7  434.06   32.40
  -7  -1   7  389.76   30.50
   7  -1  -7  440.06   28.40
   7  -1  -7  384.56   44.30
   7  -1  -7  368.46   30.90
  -7  -1   7  441.96   29.00
  -7  -1   7  418.46   28.90
   7   1  -6   48.40   12.50
  -7   1   6   33.30    8.60
   7   1  -6   17.30    8.00
   7   1  -6   28.70    9.10
   7   1  -6   40.90   15.80
  -7   1   6   24.10    6.50
   7   1  -6   33.90    8.10
   7   1  -6   57.89   11.90
  -7   1   6   20.00    7.70
  -7   1   6   37.20   13.80
  -7  -1   6   28.50   12.30
   7  -1  -6   30.00    9.50
   7  -1  -6   35.30   10.80
   7  -1  -6   20.50   13.60
  -7  -1   6   29.60    8.60
  -7  -1   6   34.70    8.20
   7   1  -5   44.80   12.10
   7   1  -5   63.89   11.00
   7   1  -5   44.30    9.50
  -7   1   5   74.09   15.70
  -7   1   5   46.20    7.90
   7   1  -5   60.69   10.50
   7   1  -5   43.80   14.40
   7   1  -5   56.09    8.60
  -7   1   5   54.79    9.30
   7  -1  -5   41.70    9.40
   7  -1  -5   53.19   11.80
   7  -1  -5   46.60    8.60
  -7  -1   5   41.20    8.90
  -7  -1   5   73.19   15.50
  -7  -1   5   67.29   10.60
  -7  -1   5   47.60    8.30
   7  -1  -5   32.20   14.50
  -7   1   4   98.89   10.20
   7   1  -4  111.99   11.20
  -7   1   4  148.99   20.00
  -7   1   4  120.99   11.10
   7   1  -4  108.49   12.70
   7   1  -4   99.49   14.30
   7   1  -4  100.29   12.50
  -7   1   4   94.19   11.30
   7   1  -4  113.49   13.80
  -7  -1   4   86.89   15.10
  -7  -1   4  106.09   10.30
  -7  -1   4  101.59   13.10
   7  -1  -4   81.49   11.80
  -7  -1   4   99.29   10.80
   7  -1  -4   95.69   13.10
   7  -1  -4   88.69   10.40
   7  -1  -4   97.09   14.10
   7  -1  -4   94.69   19.10
   7   1  -3  560.54   34.00
  -7   1   3  500.85   31.30
   7   1  -3  524.55   40.40
  -7   1   3  520.65   31.20
   7   1  -3  543.35   32.00
  -7   1   3  599.54   36.90
   7   1  -3  565.64   34.00
   7   1  -3  612.94   35.00
   7   1  -3  541.95   35.20
  -7   1   3  518.05   38.10
  -7   1   3  561.74   33.40
  -7  -1   3  535.35   31.90
   7  -1  -3  549.95   33.80
   7  -1  -3  575.64   41.70
   7  -1  -3  582.54   31.20
  -7  -1   3  562.14   31.80
  -7  -1   3  562.24   38.40
   7  -1  -3  584.04   34.40
   7  -1  -3  495.15   32.10
  -7  -1   3  603.94   33.70
  -7   1   2  486.45   30.90
  -7   1   2  389.66   26.00
   7   1  -2  455.85   26.30
   7   1  -2  346.17   26.70
   7   1  -2  485.05   28.20
   7   1  -2  442.86   34.30
   7   1  -2  496.35   28.20
   7   1  -2  466.45   29.90
  -7   1   2  469.65   25.40
  -7   1   2  337.47   31.20
  -7   1   2  376.66   26.50
   7  -1  -2  429.46   27.50
  -7  -1   2  475.25   27.40
  -7  -1   2  536.35   33.10
  -7  -1   2  453.55   25.60
   7  -1  -2  373.36   26.50
   7  -1  -2  482.55   27.80
  -7  -1   2  383.16   26.50
   7  -1  -2  412.36   34.70
   7  -1  -2  418.96   29.10
   7   1  -1 2342.77  138.19
  -7   1   1 2840.62  131.69
  -7   1   1 2738.93  135.99
   7   1  -1 2356.36  131.69
   7   1  -1 2782.82  134.79
  -7   1   1 2651.14  139.09
  -7   1   1 2942.51  132.89
   7   1  -1 2885.31  132.49
   7   1  -1 2264.37  131.19
   7  -1  -1 2627.64  134.79
   7  -1  -1 2866.91  140.59
   7  -1  -1 2762.62  132.19
  -7  -1   1 2682.73  132.29
  -7  -1   1 2171.98  135.79
   7  -1  -1 2825.72  132.19
  -7  -1   1 2289.07  130.79
   7  -1  -1 2489.15  131.39
  -7  -1   1 2853.61  132.19
   7   1   0 1248.18   76.29
  -7   1   0 1482.85   82.29
   7   1   0 1446.16   74.09
   7   1   0 1487.45   74.19
  -7   1   0 1451.85   73.29
  -7   1   0 1289.07   77.19
  -7   1   0 1547.55   75.19
   7   1   0 1467.85   73.99
  -7   1   0 1480.65   74.39
   7   1   0 1416.06   80.69
  -7  -1   0 1518.15   73.79
   7  -1   0 1455.35   74.89
   7  -1   0 1480.85   81.29
   7  -1   0 1190.48   76.09
  -7  -1   0 1450.95   80.49
  -7  -1   0 1456.45   74.59
   7  -1   0 1434.56   73.39
   7  -1   0 1467.75   74.09
  -7  -1   0 1495.85   75.09
   7   1   1  584.14   38.20
   7   1   1  699.53   38.80
  -7   1  -1  655.53   46.50
  -7   1  -1  765.52   41.90
  -7   1  -1  638.24   39.20
   7   1   1  811.42   45.60
  -7   1  -1  655.83   37.90
  -7   1  -1  562.54   38.20
   7   1   1  706.63   41.00
   7   1   1  760.82   38.20
  -7  -1  -1  784.02   39.10
  -7  -1  -1  766.62   46.30
   7  -1   1  704.43   41.80
   7  -1   1  648.64   41.00
   7  -1   1  742.33   37.50
  -7  -1  -1  738.23   38.70
   7  -1   1  624.54   38.50
   7   1   2  390.76   32.60
   7   1   2  444.76   28.10
  -7   1  -2  541.85   30.20
   7   1   2  502.85   30.00
  -7   1  -2  480.85   30.50
  -7   1  -2  496.05   37.50
   7   1   2  483.75   29.40
  -7   1  -2  475.65   28.60
   7   1   2  496.15   28.60
  -7   1  -2  494.65   28.50
   7  -1   2  482.55   28.30
   7  -1   2  399.46   27.00
   7  -1   2  492.25   30.30
  -7  -1  -2  466.15   28.90
   7  -1   2  579.14   33.60
   7  -1   2  463.45   35.40
   7  -1   2  550.44   32.20
  -7  -1  -2  427.06   35.00
  -7   1  -3   37.70    7.40
   7   1   3    5.60    6.30
  -7   1  -3   21.30    5.50
  -7   1  -3   21.70   11.80
   7   1   3   26.20    5.70
  -7   1  -3   22.90    7.00
   7   1   3    4.10    8.60
   7   1   3   19.50    6.60
   7   1   3   21.20    5.10
   7  -1   3   28.00    5.40
   7  -1   3   11.10   10.20
   7  -1   3   26.50    6.00
   7  -1   3   25.20    8.60
  -7  -1  -3   20.20   11.40
  -7  -1  -3   22.20    6.00
   7  -1   3   25.70    8.30
   7  -1   3   22.20   12.10
   7   1   4  119.39   12.20
   7   1   4  147.89   20.00
  -7   1  -4  146.39   23.80
   7   1   4  116.99   13.90
  -7   1  -4  116.99   13.90
  -7   1  -4  149.69   13.00
  -7   1  -4  125.49   13.50
   7   1   4  130.89   11.60
   7  -1   4  133.49   16.90
  -7  -1  -4  154.18   23.40
   7  -1   4  138.99   11.80
   7  -1   4  174.88   23.30
  -7  -1  -4  129.09   12.00
  -7  -1  -4  127.39   13.20
   7  -1   4  141.99   15.80
   7  -1   4  148.29   15.60
   7  -1   4  148.09   12.50
  -7   1  -5   21.50   15.00
  -7   1  -5   45.30    9.10
   7   1   5   38.00    7.80
   7   1   5   33.20    9.10
  -7   1  -5   29.70    6.70
   7   1   5   44.70   14.10
   7   1   5   23.80   11.10
  -7   1  -5   24.70    7.80
   7   1   5   30.20    6.30
   7  -1   5   28.10    6.50
  -7  -1  -5   22.50    7.20
   7  -1   5    3.90    9.40
   7  -1   5   34.60    6.60
   7  -1   5   30.70   13.20
  -7  -1  -5   23.60    6.10
   7  -1   5   30.80    9.50
  -7  -1  -5   36.40   14.90
   7   1   6  531.65   37.90
   7   1   6  575.84   36.70
   7   1   6  452.95   38.90
   7   1   6  540.85   41.20
  -7   1  -6  510.75   44.60
  -7   1  -6  503.35   35.60
  -7   1  -6  522.35   33.00
  -7   1  -6  523.75   33.00
   7   1   6  495.25   33.70
   7  -1   6  524.65   37.20
   7  -1   6  541.25   33.70
  -7  -1  -6  508.55   43.80
  -7  -1  -6  525.75   34.40
   7  -1   6  511.35   31.60
   7  -1   6  526.45   35.00
  -7  -1  -6  549.74   32.20
   7  -1   6  503.25   41.10
  -7   1  -7  220.28   34.00
  -7   1  -7  228.48   19.30
   7   1   7  164.68   26.50
   7   1   7  200.98   17.70
   7   1   7  146.99   22.70
   7   1   7  241.48   20.30
  -7   1  -7  187.18   23.20
   7  -1   7  211.38   17.90
   7  -1   7  216.48   18.70
  -7  -1  -7  257.27   25.30
   7  -1   7  207.18   23.60
  -7  -1  -7  223.98   18.30
   7  -1   7  205.48   29.70
  -7   1  -8   40.00   10.30
   7   1   8   50.39   20.90
   7   1   8   68.09   11.20
  -7   1  -8   91.69   19.00
   7   1   8   32.10   24.10
   7   1   8   35.00   16.00
   7   1   8   44.10   10.90
   7   1   8   90.99   19.70
   7  -1   8   77.09   11.20
  -7  -1  -8   84.49   12.30
  -7  -1  -8   46.80   15.20
   7  -1   8   52.29   16.40
   7  -1   8   19.60   17.20
   7  -1   8   45.00   10.80
   7  -1   8   58.79   25.70
   7   1   9   51.39   30.80
   7   1   9   50.49   13.30
   7   1   9   82.29   21.70
   7   1   9   57.89   12.10
  -7   1  -9   77.79   13.30
   7   1   9   76.69   27.50
   7  -1   9   94.29   15.60
   7  -1   9  104.89   32.30
   7  -1   9   73.49   13.50
   7  -1   9   76.99   36.00
  -7  -1  -9   70.49   12.60
   7  -1   9   62.59   20.90
   7   1  10   22.10   25.90
   7   1  10   -5.00   10.70
   7   1  10   14.80   32.50
  -7   1 -10   -9.50   11.70
   7   1  10   -5.00   13.00
   7  -1  10  -18.40   40.10
   7  -1  10  -12.30   12.20
  -7  -1 -10    6.50   20.60
   7  -1  10   43.80   36.90
   7  -1  10    0.60   12.00
   7   2 -10   40.30   36.30
  -7   2  10    0.40   25.10
   7   2 -10   12.70   16.80
  -7   2  10   17.80   13.90
  -7   2  10   -0.40   13.30
   7   2 -10   -0.20   18.50
   7  -2 -10    8.70   31.00
   7  -2 -10  -15.10   14.80
  -7  -2  10   13.20   33.80
  -7  -2  10   15.70   15.10
  -7   2   9   18.20   10.60
   7   2  -9   34.90   14.50
   7   2  -9   26.90   29.70
   7   2  -9    5.90   13.20
   7   2  -9   17.60   13.20
   7   2  -9   27.80   21.50
  -7   2   9   24.90   11.40
  -7   2   9   -8.90   30.60
  -7  -2   9   -0.90   12.10
  -7  -2   9   -1.50   12.70
  -7  -2   9    7.70   23.20
   7  -2  -9   -0.60   25.40
   7  -2  -9   20.80   13.80
  -7   2   8    2.80    8.40
  -7   2   8   13.30    8.40
   7   2  -8    2.00   10.60
   7   2  -8   -1.10   10.40
   7   2  -8    1.20   10.50
  -7   2   8    5.40   11.90
   7   2  -8  -28.40   22.00
  -7   2   8   11.20   16.90
   7  -2  -8   -0.30   14.60
   7  -2  -8   21.90   10.10
  -7  -2   8    0.60    9.20
  -7  -2   8   -2.10   20.40
  -7  -2   8    2.90    9.90
   7  -2  -8    2.40   10.40
  -7  -2   8   -7.10    8.50
   7  -2  -8  -16.50   19.00
   7   2  -7  320.37   25.20
   7   2  -7  316.07   39.50
  -7   2   7  340.87   26.30
   7   2  -7  313.37   28.20
   7   2  -7  304.87   28.10
  -7   2   7  299.37   22.70
   7   2  -7  332.67   28.10
  -7   2   7  306.67   25.50
  -7   2   7  327.37   33.10
   7  -2  -7  252.57   27.30
   7  -2  -7  340.37   39.10
  -7  -2   7  336.57   27.60
  -7  -2   7  288.17   23.80
   7  -2  -7  307.67   27.10
  -7  -2   7  387.96   37.30
   7   2  -6   -3.60    7.40
   7   2  -6    3.00    6.30
  -7   2   6   10.90    6.60
   7   2  -6   -7.50    7.60
  -7   2   6    0.60    5.60
  -7   2   6   -4.70    6.10
   7   2  -6  -11.80   16.10
   7  -2  -6    5.70    7.60
   7  -2  -6    3.70   13.50
  -7  -2   6    5.70   12.70
   7  -2  -6   13.70   10.60
  -7  -2   6    4.40    7.40
  -7  -2   6    0.10    6.80
   7  -2  -6    3.50    9.20
  -7   2   5 1393.16   75.49
  -7   2   5 1470.55   80.89
   7   2  -5 1308.57   73.69
   7   2  -5 1256.17   81.99
  -7   2   5 1389.06   69.99
   7   2  -5 1289.77   73.49
   7   2  -5 1240.98   76.09
  -7   2   5 1313.27   70.19
   7   2  -5 1506.25   75.09
  -7   2   5 1262.27   71.39
  -7  -2   5 1356.46   72.99
   7  -2  -5 1083.69   72.19
  -7  -2   5 1274.07   70.19
   7  -2  -5 1345.97   72.99
  -7  -2   5 1386.06   79.79
   7   2  -4   19.50    6.90
  -7   2   4    8.00    9.00
  -7   2   4    7.20    9.60
  -7   2   4   14.60    4.80
   7   2  -4   26.90    8.20
   7   2  -4   16.00   11.90
  -7   2   4    8.00    5.10
   7   2  -4   20.20    5.70
  -7   2   4    9.80    5.50
   7   2  -4    2.30    6.30
  -7  -2   4    6.60    5.30
  -7  -2   4   10.90    9.90
   7  -2  -4   16.00    7.10
   7  -2  -4    6.60   10.90
   7  -2  -4   19.50    9.10
  -7  -2   4   14.90    6.60
  -7   2   3 1419.66   74.39
   7   2  -3 1269.57   77.09
   7   2  -3 1304.77   71.39
  -7   2   3 1320.27   67.39
   7   2  -3 1352.96   71.49
  -7   2   3 1194.88   68.29
  -7   2   3 1347.47   69.99
   7   2  -3 1317.47   70.39
   7   2  -3 1309.27   68.29
   7  -2  -3 1283.37   72.29
   7  -2  -3 1291.97   69.69
   7  -2  -3 1101.59   68.69
   7  -2  -3 1436.56   80.69
  -7  -2   3 1389.66   75.69
  -7  -2   3 1296.67   67.69
   7  -2  -3 1475.25   71.49
  -7  -2   3 1356.76   69.89
  -7  -2   3 1121.39   68.59
  -7   2   2   -3.40    7.00
  -7   2   2    3.90    4.00
  -7   2   2    4.10    3.10
   7   2  -2   -1.90    4.20
  -7   2   2    0.40    3.80
   7   2  -2    1.10    5.20
   7   2  -2   -3.70    3.30
   7   2  -2   14.00    9.40
  -7   2   2    4.60    8.80
   7   2  -2   -2.20    4.60
   7  -2  -2    2.80    3.90
  -7  -2   2   -2.30    2.80
   7  -2  -2   -0.60    7.00
   7  -2  -2   -1.60   10.20
  -7  -2   2   -9.20    3.80
   7  -2  -2   -1.80    4.70
   7  -2  -2    1.20    5.00
  -7  -2   2    4.50    4.50
   7   2  -1   81.09    9.90
  -7   2   1   72.39    8.90
   7   2  -1   68.69    9.20
   7   2  -1   59.69   13.80
  -7   2   1   71.39   11.90
   7   2  -1   73.59    9.20
   7   2  -1   90.19   11.30
  -7   2   1   80.39   15.70
  -7   2   1   68.19    8.10
  -7   2   1   83.89    9.60
   7  -2  -1   72.19   11.70
   7  -2  -1   82.89   16.90
   7  -2  -1   88.19    9.70
  -7  -2   1   84.89    9.50
   7  -2  -1   61.39    9.00
   7  -2  -1   72.79    9.60
  -7  -2   1   77.39    9.70
   7  -2  -1   81.49   10.10
  -7  -2   1   65.69   12.70
  -7  -2   1   51.99    8.00
   7   2   0   40.50    7.20
   7   2   0   44.00    9.20
  -7   2   0   28.10    6.40
   7   2   0   31.50   11.70
  -7   2   0   35.90    8.60
   7   2   0   37.20    7.30
  -7   2   0   23.50    6.40
  -7   2   0   37.80   13.10
  -7   2   0   39.20    5.80
   7   2   0   30.90    6.10
   7  -2   0   32.20   12.30
   7  -2   0   32.20    5.90
  -7  -2   0   33.50    6.60
   7  -2   0   35.50    7.50
  -7  -2   0   27.00    6.40
   7  -2   0   30.50    6.80
   7  -2   0   25.10    8.80
  -7  -2   0   41.50   11.50
   7  -2   0   25.10    6.10
   7   2   1  683.63   36.40
  -7   2  -1  667.53   39.00
  -7   2  -1  659.83   37.50
  -7   2  -1  622.04   37.30
   7   2   1  670.03   42.80
   7   2   1  715.43   36.30
  -7   2  -1  680.03   46.40
   7   2   1  638.24   38.20
   7  -2   1  668.43   40.50
  -7  -2  -1  634.84   36.00
  -7  -2  -1  531.65   37.20
  -7  -2  -1  668.53   42.70
   7  -2   1  539.55   36.20
   7  -2   1  592.84   37.60
   7  -2   1  691.93   38.90
   7   2   2   -3.90    7.90
  -7   2  -2   13.70   10.80
  -7   2  -2   11.00    6.30
   7   2   2    4.90    3.50
   7   2   2   -3.20    3.80
   7   2   2    6.60    4.70
   7   2   2   -0.10    7.10
  -7   2  -2   11.20    5.00
  -7   2  -2    7.50    6.00
  -7  -2  -2   12.90    5.40
   7  -2   2   16.00   10.50
   7  -2   2   10.90    4.80
  -7  -2  -2   14.00    4.80
  -7  -2  -2    7.60    9.00
   7  -2   2   10.10    6.60
   7  -2   2    5.10    6.60
   7  -2   2    3.50    6.90
  -7  -2  -2   -0.50    3.70
  -7   2  -3 1574.34   83.89
   7   2   3 1216.78   82.49
   7   2   3 1345.07   77.79
   7   2   3 1588.94   79.89
  -7   2  -3 1494.65   89.39
   7   2   3 1553.44   79.59
  -7   2  -3 1515.55   81.39
  -7   2  -3 1634.54   79.99
   7  -2   3 1516.75   81.79
   7  -2   3 1653.63   88.79
  -7  -2  -3 1518.15   78.79
   7  -2   3 1607.04   83.39
  -7  -2  -3 1586.84   86.19
   7  -2   3 1545.65   79.09
  -7  -2  -3 1535.95   78.69
   7  -2   3 1480.75   82.69
   7   2   4   13.30   10.90
   7   2   4    1.60    6.50
  -7   2  -4   15.40    7.70
  -7   2  -4   12.80    6.40
  -7   2  -4   22.30    6.50
   7   2   4   16.20    5.00
  -7   2  -4   10.40   12.70
   7   2   4    9.80    5.40
  -7  -2  -4   -1.50   10.40
   7  -2   4   15.50    8.40
   7  -2   4   14.50    4.70
   7  -2   4   22.00   13.80
  -7  -2  -4    3.70    5.40
  -7  -2  -4    8.90    5.30
   7  -2   4   23.10    9.30
   7  -2   4    9.50    5.20
   7  -2   4  -12.90    8.40
   7   2   5  837.92   49.90
   7   2   5  854.61   46.50
  -7   2  -5  829.92   48.60
  -7   2  -5  880.11   62.79
   7   2   5  828.72   54.59
  -7   2  -5  854.71   51.19
  -7   2  -5  849.61   49.99
   7  -2   5  822.32   48.20
   7  -2   5  857.91   58.59
  -7  -2  -5  817.42   56.09
   7  -2   5  904.31   46.20
   7  -2   5  813.42   52.19
   7  -2   5  896.51   52.79
  -7  -2  -5  926.31   47.40
   7   2   6   13.30   12.20
  -7   2  -6   27.10    8.60
  -7   2  -6   50.79   21.30
  -7   2  -6   30.60    7.80
   7   2   6   24.70    8.10
  -7   2  -6   13.40   10.00
   7   2   6   43.70   16.00
   7   2   6   16.80    6.50
   7  -2   6   15.00   12.30
   7  -2   6   42.30   14.40
  -7  -2  -6   32.00   10.00
   7  -2   6   21.30    6.00
  -7  -2  -6   35.40   17.60
   7  -2   6   35.80   17.10
   7  -2   6    2.40   10.70
   7  -2   6   33.90    9.00
   7   2   7   22.60   17.10
  -7   2  -7   -4.40   20.80
  -7   2  -7   -5.50    8.00
   7   2   7  -10.70   17.00
   7   2   7    4.90    5.80
  -7   2  -7   12.90    7.20
   7   2   7   12.20    7.40
  -7   2  -7   -1.70   13.50
   7   2   7   16.50   11.90
  -7  -2  -7   27.30   20.90
   7  -2   7  -22.90   13.60
   7  -2   7   31.50   19.70
  -7  -2  -7    9.50    7.10
   7  -2   7   13.10    7.00
   7  -2   7    9.00    7.20
   7   2   8  -13.30    6.70
  -7   2  -8  -12.20    8.60
   7   2   8    0.80   16.00
  -7   2  -8   -1.80   15.30
   7   2   8  -10.40   19.30
   7   2   8  -15.20   35.30
   7   2   8   -1.40    7.30
   7   2   8   -3.30   15.30
   7  -2   8   -7.60   14.80
   7  -2   8    4.20   20.40
  -7  -2  -8    4.00   14.40
  -7  -2  -8   -1.80    7.90
   7  -2   8   -5.90    8.10
   7  -2   8    6.80    7.30
  -7   2  -9   94.19   15.80
   7   2   9   82.29   46.60
  -7   2  -9   93.29   15.60
   7   2   9  139.79   31.70
   7   2   9   73.69   12.80
   7   2   9  109.19   21.20
   7   2   9   78.99   24.20
   7  -2   9   95.69   32.80
   7  -2   9  111.19   17.00
   7  -2   9   68.49   12.50
  -7  -2  -9   77.09   13.60
   7   3  -9   43.70   17.90
   7   3  -9   22.30   15.20
   7   3  -9   19.10   35.20
   7   3  -9   31.20   16.80
  -7   3   9    5.90   11.00
  -7  -3   9   55.09   16.40
  -7  -3   9   42.50   30.80
   7  -3  -9   18.00   15.50
  -7   3   8  188.88   23.60
   7   3  -8  170.28   36.60
  -7   3   8  146.49   18.90
   7   3  -8  182.38   22.80
   7   3  -8  144.69   21.90
  -7   3   8  113.09   26.10
   7   3  -8  131.89   21.70
  -7   3   8  213.98   22.70
  -7  -3   8  148.69   32.40
   7  -3  -8  156.88   21.30
  -7  -3   8  242.58   28.90
  -7  -3   8  221.38   23.80
   7  -3  -8  119.59   37.80
   7   3  -7   93.79   16.40
  -7   3   7   75.49   14.10
  -7   3   7  113.59   17.30
  -7   3   7   82.09   13.90
   7   3  -7   83.19   16.70
   7   3  -7   99.39   15.20
  -7   3   7   60.19   19.10
   7   3  -7   86.19   17.30
   7   3  -7   81.29   26.20
  -7  -3   7  129.79   18.20
   7  -3  -7   91.09   13.90
  -7  -3   7  107.29   15.70
   7  -3  -7  110.29   25.90
   7  -3  -7   77.09   24.20
  -7  -3   7   98.99   24.00
  -7  -3   7   60.79   13.40
   7  -3  -7  106.79   16.20
   7   3  -6   73.89   24.10
  -7   3   6   84.89   13.40
  -7   3   6   75.49   10.90
  -7   3   6   96.99   17.20
   7   3  -6   42.90   11.10
  -7   3   6   62.69   17.40
  -7   3   6   68.39   12.20
   7   3  -6   89.59   16.60
   7   3  -6   84.59   14.60
   7   3  -6   67.59   14.00
   7  -3  -6   67.09   12.90
  -7  -3   6  100.39   21.90
   7  -3  -6   65.29   19.10
   7  -3  -6   94.99   16.20
  -7  -3   6   66.49   11.70
  -7  -3   6   84.29   12.70
   7  -3  -6   74.89   15.50
  -7  -3   6   64.19   12.90
  -7   3   5    7.00   11.30
   7   3  -5   20.80    9.30
  -7   3   5   17.00   11.60
   7   3  -5   17.20    9.30
  -7   3   5    6.30    7.20
  -7   3   5    5.00    5.70
  -7   3   5   15.90    6.70
   7   3  -5    6.70    7.80
   7   3  -5   17.50    7.20
   7   3  -5   15.80   14.70
   7  -3  -5   20.20   14.80
  -7  -3   5    6.40   12.80
   7  -3  -5   23.10    8.70
  -7  -3   5    5.50    6.00
   7  -3  -5   16.50    8.10
   7  -3  -5   14.80   11.30
  -7  -3   5   18.80    8.50
  -7   3   4   36.40    7.90
  -7   3   4   45.00    9.10
   7   3  -4   26.90    9.40
  -7   3   4   43.10    7.70
  -7   3   4   38.10   12.40
   7   3  -4   40.80    7.90
   7   3  -4   39.00   14.10
   7   3  -4   56.49   11.00
   7   3  -4   47.50   11.40
  -7  -3   4    6.50   17.70
  -7  -3   4   47.70    9.90
   7  -3  -4   50.39   17.40
  -7  -3   4   42.20    9.80
   7  -3  -4   47.20   10.00
   7  -3  -4   41.60   12.10
   7   3  -3  255.17   22.30
  -7   3   3  232.18   26.00
   7   3  -3  257.37   20.50
  -7   3   3  254.97   17.10
  -7   3   3  262.87   19.80
  -7   3   3  281.57   24.40
   7   3  -3  259.07   18.40
   7   3  -3  251.57   21.60
  -7   3   3  235.78   18.20
   7   3  -3  229.48   27.10
   7  -3  -3  250.87   23.70
  -7  -3   3  238.48   19.60
  -7  -3   3  241.48   17.20
  -7  -3   3  266.87   25.40
  -7  -3   3  255.47   20.30
   7  -3  -3  228.18   18.90
   7  -3  -3  207.88   28.10
   7  -3  -3  290.17   21.20
   7   3  -2  822.52   48.10
   7   3  -2  771.32   51.29
  -7   3   2  826.52   48.40
   7   3  -2  722.43   45.70
   7   3  -2  840.02   43.70
   7   3  -2  815.22   45.30
  -7   3   2  791.62   41.50
  -7   3   2  667.13   44.40
  -7   3   2  848.22   53.89
  -7   3   2  827.72   44.20
   7  -3  -2  828.82   49.10
   7  -3  -2  649.04   44.50
   7  -3  -2  814.32   45.00
  -7  -3   2  839.92   49.80
  -7  -3   2  796.92   42.50
  -7  -3   2  804.22   45.40
  -7  -3   2  779.22   44.30
   7   3  -1  866.01   53.19
  -7   3   1  901.71   48.10
   7   3  -1  883.11   50.59
   7   3  -1  853.51   47.00
  -7   3   1  837.92   47.20
  -7   3   1  871.01   50.49
   7   3  -1  787.12   46.00
   7   3  -1  928.61   48.20
  -7   3   1  819.82   68.39
  -7  -3   1  685.43   50.09
   7  -3  -1  844.52   51.29
  -7  -3   1  747.63   45.20
   7  -3  -1  702.73   46.80
  -7  -3   1  902.21   48.80
  -7  -3   1  848.02   46.30
   7  -3  -1  965.10   48.10
   7  -3  -1 1006.30   58.19
  -7   3   0 1076.69   60.39
   7   3   0 1065.69   60.39
  -7   3   0 1053.09   53.69
  -7   3   0 1173.88   58.49
   7   3   0  957.90   63.29
  -7   3   0  968.30   57.29
  -7   3   0 1045.30   66.79
   7   3   0 1154.58   56.99
   7   3   0 1078.59   57.29
   7   3   0 1029.60   55.49
   7  -3   0  984.50   54.29
  -7  -3   0 1079.49   64.99
   7  -3   0  987.00   57.89
   7  -3   0 1051.99   57.19
   7  -3   0 1055.39   65.09
   7  -3   0  997.10   61.39
  -7  -3   0 1115.09   55.09
  -7  -3   0 1084.19   55.89
   7  -3   0 1070.19   56.69
   7   3   1   65.49    8.30
   7   3   1   44.70    8.90
   7   3   1   78.19   14.20
  -7   3  -1   42.60    8.80
  -7   3  -1   60.79   10.90
   7   3   1   37.10    7.80
  -7   3  -1   43.10   15.10
  -7   3  -1   38.70    8.10
  -7  -3  -1   41.80    9.70
  -7  -3  -1   43.10   12.80
   7  -3   1   41.60    8.20
   7  -3   1   39.50   13.30
   7  -3   1   33.00    5.70
  -7  -3  -1   23.90    5.60
   7  -3   1   53.19   10.00
  -7  -3  -1   57.09    7.80
   7   3   2  315.07   26.80
   7   3   2  228.58   18.80
   7   3   2  215.48   23.40
  -7   3  -2  262.37   20.50
  -7   3  -2  243.48   28.80
   7   3   2  234.88   16.90
  -7   3  -2  245.38   18.20
  -7   3  -2  277.27   21.80
  -7  -3  -2  198.28   16.40
   7  -3   2  280.77   18.80
   7  -3   2  247.48   24.00
  -7  -3  -2  239.88   16.70
  -7  -3  -2  285.57   24.50
   7  -3   2  265.47   26.80
   7  -3   2  211.88   23.50
   7   3   3   20.10    6.80
  -7   3  -3   28.30    8.70
   7   3   3   16.80   11.10
  -7   3  -3   34.80   23.60
  -7   3  -3   19.50    9.40
  -7   3  -3   30.30    7.20
   7   3   3   25.60    5.60
  -7  -3  -3   22.20    6.80
   7  -3   3    5.50    8.50
   7  -3   3   31.90   13.90
  -7  -3  -3   19.80   10.90
   7  -3   3   16.60   10.60
   7  -3   3   15.60    5.60
  -7   3  -4   10.80   17.10
  -7   3  -4   12.60    8.40
  -7   3  -4   49.10   11.40
  -7   3  -4   21.80    7.00
   7   3   4   24.60    6.50
   7   3   4   37.30   13.00
   7   3   4   30.30    8.80
   7   3   4   32.60    8.30
  -7  -3  -4   34.00    7.60
   7  -3   4   17.90   12.30
  -7  -3  -4   21.40   13.20
   7  -3   4   20.50   17.90
   7  -3   4   34.40    5.50
   7  -3   4   33.30    7.00
  -7   3  -5   93.39   15.80
  -7   3  -5   70.09   10.90
   7   3   5   76.59    9.90
   7   3   5   44.80   16.10
   7   3   5   60.89   10.70
  -7   3  -5   61.69   21.50
  -7   3  -5   89.49   14.00
   7  -3   5   77.79   18.30
   7  -3   5   57.59   10.10
   7  -3   5   51.99   20.00
   7  -3   5   42.70   14.70
   7  -3   5   80.49    9.50
  -7  -3  -5   53.69    9.70
  -7  -3  -5   51.99   16.40
   7  -3   5   49.10   13.50
   7   3   6  409.76   25.40
  -7   3  -6  403.46   33.60
   7   3   6  410.56   35.70
  -7   3  -6  367.26   28.00
   7   3   6  387.46   30.40
   7   3   6  415.76   29.30
  -7   3  -6  418.96   31.10
   7   3   6  347.87   36.30
  -7  -3  -6  368.36   26.00
   7  -3   6  425.96   37.30
   7  -3   6  394.76   41.50
  -7  -3  -6  378.66   28.60
   7  -3   6  396.56   38.20
   7  -3   6  377.16   36.20
   7  -3   6  419.86   24.20
   7   3   7  171.08   20.30
   7   3   7  149.88   19.80
  -7   3  -7  203.98   28.00
  -7   3  -7  161.58   20.60
   7   3   7  132.89   25.60
  -7   3  -7  173.98   19.00
   7   3   7  163.28   15.80
   7   3   7  110.59   23.90
   7   3   7   84.99   22.80
  -7  -3  -7  166.48   17.00
   7  -3   7  114.79   28.00
   7  -3   7  180.08   15.40
   7  -3   7  157.18   18.40
  -7  -3  -7  147.49   18.90
  -7   3  -8  134.09   17.50
   7   3   8  165.98   46.00
   7   3   8   99.89   27.30
   7   3   8  120.59   21.50
   7   3   8  153.38   16.20
  -7   3  -8  117.39   17.90
   7   3   8   97.79   17.00
   7  -3   8  128.89   16.00
   7  -3   8  120.89   33.30
   7  -3   8  121.09   18.60
   7  -3   8  115.89   40.50
  -7  -3  -8  136.69   15.70
   7   4  -8    1.70   15.00
   7   4  -8   23.80   17.40
  -7   4   8   34.70   12.50
   7   4  -8   74.29   39.00
   7   4  -8    2.60   16.90
  -7   4   8   18.80   22.20
  -7  -4   8  -26.00   27.00
  -7  -4   8   19.40   20.40
   7  -4  -8   16.00   15.70
   7   4  -7    6.90   12.60
  -7   4   7   -0.70   10.60
  -7   4   7   22.80   16.80
   7   4  -7    2.90   12.40
  -7   4   7    9.00   10.10
   7   4  -7    2.70   12.30
   7   4  -7   22.60   26.70
  -7   4   7   -3.10   18.60
   7   4  -7   29.20   16.10
  -7   4   7    0.70   14.40
  -7  -4   7   -6.10   14.10
  -7  -4   7    9.70   22.20
  -7  -4   7   18.40   13.10
   7  -4  -7   -3.80   21.80
   7  -4  -7   17.20   13.00
   7   4  -6  411.76   48.00
  -7   4   6  226.88   38.00
   7   4  -6  357.66   32.30
  -7   4   6  302.27   27.40
   7   4  -6  389.96   32.20
   7   4  -6  378.66   28.90
  -7   4   6  401.76   29.50
  -7   4   6  388.66   29.20
   7   4  -6  385.16   34.70
  -7   4   6  315.67   36.00
   7  -4  -6  395.76   30.80
  -7  -4   6  368.66   35.00
  -7  -4   6  420.46   41.00
  -7  -4   6  379.76   31.10
   7  -4  -6  375.06   28.80
   7  -4  -6  408.96   35.70
  -7   4   5   30.60   16.20
   7   4  -5   38.60   20.00
   7   4  -5   30.60   13.10
  -7   4   5   29.50    9.60
   7   4  -5   40.90    9.70
  -7   4   5   46.60   10.30
   7   4  -5   47.80   13.50
   7   4  -5   22.90   10.30
  -7   4   5   37.40   10.10
   7  -4  -5   23.50   18.70
  -7  -4   5   45.50   12.30
   7  -4  -5   61.69   20.10
  -7  -4   5   44.40   12.10
  -7  -4   5   31.50    9.60
  -7  -4   5   25.90   15.60
   7  -4  -5   34.30   16.60
   7   4  -4  715.23   41.00
   7   4  -4  779.62   54.99
  -7   4   4  700.83   39.50
  -7   4   4  680.03   41.70
  -7   4   4  646.04   49.70
   7   4  -4  711.93   44.10
  -7   4   4  705.13   40.70
   7   4  -4  629.54   46.00
  -7  -4   4  586.74   53.19
   7  -4  -4  717.33   41.50
   7  -4  -4  700.63   48.70
   7  -4  -4  694.53   42.70
  -7  -4   4  726.33   49.30
  -7  -4   4  694.63   45.70
   7  -4  -4  705.13   52.89
  -7  -4   4  666.93   39.60
   7   4  -3   40.20   11.70
   7   4  -3   50.39   10.50
  -7   4   3   48.30    7.80
   7   4  -3   58.29    9.50
  -7   4   3   65.19   10.30
  -7   4   3   47.30   16.30
  -7   4   3   44.80    9.00
   7   4  -3   42.20   11.50
   7   4  -3   66.69   17.80
  -7  -4   3   40.60    9.40
   7  -4  -3   36.90   14.00
  -7  -4   3   45.90    8.40
   7  -4  -3   41.20    9.70
   7  -4  -3   62.29   18.90
   7  -4  -3   72.89   11.60
  -7   4   2  276.37   32.50
   7   4  -2  412.86   32.70
   7   4  -2  272.27   24.50
   7   4  -2  349.87   24.10
   7   4  -2  374.56   28.50
  -7   4   2  244.78   22.60
  -7   4   2  304.87   23.30
   7   4  -2  366.66   22.40
  -7   4   2  336.87   19.40
  -7  -4   2  378.76   28.90
   7  -4  -2  380.16   30.50
   7  -4  -2  281.87   23.70
   7  -4  -2  304.77   23.80
  -7  -4   2  267.97   20.50
  -7  -4   2  355.56   23.40
   7  -4  -2  281.07   34.30
   7   4  -1   53.59   10.00
  -7   4   1   35.40   15.40
  -7   4   1   45.60   12.00
   7   4  -1   64.89   14.80
  -7   4   1   53.59   12.70
   7   4  -1   70.19   13.70
   7   4  -1   59.19    9.60
  -7   4   1   46.60   10.00
  -7  -4   1   57.39    9.10
  -7  -4   1   34.10   15.80
   7  -4  -1   57.79   16.20
   7  -4  -1   53.89   17.30
   7  -4  -1   41.70   10.60
  -7  -4   1   33.00   12.20
   7  -4  -1   49.00   14.70
   7   4   0  187.88   20.90
  -7   4   0  165.18   17.10
  -7   4   0  192.18   20.80
   7   4   0  210.48   17.60
  -7   4   0  227.88   19.20
   7   4   0  199.88   21.90
  -7   4   0  143.69   24.10
   7  -4   0  210.88   26.20
   7  -4   0  186.28   17.70
   7  -4   0  210.28   24.20
   7  -4   0  194.58   19.20
   7  -4   0  200.18   16.60
  -7  -4   0  204.68   22.00
   7   4   1   -1.60    8.90
  -7   4  -1   -4.00    7.30
   7   4   1   12.00    9.50
  -7   4  -1    3.60    6.40
  -7   4  -1   -6.90    8.20
  -7   4  -1    7.60   14.50
   7   4   1    5.40    6.50
   7  -4   1  -14.60   13.20
   7  -4   1    5.00    6.00
   7  -4   1    7.70   11.60
   7  -4   1   11.40    8.30
   7  -4   1   -6.50    8.10
  -7  -4  -1   -1.30   10.10
   7   4   2  576.34   37.10
   7   4   2  574.74   38.90
  -7   4  -2  560.24   38.70
  -7   4  -2  568.24   35.10
   7   4   2  627.54   40.00
  -7   4  -2  551.54   47.70
  -7   4  -2  574.14   37.50
  -7  -4  -2  565.24   36.60
   7  -4   2  573.84   45.00
   7  -4   2  570.44   43.00
   7  -4   2  557.44   37.90
   7  -4   2  564.54   35.10
   7  -4   2  509.65   37.60
   7   4   3   62.29   11.30
  -7   4  -3   64.39   10.70
  -7   4  -3   57.89   12.90
  -7   4  -3   52.79   13.40
   7   4   3   61.29   13.00
  -7   4  -3   63.99   21.80
   7  -4   3   45.00   17.10
   7  -4   3   66.49   10.40
   7  -4   3   66.69   14.30
  -7  -4  -3   39.40   12.20
   7   4   4  208.28   25.00
  -7   4  -4  332.27   23.70
  -7   4  -4  311.67   27.20
  -7   4  -4  288.77   27.60
   7   4   4  279.77   23.50
  -7   4  -4  310.37   40.10
   7  -4   4  327.97   30.80
   7  -4   4  300.07   29.20
   7  -4   4  324.77   37.50
   7  -4   4  318.47   22.80
   7  -4   4  277.97   33.10
  -7   4  -5    1.00   25.50
  -7   4  -5   26.30   14.50
  -7   4  -5   29.30   11.80
   7   4   5   20.90   14.60
  -7   4  -5   34.50    8.70
   7   4   5   17.30   13.50
   7   4   5   14.30    8.60
   7  -4   5   10.20    8.10
   7  -4   5   43.90   22.30
   7  -4   5   -1.80   15.80
   7  -4   5  -28.10   20.00
   7   4   6   95.19   20.20
   7   4   6   89.49   14.40
  -7   4  -6  108.89   18.50
  -7   4  -6   79.59   20.30
  -7   4  -6   91.89   14.10
   7  -4   6   72.39   34.20
   7  -4   6   68.09   16.10
   7  -4   6  117.69   30.40
  -7   4  -7   40.70   20.80
  -7   4  -7    1.90   12.90
   7   4   7   -2.80   11.80
   7   4   7   21.60   23.70
   7  -4   7   42.10   39.50
   7  -4   7   25.10   27.80
   7  -4   7   10.50   10.30
  -7   5   6    3.50   11.60
  -7   5   6   16.00   12.30
  -7   5   6   11.30   19.40
  -7   5   6  -13.00   13.40
   7   5  -6  -46.20   32.00
   7   5  -6   13.00   16.20
   7   5  -6   -4.10   16.30
   7   5  -6   15.00   15.20
   7  -5  -6   -0.40   24.70
   7  -5  -6   18.60   12.80
  -7  -5   6   17.70   17.10
  -7  -5   6   -1.80   14.70
   7   5  -5   15.90   12.30
  -7   5   5   19.30   10.30
   7   5  -5  -16.00   12.70
  -7   5   5  -29.00   10.00
  -7   5   5  -16.60   30.50
   7   5  -5   -7.70   13.90
   7   5  -5    5.20   27.70
  -7   5   5   -4.50   10.60
  -7   5   5   -2.60   18.00
   7   5  -5   -8.30   10.90
   7  -5  -5   15.00   21.70
  -7  -5   5    5.70   20.20
  -7  -5   5  -17.00   15.30
   7  -5  -5    4.30   13.10
   7  -5  -5    4.40   20.10
  -7  -5   5  -39.50   14.90
  -7   5   4    5.90    8.50
   7   5  -4  -31.50   22.50
  -7   5   4   13.50   14.30
  -7   5   4   19.90   13.40
   7   5  -4   -6.90   11.60
  -7   5   4   -9.10   18.40
   7   5  -4   -2.30    9.80
  -7   5   4   19.60    9.60
   7   5  -4    6.60   13.30
   7   5  -4   16.00   11.00
  -7  -5   4   14.70    9.10
  -7  -5   4  -11.30   10.90
   7  -5  -4   -1.70   19.00
  -7  -5   4   -2.10   16.90
  -7  -5   4   22.70   13.10
   7  -5  -4   -1.10   12.00
   7  -5  -4    6.60   10.10
   7  -5  -4   33.20   19.80
  -7   5   3   68.49   17.00
   7   5  -3   80.39   12.50
  -7   5   3   82.19    9.70
  -7   5   3  101.49   13.30
  -7   5   3   80.29   20.70
   7   5  -3   98.49   15.20
   7   5  -3   95.39   15.40
   7   5  -3   80.89   18.00
  -7   5   3   81.99   13.50
   7   5  -3   69.29   22.10
   7  -5  -3   57.09   37.00
  -7  -5   3   80.09   10.60
  -7  -5   3   71.19   13.10
   7  -5  -3  105.89   15.50
   7  -5  -3   83.79   14.20
  -7  -5   3   90.19   17.00
  -7  -5   3  112.39   20.10
   7  -5  -3  120.19   23.20
  -7   5   2   90.09   14.10
   7   5  -2   62.79   13.70
   7   5  -2  112.59   21.60
  -7   5   2   66.79   11.70
   7   5  -2   81.49   16.40
  -7   5   2   75.89   16.00
  -7  -5   2   54.49   16.40
   7  -5  -2   38.70   16.50
   7  -5  -2   98.29   13.90
  -7  -5   2   70.59   15.90
   7  -5  -2   55.09   20.70
   7  -5  -2   78.89   22.70
   7   5  -1  463.75   31.80
  -7   5   1  430.86   30.30
  -7   5   1  445.56   35.20
   7   5  -1  458.55   36.30
  -7   5   1  395.66   40.50
  -7   5   1  500.35   32.50
   7   5  -1  493.15   36.90
   7  -5  -1  350.46   29.30
   7  -5  -1  356.46   36.90
   7  -5  -1  519.95   42.20
   7  -5  -1  350.36   42.20
  -7  -5   1  521.65   34.90
  -7  -5   1  506.95   35.00
  -7   5   0  126.59   19.80
  -7   5   0  160.08   26.80
  -7   5   0  198.58   21.00
   7   5   0  175.18   23.00
  -7   5   0  142.29   17.50
   7   5   0  187.18   20.90
   7   5   0  197.88   19.60
   7  -5   0  151.68   18.00
   7  -5   0  137.69   25.20
   7  -5   0  191.58   26.80
   7  -5   0  191.18   22.80
  -7   5  -1  224.58   21.90
   7   5   1  270.37   27.10
  -7   5  -1  252.67   26.10
  -7   5  -1  186.68   30.60
  -7   5  -1  235.68   24.40
   7   5   1  253.07   21.80
   7  -5   1  282.47   36.10
   7  -5   1  198.58   29.00
   7  -5   1  226.38   24.10
   7  -5   1  240.98   26.10
   7  -5   1  242.78   20.00
  -7   5  -2   30.90   12.20
  -7   5  -2   21.10   25.70
  -7   5  -2   19.40   10.00
   7   5   2    8.80    9.90
   7   5   2    4.10   11.60
  -7   5  -2   27.80   12.80
   7  -5   2   19.80    9.10
   7  -5   2   -2.80   19.80
   7  -5   2   15.30   13.70
   7  -5   2   27.70   14.80
   7   5   3  -20.10    9.00
   7   5   3    3.20   12.20
  -7   5  -3   28.90   31.60
  -7   5  -3  -11.20   13.40
  -7   5  -3   -6.70   11.30
  -7   5  -3   -0.90    7.50
   7  -5   3    6.10   15.80
   7  -5   3    5.30    9.90
  -7   5  -4   12.70   13.60
  -7   5  -4   13.50   28.90
  -7   5  -4    9.70   13.30
  -7   5  -4   23.00    8.80
   7   5   4   -2.70   10.50
  -7   5  -4    4.10   15.50
   7   5   4   24.70   14.40
   7  -5   4  -18.30   17.80
   7  -5   4    8.00    9.90
   7  -5   4    5.50   22.90
  -7   5  -5   50.79   21.10
   7   5   5   33.30   12.70
  -7   5  -5   16.20   15.80
  -7   5  -5   26.30   19.70
   7  -5   5   25.30   26.50
   7  -5   5   36.70   12.20
  -7   5  -6   -6.20   23.10
  -7   5  -6   13.20   11.20
  -7   5  -6   48.70   19.10
  -7   5  -6   25.60   18.70
   7   5   6   33.90   15.40
   7  -5   6   52.19   14.00
   7  -5   6   31.40   42.00
  -7   6   3   31.40   12.70
  -7   6   3   36.40   19.70
   7   6  -3  107.39   18.50
   7   6  -3   46.40   20.90
  -7  -6   3   88.89   22.80
  -7  -6   3   46.40   21.90
  -7   6   2    6.00   16.60
   7   6  -2   15.20   14.90
  -7   6   2   13.50   10.50
  -7   6   2   13.60   13.30
  -7  -6   2    7.40   17.30
   7   6  -1  -12.30   15.60
  -7   6   1    3.10   15.80
  -7   6   1   -9.10   10.20
  -7   6   1  -20.40   13.30
   7   6  -1   17.70   14.30
  -7   6   0   -2.40   14.00
   7   6   0    9.70   17.90
   7   6   0   12.50   17.30
  -7   6   0   18.70   11.00
   7   6   0    9.10   12.90
   7   6   1  139.29   23.60
  -7   6  -1   73.79   19.00
   7   6   1  105.99   16.50
   7   6   1  124.99   23.30
  -7   6  -1  107.59   15.80
  -7   6  -1   99.99   21.60
   7  -6   1  155.38   21.20
   7  -6   1   84.59   14.80
  -7   6  -2   19.00   17.30
   7   6   2   -1.20   13.60
   7   6   2  -23.20   17.30
   7   6   2   19.80   18.30
  -7   6  -2   -4.80   14.70
  -7   6  -2    4.50   16.10
   7  -6   2   -3.70   11.60
   7  -6   2   29.20   20.00
   8   0 -10   66.99   36.60
  -8   0  10   82.39   32.40
   8   0 -10  113.09   23.80
   8   0 -10   95.69   30.30
   8   0 -10  109.69   22.50
   8   0  -9  -39.10   21.70
   8   0  -9    3.70   25.10
  -8   0   9    5.10   10.90
  -8   0   9    7.90   25.30
  -8   0   9    4.40   10.60
   8   0  -9   -7.30   11.90
   8   0  -9  -29.00   11.80
  -8   0   8  254.47   24.70
  -8   0   8  278.37   25.20
   8   0  -8  240.58   30.40
   8   0  -8  241.78   23.80
   8   0  -8  243.58   23.40
   8   0  -8  253.87   26.70
  -8   0   8  252.37   25.50
   8   0  -8  159.38   33.50
  -8   0   8  235.98   34.40
   8   0  -7  -12.20   18.50
   8   0  -7   10.70    8.20
   8   0  -7    3.10    7.50
   8   0  -7   -2.00   14.70
  -8   0   7    4.40    7.70
  -8   0   7    4.30    6.80
  -8   0   7   14.40   15.90
  -8   0   7   -1.80    8.50
   8   0  -6  143.39   16.10
   8   0  -6  109.39   19.90
  -8   0   6  126.49   14.80
  -8   0   6  123.39   15.50
   8   0  -6  107.89   16.20
  -8   0   6  140.19   13.90
   8   0  -6  132.19   26.30
   8   0  -6  138.39   14.70
  -8   0   6  123.99   22.00
  -8   0   5  -10.00    9.00
  -8   0   5   -7.60    5.10
   8   0  -5   -0.30    6.20
   8   0  -5    4.70   13.10
   8   0  -5    6.40    5.20
  -8   0   5    0.20    5.60
   8   0  -5    3.70    6.80
   8   0  -5    3.80   10.60
  -8   0   5    2.70    4.40
   8   0  -5   -4.20    6.30
  -8   0   4 2725.03  136.69
   8   0  -4 2695.13  137.59
   8   0  -4 2758.92  147.99
   8   0  -4 2708.13  135.19
   8   0  -4 2417.06  139.09
  -8   0   4 2711.73  134.49
   8   0  -4 2715.63  137.89
  -8   0   4 2590.04  133.89
   8   0  -4 2612.94  134.69
  -8   0   4 2781.72  143.59
  -8   0   3    2.80    3.40
  -8   0   3   -2.50    4.60
  -8   0   3    0.40    3.70
   8   0  -3   -5.90   11.70
  -8   0   3    5.80    8.50
   8   0  -3    7.40    8.20
   8   0  -3   -1.00    4.70
   8   0  -3   -6.30    5.60
   8   0  -3   -8.70    5.10
   8   0  -3    8.20    5.20
  -8   0   2 2104.69  103.79
  -8   0   2 2007.70  104.79
   8   0  -2 1936.71  113.59
   8   0  -2 1901.51  104.89
  -8   0   2 1939.71  110.89
  -8   0   2 2084.39  103.89
   8   0  -2 2022.40  104.69
   8   0  -2 2234.08  108.09
  -8   0   1   -8.00    5.90
   8   0  -1    0.80    3.60
   8   0  -1    0.70    6.20
  -8   0   1   -6.90    8.10
   8   0  -1   -6.40    3.40
  -8   0   1    2.20    4.50
   8   0  -1    7.30   10.10
   8   0  -1   -2.60    4.20
  -8   0   1    5.50    4.00
  -8   0   0  438.86   29.20
   8   0   0  471.25   27.60
  -8   0   0  465.95   28.00
   8   0   0  457.55   27.80
  -8   0   0  427.46   30.40
  -8   0   0  452.55   27.50
  -8   0   0  476.55   34.80
   8   0   0  464.25   27.20
   8   0   0  391.76   41.30
   8   0   1    0.60    8.20
  -8   0  -1    1.40    6.50
   8   0   1    3.30    3.80
   8   0   1   -1.70    3.10
  -8   0  -1    3.70    4.10
  -8   0  -1   -0.50    4.20
   8   0   1    0.70    5.60
   8   0   1   -4.10    4.20
  -8   0  -1    1.90    4.10
  -8   0  -2  193.78   16.80
  -8   0  -2  262.37   20.00
   8   0   2  223.78   16.60
   8   0   2  194.38   17.40
  -8   0  -2  203.48   17.20
   8   0   2  241.18   19.80
  -8   0  -2  239.28   27.20
   8   0   2  201.88   16.10
   8   0   2  198.68   25.70
   8   0   3    8.60    6.80
  -8   0  -3   -4.40    5.10
   8   0   3    7.10    4.40
   8   0   3   -8.00    9.70
  -8   0  -3   18.70    7.70
  -8   0  -3    4.20   11.90
   8   0   3   -3.00    3.90
   8   0   3   13.50    7.90
  -8   0  -3   -0.30    4.00
   8   0   4 1035.30   56.49
  -8   0  -4  846.52   73.99
   8   0   4 1105.09   56.89
   8   0   4 1037.20   65.79
  -8   0  -4 1134.89   57.89
  -8   0  -4 1035.60   59.39
   8   0   5    9.30   11.30
   8   0   5    3.20    9.10
  -8   0  -5    6.90   17.80
  -8   0  -5    5.10    8.30
  -8   0  -5    0.00    5.10
   8   0   5    1.20    5.20
   8   0   5   -0.40    4.70
   8   0   6  513.35   30.60
   8   0   6  473.35   40.30
  -8   0  -6  461.45   30.20
  -8   0  -6  422.96   33.30
   8   0   6  440.76   29.30
  -8   0  -6  413.16   44.60
   8   0   6  500.55   36.00
  -8   0  -7    8.60    6.90
   8   0   7    1.10    6.70
   8   0   7  -19.00   13.50
   8   0   7   -3.80   16.80
  -8   0  -7   13.20   23.60
   8   0   7   24.40   15.70
  -8   0  -7    3.40   11.50
   8   0   7   -3.20    6.00
   8   0   8   21.40   22.00
   8   0   8    7.40    7.60
   8   0   8    0.00   15.70
   8   0   8   10.10    9.00
  -8   0  -8    3.20    9.40
  -8   0  -9   -7.20    9.20
   8   0   9   14.10   27.90
   8   0   9   -4.60   39.10
   8   0   9   17.20   24.20
   8   0   9   -7.60   10.10
   8   0   9    5.40   10.60
  -8   1  10   -7.90   12.90
   8   1 -10  -37.20   35.50
   8   1 -10   26.80   17.50
   8   1 -10   33.20   16.80
  -8   1  10  -17.60   40.40
  -8   1  10  -18.20   16.10
  -8  -1  10   -9.90   35.20
  -8  -1  10   15.60   15.40
   8  -1 -10   25.80   23.30
   8  -1 -10   13.00   16.20
   8   1  -9   26.40   14.40
  -8   1   9   27.10   13.70
   8   1  -9   38.40   22.00
   8   1  -9   19.00   42.30
  -8   1   9   19.20   12.10
   8   1  -9   36.50   15.70
  -8   1   9   10.00   22.50
  -8  -1   9   37.70   27.30
   8  -1  -9   17.50   13.60
   8  -1  -9   31.70   28.00
   8  -1  -9   45.00   19.30
  -8  -1   9   30.40   13.70
   8   1  -8  222.58   23.60
   8   1  -8  227.88   26.40
   8   1  -8  251.97   31.40
  -8   1   8  152.78   28.20
  -8   1   8  237.28   24.30
  -8   1   8  244.38   21.50
   8   1  -8  133.19   33.10
  -8   1   8  245.28   25.20
   8  -1  -8  258.07   23.50
  -8  -1   8  220.38   32.20
   8  -1  -8  273.97   29.90
   8  -1  -8  159.58   32.00
  -8  -1   8  271.57   23.20
  -8  -1   8  236.68   24.90
  -8  -1   8  277.07   24.10
   8   1  -7  380.06   27.30
   8   1  -7  388.26   41.10
  -8   1   7  353.26   26.30
  -8   1   7  385.96   30.60
   8   1  -7  414.56   34.80
  -8   1   7  412.76   46.00
  -8   1   7  361.56   28.80
   8   1  -7  396.66   30.40
   8   1  -7  426.66   32.20
   8   1  -7  306.37   30.20
   8  -1  -7  356.36   31.00
   8  -1  -7  350.26   39.60
  -8  -1   7  361.36   34.80
  -8  -1   7  322.67   37.80
  -8  -1   7  378.76   27.10
  -8  -1   7  361.56   38.10
  -8   1   6  539.15   35.30
   8   1  -6  492.05   38.70
  -8   1   6  518.95   33.40
   8   1  -6  537.55   47.90
   8   1  -6  437.46   47.10
   8   1  -6  573.34   38.50
   8   1  -6  552.94   36.00
  -8   1   6  480.75   31.90
  -8   1   6  598.64   48.80
   8   1  -6  520.05   33.20
  -8  -1   6  543.65   36.00
   8  -1  -6  535.85   47.90
   8  -1  -6  409.86   38.30
   8  -1  -6  569.04   37.50
   8  -1  -6  522.75   33.40
  -8  -1   6  518.85   33.00
  -8  -1   6  523.15   42.70
  -8   1   5  405.06   34.10
  -8   1   5  394.76   27.90
  -8   1   5  437.26   26.40
   8   1  -5  415.66   28.80
   8   1  -5  380.56   29.90
   8   1  -5  373.26   26.00
  -8   1   5  385.86   25.90
   8   1  -5  398.56   37.60
   8   1  -5  342.27   28.20
  -8  -1   5  405.06   34.60
   8  -1  -5  362.16   26.10
   8  -1  -5  381.76   30.00
  -8  -1   5  436.56   28.70
   8  -1  -5  381.36   24.90
   8  -1  -5  386.76   29.00
   8  -1  -5  390.76   29.40
   8  -1  -5  464.05   39.70
  -8  -1   5  364.26   25.20
   8   1  -4   27.70    6.90
  -8   1   4   26.50    7.80
  -8   1   4   30.60   12.00
  -8   1   4   27.90    6.90
   8   1  -4   13.20   10.20
  -8   1   4   14.80    5.80
   8   1  -4   27.40    8.20
   8   1  -4   42.80   14.80
   8   1  -4   26.30    8.60
   8   1  -4   30.10    8.90
   8  -1  -4   37.00    7.70
  -8  -1   4   26.30    7.50
   8  -1  -4   24.60    7.90
   8  -1  -4   22.90   14.00
  -8  -1   4   43.00   13.80
   8  -1  -4   33.20    9.00
  -8  -1   4   20.60    5.60
   8  -1  -4   42.80   10.90
   8  -1  -4   28.50    7.20
   8   1  -3   21.90    9.10
  -8   1   3   10.70    8.90
  -8   1   3   29.80   11.80
  -8   1   3   23.10    7.20
   8   1  -3    7.30    6.40
   8   1  -3   20.90    6.10
  -8   1   3   14.60    5.20
   8   1  -3   15.00    7.20
   8   1  -3   15.70    6.70
   8   1  -3    9.20   11.30
   8  -1  -3   21.10    6.20
   8  -1  -3   22.80   11.70
  -8  -1   3   10.20    4.50
   8  -1  -3   17.80    6.60
  -8  -1   3   23.10   11.10
  -8  -1   3   14.10    6.40
   8  -1  -3   15.80    7.30
   8  -1  -3   29.20    9.60
   8  -1  -3    1.90    5.50
  -8  -1   3   16.80    5.70
   8   1  -2  160.18   14.20
   8   1  -2  153.48   15.60
   8   1  -2  179.68   25.30
  -8   1   2  167.48   15.00
   8   1  -2  178.78   16.10
  -8   1   2  158.88   13.30
  -8   1   2  133.29   20.70
   8   1  -2  162.18   15.50
   8   1  -2  217.08   19.20
  -8   1   2  157.88   14.10
  -8   1   2  200.38   19.10
  -8  -1   2  169.88   14.70
  -8  -1   2  153.98   19.00
   8  -1  -2  231.68   19.30
   8  -1  -2  175.08   15.00
  -8  -1   2  198.58   15.90
  -8  -1   2  187.88   14.00
   8  -1  -2  184.88   16.30
   8  -1  -2  128.49   22.90
   8  -1  -2  144.49   14.90
  -8   1   1  844.32   46.20
   8   1  -1  683.53   46.70
   8   1  -1  804.72   47.10
   8   1  -1  677.33   53.59
  -8   1   1  928.01   48.20
  -8   1   1  829.42   50.59
  -8   1   1  914.71   55.29
   8   1  -1  811.92   50.79
   8   1  -1  956.30   48.00
  -8   1   1  895.61   46.80
  -8  -1   1  878.21   47.30
   8  -1  -1  956.80   48.00
  -8  -1   1  753.02   47.00
   8  -1  -1  912.91   55.79
   8  -1  -1  933.11   51.39
   8  -1  -1  851.31   47.10
  -8  -1   1  863.81   46.60
  -8  -1   1  855.61   53.99
  -8   1   0  628.04   43.60
  -8   1   0  712.63   40.80
  -8   1   0  788.62   49.99
   8   1   0  714.83   40.10
  -8   1   0  725.73   40.50
  -8   1   0  687.73   39.20
   8   1   0  733.93   40.40
   8   1   0  751.02   40.40
   8   1   0  626.44   48.90
   8   1   0  752.22   48.50
   8  -1   0  722.63   40.20
  -8  -1   0  746.53   41.30
   8  -1   0  760.42   41.80
  -8  -1   0  689.73   39.50
  -8  -1   0  727.53   47.40
   8  -1   0  713.23   39.80
   8  -1   0  709.13   47.90
   8  -1   0  698.63   44.00
  -8  -1   0  740.63   41.00
  -8   1  -1 1537.15   83.49
   8   1   1 1702.03   81.99
  -8   1  -1 1455.95   85.89
  -8   1  -1 1610.74   92.99
   8   1   1 1596.64   82.59
   8   1   1 1716.23   82.99
   8   1   1 1733.33   90.09
  -8   1  -1 1424.26   92.29
  -8   1  -1 1625.44   82.19
   8   1   1 1587.44   84.39
  -8  -1  -1 1659.03   82.59
  -8  -1  -1 1479.45   83.49
   8  -1   1 1400.76   83.49
   8  -1   1 1688.53   81.19
   8  -1   1 1304.27   84.59
   8  -1   1 1592.54   82.49
  -8  -1  -1 1765.52   82.99
   8  -1   1 1530.35   90.29
  -8  -1  -1 1836.62   92.49
   8   1   2  653.43   37.60
   8   1   2  651.43   36.50
  -8   1  -2  601.54   45.80
   8   1   2  621.44   35.40
  -8   1  -2  608.84   37.20
   8   1   2  654.73   43.00
  -8   1  -2  652.93   39.40
  -8   1  -2  561.74   35.70
  -8   1  -2  673.63   37.10
  -8  -1  -2  511.75   35.40
  -8  -1  -2  546.45   37.20
   8  -1   2  660.43   35.00
   8  -1   2  679.83   40.60
   8  -1   2  612.14   44.60
  -8  -1  -2  536.55   43.60
   8  -1   2  629.94   36.20
   8  -1   2  619.64   40.50
   8  -1   2  569.84   37.40
  -8  -1  -2  699.33   36.80
  -8   1  -3  284.47   22.80
  -8   1  -3  296.87   22.20
   8   1   3  279.67   19.80
   8   1   3  276.77   22.30
   8   1   3  221.08   26.10
  -8   1  -3  317.07   31.50
   8   1   3  285.27   20.40
  -8   1  -3  307.37   20.90
   8   1   3  299.87   22.20
   8  -1   3  281.67   23.10
  -8  -1  -3  294.97   21.10
  -8  -1  -3  270.87   20.80
   8  -1   3  329.57   30.40
   8  -1   3  296.37   20.20
  -8  -1  -3  262.77   30.10
   8  -1   3  274.27   19.40
   8  -1   3  274.77   25.40
   8  -1   3  338.27   25.20
   8   1   4  110.89   12.00
   8   1   4  115.79   20.20
  -8   1  -4  132.99   25.90
   8   1   4   84.39   13.30
  -8   1  -4  124.99   12.30
  -8   1  -4   85.39   13.10
   8   1   4  108.89   11.30
  -8   1  -4   91.69   13.40
   8  -1   4   76.29   14.90
   8  -1   4  115.69   11.70
   8  -1   4  101.99   15.00
   8  -1   4  110.89   11.00
  -8  -1  -4   94.19   11.70
  -8  -1  -4  100.29   13.40
   8  -1   4   95.19   14.60
  -8  -1  -4  131.69   23.50
   8  -1   4   88.49   18.80
  -8   1  -5    8.00   16.80
  -8   1  -5   25.90    9.70
   8   1   5   36.10    8.00
   8   1   5   20.40   12.40
  -8   1  -5   30.10    7.20
   8   1   5   21.50   10.10
   8   1   5   27.30   14.10
  -8   1  -5   22.10    9.20
   8  -1   5    7.60   10.10
   8  -1   5   33.00    7.00
  -8  -1  -5   32.70   16.00
   8  -1   5   14.00    5.80
   8  -1   5   30.90   15.40
  -8  -1  -5   15.20    8.30
   8  -1   5   27.40   13.80
  -8  -1  -5   24.10    7.20
   8  -1   5    6.20   10.70
   8   1   6   33.10   16.00
   8   1   6   34.70    8.60
  -8   1  -6   22.50    7.30
  -8   1  -6   26.90   11.40
  -8   1  -6   46.70   10.40
   8   1   6   27.80   14.50
   8   1   6   35.20   17.30
  -8   1  -6   44.60   21.60
   8   1   6   31.00    7.20
  -8  -1  -6   23.40   10.20
  -8  -1  -6   42.60    9.20
   8  -1   6    2.20   16.30
   8  -1   6   13.20   14.30
   8  -1   6   45.20    8.70
   8  -1   6   26.00   12.20
   8  -1   6   20.00    7.10
   8  -1   6   13.10   12.10
  -8  -1  -6   36.40   19.20
  -8   1  -7  136.89   16.50
   8   1   7  134.99   15.10
   8   1   7  102.19   22.50
   8   1   7  172.48   17.90
   8   1   7  114.19   24.80
  -8   1  -7  134.59   20.40
  -8   1  -7  198.38   36.70
  -8  -1  -7  161.18   16.30
   8  -1   7  157.78   25.70
   8  -1   7  111.59   25.90
  -8  -1  -7  155.48   31.50
  -8  -1  -7  158.58   20.20
   8  -1   7  134.99   15.50
   8  -1   7  164.38   24.30
   8   1   8  145.19   23.70
   8   1   8  169.48   17.70
   8   1   8  201.28   30.50
  -8   1  -8  211.18   20.30
   8   1   8  153.18   20.00
   8  -1   8  169.68   33.30
   8  -1   8  141.69   18.50
  -8  -1  -8  156.88   18.30
   8  -1   8  160.88   24.40
   8  -1   8  169.48   18.60
   8   1   9   76.79   25.00
   8   1   9   80.89   16.10
  -8   1  -9   34.80   12.90
   8   1   9   96.89   30.70
   8   1   9   57.59   35.50
   8  -1   9   77.29   40.10
   8  -1   9  102.49   32.70
  -8  -1  -9   98.19   15.40
   8  -1   9  114.89   18.00
   8  -1   9   52.59   13.40
   8   2  -9  103.69   20.30
  -8   2   9  111.79   15.80
  -8   2   9   92.29   26.40
  -8   2   9  119.79   22.00
   8   2  -9  101.79   20.50
   8   2  -9   74.19   34.10
  -8  -2   9  129.99   34.60
  -8  -2   9   96.29   19.00
   8  -2  -9  113.59   21.80
   8  -2  -9   92.09   33.00
   8  -2  -9  111.19   23.20
  -8   2   8    7.30    9.10
   8   2  -8    0.50   12.40
   8   2  -8   18.60   18.40
  -8   2   8   39.70   19.50
   8   2  -8   -1.00   25.20
   8   2  -8   10.10   12.10
  -8   2   8  -13.30   11.70
  -8   2   8    4.40    8.50
  -8  -2   8   -0.50   11.00
   8  -2  -8   -7.30   11.10
  -8  -2   8   -8.00   21.70
   8  -2  -8    6.70   16.40
   8  -2  -8   -1.70   23.10
   8   2  -7   13.00   12.40
   8   2  -7    3.40    9.70
  -8   2   7   -4.60   15.40
   8   2  -7   31.40   15.80
   8   2  -7    6.80    9.10
   8   2  -7   27.30   21.30
  -8   2   7   36.50   11.20
  -8   2   7   28.30    8.60
   8   2  -7   41.10   13.40
  -8  -2   7   34.00   11.80
  -8  -2   7   28.10    9.50
  -8  -2   7   28.30   19.50
   8  -2  -7    9.30    9.00
  -8  -2   7   19.70   10.00
   8  -2  -7   23.70   11.10
   8  -2  -7   45.10   21.80
   8   2  -6   10.40    6.80
   8   2  -6   18.40   17.90
   8   2  -6    7.60    8.30
  -8   2   6   -1.60    7.40
   8   2  -6   -6.60    9.00
   8   2  -6   -2.00    9.40
  -8   2   6    0.70   22.50
  -8   2   6   -7.80    5.80
   8   2  -6   29.90   13.50
  -8   2   6   -1.90    6.80
   8  -2  -6  -20.40   16.40
  -8  -2   6   -9.30    7.80
  -8  -2   6    4.10    6.70
   8  -2  -6    0.60    7.60
   8  -2  -6   -3.90    8.90
  -8  -2   6    2.20   13.20
  -8  -2   6   -3.70    7.80
   8   2  -5  667.73   39.50
   8   2  -5  679.73   42.80
   8   2  -5  656.63   52.39
  -8   2   5  662.13   38.50
  -8   2   5  677.63   39.10
  -8   2   5  671.53   48.30
  -8   2   5  603.44   40.20
   8   2  -5  727.43   45.40
   8   2  -5  669.13   43.30
  -8   2   5  712.73   45.70
   8  -2  -5  623.44   43.40
  -8  -2   5  645.84   41.60
   8  -2  -5  538.85   49.50
   8  -2  -5  670.43   42.50
  -8  -2   5  645.04   47.80
   8   2  -4   16.60    6.60
   8   2  -4    9.20    8.00
  -8   2   4   13.90    7.00
  -8   2   4   11.00    5.60
  -8   2   4   21.30    6.60
   8   2  -4   30.80   15.00
   8   2  -4    7.20    7.90
   8   2  -4   14.30    7.20
  -8   2   4    9.70   10.10
   8  -2  -4   26.00    9.10
   8  -2  -4   17.30   15.40
   8  -2  -4   17.80    9.90
  -8  -2   4   28.10   13.10
  -8  -2   4   13.10    6.70
  -8   2   3 1030.40   67.09
  -8   2   3 1176.78   64.69
  -8   2   3 1057.69   59.19
   8   2  -3 1168.78   61.59
   8   2  -3  880.31   60.29
   8   2  -3  990.30   73.99
   8   2  -3 1171.48   62.69
  -8   2   3 1062.49   60.39
   8   2  -3 1180.18   70.59
   8   2  -3 1203.38   59.29
  -8  -2   3 1195.58   60.79
  -8  -2   3  978.80   59.29
   8  -2  -3 1187.08   62.19
   8  -2  -3 1090.99   71.39
   8  -2  -3 1156.08   60.89
   8  -2  -3  997.50   62.79
  -8  -2   3 1192.98   67.29
  -8  -2   3  912.51   57.69
   8   2  -2   69.19   11.10
   8   2  -2   60.59   12.70
   8   2  -2   69.99   11.20
   8   2  -2   72.29    9.90
  -8   2   2   64.69    8.20
  -8   2   2   42.60   12.40
  -8   2   2   58.19    8.50
   8   2  -2   74.89   11.40
  -8   2   2   60.99    9.70
  -8   2   2   63.49   14.10
   8   2  -2   74.29   16.70
   8  -2  -2   65.19   10.60
   8  -2  -2   74.39   10.10
  -8  -2   2   70.49   10.50
  -8  -2   2   61.59    8.40
  -8  -2   2   64.59    8.90
   8  -2  -2   64.69   10.70
   8  -2  -2   41.70   15.60
  -8  -2   2   56.29   13.80
   8  -2  -2   53.09   12.20
   8   2  -1 1163.48   60.29
   8   2  -1  926.91   58.89
  -8   2   1 1051.29   63.79
  -8   2   1 1133.89   59.49
   8   2  -1 1133.29   63.09
   8   2  -1 1138.69   60.89
  -8   2   1 1033.10   57.59
  -8   2   1 1145.39   60.39
  -8   2   1 1237.58   69.99
   8   2  -1 1131.69   62.89
   8   2  -1 1110.69   68.69
   8  -2  -1 1045.10   67.79
  -8  -2   1 1087.39   58.59
   8  -2  -1 1185.08   60.29
   8  -2  -1 1093.99   59.39
   8  -2  -1 1091.59   64.09
   8  -2  -1 1087.09   59.89
   8  -2  -1 1073.09   59.99
  -8  -2   1 1190.18   60.69
  -8   2   0   82.59   17.00
   8   2   0   65.19   15.90
  -8   2   0   81.99    9.10
   8   2   0   69.79   10.30
  -8   2   0   93.39   10.60
  -8   2   0   95.09   13.60
   8   2   0   94.29   10.10
   8   2   0   89.19   10.70
   8   2   0   79.69   13.00
  -8   2   0  109.89   11.50
  -8  -2   0   71.29   10.90
  -8  -2   0   55.19    9.00
  -8  -2   0   85.39    9.10
   8  -2   0   65.29    9.50
   8  -2   0   86.29   10.80
   8  -2   0   69.19   10.30
  -8  -2   0   96.49   16.90
   8  -2   0  100.39   17.90
   8  -2   0   92.19   16.30
   8  -2   0   72.19   11.70
  -8   2  -1   11.50    6.80
   8   2   1    6.50    5.30
   8   2   1   14.30   10.20
  -8   2  -1    2.60    6.60
   8   2   1    8.20    5.50
   8   2   1    9.10    4.90
  -8   2  -1   15.70   12.20
   8   2   1   22.00   11.70
  -8   2  -1    9.30    5.00
  -8   2  -1    8.80    5.50
  -8  -2  -1   17.70    5.60
  -8  -2  -1    7.70    7.40
   8  -2   1   14.00    5.60
   8  -2   1   15.90    7.30
   8  -2   1   17.20    6.60
  -8  -2  -1    6.50   10.40
   8  -2   1   18.60    5.10
  -8  -2  -1   13.80    5.20
   8  -2   1   22.90   13.00
   8  -2   1   17.60    9.10
   8   2   2    5.60    5.50
  -8   2  -2    2.30    6.00
   8   2   2    1.80    4.00
  -8   2  -2    3.40   12.60
  -8   2  -2   -0.20    6.60
   8   2   2    0.40    9.30
   8   2   2    5.70    5.90
   8   2   2   -2.90    8.00
  -8   2  -2    1.20    4.30
   8  -2   2    3.50    6.90
   8  -2   2    9.40    4.10
  -8  -2  -2   18.40   12.40
  -8  -2  -2    9.80    5.40
   8  -2   2   13.60    5.80
   8  -2   2   18.30    9.60
   8  -2   2   -9.30    7.40
  -8  -2  -2    9.20    5.00
   8  -2   2    2.70   12.40
  -8   2  -3  908.71   52.19
   8   2   3  911.51   57.79
   8   2   3  948.61   53.29
  -8   2  -3  973.30   54.49
   8   2   3  953.00   50.89
  -8   2  -3  891.51   64.29
  -8   2  -3  921.41   54.19
   8  -2   3  978.90   52.19
  -8  -2  -3  887.21   51.69
   8  -2   3  926.21   55.19
  -8  -2  -3  885.21   50.99
  -8  -2  -3  965.60   60.69
   8  -2   3  967.60   56.99
   8  -2   3  939.71   61.89
   8  -2   3  947.71   49.50
   8  -2   3  999.10   57.29
  -8   2  -4   -1.70    7.20
   8   2   4   -9.00    7.60
  -8   2  -4  -11.40   15.00
  -8   2  -4    2.40    7.70
   8   2   4   -6.30   12.30
   8   2   4    0.20    5.10
  -8   2  -4   -0.80    4.80
   8  -2   4   -0.40    4.80
   8  -2   4    2.40   10.30
   8  -2   4   10.60    9.20
  -8  -2  -4   -2.90    5.80
   8  -2   4   16.30   13.70
  -8  -2  -4   10.40   13.40
   8  -2   4    6.00    5.10
   8   2   5  563.04   33.30
   8   2   5  535.45   34.90
   8   2   5  573.44   43.60
  -8   2  -5  560.64   51.09
   8   2   5  551.64   37.80
  -8   2  -5  584.04   35.60
  -8   2  -5  552.74   38.40
  -8   2  -5  531.85   36.20
  -8  -2  -5  591.34   38.70
  -8  -2  -5  537.15   35.50
   8  -2   5  555.34   45.80
   8  -2   5  516.75   34.10
   8  -2   5  583.24   32.50
   8  -2   5  551.44   41.90
  -8  -2  -5  579.64   46.30
   8  -2   5  574.24   40.50
   8  -2   5  547.45   40.30
  -8   2  -6   16.30    9.20
  -8   2  -6   -2.80    6.20
   8   2   6   12.20    6.10
  -8   2  -6    0.10   21.80
   8   2   6   19.50   16.90
  -8   2  -6   -6.70   11.30
   8   2   6   14.00   11.80
   8   2   6   15.40    7.00
   8  -2   6    9.50   14.30
  -8  -2  -6   13.10   10.00
   8  -2   6   -1.40    5.80
  -8  -2  -6   21.00   17.60
   8  -2   6   -7.10   13.90
   8  -2   6    1.00    5.90
   8  -2   6   -5.30   17.80
   8  -2   6    0.10   14.70
  -8  -2  -6   12.70    7.20
   8   2   7  145.59   26.60
  -8   2  -7  216.88   21.30
  -8   2  -7  232.58   40.30
  -8   2  -7  253.67   29.10
   8   2   7  249.68   19.90
   8   2   7  243.18   22.30
  -8   2  -7  259.77   25.00
   8   2   7  252.07   32.30
   8  -2   7  246.38   19.70
   8  -2   7  237.48   21.20
  -8  -2  -7  262.77   21.50
  -8  -2  -7  255.67   26.60
   8  -2   7  181.48   31.90
   8  -2   7  282.27   34.30
   8  -2   7  233.68   33.80
   8   2   8  -21.00   23.90
  -8   2  -8    6.90    9.30
   8   2   8   -1.40    9.30
   8   2   8    7.40   18.40
   8   2   8    3.00    8.50
   8   2   8   -0.40   23.30
  -8   2  -8   14.10   11.70
  -8  -2  -8    6.90    9.90
   8  -2   8   12.40    8.70
   8  -2   8    1.30   30.10
   8  -2   8   12.70    9.50
  -8   2  -9    2.30   12.10
   8   2   9    9.80   13.10
   8   2   9    4.00   24.70
   8   2   9   -1.90    9.60
   8   2   9   39.60   31.90
  -8  -2  -9   -2.60   12.10
   8  -2   9   14.10   10.80
   8  -2   9   -2.60   32.70
   8  -2   9   32.00   41.40
   8   3  -9   47.30   39.40
  -8   3   9   39.20   14.40
  -8   3   9   17.30   13.50
   8   3  -9   21.80   16.70
  -8  -3   9   33.50   16.80
   8  -3  -9   65.59   35.00
   8  -3  -9   11.50   18.10
  -8  -3   9  -13.90   33.20
  -8   3   8  264.37   26.80
  -8   3   8  161.48   31.80
   8   3  -8  291.27   33.50
   8   3  -8  140.89   38.10
   8   3  -8  205.88   28.70
   8   3  -8  261.17   29.80
  -8   3   8  231.78   23.50
   8  -3  -8  153.38   36.20
  -8  -3   8  297.47   42.00
   8  -3  -8  253.87   29.60
   8  -3  -8  234.78   28.80
  -8  -3   8  284.97   29.90
  -8   3   7  142.69   17.90
   8   3  -7  158.08   21.60
   8   3  -7  148.29   22.10
  -8   3   7  139.39   28.10
   8   3  -7  153.38   19.30
   8   3  -7  163.58   23.60
  -8   3   7  177.58   21.20
   8   3  -7   74.39   30.40
  -8   3   7  136.39   18.40
  -8  -3   7  153.08   35.30
  -8  -3   7  183.18   22.90
  -8  -3   7  149.19   20.40
   8  -3  -7  173.78   23.40
   8  -3  -7  196.38   23.90
   8  -3  -7  115.19   29.50
   8   3  -6  333.17   31.00
   8   3  -6  288.87   28.00
  -8   3   6  213.78   30.60
   8   3  -6  340.47   25.10
  -8   3   6  343.37   34.40
   8   3  -6  311.57   29.80
  -8   3   6  309.67   23.60
  -8   3   6  312.67   25.10
  -8   3   6  305.67   25.90
   8   3  -6  332.77   41.00
   8  -3  -6  311.37   28.20
  -8  -3   6  347.57   27.30
  -8  -3   6  309.97   27.30
   8  -3  -6  288.47   30.90
  -8  -3   6  287.87   24.10
  -8  -3   6  300.67   34.60
   8  -3  -6  270.07   26.00
   8  -3  -6  252.97   37.00
  -8   3   5  167.68   17.50
  -8   3   5  165.28   16.90
  -8   3   5  181.48   27.10
   8   3  -5  208.08   30.30
  -8   3   5  186.68   18.50
   8   3  -5  199.38   23.30
   8   3  -5  144.19   18.30
   8   3  -5  199.78   21.40
   8   3  -5  177.78   21.90
   8  -3  -5  134.29   27.10
   8  -3  -5  171.88   20.20
  -8  -3   5  192.78   20.00
  -8  -3   5  239.08   27.60
  -8  -3   5  117.29   16.30
   8  -3  -5  104.79   24.60
  -8   3   4   66.09   11.10
   8   3  -4   52.89   12.60
   8   3  -4   84.19   20.50
   8   3  -4   79.89   15.70
  -8   3   4   59.09   17.00
  -8   3   4   72.29   15.20
  -8   3   4   87.69   13.30
   8   3  -4   66.89   10.80
  -8   3   4   90.79   11.20
   8   3  -4   54.09   11.40
   8  -3  -4   84.39   21.10
  -8  -3   4   67.79    9.70
   8  -3  -4   85.79   11.90
  -8  -3   4   74.89   12.30
   8  -3  -4   73.89   13.20
  -8  -3   4   91.49   13.30
   8   3  -3   15.80   13.90
   8   3  -3    8.70   12.20
  -8   3   3    7.90    7.20
  -8   3   3   -5.70    5.20
   8   3  -3   -2.00    8.50
  -8   3   3    5.10   11.00
   8   3  -3   -1.70    5.70
  -8   3   3    8.10    5.80
   8   3  -3   10.20    9.60
  -8  -3   3    8.60    7.00
   8  -3  -3   11.40   17.20
  -8  -3   3  -13.60   10.30
   8  -3  -3   -4.60    7.10
   8  -3  -3    1.30    6.40
   8   3  -2   26.40    9.40
   8   3  -2   28.90    7.40
  -8   3   2   31.30    6.10
  -8   3   2    0.80   14.40
  -8   3   2   28.10    6.80
  -8   3   2   35.50   11.00
   8   3  -2   15.50    8.50
  -8   3   2   18.50    7.30
   8   3  -2   12.50    8.00
   8   3  -2    3.60   12.90
  -8  -3   2   27.00    7.60
  -8  -3   2   30.60   12.20
   8  -3  -2   41.50   16.60
  -8  -3   2    7.50    6.70
   8  -3  -2   40.50    9.20
   8   3  -1  273.67   21.20
   8   3  -1  295.17   21.80
  -8   3   1  270.97   18.00
   8   3  -1  296.87   29.40
  -8   3   1  283.57   21.00
   8   3  -1  234.98   20.40
   8   3  -1  296.67   24.60
  -8   3   1  257.67   29.90
  -8   3   1  284.37   21.20
  -8   3   1  328.67   25.90
  -8  -3   1  265.17   18.80
   8  -3  -1  320.97   21.50
   8  -3  -1  276.07   19.90
   8  -3  -1  334.57   31.60
  -8  -3   1  218.28   25.30
  -8  -3   1  272.27   26.10
  -8  -3   1  288.97   20.80
   8   3   0  848.92   48.50
   8   3   0  908.11   49.00
  -8   3   0  877.01   52.39
  -8   3   0  852.81   49.10
   8   3   0  827.42   51.29
  -8   3   0  898.21   45.60
  -8   3   0  664.83   56.99
   8   3   0  847.32   52.59
   8   3   0  816.32   47.00
  -8  -3   0  921.21   46.80
   8  -3   0  933.91   48.70
   8  -3   0  801.02   49.90
   8  -3   0  892.51   73.59
   8  -3   0  838.22   49.10
  -8  -3   0  916.91   54.69
  -8  -3   0  934.71   48.40
  -8   3  -1  637.54   40.30
   8   3   1  579.14   43.60
  -8   3  -1  649.14   38.80
   8   3   1  516.15   35.20
  -8   3  -1  541.95   37.40
   8   3   1  598.64   37.10
  -8   3  -1  578.04   33.50
   8   3   1  629.34   39.80
  -8   3  -1  622.14   49.50
   8   3   1  682.93   36.10
  -8  -3  -1  587.84   53.29
   8  -3   1  600.74   33.90
   8  -3   1  630.24   36.70
   8  -3   1  662.23   39.20
  -8  -3  -1  560.84   34.50
  -8  -3  -1  703.73   36.40
   8   3   2  759.32   39.20
  -8   3  -2  736.43   54.69
   8   3   2  715.33   44.10
  -8   3  -2  740.13   42.80
   8   3   2  673.83   42.40
   8   3   2  592.64   39.20
   8   3   2  688.93   46.60
   8  -3   2  530.85   64.09
  -8  -3  -2  672.63   38.70
   8  -3   2  666.63   40.40
   8  -3   2  572.54   36.10
  -8  -3  -2  709.33   46.80
  -8  -3  -2  687.13   38.60
   8  -3   2  705.13   43.60
   8  -3   2  746.43   47.20
  -8   3  -3   45.30   11.60
   8   3   3   18.90    8.30
   8   3   3   50.49   14.80
  -8   3  -3   41.10   19.00
   8   3   3   11.40    7.50
  -8   3  -3   36.30    8.10
  -8   3  -3   21.80    9.80
   8   3   3   35.70    7.30
   8  -3   3   37.30   12.40
  -8  -3  -3   29.30   15.40
  -8  -3  -3   27.60    7.60
  -8  -3  -3   32.10    8.00
   8  -3   3   34.70    6.70
   8  -3   3   60.99   15.20
   8  -3   3   39.30   16.80
   8  -3   3   29.80    7.80
   8   3   4   69.59   10.30
   8   3   4   86.19   17.80
  -8   3  -4   57.09   13.00
  -8   3  -4   12.60   20.20
   8   3   4   52.69   10.30
  -8   3  -4   46.70    9.70
   8   3   4   43.60   11.70
  -8   3  -4   68.99   12.90
   8  -3   4   44.00    9.80
   8  -3   4   61.99    7.40
   8  -3   4   51.89   15.10
  -8  -3  -4   61.99   17.40
   8  -3   4   50.49   17.70
  -8  -3  -4   53.89    9.00
   8  -3   4   55.09   16.30
   8  -3   4   36.30   20.50
  -8   3  -5   -2.60    8.70
   8   3   5   15.60    7.60
  -8   3  -5   15.00   12.20
  -8   3  -5   12.30    7.20
   8   3   5   21.90   16.80
   8   3   5    6.80    7.20
   8   3   5   10.30   11.10
  -8  -3  -5    5.70    7.30
  -8  -3  -5   18.40    9.60
  -8  -3  -5    2.40   16.00
   8  -3   5   12.50   19.00
   8  -3   5   13.00    7.80
   8  -3   5   39.00   15.60
   8  -3   5    4.70    6.50
   8  -3   5   22.60   15.40
   8  -3   5   19.50   18.00
  -8   3  -6    3.20   32.10
   8   3   6    9.30   18.90
   8   3   6    2.60    7.20
  -8   3  -6  -18.60   13.80
  -8   3  -6   -8.60    9.40
   8   3   6   -1.50    7.60
  -8   3  -6    4.20    7.30
   8  -3   6    2.00    7.40
   8  -3   6  -13.80   19.30
   8  -3   6   -5.40    6.30
   8  -3   6   -9.50   16.40
   8  -3   6   23.80   20.20
  -8  -3  -6   20.70    9.60
   8  -3   6  -21.10   20.40
   8   3   7    6.00   21.60
  -8   3  -7   20.70   12.20
  -8   3  -7   12.80    9.40
   8   3   7   44.70   16.40
   8   3   7   -6.00    8.70
   8   3   7   27.20   11.00
  -8   3  -7   36.40   19.50
   8   3   7   15.50   22.90
  -8   3  -7   36.90   35.30
   8  -3   7   16.70    9.90
   8  -3   7   19.90    7.90
  -8  -3  -7   -0.30   14.70
  -8  -3  -7    8.90   10.70
   8  -3   7   37.20   26.80
   8   3   8  115.29   30.50
   8   3   8   86.79   23.30
   8   3   8   41.50   13.60
   8   3   8   59.19   12.40
  -8   3  -8   86.49   17.60
   8  -3   8   81.49   12.20
   8  -3   8   38.40   43.50
  -8  -3  -8   51.49   13.90
   8  -3   8   66.69   14.50
   8  -3   8   79.69   30.70
  -8   4   7   19.60   12.50
   8   4  -7   -8.40   14.00
  -8   4   7   12.20   14.90
  -8   4   7   -8.80   14.50
  -8   4   7   11.40   18.70
   8   4  -7    6.80   15.70
   8   4  -7   -5.30   29.80
  -8  -4   7   21.20   15.40
  -8  -4   7  -16.00   23.20
   8  -4  -7   -0.40   14.10
   8  -4  -7    8.00   27.30
   8   4  -6   35.20   27.50
   8   4  -6   54.99   14.90
   8   4  -6   29.20   14.80
  -8   4   6   52.39   13.50
  -8   4   6   47.90   12.70
  -8   4   6   38.70   11.70
   8   4  -6   67.59   13.40
  -8   4   6   45.40   22.50
  -8   4   6   11.00   17.80
   8   4  -6   51.89   15.90
  -8  -4   6   83.19   23.30
   8  -4  -6   40.50   14.70
   8  -4  -6  113.39   32.90
  -8  -4   6   35.80   13.90
   8  -4  -6   54.99   24.20
  -8  -4   6   68.79   17.10
  -8   4   5   -6.80    8.40
   8   4  -5   21.20   11.80
  -8   4   5    5.50    9.30
   8   4  -5    1.80   21.90
  -8   4   5   10.10    8.70
   8   4  -5   18.30   10.10
   8   4  -5    6.40   13.00
  -8   4   5  -13.40   14.50
   8   4  -5    9.90   13.70
   8  -4  -5   -6.20   10.40
  -8  -4   5   21.70   12.70
   8  -4  -5   15.80   21.10
  -8  -4   5   33.50   19.20
  -8  -4   5   19.20   11.50
  -8  -4   5   -1.40    8.40
   8  -4  -5   16.70   17.70
   8  -4  -5    0.80   10.90
   8   4  -4  609.94   53.39
  -8   4   4  580.64   49.10
  -8   4   4  645.94   41.40
   8   4  -4  583.34   45.30
  -8   4   4  548.75   46.70
   8   4  -4  679.93   40.00
   8   4  -4  640.14   44.50
  -8   4   4  634.24   37.50
   8   4  -4  655.83   42.80
  -8   4   4  667.93   39.50
   8  -4  -4  671.43   42.70
  -8  -4   4  651.33   38.80
   8  -4  -4  682.43   41.20
  -8  -4   4  750.52   42.70
   8  -4  -4  625.94   54.19
   8  -4  -4  679.53   48.00
  -8  -4   4  620.34   41.60
  -8  -4   4  682.13   49.40
  -8   4   3   47.10   18.90
   8   4  -3   36.90   13.40
  -8   4   3   29.90    9.20
  -8   4   3   29.60   13.40
   8   4  -3   37.00   10.20
  -8   4   3   29.50    9.80
  -8   4   3   44.50    7.90
   8   4  -3   30.50   12.40
   8   4  -3   51.39   19.20
   8   4  -3   38.30    9.50
   8  -4  -3   39.00   20.20
   8  -4  -3   22.90   10.90
  -8  -4   3   27.70   10.10
  -8  -4   3   28.20    7.40
  -8  -4   3   31.90   11.80
   8  -4  -3   42.20   17.60
  -8   4   2  485.75   29.90
  -8   4   2  487.95   45.50
  -8   4   2  568.94   35.30
   8   4  -2  579.84   39.70
   8   4  -2  535.15   33.40
   8   4  -2  549.15   36.30
   8   4  -2  595.94   35.30
  -8   4   2  542.85   38.70
   8   4  -2  521.95   42.90
  -8   4   2  593.24   34.90
   8  -4  -2  595.04   42.50
  -8  -4   2  542.25   40.50
  -8  -4   2  456.75   31.30
   8  -4  -2  413.36   44.80
  -8  -4   2  581.14   36.90
   8  -4  -2  472.75   34.50
  -8  -4   2  546.05   34.10
   8  -4  -2  425.16   33.90
   8   4  -1   14.30    8.10
   8   4  -1   21.60   11.70
  -8   4   1   -0.80   16.10
   8   4  -1   14.30    8.80
   8   4  -1   14.60   14.60
  -8   4   1   15.10   10.80
  -8   4   1    9.10    8.60
  -8   4   1   13.50    7.00
   8   4  -1   17.10    7.40
  -8  -4   1   30.60    8.60
   8  -4  -1    5.60   16.10
  -8  -4   1   18.50   13.00
   8  -4  -1   19.10   10.40
  -8  -4   1   -0.90   11.20
   8  -4  -1   16.30    8.00
   8  -4  -1    9.70   14.20
   8   4   0   70.69   13.90
   8   4   0   65.79   10.70
  -8   4   0   75.59   14.10
  -8   4   0   72.09   21.40
   8   4   0   85.59   12.20
   8   4   0   86.69   15.60
   8   4   0  104.69   18.30
  -8   4   0   80.59   11.90
  -8   4   0   97.89   13.80
   8  -4   0   38.50   18.60
  -8  -4   0   47.70   12.90
   8  -4   0   80.19   14.40
  -8  -4   0   72.69   17.00
   8  -4   0   80.19   11.40
   8  -4   0   53.79   18.70
  -8   4  -1    4.70    9.90
   8   4   1    4.90    9.40
   8   4   1   -1.80   12.20
  -8   4  -1   16.60    7.90
  -8   4  -1   -1.10    9.30
  -8   4  -1   -6.50   17.90
   8   4   1   -9.70    6.90
   8  -4   1    1.80    9.70
   8  -4   1   17.90   18.10
   8  -4   1   -5.00   17.70
   8  -4   1   -4.80    5.80
   8  -4   1  -10.40   15.10
  -8  -4  -1    6.80   12.90
  -8   4  -2  209.38   20.00
   8   4   2  177.88   24.00
  -8   4  -2  201.68   32.50
   8   4   2  153.38   19.90
  -8   4  -2  267.07   24.50
   8   4   2  228.88   25.00
   8   4   2  220.28   25.50
  -8   4  -2  239.88   23.40
   8  -4   2  164.38   27.10
  -8  -4  -2  293.57   26.70
   8  -4   2  179.38   19.50
   8  -4   2  238.98   25.00
   8  -4   2  254.87   30.90
   8  -4   2  216.88   24.70
  -8   4  -3    0.50   11.10
  -8   4  -3   -3.90    9.50
  -8   4  -3   -8.40    6.10
  -8   4  -3    7.00   22.10
   8   4   3   26.00   14.30
   8   4   3    7.80    8.70
   8  -4   3    2.30   17.00
   8  -4   3    5.10   18.30
   8  -4   3   13.90    7.80
   8  -4   3   -3.60   13.00
  -8  -4  -3   20.50   13.60
   8   4   4  387.86   34.40
   8   4   4  424.86   31.10
  -8   4  -4  438.26   30.10
  -8   4  -4  446.86   34.30
  -8   4  -4  415.46   35.60
  -8   4  -4  427.16   50.69
   8  -4   4  420.46   39.10
   8  -4   4  453.25   46.50
   8  -4   4  445.46   44.20
   8  -4   4  452.55   46.30
   8  -4   4  387.66   29.00
  -8  -4  -4  410.96   34.90
  -8   4  -5   63.99   31.10
   8   4   5   36.40   11.00
  -8   4  -5   23.20   17.60
  -8   4  -5   29.20   13.60
   8   4   5   25.20   20.10
  -8   4  -5   32.40    9.50
   8  -4   5    0.10   19.50
   8  -4   5   21.10   10.90
   8  -4   5   15.20   24.80
   8   4   6  155.48   27.40
  -8   4  -6  148.59   28.30
  -8   4  -6  131.89   17.80
  -8   4  -6  140.59   21.30
   8   4   6  127.59   18.20
  -8   4  -6  215.58   43.40
   8  -4   6  165.68   33.80
   8  -4   6  115.79   16.80
  -8   4  -7   23.10   11.80
  -8   4  -7   15.10   15.70
   8   4   7   38.00   13.30
   8   4   7   39.00   23.80
   8  -4   7   24.10   13.10
   8  -4   7   30.20   32.50
  -8   5   5  149.49   17.30
   8   5  -5  143.79   21.00
  -8   5   5  168.58   19.20
  -8   5   5  115.89   17.80
  -8   5   5  130.09   26.60
   8   5  -5  196.38   20.70
   8   5  -5  130.99   35.70
   8   5  -5  135.59   25.40
   8   5  -5  155.78   23.30
   8  -5  -5  183.38   37.60
  -8  -5   5  175.88   23.30
   8  -5  -5  149.88   19.40
  -8  -5   5  150.38   24.20
  -8  -5   5   97.59   28.90
   8   5  -4   13.40   12.00
  -8   5   4   -9.00    9.90
   8   5  -4   -0.90   13.90
  -8   5   4   -2.30   26.10
  -8   5   4   -6.90   10.70
   8   5  -4    0.90   11.70
   8   5  -4   -1.70   14.40
   8   5  -4   40.10   27.90
  -8   5   4   15.40    8.60
  -8   5   4   18.60   18.10
   8  -5  -4  -13.80   24.10
   8  -5  -4   15.60   12.50
   8  -5  -4   26.10   25.40
  -8  -5   4   10.30   19.30
  -8  -5   4   35.80   14.10
  -8  -5   4    0.60   15.70
  -8   5   3  -15.10   22.20
   8   5  -3  -10.60   13.70
  -8   5   3  -24.10   15.20
   8   5  -3   10.00   11.40
   8   5  -3  -12.30   21.50
  -8   5   3    4.00    7.10
  -8   5   3    1.40   11.00
   8   5  -3   11.40   12.30
  -8   5   3   11.90   10.00
   8   5  -3  -18.20   10.50
   8  -5  -3    0.80   12.40
   8  -5  -3   38.30   22.90
   8  -5  -3   37.00   22.70
  -8  -5   3    4.00   11.80
  -8  -5   3   15.20   15.70
   8  -5  -3   34.10   15.40
  -8  -5   3   23.80   17.90
   8   5  -2   47.50   16.20
  -8   5   2   27.50   12.60
  -8   5   2   37.00   15.20
  -8   5   2   33.30   22.60
   8   5  -2   42.90   21.80
  -8   5   2    6.50   10.50
   8   5  -2   39.10   13.60
   8  -5  -2   20.10   23.30
  -8  -5   2   18.80   16.50
   8  -5  -2   40.30   15.70
   8  -5  -2   34.20   26.40
  -8  -5   2   32.60   18.10
   8   5  -1  125.99   20.90
   8   5  -1  160.18   25.50
  -8   5   1  150.58   18.80
  -8   5   1  163.08   19.60
  -8   5   1  199.68   25.10
  -8   5   1  163.68   31.00
   8   5  -1  167.68   20.50
   8  -5  -1  154.08   30.70
   8  -5  -1  146.29   20.40
   8  -5  -1  177.18   20.40
  -8  -5   1  173.18   22.20
  -8  -5   1  163.78   22.50
   8   5   0   86.89   19.00
  -8   5   0   52.79   15.10
  -8   5   0   85.09   13.80
   8   5   0   99.09   15.20
   8   5   0   92.09   20.30
  -8   5   0  113.29   17.60
  -8   5   0  129.89   28.40
   8  -5   0   80.49   29.50
   8  -5   0   96.39   14.10
   8  -5   0   72.59   18.00
   8   5   1  331.17   32.70
  -8   5  -1  310.27   30.80
   8   5   1  370.66   28.50
   8   5   1  275.17   25.10
  -8   5  -1  263.87   25.40
  -8   5  -1  301.67   30.60
  -8   5  -1  297.57   40.00
   8  -5   1  319.07   29.50
   8  -5   1  293.77   43.50
  -8  -5  -1  337.47   27.40
   8  -5   1  355.46   25.20
  -8   5  -2   62.59   29.00
  -8   5  -2   63.99   14.20
  -8   5  -2   45.60   14.70
   8   5   2   63.09   13.60
  -8   5  -2   84.69   18.10
   8   5   2   63.89   18.00
   8  -5   2   79.49   13.10
   8  -5   2   31.20   23.10
  -8   5  -3  119.89   32.80
  -8   5  -3  173.88   20.70
  -8   5  -3  147.49   21.00
  -8   5  -3  224.68   25.50
   8   5   3  117.49   17.90
   8   5   3  157.48   23.00
   8  -5   3  165.88   24.60
   8  -5   3  147.09   33.00
   8  -5   3  106.69   17.80
  -8   5  -4   17.90   34.20
  -8   5  -4    8.80   19.00
   8   5   4   15.50   12.20
   8   5   4   -5.20   15.30
   8  -5   4   -1.80   11.30
   8  -5   4   20.80   27.40
   8  -5   4   45.50   23.10
  -8   5  -5   20.40   22.90
  -8   5  -5   -8.00   16.00
  -8   5  -5    4.40   10.40
   8   5   5    7.20   17.30
   9   0  -9    7.00   14.20
   9   0  -9   37.00   27.80
  -9   0   9    1.40   12.10
   9   0  -9    2.70   24.60
   9   0  -9  -10.50   13.60
  -9   0   9  -10.30   25.30
   9   0  -8   93.19   18.50
  -9   0   8   59.69   29.10
   9   0  -8   92.09   17.40
  -9   0   8   89.69   16.60
   9   0  -8  128.09   25.10
   9   0  -8   75.89   15.50
  -9   0   8  101.59   15.00
   9   0  -8   81.49   30.10
  -9   0   7   -2.00    6.80
  -9   0   7    8.50    9.70
   9   0  -7   -2.00   23.30
  -9   0   7  -12.50   16.40
   9   0  -7   -1.00   10.10
   9   0  -7  -15.60    8.30
  -9   0   7   -0.10    9.20
   9   0  -7   -3.10    9.50
   9   0  -7   -5.30   16.80
   9   0  -6   38.10   19.90
  -9   0   6   45.40   10.90
   9   0  -6   35.70   15.80
   9   0  -6   32.00    9.10
  -9   0   6   39.20    9.90
  -9   0   6   30.40    7.70
   9   0  -6   61.09   14.30
   9   0  -6   18.00   10.50
   9   0  -6   48.20   21.20
  -9   0   6   15.80   15.00
   9   0  -5    1.70    7.30
  -9   0   5   -1.80    5.20
   9   0  -5    2.90    7.70
  -9   0   5   -6.70   13.70
  -9   0   5    7.70    6.70
   9   0  -5   11.70   14.50
  -9   0   5    3.70    7.10
   9   0  -5   -5.70    6.20
   9   0  -4  265.57   21.20
  -9   0   4  301.37   23.60
   9   0  -4  308.47   25.10
  -9   0   4  291.47   21.20
  -9   0   4  278.77   20.50
  -9   0   4  291.97   30.00
   9   0  -4  243.88   24.50
   9   0  -4  296.97   23.00
   9   0  -4  279.07   34.80
   9   0  -3   -4.20    5.30
  -9   0   3   -5.10   11.20
   9   0  -3   -7.90    5.90
   9   0  -3   -1.30    5.90
   9   0  -3   -6.70    6.40
   9   0  -3   -3.50   12.40
  -9   0   3   -1.20    4.80
  -9   0   3   -3.30    5.30
  -9   0   3   -1.70    4.40
  -9   0   2 1706.93  108.39
   9   0  -2 2183.78  103.89
   9   0  -2 1943.51  113.49
  -9   0   2 1983.60  101.79
  -9   0   2 2103.69  103.49
   9   0  -2 2046.90  102.89
   9   0  -2 1823.72  102.79
  -9   0   2 1924.21  101.39
  -9   0   1    1.30    4.40
  -9   0   1    1.10    4.10
   9   0  -1   -3.20    4.20
   9   0  -1    2.00    4.60
  -9   0   1   14.80   10.10
   9   0  -1   -0.80    5.00
   9   0  -1    4.30    7.20
  -9   0   1   -1.10    4.40
   9   0  -1    7.20   12.00
  -9   0   0 2017.40  100.39
  -9   0   0 1955.30  103.39
  -9   0   0 1941.31  108.39
  -9   0   0 1889.21   99.39
   9   0   0 1986.70  108.29
   9   0   0 1939.71   99.69
   9   0   0 1923.41  102.49
   9   0   0 1952.30   99.19
  -9   0   0 1882.11   99.19
   9   0   1    5.80    7.80
   9   0   1   -3.80    9.50
  -9   0  -1    2.00   10.60
  -9   0  -1    5.10    5.00
  -9   0  -1   -1.90    4.20
  -9   0  -1    2.10    5.10
  -9   0  -1   -2.90    6.90
   9   0   1   -0.70    3.30
   9   0   1   -2.00    4.20
   9   0   1    3.80   10.30
  -9   0  -2   17.40   13.70
  -9   0  -2    3.30    6.10
   9   0   2    9.90    6.00
   9   0   2   14.90   17.20
  -9   0  -2    2.20    5.70
  -9   0  -2    2.50    5.70
   9   0   2   10.60    5.10
  -9   0  -2    8.60    7.80
   9   0   2    6.30    8.10
   9   0   2    4.60    7.90
  -9   0  -3   -2.40   15.10
   9   0   3    0.90    5.00
   9   0   3  -17.60    8.60
   9   0   3   -3.20    4.80
  -9   0  -3    2.70    5.90
  -9   0  -3    4.40    7.80
   9   0   3    4.50    7.80
   9   0   4  699.23   42.90
   9   0   4  634.14   43.20
   9   0   4  674.13   39.70
  -9   0  -4  769.52   55.99
   9   0   4  724.83   44.80
  -9   0  -4  663.13   40.50
   9   0   4  735.03   65.19
  -9   0  -4  642.74   42.10
   9   0   5    6.00    5.40
  -9   0  -5   -3.70    8.90
   9   0   5   -2.10    5.30
   9   0   5  -17.30   12.60
   9   0   5   13.70   10.80
   9   0   5   -0.90   15.50
  -9   0  -5  -28.60   16.60
  -9   0  -5   -7.00    5.80
   9   0   5   -1.30   11.50
  -9   0  -5   -9.80    9.30
  -9   0  -6  435.36   49.20
   9   0   6  419.76   28.30
   9   0   6  473.75   37.40
  -9   0  -6  445.36   29.70
   9   0   6  498.45   43.90
  -9   0  -6  404.26   33.60
   9   0   6  308.07   38.20
   9   0   6  433.96   28.80
   9   0   7  -34.40   19.40
   9   0   7    1.50    7.40
   9   0   7  -39.10   16.70
  -9   0  -7   -4.20    8.60
  -9   0  -7    9.20   27.00
   9   0   7   -5.80    6.50
   9   0   8  178.78   20.20
   9   0   8  165.58   19.00
   9   0   8  176.58   33.10
  -9   0  -8  140.79   18.10
  -9   0  -8  122.99   41.90
   9   0   9   27.00   40.70
   9   0   9    0.50   25.30
   9   0   9    7.50   11.20
  -9   0  -9  -10.70   11.20
   9   0   9  -47.10   31.20
   9   0   9   -3.10   10.10
  -9   1   9   17.20   12.80
   9   1  -9   40.70   32.20
   9   1  -9   -0.80   14.50
  -9   1   9    9.90   27.20
   9   1  -9    2.40   15.10
  -9   1   9   14.60   14.60
   9  -1  -9   45.10   22.50
   9  -1  -9   79.79   34.80
  -9  -1   9   17.90   13.50
   9  -1  -9    9.10   16.40
  -9  -1   9   20.30   28.20
   9   1  -8   47.50   13.20
   9   1  -8   17.80   13.40
  -9   1   8   39.80   22.50
   9   1  -8   37.40   14.70
  -9   1   8   30.30   12.50
   9   1  -8  -15.60   23.10
   9   1  -8   46.80   22.70
  -9  -1   8   32.70   23.40
   9  -1  -8   18.80   26.00
  -9  -1   8   48.80   14.00
   9  -1  -8   49.00   19.70
   9  -1  -8   37.10   13.80
   9   1  -7  247.78   29.30
   9   1  -7  226.58   21.50
   9   1  -7  197.08   35.30
   9   1  -7  222.58   26.00
   9   1  -7  228.88   26.70
  -9   1   7  200.78   22.70
  -9   1   7  219.38   22.80
  -9   1   7  243.48   20.30
   9   1  -7  200.68   27.60
  -9  -1   7  173.78   30.60
  -9  -1   7  216.48   20.60
   9  -1  -7  161.28   33.10
  -9  -1   7  231.98   23.90
   9  -1  -7  238.48   29.00
  -9  -1   7  215.38   22.50
   9  -1  -7  137.19   29.90
   9  -1  -7  246.88   22.30
   9   1  -6  360.76   28.30
  -9   1   6  409.16   40.30
   9   1  -6  428.86   32.10
   9   1  -6  416.76   33.10
   9   1  -6  445.66   46.40
  -9   1   6  421.56   29.10
  -9   1   6  403.66   28.30
   9   1  -6  414.06   34.50
   9   1  -6  483.55   38.30
  -9   1   6  400.66   30.50
   9  -1  -6  427.26   30.50
  -9  -1   6  404.16   31.60
   9  -1  -6  432.16   33.40
   9  -1  -6  437.06   47.60
  -9  -1   6  366.06   27.40
  -9  -1   6  491.15   41.70
   9  -1  -6  380.36   33.60
   9   1  -5  602.84   39.00
   9   1  -5  639.74   53.69
   9   1  -5  681.73   44.80
   9   1  -5  648.84   45.50
   9   1  -5  687.13   44.10
   9   1  -5  677.43   42.40
  -9   1   5  684.03   39.10
  -9   1   5  612.94   48.40
  -9   1   5  619.44   41.70
  -9   1   5  677.63   39.20
   9  -1  -5  645.74   38.50
   9  -1  -5  626.64   43.30
  -9  -1   5  655.83   48.80
   9  -1  -5  622.04   39.90
   9  -1  -5  609.44   52.29
   9  -1  -5  691.13   43.70
  -9  -1   5  676.43   42.20
  -9  -1   5  643.84   38.80
   9   1  -4  606.54   37.10
   9   1  -4  653.63   50.19
  -9   1   4  564.94   45.90
   9   1  -4  560.04   39.40
   9   1  -4  630.14   39.90
   9   1  -4  568.64   40.40
  -9   1   4  607.24   39.40
  -9   1   4  612.64   36.20
  -9   1   4  607.04   36.60
  -9  -1   4  627.34   36.60
  -9  -1   4  606.84   39.00
   9  -1  -4  627.54   50.69
  -9  -1   4  644.34   46.60
   9  -1  -4  595.94   39.90
   9  -1  -4  684.03   37.00
   9  -1  -4  591.54   37.90
   9  -1  -4  611.54   40.50
   9   1  -3  503.05   30.20
  -9   1   3  496.85   34.80
  -9   1   3  474.15   28.70
  -9   1   3  386.66   28.80
   9   1  -3  476.65   32.30
  -9   1   3  347.27   35.80
  -9   1   3  449.95   30.90
   9   1  -3  492.25   32.00
  -9  -1   3  553.14   39.70
   9  -1  -3  385.96   29.80
   9  -1  -3  436.96   31.70
   9  -1  -3  400.66   41.50
   9  -1  -3  514.45   34.10
  -9  -1   3  507.05   31.90
   9  -1  -3  508.95   32.70
   9  -1  -3  436.46   28.70
   9   1  -2    4.70   12.50
  -9   1   2   -0.40   10.30
  -9   1   2    2.40    5.10
   9   1  -2   -8.20   10.00
  -9   1   2    3.50    5.20
  -9   1   2   -1.70    7.80
   9   1  -2    1.40    6.10
   9   1  -2    3.10    5.20
   9   1  -2    6.70    6.30
   9   1  -2   21.30    7.70
  -9   1   2   -5.40    4.30
  -9  -1   2    2.70    9.70
  -9  -1   2    2.20    6.10
   9  -1  -2    1.80    5.70
   9  -1  -2   -2.30    6.00
  -9  -1   2    1.90    5.60
   9  -1  -2   -6.20   12.10
   9  -1  -2   -3.00    4.90
  -9   1   1   13.40    5.70
  -9   1   1   -0.50    4.10
   9   1  -1    2.70    5.20
   9   1  -1    3.70    5.30
  -9   1   1    3.20    4.20
   9   1  -1   -8.20    9.00
  -9   1   1   -2.30   10.00
   9   1  -1    2.40   11.90
  -9   1   1    1.50    7.60
   9   1  -1    6.10    5.20
  -9  -1   1    0.30    5.40
   9  -1  -1   -6.10   11.50
   9  -1  -1    2.00    5.00
  -9  -1   1    3.10    5.30
   9  -1  -1    9.60    5.80
   9  -1  -1    0.30    4.50
  -9  -1   1    8.10   10.40
  -9   1   0  375.26   34.40
   9   1   0  391.46   24.40
   9   1   0  365.26   28.10
   9   1   0  365.36   32.90
   9   1   0  390.26   24.40
  -9   1   0  352.56   24.10
   9   1   0  359.56   24.20
  -9   1   0  342.67   24.30
  -9   1   0  382.96   28.70
   9  -1   0  339.37   23.60
  -9  -1   0  373.26   25.10
   9  -1   0  360.66   24.70
   9  -1   0  370.86   33.10
  -9  -1   0  387.76   25.40
   9  -1   0  358.16   23.90
   9  -1   0  371.76   28.90
  -9  -1   0  377.66   32.30
   9   1   1  635.14   39.30
   9   1   1  655.93   37.30
   9   1   1  664.43   45.20
  -9   1  -1  591.44   37.40
  -9   1  -1  621.04   37.90
  -9   1  -1  588.24   41.10
  -9   1  -1  627.04   48.40
   9   1   1  644.64   36.90
   9   1   1  634.34   36.30
  -9  -1  -1  716.13   47.60
   9  -1   1  643.34   35.60
   9  -1   1  566.84   40.70
   9  -1   1  623.34   46.20
   9  -1   1  598.14   38.20
   9  -1   1  591.44   36.30
  -9  -1  -1  661.13   37.20
  -9  -1  -1  634.84   38.90
   9   1   2  453.75   30.20
  -9   1  -2  386.46   30.80
   9   1   2  583.04   39.10
  -9   1  -2  352.56   29.20
  -9   1  -2  459.95   41.70
   9   1   2  525.65   31.60
  -9   1  -2  445.46   30.20
   9   1   2  423.36   28.90
   9   1   2  522.85   28.60
  -9   1  -2  482.05   34.00
   9  -1   2  436.36   29.40
  -9  -1  -2  388.36   30.20
  -9  -1  -2  474.05   40.50
  -9  -1  -2  550.44   29.80
   9  -1   2  446.96   33.80
   9  -1   2  383.26   37.30
   9  -1   2  416.66   33.70
   9   1   3  648.74   53.39
  -9   1  -3  848.22   61.19
  -9   1  -3  884.51   49.90
  -9   1  -3  859.91   47.80
   9   1   3  725.23   46.20
   9   1   3  786.02   48.80
  -9   1  -3  866.71   51.19
   9  -1   3  909.61   58.99
   9  -1   3  696.53   45.00
  -9  -1  -3  808.32   58.89
   9  -1   3  894.41   50.89
  -9  -1  -3  801.82   47.50
   9  -1   3  847.02   53.39
   9  -1   3  944.91   52.89
   9  -1   3  863.41   47.20
  -9   1  -4  249.58   22.70
   9   1   4  250.97   23.50
   9   1   4  244.28   19.20
  -9   1  -4  242.18   19.60
   9   1   4  164.68   26.30
  -9   1  -4  230.58   34.40
   9   1   4  247.58   21.40
  -9   1  -4  243.88   23.30
   9  -1   4  241.68   30.80
   9  -1   4  288.37   26.10
   9  -1   4  262.57   24.60
   9  -1   4  234.18   18.50
  -9  -1  -4  279.17   33.30
   9  -1   4  228.48   18.90
  -9  -1  -4  243.98   21.50
  -9  -1  -4  219.38   19.90
  -9   1  -5   63.49   14.40
   9   1   5   52.39    9.80
  -9   1  -5   62.89   24.40
  -9   1  -5   69.39   11.60
   9   1   5   63.19   10.50
   9   1   5   96.39   28.40
   9   1   5   16.50   15.30
   9   1   5   45.00   19.00
  -9   1  -5   66.29   13.80
   9  -1   5   52.19   14.60
  -9  -1  -5   77.29   24.10
   9  -1   5   44.40   17.70
  -9  -1  -5   54.99    9.90
   9  -1   5   71.19   15.90
   9  -1   5   61.49   17.70
  -9  -1  -5   77.09   13.70
   9  -1   5   61.89    9.80
   9  -1   5   80.49   11.50
  -9   1  -6   11.30   12.50
  -9   1  -6    7.30    7.80
   9   1   6   12.30   17.90
   9   1   6    9.10    6.60
   9   1   6   -0.90   17.20
  -9   1  -6   26.30   11.40
   9   1   6   15.20   14.40
  -9   1  -6   36.30   23.30
   9   1   6    9.60    7.70
   9  -1   6   17.40   17.90
  -9  -1  -6    3.00   11.40
  -9  -1  -6   12.40    7.90
  -9  -1  -6   10.00   22.20
   9  -1   6    8.00    7.00
   9  -1   6    3.60   14.20
   9  -1   6   11.50    7.20
   9  -1   6   24.10   14.80
   9  -1   6   15.80   18.80
   9   1   7   -0.90   20.70
  -9   1  -7    1.10    8.10
   9   1   7    3.10    8.20
   9   1   7   21.60   18.30
   9   1   7    5.10    7.40
  -9   1  -7   -1.00   29.10
   9  -1   7  -23.30   21.10
   9  -1   7  -15.30    7.40
   9  -1   7   11.30   17.30
   9  -1   7    6.70    7.90
  -9  -1  -7   22.10   24.80
   9  -1   7    8.00   19.80
  -9  -1  -7    0.30    8.40
  -9   1  -8   32.70   11.30
  -9   1  -8   43.70   38.00
   9   1   8   12.20    8.70
   9   1   8   41.00   21.20
   9   1   8   12.80   25.10
   9   1   8   24.90   11.00
   9  -1   8   43.00   11.10
   9  -1   8    3.90   26.80
   9  -1   8   23.90   10.30
  -9  -1  -8   26.90   11.50
   9   1   9  -16.00   32.00
   9  -1   9   24.70   46.20
   9  -1   9   50.19   35.40
   9  -1   9   20.30   12.30
   9   2  -9  206.88   29.00
   9   2  -9  307.17   52.39
  -9   2   9  243.28   29.00
  -9   2   9  298.57   27.40
  -9   2   9  244.48   40.30
   9   2  -9  294.17   35.60
   9  -2  -9  190.08   29.10
  -9  -2   9  200.18   38.70
   9  -2  -9  279.37   48.30
  -9  -2   9  290.17   32.70
   9  -2  -9  367.76   42.00
   9   2  -8   14.30   13.30
   9   2  -8   -3.00   29.00
  -9   2   8   -0.30   10.80
  -9   2   8    3.50   10.30
   9   2  -8   22.20   15.40
  -9   2   8   12.00   23.10
   9   2  -8   -6.50   13.20
  -9  -2   8    4.20   24.60
  -9  -2   8    9.00   12.60
   9  -2  -8   10.20   26.60
   9  -2  -8    0.90   13.80
   9  -2  -8  -16.40   19.90
   9   2  -7  254.67   42.10
   9   2  -7  318.37   36.30
   9   2  -7  250.27   29.00
  -9   2   7  217.38   32.50
   9   2  -7  296.57   32.40
   9   2  -7  312.77   30.30
  -9   2   7  321.27   25.20
   9   2  -7  294.87   26.00
  -9   2   7  271.27   27.10
  -9   2   7  341.77   27.50
  -9  -2   7  345.27   40.70
   9  -2  -7  295.97   33.20
  -9  -2   7  310.07   28.70
   9  -2  -7  299.97   30.50
   9  -2  -7  279.07   41.10
  -9  -2   7  346.77   30.30
   9   2  -6    8.00   11.70
   9   2  -6   11.70    9.70
   9   2  -6    4.90    8.30
   9   2  -6    5.40   20.70
  -9   2   6    6.60   15.40
  -9   2   6    0.60    8.30
   9   2  -6    6.20   10.70
  -9   2   6   12.10    7.70
  -9   2   6   -5.90    8.70
   9   2  -6  -23.20   15.10
  -9  -2   6   -0.10    7.30
   9  -2  -6  -30.60   20.30
   9  -2  -6   15.20   15.00
  -9  -2   6   12.20   10.50
  -9  -2   6    2.70   15.20
   9  -2  -6   19.80   11.40
  -9  -2   6  -12.50    9.00
   9  -2  -6   -5.00    9.10
  -9   2   5   65.49   10.40
  -9   2   5   56.79   10.00
  -9   2   5   41.90   10.30
   9   2  -5   87.89   16.80
   9   2  -5   58.59   21.90
   9   2  -5   66.59   15.20
   9   2  -5   40.40   12.00
   9   2  -5   55.79   10.50
   9   2  -5   70.99   17.10
  -9   2   5   72.99   17.00
  -9  -2   5   49.60    9.50
   9  -2  -5   38.80   22.50
  -9  -2   5   83.49   14.40
  -9  -2   5   84.79   12.80
  -9  -2   5   72.79   32.40
   9  -2  -5   74.09   16.00
   9  -2  -5   98.19   16.30
   9  -2  -5   46.60   12.40
  -9   2   4   14.60   12.90
  -9   2   4   11.50    7.60
  -9   2   4   12.50    6.70
   9   2  -4    7.20    8.10
  -9   2   4    6.90   13.40
  -9   2   4   13.90    7.80
   9   2  -4   21.70   17.10
   9   2  -4    8.70    9.50
   9   2  -4   12.60    7.30
   9   2  -4   13.00   10.00
  -9  -2   4   23.50    8.70
  -9  -2   4   12.00   13.10
  -9  -2   4   24.40    8.40
   9  -2  -4   23.50    9.70
   9  -2  -4    4.10    9.10
   9  -2  -4   19.50   18.50
   9   2  -3 1371.76   75.29
   9   2  -3 1413.96   80.39
  -9   2   3 1476.35   73.99
   9   2  -3 1469.05   82.79
   9   2  -3 1360.46   78.99
  -9   2   3 1352.96   75.09
  -9   2   3 1428.16   80.59
   9   2  -3 1271.87   80.69
   9   2  -3 1460.35   88.99
   9  -2  -3 1436.06   77.59
  -9  -2   3 1453.15   84.09
  -9  -2   3 1522.05   77.79
  -9   2   2    6.90   10.00
  -9   2   2    5.90    5.50
  -9   2   2    3.90    5.20
   9   2  -2   20.40   14.00
  -9   2   2   15.50   11.60
   9   2  -2  -14.10   10.10
   9   2  -2    5.60    7.40
   9   2  -2   21.50    7.40
  -9   2   2   -0.70    5.10
   9   2  -2   20.20    7.80
   9   2  -2   12.20    7.10
   9  -2  -2   10.70   14.80
   9  -2  -2    8.20    6.50
   9  -2  -2   10.00    6.80
  -9  -2   2    8.10    6.50
  -9  -2   2   10.90   11.80
   9  -2  -2   -4.60    7.20
  -9   2   1  934.91   49.70
   9   2  -1  797.12   52.29
  -9   2   1  952.50   52.39
  -9   2   1  977.40   51.59
  -9   2   1  847.82   56.79
   9   2  -1  988.00   56.49
   9   2  -1  965.60   52.29
   9   2  -1  792.72   54.29
   9   2  -1  987.70   51.89
  -9   2   1 1005.00   62.59
   9   2  -1  829.42   61.29
   9  -2  -1  996.30   52.39
   9  -2  -1  923.21   53.19
  -9  -2   1  980.30   52.99
  -9  -2   1  853.01   50.39
   9  -2  -1  880.71   51.79
   9  -2  -1 1052.09   63.69
  -9   2   0   43.50   15.80
   9   2   0   25.60    7.50
  -9   2   0   23.80    5.70
  -9   2   0    1.60    8.30
   9   2   0   13.50   12.80
   9   2   0   28.60   11.70
   9   2   0    5.20    6.00
  -9   2   0    7.70    6.30
   9   2   0   19.80    6.90
  -9   2   0   20.40    6.20
   9  -2   0   21.00   13.60
  -9  -2   0   13.10    6.60
  -9  -2   0    7.20    5.10
   9  -2   0    8.90    6.10
   9  -2   0    9.00    5.40
  -9  -2   0  -12.90   15.00
   9  -2   0   22.00    9.50
   9  -2   0    9.10    6.70
  -9   2  -1  455.85   42.70
  -9   2  -1  460.95   31.10
   9   2   1  400.96   34.00
   9   2   1  509.75   30.10
   9   2   1  527.65   40.20
  -9   2  -1  466.95   31.80
  -9   2  -1  477.25   29.30
  -9   2  -1  465.85   34.10
   9   2   1  492.35   30.20
   9   2   1  480.65   30.50
   9  -2   1  516.75   34.70
   9  -2   1  520.05   37.30
   9  -2   1  466.35   28.70
   9  -2   1  489.75   30.20
  -9  -2  -1  465.75   30.80
  -9  -2  -1  502.25   38.90
   9  -2   1  458.75   40.10
  -9  -2  -1  490.15   29.80
  -9   2  -2    6.10    7.60
   9   2   2    3.90    6.20
  -9   2  -2   20.50   10.00
   9   2   2   21.80   10.30
   9   2   2   17.40    5.80
  -9   2  -2   18.40    7.10
   9   2   2   14.10    7.90
  -9   2  -2   23.30   16.80
   9   2   2   25.00   13.80
  -9  -2  -2    7.50   14.00
   9  -2   2    1.50    6.70
  -9  -2  -2   27.90    8.70
   9  -2   2   13.20    8.90
   9  -2   2   24.00   12.50
   9  -2   2   22.70    5.90
   9  -2   2   12.90   11.50
   9  -2   2   -0.80   14.50
   9   2   3    3.60    5.70
   9   2   3    1.20    5.90
  -9   2  -3   -1.10    7.70
  -9   2  -3    9.10    5.70
   9   2   3    2.70   13.40
  -9   2  -3    2.10   18.00
   9   2   3   11.80    9.50
  -9   2  -3    1.90    8.20
  -9  -2  -3   -7.50   14.00
   9  -2   3    3.90   14.50
   9  -2   3   -1.70   11.80
   9  -2   3    6.10    5.10
  -9  -2  -3    5.70    6.00
   9  -2   3   21.40   11.90
   9  -2   3    0.30    8.60
   9  -2   3    3.60    5.70
   9   2   4   12.20    6.80
   9   2   4    8.70    6.80
   9   2   4    6.50   10.30
  -9   2  -4    8.20    9.70
  -9   2  -4   19.50   20.70
   9   2   4   15.40   15.80
  -9   2  -4    8.50    9.60
  -9   2  -4    8.90    6.50
   9  -2   4   14.00    6.80
  -9  -2  -4    5.40   16.80
   9  -2   4   -1.30   12.70
  -9  -2  -4    6.70    8.20
   9  -2   4   -2.40   16.30
   9  -2   4   -8.20   10.60
   9  -2   4   -0.80    6.10
  -9  -2  -4    6.60    7.10
   9  -2   4   -2.10   12.70
  -9   2  -5  433.46   29.70
  -9   2  -5  446.56   33.00
  -9   2  -5  466.15   35.40
   9   2   5  419.86   28.40
   9   2   5  434.46   34.60
   9   2   5  437.96   29.80
   9   2   5  309.67   39.50
  -9   2  -5  399.96   45.20
   9  -2   5  427.26   44.00
  -9  -2  -5  384.56   29.80
   9  -2   5  489.45   38.80
   9  -2   5  465.75   44.60
  -9  -2  -5  389.26   41.90
   9  -2   5  460.85   29.40
  -9  -2  -5  394.56   31.70
   9  -2   5  425.26   48.00
   9  -2   5  431.66   27.60
  -9   2  -6   21.60   14.80
  -9   2  -6   16.80    8.20
  -9   2  -6   31.10   11.10
   9   2   6   36.30    9.60
   9   2   6   11.20   14.60
   9   2   6    9.60   18.20
   9   2   6   41.80   21.30
   9   2   6   25.70    8.70
  -9   2  -6   46.80   30.10
   9  -2   6    8.20   18.80
   9  -2   6   24.60    7.70
  -9  -2  -6   72.89   24.10
   9  -2   6   14.80   21.50
  -9  -2  -6   24.50    9.60
   9  -2   6   -8.00   16.90
  -9  -2  -6   33.80   13.40
   9  -2   6    8.60   18.30
   9  -2   6   32.00    9.20
   9   2   7  155.68   30.40
  -9   2  -7  148.39   37.20
   9   2   7  177.78   20.30
  -9   2  -7  204.68   20.50
   9   2   7  172.48   18.30
  -9   2  -7  203.48   23.00
   9  -2   7  188.98   49.00
   9  -2   7  183.38   20.10
   9  -2   7  222.78   19.20
  -9  -2  -7  187.08   20.30
   9  -2   7  206.58   32.10
  -9  -2  -7  198.58   36.70
   9   2   8  -18.20   28.00
   9   2   8    3.30   12.60
  -9   2  -8    7.50   10.70
  -9   2  -8   10.20   13.50
   9   2   8   10.80   21.60
  -9  -2  -8   -7.30   11.00
   9  -2   8   10.90   29.50
   9  -2   8    7.80   10.30
   9  -2   8    7.80   11.00
   9   3  -8   47.20   17.90
  -9   3   8   26.90   12.80
   9   3  -8   61.49   20.10
   9   3  -8   29.10   35.00
  -9   3   8   35.80   14.60
   9   3  -8   41.00   22.20
   9   3  -8   15.50   16.00
  -9  -3   8   57.49   17.60
   9  -3  -8   -4.50   49.20
  -9  -3   8    7.30   28.30
   9  -3  -8   46.60   17.10
   9  -3  -8   41.80   25.00
   9   3  -7   54.69   18.90
   9   3  -7   68.39   18.90
  -9   3   7   54.29   13.90
  -9   3   7   37.00   24.20
  -9   3   7   66.29   14.70
  -9   3   7   50.69   12.40
   9   3  -7   46.40   14.00
   9   3  -7  120.39   33.40
   9   3  -7   62.79   15.60
   9  -3  -7   22.80   14.70
   9  -3  -7   53.39   29.30
  -9  -3   7   63.99   29.00
   9  -3  -7   45.60   20.90
  -9   3   6  403.56   30.70
   9   3  -6  426.46   37.70
  -9   3   6  462.55   31.40
   9   3  -6  445.36   35.80
  -9   3   6  445.06   33.30
   9   3  -6  494.85   50.89
   9   3  -6  417.36   31.60
  -9   3   6  422.96   38.90
   9   3  -6  417.16   37.10
  -9  -3   6  358.66   34.40
   9  -3  -6  258.47   43.10
   9  -3  -6  475.95   36.70
  -9  -3   6  474.25   44.70
  -9  -3   6  460.35   34.80
  -9   3   5  127.19   17.60
   9   3  -5  144.89   22.00
   9   3  -5  139.69   30.30
   9   3  -5  169.18   19.40
  -9   3   5  183.08   28.90
  -9   3   5  162.18   20.20
  -9   3   5  225.78   18.70
   9   3  -5  188.58   23.60
   9   3  -5  220.28   25.80
  -9   3   5  202.88   26.20
   9  -3  -5  141.69   30.90
  -9  -3   5  209.48   17.90
  -9  -3   5  159.68   27.40
  -9  -3   5  148.69   19.60
  -9  -3   5  202.68   22.10
   9  -3  -5  191.28   25.30
   9  -3  -5  148.19   18.50
   9  -3  -5  193.18   23.50
  -9   3   4  374.56   38.90
  -9   3   4  443.66   29.30
   9   3  -4  346.87   32.80
   9   3  -4  422.86   43.80
   9   3  -4  470.75   33.70
  -9   3   4  438.76   32.00
   9   3  -4  463.05   30.30
   9   3  -4  427.96   34.90
  -9   3   4  460.65   36.20
  -9   3   4  472.35   28.20
  -9  -3   4  453.55   32.30
   9  -3  -4  429.36   29.80
  -9  -3   4  450.25   33.40
   9  -3  -4  461.85   34.10
   9  -3  -4  382.96   37.20
   9  -3  -4  423.26   46.70
  -9  -3   4  365.46   31.80
   9   3  -3   52.29   15.50
  -9   3   3   48.80    9.30
   9   3  -3   48.10   13.60
   9   3  -3   51.29   11.90
   9   3  -3   48.10   19.30
  -9   3   3   41.80   10.30
  -9   3   3   47.60    8.50
  -9   3   3   53.29   17.50
   9   3  -3   37.50   13.40
   9   3  -3   43.80    9.80
  -9   3   3   52.49   15.70
  -9  -3   3   26.20    9.00
  -9  -3   3   47.90   16.20
   9  -3  -3   49.00    9.70
   9  -3  -3   24.40   19.10
  -9  -3   3   49.80   10.80
   9  -3  -3   30.30   11.00
   9  -3  -3   46.40   16.60
  -9  -3   3   38.30    8.40
   9   3  -2    4.40    9.90
  -9   3   2    6.70    6.30
   9   3  -2    3.20    7.80
   9   3  -2    8.60    7.90
   9   3  -2   16.90   16.30
  -9   3   2    9.00    7.10
  -9   3   2   -5.90    6.70
   9   3  -2   11.20    8.60
   9   3  -2   -3.20   11.50
  -9   3   2   -7.40   11.50
   9  -3  -2  -11.00    6.90
  -9  -3   2    3.50    7.90
  -9  -3   2   10.30   12.70
  -9  -3   2   -9.50    7.00
   9  -3  -2   -8.60    6.80
   9  -3  -2   -3.50   12.70
   9  -3  -2   25.50   17.80
  -9  -3   2    2.30    6.10
   9   3  -1   36.50    8.40
  -9   3   1   30.10    8.40
   9   3  -1    2.90    8.90
  -9   3   1   28.80    8.10
   9   3  -1   16.50   15.50
  -9   3   1   33.10    6.50
  -9   3   1   21.20   11.60
   9   3  -1   17.60   12.40
   9   3  -1   20.40    7.30
  -9  -3   1   -3.10   12.10
   9  -3  -1   26.20    8.40
   9  -3  -1   38.30   13.40
   9  -3  -1   22.90   10.50
  -9  -3   1   23.50    9.50
  -9  -3   1    3.20    7.90
   9  -3  -1   29.80    8.50
   9  -3  -1   20.00   15.90
   9   3   0  112.39   18.30
   9   3   0  195.48   23.20
  -9   3   0  178.78   16.70
  -9   3   0  119.19   35.30
   9   3   0  155.08   17.30
   9   3   0  146.19   26.20
  -9   3   0  160.68   18.00
   9   3   0  204.58   17.50
   9   3   0  183.58   16.30
  -9   3   0  151.28   20.70
  -9   3   0  169.28   14.20
  -9  -3   0  170.68   17.40
   9  -3   0  203.38   19.80
  -9  -3   0  229.38   25.70
   9  -3   0  247.58   30.80
   9  -3   0  194.98   16.30
   9  -3   0  199.18   16.70
  -9  -3   0  166.58   19.90
  -9   3  -1  286.37   52.99
   9   3   1  326.67   22.30
   9   3   1  344.97   28.50
   9   3   1  222.08   30.60
  -9   3  -1  235.38   19.30
  -9   3  -1  311.97   23.60
  -9   3  -1  247.78   23.70
  -9   3  -1  356.96   27.20
   9   3   1  280.97   22.50
   9   3   1  288.17   22.60
  -9  -3  -1  308.07   43.70
  -9  -3  -1  204.78   24.30
  -9  -3  -1  284.17   22.40
   9  -3   1  335.87   32.90
   9  -3   1  345.07   34.70
   9  -3   1  318.57   26.60
   9  -3   1  335.37   22.40
   9  -3   1  269.37   20.10
   9   3   2  492.65   37.10
  -9   3  -2  524.15   72.79
  -9   3  -2  583.14   36.50
  -9   3  -2  464.55   33.40
   9   3   2  557.54   41.80
   9   3   2  401.76   32.30
  -9   3  -2  527.35   35.80
   9  -3   2  498.15   37.00
   9  -3   2  506.05   36.40
  -9  -3  -2  414.26   41.10
   9  -3   2  606.44   42.20
   9  -3   2  353.06   41.30
   9  -3   2  451.65   32.50
   9  -3   2  509.55   29.20
  -9  -3  -2  563.44   31.80
   9   3   3  440.86   36.70
   9   3   3  335.47   27.40
  -9   3  -3  373.06   30.90
   9   3   3  377.46   29.00
  -9   3  -3  347.27   29.40
  -9   3  -3  344.87   26.40
   9   3   3  389.46   25.00
   9  -3   3  421.66   27.60
  -9  -3  -3  364.96   25.30
  -9  -3  -3  327.47   26.40
   9  -3   3  370.86   39.60
   9  -3   3  402.36   23.20
   9  -3   3  294.27   34.20
   9  -3   3  424.76   40.00
  -9  -3  -3  400.56   37.50
   9   3   4  402.36   30.40
  -9   3  -4  318.27   29.00
   9   3   4  370.66   27.80
  -9   3  -4  346.77   32.10
   9   3   4  405.66   35.10
  -9   3  -4  322.67   25.90
   9   3   4  354.26   23.80
   9  -3   4  347.97   21.90
   9  -3   4  417.76   35.60
   9  -3   4  413.16   36.70
  -9  -3  -4  416.96   40.30
   9  -3   4  361.56   26.50
  -9  -3  -4  314.57   24.30
   9  -3   4  400.06   39.10
   9  -3   4  354.96   41.20
  -9  -3  -4  330.37   26.90
  -9   3  -5  -15.70   28.10
  -9   3  -5    0.00   10.40
  -9   3  -5    9.30    7.90
   9   3   5    9.40    7.00
  -9   3  -5  -13.90   14.20
   9   3   5    0.50    8.10
   9   3   5  -19.90   13.20
   9   3   5   22.10   18.70
   9  -3   5  -19.20   18.10
  -9  -3  -5    5.60    8.10
   9  -3   5    0.20    7.70
   9  -3   5   -5.00    6.30
  -9  -3  -5  -20.70   19.20
   9  -3   5  -25.90   21.10
  -9  -3  -5    0.00   20.70
   9  -3   5   37.00   20.00
   9  -3   5   -3.80   18.60
  -9   3  -6   18.20    9.80
  -9   3  -6   51.59   17.90
   9   3   6   18.70    9.90
   9   3   6  -13.10    9.20
  -9   3  -6   14.00   12.80
  -9   3  -6    6.60   33.40
   9   3   6   39.20   23.80
   9  -3   6   -7.70    8.50
   9  -3   6    6.10   23.60
  -9  -3  -6   20.70   22.80
  -9  -3  -6   10.90   10.60
   9  -3   6   16.60    8.90
   9  -3   6   12.60   25.20
  -9  -3  -6   -6.80   14.00
   9   3   7   27.20   11.30
  -9   3  -7   38.50   14.80
   9   3   7   12.90   27.70
  -9   3  -7   34.60   41.70
   9   3   7   16.20   19.00
  -9   3  -7   15.90   10.90
   9   3   7   28.50   15.50
   9  -3   7   32.40   12.00
   9  -3   7   18.40   29.90
  -9  -3  -7   13.10   13.70
   9  -3   7   25.00    9.90
   9   4  -7    1.90   16.10
  -9   4   7    8.60   13.50
   9   4  -7   37.70   19.30
   9   4  -7  -24.80   15.90
   9   4  -7   -1.50   18.20
  -9   4   7   20.10   16.10
   9   4  -7   -7.80   35.50
  -9   4   7   -7.10   20.30
   9  -4  -7   -3.50   30.80
  -9  -4   7   36.70   28.30
  -9  -4   7   -7.80   17.60
   9  -4  -7   37.00   17.80
   9   4  -6   37.60   13.80
  -9   4   6   32.40   12.90
   9   4  -6   21.30   30.90
  -9   4   6   10.40   17.80
   9   4  -6   19.50   16.50
   9   4  -6   33.80   19.30
   9   4  -6   46.70   18.40
  -9   4   6   22.00   27.50
  -9   4   6   21.30   13.20
   9  -4  -6   16.40   23.50
  -9  -4   6   20.60   15.50
   9  -4  -6   25.30   15.20
  -9  -4   6    5.40   23.40
   9  -4  -6    3.70   26.90
  -9   4   5    5.20    9.80
  -9   4   5    3.00    9.90
  -9   4   5  -19.20   18.70
   9   4  -5   -4.60   13.70
  -9   4   5    4.40    9.80
   9   4  -5    9.50   12.40
   9   4  -5   14.50   24.50
  -9   4   5    7.30   16.50
   9   4  -5    7.60   10.70
   9  -4  -5   20.10   14.90
  -9  -4   5   15.60   12.80
   9  -4  -5   -5.50   25.10
  -9  -4   5   25.80   15.30
   9  -4  -5   10.50   21.70
  -9  -4   5   27.70   21.20
  -9   4   4   90.29   16.30
   9   4  -4   99.09   17.90
  -9   4   4  100.59   22.30
  -9   4   4  115.69   21.80
  -9   4   4  131.09   16.00
   9   4  -4  119.29   28.90
   9   4  -4  111.39   18.00
   9   4  -4   97.29   18.90
   9   4  -4  114.69   15.80
  -9  -4   4  130.89   17.90
   9  -4  -4  143.89   26.70
  -9  -4   4  148.29   18.50
   9  -4  -4  133.89   20.50
   9  -4  -4  114.79   19.20
  -9  -4   4  140.09   16.70
  -9  -4   4   72.89   21.40
   9  -4  -4  118.09   38.60
   9   4  -3   27.00   11.00
   9   4  -3    8.30   13.60
  -9   4   3   16.70   20.30
  -9   4   3    1.90    8.60
  -9   4   3   30.90    8.50
   9   4  -3    3.50   20.10
   9   4  -3    3.40   11.50
  -9   4   3   15.70   15.70
  -9   4   3   10.10    9.70
   9   4  -3    5.80   10.00
   9  -4  -3   21.40   19.00
  -9  -4   3   17.20    8.80
   9  -4  -3   -8.90   22.50
  -9  -4   3   16.50   11.90
   9  -4  -3   26.20   11.90
   9  -4  -3   27.10   12.00
  -9   4   2  634.14   35.60
  -9   4   2  629.04   40.70
   9   4  -2  595.54   39.90
   9   4  -2  665.53   51.79
   9   4  -2  627.64   41.00
  -9   4   2  668.53   46.50
   9   4  -2  670.83   42.40
   9   4  -2  643.44   46.10
  -9   4   2  575.14   40.90
  -9   4   2  613.54   53.39
   9  -4  -2  631.14   42.00
   9  -4  -2  668.13   56.69
   9  -4  -2  687.83   50.79
   9  -4  -2  632.24   41.40
  -9  -4   2  465.15   45.90
  -9  -4   2  641.84   37.50
  -9  -4   2  578.84   39.90
  -9  -4   2  710.33   47.50
  -9   4   1   77.79   22.40
  -9   4   1   79.19   12.30
   9   4  -1   83.99   17.90
   9   4  -1   93.09   14.80
   9   4  -1   30.80   18.40
   9   4  -1   59.39   11.00
   9   4  -1   77.89   13.00
  -9   4   1   53.69   23.50
  -9   4   1   86.89   10.60
  -9   4   1   65.39   16.20
  -9  -4   1   64.59   10.00
  -9  -4   1   83.59   13.10
   9  -4  -1   88.19   13.30
   9  -4  -1   39.80   13.50
   9  -4  -1   75.09   23.80
   9  -4  -1   67.79   21.00
  -9  -4   1   56.19   18.70
   9   4   0  575.34   35.60
   9   4   0  516.85   33.20
  -9   4   0  465.85   37.20
  -9   4   0  519.55   51.99
  -9   4   0  554.04   40.50
   9   4   0  507.95   40.80
   9   4   0  559.34   35.40
  -9   4   0  527.65   35.20
   9   4   0  547.65   40.70
   9   4   0  625.24   45.50
   9  -4   0  588.54   46.00
   9  -4   0  553.54   35.10
  -9  -4   0  565.94   35.10
   9  -4   0  518.25   39.00
  -9  -4   0  609.64   43.70
   9  -4   0  550.14   36.40
   9  -4   0  592.44   48.10
  -9  -4   0  438.96   40.60
   9   4   1   25.20   15.70
   9   4   1    0.60   16.50
   9   4   1    7.50    9.30
   9   4   1    7.10   12.10
  -9   4  -1   50.89   24.90
  -9   4  -1   -2.80   10.40
   9   4   1   23.40   10.10
   9   4   1   27.90    9.00
  -9   4  -1   17.00   12.10
  -9   4  -1   12.20    9.00
   9  -4   1   47.70   20.30
   9  -4   1   27.00   18.60
   9  -4   1   18.70   12.50
   9  -4   1   34.50   13.40
   9  -4   1   18.00    8.10
  -9  -4  -1    6.70   16.50
  -9   4  -2   52.59   26.30
   9   4   2  -14.00   15.90
   9   4   2   35.40   15.20
  -9   4  -2   38.30   14.20
  -9   4  -2   22.10   10.80
   9   4   2   31.60   17.40
  -9   4  -2   20.00   12.00
   9   4   2   21.70    9.40
   9   4   2   19.20   10.20
   9  -4   2   31.70   14.90
   9  -4   2   22.20    9.00
  -9  -4  -2   24.50   17.60
   9  -4   2   32.80   19.80
   9  -4   2   46.50   15.40
   9  -4   2  -18.80   20.50
  -9   4  -3    8.30    9.30
   9   4   3   15.70   17.90
  -9   4  -3   26.70   15.10
  -9   4  -3   -2.50   11.70
  -9   4  -3   -7.60   27.00
   9   4   3   21.70   10.50
  -9  -4  -3   29.50   18.10
   9  -4   3   22.50   10.90
   9  -4   3   -5.80   16.30
   9  -4   3   34.20   24.70
   9   4   4  177.18   21.60
   9   4   4  169.78   25.30
  -9   4  -4  241.78   42.30
  -9   4  -4  208.68   25.20
  -9   4  -4  159.88   24.20
  -9   4  -4  166.68   19.10
   9  -4   4  152.68   27.40
   9  -4   4  198.68   33.90
   9  -4   4  139.19   20.50
  -9  -4  -4  129.39   24.40
  -9   4  -5   57.49   41.70
   9   4   5   -9.10   11.30
  -9   4  -5   -1.80    9.40
  -9   4  -5   19.80   14.20
   9  -4   5    0.70    9.90
   9  -4   5    4.20   26.90
  -9   4  -6  119.69   23.20
   9   4   6  124.29   18.80
  -9   4  -6  136.79   48.60
   9   4   6  121.99   37.00
  -9   4  -6   87.99   27.30
  -9   4  -6  108.19   17.70
   9  -4   6  149.19   19.40
   9  -4   6  127.39   40.20
  -9   5   4   67.49   24.60
   9   5  -4   60.19   20.40
   9   5  -4   64.39   19.30
   9   5  -4  101.09   33.70
  -9   5   4   47.90   15.90
   9   5  -4   63.49   17.50
  -9   5   4   53.29   16.10
  -9   5   4   74.49   12.30
   9   5  -4   57.29   16.10
  -9  -5   4   98.49   27.30
  -9  -5   4   48.50   17.40
   9  -5  -4   67.39   16.90
  -9   5   3   55.19   14.00
  -9   5   3   89.69   12.60
  -9   5   3  126.79   19.70
   9   5  -3  119.49   18.20
   9   5  -3  127.49   32.30
  -9   5   3   99.89   24.10
   9   5  -3  134.89   19.00
   9   5  -3   62.59   19.10
   9  -5  -3  102.59   20.30
  -9  -5   3  127.49   18.80
  -9  -5   3   84.29   17.10
  -9  -5   3   67.49   24.70
  -9   5   2  -10.20   13.70
   9   5  -2    2.60   11.90
  -9   5   2    2.10   10.30
   9   5  -2   -0.10   11.80
   9   5  -2  -13.10   15.40
  -9   5   2   30.20   30.80
  -9   5   2   12.20   16.70
   9   5  -2   13.60   13.00
   9   5  -2  -25.20   23.20
  -9  -5   2   -0.40   28.50
   9  -5  -2  -27.90   26.10
  -9  -5   2  -16.90   19.50
   9  -5  -2   -8.50   12.40
   9   5  -1   14.80   12.90
  -9   5   1   -8.70   26.90
  -9   5   1    3.20   15.10
   9   5  -1    1.10   16.30
  -9   5   1    1.70   14.70
   9   5  -1  -27.80   30.80
  -9   5   1   13.60   10.50
   9  -5  -1   22.50   11.50
   9  -5  -1    0.00   25.40
  -9  -5   1    6.40   20.30
  -9  -5   1   14.30   18.10
  -9   5   0    3.60   29.70
   9   5   0   15.10   16.30
  -9   5   0   21.60   16.30
  -9   5   0   20.90   15.20
   9   5   0    8.60   10.80
   9   5   0   38.50   19.80
  -9   5   0   24.60   10.00
   9  -5   0   20.40   24.10
   9  -5   0   26.00   11.30
  -9   5  -1  148.79   39.20
   9   5   1  209.98   21.80
  -9   5  -1  163.28   20.80
  -9   5  -1  154.08   23.20
  -9   5  -1  277.97   31.80
   9   5   1  176.78   27.70
   9   5   1  155.98   29.00
   9   5   1  219.18   26.40
  -9  -5  -1  182.48   24.70
   9  -5   1  203.08   24.10
   9  -5   1  217.88   21.20
   9  -5   1  180.28   32.80
   9   5   2   35.50   19.30
   9   5   2   76.59   18.70
  -9   5  -2   38.80   14.50
  -9   5  -2    2.80   34.80
   9   5   2   45.60   22.50
  -9   5  -2  104.59   21.00
   9   5   2   37.10   13.60
  -9  -5  -2   63.99   17.70
   9  -5   2   44.70   27.30
   9  -5   2   61.99   20.20
   9  -5   2   42.40   12.40
  -9   5  -3  138.09   58.19
  -9   5  -3  221.68   28.90
  -9   5  -3  133.29   22.60
   9   5   3  189.88   26.50
   9   5   3  173.88   22.40
  -9   5  -3  113.39   19.50
   9   5   3  167.88   20.80
   9  -5   3  212.08   33.10
   9  -5   3   56.09   36.70
   9  -5   3  156.28   20.20
  -9   5  -4   49.90   24.60
   9   5   4   32.60   16.00
  -9   5  -4   21.80   16.80
   9   5   4   29.40   22.90
   9   5   4   17.30   29.90
   9  -5   4   -7.70   21.40
  10   0  -9   -5.90   37.30
  10   0  -9  -12.90   17.40
 -10   0   9   -2.80   26.20
  10   0  -9   -6.90   18.60
  10   0  -8  483.05   37.10
  10   0  -8  316.87   49.90
 -10   0   8  453.95   38.10
  10   0  -8  461.35   41.30
  10   0  -7    5.80   11.80
  10   0  -7    6.50   19.30
 -10   0   7    8.10    8.60
 -10   0   7   -0.60   11.00
 -10   0   7   13.40   20.70
  10   0  -7   11.50   10.80
  10   0  -7    9.00   12.20
 -10   0   6  363.26   40.20
  10   0  -6  383.06   37.40
  10   0  -6  385.16   33.40
  10   0  -6  384.16   30.00
  10   0  -6  337.17   42.70
 -10   0   6  359.56   30.70
  10   0  -6  317.17   32.60
 -10   0   6  379.66   30.60
 -10   0   6  367.96   28.10
  10   0  -5    3.70   10.00
  10   0  -5  -16.00   19.00
 -10   0   5    4.60    6.90
  10   0  -5   -3.20    8.10
  10   0  -5    3.40    9.40
 -10   0   5   -0.80   13.20
 -10   0   5    6.80    8.70
  10   0  -5    4.30   13.70
 -10   0   5   -7.80    6.10
  10   0  -5   22.60   10.60
 -10   0   4   24.30   15.70
  10   0  -4   23.40    8.70
  10   0  -4   58.19   13.90
 -10   0   4   28.20    8.30
 -10   0   4   44.50   10.80
 -10   0   4   37.00    9.20
  10   0  -4   27.30   10.90
  10   0  -4   23.80   10.10
  10   0  -4   11.10    9.20
  10   0  -4    7.10   19.50
  10   0  -3    4.60    8.00
  10   0  -3    1.40   17.40
  10   0  -3   -2.40    7.90
 -10   0   3   12.00   14.10
 -10   0   3    8.40    6.90
  10   0  -3   -2.90    7.40
 -10   0   3   -3.90    6.00
  10   0  -3   -4.60    7.40
 -10   0   3    4.70    7.20
  10   0  -2  530.85   46.80
  10   0  -2  534.55   33.90
 -10   0   2  506.65   42.50
 -10   0   2  521.35   32.90
 -10   0   2  500.05   34.50
  10   0  -2  568.44   35.50
  10   0  -2  544.85   35.60
 -10   0   2  553.04   33.70
  10   0  -1  -19.00   12.80
  10   0  -1  -16.20    8.30
  10   0  -1    3.20    5.30
 -10   0   1   -1.30    5.20
 -10   0   1    3.20    5.60
  10   0  -1   -4.40    5.80
 -10   0   1   -4.00   11.90
  10   0  -1   -3.20    5.20
 -10   0   1   -3.40    4.30
 -10   0   0 1451.55   77.59
  10   0   0 1439.66   80.79
  10   0   0 1428.66   77.29
  10   0   0 1475.15   77.09
 -10   0   0 1492.35   81.99
 -10   0   0 1523.25   88.19
 -10   0   0 1453.55   77.99
  10   0   0 1427.26   86.49
 -10   0   0 1466.35   77.29
  10   0   0 1507.65   78.19
 -10   0  -1   -8.80    6.10
 -10   0  -1    4.10    5.10
 -10   0  -1    0.70    5.60
  10   0   1    4.60   14.00
 -10   0  -1   -3.60    8.30
  10   0   1   -5.60    6.20
  10   0   1   -1.30    9.10
 -10   0  -1   -0.90   13.40
  10   0   1   -3.80    4.80
  10   0   1   -3.90    4.50
  10   0   2  922.41   49.10
 -10   0  -2  872.11   63.59
 -10   0  -2  853.41   52.19
 -10   0  -2  802.12   50.79
  10   0   2  888.11   49.20
 -10   0  -2  801.42   50.49
  10   0   2  842.62   52.99
  10   0   2  934.41   52.39
 -10   0  -2  907.71   50.49
  10   0   2  853.91   59.69
 -10   0  -3    7.60    8.60
  10   0   3   -1.50    6.20
  10   0   3   22.00   11.90
  10   0   3    8.30    6.50
 -10   0  -3   13.30   17.20
  10   0   3  -20.90   14.50
 -10   0  -3    1.30    9.00
  10   0   3    7.20   10.80
 -10   0  -3   -5.70    7.20
  10   0   4   14.50   19.70
  10   0   4   10.20    7.40
  10   0   4   15.60   12.40
 -10   0  -4    3.30    7.80
  10   0   4  -20.00   13.60
 -10   0  -4   20.90   12.30
  10   0   4   -1.80   11.60
 -10   0  -4   -8.40    9.80
 -10   0  -4   36.10   21.10
  10   0   4   14.00   10.50
  10   0   5   10.90    7.20
  10   0   5   21.40   15.70
 -10   0  -5   -6.40    6.80
 -10   0  -5   19.90   24.60
  10   0   5  -12.00   18.90
  10   0   5    3.80    7.00
 -10   0  -5   19.50   11.20
 -10   0  -5  -21.80   11.30
  10   0   5   14.20   15.90
  10   0   6  263.67   21.40
  10   0   6  127.89   34.00
  10   0   6  216.48   34.00
 -10   0  -6  253.37   22.30
  10   0   6  254.77   30.50
 -10   0  -6  231.98   42.00
  10   0   6  249.18   20.90
 -10   0  -6  202.38   28.20
  10   0   7   30.40   26.00
  10   0   7    2.30    8.80
 -10   0  -7  -81.39   32.30
  10   0   7    3.10    7.90
  10   0   7    7.60   22.20
 -10   0  -7   -7.00    9.20
  10   0   8   85.29   15.20
 -10   0  -8   76.79   15.40
 -10   0  -8   42.80   43.30
  10   0   8   97.69   35.00
  10   0   8   86.29   13.90
  10   1  -9   38.10   18.50
 -10   1   9   -5.20   14.50
  10   1  -9   -5.50   20.30
  10   1  -9  -20.60   35.00
  10  -1  -9  -67.19   54.49
  10  -1  -9   40.70   19.20
 -10  -1   9   -7.50   15.70
  10   1  -8  -13.80   30.90
 -10   1   8  -20.20   11.40
 -10   1   8  -19.10   24.40
  10   1  -8  -13.90   14.50
 -10   1   8    5.60   13.70
  10   1  -8   -4.40   15.80
  10  -1  -8    2.20   14.90
  10  -1  -8   12.70   22.10
 -10  -1   8   -5.80   25.40
  10  -1  -8  -27.40   30.30
 -10  -1   8  -20.40   12.70
 -10   1   7   68.29   25.90
  10   1  -7   40.20   13.30
  10   1  -7   20.20   28.60
  10   1  -7   33.60   29.00
 -10   1   7   29.20   12.60
  10   1  -7   24.40   14.10
  10   1  -7   44.40   16.10
  10   1  -7   81.19   17.30
 -10   1   7   43.20   15.10
  10  -1  -7  112.09   32.50
  10  -1  -7   35.10   16.10
 -10  -1   7   31.50   13.10
 -10  -1   7   32.40   22.60
  10  -1  -7   35.60   18.60
  10   1  -6  116.89   19.80
  10   1  -6  143.99   18.50
 -10   1   6  188.68   18.50
  10   1  -6  145.69   23.70
 -10   1   6  193.98   22.20
  10   1  -6  148.19   33.80
 -10   1   6  159.48   19.10
  10   1  -6  198.18   28.60
  10  -1  -6  163.48   20.00
 -10  -1   6  155.78   20.90
 -10  -1   6  168.28   20.80
  10  -1  -6  158.48   25.30
 -10  -1   6  128.69   25.80
 -10  -1   6  169.58   18.00
  10  -1  -6  133.69   20.60
  10  -1  -6  182.28   33.50
 -10   1   5  399.26   27.70
 -10   1   5  397.26   27.90
  10   1  -5  359.26   28.30
 -10   1   5  363.96   58.69
  10   1  -5  330.37   42.00
 -10   1   5  404.06   31.00
  10   1  -5  359.56   33.60
  10   1  -5  425.36   33.60
  10   1  -5  421.26   31.80
  10  -1  -5  363.16   32.90
  10  -1  -5  419.76   34.30
  10  -1  -5  411.46   33.20
 -10  -1   5  421.86   31.40
  10  -1  -5  406.46   33.50
  10  -1  -5  246.08   43.30
 -10  -1   5  425.56   32.20
  10  -1  -5  407.36   28.30
 -10  -1   5  308.97   38.50
 -10  -1   5  462.75   41.10
  10   1  -4  535.05   36.70
  10   1  -4  501.05   32.90
 -10   1   4  464.15   31.80
  10   1  -4  406.96   48.00
 -10   1   4  444.36   34.40
  10   1  -4  498.35   49.00
 -10   1   4  564.74   32.20
  10   1  -4  473.75   35.30
 -10   1   4  407.56   41.70
  10   1  -4  439.06   35.50
  10  -1  -4  475.35   35.60
  10  -1  -4  489.75   38.20
  10  -1  -4  426.06   33.40
  10  -1  -4  493.35   49.90
 -10  -1   4  471.35   34.10
 -10  -1   4  544.25   43.60
 -10  -1   4  487.95   31.10
  10  -1  -4  525.65   32.70
  10  -1  -4  520.05   37.20
 -10  -1   4  491.35   34.80
  10   1  -3  700.83   42.40
 -10   1   3  707.93   50.59
  10   1  -3  628.14   46.80
 -10   1   3  703.63   40.70
 -10   1   3  745.93   52.89
 -10   1   3  629.84   42.30
  10   1  -3  656.63   43.40
  10   1  -3  687.03   46.90
 -10   1   3  698.93   41.40
  10   1  -3  709.23   57.29
  10  -1  -3  815.62   46.90
 -10  -1   3  707.03   43.60
 -10  -1   3  684.13   41.00
 -10  -1   3  626.24   50.49
  10  -1  -3  681.23   43.90
  10  -1  -3  582.64   54.19
  10  -1  -3  700.43   42.10
  10  -1  -3  562.64   42.40
 -10   1   2  373.16   26.70
 -10   1   2  432.76   27.00
  10   1  -2  409.06   28.60
  10   1  -2  400.56   33.80
  10   1  -2  333.67   28.60
  10   1  -2  326.47   28.50
  10   1  -2  294.17   41.10
 -10   1   2  416.26   37.30
 -10   1   2  466.65   34.30
 -10   1   2  471.55   29.50
  10   1  -2  451.85   29.80
 -10  -1   2  365.36   28.50
 -10  -1   2  441.76   28.00
  10  -1  -2  410.56   27.80
  10  -1  -2  344.67   28.20
  10  -1  -2  462.65   42.20
 -10  -1   2  341.57   36.80
  10  -1  -2  485.75   30.00
  10   1  -1   42.80   14.40
 -10   1   1   55.89   10.10
  10   1  -1   56.39   18.70
 -10   1   1   66.39   10.60
 -10   1   1   59.19    9.50
  10   1  -1   56.09    9.70
 -10   1   1   67.39   13.70
  10   1  -1   56.99   10.50
  10   1  -1   69.09   11.10
 -10   1   1   53.59   17.00
 -10  -1   1   75.49   18.10
 -10  -1   1   60.99    9.70
  10  -1  -1   53.19   10.10
 -10  -1   1   64.09   11.40
  10  -1  -1   58.99    9.90
  10  -1  -1   87.09   21.00
  10  -1  -1   77.89   12.20
 -10   1   0    6.20   12.90
 -10   1   0    6.40    5.50
  10   1   0    1.40    7.00
  10   1   0  -13.10   12.90
  10   1   0  -14.00    9.00
 -10   1   0   -8.70    5.20
 -10   1   0   -2.90    5.50
  10   1   0   -6.90    5.30
  10   1   0    4.60    5.10
 -10   1   0   -1.00    8.90
  10  -1   0    4.40   13.60
  10  -1   0    3.90    5.10
  10  -1   0   -3.30    5.50
 -10  -1   0    0.70    6.10
 -10  -1   0    2.20    6.10
  10  -1   0   -6.60    9.60
  10  -1   0   -5.10    6.00
 -10  -1   0    8.60   12.00
  10   1   1   70.59   10.20
  10   1   1   94.89   11.90
 -10   1  -1  100.39   12.80
  10   1   1   88.09   20.00
 -10   1  -1  104.59   16.60
  10   1   1   79.39   11.80
 -10   1  -1   51.49   18.00
 -10   1  -1   82.69   11.30
  10   1   1   66.49   13.90
 -10   1  -1   73.69   11.50
  10  -1   1   83.49   10.70
  10  -1   1   70.59   11.90
 -10  -1  -1   65.39   10.10
 -10  -1  -1   92.99   14.30
  10  -1   1   56.09    9.10
 -10  -1  -1  107.09   21.30
  10  -1   1   82.89   19.50
  10  -1   1   63.99   15.10
  10  -1   1   86.09   15.40
 -10   1  -2  254.17   22.40
  10   1   2  281.87   24.10
  10   1   2  304.77   24.70
  10   1   2  284.17   23.40
 -10   1  -2  258.87   22.20
 -10   1  -2  279.97   23.40
 -10   1  -2  224.18   33.20
  10   1   2  278.07   31.80
  10   1   2  298.77   22.20
 -10   1  -2  295.17   26.80
  10  -1   2  260.97   24.80
 -10  -1  -2  274.17   35.30
  10  -1   2  230.98   27.70
 -10  -1  -2  248.58   23.50
  10  -1   2  266.77   21.00
  10  -1   2  312.07   36.90
  10  -1   2  219.98   26.80
 -10  -1  -2  327.87   21.80
  10  -1   2  314.17   20.10
 -10   1  -3  375.06   27.90
  10   1   3  401.26   30.00
  10   1   3  244.38   36.70
 -10   1  -3  383.46   44.00
  10   1   3  372.96   25.40
 -10   1  -3  411.06   32.10
  10   1   3  409.36   37.90
 -10   1  -3  331.67   28.50
  10   1   3  395.56   27.20
  10  -1   3  351.06   32.40
 -10  -1  -3  284.07   26.40
 -10  -1  -3  346.97   40.60
 -10  -1  -3  403.56   27.00
  10  -1   3  431.16   25.40
  10  -1   3  338.07   38.90
  10  -1   3  290.37   29.30
  10  -1   3  343.27   30.90
  10   1   4  357.36   25.50
 -10   1  -4  342.77   27.50
  10   1   4  234.98   33.40
  10   1   4  324.77   29.40
  10   1   4  258.77   23.80
 -10   1  -4  371.26   45.40
 -10   1  -4  300.07   29.10
 -10   1  -4  326.57   28.80
  10  -1   4  345.67   36.70
 -10  -1  -4  356.16   30.80
  10  -1   4  267.07   23.10
  10  -1   4  256.77   34.10
 -10  -1  -4  368.26   42.20
 -10  -1  -4  292.27   25.20
  10  -1   4  357.26   33.30
  10  -1   4  347.47   24.60
  10  -1   4  392.76   31.80
 -10   1  -5  456.35   37.10
  10   1   5  495.25   40.30
 -10   1  -5  473.45   38.00
  10   1   5  456.75   47.10
 -10   1  -5  397.06   54.69
  10   1   5  464.75   32.00
 -10   1  -5  492.25   33.00
  10   1   5  468.95   31.70
  10  -1   5  435.36   31.20
  10  -1   5  527.65   48.70
  10  -1   5  492.95   31.50
 -10  -1  -5  455.75   36.00
  10  -1   5  474.15   40.80
  10  -1   5  527.75   41.30
 -10  -1  -5  426.46   50.99
 -10  -1  -5  490.15   33.20
  10  -1   5  450.35   44.30
  10   1   6   -3.40   22.20
  10   1   6   13.30   18.60
 -10   1  -6   38.70   19.70
 -10   1  -6   13.60   31.40
  10   1   6   16.50    9.10
  10   1   6   26.20    9.80
 -10   1  -6   25.40   10.20
 -10   1  -6    9.20   16.60
 -10  -1  -6   18.90    9.50
  10  -1   6   31.30   19.10
  10  -1   6   64.69   22.30
  10  -1   6   49.40   24.70
 -10  -1  -6   29.50   27.00
  10  -1   6   13.70    8.80
  10  -1   6   11.60    7.90
 -10   1  -7  -10.10   35.90
 -10   1  -7   29.80   10.70
  10   1   7   20.90   10.50
  10   1   7   23.20    9.40
  10   1   7    5.90   23.60
  10   1   7   35.20   26.90
  10  -1   7   19.70    9.30
  10  -1   7    5.30   22.70
 -10  -1  -7   16.60   11.10
  10  -1   7   23.60   26.50
 -10  -1  -7   78.99   34.30
  10  -1   7    7.30    8.90
  10  -1   7  -30.10   22.10
  10   1   8   -1.10    9.60
 -10   1  -8  -11.80   11.20
  10   1   8    9.90   31.80
 -10   1  -8    6.10   44.50
  10  -1   8   11.30   31.80
 -10  -1  -8  -26.70   38.20
 -10  -1  -8   11.50   19.50
  10  -1   8   -6.10    9.90
  10  -1   8    3.30   10.60
 -10   2   8    7.20   25.60
 -10   2   8   -7.20   11.60
  10   2  -8   14.70   17.40
  10   2  -8   -8.80   33.90
 -10   2   8   -6.50   13.00
  10   2  -8   -3.70   17.60
  10  -2  -8    2.70   16.70
 -10  -2   8   10.70   15.20
 -10  -2   8   16.60   26.10
  10  -2  -8   46.60   41.10
 -10   2   7  384.36   33.50
 -10   2   7  282.07   41.30
  10   2  -7  404.96   37.00
  10   2  -7  375.16   32.10
  10   2  -7  482.35   38.60
 -10   2   7  375.86   29.70
  10   2  -7  325.67   51.19
  10   2  -7  338.67   38.20
 -10  -2   7  411.86   46.60
  10  -2  -7  446.66   41.20
  10  -2  -7  415.86   38.30
 -10  -2   7  386.06   34.40
  10  -2  -7  301.57   49.50
  10   2  -6   31.40   11.30
 -10   2   6   30.60   10.30
  10   2  -6   24.00   15.50
 -10   2   6   20.00   11.00
  10   2  -6   -0.50   26.10
 -10   2   6   56.79   22.10
  10   2  -6   28.50   13.90
 -10   2   6   17.40   10.50
  10   2  -6    9.70   12.60
 -10  -2   6   24.60   15.30
  10  -2  -6    3.30   13.40
  10  -2  -6   26.50   18.00
  10  -2  -6   45.70   28.40
 -10  -2   6   66.69   22.80
  10   2  -5  197.48   23.90
 -10   2   5  199.08   21.50
  10   2  -5  211.38   24.90
  10   2  -5  211.78   26.90
  10   2  -5  206.18   20.60
  10   2  -5  206.68   27.40
 -10   2   5  217.28   19.60
  10   2  -5  174.08   38.90
 -10   2   5  127.89   26.90
 -10   2   5  200.18   20.00
  10  -2  -5  135.79   19.90
 -10  -2   5  171.98   23.20
  10  -2  -5  191.68   24.90
 -10  -2   5  193.38   18.80
 -10  -2   5  183.68   21.90
  10  -2  -5  158.58   33.50
 -10  -2   5  145.99   26.50
 -10   2   4    4.70   12.10
  10   2  -4   17.10   17.20
  10   2  -4   12.90   19.80
 -10   2   4   -3.60    7.80
  10   2  -4    8.50    8.30
 -10   2   4    2.30    7.40
  10   2  -4   16.30   11.60
  10   2  -4  -14.20   10.20
  10   2  -4   -3.00    9.30
 -10   2   4   10.80    7.40
  10  -2  -4   11.40   10.20
  10  -2  -4    8.50   14.10
  10  -2  -4    7.70   20.20
  10  -2  -4   -0.60   10.00
 -10  -2   4   -1.60    7.30
  10  -2  -4    5.90    9.80
 -10  -2   4    1.70    8.90
 -10  -2   4  -11.60   14.70
  10   2  -3  161.98   22.00
 -10   2   3  190.18   23.20
  10   2  -3  193.78   18.60
  10   2  -3  212.38   21.30
 -10   2   3  129.29   15.40
 -10   2   3  131.69   24.70
  10   2  -3  165.08   20.10
 -10   2   3  144.99   17.70
 -10   2   3  169.08   16.20
  10   2  -3  169.68   23.20
  10   2  -3  137.29   27.80
  10  -2  -3  186.58   17.70
 -10  -2   3  129.69   17.50
  10  -2  -3  140.29   18.90
 -10  -2   3  170.48   19.50
  10  -2  -3  122.09   26.30
  10  -2  -3  170.38   20.60
 -10  -2   3  133.19   15.40
 -10  -2   3  171.18   27.70
  10  -2  -3  208.58   25.60
  10   2  -2   11.20    9.10
 -10   2   2    7.90    6.70
 -10   2   2    8.90    6.30
  10   2  -2    6.30    8.30
 -10   2   2   -3.80   24.20
  10   2  -2    6.50   13.00
  10   2  -2  -11.60    7.10
 -10   2   2    6.40    6.30
  10   2  -2   11.30   18.40
 -10   2   2    7.20   10.70
  10   2  -2  -14.50    8.00
 -10  -2   2   -0.60    7.60
 -10  -2   2   14.10    6.90
  10  -2  -2    4.80   12.40
  10  -2  -2   41.20   19.40
  10  -2  -2   24.30    8.10
  10  -2  -2    4.70    9.70
 -10  -2   2   10.60   13.90
  10  -2  -2    3.30    7.00
  10  -2  -2   11.80    8.70
  10   2  -1 1434.66   80.79
  10   2  -1 1178.88   75.39
 -10   2   1 1408.66   72.19
  10   2  -1 1497.15   75.49
 -10   2   1 1454.55   75.49
 -10   2   1 1483.55   81.79
  10   2  -1 1447.96   74.29
 -10   2   1 1443.96   74.49
  10   2  -1 1343.67   80.09
 -10   2   1 1563.14   87.69
  10  -2  -1 1448.16   85.69
  10  -2  -1 1583.24   75.99
  10  -2  -1 1141.69   73.89
 -10  -2   1 1424.46   73.09
  10  -2  -1 1215.98   75.69
  10  -2  -1 1336.67   74.69
 -10  -2   1 1342.77   83.09
 -10  -2   1 1272.17   75.19
  10   2   0   -5.50    5.30
  10   2   0   -1.80    6.30
  10   2   0    2.40    6.50
 -10   2   0   12.40    6.80
 -10   2   0    3.50    5.90
  10   2   0    1.50   15.20
  10   2   0   -2.50   13.10
 -10   2   0   -1.30   10.60
 -10   2   0   -2.80   15.40
 -10   2   0   -2.70    6.00
  10  -2   0   -4.90    6.50
  10  -2   0   11.30   15.20
  10  -2   0   12.10   17.40
  10  -2   0    6.30   10.90
  10  -2   0    8.60    7.80
  10  -2   0    2.30    5.60
 -10  -2   0    4.90    7.10
 -10  -2   0    2.10    5.20
 -10   2  -1  752.22   61.39
 -10   2  -1  837.82   49.80
  10   2   1  827.22   47.90
  10   2   1  871.21   52.99
  10   2   1  872.51   47.90
 -10   2  -1  808.12   48.70
  10   2   1  885.11   48.30
 -10   2  -1  793.82   53.49
  10   2   1  897.21   59.09
 -10   2  -1  828.62   49.60
 -10  -2  -1  836.42   47.60
  10  -2   1  755.72   52.39
  10  -2   1  868.41   59.29
  10  -2   1  917.41   47.00
  10  -2   1  707.93   49.80
  10  -2   1  836.92   47.70
  10  -2   1  692.43   53.89
 -10  -2  -1  922.41   48.80
 -10   2  -2   -2.60    7.90
  10   2   2   12.00    7.70
 -10   2  -2   -6.00   22.40
  10   2   2   15.60    9.40
  10   2   2   16.00   15.20
  10   2   2   -3.00    5.50
 -10   2  -2   -3.60    9.80
 -10   2  -2    6.00    9.50
  10   2   2   -2.50   11.30
 -10  -2  -2   -0.60    6.50
 -10  -2  -2   10.70    8.00
  10  -2   2    9.80    6.80
  10  -2   2  -13.00   10.70
  10  -2   2   15.30   14.50
  10  -2   2    5.90    5.80
  10  -2   2   21.40   13.10
 -10  -2  -2    0.50    8.20
  10  -2   2  -14.70   17.60
 -10  -2  -2   15.40   16.20
 -10   2  -3  127.79   15.30
  10   2   3   95.89   15.20
 -10   2  -3  110.99   17.10
  10   2   3  107.49   12.60
  10   2   3  103.69   14.80
 -10   2  -3   93.89   16.50
  10   2   3   96.39   22.00
  10   2   3   61.29   14.80
 -10   2  -3  162.28   32.30
 -10  -2  -3   87.69   24.60
  10  -2   3   72.39   24.30
 -10  -2  -3   71.49   13.50
  10  -2   3  111.99   12.20
  10  -2   3  107.79   20.40
  10  -2   3  120.09   21.30
 -10  -2  -3   89.39   12.00
  10  -2   3   84.39   16.10
 -10   2  -4   43.20   15.20
  10   2   4   23.80   18.60
 -10   2  -4   23.10   25.60
 -10   2  -4   26.20    8.90
 -10   2  -4   38.30   12.60
  10   2   4   32.60    8.80
  10   2   4   46.60   11.20
  10   2   4   23.70   14.00
 -10  -2  -4   36.90    9.70
  10  -2   4   31.80    9.60
  10  -2   4   59.09   19.10
  10  -2   4   34.60    8.20
 -10  -2  -4   46.10   13.60
  10  -2   4   53.99   23.40
 -10  -2  -4   22.60   20.30
  10  -2   4   13.70   17.20
  10  -2   4   -1.30   16.80
 -10   2  -5   88.39   19.10
  10   2   5   60.79   12.00
  10   2   5   78.79   20.80
  10   2   5   16.10   23.20
 -10   2  -5   59.09   11.20
 -10   2  -5   86.79   50.49
 -10   2  -5   67.09   15.70
  10   2   5   62.89   11.50
  10  -2   5   74.89   26.40
 -10  -2  -5   58.09   13.00
 -10  -2  -5   82.79   29.30
  10  -2   5   34.30   22.90
  10  -2   5   48.30   10.10
  10  -2   5   86.39   22.60
  10  -2   5   23.10   25.10
  10  -2   5   54.39   11.00
 -10  -2  -5   59.09   15.20
 -10   2  -6  -16.00   34.80
  10   2   6    4.60    9.50
  10   2   6   -6.20    8.30
  10   2   6    7.60   21.50
 -10   2  -6   -2.00    8.70
 -10   2  -6    1.20   13.00
  10   2   6    0.30   25.70
 -10  -2  -6   13.70   27.80
  10  -2   6    7.70   26.80
  10  -2   6   12.10    9.10
  10  -2   6    3.90    8.40
 -10  -2  -6   12.60   11.50
  10  -2   6   31.00   23.10
  10   2   7  162.98   20.00
 -10   2  -7  175.88   21.60
  10   2   7  160.18   23.50
 -10   2  -7  122.09   20.90
  10   2   7  205.68   36.50
  10  -2   7  184.88   39.10
  10  -2   7  217.38   20.60
 -10  -2  -7  173.88   41.50
 -10  -2  -7  145.29   19.80
  10  -2   7  209.38   34.70
  10  -2   7  169.98   20.90
 -10   3   7   -0.90   14.00
  10   3  -7   45.20   56.39
 -10   3   7   -6.40   12.50
  10   3  -7   11.10   20.80
 -10   3   7    7.10   25.70
  10   3  -7   -8.40   14.50
  10   3  -7    9.30   16.70
  10  -3  -7   -3.50   32.40
 -10  -3   7  -40.10   26.70
 -10  -3   7   19.00   15.80
  10  -3  -7   -6.60   16.60
  10   3  -6   86.29   21.10
  10   3  -6   42.80   17.10
  10   3  -6   89.59   31.00
 -10   3   6   76.99   16.00
 -10   3   6   72.69   31.10
 -10   3   6   96.99   15.80
 -10   3   6   47.50   15.10
  10   3  -6   77.39   15.80
  10   3  -6   56.49   16.80
 -10  -3   6   56.49   16.70
  10  -3  -6  104.59   24.90
  10  -3  -6   62.19   17.90
 -10  -3   6   76.59   25.90
 -10   3   5   88.89   23.50
 -10   3   5   96.89   16.60
  10   3  -5  121.09   19.30
  10   3  -5   93.79   15.80
  10   3  -5   98.69   31.40
 -10   3   5   94.49   15.90
  10   3  -5  109.89   21.00
 -10   3   5   85.79   19.50
 -10   3   5  106.69   14.40
  10   3  -5  107.79   20.10
  10  -3  -5  127.39   21.40
  10  -3  -5  144.19   34.70
 -10  -3   5  103.89   25.10
  10  -3  -5   87.99   23.10
 -10  -3   5  138.39   19.30
 -10   3   4  504.15   31.50
  10   3  -4  513.55   38.20
  10   3  -4  566.84   34.90
  10   3  -4  520.45   40.70
  10   3  -4  483.45   42.80
 -10   3   4  372.66   33.80
  10   3  -4  512.15   50.69
 -10   3   4  484.95   44.60
  10   3  -4  390.36   36.50
 -10   3   4  480.45   32.40
 -10   3   4  453.85   39.20
 -10  -3   4  579.94   36.20
  10  -3  -4  423.66   32.60
 -10  -3   4  566.94   37.30
 -10  -3   4  479.15   31.90
  10  -3  -4  406.96   42.70
  10  -3  -4  444.46   37.00
 -10  -3   4  455.65   49.00
 -10   3   3  307.77   26.70
  10   3  -3  299.77   28.50
  10   3  -3  328.87   29.00
  10   3  -3  304.77   31.30
  10   3  -3  386.36   43.50
 -10   3   3  318.47   36.20
  10   3  -3  312.27   26.50
  10   3  -3  276.37   33.40
 -10   3   3  321.47   23.60
 -10   3   3  341.17   32.90
 -10   3   3  337.57   24.40
  10  -3  -3  331.67   36.00
 -10  -3   3  326.67   26.70
  10  -3  -3  262.77   40.50
  10  -3  -3  296.37   27.70
 -10  -3   3  251.97   34.20
 -10  -3   3  326.27   24.30
  10  -3  -3  329.57   25.40
 -10  -3   3  319.27   28.20
  10   3  -2  483.55   35.40
  10   3  -2  572.74   38.00
 -10   3   2  519.25   35.30
  10   3  -2  557.94   49.20
  10   3  -2  499.75   39.70
 -10   3   2  528.45   32.20
 -10   3   2  456.55   41.80
  10   3  -2  422.46   56.99
 -10   3   2  549.25   47.10
  10   3  -2  555.64   37.00
 -10   3   2  539.15   34.10
  10  -3  -2  523.35   35.20
 -10  -3   2  559.64   36.80
 -10  -3   2  566.74   38.60
 -10  -3   2  411.26   41.00
  10  -3  -2  572.44   51.59
  10  -3  -2  489.55   34.70
  10  -3  -2  626.44   37.60
  10  -3  -2  467.85   42.70
 -10   3   1   35.30   20.30
  10   3  -1    8.70   20.00
  10   3  -1   31.80   16.10
  10   3  -1   39.10    9.90
  10   3  -1   20.60   12.00
  10   3  -1   12.60    7.40
 -10   3   1   35.80   10.10
 -10   3   1   12.80   13.80
  10   3  -1   -0.90    9.60
 -10   3   1   22.60    7.90
  10  -3  -1   12.50   18.40
  10  -3  -1   26.40    9.20
 -10  -3   1   -4.70   14.50
 -10  -3   1   34.90    8.20
  10  -3  -1    8.70   17.00
 -10  -3   1   33.50   11.00
  10  -3  -1   40.90   11.00
  10  -3  -1   25.20    9.70
  10   3   0  -10.90    7.60
  10   3   0   -3.60    7.10
  10   3   0   -0.70    7.90
 -10   3   0   15.10   23.60
  10   3   0   -6.20   17.80
 -10   3   0    3.50    6.60
  10   3   0   37.10   16.10
 -10   3   0  -16.80   10.80
  10   3   0   -7.00    9.50
 -10   3   0   13.60    6.60
 -10   3   0   11.80    8.80
  10  -3   0    4.20   11.60
 -10  -3   0   -0.40   16.30
  10  -3   0  -14.50   15.50
 -10  -3   0    4.90   14.00
  10  -3   0    1.70    6.60
 -10  -3   0    6.70    6.70
  10  -3   0    0.80    8.20
  10  -3   0    3.90   10.20
  10  -3   0   12.00   17.90
 -10  -3   0    2.00   15.00
 -10   3  -1   23.50   11.70
  10   3   1   40.10   10.10
 -10   3  -1   17.60    8.40
 -10   3  -1   13.30   40.70
  10   3   1   45.50   17.10
  10   3   1   50.19   11.40
 -10   3  -1   31.70   13.50
 -10   3  -1   32.10    9.00
  10   3   1   31.40    9.70
  10  -3   1   34.20    9.30
  10  -3   1   53.09   19.10
 -10  -3  -1    7.10   17.40
  10  -3   1   56.49   20.50
 -10  -3  -1   23.30   10.00
 -10  -3  -1   16.10   12.10
 -10  -3  -1   38.00    9.70
  10  -3   1   35.80   13.80
  10  -3   1   22.90   12.50
  10  -3   1    8.70    7.30
 -10   3  -2  190.58   23.00
  10   3   2  184.98   26.70
  10   3   2  204.48   22.00
  10   3   2  131.79   22.90
 -10   3  -2  170.58   19.80
  10   3   2  174.48   20.10
 -10   3  -2  176.98   56.59
 -10   3  -2  128.89   20.20
  10   3   2  210.98   18.40
  10  -3   2  187.28   16.60
 -10  -3  -2  120.69   41.00
 -10  -3  -2  196.68   18.60
  10  -3   2  179.68   18.30
  10  -3   2  132.99   20.50
  10  -3   2  133.29   27.80
  10  -3   2  197.58   27.70
  10   3   3   80.29   16.70
 -10   3  -3  144.39   22.00
  10   3   3   79.59   14.90
 -10   3  -3   90.49   16.90
  10   3   3   69.69   21.90
 -10   3  -3   77.29   14.20
 -10   3  -3  107.89   33.00
  10   3   3  115.89   13.90
  10  -3   3   93.49   27.40
  10  -3   3   68.59   18.70
 -10  -3  -3  141.89   16.50
  10  -3   3   76.49   19.80
  10  -3   3  121.49   24.50
  10  -3   3  108.69   13.20
 -10  -3  -3   84.69   24.70
  10   3   4  272.37   20.70
 -10   3  -4  279.77   47.50
 -10   3  -4  251.37   31.20
 -10   3  -4  221.48   22.50
  10   3   4  231.48   30.20
 -10   3  -4  236.78   26.50
  10   3   4  276.57   29.60
  10  -3   4  220.18   23.00
  10  -3   4  314.27   36.00
 -10  -3  -4  258.97   26.10
 -10  -3  -4  265.67   36.40
  10  -3   4  198.08   35.80
  10  -3   4  255.17   18.40
  10  -3   4  274.07   34.40
 -10  -3  -4  225.48   20.90
  10   3   5   92.99   12.60
 -10   3  -5   97.99   14.50
  10   3   5   89.99   14.80
  10   3   5   98.19   25.70
  10   3   5   84.59   20.70
 -10   3  -5  102.69   18.20
 -10   3  -5   90.59   36.70
 -10   3  -5  133.49   23.50
  10  -3   5  102.99   11.70
  10  -3   5   91.99   30.70
  10  -3   5   95.79   15.30
  10  -3   5   64.79   31.60
 -10  -3  -5   61.79   12.50
 -10  -3  -5   71.99   29.10
 -10  -3  -5   88.89   18.30
 -10   3  -6   53.79   13.60
  10   3   6   91.39   22.80
 -10   3  -6   59.69   16.50
  10   3   6    9.80   27.00
 -10   3  -6  103.79   43.00
  10   3   6    9.90   19.80
  10   3   6   36.60   11.50
  10  -3   6   52.49   11.30
  10  -3   6   47.60   12.80
 -10  -3  -6  100.69   33.10
 -10  -3  -6   64.99   24.50
  10  -3   6   63.39   31.20
  10   4  -6   91.89   18.80
 -10   4   6   70.99   22.60
 -10   4   6   65.19   16.90
  10   4  -6   78.89   19.80
  10   4  -6   44.90   22.70
 -10   4   6   84.19   16.20
 -10   4   6   62.99   18.00
  10   4  -6   50.09   38.20
 -10  -4   6   44.10   34.20
  10  -4  -6   54.39   20.60
 -10  -4   6   83.59   20.10
 -10   4   5  -13.80   18.40
 -10   4   5  -11.80   11.40
  10   4  -5  -16.20   14.50
  10   4  -5    9.10   14.30
  10   4  -5   11.80   17.10
 -10   4   5   -0.80   11.70
 -10   4   5    2.20   14.60
  10   4  -5    6.00   31.90
 -10   4   5  -30.90   28.90
  10  -4  -5   11.60   15.70
  10  -4  -5   -9.70   32.90
 -10  -4   5   -5.80   24.00
 -10  -4   5    3.50   15.80
  10   4  -4   13.70   17.40
  10   4  -4    5.40   16.90
  10   4  -4   16.60   14.60
  10   4  -4    0.00   12.70
 -10   4   4    4.70   10.00
 -10   4   4    5.50   10.70
 -10   4   4   24.10   25.10
 -10   4   4   -4.70   11.80
 -10   4   4    9.80   18.90
  10   4  -4  -24.60   26.40
  10  -4  -4  -43.80   28.60
 -10  -4   4  -11.10   13.70
  10  -4  -4  -12.00   14.80
 -10  -4   4    7.80   21.70
  10   4  -3    0.70   12.00
  10   4  -3   -2.00   12.30
  10   4  -3   -1.10   14.20
 -10   4   3    9.40   10.70
 -10   4   3   25.80   19.90
  10   4  -3  -15.80   25.10
 -10   4   3  -18.40    9.50
  10   4  -3   22.40   17.00
 -10   4   3   13.30   26.80
 -10   4   3    6.30   10.80
 -10  -4   3    2.80   12.80
  10  -4  -3   -9.30   13.10
 -10  -4   3   -9.20   12.30
  10   4  -2  309.47   27.60
  10   4  -2  345.27   29.60
  10   4  -2  284.57   39.20
 -10   4   2  372.56   27.90
 -10   4   2  301.57   23.80
  10   4  -2  274.87   36.20
 -10   4   2  289.27   34.90
  10   4  -2  274.27   33.20
  10   4  -2  313.87   29.00
 -10   4   2  289.87   26.60
 -10   4   2  383.26   49.80
 -10  -4   2  320.97   37.60
  10  -4  -2  293.47   42.50
 -10  -4   2  310.87   29.50
 -10  -4   2  354.86   32.70
 -10  -4   2  272.67   23.20
  10  -4  -2  308.87   28.30
  10   4  -1    9.60    9.60
  10   4  -1   15.20   10.20
  10   4  -1   14.60   11.50
 -10   4   1   -7.50   23.20
  10   4  -1    3.30   13.60
 -10   4   1   15.50    8.70
 -10   4   1   23.20   12.20
  10   4  -1   26.90   18.70
 -10   4   1   23.70   15.90
 -10   4   1   17.90    7.30
  10   4  -1   14.80   22.90
 -10  -4   1   30.70   16.10
 -10  -4   1    8.20   11.60
  10  -4  -1   12.70   10.60
  10  -4  -1   -4.80   21.50
 -10  -4   1   12.80    8.80
 -10  -4   1    3.60   18.00
  10   4   0  453.65   32.30
 -10   4   0  417.16   52.69
  10   4   0  456.55   31.50
  10   4   0  393.66   38.70
 -10   4   0  458.85   39.10
  10   4   0  516.45   34.40
  10   4   0  496.85   47.20
 -10   4   0  446.46   32.40
 -10   4   0  411.26   36.50
  10  -4   0  512.35   35.90
 -10  -4   0  558.84   43.00
 -10  -4   0  486.55   34.30
  10  -4   0  485.05   32.90
  10  -4   0  534.25   48.70
 -10  -4   0  435.56   39.50
 -10   4  -1   74.89   13.60
  10   4   1  106.79   22.60
  10   4   1   85.19   13.90
  10   4   1   97.99   15.30
 -10   4  -1   97.99   19.10
 -10   4  -1  130.49   35.90
 -10   4  -1   49.40   17.40
  10   4   1  102.19   20.20
  10   4   1   96.49   15.60
  10   4   1   75.59   24.40
  10  -4   1  105.79   19.70
  10  -4   1  150.58   17.00
 -10  -4  -1   95.19   23.60
  10  -4   1  130.59   29.40
  10   4   2  152.58   22.50
 -10   4  -2  187.08   25.50
  10   4   2  158.08   26.00
  10   4   2  119.89   18.30
 -10   4  -2  187.38   24.00
  10   4   2  173.28   22.10
  10   4   2   75.79   24.30
 -10   4  -2  134.39   19.30
 -10   4  -2  243.08   42.10
  10  -4   2  208.38   20.40
  10  -4   2  127.69   32.20
  10  -4   2  140.29   29.00
 -10  -4  -2  164.18   28.60
  10   4   3   26.20   22.00
  10   4   3    4.10   10.00
 -10   4  -3    2.70   11.30
  10   4   3    1.80   12.40
 -10   4  -3   15.30   14.50
 -10   4  -3   52.79   20.00
  10   4   3  -11.50   14.60
 -10   4  -3   24.10   34.20
 -10  -4  -3   -1.50   22.60
  10  -4   3   23.00   23.80
  10  -4   3  -12.90   22.30
  10  -4   3   40.80   29.10
 -10   4  -4    9.20   26.50
 -10   4  -4   -3.60   14.50
  10   4   4   21.20   16.80
  10   4   4    4.00   22.30
  10   4   4  -14.00   11.90
 -10   4  -4    0.50   19.30
  10  -4   4   17.80   24.10
  10  -4   4  -14.70   11.90
 -10  -4  -4  -38.70   24.30
 -10   4  -5   11.50   41.90
 -10   4  -5    3.00   24.70
 -10   4  -5   16.80   11.20
 -10   4  -5    2.00   19.10
  10   4   5   -0.20   11.30
  10   4   5    4.30    9.60
  10  -4   5    5.80   32.50
  10  -4   5    2.70   12.60
 -10  -4  -5  -14.40   31.50
  10   5  -3  113.79   26.70
 -10   5   3  186.28   22.50
 -10   5   3  179.48   23.80
  10   5  -3  210.28   40.20
 -10   5   3  112.99   37.50
  10   5  -3  100.29   21.70
  10   5  -3  158.38   22.70
  10   5  -3   96.19   21.50
 -10  -5   3  195.88   33.60
 -10  -5   3  150.28   23.00
  10  -5  -3  160.58   25.70
  10   5  -2    9.10   14.60
 -10   5   2   10.80   17.80
 -10   5   2   -7.50   13.10
  10   5  -2    9.40   19.60
  10   5  -2   13.50   13.90
  10   5  -2   16.60   29.20
  10   5  -2   41.80   16.50
 -10   5   2   45.90   28.20
 -10  -5   2   20.30   16.20
 -10  -5   2   33.80   24.60
  10  -5  -2   29.60   16.60
 -10   5   1   21.40   19.10
 -10   5   1   41.40   22.80
  10   5  -1   29.30   15.00
 -10   5   1   30.80   16.00
  10   5  -1   26.30   20.10
  10   5  -1   31.90   14.60
 -10  -5   1   58.29   24.30
  10  -5  -1   33.20   15.20
  10   5   0   43.40   25.50
 -10   5   0   13.30   17.90
 -10   5   0   12.30   12.20
  10   5   0   48.00   21.30
 -10   5   0   10.90   19.90
  10   5   0   12.40   11.90
  10  -5   0   53.59   14.80
 -10  -5   0   -6.00   36.70
 -10   5  -1   -2.90   10.40
  10   5   1    5.40   13.20
  10   5   1    3.70   23.60
 -10   5  -1    5.40   16.70
  10   5   1   39.90   26.90
 -10   5  -1    4.70   20.70
  10   5   1   17.40   20.90
 -10  -5  -1   -4.10   22.70
  10  -5   1   -5.90   11.80
  10  -5   1   36.70   21.90
  10   5   2    3.80   24.70
 -10   5  -2   23.60   18.40
  10   5   2   26.90   21.00
  10   5   2   45.50   27.90
 -10   5  -2   63.09   25.80
  10   5   2   53.39   23.20
 -10   5  -2   34.30   13.80
  10  -5   2   26.60   13.00
  10  -5   2   28.00   23.00
 -10  -5  -2   54.19   23.10
  11   0  -8  170.08   48.30
 -11   0   8  289.97   44.70
 -11   0   8  273.77   33.40
  11   0  -8  252.07   33.50
  11   0  -7    3.20   32.40
 -11   0   7  -33.70   39.00
  11   0  -7  -13.50   14.50
  11   0  -7   -3.90   15.00
  11   0  -7   23.20   15.20
 -11   0   7  -14.90   11.80
  11   0  -6  712.63   53.29
  11   0  -6  765.02   57.29
  11   0  -6  746.23   48.60
  11   0  -6  843.82   51.09
 -11   0   6  786.82   68.99
  11   0  -6  812.22   55.49
 -11   0   6  702.63   46.10
 -11   0   6  727.33   51.29
  11   0  -5   -1.70   10.90
 -11   0   5    8.70    9.80
  11   0  -5    9.90   16.30
  11   0  -5    5.80   22.70
  11   0  -5   16.20   20.00
 -11   0   5   -3.40    8.20
  11   0  -5   -7.30   11.00
 -11   0   5    3.10    9.90
  11   0  -5    2.80   11.50
 -11   0   5    2.90   16.80
 -11   0   4  181.88   18.90
  11   0  -4  194.98   23.80
 -11   0   4  182.48   21.50
  11   0  -4  154.88   20.50
 -11   0   4  149.39   26.10
  11   0  -4  190.28   24.70
  11   0  -4  148.19   21.30
 -11   0   4  205.38   29.10
  11   0  -4  185.78   22.50
  11   0  -4  144.29   30.10
 -11   0   3   -3.80    7.30
 -11   0   3  -14.70   14.20
  11   0  -3  -13.70    8.80
  11   0  -3   -1.60    9.00
 -11   0   3   -5.20    8.60
  11   0  -3  -12.10    8.70
  11   0  -3   -5.40    9.60
  11   0  -3   -8.80   12.20
 -11   0   3   -7.20    8.30
  11   0  -3    4.00   20.20
 -11   0   2   34.00    9.50
 -11   0   2   12.90   16.20
  11   0  -2   24.60    9.90
  11   0  -2   19.40   12.40
  11   0  -2   33.40   21.20
 -11   0   2   14.40    6.70
  11   0  -2   19.10    8.20
  11   0  -2   18.20   10.00
 -11   0   2   13.00    7.60
  11   0  -1    8.10    6.70
 -11   0   1    9.60   14.30
 -11   0   1    1.20    6.30
  11   0  -1  -10.70   14.30
 -11   0   1    0.90    5.70
 -11   0   1    5.30    6.10
  11   0  -1  -13.00   10.80
  11   0  -1   -4.90    8.00
  11   0  -1    3.90    6.80
  11   0   0  851.61   53.49
  11   0   0  816.52   59.89
  11   0   0  846.72   49.80
 -11   0   0  959.40   62.29
  11   0   0  815.62   48.90
  11   0   0  922.11   49.90
 -11   0   0  819.12   49.40
 -11   0   0  873.71   49.40
 -11   0   0  862.41   49.90
  11   0   1   -1.30    5.80
 -11   0  -1   -4.40    5.80
 -11   0  -1   -2.70    6.70
  11   0   1  -31.20   14.60
 -11   0  -1    5.60   17.60
  11   0   1    2.00    8.10
 -11   0  -1  -11.40   15.90
 -11   0  -1    8.00    8.60
  11   0   1    0.00    5.10
  11   0   1   -7.50   11.20
 -11   0  -2 1024.40   58.99
 -11   0  -2  987.80   60.49
  11   0   2  986.60   57.69
 -11   0  -2 1030.20   60.69
 -11   0  -2 1045.90   62.29
  11   0   2 1066.69   70.49
  11   0   2 1152.38   62.49
  11   0   2 1128.39   63.79
 -11   0  -2  987.60   74.29
  11   0   3    5.50   13.80
 -11   0  -3    6.20    8.50
  11   0   3    1.00    7.70
 -11   0  -3    4.50   12.20
 -11   0  -3    2.60   10.70
  11   0   3   -2.60    6.10
  11   0   3   -1.90   12.00
  11   0   3   24.10   15.70
  11   0   3  -34.80   18.50
 -11   0  -3   -7.20   21.40
  11   0   4  299.37   31.00
  11   0   4  209.78   21.60
 -11   0  -4  210.98   23.30
 -11   0  -4  210.08   25.70
 -11   0  -4  220.68   39.40
  11   0   4  176.38   24.40
 -11   0  -4  270.77   25.20
  11   0   4  210.58   29.90
  11   0   4  151.18   29.90
  11   0   4  221.08   21.40
 -11   0  -5   24.50   31.70
  11   0   5  -35.90   24.20
 -11   0  -5  -12.50   11.90
  11   0   5   13.00    9.40
  11   0   5  -14.60    8.40
  11   0   5    3.90   18.70
  11   0   5    1.90   18.00
  11   0   6    3.70    9.00
  11   0   6  -26.50   26.20
 -11   0  -6    6.90    9.90
 -11   0  -6  -50.99   36.10
  11   0   6   31.40   25.10
  11   0   6    5.40    9.70
 -11   0  -7    2.30   11.30
  11   0   7   -1.50   31.90
 -11   0  -7  -46.40   41.40
  11   0   7   16.80   10.70
  11   0   7  -22.00    9.50
  11   0   7    8.70   28.20
 -11   1   8   50.49   17.70
  11   1  -8   76.79   21.70
  11   1  -8    4.20   40.00
 -11   1   8   61.79   31.30
 -11  -1   8   60.19   19.50
 -11  -1   8   44.60   33.10
  11  -1  -8   65.09   42.10
  11  -1  -8   57.69   21.60
 -11   1   7   41.10   26.60
  11   1  -7   -3.30   15.20
 -11   1   7    9.20   12.90
 -11   1   7   27.50   12.40
  11   1  -7   19.00   19.40
  11   1  -7   24.20   16.90
  11   1  -7  -31.30   33.40
 -11  -1   7    1.90   26.90
  11  -1  -7   52.49   34.90
 -11  -1   7    7.20   14.30
  11  -1  -7   44.40   18.40
  11   1  -6    5.80   12.30
  11   1  -6   20.00   29.90
 -11   1   6   -8.90   10.10
 -11   1   6   -3.50   11.60
  11   1  -6    4.20   13.90
 -11   1   6   12.70   12.50
 -11   1   6  -17.10   24.40
  11   1  -6   -0.60   14.80
  11   1  -6   29.10   14.50
 -11  -1   6    1.20   11.50
  11  -1  -6   -5.60   13.60
  11  -1  -6   10.70   17.90
  11  -1  -6   -6.50   12.50
 -11  -1   6    9.10   23.00
  11  -1  -6   -6.90   29.00
  11  -1  -6   21.00   12.50
  11   1  -5   59.19   16.90
 -11   1   5   74.49   25.60
  11   1  -5   88.99   17.40
  11   1  -5   82.09   23.80
  11   1  -5  135.49   22.10
  11   1  -5   88.69   14.70
 -11   1   5   98.79   15.00
 -11   1   5   65.79   14.30
 -11   1   5   98.79   15.70
  11   1  -5   76.29   27.70
  11  -1  -5  105.29   17.70
  11  -1  -5  111.09   19.80
 -11  -1   5   93.09   17.60
 -11  -1   5   95.49   16.90
  11  -1  -5  118.49   16.60
  11  -1  -5  106.79   20.50
  11  -1  -5   85.29   31.00
  11  -1  -5   84.39   17.50
 -11  -1   5   77.99   12.30
 -11  -1   5   92.79   26.30
  11   1  -4  368.06   27.30
  11   1  -4  287.67   32.90
 -11   1   4  248.88   24.30
  11   1  -4  312.07   28.90
 -11   1   4  225.68   26.10
  11   1  -4  246.98   31.30
  11   1  -4  277.17   28.40
 -11   1   4  308.47   24.70
  11   1  -4  264.67   42.20
 -11  -1   4  281.37   27.20
  11  -1  -4  305.37   29.10
  11  -1  -4  360.36   32.00
 -11  -1   4  329.67   24.30
  11  -1  -4  294.87   25.20
 -11  -1   4  256.27   25.80
 -11  -1   4  318.27   38.40
  11  -1  -4  293.67   29.20
  11  -1  -4  194.88   26.20
  11   1  -3  252.67   42.10
  11   1  -3  299.07   29.20
 -11   1   3  423.26   40.80
 -11   1   3  436.16   27.80
  11   1  -3  463.65   31.80
 -11   1   3  350.96   27.60
  11   1  -3  347.57   29.40
 -11   1   3  408.96   29.80
 -11  -1   3  351.96   38.10
 -11  -1   3  339.57   29.60
 -11  -1   3  306.87   38.20
  11  -1  -3  392.16   27.40
  11  -1  -3  316.57   32.40
  11  -1  -3  281.17   39.90
  11  -1  -3  422.56   28.70
  11   1  -2  523.75   38.00
 -11   1   2  555.34   47.10
 -11   1   2  586.04   35.00
 -11   1   2  548.35   35.00
  11   1  -2  629.84   38.10
  11   1  -2  532.75   35.90
  11   1  -2  501.45   48.30
  11   1  -2  561.34   52.39
 -11   1   2  546.55   40.30
  11   1  -2  606.34   43.70
 -11   1   2  572.84   37.30
  11  -1  -2  595.34   41.80
 -11  -1   2  569.54   38.00
  11  -1  -2  610.24   38.60
  11  -1  -2  518.65   40.10
 -11  -1   2  499.45   34.40
 -11  -1   2  541.95   35.60
 -11  -1   2  562.04   46.20
  11  -1  -2  535.25   36.00
  11  -1  -2  634.74   51.89
  11   1  -1  644.54   40.50
 -11   1   1  725.13   53.79
 -11   1   1  597.64   39.10
 -11   1   1  679.83   45.60
  11   1  -1  695.23   42.70
  11   1  -1  492.15   53.69
  11   1  -1  723.53   42.10
 -11   1   1  658.03   40.10
  11   1  -1  712.93   46.80
  11  -1  -1  634.74   41.00
 -11  -1   1  735.93   43.20
  11  -1  -1  760.82   42.60
 -11  -1   1  657.33   41.40
 -11  -1   1  689.13   58.39
  11  -1  -1  755.82   47.80
 -11  -1   1  594.94   42.50
  11  -1  -1  765.32   53.79
  11  -1  -1  664.73   42.60
 -11   1   0  106.99   17.80
  11   1   0  120.79   26.30
  11   1   0  104.29   13.50
 -11   1   0  199.78   29.80
  11   1   0   97.99   17.10
  11   1   0  134.99   16.10
 -11   1   0  114.89   16.50
 -11   1   0  103.99   14.20
  11   1   0  134.19   14.80
 -11   1   0  133.99   15.40
 -11  -1   0  128.09   15.60
 -11  -1   0  143.99   17.40
 -11  -1   0  102.89   21.60
  11  -1   0  136.69   20.50
  11  -1   0  126.29   15.30
  11  -1   0  142.69   16.00
  11  -1   0  118.69   22.60
  11   1   1   67.59   10.40
 -11   1  -1   38.30   10.20
  11   1   1   39.40   12.80
 -11   1  -1   48.60   14.40
 -11   1  -1   38.60   13.40
 -11   1  -1   43.50   18.60
  11   1   1   78.79   20.60
  11   1   1   51.09   11.40
 -11   1  -1   52.59   10.90
  11   1   1   30.30    7.80
 -11  -1  -1   56.79   10.80
  11  -1   1   43.30    8.90
  11  -1   1   50.79   11.90
 -11  -1  -1   48.60   11.60
  11  -1   1   63.09   10.10
  11  -1   1   30.50   17.10
  11  -1   1   36.40   16.20
 -11  -1  -1   52.79   10.90
 -11  -1  -1   56.29   19.00
 -11   1  -2    9.30   22.20
  11   1   2  -24.60   16.10
 -11   1  -2   21.90   12.10
  11   1   2   -2.00    9.90
  11   1   2    4.30    7.30
 -11   1  -2    3.10    8.70
 -11   1  -2   -1.10    8.40
  11   1   2    5.50    5.90
  11   1   2    2.20   11.60
 -11   1  -2    3.10    9.70
  11  -1   2    8.20    6.70
 -11  -1  -2   14.30   10.30
 -11  -1  -2   -9.80   18.90
  11  -1   2    2.90   14.80
 -11  -1  -2    5.40   10.40
  11  -1   2    9.10   11.60
  11  -1   2    8.80   19.10
  11  -1   2   13.10   15.70
  11  -1   2   10.20    6.80
 -11  -1  -2   14.80    7.30
  11   1   3   55.99   11.90
  11   1   3   53.79   22.10
 -11   1  -3   77.69   16.80
 -11   1  -3   -0.40   25.70
  11   1   3   42.80   15.10
 -11   1  -3   62.09   13.40
  11   1   3   47.10    9.50
  11   1   3   69.89   15.40
  11  -1   3   50.89   19.00
  11  -1   3   75.99   11.10
 -11  -1  -3   72.19   12.10
 -11  -1  -3   48.20   13.20
  11  -1   3   29.30   15.10
 -11  -1  -3   49.99   26.10
  11  -1   3   33.50   21.70
  11  -1   3   53.89   11.70
  11  -1   3   51.39   19.00
  11   1   4  126.09   20.90
 -11   1  -4  125.69   19.90
  11   1   4  101.29   14.30
  11   1   4  104.29   28.00
 -11   1  -4  153.98   19.50
 -11   1  -4  106.59   32.50
  11   1   4   79.09   19.00
 -11   1  -4   97.99   19.20
  11   1   4   99.69   14.80
 -11  -1  -4   92.19   32.40
  11  -1   4   39.20   26.10
  11  -1   4  110.19   23.40
  11  -1   4   99.39   21.90
  11  -1   4  108.79   16.30
 -11  -1  -4  130.59   16.50
  11  -1   4   68.99   22.20
 -11  -1  -4   61.99   16.40
 -11   1  -5   80.09   19.20
  11   1   5   41.90   23.00
 -11   1  -5   99.19   16.00
 -11   1  -5  121.19   35.40
  11   1   5   59.09   27.30
  11   1   5   95.49   15.70
  11   1   5   83.29   13.60
  11  -1   5   76.19   27.60
  11  -1   5   83.09   13.90
  11  -1   5  101.89   23.90
  11  -1   5   91.99   13.70
 -11  -1  -5  141.79   37.10
 -11  -1  -5  101.19   16.30
  11  -1   5   71.29   24.10
  11   1   6  159.48   30.70
 -11   1  -6  260.27   48.80
 -11   1  -6  168.48   24.20
  11   1   6  191.68   21.10
  11   1   6  216.08   38.70
 -11   1  -6  181.48   21.50
  11   1   6  171.88   21.60
 -11  -1  -6  159.28   21.30
  11  -1   6  167.98   35.30
  11  -1   6  140.19   31.20
  11  -1   6  221.38   21.70
 -11  -1  -6  157.88   41.20
  11  -1   6  142.29   31.00
  11  -1   6  194.68   21.10
  11   1   7   55.09   13.50
  11   1   7   77.39   31.50
  11   1   7   34.20   13.80
 -11   1  -7   43.70   47.80
  11   1   7   58.49   34.50
 -11   1  -7   46.70   13.90
  11  -1   7   27.00   31.50
  11  -1   7   32.70   14.80
  11  -1   7   41.90   13.00
 -11  -1  -7   13.20   42.00
 -11  -1  -7   16.10   22.20
  11   2  -7  237.38   33.20
  11   2  -7  253.57   30.00
  11   2  -7  196.78   38.30
  11   2  -7  277.57   50.49
 -11   2   7  248.48   35.90
  11   2  -7  330.17   48.80
 -11   2   7  243.48   28.70
 -11  -2   7  334.27   34.90
  11  -2  -7  361.36   38.50
 -11  -2   7  345.97   43.30
  11  -2  -7  193.18   64.59
 -11   2   6   12.40   23.10
  11   2  -6    5.80   17.80
 -11   2   6   -4.10   12.00
  11   2  -6   12.50   23.70
 -11   2   6   -7.80   22.30
  11   2  -6  -43.90   31.50
  11   2  -6   -8.30   13.90
  11   2  -6   11.30   15.50
 -11   2   6    3.20   12.50
 -11  -2   6    6.70   14.20
  11  -2  -6   20.60   32.60
  11  -2  -6   -1.20   15.90
 -11  -2   6  -17.10   22.20
 -11   2   5  527.15   34.60
 -11   2   5  437.56   35.60
 -11   2   5  418.56   36.30
  11   2  -5  460.85   39.80
  11   2  -5  536.25   41.50
  11   2  -5  612.24   60.69
  11   2  -5  524.95   36.00
 -11   2   5  443.66   49.60
 -11  -2   5  521.05   39.80
 -11  -2   5  584.64   51.49
  11  -2  -5  554.34   44.80
  11  -2  -5  354.66   52.69
  11  -2  -5  417.46   40.40
  11   2  -4  -19.90   18.20
  11   2  -4   -5.00   11.30
  11   2  -4   -4.80   12.90
 -11   2   4   10.10    9.20
  11   2  -4   -5.60   11.70
  11   2  -4   44.20   26.30
 -11   2   4    5.60   14.20
 -11   2   4    5.60    9.20
 -11   2   4  -11.20   18.20
  11   2  -4   -4.50   11.20
 -11   2   4   10.30   10.20
  11  -2  -4    0.30   10.50
  11  -2  -4    7.30   12.60
  11  -2  -4  -19.30   12.90
 -11  -2   4    5.90    9.20
 -11  -2   4    7.60   35.80
  11  -2  -4  -22.90   16.00
 -11  -2   4    2.50   11.10
  11  -2  -4  -13.50   23.20
 -11  -2   4  -13.90   10.90
  11   2  -3   71.69   29.70
  11   2  -3  118.99   20.60
 -11   2   3  155.48   16.80
 -11   2   3  100.19   15.50
  11   2  -3  211.88   23.70
 -11   2   3  102.09   14.80
 -11   2   3  128.19   20.80
  11   2  -3  204.48   26.80
  11   2  -3  108.99   17.80
  11   2  -3  168.48   21.70
 -11  -2   3  174.58   19.90
  11  -2  -3  174.28   22.40
  11  -2  -3  144.59   18.00
  11  -2  -3  188.18   33.20
  11  -2  -3  137.19   16.60
 -11  -2   3  128.69   17.80
  11  -2  -3  143.79   23.20
 -11  -2   3  135.29   26.10
 -11  -2   3  147.49   18.00
  11  -2  -3  148.49   20.30
  11   2  -2    2.70   10.60
  11   2  -2   -1.50    9.50
  11   2  -2  -39.80   20.70
  11   2  -2   -6.90    9.10
  11   2  -2    3.90    9.00
 -11   2   2   -4.00   19.40
 -11   2   2   -3.00    7.40
 -11   2   2   -3.20    7.30
 -11   2   2    1.50    7.50
 -11   2   2    4.40   12.00
 -11  -2   2  -35.90   15.20
 -11  -2   2    5.00    9.70
  11  -2  -2  -27.60   17.80
  11  -2  -2   28.20   11.00
 -11  -2   2   -4.40    8.50
  11  -2  -2  -10.60   12.40
  11  -2  -2   -6.10    8.40
  11  -2  -2    4.50    8.70
 -11  -2   2   15.70    7.40
  11  -2  -2   -7.50   14.70
  11   2  -1  185.58   20.90
  11   2  -1  234.68   20.80
 -11   2   1  269.87   21.30
  11   2  -1  229.98   25.80
 -11   2   1  291.47   33.30
 -11   2   1  249.68   19.10
 -11   2   1  206.68   20.20
  11   2  -1  271.97   24.20
  11   2  -1  185.98   32.60
  11   2  -1  238.48   31.80
 -11   2   1  210.28   26.40
  11  -2  -1  273.77   21.60
  11  -2  -1  305.47   32.60
  11  -2  -1  225.48   26.60
  11  -2  -1  305.57   36.20
 -11  -2   1  213.08   29.10
 -11  -2   1  260.77   25.50
  11  -2  -1  232.98   23.50
 -11  -2   1  218.28   22.80
 -11   2   0   47.20   23.60
  11   2   0    8.20    7.40
 -11   2   0   17.30    7.40
  11   2   0   37.70   11.80
 -11   2   0   17.60   14.00
  11   2   0   25.60   15.90
  11   2   0   29.80   20.40
  11   2   0   20.70    9.30
 -11   2   0   25.50    9.90
 -11   2   0   26.50    7.90
  11  -2   0   19.30    9.20
 -11  -2   0   15.40   17.30
  11  -2   0   34.00    9.00
  11  -2   0   17.00   20.20
  11  -2   0   25.50   13.90
 -11  -2   0   31.50   10.90
 -11  -2   0   23.50   12.50
 -11   2  -1  838.32   59.39
  11   2   1  926.11   52.69
 -11   2  -1  963.10   52.19
  11   2   1  912.81   57.19
 -11   2  -1  946.01   55.19
  11   2   1  869.91   64.59
  11   2   1  879.21   52.29
 -11   2  -1  875.61   53.09
  11   2   1  974.10   53.49
  11  -2   1  837.12   62.79
 -11  -2  -1  962.60   53.29
  11  -2   1  829.52   69.99
 -11  -2  -1  873.41   55.69
  11  -2   1  833.92   64.69
  11  -2   1 1005.90   51.79
  11   2   2   26.10    9.30
  11   2   2   13.00    6.80
 -11   2  -2    7.70   14.40
  11   2   2   31.00   18.70
 -11   2  -2   17.40    9.50
  11   2   2   21.10   12.50
 -11   2  -2   14.50   12.00
  11   2   2   23.60   13.50
 -11  -2  -2    5.80   20.20
  11  -2   2   16.20    8.20
  11  -2   2   28.20   13.90
 -11  -2  -2   10.40    9.90
  11  -2   2   22.80    7.40
 -11  -2  -2   24.00   10.60
  11  -2   2  -11.30   18.20
 -11  -2  -2   15.70    8.40
  11  -2   2    9.60   17.30
  11  -2   2  -12.10   24.50
  11   2   3  271.37   27.30
 -11   2  -3  224.88   24.40
  11   2   3  292.57   29.70
  11   2   3  342.87   37.80
 -11   2  -3  292.97   30.30
  11   2   3  208.38   23.70
  11   2   3  288.07   21.80
 -11   2  -3  282.87   61.99
 -11  -2  -3  319.37   23.30
 -11  -2  -3  146.09   32.50
 -11  -2  -3  212.18   25.10
  11  -2   3  295.87   20.10
  11  -2   3  246.28   24.00
  11  -2   3  315.87   37.80
  11  -2   3  234.28   28.60
  11  -2   3  236.28   31.90
 -11   2  -4   45.60   18.30
  11   2   4    3.70    9.60
 -11   2  -4   -2.60    9.40
  11   2   4  -11.30    6.80
 -11   2  -4  -13.60   33.20
 -11   2  -4   11.80   14.10
  11   2   4  -31.70   20.00
  11   2   4   -5.50   27.20
  11  -2   4   -3.00    9.80
  11  -2   4    6.30   21.30
  11  -2   4    6.00    7.90
  11  -2   4    6.50   18.20
 -11  -2  -4    6.00    9.20
 -11  -2  -4  -42.30   25.10
  11  -2   4   10.10   21.80
  11  -2   4   19.10   28.80
 -11  -2  -4  -14.10   13.90
 -11   2  -5   17.70   15.80
  11   2   5   73.29   23.40
  11   2   5   52.59   26.00
  11   2   5   23.20   10.30
 -11   2  -5   48.60   36.00
 -11   2  -5   11.40    9.80
  11   2   5   29.50   10.20
 -11  -2  -5   31.80   32.60
  11  -2   5   30.90   11.70
  11  -2   5   52.79   27.20
  11  -2   5  -23.70   27.00
 -11  -2  -5   26.60   12.00
  11  -2   5   69.79   11.80
 -11   2  -6  -22.30   16.30
  11   2   6  -17.40   26.40
  11   2   6   41.10   31.70
  11   2   6   11.30   16.10
  11   2   6   -4.00   11.90
 -11   2  -6   22.60   11.50
  11  -2   6   53.99   33.70
  11  -2   6   24.30   29.40
 -11  -2  -6   -1.50   13.40
  11  -2   6   22.30   12.20
 -11  -2  -6   25.50   35.90
  11  -2   6    1.90   10.60
 -11   3   6   11.00   16.30
 -11   3   6   -9.00   27.00
 -11   3   6   -8.80   14.00
 -11   3   6   -5.30   14.50
  11   3  -6  -12.50   14.70
  11   3  -6  -35.10   18.10
  11   3  -6    5.90   34.90
  11   3  -6    0.40   16.10
  11  -3  -6   82.19   38.20
 -11  -3   6    5.50   16.40
 -11  -3   6   33.30   27.50
  11  -3  -6   11.00   19.00
  11   3  -5   49.80   19.50
  11   3  -5   48.90   17.40
 -11   3   5   70.79   17.90
  11   3  -5   51.99   19.80
  11   3  -5  -22.70   33.00
 -11   3   5   45.70   13.70
 -11   3   5   51.29   34.50
 -11   3   5    1.10   17.50
  11   3  -5   37.50   14.90
 -11   3   5   45.90   14.70
 -11  -3   5   77.49   18.30
  11  -3  -5   17.20   17.40
 -11  -3   5  100.29   28.20
  11   3  -4  174.48   21.30
  11   3  -4  173.38   23.30
 -11   3   4  128.19   16.60
  11   3  -4  128.49   21.20
 -11   3   4   97.39   26.20
  11   3  -4  147.19   24.50
  11   3  -4   87.89   34.00
 -11   3   4  115.59   17.40
 -11   3   4  112.69   21.90
  11  -3  -4  103.39   20.10
 -11  -3   4   72.29   26.80
  11  -3  -4   55.29   31.60
  11   3  -3   94.39   18.60
 -11   3   3   83.99   20.80
 -11   3   3   78.79   13.80
 -11   3   3   97.49   16.60
 -11   3   3  154.48   30.10
  11   3  -3  133.29   24.30
 -11   3   3  131.39   16.20
  11   3  -3   55.69   29.60
  11   3  -3   64.89   17.80
  11   3  -3  126.49   20.00
  11  -3  -3  141.09   21.00
 -11  -3   3  122.49   19.10
  11  -3  -3  179.78   34.90
 -11   3   2  530.45   33.00
  11   3  -2  543.15   40.00
  11   3  -2  479.05   41.70
  11   3  -2  500.25   45.60
 -11   3   2  530.75   36.70
 -11   3   2  569.74   36.20
  11   3  -2  563.74   38.70
  11   3  -2  568.14   54.29
 -11   3   2  605.44   53.09
 -11   3   2  493.75   44.80
 -11  -3   2  484.75   46.00
  11  -3  -2  512.35   48.90
 -11  -3   2  535.85   39.80
 -11  -3   2  546.75   34.20
  11  -3  -2  580.04   38.30
 -11  -3   2  579.84   39.70
  11  -3  -2  497.85   37.30
  11  -3  -2  438.66   50.19
  11  -3  -2  558.44   55.49
  11   3  -1  195.18   34.40
  11   3  -1  168.48   22.50
  11   3  -1  217.68   28.60
  11   3  -1  186.18   25.70
  11   3  -1  248.98   21.50
 -11   3   1  192.68   20.30
 -11   3   1  176.78   18.00
  11   3  -1  233.28   22.30
 -11   3   1  176.88   34.60
 -11   3   1  208.18   28.60
 -11   3   1  273.67   23.00
  11  -3  -1  166.88   28.60
 -11  -3   1  230.98   25.00
  11  -3  -1  168.78   22.10
  11  -3  -1  206.48   33.30
 -11  -3   1  232.18   29.80
 -11  -3   1  212.98   26.80
  11  -3  -1  255.57   22.00
  11  -3  -1  210.78   22.70
 -11  -3   1  264.07   19.80
  11   3   0  187.68   34.30
  11   3   0  281.87   23.10
 -11   3   0  218.28   36.10
  11   3   0  290.37   28.90
 -11   3   0  253.07   21.70
 -11   3   0  301.37   32.80
  11   3   0  180.38   35.50
 -11   3   0  238.18   24.90
 -11   3   0  274.97   20.80
  11   3   0  209.28   23.90
  11  -3   0  255.57   23.70
 -11  -3   0  261.07   27.30
 -11  -3   0  174.78   30.30
  11  -3   0  310.67   38.60
 -11  -3   0  270.57   21.40
 -11  -3   0  236.18   25.60
  11  -3   0  221.18   27.40
  11  -3   0  198.18   31.40
  11  -3   0  266.37   22.60
  11  -3   0  230.18   28.80
 -11   3  -1   -8.70   13.30
 -11   3  -1    5.20    7.90
  11   3   1    6.00    9.20
  11   3   1    6.10   11.00
  11   3   1   -6.50    8.40
 -11   3  -1   -3.80   12.10
  11   3   1  -27.70   29.10
 -11   3  -1  -36.90   25.90
  11   3   1   37.30   20.00
 -11  -3  -1   -0.50    9.90
 -11  -3  -1   -3.30   10.10
  11  -3   1  -17.00    9.50
  11  -3   1  -39.10   24.20
  11  -3   1   -1.50   21.40
  11  -3   1   -9.10   15.90
 -11  -3  -1   15.00   16.00
 -11  -3  -1  -20.60   19.60
  11  -3   1  -13.60   16.60
  11   3   2  -14.10   13.20
 -11   3  -2   17.00   14.70
 -11   3  -2   -4.20   14.20
 -11   3  -2   42.70   30.60
  11   3   2  -25.60   20.60
  11   3   2    6.80    9.50
  11   3   2   -3.80    9.30
  11   3   2  -12.40   17.60
 -11   3  -2    4.40    9.80
  11  -3   2    9.30    8.80
  11  -3   2    0.70   19.20
 -11  -3  -2   -7.80    9.90
  11  -3   2   -0.10    9.20
  11  -3   2  -48.30   23.20
 -11  -3  -2    7.40   12.30
 -11   3  -3   89.79   21.60
  11   3   3   86.89   16.10
 -11   3  -3   90.89   40.20
  11   3   3  112.09   14.10
  11   3   3   52.69   17.80
  11   3   3  133.19   26.70
 -11   3  -3   69.99   16.00
  11   3   3  105.39   19.80
 -11   3  -3   81.49   18.90
  11  -3   3   96.79   12.40
  11  -3   3   85.39   15.60
 -11  -3  -3   80.99   28.50
  11  -3   3   25.70   29.20
 -11  -3  -3   60.79   17.10
 -11  -3  -3   91.99   14.70
  11   3   4   81.89   22.20
 -11   3  -4   76.69   15.90
 -11   3  -4  102.29   20.50
 -11   3  -4  132.09   41.20
  11   3   4  123.79   29.10
  11   3   4  126.69   15.20
  11   3   4  100.39   17.80
 -11   3  -4  136.89   25.90
  11  -3   4  183.18   39.30
 -11  -3  -4  106.09   33.80
 -11  -3  -4  131.59   16.30
  11  -3   4  112.09   18.20
  11  -3   4  133.59   15.90
  11  -3   4  106.99   28.50
 -11   3  -5   92.19   18.30
 -11   3  -5   18.00   44.90
  11   3   5   97.09   13.70
 -11   3  -5   60.69   19.20
  11   3   5   41.70   26.10
  11   3   5   75.49   27.90
  11   3   5   69.39   15.40
  11  -3   5   86.89   12.30
  11  -3   5   97.59   37.30
  11  -3   5  109.29   17.00
 -11  -3  -5   76.39   36.90
 -11  -3  -5   75.49   15.00
  11   4  -4   65.79   20.20
  11   4  -4   96.79   23.30
  11   4  -4   72.69   37.60
 -11   4   4   59.19   15.10
 -11   4   4   81.99   16.70
 -11   4   4   74.69   23.80
  11   4  -4   52.49   21.60
 -11   4   4   61.89   17.20
 -11  -4   4   43.70   19.20
  11  -4  -4   49.80   20.00
 -11  -4   4   64.29   29.80
  11   4  -3   21.00   17.10
  11   4  -3   13.00   35.00
 -11   4   3    8.70   21.80
  11   4  -3   -4.30   13.90
 -11   4   3   32.20   11.50
 -11   4   3    2.70   13.30
 -11   4   3   12.90   28.30
  11   4  -3    9.00   15.20
 -11  -4   3   16.40   16.60
  11  -4  -3    0.40   15.50
  11  -4  -3   21.90   32.20
 -11  -4   3  -14.00   36.70
 -11   4   2   15.10   13.70
 -11   4   2    5.80   29.30
 -11   4   2    2.70   10.90
  11   4  -2    5.90   13.60
  11   4  -2   26.90   29.00
 -11   4   2    6.30    8.40
  11   4  -2   -3.10   13.80
  11   4  -2   19.10   19.20
 -11   4   2  -21.20   20.80
  11   4  -2   27.00   13.90
 -11  -4   2    9.30   22.90
 -11  -4   2    6.40   14.80
  11  -4  -2  -11.10   12.80
  11  -4  -2   15.60   28.50
  11   4  -1    7.80   12.40
 -11   4   1   -5.10   14.20
  11   4  -1   31.50   18.40
 -11   4   1   -1.30    9.50
 -11   4   1    5.20   18.80
 -11   4   1    2.10    9.00
  11   4  -1    5.90   13.80
  11   4  -1    2.80   27.20
  11   4  -1   -4.80   10.90
 -11   4   1   24.30   31.00
  11  -4  -1   12.80   29.50
  11  -4  -1   19.90   11.90
 -11  -4   1   31.70   22.20
 -11  -4   1  -15.10   14.40
 -11   4   0  215.18   23.30
  11   4   0  314.97   40.10
  11   4   0  307.27   25.20
  11   4   0  245.98   37.90
 -11   4   0  230.28   51.59
  11   4   0  284.07   28.30
 -11   4   0  170.68   25.30
  11   4   0  262.57   24.40
  11   4   0  167.18   27.30
 -11   4   0  185.78   28.90
  11  -4   0  275.77   24.80
 -11  -4   0  261.77   23.90
 -11  -4   0  283.97   34.50
  11  -4   0  232.48   31.50
 -11  -4   0  314.57   30.50
 -11   4  -1   17.40   56.89
 -11   4  -1   -5.00   15.90
  11   4   1  -18.30   15.00
 -11   4  -1   -2.50   17.50
 -11   4  -1   -3.40    9.30
  11   4   1  -13.10   13.10
  11   4   1    9.00   25.50
  11   4   1    5.30   26.80
  11   4   1   30.60   13.40
  11   4   1  -12.20   10.30
 -11  -4  -1   13.00   24.80
 -11  -4  -1   -4.90   12.80
  11  -4   1  -21.00   16.00
 -11   4  -2  291.97   48.60
  11   4   2  320.17   36.20
  11   4   2  145.29   34.10
  11   4   2  351.56   63.09
 -11   4  -2  331.17   64.09
  11   4   2  273.47   27.70
 -11   4  -2  342.17   43.30
  11   4   2  264.07   31.20
 -11   4  -2  220.88   32.40
  11   4   2  307.17   27.30
  11  -4   2  344.57   41.60
  11  -4   2  249.08   49.20
 -11  -4  -2  222.88   36.50
  11  -4   2  282.87   25.80
 -11  -4  -2  257.37   29.50
  11   4   3   78.39   28.20
  11   4   3   24.20   18.80
 -11   4  -3   27.00   15.60
  11   4   3   49.70   15.50
  11   4   3   33.20   13.60
 -11   4  -3   98.59   47.00
 -11   4  -3   53.19   23.20
 -11   4  -3   15.60   24.00
  11  -4   3   52.19   14.70
  11  -4   3   69.29   38.30
 -11  -4  -3   29.30   30.00
  11  -4   3   43.60   27.20
  12   0  -7   -3.20   19.70
 -12   0   7   31.10   16.70
  12   0  -7  -10.80   18.90
 -12   0   7    1.60   37.60
  12   0  -7   48.40   43.20
  12   0  -7  -10.70   18.10
 -12   0   6  375.06   36.40
  12   0  -6  311.57   54.89
 -12   0   6  361.46   48.90
  12   0  -6  368.76   42.90
  12   0  -6  436.76   41.10
 -12   0   5   -4.80   12.10
  12   0  -5   24.80   31.40
  12   0  -5    7.20   17.10
 -12   0   5    4.60   14.40
  12   0  -5   -8.40   15.30
  12   0  -5   -0.70   16.30
 -12   0   5   20.10   25.10
  12   0  -5  -12.70   13.80
 -12   0   4  739.23   62.29
  12   0  -4  642.44   64.89
 -12   0   4  763.62   48.80
  12   0  -4  641.14   50.29
  12   0  -4  905.71   54.09
  12   0  -4  755.42   50.09
 -12   0   4  751.92   50.49
 -12   0   4  717.43   47.50
  12   0  -4  708.63   48.90
 -12   0   3   12.10   10.20
 -12   0   3  -11.50   20.00
 -12   0   3  -13.90    8.80
  12   0  -3   15.40   10.80
  12   0  -3   24.00   16.20
 -12   0   3  -13.30    9.90
  12   0  -3   26.20   25.60
  12   0  -3   -6.90   10.80
  12   0  -3   -9.30   10.30
  12   0  -3   13.80   10.70
  12   0  -2  292.87   25.70
 -12   0   2  289.57   25.80
  12   0  -2  249.88   30.30
 -12   0   2  272.27   22.10
 -12   0   2  208.38   32.20
  12   0  -2  274.67   26.10
  12   0  -2  276.87   24.00
  12   0  -2  425.56   45.50
  12   0  -1    2.70    7.80
  12   0  -1   -1.70    8.90
  12   0  -1   -1.50    7.80
  12   0  -1   21.20   21.00
 -12   0   1   10.50   18.70
  12   0  -1  -12.70   13.70
 -12   0   1    4.50    8.60
 -12   0   1    3.70    7.30
 -12   0   0   53.49   11.50
  12   0   0   43.80   21.50
  12   0   0   48.20   11.90
 -12   0   0   43.10   21.70
 -12   0   0   32.40    9.70
  12   0   0   44.20   10.40
  12   0   0   51.39   10.50
 -12   0   0   41.80   10.60
 -12   0  -1   13.70    9.50
 -12   0  -1   -3.50    7.80
  12   0   1   -7.30    6.10
 -12   0  -1   -3.10   10.30
  12   0   1    8.90   19.30
  12   0   1   13.00    8.30
 -12   0  -1   11.80   19.90
  12   0   1   21.00   17.30
  12   0   1   -1.80   10.00
 -12   0  -2  577.44   45.20
 -12   0  -2  463.85   38.90
 -12   0  -2  480.05   37.50
  12   0   2  528.55   50.99
 -12   0  -2  487.75   37.20
  12   0   2  556.64   42.10
  12   0   2  556.64   39.50
  12   0   2  532.95   34.60
 -12   0  -2  630.04   56.59
  12   0   2  581.64   34.90
  12   0   3   11.30    9.10
  12   0   3   -3.70   24.20
  12   0   3   13.50   19.50
 -12   0  -3    2.50   13.30
 -12   0  -3    9.50   29.80
 -12   0  -3   -2.70   10.50
  12   0   3   -4.40   15.40
  12   0   3   19.30   17.30
  12   0   3  -10.30    7.10
 -12   0  -3   -3.40   13.20
  12   0   4  236.78   23.50
 -12   0  -4  240.58   25.80
 -12   0  -4  155.08   42.00
  12   0   4  173.38   28.10
  12   0   4  313.37   25.40
 -12   0  -4  282.57   28.40
  12   0   4  245.58   41.70
  12   0   4  209.68   28.50
  12   0   5   13.10   12.30
  12   0   5    0.40   23.40
  12   0   5  -33.50   27.20
  12   0   5   15.10   28.90
 -12   0  -5  -20.10   13.10
  12   0   5    3.20   11.10
 -12   0  -5  -29.50   37.70
 -12   0  -5   22.00   15.20
  12   0   6   58.09   14.60
  12   0   6   26.00   32.00
 -12   0  -6   30.60   15.40
  12   0   6  -14.20   28.40
 -12   0  -6   19.50   17.80
  12   0   6   72.89   15.30
  12   0   6   40.10   35.80
 -12   0  -6   67.19   49.20
  12   1  -7  142.79   46.80
  12   1  -7   97.29   25.80
 -12   1   7   76.99   21.00
  12   1  -7  153.28   26.50
 -12   1   7   78.79   33.70
  12   1  -7   87.29   25.00
 -12  -1   7  137.69   24.60
  12  -1  -7   92.19   24.00
  12  -1  -7   51.89   45.70
 -12  -1   7  101.29   41.30
  12   1  -6   62.19   20.10
  12   1  -6   30.80   21.40
  12   1  -6   52.39   19.80
  12   1  -6   49.50   20.10
 -12   1   6   42.00   17.10
  12   1  -6   25.40   38.20
 -12   1   6   66.69   30.30
  12  -1  -6   57.29   34.80
  12  -1  -6   49.80   19.90
 -12  -1   6   57.99   18.60
  12  -1  -6   77.39   21.70
 -12  -1   6   71.79   29.50
  12   1  -5    4.90   13.90
  12   1  -5   -4.00   15.00
 -12   1   5    1.40   12.80
  12   1  -5  -12.60   33.80
 -12   1   5    5.00   20.80
  12   1  -5    8.30   15.70
 -12   1   5    4.70   13.70
  12   1  -5  -11.40   14.40
  12  -1  -5   14.40   15.70
  12  -1  -5   -9.10   13.40
  12  -1  -5   66.59   33.90
 -12  -1   5    3.90   25.20
  12  -1  -5   -7.70   15.00
 -12  -1   5   11.50   14.00
  12   1  -4  -12.20   13.90
 -12   1   4    5.50   12.50
 -12   1   4    9.40   22.20
  12   1  -4   -4.00   12.70
  12   1  -4   37.10   14.70
  12   1  -4    9.60   27.40
 -12   1   4   21.10   12.20
  12   1  -4   31.20   12.80
 -12   1   4   12.00   11.80
 -12  -1   4    1.40   13.20
  12  -1  -4   18.20   12.40
 -12  -1   4   40.90   24.70
  12  -1  -4    2.20   15.10
  12  -1  -4   72.49   32.20
  12  -1  -4    4.10   13.00
  12  -1  -4    8.20   13.20
  12   1  -3  319.27   35.00
 -12   1   3  226.08   23.60
 -12   1   3  149.49   47.00
  12   1  -3  182.58   38.20
  12   1  -3  241.98   24.70
 -12   1   3  253.17   23.90
  12   1  -3  217.28   26.00
  12   1  -3  217.98   25.40
  12  -1  -3  193.58   60.69
  12  -1  -3  234.78   22.70
  12  -1  -3  231.28   25.80
 -12  -1   3  281.87   25.10
 -12  -1   3  173.38   35.40
  12  -1  -3  220.58   23.10
  12  -1  -3  210.08   27.00
  12  -1  -3  178.28   26.20
 -12  -1   3  251.17   22.70
 -12  -1   3  180.48   31.10
  12   1  -2  303.67   25.80
  12   1  -2  330.97   34.50
 -12   1   2  302.07   38.90
 -12   1   2  304.87   31.00
  12   1  -2  354.26   45.30
  12   1  -2  244.28   26.30
 -12   1   2  326.87   26.20
  12   1  -2  294.67   26.90
  12   1  -2  273.97   27.20
 -12   1   2  328.37   24.90
 -12  -1   2  328.07   26.30
  12  -1  -2  348.87   33.50
  12  -1  -2  349.37   45.60
  12  -1  -2  310.27   25.90
 -12  -1   2  325.67   40.20
  12  -1  -2  292.87   26.90
 -12  -1   2  320.37   27.70
 -12  -1   2  284.47   23.90
  12  -1  -2  316.17   28.70
  12   1  -1  582.94   53.59
 -12   1   1  471.05   35.60
 -12   1   1  538.05   34.90
  12   1  -1  599.24   37.20
  12   1  -1  500.35   35.60
  12   1  -1  525.35   42.10
 -12   1   1  563.54   50.29
  12   1  -1  558.14   37.70
 -12   1   1  593.74   41.90
 -12   1   1  491.15   38.80
 -12  -1   1  510.75   34.30
  12  -1  -1  603.44   44.10
 -12  -1   1  493.85   36.50
 -12  -1   1  515.65   47.40
  12  -1  -1  575.64   37.40
  12  -1  -1  525.15   36.20
  12  -1  -1  597.24   51.89
 -12  -1   1  629.54   38.70
 -12   1   0  364.96   27.90
 -12   1   0  452.55   44.90
  12   1   0  386.66   28.80
  12   1   0  302.67   48.40
  12   1   0  369.46   28.60
 -12   1   0  392.86   28.50
  12   1   0  406.06   28.20
 -12   1   0  391.96   33.40
 -12  -1   0  397.66   30.70
 -12  -1   0  348.57   41.40
 -12  -1   0  427.66   29.30
  12  -1   0  394.36   27.80
  12  -1   0  411.36   37.10
  12  -1   0  425.96   31.40
  12  -1   0  312.57   39.20
 -12  -1   0  371.56   27.50
  12  -1   0  347.37   32.70
 -12   1  -1  338.47   28.20
  12   1   1  346.57   25.60
  12   1   1  373.86   28.70
 -12   1  -1  349.17   27.60
  12   1   1  314.57   25.60
  12   1   1  374.56   41.50
 -12   1  -1  397.26   33.10
 -12   1  -1  396.56   46.50
  12   1   1  340.47   32.00
 -12   1  -1  348.47   26.60
  12  -1   1  384.66   37.20
 -12  -1  -1  354.36   42.70
  12  -1   1  398.46   36.90
 -12  -1  -1  379.56   27.60
 -12  -1  -1  356.26   27.50
  12  -1   1  333.07   36.40
  12  -1   1  334.47   25.90
 -12  -1  -1  325.47   29.80
  12  -1   1  359.96   42.20
  12  -1   1  301.97   27.90
 -12   1  -2   37.60   14.30
 -12   1  -2   41.30   28.00
  12   1   2   22.60    9.40
  12   1   2   31.10   22.90
 -12   1  -2   23.40    9.30
  12   1   2   14.20    7.90
 -12   1  -2   33.50   13.50
  12   1   2   31.60   14.10
  12   1   2   52.59   15.50
 -12   1  -2    8.30   10.70
 -12  -1  -2   14.20    9.60
  12  -1   2   48.70   29.90
 -12  -1  -2   21.00   10.70
 -12  -1  -2   64.49   25.20
  12  -1   2   54.19   25.60
  12  -1   2   26.90    9.50
  12  -1   2   31.20    9.20
  12  -1   2   24.40   19.70
 -12  -1  -2   29.30   12.20
  12  -1   2   20.10   25.50
 -12   1  -3    9.80   14.00
  12   1   3  -14.50   22.60
 -12   1  -3    2.90   14.90
  12   1   3   22.90   16.90
  12   1   3    7.70    9.90
  12   1   3    0.10   15.90
 -12   1  -3    7.40   10.90
  12   1   3   -6.70    6.90
 -12   1  -3   -9.10   28.70
  12  -1   3    8.90    8.80
  12  -1   3   -1.10   25.20
 -12  -1  -3    2.20    8.90
 -12  -1  -3   24.70   28.40
  12  -1   3    1.70    7.90
  12  -1   3  -13.30   20.10
  12  -1   3   18.10   16.90
  12  -1   3   28.50   21.00
 -12   1  -4   26.00   33.00
 -12   1  -4    7.60   12.00
 -12   1  -4   30.60   16.20
  12   1   4   15.40    9.40
  12   1   4   10.60   19.00
  12   1   4   20.50   12.30
  12   1   4    3.90   26.70
  12   1   4   63.39   22.30
 -12  -1  -4  -17.90   33.20
  12  -1   4   45.40   24.20
  12  -1   4   17.80   11.80
  12  -1   4   10.60    9.50
  12  -1   4    8.70   28.10
 -12  -1  -4   31.50   11.20
  12  -1   4   48.50   21.50
 -12   1  -5   52.09   15.80
  12   1   5   76.49   34.80
  12   1   5   46.90   26.00
  12   1   5   45.10   14.30
  12   1   5   64.49   23.60
 -12   1  -5  130.49   45.70
  12   1   5   48.00   13.60
 -12   1  -5   87.89   19.80
  12  -1   5   38.80   13.60
  12  -1   5   63.59   14.10
 -12  -1  -5   49.80   15.70
 -12  -1  -5   69.49   41.70
  12  -1   5   36.90   27.40
  12  -1   5   35.10   33.30
  12   1   6   44.90   16.20
 -12   1  -6   50.29   51.89
 -12   1  -6   19.20   14.00
  12   1   6   27.10   20.90
  12   1   6   37.90   36.70
 -12   1  -6   38.30   19.00
  12   1   6   46.60   32.70
  12  -1   6   27.80   13.20
 -12  -1  -6   28.50   17.60
  12  -1   6   14.70   35.40
 -12  -1  -6  104.99   49.10
  12  -1   6   53.69   33.50
  12  -1   6   11.40   13.00
  12   2  -6    5.60   17.90
  12   2  -6   -6.60   16.40
 -12   2   6   63.79   48.70
 -12   2   6   13.40   16.60
 -12   2   6  -14.70   15.00
  12   2  -6    4.00   18.50
  12   2  -6  -15.60   39.70
  12   2  -6   -9.90   17.40
 -12  -2   6  -15.70   28.70
 -12  -2   6   13.40   17.90
  12  -2  -6  -17.90   18.50
  12  -2  -6   43.70   39.90
  12   2  -5  482.05   46.90
 -12   2   5  482.95   55.09
 -12   2   5  553.44   39.80
 -12   2   5  586.24   40.30
  12   2  -5  577.64   68.49
  12   2  -5  556.24   46.70
  12   2  -5  508.05   45.40
  12   2  -5  620.34   53.09
 -12  -2   5  593.64   45.50
 -12  -2   5  609.44   58.39
  12   2  -4   10.90   14.90
  12   2  -4   12.20   15.60
  12   2  -4    8.00   14.10
 -12   2   4    6.20   11.50
 -12   2   4    1.80   16.40
  12   2  -4  -15.80   15.30
 -12   2   4   35.30   25.30
 -12   2   4    0.50   10.80
 -12   2   4   11.10   14.40
  12   2  -4   15.90   38.10
  12  -2  -4  -18.80   15.50
  12  -2  -4   19.40   30.10
 -12  -2   4   -7.90   24.70
 -12  -2   4  -24.50   15.90
  12  -2  -4   18.70   14.70
  12   2  -3  202.48   40.40
  12   2  -3  311.57   28.90
  12   2  -3  284.57   29.30
 -12   2   3  333.87   33.00
 -12   2   3  242.38   25.60
 -12   2   3  238.68   35.50
 -12   2   3  294.17   28.00
  12   2  -3  234.98   30.90
 -12   2   3  288.97   25.90
 -12  -2   3  214.78   28.00
  12  -2  -3  267.87   28.90
  12  -2  -3  277.87   40.70
  12  -2  -3  327.57   32.40
 -12  -2   3  245.08   36.90
  12  -2  -3  348.87   24.90
  12  -2  -3  220.78   29.30
 -12   2   2    5.70    9.10
  12   2  -2   22.50   23.40
  12   2  -2    0.90   12.40
 -12   2   2   20.80   15.60
 -12   2   2    9.30    8.30
 -12   2   2   18.30    9.60
  12   2  -2   17.50   12.00
  12   2  -2   21.60   11.50
 -12   2   2   24.50   31.90
  12   2  -2    5.50    9.60
  12   2  -2   33.10   28.80
  12  -2  -2   29.70   11.90
  12  -2  -2    5.70   11.60
 -12  -2   2   -6.20   10.80
 -12  -2   2   15.30   12.90
  12  -2  -2    5.50   24.00
 -12  -2   2   29.70   21.70
  12  -2  -2    4.50   12.80
  12  -2  -2   34.90   16.20
  12   2  -1   22.50   11.10
 -12   2   1   10.10   10.10
  12   2  -1   24.20   11.30
 -12   2   1   43.90   11.80
  12   2  -1   47.60   12.50
 -12   2   1   33.30   14.70
 -12   2   1   14.40    8.90
  12   2  -1   46.40   26.70
  12   2  -1  -12.80   20.10
  12   2  -1   39.30   13.40
  12  -2  -1   20.00   15.60
  12  -2  -1   21.40   24.50
  12  -2  -1   34.70   13.10
 -12  -2   1   16.10   13.10
 -12  -2   1   38.10   12.40
 -12  -2   1   35.90   19.80
  12  -2  -1   31.30   10.40
  12  -2  -1   29.50   20.50
  12  -2  -1   17.40   11.40
 -12  -2   1   19.10    9.00
 -12   2   0  -14.40   12.30
 -12   2   0    7.00    8.00
  12   2   0   22.60   23.40
  12   2   0   -3.10    9.40
  12   2   0  -21.40   17.50
 -12   2   0    7.80    8.80
  12   2   0   -6.70   10.30
 -12   2   0   13.60   15.10
  12   2   0    7.20    8.00
  12  -2   0   19.70   22.60
 -12  -2   0   10.50    9.10
  12  -2   0   -1.60   11.90
 -12  -2   0    5.40   13.50
  12  -2   0   13.60    8.50
 -12  -2   0    0.00   10.20
  12  -2   0  -18.60   19.50
  12  -2   0    3.00   10.00
 -12  -2   0   17.70   19.80
 -12   2  -1  291.87   23.60
  12   2   1  215.38   22.00
  12   2   1  237.18   33.10
 -12   2  -1  242.58   25.30
 -12   2  -1  245.88   22.00
 -12   2  -1  239.48   30.80
  12   2   1  236.58   24.00
 -12   2  -1  242.78   48.30
  12   2   1  228.08   21.80
  12   2   1  168.28   31.30
  12  -2   1  269.87   38.60
  12  -2   1  226.48   26.10
  12  -2   1  243.68   34.10
 -12  -2  -1  246.58   23.20
  12  -2   1  255.97   22.00
  12  -2   1  141.79   26.30
 -12  -2  -1  195.38   29.20
  12  -2   1  197.28   20.20
 -12  -2  -1  209.28   38.00
 -12  -2  -1  220.88   22.20
 -12   2  -2   11.50   14.00
 -12   2  -2   46.40   36.50
  12   2   2    0.90    8.90
  12   2   2    0.00   13.90
 -12   2  -2   -2.80   17.00
  12   2   2    0.00   21.10
  12   2   2   28.40   16.50
  12   2   2    2.10    8.20
 -12   2  -2   -6.00    9.00
  12  -2   2  -20.40   18.30
  12  -2   2   -6.10   20.90
 -12  -2  -2   -7.00    9.30
  12  -2   2    1.30    7.80
  12  -2   2   -8.20    8.30
  12  -2   2    3.70   25.40
  12  -2   2   33.50   24.70
  12   2   3  593.74   45.50
 -12   2  -3  419.26   89.29
  12   2   3  546.95   36.40
 -12   2  -3  503.15   44.90
 -12   2  -3  540.95   47.70
 -12   2  -3  566.64   40.80
  12   2   3  568.04   40.00
  12   2   3  567.94   44.00
  12   2   3  550.14   52.19
  12  -2   3  576.94   39.10
  12  -2   3  578.64   35.30
  12  -2   3  542.35   53.99
  12  -2   3  643.94   60.19
 -12  -2  -3  609.04   37.80
 -12   2  -4   17.90   19.30
 -12   2  -4    1.00   13.90
  12   2   4    5.80   12.70
  12   2   4   -6.00   18.10
  12   2   4   -1.10   26.40
  12   2   4    3.90    8.90
  12   2   4  -25.00   21.10
  12  -2   4    2.10   12.10
 -12  -2  -4   -0.40   33.00
 -12  -2  -4    3.10   11.10
  12  -2   4   -5.60   31.30
 -12   2  -5   85.99   17.10
  12   2   5   58.99   28.60
  12   2   5   87.29   20.10
 -12   2  -5   83.69   24.40
  12   2   5  100.79   33.50
 -12  -2  -5   82.89   15.80
  12  -2   5  106.49   42.70
  12  -2   5  119.79   15.10
 -12  -2  -5  146.89   44.80
  12  -2   5  104.79   18.30
  12   3  -5   10.90   19.20
 -12   3   5  -34.30   15.40
  12   3  -5   17.80   41.40
  12   3  -5  -10.80   18.40
  12   3  -5    4.30   19.50
 -12   3   5   17.70   15.20
 -12   3   5  -21.80   27.80
 -12   3   5   -8.20   14.40
  12  -3  -5    1.20   19.70
 -12  -3   5    2.40   29.60
  12  -3  -5   28.10   40.70
 -12  -3   5  -18.40   29.60
  12   3  -4  -21.80   34.80
 -12   3   4    2.40   18.00
  12   3  -4   44.80   21.20
 -12   3   4    5.10   27.00
  12   3  -4    1.10   18.70
  12   3  -4   19.00   19.10
 -12   3   4   10.60   17.90
 -12  -3   4   25.20   18.80
  12  -3  -4    1.00   40.00
  12  -3  -4   46.00   19.70
 -12  -3   4   31.80   27.30
 -12   3   3   49.20   20.00
 -12   3   3   45.30   13.90
  12   3  -3   53.09   33.60
 -12   3   3   84.19   33.20
 -12   3   3   48.70   12.90
 -12   3   3   64.19   14.10
  12   3  -3   57.29   19.10
  12   3  -3   62.49   18.80
  12   3  -3   27.20   19.70
  12   3  -3   87.79   19.90
  12  -3  -3   63.79   18.80
 -12  -3   3   32.80   18.10
  12  -3  -3   18.40   30.10
 -12   3   2  147.99   26.30
  12   3  -2  138.39   19.20
 -12   3   2  126.39   15.60
  12   3  -2  133.49   20.70
  12   3  -2  124.29   38.10
  12   3  -2   93.69   21.50
 -12   3   2  127.69   17.50
  12   3  -2  115.89   20.90
 -12   3   2  114.69   29.20
 -12   3   2   96.59   16.30
 -12  -3   2  145.69   21.50
 -12  -3   2  116.49   30.00
  12  -3  -2  112.69   34.70
  12  -3  -2  150.18   20.90
  12  -3  -2  178.58   22.00
 -12   3   1   31.00   28.50
  12   3  -1   92.49   16.60
  12   3  -1  111.79   16.50
 -12   3   1  101.09   16.90
 -12   3   1   70.49   13.90
  12   3  -1   94.39   33.40
 -12   3   1  104.39   23.80
  12   3  -1   72.39   18.10
  12   3  -1   58.79   16.90
 -12   3   1   83.49   12.80
  12  -3  -1   79.89   17.00
  12  -3  -1   68.49   19.30
 -12  -3   1   74.09   25.30
  12  -3  -1   98.29   15.70
 -12  -3   1   67.79   16.60
  12  -3  -1  151.88   32.90
  12   3   0  277.37   36.80
 -12   3   0  215.68   32.40
  12   3   0  266.47   24.80
 -12   3   0  323.27   24.50
  12   3   0  219.88   27.50
 -12   3   0  277.37   24.40
  12   3   0  278.47   43.30
 -12   3   0  292.67   42.90
  12   3   0  277.17   28.40
  12   3   0  357.06   33.30
  12  -3   0  284.87   28.10
 -12  -3   0  235.18   34.20
 -12  -3   0  329.37   30.50
  12  -3   0  255.97   38.80
  12  -3   0  265.87   35.30
  12  -3   0  300.57   25.20
 -12   3  -1  133.49   39.30
 -12   3  -1   88.89   14.60
  12   3   1  116.09   17.10
 -12   3  -1  112.69   20.30
  12   3   1  125.39   26.70
  12   3   1  110.79   18.70
  12   3   1  107.89   17.40
 -12   3  -1   76.99   23.00
  12   3   1   86.69   30.00
 -12  -3  -1  148.59   31.00
  12  -3   1   96.79   24.70
 -12  -3  -1   83.49   16.80
  12  -3   1   87.89   15.60
  12  -3   1  102.19   14.80
  12  -3   1   73.19   30.00
  12   3   2  135.89   23.00
  12   3   2  141.59   17.80
 -12   3  -2   85.89   22.40
 -12   3  -2  108.69   43.50
  12   3   2   86.09   36.70
  12   3   2  120.09   18.50
 -12   3  -2  173.68   20.60
 -12   3  -2  113.09   25.00
 -12  -3  -2  207.18   47.80
  12  -3   2  129.59   17.50
  12  -3   2  131.69   16.70
  12  -3   2  149.79   34.30
 -12  -3  -2  106.19   17.30
 -12   3  -3    7.80   13.00
  12   3   3   10.20   26.40
 -12   3  -3    9.50   18.30
  12   3   3   11.20   19.70
  12   3   3   -8.80   10.40
 -12   3  -3  -16.50   43.50
  12   3   3  -17.60   21.00
 -12  -3  -3   -7.70   11.70
  12  -3   3   16.40   28.40
  12  -3   3   -4.60   10.60
  12  -3   3  -18.50   10.80
 -12  -3  -3  -25.00   31.50
  12  -3   3  -32.10   32.80
  12   3   4   18.60   28.90
 -12   3  -4   13.20   15.90
  12   3   4   10.90   25.60
  12   3   4    9.60   15.20
 -12   3  -4    5.00   49.70
  12  -3   4   17.30   14.90
 -12  -3  -4  -57.39   35.90
  12  -3   4   -2.30   36.50
 -12  -3  -4   -6.50   13.20
  12  -3   4    2.60   11.10
 -12   4   2   47.30   14.30
  12   4  -2   50.09   23.30
  12   4  -2   18.90   16.30
  12   4  -2   44.00   25.00
 -12   4   2   26.50   12.20
 -12   4   2   81.99   19.90
  12   4  -2   68.69   23.00
 -12   4   2   62.59   26.90
  12   4  -2   57.59   39.50
  12  -4  -2   49.00   57.89
  12  -4  -2   26.40   16.50
 -12  -4   2   81.09   30.00
 -12  -4   2   73.89   21.80
 -12   4   1   -1.00   24.00
  12   4  -1   32.90   35.20
  12   4  -1  -12.30   16.60
 -12   4   1   -2.40   37.60
 -12   4   1  -11.70   18.90
 -12   4   1    0.90   11.30
  12   4  -1   -3.90   20.80
  12   4  -1    9.70   15.00
  12   4  -1   -3.50   13.40
 -12   4   1   11.40   11.00
  12  -4  -1   -0.10   13.60
 -12  -4   1   28.40   20.10
 -12  -4   1   17.60   26.40
  12  -4  -1    4.50   31.50
  12   4   0   24.10   15.60
  12   4   0   42.50   20.80
  12   4   0   -9.70   16.30
 -12   4   0   24.30   12.50
 -12   4   0   58.99   41.10
  12   4   0   20.90   35.30
 -12   4   0   19.70   23.20
  12   4   0    4.70   12.30
 -12   4   0  -26.90   34.70
  12  -4   0   22.90   21.50
  12  -4   0   22.10   13.10
 -12  -4   0   31.40   36.00
 -12  -4   0   20.70   28.30
  12  -4   0    6.70   30.90
 -12   4  -1   10.20   11.20
 -12   4  -1    7.40   22.20
  12   4   1    5.10   16.40
  12   4   1    0.30   18.60
 -12   4  -1  -25.70   45.10
 -12   4  -1    5.10   20.20
  12   4   1   -1.10   11.10
  12   4   1  -15.60   34.40
  12   4   1  -14.50   17.20
 -12  -4  -1   14.50   30.40
 -12  -4  -1  -21.60   18.00
  12  -4   1   -1.90   11.80
  12  -4   1   44.40   25.10
  12  -4   1   36.60   33.60
  13   0  -6   51.69   22.30
  13   0  -6   43.00   21.90
 -13   0   6   19.10   20.40
  13   0  -6  -10.90   39.70
  13   0  -6   51.69   26.10
  13   0  -5    7.40   17.10
 -13   0   5  -37.90   29.90
  13   0  -5   20.90   18.50
  13   0  -5  -13.30   39.60
 -13   0   5    3.10   14.90
  13   0  -5    1.70   17.60
  13   0  -4  521.85   45.20
  13   0  -4  630.64   46.80
  13   0  -4  535.65   42.40
 -13   0   4  506.35   43.00
  13   0  -4  670.13   68.39
  13   0  -3    4.60   13.70
 -13   0   3   20.90   26.20
 -13   0   3   -8.90   11.10
  13   0  -3    2.90   13.10
  13   0  -3    2.30   27.60
  13   0  -3   -3.20   13.00
  13   0  -3    8.70   12.50
 -13   0   2  545.85   51.69
  13   0  -2  530.85   41.10
  13   0  -2  696.43   61.29
  13   0  -2  566.14   39.70
 -13   0   2  576.24   40.80
 -13   0   2  539.75   39.50
  13   0  -2  660.83   42.40
  13   0  -1    6.30    9.40
 -13   0   1    7.10   10.60
  13   0  -1    9.60   13.00
 -13   0   1    5.90   22.80
  13   0  -1   10.40    9.40
 -13   0   1  -12.40    8.90
  13   0  -1  -10.10   21.90
  13   0   0  116.99   29.60
  13   0   0  117.09   17.10
 -13   0   0  115.39   16.00
 -13   0   0  182.88   32.30
  13   0   0  113.09   23.30
  13   0   0  139.59   31.70
  13   0   0  107.49   15.70
 -13   0   0  200.68   23.20
 -13   0  -1    6.30   26.40
  13   0   1    4.00    8.60
 -13   0  -1  -11.00   11.40
  13   0   1    3.00    9.30
  13   0   1   16.40   24.80
 -13   0  -1   -3.90    8.70
  13   0   1  -20.20   17.90
  13   0   2   61.49   32.70
 -13   0  -2   83.09   13.90
 -13   0  -2   69.59   18.30
  13   0   2   62.19   11.80
 -13   0  -2  130.09   35.10
  13   0   2   71.09   12.70
  13   0   2   53.59   28.00
  13   0   2   73.89   22.00
  13   0   3    2.10    8.50
 -13   0  -3   14.80   11.70
  13   0   3  -25.90   21.70
  13   0   3    5.40   10.60
 -13   0  -3  -16.40   34.30
  13   0   3   11.90   27.80
  13   0   3   34.50   20.40
  13   0   4  544.65   36.90
  13   0   4  490.15   40.00
 -13   0  -4  440.66   63.89
  13   0   4  520.85   62.39
  13   0   4  397.46   48.90
  13   0   4  460.35   52.49
 -13   0  -4  513.75   38.20
 -13   0  -5   -3.60   15.60
 -13   0  -5  -54.29   49.80
  13   0   5   10.90   13.60
  13   0   5   30.00   33.20
  13   0   5   12.70   38.60
  13   0   5   -4.00   30.10
  13   0   5    0.70   12.20
 -13   1   6   75.29   23.40
  13   1  -6   74.79   24.00
  13   1  -6  136.99   25.30
  13   1  -6   77.39   48.10
 -13   1   6    8.10   36.70
  13   1  -6   58.39   23.60
  13  -1  -6    3.20   45.00
 -13  -1   6   42.40   37.00
  13  -1  -6  112.99   26.80
  13  -1  -6   64.09   20.40
 -13  -1   6   79.29   22.10
  13  -1  -6   56.49   36.40
  13   1  -5   84.49   23.10
  13   1  -5  151.78   41.70
  13   1  -5   89.89   42.10
 -13   1   5  125.79   23.20
 -13   1   5  136.99   38.10
  13  -1  -5   91.89   20.10
 -13  -1   5  148.59   38.70
 -13  -1   5   76.69   21.60
  13  -1  -5  114.29   23.80
  13  -1  -5  130.79   24.80
  13  -1  -5  167.98   48.30
 -13   1   4   15.60   49.00
  13   1  -4   35.90   17.40
  13   1  -4   35.10   16.00
  13   1  -4   10.20   36.60
 -13   1   4   31.30   15.10
  13   1  -4   43.20   19.00
  13   1  -4   -2.40   17.50
  13  -1  -4   37.30   34.30
  13  -1  -4   35.40   17.40
 -13  -1   4   28.90   16.00
  13  -1  -4   42.00   18.40
  13  -1  -4   28.30   15.10
 -13  -1   4   40.20   28.80
  13   1  -3  -32.80   30.20
 -13   1   3   -3.90   10.20
 -13   1   3    6.70   13.10
  13   1  -3   -9.20   15.90
  13   1  -3  -20.30   12.90
  13   1  -3  -20.30   13.10
  13   1  -3    0.80   13.80
 -13   1   3    2.90   11.60
 -13  -1   3  -32.90   25.50
 -13  -1   3    2.90   13.10
  13  -1  -3    4.40   12.70
  13  -1  -3   40.90   15.70
  13  -1  -3    6.50   12.30
  13  -1  -3   24.10   30.60
 -13   1   2   48.90   12.10
 -13   1   2   41.50   12.70
 -13   1   2   62.59   26.20
  13   1  -2   76.49   15.50
  13   1  -2   59.39   16.50
 -13   1   2   79.39   14.50
  13   1  -2   72.39   16.00
  13   1  -2   13.00   13.00
  13   1  -2   60.89   30.60
  13  -1  -2   87.69   27.00
  13  -1  -2   51.59   13.50
 -13  -1   2   51.89   14.70
  13  -1  -2   64.29   15.30
  13  -1  -2   -6.70   31.50
 -13  -1   2   54.69   25.70
 -13   1   1  102.09   19.30
  13   1  -1   98.09   30.50
 -13   1   1   69.09   13.30
  13   1  -1  105.79   16.00
  13   1  -1  111.99   16.40
 -13   1   1   96.19   14.50
  13   1  -1  110.59   17.60
 -13   1   1  110.09   44.70
 -13   1   1   99.09   15.50
  13  -1  -1  112.39   17.40
  13  -1  -1  101.29   16.00
 -13  -1   1  135.29   30.20
 -13  -1   1  108.99   20.40
  13  -1  -1   84.09   15.30
  13  -1  -1  118.19   31.50
 -13   1   0  248.78   37.00
  13   1   0  306.87   27.10
  13   1   0  304.87   25.70
 -13   1   0  254.67   31.30
  13   1   0  295.27   25.70
 -13   1   0  287.67   25.20
  13   1   0  243.88   37.60
 -13   1   0  252.27   25.80
  13   1   0  279.27   33.80
 -13   1   0  294.27   30.60
 -13  -1   0  270.07   26.40
  13  -1   0  284.57   24.80
  13  -1   0  205.78   36.30
 -13  -1   0  325.77   40.90
  13  -1   0  285.67   28.90
  13  -1   0  354.96   26.40
  13   1   1  286.27   24.40
  13   1   1  256.87   29.00
  13   1   1  251.87   23.70
  13   1   1  220.68   43.10
 -13   1  -1  261.47   31.80
 -13   1  -1  289.37   31.40
 -13   1  -1  275.37   24.60
  13   1   1  281.07   34.30
 -13   1  -1  357.76   49.20
  13  -1   1  216.98   36.10
  13  -1   1  311.27   39.10
  13  -1   1  258.07   24.20
  13  -1   1  339.77   25.20
 -13  -1  -1  342.97   43.10
 -13  -1  -1  255.77   25.10
  13  -1   1  234.78   30.20
  13   1   2  208.38   37.30
  13   1   2  223.48   20.90
 -13   1  -2  150.88   24.10
 -13   1  -2  197.68   39.40
  13   1   2  233.58   28.80
  13   1   2  186.08   22.10
 -13   1  -2  201.78   22.30
  13   1   2  266.87   33.70
  13  -1   2  198.38   20.90
  13  -1   2  218.68   21.50
  13  -1   2  223.78   39.40
  13  -1   2  193.48   27.70
 -13  -1  -2  194.98   46.40
 -13  -1  -2  227.58   22.80
  13  -1   2  147.39   30.70
  13   1   3  123.79   26.20
  13   1   3  171.78   20.10
  13   1   3  141.79   19.00
 -13   1  -3   43.80   42.00
  13   1   3  188.78   26.50
 -13   1  -3  158.48   24.10
  13   1   3  208.98   37.20
 -13   1  -3  202.98   23.00
  13  -1   3  188.58   19.60
 -13  -1  -3  140.19   27.10
  13  -1   3  182.68   40.30
 -13  -1  -3   79.99   48.30
  13  -1   3  109.99   16.90
 -13   1  -4   53.39   44.80
  13   1   4  -31.00   24.70
 -13   1  -4  -14.60   13.10
  13   1   4    3.60   23.60
 -13   1  -4  -10.60   17.30
  13   1   4    5.80    9.80
  13   1   4   19.20   30.80
  13   1   4   -7.00   12.60
 -13  -1  -4    4.90   12.90
  13  -1   4   32.70   34.70
  13  -1   4   -8.70   11.10
 -13  -1  -4   36.20   41.00
  13  -1   4    7.30   11.30
 -13   1  -5  -15.90   17.00
  13   1   5   60.19   32.40
  13   1   5  -31.40   36.50
  13   1   5    3.00   11.90
  13   1   5  -17.50   14.90
  13   1   5   40.50   51.69
 -13   1  -5   -1.50   19.50
 -13   1  -5   25.90   54.29
 -13  -1  -5    0.50   14.40
 -13  -1  -5   41.60   50.59
  13  -1   5    4.90   12.80
  13  -1   5   17.00   14.10
  13  -1   5    6.10   39.60
 -13   2   5   60.59   71.39
  13   2  -5  114.99   26.30
  13   2  -5   17.20   43.20
  13   2  -5  105.79   26.70
  13   2  -5  107.59   25.10
  13   2  -5  124.99   25.50
 -13   2   5  124.09   23.00
  13  -2  -5  169.98   27.70
 -13  -2   5  134.89   26.00
  13  -2  -5   10.50   62.79
 -13  -2   5  139.79   39.50
  13   2  -4   32.40   19.20
  13   2  -4   10.10   18.50
  13   2  -4   15.10   39.60
  13   2  -4   -7.30   18.20
 -13   2   4    8.50   27.80
  13   2  -4   -7.30   21.50
  13  -2  -4   22.80   17.90
 -13  -2   4   42.70   31.90
  13  -2  -4   28.30   37.90
  13  -2  -4   -6.60   18.90
 -13  -2   4  -13.60   17.50
  13   2  -3  605.24   51.39
 -13   2   3  676.53   52.69
 -13   2   3  667.53   62.59
 -13   2   3  695.33   45.00
  13   2  -3  743.13   48.60
  13   2  -3  729.43   49.20
 -13   2   3  750.82   45.00
  13   2  -3  654.43   51.09
 -13   2   3  606.04   46.20
  13  -2  -3  724.23   44.00
 -13  -2   3  773.92   77.19
  13  -2  -3  663.73   48.70
 -13  -2   3  617.74   51.19
  13  -2  -3  646.14   49.60
  13  -2  -3  702.53   65.89
  13  -2  -3  672.13   49.99
  13   2  -2   19.30   12.80
  13   2  -2   17.60   14.30
 -13   2   2   15.70   12.70
  13   2  -2    8.70   33.30
  13   2  -2   17.70   14.90
 -13   2   2   15.30   11.10
 -13   2   2  -10.00   16.10
 -13   2   2   49.00   29.10
  13   2  -2   26.50   16.00
 -13   2   2   10.40   12.70
  13  -2  -2    3.10   16.30
  13  -2  -2    7.40   31.20
 -13  -2   2   13.80   14.20
  13  -2  -2   19.30   12.60
 -13  -2   2  -21.80   25.10
  13  -2  -2   36.70   20.30
  13   2  -1  206.88   25.00
  13   2  -1  158.08   21.00
  13   2  -1  209.38   24.10
 -13   2   1  167.88   21.20
 -13   2   1  172.78   21.40
 -13   2   1  189.18   22.60
 -13   2   1  199.18   37.90
  13   2  -1  151.58   35.50
 -13   2   1  132.39   24.40
  13   2  -1  169.48   25.40
  13  -2  -1  173.38   21.80
 -13  -2   1  198.28   34.80
 -13  -2   1  187.28   22.90
  13  -2  -1  172.28   33.60
  13  -2  -1  169.08   21.40
 -13   2   0   16.70   11.40
  13   2   0   13.30   13.60
 -13   2   0    6.40   13.70
 -13   2   0   -3.00    8.90
  13   2   0   10.60   10.50
  13   2   0   17.10   27.40
 -13   2   0   35.00   32.10
 -13   2   0   -2.70   17.10
  13   2   0    1.20   11.60
  13  -2   0   22.30   22.10
  13  -2   0    7.70    9.80
 -13  -2   0    9.40   12.40
  13  -2   0   14.60   27.40
 -13  -2   0    1.30   24.20
  13  -2   0   10.10   11.80
  13   2   1  -26.20   20.90
 -13   2  -1   -4.30   34.40
 -13   2  -1   11.50   12.50
  13   2   1    2.10   25.40
  13   2   1    6.00   10.70
  13   2   1   10.20   11.10
  13   2   1   -3.90   15.20
 -13   2  -1    3.10    9.50
 -13   2  -1  -14.10   17.20
  13  -2   1   -4.40   41.30
 -13  -2  -1  -10.70   11.40
  13  -2   1    4.10   26.40
 -13  -2  -1   43.90   27.00
  13  -2   1    3.00    9.80
  13  -2   1   21.10   11.80
  13   2   2   -6.60   18.70
 -13   2  -2    6.00   10.80
  13   2   2  -13.80    9.40
  13   2   2   36.70   20.70
 -13   2  -2    4.10   37.70
  13   2   2    7.00   27.80
 -13   2  -2   -5.10   18.90
  13   2   2   -1.90   11.00
  13  -2   2  -33.70   26.20
  13  -2   2   -1.20   10.70
 -13  -2  -2   -8.10   11.20
  13  -2   2    9.70   10.40
  13  -2   2  -52.59   30.40
 -13  -2  -2  -16.50   41.70
 -13   2  -3   98.99   47.90
  13   2   3  122.99   33.60
  13   2   3  135.19   27.40
 -13   2  -3  148.19   27.40
 -13   2  -3  107.59   19.30
  13   2   3  116.49   25.80
  13  -2   3  176.08   43.90
  13  -2   3  121.49   15.70
  13  -2   3  126.89   17.40
 -13  -2  -3  111.89   17.50
  13   2   4    9.10   10.80
  13   2   4   -5.90   13.60
 -13   2  -4  -40.00   51.39
  13   2   4  -11.50   27.10
  13   2   4  -11.30   32.80
 -13   2  -4    1.50   17.90
 -13   2  -4    3.50   22.50
  13   2   4   26.80   27.20
  13  -2   4   -9.70   13.60
 -13  -2  -4    6.50   46.70
 -13  -2  -4    8.60   14.00
  13  -2   4   -0.40   11.00
  13  -2   4  -12.60   35.10
  13   3  -3   39.40   42.90
  13   3  -3    3.70   16.70
 -13   3   3   42.20   36.40
 -13   3   3   20.40   20.60
 -13   3   3    5.40   12.20
 -13   3   3  -16.90   14.40
  13   3  -3    4.70   22.40
  13   3  -3  -18.00   19.60
  13   3  -3   -6.70   19.40
 -13   3   3    7.30   13.20
  13  -3  -3    8.50   17.60
 -13  -3   3   34.30   39.00
 -13  -3   3   -0.70   20.30
  13  -3  -3   -8.00   38.20
 -13   3   2   64.29   15.30
 -13   3   2   87.39   39.00
 -13   3   2   63.19   13.90
  13   3  -2  102.59   25.60
 -13   3   2   65.19   23.10
 -13   3   2   53.09   16.90
  13   3  -2   -1.80   38.90
  13   3  -2  102.19   20.00
  13   3  -2   75.49   21.60
  13   3  -2   55.09   15.70
  13  -3  -2   28.50   19.00
 -13  -3   2   51.69   20.20
  13  -3  -2   72.39   17.10
 -13  -3   2   12.90   31.20
  13   3  -1   95.69   16.90
  13   3  -1   66.59   21.30
 -13   3   1  126.19   16.50
  13   3  -1   84.39   40.50
  13   3  -1  107.09   19.20
 -13   3   1   82.79   25.70
 -13   3   1  152.38   62.49
 -13   3   1   80.49   19.10
 -13   3   1   59.39   14.50
  13  -3  -1   90.39   23.50
 -13  -3   1  129.79   32.50
 -13  -3   1   89.99   22.10
  13  -3  -1   81.59   16.20
  13  -3  -1   82.09   25.00
  13  -3  -1  107.99   39.40
  13   3   0  220.78   24.70
  13   3   0  167.78   26.30
 -13   3   0  155.68   19.60
 -13   3   0  202.48   23.50
  13   3   0  202.58   23.90
  13   3   0  129.09   40.10
 -13   3   0  176.28   31.10
 -13   3   0  208.08   28.10
 -13   3   0  160.88   42.10
  13  -3   0  227.98   24.20
  13  -3   0  149.99   29.70
  13  -3   0   85.59   36.50
 -13  -3   0  214.98   25.10
 -13  -3   0  199.28   35.70
  13  -3   0  210.08   25.30
  13   3   1   41.30   13.50
  13   3   1   38.40   31.90
  13   3   1   55.29   20.40
 -13   3  -1   73.19   14.70
 -13   3  -1   35.10   41.00
 -13   3  -1   92.59   27.10
  13  -3   1   26.10   13.00
 -13  -3  -1   81.09   32.60
 -13  -3  -1   85.39   18.60
  13  -3   1   62.29   35.90
  13  -3   1  104.89   18.00
  13   3   2  124.79   18.40
  13   3   2   46.30   32.80
  13   3   2  187.98   22.30
 -13   3  -2  185.98   53.99
  13   3   2  204.48   28.90
 -13   3  -2  101.49   17.80
 -13   3  -2   91.89   28.60
  13  -3   2  125.19   19.10
 -13  -3  -2  155.38   21.00
  13  -3   2   65.19   34.10
  13  -3   2  131.49   19.10
 -13  -3  -2  180.78   55.69
  13  -3   2  120.59   42.30
 -14   0   4   99.79   22.40
 -14   0   4   78.69   38.70
  14   0  -4   82.89   21.60
  14   0  -4   88.89   40.40
  14   0  -4   99.09   44.40
  14   0  -3   -3.10   15.90
 -14   0   3  -12.80   14.40
 -14   0   3    5.70   31.10
  14   0  -3    4.80   36.00
  14   0  -3  -19.40   14.00
  14   0  -3   -1.80   14.00
 -14   0   2  470.75   37.90
  14   0  -2  489.35   39.50
  14   0  -2  495.95   61.69
 -14   0   2  473.15   55.99
  14   0  -2  430.06   36.90
  14   0  -2  505.35   39.20
  14   0  -1   -3.10   11.90
 -14   0   1   14.80   12.20
 -14   0   1   -0.90   29.50
  14   0  -1   35.40   19.80
  14   0  -1   -7.00   13.20
  14   0  -1  -10.40   30.80
  14   0   0  244.98   25.40
  14   0   0  248.18   26.40
 -14   0   0  275.17   25.70
  14   0   0  185.68   24.80
 -14   0   0  271.77   45.20
  14   0   0  223.38   40.70
 -14   0  -1    2.20   11.20
  14   0   1   21.10   17.90
 -14   0  -1    4.50   31.40
  14   0   1  -16.40   11.30
  14   0   1   11.20   12.00
  14   0   1    2.90   29.70
 -14   0  -2  -24.30   39.10
  14   0   2  -27.50   24.10
  14   0   2   30.70   12.30
  14   0   2  -26.20   32.80
 -14   0  -2    1.90   11.80
 -14   0  -3   -4.50   13.00
  14   0   3   17.20   11.30
  14   0   3   17.90   12.00
 -14   0  -3   29.70   44.30
  14   0   3   37.60   37.70
  14   1  -4   28.40   48.10
 -14   1   4  152.58   39.30
  14   1  -4   97.79   23.80
  14   1  -4  122.79   23.50
  14   1  -4  104.79   24.30
  14  -1  -4  178.18   48.80
 -14  -1   4  141.09   23.70
  14  -1  -4  154.68   25.70
  14  -1  -4  104.79   25.50
 -14  -1   4   96.89   40.60
  14  -1  -4  108.49   22.80
 -14   1   3   47.30   16.00
  14   1  -3   74.49   19.60
  14   1  -3   80.19   19.10
  14   1  -3   86.49   43.60
  14   1  -3   74.79   24.70
 -14   1   3   55.19   32.80
  14   1  -3   93.89   22.40
 -14  -1   3  110.79   20.60
 -14  -1   3  121.39   38.60
  14  -1  -3   55.09   17.40
  14  -1  -3  103.39   19.50
  14  -1  -3  105.29   22.30
  14  -1  -3   55.49   36.60
  14   1  -2  -11.20   34.90
  14   1  -2   21.30   14.90
  14   1  -2   20.30   16.80
 -14   1   2    8.60   12.60
  14   1  -2   -1.10   14.70
  14  -1  -2   -6.60   14.90
  14  -1  -2   19.80   31.90
  14  -1  -2   29.70   14.80
 -14  -1   2    5.10   31.10
 -14  -1   2    3.90   14.90
  14   1  -1    8.80   13.30
 -14   1   1   14.20   34.40
  14   1  -1   37.70   16.60
  14   1  -1  -14.40   31.90
 -14   1   1   11.30   11.40
  14  -1  -1  -10.30   29.10
  14  -1  -1   20.30   14.50
 -14  -1   1   52.79   31.80
 -14  -1   1    7.50   13.30
  14  -1  -1   21.80   12.60
  14   1   0   55.59   33.30
  14   1   0   52.79   18.80
 -14   1   0   56.29   21.00
 -14   1   0   55.79   35.80
 -14   1   0   40.00   24.80
 -14   1   0   50.69   13.90
  14   1   0   52.49   14.30
  14  -1   0   63.79   26.50
 -14  -1   0   42.00   15.10
  14  -1   0   58.29   14.70
  14  -1   0   62.09   15.60
 -14  -1   0   70.99   32.60
  14  -1   0   74.99   35.10
  14   1   1  101.89   35.30
 -14   1  -1  105.49   17.00
 -14   1  -1  107.19   22.10
  14   1   1  167.08   27.40
  14   1   1  134.49   19.10
 -14   1  -1  128.59   23.60
 -14   1  -1  162.58   40.90
  14   1   1  121.89   21.50
  14  -1   1  139.49   18.60
  14  -1   1  173.38   22.60
 -14  -1  -1  156.18   19.40
  14  -1   1  181.08   50.39
 -14  -1  -1  160.28   37.80
 -14   1  -2  130.89   18.90
  14   1   2   85.59   26.20
  14   1   2  159.18   28.90
  14   1   2  112.19   17.50
 -14   1  -2  116.59   24.70
 -14   1  -2  134.29   53.69
  14   1   2  166.08   38.00
 -14  -1  -2  102.59   18.60
  14  -1   2   92.49   18.90
 -14  -1  -2   87.29   39.50
  14  -1   2  133.79   17.50
  14   1   3   68.89   45.80
 -14   1  -3  127.99   25.50
 -14   1  -3  119.39   19.00
  14   1   3  135.99   19.30
  14   1   3  179.58   31.60
  14   1   3  104.59   17.60
 -14   1  -3  229.98   64.19
  14  -1   3  177.88   22.50
 -14  -1  -3  149.19   46.80
  14  -1   3  130.19   81.19
 -14  -1  -3  133.29   20.00
  14   2  -2   11.80   41.30
 -14   2   2   10.10   20.40
 -14   2   2   32.00   35.40
  14   2  -2   19.90   16.90
  14   2  -2  -16.20   29.80
  14   2  -2   13.60   15.40
 -14   2   2  -12.70   11.90
  14  -2  -2   -3.30   35.30
  14  -2  -2    9.40   25.00
 -14  -2   2   56.09   47.90
 -14  -2   2    6.40   17.30
  14  -2  -2  -17.40   14.10
  14  -2  -2   18.40   17.80
 -14   2   1  401.96   43.60
 -14   2   1  486.25   39.20
 -14   2   1  509.15   48.10
 -14   2   1  546.05   67.49
  14   2  -1  477.45   40.90
  14   2  -1  539.95   43.10
  14   2  -1  594.44   42.60
  14  -2  -1  662.93   44.30
  14  -2  -1  521.85   39.70
 -14  -2   1  575.24   59.89
 -14  -2   1  580.94   45.20
  14  -2  -1  618.34   54.29
 -14   2   0   -7.10   13.70
 -14   2   0  -11.60   18.70
 -14   2   0  -15.50   33.00
  14   2   0   -2.70   14.10
  14   2   0    9.70   18.70
  14   2   0    4.50   14.40
  14   2   0  -22.80   34.50
  14  -2   0   -7.30   14.30
  14  -2   0   43.90   29.20
  14  -2   0    6.00   12.70
 -14  -2   0  -11.90   32.20
 -14  -2   0    4.60   18.80
  14  -2   0  -34.00   32.50
 -14   2  -1   66.59   18.50
  14   2   1  101.89   36.90
  14   2   1   79.99   16.10
  14   2   1   67.09   21.60
  14   2   1   79.39   17.00
 -14   2  -1   63.89   40.50
 -14   2  -1   70.99   24.60
  14  -2   1   88.79   34.50
  14  -2   1   92.59   17.40
  14  -2   1   62.89   41.00
  14  -2   1   44.50   14.10
 -14  -2  -1   86.79   18.50
 -14  -2  -1  110.59   36.10
   0   0   0    0.00    0.00
_computing_structure_solution     'SHELXT 2018/2 (Sheldrick, 2018)'
;
_shelx_hkl_checksum              93383
_shelx_res_file
;
TITL 21166 in P2(1)/c
    21166.res
    created by SHELXL-2017/1 at 17:08:06 on 28-Feb-2022
rem LIST 6
CELL 0.71073 11.4762 5.437 9.1941 90 92.848 90
ZERR 4 0.0008 0.0004 0.0007 0 0.003 0
LATT 1
SYMM -X,0.5+Y,0.5-Z
SFAC C H O I
UNIT 12 20 12 4
EQIV $1 +X,0.5-Y,-0.5+Z
L.S. 4
PLAN  1 0 0
SIZE 0.06 0.16 0.27
TEMP -120.15
HTAB O2 O1_$1
HTAB O2 O3_$1
CONF
list 4
HTAB
BOND $H
WPDB -1
MORE -1
fmap 2
acta
REM <olex2.extras>
REM <HklSrc "%.\\21166.hkl">
REM </olex2.extras>
WGHT    0.019700    1.260200
FVAR       0.48946
I1    4    0.100599    0.115774    0.186941    11.00000    0.02602    0.03541 =
         0.04660   -0.00537    0.00755   -0.00509
O1    3    0.368865   -0.041911    0.288264    11.00000    0.03844    0.02646 =
         0.01863    0.00068   -0.00213    0.00554
AFIX 147
H1    2    0.435419   -0.096878    0.312553    11.00000   -1.50000
AFIX   0
O2    3    0.338444    0.099231   -0.090026    11.00000    0.05705    0.02513 =
         0.01872    0.00107   -0.00004   -0.00300
H2    2    0.348905    0.211462   -0.129540    11.00000    0.06740
O3    3    0.418723    0.309626    0.097421    11.00000    0.03491    0.02795 =
         0.03070    0.00333   -0.00361   -0.01045
C1    1    0.215567   -0.170921    0.119085    11.00000    0.03358    0.02456 =
         0.03300   -0.00406    0.00483   -0.00552
AFIX  23
H1A   2    0.202299   -0.321458    0.176539    11.00000   -1.20000
H1B   2    0.197462   -0.209631    0.015196    11.00000   -1.20000
AFIX   0
C2    1    0.342237   -0.095326    0.139385    11.00000    0.03280    0.02010 =
         0.02092   -0.00088    0.00165    0.00325
AFIX  13
H2A   2    0.392167   -0.235737    0.109911    11.00000   -1.20000
AFIX   0
C3    1    0.370412    0.127670    0.048083    11.00000    0.02084    0.02343 =
         0.01986   -0.00146    0.00270    0.00575
HKLF 4
REM  21166 in P2(1)/c
REM R1 =  0.0246 for    1102 Fo > 4sig(Fo)  and  0.0337 for all    1308 data
REM     69 parameters refined using      0 restraints
END
WGHT      0.0198      1.2475
REM Instructions for potential hydrogen bonds
EQIV $2 -x+1, y-1/2, -z+1/2
HTAB O1 O3_$2
HTAB O2 O1_$1
EQIV $3 x, y-1, z
HTAB C2 O3_$3
REM Highest difference peak  0.593,  deepest hole -0.665,  1-sigma level  0.119
Q1    1   0.2986 -0.3715  0.0623  11.00000  0.05    0.59
;
_shelx_res_checksum              92883
loop_
_space_group_symop_operation_xyz
'x, y, z'
'-x, y+1/2, -z+1/2'
'-x, -y, -z'
'x, -y-1/2, z-1/2'
loop_
_atom_site_type_symbol
_atom_site_label
_atom_site_fract_x
_atom_site_fract_y
_atom_site_fract_z
_atom_site_U_iso_or_equiv
_atom_site_adp_type
_atom_site_calc_flag
_atom_site_occupancy
_atom_site_disorder_assembly
_atom_site_disorder_group
I I1 0.10060(2) 0.11577(5) 0.18694(3) 0.03582(11) Uani d 1 . .
O O1 0.3689(2) -0.0419(5) 0.2883(3) 0.0280(6) Uani d 1 . .
H H1 0.435419 -0.096878 0.312553 0.042 Uiso calc 1 . .
O O2 0.3384(3) 0.0992(5) -0.0900(3) 0.0337(7) Uani d 1 . .
H H2 0.349(5) 0.211(12) -0.130(7) 0.07(2) Uiso d 1 . .
O O3 0.4187(2) 0.3096(5) 0.0974(3) 0.0314(6) Uani d 1 . .
C C1 0.2156(3) -0.1709(7) 0.1191(4) 0.0303(8) Uani d 1 . .
H H1A 0.202299 -0.321458 0.176539 0.036 Uiso calc 1 . .
H H1B 0.197462 -0.209631 0.015196 0.036 Uiso calc 1 . .
C C2 0.3422(3) -0.0953(6) 0.1394(4) 0.0246(7) Uani d 1 . .
H H2A 0.392167 -0.235737 0.109911 0.030 Uiso calc 1 . .
C C3 0.3704(3) 0.1277(6) 0.0481(4) 0.0213(7) Uani d 1 . .
loop_
_atom_site_aniso_label
_atom_site_aniso_U_11
_atom_site_aniso_U_22
_atom_site_aniso_U_33
_atom_site_aniso_U_12
_atom_site_aniso_U_13
_atom_site_aniso_U_23
I1 0.02602(14) 0.03541(17) 0.04660(17) -0.00509(11) 0.00755(10) -0.00537(12)
O1 0.0384(14) 0.0265(14) 0.0186(12) 0.0055(11) -0.0021(10) 0.0007(10)
O2 0.0570(19) 0.0251(15) 0.0187(13) -0.0030(13) 0.0000(12) 0.0011(12)
O3 0.0349(14) 0.0280(14) 0.0307(14) -0.0105(11) -0.0036(11) 0.0033(11)
C1 0.034(2) 0.025(2) 0.033(2) -0.0055(15) 0.0048(16) -0.0041(15)
C2 0.0328(19) 0.0201(18) 0.0209(17) 0.0033(14) 0.0017(14) -0.0009(14)
C3 0.0208(15) 0.0234(18) 0.0199(16) 0.0058(14) 0.0027(12) -0.0015(14)
loop_
_atom_type_symbol
_atom_type_description
_atom_type_scat_dispersion_real
_atom_type_scat_dispersion_imag
_atom_type_scat_source
C C 0.0033 0.0016 'International Tables Vol C Tables 4.2.6.8 and 6.1.1.4'
H H 0.0000 0.0000 'International Tables Vol C Tables 4.2.6.8 and 6.1.1.4'
O O 0.0106 0.0060 'International Tables Vol C Tables 4.2.6.8 and 6.1.1.4'
I I -0.4742 1.8119 'International Tables Vol C Tables 4.2.6.8 and 6.1.1.4'
loop_
_geom_angle_atom_site_label_1
_geom_angle_atom_site_label_2
_geom_angle_atom_site_label_3
_geom_angle_site_symmetry_1
_geom_angle_site_symmetry_3
_geom_angle
_geom_angle_publ_flag
C2 O1 H1 . . 109.5 ?
C3 O2 H2 . . 110(5) ?
I1 C1 H1A . . 109.3 ?
I1 C1 H1B . . 109.3 ?
H1A C1 H1B . . 108.0 ?
C2 C1 I1 . . 111.5(2) ?
C2 C1 H1A . . 109.3 ?
C2 C1 H1B . . 109.3 ?
O1 C2 C1 . . 109.5(3) ?
O1 C2 H2A . . 108.6 ?
O1 C2 C3 . . 109.2(3) ?
C1 C2 H2A . . 108.6 ?
C1 C2 C3 . . 112.2(3) ?
C3 C2 H2A . . 108.6 ?
O2 C3 C2 . . 112.6(3) ?
O3 C3 O2 . . 124.0(3) ?
O3 C3 C2 . . 123.4(3) ?
loop_
_geom_bond_atom_site_label_1
_geom_bond_atom_site_label_2
_geom_bond_site_symmetry_2
_geom_bond_distance
_geom_bond_publ_flag
I1 C1 . 2.154(4) ?
O1 H1 . 0.8400 ?
O1 C2 . 1.418(4) ?
O2 H2 . 0.72(6) ?
O2 C3 . 1.313(4) ?
O3 C3 . 1.211(4) ?
C1 H1A . 0.9900 ?
C1 H1B . 0.9900 ?
C1 C2 . 1.513(5) ?
C2 H2A . 1.0000 ?
C2 C3 . 1.519(5) ?
loop_
_geom_hbond_atom_site_label_D
_geom_hbond_atom_site_label_H
_geom_hbond_atom_site_label_A
_geom_hbond_site_symmetry_A
_geom_hbond_distance_DH
_geom_hbond_distance_HA
_geom_hbond_distance_DA
_geom_hbond_angle_DHA
_geom_hbond_publ_flag
O2 H2 O1 4_565 0.72(6) 1.97(6) 2.684(4) 172(7) yes
O2 H2 O3 4_565 0.72(6) 2.68(6) 3.101(4) 120(6) yes
loop_
_geom_torsion_atom_site_label_1
_geom_torsion_atom_site_label_2
_geom_torsion_atom_site_label_3
_geom_torsion_atom_site_label_4
_geom_torsion_site_symmetry_1
_geom_torsion_site_symmetry_2
_geom_torsion_site_symmetry_3
_geom_torsion_site_symmetry_4
_geom_torsion
_geom_torsion_publ_flag
I1 C1 C2 O1 . . . . 59.5(3) ?
I1 C1 C2 C3 . . . . -61.9(3) ?
O1 C2 C3 O2 . . . . -174.4(3) ?
O1 C2 C3 O3 . . . . 6.6(5) ?
C1 C2 C3 O2 . . . . -52.8(4) ?
C1 C2 C3 O3 . . . . 128.3(4) ?

_cod_database_fobs_code 2022602
