#------------------------------------------------------------------------------
#$Date: 2021-05-06 10:09:08 +0300 (Thu, 06 May 2021) $
#$Revision: 264984 $
#$URL: file:///home/coder/svn-repositories/cod/cif/2/02/23/2022342.cif $
#------------------------------------------------------------------------------
#
# This file is available in the Crystallography Open Database (COD),
# http://www.crystallography.net/. The original data for this entry
# were provided by IUCr Journals, http://journals.iucr.org/.
#
# The file may be used within the scientific community so long as
# proper attribution is given to the journal article from which the
# data were obtained.
#
data_2022342
loop_
_publ_author_name
'Unoki, Kohei'
'Yoshiasa, Akira'
'Kitahara, Ginga'
'Nishiayama, Tadao'
'Tokuda, Makoto'
'Sugiyama, Kazumasa'
'Nakatsuka, Akihiko'
_publ_section_title
;
 Crystal structure refinements of stoichiometric Ni~3~Se~2~ and NiSe
;
_journal_coeditor_code           EP3012
_journal_issue                   4
_journal_name_full               'Acta Crystallographica Section C'
_journal_page_first              169
_journal_page_last               175
_journal_paper_doi               10.1107/S2053229621002187
_journal_volume                  77
_journal_year                    2021
_chemical_formula_iupac          'Ni3 Se2'
_chemical_formula_moiety         'Ni3 Se2'
_chemical_formula_sum            'Ni3 Se2'
_chemical_formula_weight         334.05
_chemical_name_systematic
;
Trinickel diselenide
;
_space_group_IT_number           155
_space_group_name_Hall           'R 3 2"'
_space_group_name_H-M_alt        'R 3 2 :H'
_symmetry_cell_setting           hexagonal
_symmetry_space_group_name_Hall  'R 3 2"'
_symmetry_space_group_name_H-M   'R 3 2 :H'
_cell_angle_alpha                90
_cell_angle_beta                 90
_cell_angle_gamma                120
_cell_formula_units_Z            3
_cell_length_a                   6.02813(13)
_cell_length_b                   6.02813(13)
_cell_length_c                   7.24883(16)
_cell_measurement_reflns_used    5172
_cell_measurement_temperature    293(2)
_cell_measurement_theta_max      27.1360
_cell_measurement_theta_min      4.7840
_cell_volume                     228.120(9)
_computing_cell_refinement
;
CrysAlis PRO (Rigaku OD, 2019)
;
_computing_data_collection
;
CrysAlis PRO (Rigaku OD, 2019)
;
_computing_data_reduction
;
CrysAlis PRO (Rigaku OD, 2019)
;
_computing_molecular_graphics
;
<i>VESTA</i> (Momma & Izumi, 2011)
;
_computing_publication_material
;
SHELXL2018 (Sheldrick, 2015b)
;
_computing_structure_refinement
;
SHELXL2018 (Sheldrick, 2015b)
;
_computing_structure_solution
;
<i>OLEX2</i> (Dolomanov <i>et al.</i>, 2009) and
SHELXT2018 (Sheldrick, 2015a)
;
_diffrn_ambient_temperature      293(2)
_diffrn_detector_area_resol_mean 10.0000
_diffrn_measured_fraction_theta_full 1.000
_diffrn_measured_fraction_theta_max 1.000
_diffrn_measurement_device_type
'Rigaku SuperNova Single Source diffractometer with a HyPix3000 detector'
_diffrn_measurement_method       '\w scans'
_diffrn_radiation_monochromator  mirror
_diffrn_radiation_type           MoK\a
_diffrn_radiation_wavelength     0.71073
_diffrn_reflns_av_R_equivalents  0.0474
_diffrn_reflns_av_sigmaI/netI    0.0090
_diffrn_reflns_limit_h_max       7
_diffrn_reflns_limit_h_min       -7
_diffrn_reflns_limit_k_max       7
_diffrn_reflns_limit_k_min       -7
_diffrn_reflns_limit_l_max       9
_diffrn_reflns_limit_l_min       -9
_diffrn_reflns_number            5554
_diffrn_reflns_theta_full        25.242
_diffrn_reflns_theta_max         26.978
_diffrn_reflns_theta_min         4.812
_exptl_absorpt_coefficient_mu    41.991
_exptl_absorpt_correction_T_max  0.135
_exptl_absorpt_correction_T_min  0.056
_exptl_absorpt_correction_type   gaussian
_exptl_absorpt_process_details
;
(CrysAlis PRO; Rigaku OD, 2019)
;
_exptl_crystal_colour            silver
_exptl_crystal_density_diffrn    7.295
_exptl_crystal_description       block
_exptl_crystal_F_000             456
_exptl_crystal_size_max          0.123
_exptl_crystal_size_mid          0.090
_exptl_crystal_size_min          0.077
_refine_diff_density_max         1.148
_refine_diff_density_min         -1.588
_refine_ls_abs_structure_details
;
Flack <i>x</i> determined using 42 quotients [(I+)-(I-)]/[(I+)+(I-)]
(Parsons <i>et al.</i>,  2013)
;
_refine_ls_abs_structure_Flack   -0.049(19)
_refine_ls_extinction_method     none
_refine_ls_goodness_of_fit_ref   1.370
_refine_ls_hydrogen_treatment    undef
_refine_ls_matrix_type           full
_refine_ls_number_parameters     9
_refine_ls_number_reflns         117
_refine_ls_number_restraints     0
_refine_ls_restrained_S_all      1.370
_refine_ls_R_factor_all          0.0204
_refine_ls_R_factor_gt           0.0204
_refine_ls_shift/su_max          0.000
_refine_ls_shift/su_mean         0.000
_refine_ls_structure_factor_coef Fsqd
_refine_ls_weighting_details
'w=1/[\s^2^(Fo^2^)+(0.0318P)^2^+1.1728P] where P=(Fo^2^+2Fc^2^)/3'
_refine_ls_weighting_scheme      calc
_refine_ls_wR_factor_ref         0.0517
_reflns_number_gt                117
_reflns_number_total             117
_reflns_threshold_expression     'I > 2\s(I)'
_cod_data_source_file            ep3012sup1.cif
_cod_data_source_block           I
_cod_depositor_comments
'Adding full bibliography for 2022342--2022343.cif.'
_cod_original_cell_volume        228.120(11)
_cod_database_code               2022342
_cod_database_fobs_code          2022342
_shelx_hkl_file
;
   0   0   3 125421. 2846.15  26
   0   0   3 120755. 2742.99  10
   0   0   3 126774. 2939.53  15
   0   0  -3 123001. 2915.26   6
   0   0  -3 118246. 2952.54  41
   0   0   3 125669. 3024.33   6
   0   0   3 130270. 2996.53  32
   0   0   3 128217. 3017.70  25
   0   0   3 118893. 2962.62  31
   0   0   3 125811. 2974.04  34
   0   0  -3 117907. 3010.90  17
   0   0   3 119876. 3034.97  27
   0   0  -3 131921. 2920.01  29
   0   0  -3 114685. 2971.04  36
   0   0   3 127291. 2988.27  37
   0   0  -3 121420. 2971.41  39
   0   0  -3 122329. 2928.18  31
   0   0   3 123834. 2979.89  14
   0   0  -3 133646. 2964.07  32
   0   0   3 119574. 2960.19  33
   0   0   3 117190. 2677.73  22
   0   0   3 116683. 3117.21  17
   0   0   3 119592. 2994.72  29
   0   0  -3 121025. 2955.69  40
   0   0  -3 119403. 2988.78  44
   0   0   3 127676. 2988.05   5
   0   0   3 115885. 3035.44  39
   0   0  -3 125758. 2853.97  26
   0   0  -3 136128. 2956.14  35
   0   0  -3 123967. 2910.06   4
   0   0   3 124585. 3063.05  40
   0   0  -3 113193. 2950.65  38
   0   0  -3 121813. 2962.65  14
   0   0  -3 121580. 2915.02  33
   0   0  -3 140807. 3000.26  25
   0   0   3 123836. 3075.98  41
   0   0  -3 135635. 2949.23  34
   0   0   3 125987. 3039.61  44
   0   0   3 124632. 3093.36  38
   0   0   6 2054.41 323.221  29
   0   0   6 1973.06 321.617  27
   0   0  -6 2009.91 264.750  25
   0   0   6 1805.71 297.822   6
   0   0  -6 2213.77 268.269  34
   0   0  -6 2138.82 276.186  14
   0   0  -6 2165.84 242.401  29
   0   0  -6 2062.52 258.889   2
   0   0  -6 2474.60 279.561  33
   0   0   6 1909.39 317.427  40
   0   0   6 1734.85 319.880  41
   0   0   6 1943.85 281.502  15
   0   0  -6 2099.44 260.534  31
   0   0  -6 2308.76 274.169  35
   0   0   6 1763.17 331.402  38
   0   0  -6 2035.52 262.898  32
   0   0   6 2299.02 361.665  39
   0   0   6 2478.40 409.211  17
   0   0   6 2099.23 328.238  43
   0   0  -9 4658.89 427.650  34
   0   0  -9 3997.24 398.921  31
   0   0  -9 4514.83 420.622  35
   0   0  -9 4226.39 408.518  33
   0   0   9 3820.73 518.993   6
   0   0  -9 4581.25 417.053   2
   0   0  -9 4481.58 422.236  32
   1   0  -8 26473.0 1247.76  21
   1  -1   8 30611.3 1575.98  27
   1  -1   8 31420.7 1539.21   3
  -1   1  -8 31684.6 1260.64  35
   1  -1   8 28890.0 1443.03   6
   1   0  -8 29281.5 1190.57   2
   1   0  -8 30480.2 1203.74  35
  -1   0   8 32289.3 1528.52  41
   1  -1   8 35128.9 1635.52  42
   1  -1   8 31063.7 1585.81  40
   0   1   8 28912.7 1456.87   6
  -1   1  -8 33987.5 1290.26  25
   0   1   8 27022.5 1342.78  15
  -1   1  -8 34782.5 1303.95  33
  -1   1  -8 31134.0 1261.21  31
   1   0  -8 29950.6 1210.40  32
  -1   0   8 29907.6 1465.95  27
  -1   1  -8 31531.0 1224.43   2
  -1   0   8 30430.6 1443.63   6
   1   0  -8 30069.4 1203.70  33
  -1   1  -8 30859.6 1313.08  14
  -1   0   8 30593.9 1476.37  39
   1   0  -8 29821.5 1193.23  34
  -1   0   8 33575.9 1549.34  40
   1  -1   8 30588.8 1594.63  39
   1  -1   8 31992.4 1624.58  41
  -1   0   8 31366.8 1500.68  19
  -1   1  -8 32343.8 1278.71  32
   0  -1  -8 23569.5 1164.28   9
   0   1   8 31354.4 1667.02  17
   0  -1  -8 35150.1 1317.93  25
   1  -1   8 34466.9 1612.21  43
   1  -1   8 30319.4 1616.81  38
   0   1   8 31288.7 1494.83  29
  -1   1  -8 33559.5 1286.90  34
   0  -1  -5 481.066 124.037  14
   0   1   5 291.625 141.467   6
   1   0  -5 649.117 168.351  17
   0   1   5 335.152 145.975  17
   1   0  -5 623.527 164.266  25
   1   0  -5 470.278 144.864  41
   0  -1  -5 512.213 131.739  39
   1   0  -5 539.169 142.646   2
   0   1   5 521.460 144.678  37
   1  -1   5 1815.24 299.703  40
   1  -1   5 828.394 187.114  24
  -1   1  -5 603.739 160.161  14
   0  -1  -5 413.421 117.663   2
   1  -1   5 710.924 214.183  38
   1  -1   5 280.857 130.804   1
   1   0  -5 432.624 128.441  33
   0  -1  -5 465.551 122.828  34
   1   0  -5 401.984 141.732  39
   0   1   5 696.402 171.189  44
  -1   1  -5 451.764 127.075  25
   0   1   5 593.943 160.279  15
   1   0  -5 391.977 119.753   4
  -1   1  -5 730.001 164.797  34
  -1   1  -5 2484.63 285.679  38
   0   1   5 652.855 166.702  42
   0  -1  -5 597.787 149.477  21
  -1   0   5 500.157 150.897  33
   1  -1   5 1668.46 274.442  44
  -1   0   5 224.599 114.153   6
   1  -1   5 517.272 162.262   6
   0   1   5 424.026 141.984   5
   1  -1   5 552.539 152.122   5
   1   0  -5 456.799 121.219   6
   1  -1   5 2702.12 332.813  43
  -1   0   5 465.154 145.996  34
   1  -1   5 682.776 216.146  41
  -1   1  -5 747.418 166.625  35
   0   1   5 761.932 186.854  40
   0   1   5 647.689 166.691  43
   1  -1   5 653.309 166.818  13
   1   0  -5 585.967 151.801  14
   0  -1  -5 279.349 101.951  35
   0   1   5 383.385 152.129  38
   0  -1  -5 676.309 145.386  29
   0  -1  -5 638.190 151.275  36
   1  -1   5 477.351 177.286  14
   1   0  -5 398.706 130.565  23
  -1   1  -5 404.382 120.186   4
   0  -1  -5 353.500 111.282   6
   1  -1   5 470.594 127.809  15
  -1   1  -5 1059.66 194.901  40
  -1   0   5 663.092 170.293  29
  -1   0   5 387.736 149.906  39
   1  -1   5 3007.07 333.107  32
   0  -1  -5 570.242 143.324  41
   1  -1   5 2654.22 311.745  33
  -1   0   5 433.056 165.375  42
  -1   0   5 444.386 160.376  44
  -1   1  -5 517.861 126.826   6
  -1   1  -5 550.627 144.746  33
  -1   0   5 512.201 159.241  32
   1   0  -5 470.415 139.578  40
   0   1   5 366.802 143.669  39
   1  -1   5 3176.04 343.906  31
  -1   0   5 434.980 165.341  41
   0   1   5 621.990 149.637  33
   1  -1   5 2322.41 317.287  42
   0  -1  -5 566.094 129.062  31
   1  -1   5 2397.31 298.643  37
  -1   1  -5 1789.92 244.515  39
   0   1   5 612.822 150.041  31
   0  -1  -5 495.225 144.429  17
   0   1   5 511.723 171.211  29
  -1   0   5 446.080 145.856   5
   0   1   5 381.740 130.649  32
   1  -1   5 522.526 159.195  12
   1   0  -5 505.037 140.247  35
  -1   0   5 452.526 156.910   4
   1   0  -5 528.026 139.968  34
  -1   1  -5 395.390 144.885  17
  -1   0   5 316.609 151.847  40
   0   1   5 479.705 142.317   1
   0  -1  -5 594.555 138.531  25
   0   1   5 365.642 137.037  25
   1  -1   5 590.974 222.893  17
   0  -1  -5 556.066 129.167  32
   1   0  -5 350.022 131.223  38
   1  -1   5 2158.69 280.857  34
  -1   0   5 399.381 140.294  25
  -1   0   5 383.575 156.989  27
  -1   1  -5 408.825 107.497  26
   1   0  -5 431.465 126.602  32
   0  -1  -5 330.612 109.507   4
  -1   1  -5 2622.50 288.818  41
  -1   0   5 977.462 211.245  19
   1   0  -5 532.036 159.099  44
  -1   1  -5 807.585 172.795  32
   0  -1  -5 575.368 183.283   9
   0  -1  -5 256.004 97.4619  33
   1  -1   5 693.674 170.521  25
  -1   0   5 587.089 165.216  31
   0   1   5 399.992 151.678  41
   0   1   5 639.390 171.549  27
  -1   1  -5 1447.78 216.804  31
  -1   1  -5 2975.24 314.877  36
   1  -1   5 2024.84 303.971  27
   0  -1  -5 572.980 144.886  38
  -1   1  -5 401.761 116.152  29
   1  -1   5 920.842 234.865  39
   1   0  -5 346.890 119.007   9
   1  -1   2 26148.7 703.385   7
   1  -1   2 27028.1 935.630  12
   0  -1  -2 25671.4 786.249  35
   1  -1   2 29046.8 900.023  43
   0   1   2 29699.1 806.493  42
   1  -1   2 28725.6 928.503  44
  -1   1  -2 26325.8 871.865  39
   0   1   2 29322.2 816.592   7
   1  -1   2 27966.7 910.284   3
   1  -1   2 29554.6 981.469  17
  -1   0   2 28943.3 851.192  29
  -1   0   2 26905.2 893.552  37
  -1   0   2 28925.7 903.961  25
  -1   0   2 28677.8 918.858  11
  -1   0   2 27633.5 895.655  42
  -1   0   2 28026.7 886.785  32
  -1   1  -2 28130.7 864.201  32
   0  -1  -2 30494.5 793.274  37
   1  -1   2 27029.7 938.413  38
   0  -1  -2 27137.2 963.845   9
  -1   1  -2 28499.0 868.514  31
   1   0  -2 30101.9 886.331  34
   0   1   2 27138.4 890.370  17
  -1   1  -2 28651.3 803.359   5
   0  -1  -2 29547.8 772.797   4
   0  -1  -2 25082.3 821.296   6
   0   1   2 26167.8 813.846  38
   1  -1   2 27771.9 936.722  41
  -1   1  -2 25790.4 806.984   6
   0   1   2 29085.9 800.136  27
   0  -1  -2 24680.5 814.316  25
   1  -1   2 27999.9 805.051   5
   0   1   2 26641.2 776.631  33
   1   0  -2 27911.7 867.755   4
   0  -1  -2 28722.8 769.201  43
   1  -1   2 26720.8 754.324  15
  -1   0   2 29438.8 889.065   6
   1   0  -2 27741.0 891.607  39
  -1   0   2 27415.0 875.972  33
  -1   1  -2 29445.1 928.974  12
   0   1   2 28110.4 795.057  43
   1  -1   2 27754.8 857.090  26
  -1   0   2 28406.9 883.680  34
   0  -1  -2 25683.2 822.080  22
  -1   1  -2 28844.1 730.664  15
  -1   1  -2 26841.1 869.282  40
   1   0  -2 27434.2 897.872  41
   1  -1   2 29205.3 906.278  42
   0  -1  -2 30117.7 790.601  32
   0  -1  -2 30195.5 891.090  29
   1   0  -2 27858.2 890.215  27
  -1   0   2 28899.0 754.313  20
  -1   1  -2 26776.4 880.681  38
  -1   1  -2 29232.0 865.686  34
   1  -1   2 29932.4 880.072  13
   1  -1   2 25133.7 858.862  24
   0  -1  -2 28892.9 807.797  39
  -1   0   2 30194.2 945.066  40
   0  -1  -2 25845.1 807.991   8
   0  -1  -2 23395.8 744.395  33
  -1   1  -2 28760.4 871.143  37
   0   1   2 29573.5 799.499  37
   0   1   2 30790.4 899.596  22
   1  -1   2 28470.4 964.504  36
  -1   0   2 29574.2 921.647   4
   0  -1  -2 28357.1 688.689  23
   0  -1  -2 30175.2 815.060  41
   1  -1   2 25349.7 846.238   6
  -1   1  -2 30173.4 854.622  13
   0   1   2 26642.6 825.147  36
   1   0  -2 29638.5 816.522   8
   1  -1   2 28765.3 949.846  14
   1   0  -2 29843.4 901.639   2
   1  -1   2 27876.1 873.216  34
   0  -1  -2 30076.9 847.066   5
   1  -1   2 27828.3 875.903  33
  -1   0   2 28234.4 922.520  27
   1  -1   2 26994.5 932.277  39
   1   0  -2 27556.2 890.268  40
   1   0  -2 27724.0 902.962  42
   1   0  -2 28139.9 914.618  44
   1   0  -2 29206.0 879.503  33
   0  -1  -2 31506.3 876.814  15
   0  -1  -2 28411.5 653.454  18
   0  -1  -2 27530.7 790.331  38
  -1   0   2 29534.9 921.890  44
  -1   0   2 29098.8 934.977  39
  -1   1  -2 28768.8 886.960   1
  -1   0   2 29576.0 899.413   2
  -1   0   2 29488.6 920.946  19
  -1   1  -2 28495.3 822.468  25
   1   0  -2 27223.1 755.020   9
   1  -1   2 27920.5 893.242   1
   0   1   2 30064.8 840.295  41
   0   1   2 30644.9 906.434   6
   0   1   2 29324.0 851.027   5
   1   0  -2 29197.5 886.784  32
   1  -1   2 28292.6 679.760  10
   1   0  -2 30176.2 886.854  35
   0   1   2 32490.5 939.783  15
   0  -1  -2 27225.7 838.214  21
   0   1   2 27922.7 820.690  40
   0   1   2 27207.6 788.589  31
   1  -1   2 28299.9 883.477  31
   1   0  -2 28733.4 730.276  20
   0   1   2 26529.0 711.366  23
   1  -1   2 28072.8 881.344  37
  -1   0   2 28912.4 939.792  41
  -1   1  -2 26317.3 869.349  41
   1  -1   2 27672.9 878.012  32
   0   1   2 27430.4 787.694  32
   0  -1  -2 27317.2 774.921  31
   0   1   2 27306.4 912.670  29
  -1   1  -2 28500.1 903.759  17
  -1   1  -2 26652.7 828.103  26
   0  -1  -2 27169.3 797.398  36
  -1   1  -2 25749.6 879.087  36
   0   1   2 28058.2 863.535  21
   1   0  -2 30284.9 893.185  36
   0   1   2 29244.3 858.552  25
   0   1   2 27423.1 785.106  14
  -1   1  -2 27966.3 916.618  14
   0  -1  -2 26305.3 759.586  34
  -1   0   2 28072.6 880.577  35
   0  -1  -2 27960.3 869.912  17
   1  -1   2 27935.7 934.565  40
   1  -1   2 25710.0 810.651  25
   0   1   2 27467.0 819.411  39
  -1   1  -2 28712.2 866.322  33
  -1   0   2 26292.8 904.206  26
   1  -1  -1 14874.2 438.410  41
   1  -1  -1 14127.1 424.982  17
  -1   0  -1 13958.3 492.768  38
   1   0   1 13623.6 510.678  35
   1   0   1 14879.8 492.532  24
   0   1  -1 14960.9 528.362  38
  -1   1   1 15909.8 445.074  18
   0   1  -1 15392.5 538.188  19
   1   0   1 14566.5 500.415  27
  -1   1   1 17126.0 441.154  40
   1  -1  -1 15422.7 429.546  34
   1   0   1 14949.3 521.651  41
   0   1  -1 15366.9 506.675  33
   0   1  -1 13769.2 508.934  44
   0  -1   1 14584.3 537.800  26
   1  -1  -1 16460.6 434.939  33
   1  -1  -1 14899.1 428.547  37
   1  -1  -1 17126.1 448.461  27
   0   1  -1 14530.5 499.269  35
   0  -1   1 14438.3 529.415  39
   1  -1  -1 15875.0 443.343  44
   0  -1   1 14859.7 524.360  42
   0  -1   1 14366.4 497.890  33
   1   0   1 14520.9 500.249  43
   1  -1  -1 13558.0 424.755  39
   0  -1   1 16355.5 552.959  11
  -1   0  -1 14183.3 395.661  13
   0  -1   1 15532.7 452.857  30
  -1   1   1 13411.6 435.582  12
  -1   0  -1 14822.0 467.181  18
   1  -1  -1 17079.2 551.069   9
  -1   0  -1 15953.1 505.687  15
  -1   1   1 14833.0 506.647   9
   1  -1  -1 16940.4 554.289  20
   0  -1   1 14296.3 496.831  34
   0   1  -1 16074.6 415.738   6
  -1   1   1 16161.9 528.999  30
   0   1  -1 16067.4 551.335  14
  -1   1   1 16443.5 431.284  35
  -1   1   1 18808.7 449.196  36
   1  -1  -1 14896.4 432.570  42
   0   1  -1 12997.9 493.804  40
   0  -1   1 13930.5 522.576  16
   1  -1  -1 18092.3 508.448   2
  -1   1   1 17433.5 442.629  27
   1   0   1 14690.1 526.722  36
   1  -1  -1 15111.6 497.872  23
   0   1  -1 14971.0 515.464  39
   1  -1  -1 17742.9 441.967  35
   1   0   1 14765.3 517.614  14
   0  -1   1 15147.3 508.024  32
  -1   1   1 16251.9 484.429   2
  -1   0  -1 14158.7 501.151  36
   1   0   1 15103.5 530.134  39
   0   1  -1 15228.8 504.970  34
   0   1  -1 14219.4 505.439  27
   0  -1   1 16421.6 552.336  40
  -1   1   1 18021.2 448.151  44
   1  -1  -1 15808.2 426.721  36
  -1   1   1 14723.4 394.906  19
   1  -1  -1 16067.5 443.514  40
   1  -1  -1 15588.2 545.595  10
   0   1  -1 16246.6 556.379  26
   1   0   1 14583.2 521.329  17
   0   1  -1 15687.5 513.777  32
   1   0   1 14405.5 479.287   3
  -1   1   1 16957.4 561.441  10
  -1   1   1 11733.3 464.803  25
   0  -1   1 16550.9 573.671  19
  -1   0  -1 12742.0 479.602  35
  -1   1   1 19001.7 447.103  34
  -1   1   1 15341.3 520.989  21
   0   1  -1 15717.7 533.582  12
   0   1  -1 14502.8 511.491  42
  -1   0  -1 14466.6 480.030  43
   0   1  -1 15876.3 493.368   4
  -1   1   1 17244.3 555.779  20
   0   1  -1 15788.3 551.478  16
   1   0   1 14192.1 513.215  38
   0  -1   1 15642.3 452.950  25
  -1   0  -1 14121.7 397.262  23
  -1   0  -1 14864.7 498.369  27
   0  -1   1 12114.4 474.713  22
  -1   0  -1 14699.6 500.855  41
   1   0   1 14271.9 492.891  31
   0   1  -1 13686.6 507.389  41
  -1   1   1 16029.2 426.879  43
   1   0   1 14123.4 490.961  37
  -1   0  -1 14794.4 480.097   5
   0  -1   1 15343.6 561.823  13
   0  -1   1 13286.1 519.091  41
  -1   1   1 15271.2 499.476  23
  -1   1   1 16471.8 432.587  33
  -1   1   1 14784.0 423.990  32
   1   0   1 14936.3 509.970  44
   0  -1   1 15058.3 504.095  35
   1   0   1 14670.5 479.408   1
  -1   0  -1 14287.3 464.460   3
   0  -1   1 15372.5 423.551   6
   0  -1   1 14302.7 527.838  27
   1   0   1 13834.5 481.901   5
   1   0   1 14906.8 504.309  42
  -1   0  -1 14079.0 487.358  32
  -1   0  -1 14802.0 494.504  31
   1   0   1 14128.9 490.585  32
   0   1  -1 15625.6 406.284  20
   1  -1  -1 15777.4 531.512  21
   0  -1   1 13332.1 488.624  31
  -1   0  -1 15949.4 492.740  24
   1  -1  -1 15740.0 483.748   4
  -1   1   1 16143.7 431.692  37
   0  -1   1 15300.0 533.276  44
  -1   0  -1 15044.6 489.491  42
   1   0   1 14638.5 480.187  18
  -1   1   1 15957.2 436.413  39
   1  -1  -1 14775.3 442.382  18
  -1   0  -1 13657.8 477.946  33
  -1   1   1 14471.7 444.903  17
  -1   0  -1 15438.3 510.970  17
  -1   0  -1 15822.8 502.291   6
  -1   1   1 15073.2 481.339   4
  -1   0  -1 14808.6 493.125  37
  -1   0  -1 14066.9 469.211   1
  -1   1   1 16752.7 432.116  42
   0   1  -4 107687. 2557.98  25
  -1   0  -4 86476.4 2431.28  29
   1   0   4 93379.5 2535.45  15
  -1   1   4 99978.8 2625.27  25
   0  -1   4 106221. 2715.55  14
   1  -1  -4 111371. 2489.29  32
   0  -1   4 97342.0 2700.53  44
   0  -1   4 99531.3 2763.63  40
   1  -1  -4 94418.4 2534.03  25
   1   0   4 101586. 2611.59  14
   1  -1  -4 103140. 2454.16  31
  -1   0  -4 103929. 2533.53  25
   1  -1  -4 92796.5 2401.12  14
  -1   1   4 91203.4 2580.54  41
   1   0   4 84193.8 2490.03   1
   0   1  -4 99133.9 2632.25  14
  -1   0  -4 93809.4 2502.94  39
   1  -1  -4 115171. 2532.57  23
   0  -1   4 98975.0 2780.63  41
   0  -1   4 103160. 2647.72  33
   1  -1  -4 85656.4 2383.31  33
   0   1  -4 94003.2 2613.78  17
   1   0   4 95930.1 2602.79  42
   1   0   4 96774.9 2548.52  33
  -1   0  -4 94514.6 2462.04  34
   0  -1   4 103820. 2659.17  32
   1  -1  -4 97135.1 2538.87  17
   0   1  -4 95452.5 2566.98  41
   0  -1   4 97779.4 2750.60  27
   1   0   4 88426.6 2608.75   6
   1   0   4 94843.0 2606.25  44
   1   0   4 97567.6 2577.62  25
   0   1  -4 107296. 2390.36  29
  -1   1   4 97870.4 2579.71  27
   1  -1  -4 95818.7 2469.91  40
  -1   1   4 100878. 2754.99  17
   0   1  -4 95331.2 2578.97  38
   0   1  -4 99059.7 2570.96  32
  -1   0  -4 104941. 2499.31   6
   1  -1  -4 103162. 2453.03  35
   1   0   4 89554.7 2636.81  41
  -1   1   4 96015.2 2494.66  34
   0  -1   4 91063.3 2543.46   6
   0   1  -4 108154. 2595.05  35
   1   0   4 102804. 2591.87  31
  -1   0  -4 102588. 2516.47  32
   1  -1  -4 95836.2 2393.31  10
   1  -1  -4 98930.2 2641.50  21
  -1   1   4 97611.2 2644.11  15
   0   1  -4 98112.8 2480.04   4
  -1   1   4 98351.1 2467.99  10
   0   1  -4 105708. 2445.22   6
  -1   0  -4 88472.1 2476.48  35
  -1   1   4 105654. 2588.89  44
  -1   1   4 96521.2 2589.26   5
   0  -1   4 97218.3 2771.40  39
   0  -1   4 103393. 2649.91  31
   1   0   4 96767.0 2605.91  43
  -1   0  -4 102242. 2510.69  37
   1  -1  -4 95617.1 2568.88   9
   0  -1   4 98913.9 2803.93  38
   0  -1   4 90441.3 2504.30  26
   0  -1   4 99655.8 2616.92  34
  -1   1   4 93626.6 2499.19  31
   1  -1  -4 99666.6 2481.23   6
  -1   1   4 98870.6 2654.63  29
  -1   0  -4 93575.3 2533.88  17
  -1   1   4 93557.0 2568.74   4
   1   0   4 96152.0 2529.72   5
   0  -1   4 84434.5 2653.85  13
   0   1  -4 92417.0 2476.93  26
   1  -1  -4 97559.9 2521.69  44
  -1   0  -4 98119.8 2496.94  31
  -1   0  -4 89421.4 2481.26  36
   0   1  -4 105406. 2583.42  34
  -1   1   4 99323.6 2529.54  32
   1   0   4 94313.1 2544.47  32
   1   0   4 93606.3 2667.55  39
  -1   1   4 93353.2 2433.41  20
  -1   0  -4 87015.4 2321.02  18
  -1   1   4 101828. 2532.91  37
   1   0   4 99117.2 2396.46  13
   1  -1  -4 98245.8 2497.77   2
   0   1  -4 101344. 2567.82  33
   0  -1   4 93966.8 2656.73  42
  -1   0  -4 99752.8 2275.39  26
  -1   1   4 95400.0 2575.02  40
  -1   1   4 102366. 2534.98  33
  -1   0  -4 100386. 2497.19  33
   1   0   4 94801.3 2558.48  37
  -1   1   4 98216.3 2665.39   6
   1   0   4 89186.6 2670.18  36
   0  -1   4 91280.1 2496.03  29
   1   0   4 88699.3 2721.48  17
   0  -1   4 96280.2 2469.92  12
  -1   0  -4 91201.7 2416.95  21
  -1   1   4 89883.2 2548.96  39
  -1   1   4 109321. 2491.06  22
  -1   0  -4 95183.5 2522.19  14
  -1   0  -4 102102. 2407.05  15
   1  -1  -4 100184. 2501.27  41
   1   0   4 90119.1 2653.47  38
  -1   1   4 106158. 2405.31  26
   0  -1   4 101708. 2578.10   5
   1  -1  -4 101379. 2464.98   4
   0  -1   4 98295.5 2396.83  15
   1  -1  -4 89701.7 2466.29  38
   1  -1  -4 102258. 2446.70  34
  -1   1   4 85390.2 2473.42  42
   1  -1  -4 94506.1 2478.10  39
  -1   0  -4 90830.9 2501.12  38
   0   1  -4 97700.4 2633.74  44
  -1   1   4 91255.4 2599.30  38
  -1   0  -4 96765.5 2211.96  22
  -1   0  -4 93954.9 2413.91   4
   0  -1   4 99758.8 2573.16  25
  -1   1   4 98335.8 2447.66  14
  -1   0  -4 95973.1 2475.95   5
   0   1  -4 97973.3 2580.36  39
   1   0   4 95003.8 2567.14  27
   1   0   4 99900.3 2620.41   3
   0   1  -4 96107.0 2561.65  40
   1  -1  -4 88243.3 2472.37  36
  -1   0  -4 91022.2 2496.38  41
   1   0   4 90597.5 2530.06  24
   0   1  -4 102212. 2585.86  31
   1   0   4 93911.3 2651.78  40
   1   0   7 19033.4 1217.14  17
   0   1  -7 19710.1 910.743  25
   1   0   7 17426.1 945.702  15
   0   1  -7 17555.5 878.706  31
  -1   1   7 17765.0 985.113  15
   0   1  -7 19804.7 914.613  35
   0  -1   7 16901.2 1101.10  38
  -1   0  -7 19595.5 903.484  32
   0  -1   7 16729.0 979.919   6
   0  -1   7 16174.6 1040.96  27
   1  -1  -7 21101.8 877.453  34
   1  -1  -7 17133.9 815.482  32
   1  -1  -7 18853.7 842.837  33
   0   1  -7 17868.2 876.340  34
   1  -1  -7 18747.4 838.606  35
   1  -1  -7 16076.8 864.461   9
   1   0   7 17310.6 1085.52  41
   0   1  -7 19338.7 913.810  32
   0   1  -7 19386.2 913.756  33
   1   0   7 18978.1 1120.59  39
   0  -1   7 16956.3 1067.86  39
  -1   0  -7 19388.3 889.548  35
   0   1  -7 18480.3 943.602  14
   0  -1   7 17927.5 1027.77  13
   1   0   7 17680.3 1054.89   6
  -1   0  -7 19669.5 919.300  25
   1   0   7 19490.2 1122.05  40
   1  -1  -7 19491.1 879.496   2
   0  -1   7 17609.7 1102.12  41
   1   0   7 17280.3 1025.63   3
   1  -1  -7 16525.8 911.090  21
   1  -1  -7 20408.6 945.660  25
   1   0   7 17652.3 1075.84  27
  -1   0  -7 17970.4 897.386  14
  -1   0  -7 18565.0 880.971  31
  -1   1   7 16138.9 998.555   6
   1   0   7 19001.0 1072.77  43
  -1   0  -7 18066.5 859.971  34
   0  -1   7 16972.9 1066.65  40
  -1   1   7 17577.5 1023.76  29
   0   1  -7 19601.6 900.792   2
   1   0   7 18235.7 1056.69  42
  -1   1   7 19713.1 1191.74  17
   1   0   7 17710.5 1106.10  38
  -1   0  -7 17917.8 861.071  33
  -2   1   0 86372.4 1851.16  21
   1  -2   0 75869.1 1944.14  28
   1  -2   0 83467.9 1994.94  20
  -2   1   0 77977.0 1918.83  18
   1  -2   0 75844.7 1754.58  42
  -2   1   0 81650.3 1823.27  11
  -2   1   0 76954.6 1863.25  38
   1   1   0 76362.1 1931.60  34
   1   1   0 76985.7 1940.08  11
   1  -2   0 78930.4 1796.93  19
   1  -2   0 78089.0 1765.82  27
   1  -2   0 77156.6 1761.23  44
   1   1   0 86943.4 1960.96  38
   1   1   0 69631.8 1886.34  31
   1   1   0 73205.4 1926.26  44
   1   1   0 77869.8 1912.21  16
   1  -2   0 80735.3 1737.16  11
   1   1   0 75749.1 1922.56  40
  -2   1   0 81030.4 1885.99  37
   1   1   0 82033.0 1815.76   2
   1  -2   0 82128.5 1771.52  24
   1  -2   0 79550.9 1772.69  41
  -2   1   0 67799.1 1865.56   2
  -2   1   0 77807.1 1872.09  31
   1  -2   0 78955.7 1734.93  31
   1  -2   0 75997.1 1726.06  34
   1  -2   0 75698.1 1948.57   7
   1   1   0 74526.9 1924.27  19
   1   1   0 82332.5 1959.64  36
   1  -2   0 77232.6 1925.88  13
  -2   1   0 87468.7 2000.19  23
   1   1   0 79502.0 1980.19   8
   1   1   0 80558.2 1937.96  27
   1   1   0 75984.8 1932.40  33
   1  -2   0 75888.2 1761.15  39
   1  -2   0 77296.2 1890.36  16
  -2   1   0 72016.9 1860.59  35
   1  -2   0 85216.9 2073.40  22
  -2   1   0 78973.8 1877.09  36
  -2   1   0 83632.7 1899.75  40
   1   1   0 82022.6 1968.92  35
   1  -2   0 80567.6 1735.14  33
   1   1   0 77969.7 1920.87  37
  -2   1   0 77643.0 1939.28  24
  -2   1   0 74082.2 1858.26   8
   1   1   0 68931.8 1901.01  42
  -2   1   0 82462.8 1892.77  27
   1   1   0 75115.7 1929.14  39
  -2   1   0 81599.5 1932.89   3
   1  -2   0 75230.6 1729.15  32
   1  -2   0 83800.1 1997.45  30
  -2   1   0 80173.4 1861.11  42
  -2   1   0 82685.5 1869.05  43
   1   1   0 77624.1 1929.41  43
  -2   1   0 76268.3 1875.17  34
   1  -2   0 78655.4 1808.64   3
  -2   1   0 82603.6 1877.79  44
   1  -2   0 73199.0 1757.32  40
  -2   1   0 79050.5 1875.67  32
  -2   1   0 89203.0 1987.90   1
   1  -2   0 76451.6 1801.38   1
   1  -2   0 79402.8 1736.06  37
  -2   1  -3 37428.0 1174.88  26
   1   1  -3 42052.9 1148.86  12
  -2   1   3 46646.5 1357.12  37
   1  -2  -3 43869.4 1110.64  34
   1  -2   3 44271.3 1424.47  16
   1  -2  -3 40012.6 1108.81  41
   1   1   3 41324.1 1329.08  39
  -2   1  -3 39475.1 1216.82  18
   1   1   3 41565.3 1262.02  27
  -2   1   3 43902.4 1337.51  27
   1   1   3 34675.5 1171.77  24
   1  -2  -3 39260.2 1092.59  32
   1   1  -3 42702.3 1306.67   2
  -2   1   3 48954.0 1384.00  40
   1   1  -3 38413.9 1328.22  42
  -2   1  -3 43169.0 1284.97  34
  -2   1  -3 44489.0 1315.10  24
   1  -2  -3 41972.5 944.231  18
   1  -2   3 40455.3 1227.58   7
   1   1  -3 43490.4 1350.47  36
   1  -2   3 44309.8 1358.87  32
   1   1  -3 40445.9 1312.80  33
   1   1  -3 38522.3 1322.01  41
   1   1  -3 41177.3 1332.09  32
   1  -2   3 41171.5 1318.64  34
   1  -2  -3 43775.3 1109.03  33
  -2   1  -3 37757.6 1253.77  17
   1  -2   3 43781.9 1357.99  31
  -2   1   3 38654.7 1231.47  32
   1  -2  -3 46152.9 1279.95   6
  -2   1  -3 39604.8 1288.92  41
   1  -2  -3 45461.5 1281.98  25
  -2   1   3 46656.7 1292.30  20
   1   1   3 40653.7 1399.40  17
   1   1  -3 42516.4 1385.91  44
  -2   1   3 40731.0 1334.05   4
   1  -2  -3 46182.0 1123.42  35
  -2   1   3 48441.4 1391.90  39
   1   1   3 38192.1 1212.55  21
   1  -2   3 42162.3 1335.51  33
  -2   1  -3 43617.8 1303.17  32
  -2   1   3 39663.9 1188.58  30
   1   1   3 44836.3 1390.80  15
  -2   1   3 46254.9 1312.04  43
  -2   1  -3 39993.7 1238.21  25
  -2   1  -3 43710.2 1271.59   6
  -2   1  -3 42993.0 1256.24  43
   1   1   3 40473.8 1322.80  41
   1   1  -3 43018.2 1277.77   4
  -2   1  -3 38884.3 1280.70  36
   1  -2   3 40748.7 1431.55  27
   1  -2   3 42098.1 1263.31   6
  -2   1   3 42750.5 1261.25  35
   1   1   3 39948.8 1121.99   7
   1   1  -3 40309.8 1354.87  14
   1   1  -3 43382.8 1282.74   8
  -2   1  -3 42073.7 1281.49  33
  -2   1  -3 43049.6 1220.85   5
   1  -2  -3 43262.3 1186.51   2
   1   1   3 40777.0 1182.60   1
   1  -2  -3 47259.4 1133.26  31
  -2   1   3 37455.2 1221.08  33
  -2   1   3 42180.6 1253.71  34
   1  -2  -3 40708.0 1367.91   9
  -2   1   3 38935.2 1276.18   2
  -2   1   3 50427.8 1430.88  41
   1   1  -3 45892.1 1379.17  35
   1   1   3 43796.0 1317.38  44
   1  -2   3 41284.7 1454.94  39
   1  -2  -3 41311.9 1236.59  17
   1  -2  -3 40157.8 1126.05  36
  -2   1  -3 37991.6 1146.86  13
   1   1   3 38250.5 1295.96   6
  -2   1  -3 44238.0 1307.54  31
   1  -2   3 42193.4 1483.51  38
   1  -2   3 39342.5 1153.24  20
   1  -2  -3 38952.3 1109.85  38
   1   1   3 40949.5 1284.61   5
  -2   1   3 46697.2 1337.09  42
   1  -2   3 39761.4 1333.68  26
  -2   1   3 43288.9 1271.03  31
   1   1   3 41035.2 1269.12  43
  -2   1  -3 40984.0 1346.00  14
   1   1   3 42002.0 1256.71  37
  -2   1  -3 44110.7 1303.37  37
   1  -2   3 40151.7 1303.90  24
  -2   1   3 42632.0 1226.09   9
   1   1   3 40955.8 1335.63  38
   1  -2   3 42534.0 1205.68   5
   1  -2   3 42419.0 1342.18  37
   1   1   3 41813.7 1287.52  42
   1  -2  -3 41121.2 1093.64   8
   1  -2   3 40128.4 1335.02   1
   1  -2  -3 46210.3 1191.26   4
  -2   1   3 39486.6 1223.88  19
   1  -2   3 39382.6 1375.73  13
   1  -2   3 41175.3 1406.49  44
   1  -2   3 39704.9 1434.16  41
  -2   1   3 48741.5 1365.81  44
  -2   1   3 34912.4 1268.99  25
   1   1  -3 38269.1 1301.11  40
   1   1   3 40193.1 1266.90  14
  -2   1  -3 37624.7 1265.95  35
   1  -2   3 42281.2 1396.58  12
   1   1  -3 39060.8 1308.95  39
   1  -2   3 41879.1 1449.37  40
   1   1   3 39537.8 1338.46  36
   1   1  -3 41940.0 1394.63  26
  -2   1  -3 40567.8 1303.76  39
   1   1   3 40973.8 1252.81  32
  -2   1  -3 33825.7 1230.61   1
   1  -2   3 43444.6 1234.02  25
   1   1  -3 39596.5 1310.13  27
  -2   1  -3 38760.5 1267.13  38
  -2   1   3 42824.3 1281.73  11
   1  -2  -3 42021.0 1121.78  39
   1   1  -3 41451.7 1315.81  34
  -2   1   3 45752.0 1426.13   6
   1  -2  -3 42859.9 1349.56  21
  -2   1  -3 42734.3 1175.85  15
   1   1   3 44558.0 1221.32   3
   1   1  -3 39706.6 1354.13  38
   1  -2   3 42329.3 1441.19  14
   1  -2  -3 45661.3 1171.09  23
   1   1   3 41701.7 1262.92  31
  -2   1   6 64909.6 2179.95  37
   1   1   6 71964.7 2486.10  17
   1  -2   6 67800.6 2446.38  27
  -2   1  -6 75900.7 2182.67  32
  -2   1   6 65669.2 2225.58  27
   1   1   6 70046.9 2341.14  41
   1   1  -6 69239.4 2109.53   2
   1   1   6 70703.6 2351.74  39
   1   1   6 72512.7 2256.81  43
   1  -2  -6 75028.7 2070.07   2
  -2   1   6 72314.0 2308.13  29
   1  -2   6 63160.6 2194.26   6
   1   1   6 64924.5 2300.49   6
   1   1  -6 75705.3 2185.11  36
  -2   1   6 73052.7 2312.26  41
  -2   1  -6 75810.8 2164.07  33
   1   1   6 67914.5 2306.51  40
   1   1  -6 73177.5 2149.33  34
   1   1  -6 69799.7 2127.53  33
   1  -2   6 69671.9 2492.95  41
   1  -2   6 62856.8 2252.74  13
  -2   1   6 73086.8 2314.03   4
   1   1   6 69265.4 2228.29  42
   1   1  -6 69083.8 2099.69  26
  -2   1  -6 70599.0 2204.73  14
   1  -2  -6 77509.3 2175.98  25
   1   1  -6 70700.9 2129.52  35
   1   1   6 70769.4 2367.85  38
   1  -2   6 68059.4 2454.63  40
  -2   1  -6 76637.8 2190.99  31
  -2   1   6 72258.3 2293.72  40
   1  -2  -6 70276.2 2250.78   9
  -2   1   6 72864.9 2354.88   6
   1  -2   6 71485.4 2392.22  43
   1   1   6 64760.0 2252.53  15
  -2   1   6 71285.8 2277.16  39
   1   1  -6 67751.4 2228.59  44
   1  -2   6 67461.8 2474.26  39
   1  -2  -6 66073.0 2138.10  21
   1   1  -6 74041.1 2237.26  14
  -2   1  -6 77660.1 2157.36  25
  -2   1  -6 76200.2 2158.92  34
  -2   1  -6 76164.5 2110.68   5
   1  -2   6 68720.3 2520.16  38
   1   1  -6 72582.0 2165.94  32
   2  -1   0 88054.8 2107.23  35
   2  -1   0 81141.4 2009.22  11
  -1   2   0 89531.3 1920.90  32
  -1  -1   0 94247.6 2099.24  42
  -1  -1   0 96553.8 2115.14  44
   2  -1   0 86733.0 1986.13  21
  -1  -1   0 89116.0 2119.93  19
  -1   2   0 83331.2 1908.19  33
  -1   2   0 77495.2 1916.93  36
  -1  -1   0 89062.9 2072.44  43
   2  -1   0 89680.2 2019.75  19
   2  -1   0 91265.6 2127.35  23
   2  -1   0 91987.5 2119.31  38
  -1   2   0 89040.1 1979.42   3
   2  -1   0 85824.5 2100.56  34
  -1  -1   0 84182.4 2061.98  36
  -1   2   0 76917.4 1912.51  38
  -1   2   0 89505.3 1940.84  24
  -1  -1   0 78856.1 2055.29  34
   2  -1   0 84359.8 2061.62  42
  -1  -1   0 86173.2 1996.55  24
  -1   2   0 82956.5 1923.73  44
   2  -1   0 92543.2 2128.82  41
   2  -1   0 89812.2 2079.76  43
  -1  -1   0 86956.3 1977.53   4
   2  -1   0 86723.0 2152.12   3
  -1  -1   0 88436.5 1972.20   2
  -1   2   0 81463.8 1905.87  35
  -1  -1   0 86197.6 2089.88  31
   2  -1   0 88915.8 2104.59  36
  -1   2   0 90356.8 2144.77  20
  -1   2   0 104504. 2166.95  30
   2  -1   0 89257.8 2136.69  18
   2  -1   0 92075.3 2107.16  44
   2  -1   0 88555.9 2069.31  31
  -1   2   0 81359.1 1914.20  40
  -1   2   0 88952.2 1916.98  34
  -1   2   0 89692.9 2096.46  13
  -1   2   0 86331.1 2110.64  28
  -1  -1   0 89861.7 2123.31  40
  -1   2   0 95617.9 2118.97  26
  -1   2   0 99637.7 2122.49  16
   2  -1   0 92765.2 2160.10  12
  -1  -1   0 93595.9 2200.95  26
  -1  -1   0 88698.8 2104.99  27
  -1  -1   0 88992.9 2139.58   8
  -1   2   0 90229.7 1991.29   1
  -1  -1   0 85937.6 2073.29  35
   2  -1   0 88740.1 2073.30  27
  -1   2   0 94252.5 2207.29  12
  -1   2   0 82127.9 1919.85  39
  -1   2   0 92033.1 2086.28   8
  -1  -1   0 89038.3 2081.11  38
   2  -1   0 89285.8 2080.30  40
  -1   2   0 83535.5 1920.94  41
  -1   2   0 81715.6 1952.53  19
  -1   2   0 86495.6 2101.71  10
   2  -1   0 89957.7 2075.48  37
  -1   2   0 85487.4 2021.19  14
   2  -1   0 78994.1 2104.73  24
  -1  -1   0 90438.7 2066.11  16
  -1   2   0 87684.6 2115.30   7
  -1  -1   0 78200.4 2062.50  37
  -1  -1   0 75596.0 2045.57  33
  -1  -1   0 84994.2 2000.35   9
   2  -1   0 87793.1 2110.35  30
  -1   2   0 93637.6 2200.19  22
  -1  -1   0 90383.0 2097.18  11
  -1  -1   0 92635.8 2131.13  39
  -1  -1   3 41833.5 1278.23   6
  -1  -1  -3 43546.2 1259.18  32
  -1   2   3 45960.4 1410.89  22
  -1  -1  -3 43626.4 1272.72   6
   2  -1   3 42543.1 1363.75  37
  -1   2   3 42506.2 1334.37  17
  -1   2   3 42796.8 1148.14  43
  -1   2   3 47734.2 1329.55   5
   2  -1  -3 45642.7 1310.31  36
  -1   2   3 44213.6 1147.54  37
  -1  -1   3 43451.4 1398.60  16
   2  -1  -3 43353.4 1289.88  33
  -1   2   3 43100.8 1144.20  31
   2  -1  -3 45304.4 1375.71   2
  -1   2  -3 46336.9 1354.71  35
  -1   2   3 44651.2 1092.26  14
  -1   2  -3 45013.5 1165.79  29
   2  -1   3 43120.8 1376.76  27
  -1   2  -3 43770.5 1341.26  32
  -1   2  -3 46757.4 1255.51  25
   2  -1  -3 41729.6 1287.55  27
  -1   2   3 40586.2 1314.31  10
  -1  -1   3 43937.4 1206.06  29
   2  -1  -3 49688.5 1356.07  40
  -1   2  -3 43723.6 1083.58  22
   2  -1   3 42320.7 1270.69   5
  -1   2  -3 46070.1 1438.50  14
  -1   2  -3 44366.2 1204.78   6
  -1  -1   3 42935.4 1372.91  32
  -1  -1   3 43442.1 1372.14  35
  -1  -1   3 43723.0 1375.49  34
  -1  -1   3 44644.4 1473.53  40
  -1   2   3 41951.8 1133.04  33
  -1   2  -3 41192.3 1374.08  44
   2  -1   3 45022.5 1373.24  24
   2  -1  -3 42902.4 1335.32  44
  -1   2  -3 41982.4 1368.00  12
  -1  -1  -3 42787.5 1288.04  25
  -1  -1  -3 41509.1 1254.30  38
  -1   2   3 45252.8 1244.96  38
  -1   2  -3 44057.7 1332.45  13
  -1   2  -3 41955.4 972.243  10
  -1  -1   3 43069.5 1369.90  33
  -1   2   3 44635.9 1217.89  40
   2  -1   3 39858.3 1331.16  33
  -1  -1  -3 44419.6 1225.41  43
  -1   2  -3 44035.5 1333.03  34
  -1  -1  -3 43588.4 1253.71  33
  -1   2   3 41724.9 1358.21  21
  -1  -1  -3 45735.9 1366.51  17
  -1  -1   3 43618.7 1424.63  11
   2  -1   3 39932.2 1418.74  17
   2  -1  -3 43670.1 1220.08   9
   2  -1  -3 43188.0 1303.60  35
  -1  -1   3 42693.3 1453.08  39
  -1   2   3 45560.4 1164.76  42
  -1  -1   3 44920.0 1438.16   4
  -1  -1  -3 43701.8 1199.40  21
  -1   2   3 32497.5 1315.75  15
  -1   2  -3 40699.6 1338.96  38
   2  -1  -3 41240.5 1321.15  38
   2  -1   3 41787.9 1384.73  43
  -1   2   3 42985.5 1199.07  44
  -1  -1   3 42081.2 1366.15  31
  -1   2  -3 46613.5 1366.72  31
   2  -1  -3 38941.2 1285.07  41
   2  -1  -3 41554.8 1307.19  42
   2  -1   3 43215.5 1470.58  39
  -1  -1   3 44444.0 1481.70  41
  -1  -1   3 40819.9 1410.98  37
  -1  -1  -3 43892.3 1122.20   7
  -1  -1   3 44043.9 1423.33  44
  -1  -1   3 44117.9 1337.52  25
  -1   2   3 44827.1 1352.05   7
  -1   2   3 42583.1 1215.18  41
  -1   2   3 49510.4 1486.64   9
  -1   2  -3 42387.4 1336.40  40
  -1  -1  -3 41179.0 1242.42  31
   2  -1   3 42880.8 1370.02  32
  -1  -1  -3 41001.6 1263.35  35
  -1  -1  -3 40830.7 1273.96  22
  -1   2   3 43921.5 1377.62   6
  -1  -1  -3 42118.4 1261.42  15
  -1  -1  -3 45686.6 1297.18   5
  -1   2  -3 44553.7 1358.07  26
   2  -1  -3 48769.7 1432.72  23
   2  -1   3 42065.7 1391.28  42
  -1  -1   3 42862.5 1407.63  42
  -1   2   3 40644.7 1131.44  32
   2  -1  -3 42416.0 1242.36  14
   2  -1  -3 44892.6 1316.33  39
   2  -1   3 44470.7 1264.36  13
  -1  -1  -3 41353.3 1252.88  41
   2  -1   3 43530.4 1472.49  12
   2  -1   3 43729.3 1505.40  36
  -1  -1   3 41251.3 1420.07  27
   2  -1  -3 36984.3 1266.68  17
   2  -1  -3 43451.6 1247.66  20
   2  -1   3 43814.3 1482.41  38
  -1  -1  -3 40324.9 1317.62   8
   2  -1   3 37341.9 1314.61   1
  -1   2   3 47059.7 1245.78  39
   2  -1  -3 43646.0 1300.80  32
  -1   2   3 46782.1 1269.74   4
  -1  -1   3 39804.3 1408.23  26
   2  -1   3 41729.6 1452.38  41
   2  -1  -3 46368.8 1332.00  34
  -1   2  -3 41773.6 1347.07  39
  -1   2   3 38843.7 1372.17  29
   2  -1   3 42872.6 1415.07  14
  -1   2   3 41478.1 1221.04  23
  -1  -1  -3 44237.3 1260.85  37
  -1   2  -3 41673.3 1360.75  36
   2  -1   3 42505.8 1465.35  40
  -1  -1  -3 46641.3 1226.16   1
  -1   2  -3 43921.9 1331.79  33
   2  -1  -3 48810.3 1364.43   4
  -1  -1  -3 44084.9 1225.35  42
   2  -1  -3 46107.2 1102.99   8
   2  -1  -3 40951.0 1440.18  21
   2  -1  -3 41818.2 1322.76  10
  -1   2  -3 38282.1 1307.40  41
  -1  -1  -3 40664.2 985.369  26
  -1   2  -3 42166.6 1389.80  17
  -1  -1  -3 41847.9 1315.66  29
  -1   2   3 41358.4 1191.85  27
  -1  -1  -3 40907.0 1091.93  18
  -1  -1   3 43521.2 1462.57  19
  -1  -1  -3 42543.4 1276.97  36
  -1   2   3 50828.7 1384.55  25
   2  -1   3 43658.9 1383.81  31
   2  -1   3 43794.3 1410.07   3
  -1   2   3 40301.0 1341.14  20
  -1  -1   6 64985.5 2331.51  41
  -1  -1   6 61163.4 2118.17   6
   2  -1  -6 59525.8 2132.33  21
  -1   2  -6 67803.7 2089.54  32
  -1  -1   6 67418.1 2332.56  19
  -1  -1  -6 67078.2 2243.57   9
   2  -1  -6 69341.9 1986.80  33
  -1   2  -6 67818.6 2085.28  31
  -1   2  -6 68774.2 2077.62  34
  -1  -1   6 67590.9 2342.41  39
   2  -1   6 60572.8 2225.56   6
   2  -1   6 73337.3 2493.94  41
  -1   2   6 66340.7 2308.01  17
   2  -1  -6 65321.8 1969.20  32
   2  -1   6 70068.2 2466.43  39
   2  -1  -6 70490.8 2010.29  36
  -1   2  -6 72842.2 2037.35  25
  -1  -1  -6 67219.6 1983.44  31
  -1  -1  -6 68221.3 2006.41  14
  -1   2   6 67661.7 2282.31  15
  -1   2  -6 70329.1 2014.91  26
   2  -1   6 71682.5 2362.06  42
   2  -1  -6 69474.0 2042.36   2
   2  -1   6 66373.3 2460.63  17
   2  -1  -6 65302.6 2083.25  44
  -1  -1   6 67512.8 2339.62  27
  -1   2  -6 72717.5 2102.49  35
   2  -1   6 69894.9 2340.59  43
   2  -1  -6 68125.9 1975.22  35
  -1  -1  -6 64067.8 1954.83  33
  -1   2   6 65793.6 2256.19   6
   2  -1   6 68118.2 2422.40  40
  -1  -1   6 67237.3 2345.60  40
   2  -1   6 71091.9 2344.68   3
  -1  -1  -6 71939.2 2092.84  25
  -1   2  -6 65216.0 2147.49  14
   2  -1   6 68499.6 2452.35  38
  -1  -1   6 63984.6 2263.43  37
  -1  -1  -6 69260.9 1980.62  34
   2  -1  -6 65726.5 1959.40  34
  -1   2  -6 69286.8 2080.21  33
  -1   2   6 72091.1 2372.70  29
  -1  -1  -6 76465.2 2053.45  32
  -1  -1  -6 70565.6 2069.62   5
   2   0  -7 121.694 105.406   2
   0   2   7 108.096 195.501  17
   0   2   7 120.004 169.984   6
  -2   2  -7 249.706 147.517  31
   2  -2   7 32.2227 190.336  17
   2   0  -7 251.253 141.077  35
  -2   2  -7 296.318 155.674  35
   2  -2   7 149.069 224.481  41
  -2   0   7 176.290 156.077  19
   2   0  -7 163.653 114.196  34
  -2   2  -7 176.832 123.383  34
   0  -2  -7 237.570 162.635   9
  -2   0   7 47.7055 153.552  39
   2   0  -7 229.211 131.604  32
  -2   2  -7 166.547 132.470  32
   2   0  -7 115.115 141.682  44
   2  -2   7 155.913 162.815  43
   2  -2   7 29.7219 180.971  39
   2  -2   7 144.894 196.103  40
  -2   0   7 111.487 150.907  37
   2  -2   7 263.718 190.785   3
  -2   2  -7 428.410 163.261  25
   2   0  -7 138.630 136.502  36
   0   2   7 202.493 186.892  29
   2  -2   7 124.243 205.123  38
   0   2   7 141.912 174.643  15
   2  -2   7 56.7143 167.512  27
   2  -2   7 157.296 177.414  42
  -2   0   7 490.682 245.707  41
  -2   0   7 173.991 143.651   6
   2   0  -7 134.098 116.464  33
  -2   0   7 166.591 168.554  40
  -2   2  -7 292.662 142.066  33
  -2   0   7 137.347 165.614  27
  -2   0   7 69.3283 127.717   4
   2  -2   7 213.510 175.170   6
   0  -2  -7 280.491 136.162  25
  -2   2  -7 327.972 161.173  14
  -2   0   4 15544.3 775.775   6
   2   0  -4 15268.9 748.544  14
   0   2   4 16475.5 759.695  36
   0   2   4 15598.8 719.947  40
   0  -2  -4 16727.3 728.589  22
   2   0  -4 14757.0 736.174  40
  -2   0   4 15402.4 772.250  11
  -2   0   4 16909.7 850.860  27
   2  -2   4 17470.2 865.892  43
  -2   0   4 15437.0 813.295  37
   2  -2   4 15846.0 841.047   3
   2   0  -4 16937.5 708.370  10
   0   2   4 15580.7 672.823  42
  -2   2  -4 16803.2 712.472  25
  -2   0   4 15293.2 747.027   2
  -2   0   4 15610.8 756.459  35
   2   0  -4 17612.7 776.517  34
   2   0  -4 15251.9 760.502  41
  -2   2  -4 17832.8 698.546   5
   0   2   4 15046.4 748.149  21
   0   2   4 16347.5 752.343   5
  -2   0   4 16975.7 813.002  19
   2   0  -4 16388.3 797.563  38
  -2   2  -4 16663.6 758.575  34
   0  -2  -4 17476.2 902.527   9
   0  -2  -4 15143.6 624.971  31
   2  -2   4 17022.8 713.327   5
   0  -2  -4 19814.4 679.537  33
  -2   0   4 15644.2 759.135  34
   2  -2   4 17226.1 812.153  33
  -2   2  -4 17830.2 791.454  32
  -2   2  -4 18455.5 814.814   1
   2   0  -4 16349.3 807.456  17
   0   2   4 14329.4 818.275  29
  -2   0   4 15999.9 767.077  32
   0  -2  -4 16941.9 719.225   8
  -2   2  -4 15297.3 749.955  17
   2   0  -4 17642.2 787.061  36
  -2   0   4 16722.1 797.040  25
   2  -2   4 17737.1 829.521  32
   0   2   4 15113.1 808.905  17
   0   2   4 16035.0 682.154  43
  -2   0   4 15631.2 762.660  31
   2  -2   4 17807.4 906.927  14
   0  -2  -4 16272.8 639.801  37
  -2   2  -4 16643.9 768.168  31
  -2   2  -4 16142.1 761.977  41
   2  -2   4 16889.6 818.585  31
  -2   0   4 16024.4 804.010   4
   2   0  -4 17889.0 842.895  44
  -2   0   4 17480.1 878.953  39
   0  -2  -4 19091.0 672.401   2
   0  -2  -4 19930.5 804.161  29
   0  -2  -4 17186.1 761.347  17
  -2   0   4 15977.5 778.016  43
   0  -2  -4 16720.5 717.707   6
   2   0  -4 18130.3 673.509   8
   0   2   4 16837.9 755.182  10
  -2   2  -4 16526.4 683.025  29
   2  -2   4 16694.1 873.928  12
   0   2   4 16200.5 740.052  38
  -2   2  -4 16234.9 784.789  36
  -2   2  -4 16954.3 835.412  14
   2   0  -4 16185.6 762.667  32
   0  -2  -4 15617.8 635.142  38
   0  -2  -4 16720.5 744.152  21
   2  -2   4 17941.3 879.243  42
  -2   2  -4 17142.3 770.844  33
  -2   0   4 17248.4 819.396  42
   0  -2  -4 18137.1 751.927   5
   2  -2   4 16809.9 813.628  37
   2   0  -4 15146.9 773.703  42
  -2   0   4 16889.3 875.920  41
  -2   2  -4 17191.7 720.109  13
   2   0  -4 16639.1 725.794   4
   2  -2   4 15894.4 912.236  38
   2   0  -4 16190.4 760.717  27
   0  -2  -4 16369.9 657.098  39
   0   2   4 17951.4 787.760  25
   2  -2   4 16775.8 929.221  41
   2   0  -4 17048.6 790.242  39
  -2   0   4 16795.9 748.272  29
   2  -2   4 16066.5 794.421  24
  -2   0   4 13992.2 728.342  26
  -2   2  -4 15954.4 718.056  18
   2  -2   4 17365.3 953.929  17
   0  -2  -4 17711.6 661.002  32
  -2   0   4 18341.0 852.876  44
  -2   2  -4 16201.6 769.084  39
   0   2   4 15977.0 805.468   6
  -2   0   4 17734.7 882.901  40
  -2   2  -4 16670.0 733.183  26
   2   0  -4 17290.8 789.923  35
   2   0  -4 16666.7 764.181   2
   0  -2  -4 14972.6 636.185  35
   2  -2   4 15710.4 783.956  13
   2  -2   4 17947.8 945.556  40
   0  -2  -4 15986.9 720.388  25
   2  -2   4 16510.6 926.086  39
   2  -2   4 15544.5 797.494   1
   0   2   4 16043.8 736.965  39
   0  -2  -4 15137.5 641.644  36
   0   2   4 14411.3 820.605  15
  -2   2  -4 16894.5 789.210  38
   2   0  -4 19566.3 887.415  23
   0   2   4 15605.0 726.357  41
   2  -2   4 16497.7 874.752  44
   0  -2  -4 15860.9 643.120  41
   0   2   4 18800.4 835.585  22
   2  -2   4 15221.1 720.507  25
  -2   2  -4 17888.1 708.426   6
  -2   0   4 16449.5 772.446  33
   2   0  -4 15654.8 745.311  33
   0  -2  -4 18218.5 658.608  34
   0   2   1 18210.0 571.166  36
   0  -2  -1 18303.8 570.819  13
   2   0  -1 17803.9 690.066  37
   0   2   1 17929.8 575.118  35
   2  -2   1 20629.0 796.898  30
   0  -2  -1 17412.4 552.867  38
   2   0  -1 17262.8 697.904  39
   2   0  -1 17922.7 708.236  43
   0   2   1 17126.9 571.272  44
   0  -2  -1 17295.4 553.079  33
   2  -2   1 19551.9 777.957  20
  -2   0   1 17976.0 671.588   4
  -2   2  -1 18515.3 634.990  41
   2   0  -1 18287.3 718.145  35
  -2   2  -1 16797.7 651.417  18
  -2   0   1 16818.6 662.030  35
   0  -2  -1 19602.9 686.466   8
   2   0  -1 18978.0 740.823  18
   0   2   1 17444.9 641.094  29
  -2   2  -1 19816.9 704.813   1
  -2   0   1 20503.0 718.410  44
   0   2   1 18263.4 624.380  19
   2  -2   1 19937.0 647.059  43
  -2   0   1 18498.8 659.739   2
  -2   2  -1 18597.2 623.742  31
   2   0  -1 18644.5 727.623  34
   0  -2  -1 18112.0 559.716  34
  -2   0   1 17657.7 672.862  34
   2  -2   1 18977.2 701.719  10
   2   0  -1 20520.5 721.401   2
   0  -2  -1 19315.0 561.587  44
   0   2   1 18296.2 594.816   5
   0   2   1 18978.9 677.748  21
  -2   2  -1 17703.2 618.515  38
   2  -2   1 19281.3 641.082  27
  -2   0   1 19891.2 728.780  27
   0  -2  -1 18797.4 726.236   9
   2   0  -1 18917.7 724.646  38
   0  -2  -1 17691.3 542.033  43
  -2   2  -1 17607.1 659.871  14
   2   0  -1 21090.9 769.322  23
  -2   2  -1 17922.7 611.204  33
   0  -2  -1 19304.6 560.588   6
  -2   0   1 20336.8 707.372  42
  -2   0   1 18036.8 675.757  33
   2  -2   1 18404.5 633.288  17
   2   0  -1 16543.6 680.291  27
   0   2   1 17495.4 569.600  34
  -2   2  -1 17673.9 565.563  17
   2  -2   1 17754.8 676.109  39
   2   0  -1 17566.2 705.665  42
  -2   2  -1 19716.0 634.196  32
   2  -2   1 18847.5 730.692  18
  -2   2  -1 18300.2 605.333  43
   2   0  -1 17955.5 668.275   8
   0   2   1 19001.5 679.066   8
   2  -2   1 19117.5 726.716  13
   0  -2  -1 18218.9 553.067  32
  -2   2  -1 19874.1 791.894  12
   2   0  -1 19868.2 699.307   4
  -2   0   1 17829.3 646.813   8
  -2   0   1 18744.4 583.366  16
  -2   2  -1 18768.4 624.591  37
   2  -2   1 21397.6 645.475  16
   0  -2  -1 18717.8 556.641  31
   2   0  -1 20179.3 751.354  36
  -2   0   1 19237.5 710.400  31
   0   2   1 18545.0 570.578  31
   0   2   1 17908.0 574.410  40
   0  -2  -1 13451.6 590.847  15
   0  -2  -1 19223.9 627.348  29
  -2   2  -1 17458.2 622.229  36
   0   2   1 17464.0 569.275  42
  -2   0   1 17807.2 670.251  36
   0   2   1 21023.2 729.699   7
   2   0  -1 17614.4 503.064  30
   0   2   1 16932.6 649.171  15
   0   2   1 19030.0 738.560   9
  -2   0   1 19423.6 690.802  19
   0  -2  -1 17694.7 590.831   5
   2   0  -1 18544.3 683.547  19
   0  -2  -1 17065.7 667.913   7
   0   2   1 16894.0 563.998  27
   2  -2   1 20437.5 700.911  24
  -2   0   1 20325.6 747.198  39
   2  -2   1 18142.5 664.027  28
  -2   2  -1 18994.9 613.602  42
  -2   2  -1 19627.1 689.143  13
   2  -2   1 16925.8 743.409  12
   2  -2   1 19256.2 710.613  14
   0  -2  -1 19410.0 553.187  42
   0  -2  -1 19176.9 583.584  26
   0   2   1 18751.7 560.511   6
  -2   0   1 20198.5 703.718  43
   0  -2  -1 18926.7 570.426  36
   0  -2  -1 19739.5 634.396  19
  -2   0   1 19350.7 724.919  40
  -2   2  -1 19857.1 650.434  39
   2  -2   1 18918.8 704.723  36
   2  -2   1 19322.8 635.717  37
   2  -2   1 17557.4 671.918  41
   0   2   1 18284.9 579.966  13
   0   2   1 18888.5 584.589  41
   0  -2  -1 18806.4 566.023  40
   0  -2  -1 17236.0 640.552  28
   2  -2   1 18268.9 691.056   1
   0  -2  -1 17508.7 744.300  22
  -2   2  -1 16762.2 612.694  35
   0  -2  -1 19077.9 599.957  11
   0   2   1 19491.4 671.870  28
   0  -2  -1 19353.7 567.365  27
   2  -2   1 18818.9 684.896  40
   0  -2  -1 19390.7 565.786  37
  -2   2  -1 20094.9 684.724   3
   0   2   1 17032.7 570.822  39
  -2   2  -1 18262.9 517.083   5
   0   2   1 22528.3 652.873  26
   2  -2   1 17899.6 616.731  33
  -2   0   1 19245.2 709.848  37
   2   0  -1 17679.1 696.536  11
   0   2   1 18943.8 580.877  43
   0  -2  -1 18395.2 559.627  25
  -2   0   1 19425.7 682.802  11
  -2   2  -1 18657.1 664.224  24
   2  -2   1 19008.6 631.454  32
   2  -2   1 19505.3 640.176  31
   2   0  -1 18695.6 728.211  44
   2  -2   1 20123.1 710.714  38
  -2   2  -1 18407.4 620.129   7
   2  -2   1 20146.9 728.268   3
  -2   2  -1 17983.8 611.448  34
   2   0  -1 17966.7 701.549  40
   2  -2   1 19396.7 644.554  42
   0   2   1 19044.0 582.001  38
   2   0  -1 17538.5 706.564  33
   0   2   1 17389.8 560.347  37
   0   2   1 19004.6 631.494  11
  -2   2  -1 19489.8 652.953  28
   0  -2  -1 17819.9 555.628  35
   0   2   1 23981.7 853.670  22
  -2   0  -2 115332. 2850.12  41
   0   2  -2 130554. 2974.18   8
  -2   2   2 114894. 2919.61  20
   2  -2  -2 117456. 2524.91  14
   2  -2  -2 128440. 2740.93  18
  -2   0  -2 116971. 2799.17   1
  -2   2   2 124404. 2938.44  21
   0   2  -2 128849. 3018.28  26
   2   0   2 114963. 2845.14   5
   2  -2  -2 120880. 2963.10  21
   2  -2  -2 100394. 2608.09  36
   2  -2  -2 128723. 2660.53  38
   2  -2  -2 119110. 2648.11  33
   2   0   2 111398. 2954.50  35
  -2   2   2 144291. 3083.87  10
   0   2  -2 126405. 2906.97  35
  -2   0  -2 107629. 2818.02  35
   0  -2   2 119182. 2878.57  35
  -2   0  -2 114999. 2810.08   5
   0   2  -2 111888. 2857.98  40
  -2   2   2 121878. 2794.30   2
   2   0   2 112964. 2874.62  27
  -2   2   2 107776. 2709.72  12
  -2   2   2 122445. 2658.44  34
   0  -2   2 124711. 3050.59  19
   2  -2  -2 122459. 2957.37  20
   0  -2   2 117797. 2871.37  34
   0   2  -2 117266. 2892.66  41
   2  -2  -2 134492. 2909.68  23
   0  -2   2 109863. 2941.53  26
  -2   2   2 122532. 2856.57   9
   0  -2   2 120488. 2997.37  27
   0   2  -2 131056. 2921.53  33
   2  -2  -2 104242. 2640.32  27
  -2   2   2 134793. 2680.02  33
  -2   0  -2 123308. 2865.09  37
   2   0   2 116572. 2922.86  44
   0  -2   2 114526. 2855.91  33
  -2   0  -2 108008. 2739.43  18
   0  -2   2 122248. 3086.89  13
   2  -2  -2 133396. 2985.95   9
  -2   2   2 122793. 2704.86  18
   0  -2   2 114455. 2983.88  39
  -2   0  -2 117176. 2829.54  33
  -2   0  -2 113076. 2906.79   8
  -2   2   2 118529. 2725.10  17
   0  -2   2 125804. 2741.68  25
   0   2  -2 125021. 2915.30  32
  -2   2   2 109980. 2636.54  32
   0  -2   2 114898. 2864.58  32
   0  -2   2 134372. 3013.24  11
   2  -2  -2 118508. 2660.34  17
   0  -2   2 130736. 3062.08  41
   2   0   2 123935. 2997.59  17
  -2   0  -2 119452. 2848.86  32
   0   2  -2 123442. 2895.80  34
  -2   0  -2 104961. 2575.45  13
  -2   2   2 118672. 2813.07   4
   2   0   2 117649. 2982.47  36
   0   2  -2 116381. 2900.32  42
   0  -2   2 115997. 2985.12  40
   2   0   2 119837. 2936.72  14
  -2   2   2 122757. 2645.32  44
   0   2  -2 124409. 2819.67   4
  -2   2   2 124754. 2659.40  35
   0  -2   2 122532. 2955.83  16
  -2   0  -2 120757. 2864.15  31
   2  -2  -2 124813. 2843.33   2
  -2   2   2 120556. 2634.26  43
   2  -2  -2 122775. 2996.30  10
  -2   2   2 120234. 2641.19  31
   0  -2   2 113284. 2726.00  30
  -2   2   2 120547. 2884.18  30
  -2   0  -2 111507. 2808.15  15
   2  -2  -2 117628. 2668.91  42
  -2   0  -2 121007. 2811.51  42
   0   2  -2 115200. 2954.92  14
  -2   2   2 115322. 2643.84  40
   0  -2   2 113895. 2845.69  22
   0  -2   2 115006. 2945.31  37
  -2   0  -2 112780. 2839.60  38
   2  -2  -2 117586. 2676.37  44
   2  -2  -2 135037. 2702.92  39
   0   2  -2 117357. 2592.35  20
   2  -2  -2 112758. 2636.31  35
   0   2  -2 108106. 2874.28  12
   0  -2   2 116158. 2868.99  31
   2  -2  -2 114133. 2659.54  40
   0  -2   2 119279. 2942.95  42
  -2   2   2 119904. 2650.30  27
  -2   2   2 131414. 2654.21  42
  -2   0  -2 116070. 2867.69  36
   2  -2  -2 112668. 2667.94  41
   0   2  -2 111862. 2860.78  27
  -2   2   2 124645. 2653.89  37
   2   0   2 116430. 2959.74  41
   0   2  -2 121348. 2942.09  44
   0   2  -2 134476. 2945.77  36
   2   0   2 133419. 2903.13  24
   2   0   2 116900. 2892.19  40
   2   0   2 106672. 2794.69   1
   2   0   2 118554. 2922.77  43
  -2   0  -2 105131. 2808.44  34
   2   0   2 119721. 2920.50  11
  -2   2   2 119663. 2574.66  19
  -2   2   2 121156. 2844.73  25
   2   0   2 111643. 2858.27  37
  -2   2   2 120837. 2661.73  39
   2   0   2 121039. 3002.48  39
   2   0   2 117634. 2845.41  18
   0  -2   2 116900. 2666.48   6
  -2   2   2 111734. 2842.55  23
   0   2  -2 105656. 2852.07  39
  -2   0  -2 122582. 2873.96  27
   2   0   2 115727. 2904.08  42
  -2   0  -2 120811. 2808.14  43
  -2   0  -2 108128. 2796.00  24
  -2   0  -2 118373. 2773.22   3
   0   2  -2 112558. 2899.14  38
   2  -2  -2 108273. 2626.00  34
   0   2  -2 120063. 2617.83   6
  -2   0  -2 124435. 2849.56   6
   2   0   2 113749. 2941.98  38
   0  -2   2 112535. 2931.99  44
  -2   2   2 112388. 2637.16  11
   2   0   2 112773. 2856.55  32
   2   0   2 111876. 2865.51  31
   2   0   2 110218. 2826.52   3
  -2   0  -2 116223. 2608.96  23
   0   2  -5 22294.2 899.046  25
  -2   2   5 20458.8 961.347   5
   2   0   5 20350.0 994.829  43
  -2   0  -5 19889.2 881.423  36
  -2   2   5 21118.6 1044.25  29
  -2   2   5 20131.1 900.196  20
   0  -2   5 20349.7 906.576  25
   2  -2  -5 20567.1 796.480  36
   2   0   5 18852.8 944.200  15
  -2   2   5 20183.7 909.225  10
   2   0   5 18820.1 1065.28  17
   0   2  -5 20749.1 926.574  35
   2   0   5 23755.7 992.140   1
   2  -2  -5 21250.8 882.461  10
  -2   0  -5 19907.4 867.059  37
   2  -2  -5 21329.7 798.668  34
   0   2  -5 21501.4 935.414  34
  -2   0  -5 19684.2 852.001  34
  -2   0  -5 18197.5 851.913  35
   0  -2   5 18941.2 1067.20  13
   0   2  -5 21574.2 937.639  33
   2  -2  -5 19143.6 879.048   9
  -2   0  -5 20837.5 878.383  33
   2   0   5 19991.7 930.391  33
  -2   2   5 23368.7 1063.57  17
   0   2  -5 21691.4 951.401  32
   2  -2  -5 19092.6 845.598  17
  -2   0  -5 21052.0 884.953  32
  -2   0  -5 20844.9 928.731  14
   2   0   5 20308.6 975.979  14
   2   0   5 18650.0 1021.84  41
   2   0   5 21362.2 960.959  32
  -2   0  -5 20220.2 875.860  31
  -2   2   5 20553.9 954.250   4
   0  -2   5 20399.7 1087.51  27
   2   0   5 21127.4 962.611  37
  -2   0  -5 18455.1 864.321  25
   2   0   5 22009.2 981.303  31
  -2   0  -5 17624.7 761.559  15
   2   0   5 20646.1 1056.71  40
   2  -2  -5 20891.6 858.886  44
  -2   2   5 21189.7 1032.64   6
   2  -2  -5 20420.6 792.176  32
   0  -2   5 19630.1 1073.34  39
  -2   0  -5 19323.6 854.601  38
   0  -2   5 18455.6 915.309  26
   2  -2  -5 21747.4 870.460   4
   0  -2   5 19907.4 913.229   6
   2  -2  -5 21506.7 797.519  35
   2   0   5 20758.6 1063.15  39
   0   2  -5 20999.7 993.693  14
   2   0   5 20307.7 994.964  42
   0  -2   5 18787.4 1067.41  41
   0  -2   5 21119.3 919.202   5
   2   0   5 20474.4 960.988  27
  -2   2   5 22141.8 1010.97  25
  -2   0  -5 20404.8 866.964   5
  -2   0  -5 19190.7 854.887  41
   0  -2   5 21013.4 1104.11  40
   0   2  -5 21156.2 932.147  26
   0   2  -5 21902.4 927.503   2
   2   0   5 21019.6 986.781   3
   0   2  -5 19279.2 957.307  44
   2  -2  -5 18360.2 953.576  21
   2   0   5 21689.1 1111.07  36
  -2   0  -5 21899.2 915.207  39
   0   2  -5 19761.7 817.999  12
   2   0   5 20067.8 1056.75  38
   2  -2  -5 23367.9 935.329   2
   2   0   5 20345.9 1021.52   6
   2  -2  -5 21909.8 853.833  23
   2  -2  -5 20600.5 788.392  33
   2   0   5 19617.2 935.520  24
   0  -2   5 20890.8 1109.08  19
  -2   0  -8 4441.33 422.919  32
  -2   0  -8 4668.07 443.968  25
   2   0   8 4459.25 560.063  43
   0  -2   8 3914.72 554.330  39
   0   2  -8 4622.27 440.725  34
   0  -2   8 4420.99 581.368  19
   0   2  -8 4261.56 425.915  33
  -2   2   8 4975.35 580.301  29
   2   0   8 5834.41 720.735  17
   0   2  -8 4906.33 463.065  32
  -2   2   8 5025.16 578.634   6
  -2   0  -8 4634.99 436.724  31
   0   2  -8 4332.44 433.388  35
  -2   2   8 4247.41 528.027  15
   2   0   8 5748.03 681.499  38
   2   0   8 5063.27 592.031  42
   0   2  -8 4849.36 492.237  14
   0  -2   8 4101.50 577.134  27
   0  -2   8 4080.73 563.093  40
  -2   0  -8 4238.13 415.040  34
   0  -2   8 3815.94 567.766  41
  -2   0  -8 4444.56 423.490  33
   2   0   8 4192.34 589.593  40
   2  -2  -8 3899.53 445.805  21
   2   0   8 4870.00 618.707  39
   2   0   8 4554.75 592.982  41
   2   0   8 3874.82 537.821   6
   0   2  -8 4887.63 444.015   2
  -3   2  -8 12424.0 813.724  14
  -3   2  -8 12805.4 770.910  35
  -3   1   8 13573.1 915.755   4
   2  -3   8 12800.2 986.926  42
  -3   2  -8 12096.8 745.987  34
   2  -3   8 12715.4 1037.81  27
   2   1  -8 12913.6 760.578  36
   1  -3  -8 12337.7 832.820   9
   2   1  -8 12913.6 750.962  33
  -3   2  -8 12791.4 766.140  33
  -3   2  -8 12783.5 770.868  32
   1   2   8 13373.9 1044.19  17
  -3   2  -8 12363.3 765.362  31
   2   1  -8 12151.1 734.352  34
   2  -3   8 11111.5 923.488   3
  -3   2  -8 12617.6 737.895  25
   1   2   8 11417.0 895.309  15
   2  -3   8 13679.8 1002.20  43
   2   1  -8 11410.1 781.573  44
   2   1  -8 11493.7 722.844  32
   2   1  -8 11512.9 702.513   2
   2  -3   8 12586.3 1047.88  41
   2   1  -8 11672.8 740.018  35
  -3   1   8 13766.8 920.333   6
   2  -3   8 11660.3 999.349  40
   1  -3  -8 11235.4 711.099  25
   2  -3   8 13363.2 1066.35  39
   2  -3   8 11047.7 1015.58  38
   1   2   8 13663.4 978.438   6
   1  -3  -5 38524.6 1434.88  21
   2  -3   5 38867.2 1671.60  40
  -3   2  -5 39676.7 1491.16  14
   2   1  -5 42209.5 1476.64  35
  -3   2  -5 39703.9 1351.83  25
  -3   1   5 37493.5 1412.32  37
   2   1  -5 42963.8 1486.19  34
   2  -3   5 41868.3 1606.97  42
  -3   2  -5 39071.6 1384.16  34
   2  -3   5 40575.8 1689.62  27
   1  -3  -5 37049.8 1525.81   9
   2   1  -5 38711.5 1410.50  33
  -3   2  -5 39644.5 1404.31  33
   2   1  -5 36799.5 1398.96  32
  -3   2  -5 42146.8 1463.87   1
  -3   2  -5 39520.5 1410.20  31
   2  -3   5 39065.4 1689.35  41
  -3   1   5 36694.7 1455.32   4
   2   1  -5 39310.5 1457.68  14
   2   1  -5 38283.7 1372.62   2
   2   1  -5 36448.4 1465.05  44
   2   1  -5 43082.6 1468.67  36
  -3   1   5 38714.7 1442.21  40
   2   1  -5 34731.1 1416.18  42
   2  -3   5 39305.2 1603.38   3
   1   2   5 42727.2 1622.89  15
  -3   1   5 39128.7 1480.64   6
   2  -3   5 37832.8 1546.83  13
  -3   2  -5 40820.9 1310.81   5
  -3   2  -5 39173.1 1405.54  32
  -3   2  -5 41684.8 1331.84  26
   1   2   5 37563.7 1575.56  17
   1  -3  -5 43237.8 1395.00  25
  -3   1   5 39701.0 1454.86  27
  -3   1   5 39795.8 1476.93  39
   2  -3   5 41932.4 1736.44  39
  -3   1   5 34556.0 1384.26  29
   2  -3   5 40471.1 1741.17  38
   1   2   5 42339.4 1560.85   6
  -3   2  -5 38777.5 1404.70  37
   2  -3   5 41530.5 1597.51  43
   1   2   2 131826. 3219.34  40
   1   2   2 146050. 3256.06  27
   1  -3  -2 132607. 3117.47   5
   1  -3  -2 141710. 2893.65  38
   1   2   2 138271. 3279.54  41
   2   1  -2 132575. 3367.19  40
   2  -3   2 130099. 3340.27  44
   1  -3  -2 143703. 3532.26  22
   2  -3   2 147883. 3391.73  20
   1   2   2 138507. 3297.76  36
  -3   1   2 141128. 3305.05  37
   2   1  -2 129740. 3410.77  11
  -3   2  -2 131044. 3238.59  38
  -3   2  -2 143755. 3288.76  32
   1  -3  -2 128132. 2884.77  33
   1   2   2 132147. 3271.82  35
  -3   2  -2 127493. 3241.69  35
   2  -3   2 141505. 3431.88  41
   1   2   2 123603. 3242.73  19
   1  -3  -2 137518. 2889.81  35
   2  -3   2 151808. 3515.73  30
  -3   2  -2 136709. 3125.08   5
  -3   1   2 143577. 3282.86  44
   2  -3   2 137114. 2959.42   5
   2  -3   2 151205. 3502.26  14
  -3   1   2 137495. 3248.43  43
  -3   1   2 136018. 3206.89  19
   1  -3  -2 135264. 2889.86  34
   2   1  -2 132866. 3345.76  19
   2   1  -2 135054. 3425.84  33
  -3   2  -2 135234. 3274.70  18
  -3   1   2 137362. 3264.32  33
   1  -3  -2 137681. 2889.33  31
  -3   2  -2 130246. 3326.66   1
   1  -3  -2 109702. 3380.85   9
   1  -3  -2 117123. 2872.21  33
   2  -3   2 136851. 3228.03  33
  -3   2  -2 139867. 3265.66  33
   2  -3   2 130870. 3304.95   1
   2  -3   2 139834. 3458.20  13
   1  -3  -2 129884. 2883.89  37
   2   1  -2 147940. 3292.61   4
   1   2   2 147980. 3196.76  28
   1  -3  -2 126741. 2881.74  32
   2  -3   2 154987. 3610.74  12
   2  -3   2 144113. 3258.21  32
  -3   1   2 142903. 3249.00  11
  -3   2  -2 140391. 3169.44  17
   1   2   2 135630. 3453.87  17
  -3   1   2 133220. 3315.83   4
   1  -3  -2 138685. 3381.86   7
  -3   2  -2 147182. 3245.56  42
  -3   1   2 137619. 3273.60  36
   2   1  -2 133103. 3287.95   8
   1   2   2 142476. 3228.40  21
   1  -3  -2 138078. 2884.80  34
   2  -3   2 129393. 3273.63   7
   2  -3   2 141004. 3255.21  31
  -3   2  -2 140443. 3283.83  31
   1   2   2 137043. 3266.91  38
   2  -3   2 136350. 3333.44  16
   1   2   2 131548. 3193.76   6
   2  -3   2 129115. 3379.54  39
  -3   1   2 140491. 3124.85   8
   2   1  -2 144292. 3449.03  35
   1  -3  -2 122711. 3074.22  25
   2   1  -2 128165. 3349.84  39
  -3   1   2 140027. 3101.30  16
   1   2   2 125009. 3206.41  43
   1   2   2 131057. 3206.28  31
  -3   1   2 139473. 3294.31  31
  -3   1   2 141479. 3143.11  30
  -3   1   2 140067. 3333.72  39
   2   1  -2 132011. 3383.97  41
  -3   1   2 126447. 3238.87   2
  -3   1   2 137589. 3319.53  40
   2   1  -2 142725. 3447.08  34
   1   2   2 142046. 3283.79  44
  -3   2  -2 137156. 3285.94   3
  -3   2  -2 140325. 3369.01  14
   2  -3   2 136625. 3434.58  38
   2   1  -2 109453. 3344.31  44
   2  -3   2 151022. 3509.38  28
   1   2   2 139067. 3375.86   8
  -3   1   2 144130. 3273.69  42
  -3   2  -2 139822. 3059.99   7
  -3   2  -2 143296. 3296.37  37
  -3   2  -2 133367. 3250.08  41
   1  -3  -2 135601. 2885.40  36
   2   1  -2 148989. 3346.82   2
   2   1  -2 142029. 3429.55  36
  -3   1   2 148208. 3350.78  27
   1  -3  -2 142101. 3189.60   8
   1   2   2 138376. 3394.19  15
  -3   1   2 149468. 3326.58  34
  -3   1   2 137592. 3242.27  32
  -3   2  -2 134422. 3211.64  13
   2  -3   2 134759. 3381.61  27
   2   1  -2 130865. 3325.84  37
  -3   2  -2 143566. 3235.28  43
   2   1  -2 133109. 3348.10  27
   2  -3   2 144323. 3424.94  40
   1   2   2 130452. 3062.31  18
  -3   1   2 139882. 3292.33  35
   2  -3   2 137287. 3373.46   3
   2  -3   2 145758. 3298.13  43
   1   2   2 131935. 3247.10   5
   1   2   2 136972. 3243.20  42
  -3   2  -2 147302. 3374.31  24
   2  -3   2 141986. 3281.27  24
   2   1  -2 147424. 3458.52  38
   1   2   2 137841. 3050.40  24
   2   1  -2 109754. 3332.23  42
  -3   2  -2 134124. 3265.77  36
   1   2   2 131216. 3302.34  11
   2  -3   2 135080. 3267.45  42
   1   2   2 134535. 2963.78   3
   2  -3   2 131246. 3224.35  37
  -3   1   2 139717. 3476.19  23
   1   2   2 131167. 3209.17  37
   2   1   1 57478.6 1686.32  36
   1  -3   1 61222.8 1765.73  22
  -3   2   1 53462.5 1459.35  38
   1  -3   1 59908.0 1542.33  11
   1  -3   1 59487.9 1595.71  27
  -3   2   1 60949.9 1592.56  21
  -3   1  -1 60404.0 1618.41  37
  -3   2   1 50023.1 1436.41  36
   1  -3   1 57846.1 1513.13  32
   1   2  -1 57165.4 1645.34  19
  -3   2   1 58936.6 1492.65  44
   2   1   1 55850.7 1516.54   3
  -3   1  -1 59262.7 1620.28  27
   1   2  -1 53294.5 1649.14  42
  -3   2   1 62647.7 1651.80   3
   1  -3   1 57829.8 1732.46  28
   2   1   1 56626.2 1692.61  35
  -3   1  -1 53235.3 1561.99  35
  -3   2   1 54145.3 1459.75  35
   1   2  -1 58980.1 1669.08  35
   2  -3  -1 57552.3 1740.57  20
   1  -3   1 56328.1 1675.93   7
  -3   1  -1 61537.6 1611.48   3
  -3   2   1 58825.7 1508.45  27
   2   1   1 57940.6 1649.74  19
   1  -3   1 63211.0 1586.49  42
   1   2  -1 59134.3 1669.52  40
  -3   1  -1 60991.6 1596.12  44
   2   1   1 55602.1 1686.81  34
  -3   1  -1 52354.5 1556.90  34
   2  -3  -1 56848.3 1717.91  10
  -3   2   1 46448.4 1424.74  34
   1   2  -1 58814.3 1671.79  34
  -3   1  -1 60021.7 1570.79   5
  -3   2   1 52465.1 1453.31  33
   2   1   1 52097.4 1648.11  11
   1  -3   1 58541.9 1511.35  33
  -3   1  -1 55286.4 1578.22  18
  -3   2   1 56138.8 1548.33  18
  -3   2   1 57656.3 1610.21   4
  -3   1  -1 51832.0 1595.04   8
   2   1   1 55329.9 1529.08  24
   2   1   1 58613.1 1711.65   8
  -3   1  -1 52545.4 1539.67  38
  -3   2   1 56987.5 1394.72   8
   2   1   1 55891.6 1679.17  44
   2   1   1 56099.6 1642.92  40
  -3   2   1 58957.8 1503.81  32
   1   2  -1 62197.4 1505.02   4
   1  -3   1 54455.8 1491.84  31
   1  -3   1 56686.9 1633.05  16
   1   2  -1 66940.5 1738.78   8
   1   2  -1 53776.5 1650.64  16
  -3   1  -1 59933.1 1619.76  31
  -3   2   1 59650.4 1510.19  31
   1   2  -1 55413.2 1666.98  11
   2   1   1 56121.1 1623.09  31
   1   2  -1 53221.6 1625.15  43
  -3   2   1 55189.4 1557.87   2
   1  -3   1 56382.8 1639.53  26
  -3   2   1 48844.4 1547.82  30
   1   2  -1 55944.8 1343.46  30
   1  -3   1 57057.7 1637.61  30
  -3   2   1 59678.6 1656.64  24
   2  -3  -1 58211.4 1728.96  30
  -3   1  -1 59853.3 1567.70  43
   1   2  -1 54991.0 1647.41  41
   1  -3   1 58504.4 1570.70  44
   1   2  -1 59714.6 1666.17  36
   1  -3   1 49503.7 1522.22  37
  -3   1  -1 55663.2 1315.67  28
   2   1   1 55150.4 1590.67  18
  -3   2   1 57081.4 1472.99  43
   1   2  -1 54502.3 1673.55  44
  -3   1  -1 56744.2 1591.79  41
  -3   2   1 63171.2 1536.06  40
  -3   1  -1 59298.6 1574.74  42
   1   2  -1 63519.9 1525.58   2
   2   1   1 61911.2 1710.49  42
   1  -3   1 54341.7 1486.13   1
   1   2  -1 56567.3 1629.61  27
  -3   2   1 60753.5 1489.68  42
   1  -3   1 57763.2 1603.87  41
   1   2  -1 63182.2 1788.65  26
   1  -3   1 57148.7 1519.59   3
   1  -3   1 61770.0 1652.22  19
   2   1   1 60978.9 1734.78  41
  -3   1  -1 59973.5 1615.48  32
   1  -3   1 53833.5 1566.33  40
  -3   1  -1 57712.6 1514.07  13
   2   1   1 54859.8 1641.07  43
   2   1   1 59161.5 1598.72  16
   1  -3   1 57822.1 1684.33  13
   1  -3   1 54633.2 1484.44  34
   1   2  -1 55195.1 1641.22  39
   1  -3   1 56915.8 1587.04  39
   1   2  -1 58438.2 1664.37  33
   1   2  -1 52530.2 1594.44  37
  -3   1  -1 61059.5 1661.40   1
   2   1   1 57059.6 1665.47  39
   1   2  -1 59633.4 1675.52  38
   1  -3   1 56442.3 1434.24  24
  -3   1  -1 60484.8 1660.16  24
   2   1   1 60652.7 1725.67  38
  -3   1  -1 52609.6 1551.79  36
  -3   2   1 58510.7 1404.35  11
   1   2  -1 57559.8 1448.77   9
  -3   1  -1 57891.4 1547.58  23
  -3   2   1 55851.8 1643.39  23
   2   1   1 58746.1 1471.91  23
   2   1   1 53772.3 1613.57  27
  -3   2   1 65971.6 1543.33  37
   2   1   1 55183.5 1621.59  37
   2   1   4 36809.2 1301.59  27
  -3   2   4 35338.0 1246.74   2
   2   1   4 35623.5 1428.85  36
  -3   1  -4 33861.6 1243.55  36
   1   2  -4 37530.5 1406.35  26
   1   2  -4 39598.6 1362.85  36
  -3   2   4 38228.9 1304.72  20
  -3   1  -4 33948.3 1239.40  35
  -3   1  -4 35679.7 1205.05  43
   2   1   4 39405.1 1462.82  38
   2   1   4 36937.5 1417.72  39
  -3   2   4 41662.1 1260.50  27
   1   2  -4 39768.0 1373.85  35
   2   1   4 37944.4 1329.64  40
   1   2  -4 35262.3 1285.80  27
   1   2  -4 37889.7 1329.38  34
   1  -3   4 35327.6 1480.61  19
   1  -3   4 36546.8 1319.86  34
  -3   1  -4 35633.6 1244.46  34
   2   1   4 38838.3 1340.88   5
   1  -3   4 37173.1 1524.76  41
   2  -3  -4 40142.4 1447.45   9
   1  -3   4 36708.3 1327.66  33
  -3   1  -4 36791.2 1255.82  33
   1  -3   4 36750.6 1329.34   7
   1  -3   4 36312.8 1316.64  24
   1   2  -4 38043.0 1341.12  32
  -3   1  -4 33278.0 1222.03  38
   1  -3   4 35696.7 1325.19  32
   2   1   4 35798.3 1455.78  17
  -3   1  -4 36436.7 1266.89  32
   1  -3   4 37894.1 1358.59  37
  -3   1  -4 38428.4 1285.16  17
   2   1   4 35974.0 1277.84  32
   1   2  -4 36814.0 1384.08  14
  -3   1  -4 36849.1 1210.61   5
   1  -3   4 37421.2 1351.94  31
  -3   1  -4 35478.5 1259.39  31
   1  -3   4 37776.2 1426.76  16
   2   1   4 33696.9 1258.20  31
   1   2  -4 37872.3 1236.71   4
   1   2  -4 41355.9 1311.69   8
  -3   2   4 33728.9 1286.55   4
   1   2  -4 32162.2 1306.31  42
   1  -3   4 37954.2 1255.30   6
  -3   1  -4 35135.0 1146.67  15
  -3   1  -4 42256.3 1343.20   1
  -3   2   4 35313.6 1354.37  29
  -3   2   4 31692.8 1158.40  30
   2   1   4 37489.8 1370.21  44
   2  -3  -4 40299.3 1219.94   2
   1  -3   4 36881.1 1375.47   1
   1  -3   4 38444.2 1455.57  44
   1   2  -4 34739.5 1356.58  44
   2  -3  -4 36946.6 1388.29  21
   2   1   4 35466.9 1307.68  14
   2   1   4 37443.6 1354.39  43
  -3   1  -4 37318.7 1272.13  29
  -3   1  -4 35692.9 1205.11  42
  -3   2   4 34681.4 1185.74  37
   1  -3   4 36460.0 1492.96  27
  -3   2   4 35713.1 1355.48   6
   1   2  -4 33586.3 1279.40  41
   1  -3   4 37328.6 1500.07  13
   2   1   4 36173.5 1412.44  41
  -3   1  -4 34575.7 1239.82  41
  -3   2   4 37844.2 1237.89  39
   1  -3   4 33908.5 1333.97  26
  -3   2   4 32801.3 1174.04  40
  -3   1  -4 34386.2 1174.33  18
   1  -3   4 37155.8 1503.40  40
   1  -3   4 36252.8 1408.91  42
   1   2  -4 33378.9 1264.94  40
  -3   2   4 33578.5 1272.04  25
   1  -3   4 41735.4 1441.28  12
  -3   1  -4 37008.0 1157.37  26
  -3   1  -4 35265.6 1244.79  25
   1  -3   4 34939.8 1464.96  39
   1   2  -4 33038.7 1276.63  39
   1   2  -4 39040.2 1346.21  33
   1   2  -4 35546.0 1157.91  12
  -3   1  -4 40618.1 1329.96  24
  -3   2   4 39084.2 1427.75  23
   1  -3   4 39834.7 1593.17  38
   1   2  -4 33810.0 1305.69  38
   2   1   4 36883.7 1414.19  15
  -3   1  -4 37816.2 1252.13   6
   2   1   4 35786.6 1364.09   6
   2   1   4 36599.5 1391.34  11
  -3   1  -4 36165.8 1262.15  37
   1   2  -4 36765.6 1271.32   2
   2   1   4 36535.1 1347.01  42
   2   1   4 34639.9 1265.40  37
  -3   1  -7 12257.3 684.300   5
   2  -3  -7 10634.5 741.191  21
   1   2  -7 12326.2 746.746  36
   1   2  -7 11716.0 739.878  35
   1   2  -7 12614.7 737.371  34
   1  -3   7 11862.2 941.459  19
   1  -3   7 10450.6 841.091  13
  -3   1  -7 11021.9 677.856  34
   1  -3   7 10658.9 908.709  41
   2  -3  -7 9908.16 693.361   9
   2   1   7 11787.9 899.413  38
   1   2  -7 11144.9 702.425  33
   2   1   7 11222.4 866.616   6
  -3   1  -7 11791.6 704.588  33
   2   1   7 12400.8 856.896  44
  -3   1  -7 11070.7 692.729  37
   1   2  -7 11569.3 724.848  32
   2   1   7 9906.83 881.962  17
  -3   1  -7 10897.1 689.067  32
   2   1   7 11235.5 903.056  36
  -3   1  -7 10770.5 684.565  31
   2   1   7 11678.3 891.076  41
  -3   2   7 12075.6 829.318   4
  -3   2   7 11889.6 841.368  29
   1   2  -7 11342.5 767.730  44
   1  -3   7 11716.0 869.052  43
   1   2  -7 11197.3 753.316  14
  -3   2   7 11276.6 844.172   6
   2   1   7 11942.4 832.499  42
   1  -3   7 10541.0 886.755  27
   2   1   7 12020.5 825.081  43
   1  -3   7 10380.6 887.392  40
   1   2  -7 10915.4 690.590  26
   2   1   7 11741.4 892.306  39
  -3   1  -7 10496.4 719.158  14
   2   1   7 12292.9 893.456  40
  -3   1  -7 12265.9 714.831  25
   2   1   7 10112.8 803.378  15
   1  -3   7 11745.6 929.095  39
   1   2  -7 11136.9 683.914   2
   2   2   0 17712.3 788.776  37
   2   2   0 19480.2 891.114  11
   2  -4   0 18325.0 870.512   7
   2   2   0 18200.7 833.519  43
   2  -4   0 19192.1 694.639   3
   2   2   0 18959.1 864.243  36
  -4   2   0 19392.5 805.969   3
   2   2   0 18865.8 875.681  35
  -4   2   0 20111.7 743.371  42
  -4   2   0 19074.7 749.258  35
   2  -4   0 19291.1 638.093  19
  -4   2   0 17862.0 719.854  34
   2   2   0 17953.5 811.057  19
  -4   2   0 17373.7 712.936  33
   2   2   0 17115.6 844.747  34
   2   2   0 20178.2 839.431  27
  -4   2   0 17630.7 759.322  18
   2   2   0 19299.6 833.707  18
   2   2   0 18868.2 681.353   2
  -4   2   0 18133.6 724.756   8
   2   2   0 20277.7 891.345   8
  -4   2   0 18605.0 758.794  32
  -4   2   0 17667.3 745.039   2
  -4   2   0 18497.7 772.255  27
   2   2   0 17708.4 800.086  16
   2  -4   0 16368.1 650.960   1
  -4   2   0 18307.6 757.172  31
  -4   2   0 19881.7 868.264   1
   2  -4   0 19009.7 880.468  30
  -4   2   0 19776.1 750.820  44
  -4   2   0 19562.5 736.115  43
   2   2   0 17463.0 825.083  42
  -4   2   0 20490.6 765.237  36
   2   2   0 17113.2 826.535  44
   2   2   0 18452.1 843.964  38
   2   2   0 16979.8 788.322  40
   2   2   0 16921.4 798.063  39
  -4   2   0 19513.5 792.532  13
   2  -4   0 18418.4 867.842  28
  -4   2   0 20291.9 857.711  24
  -4   2   0 18675.2 668.785  28
  -4   2   0 17431.2 712.755  38
  -4   2   0 18347.9 811.043  23
  -4   2   0 17738.3 744.248  37
   2  -4   0 18952.8 857.592  13
  -4   2   3 1355.85 197.377  37
   2  -4   3 1709.38 232.487  34
   2   2  -3 1653.76 258.454  35
   2   2   3 1386.71 248.621  36
  -4   2  -3 1728.03 241.388  36
   2   2  -3 1773.54 261.355  36
   2   2   3 1829.17 271.383  35
   2  -4   3 1885.46 259.323   1
  -4   2  -3 1662.14 233.117  35
   2   2   3 1544.99 239.260  19
  -4   2  -3 1764.64 234.519  34
   2   2  -3 1428.35 243.949  34
  -4   2  -3 1994.18 235.875  43
  -4   2   3 1785.36 251.788   3
   2   2  -3 1962.53 276.615  33
  -4   2  -3 1465.70 213.953  18
   2  -4  -3 1847.18 301.284   9
   2  -4   3 1782.39 238.206  33
  -4   2  -3 2681.48 284.266  33
   2  -4   3 1661.04 231.404  32
  -4   2  -3 2286.30 271.356  32
   2   2  -3 1848.94 222.974   4
   2   2   3 3086.86 388.232  17
   2   2   3 1772.25 247.850  37
  -4   2   3 1574.91 240.681   4
   2   2  -3 1550.38 229.870   8
   2  -4   3 1719.28 234.704  31
   2  -4   3 1567.19 249.895  16
  -4   2  -3 2245.65 268.635  31
   2   2   3 1610.85 236.423  31
  -4   2   3 1671.71 216.664  31
  -4   2  -3 1384.07 211.864  25
   2  -4   3 1726.76 266.801  30
   2   2   3 1541.06 251.766  38
   2   2  -3 1367.99 242.922  11
   2   2  -3 1483.20 254.250  44
  -4   2  -3 1591.34 240.740   1
   2  -4   3 1633.57 256.140  44
   2  -4   3 1613.78 298.937  28
   2  -4   3 1918.24 261.068  43
   2  -4   3 1386.75 229.932   7
   2   2   3 1884.39 261.035  43
  -4   2  -3 1679.41 220.404  42
   2  -4   3 1616.26 279.609  13
   2   2   3 1802.15 247.281  27
  -4   2  -3 1851.17 246.957  37
   2   2   3 1537.88 239.091  42
   2   2   3 1630.30 255.471  44
  -4   2   3 1702.62 224.674  40
   2   2  -3 1569.79 248.773  42
   2  -4   3 1748.84 261.010  42
   2  -4   3 1774.12 277.321  27
   2  -4   3 1550.76 270.082  41
   2   2  -3 1817.74 233.099   2
   2   2   3 1478.20 256.877  41
   2   2   3 1666.32 244.041  40
  -4   2   3 1361.04 208.141   2
   2  -4   3 1970.39 302.831  14
   2  -4   3 1741.67 281.244  40
   2  -4   3 1641.95 257.332   3
  -4   2  -3 1634.11 228.670  41
  -4   2   3 1936.54 240.227  39
  -4   2  -3 1678.23 203.542   5
   2  -4   3 1847.70 283.041  39
   2   2   3 1800.33 277.049  39
  -4   2  -3 1522.88 241.257  24
   2  -4   3 1926.02 245.685  24
   2  -4   3 1503.78 272.945  38
   2  -4   3 1703.30 232.043  37
  -4   2   3 1630.06 217.430  27
   2  -4   3 1413.30 252.981  19
  -4   2  -3 1727.58 230.801  38
  -4   2  -3 1326.55 187.061  23
   2   2   3 1603.25 264.776  11
  -4   2   3 1703.59 279.446  23
   2   2  -6 40844.3 1511.86  36
   2   2  -6 40899.3 1521.04  35
   2  -4   6 40655.4 1795.47  19
  -4   2  -6 37398.2 1404.15  34
   2  -4  -6 37671.5 1529.26  21
   2   2  -6 38174.4 1460.65  33
   2  -4  -6 41196.4 1664.53   9
  -4   2  -6 36512.3 1409.95  33
   2   2  -6 36547.7 1449.23  32
  -4   2  -6 38597.3 1401.02  25
  -4   2  -6 41660.1 1506.48   1
   2   2   6 36412.4 1697.20  17
  -4   2  -6 37816.5 1431.42  32
  -4   2   6 35093.4 1483.26   6
   2   2  -6 34287.2 1477.54  44
  -4   2   6 36133.4 1471.98  29
  -4   2  -6 39016.3 1447.44  31
   2  -4   6 38681.0 1644.00  43
  -4   2   6 35035.7 1460.05   4
   2   2  -6 36750.5 1489.95  14
  -4   2  -6 39551.0 1535.96  14
   2  -4   6 39080.8 1765.42  27
   2  -4   6 38395.8 1790.08  41
   2  -4   6 38552.3 1709.22  13
   2  -4   6 34742.7 1635.60   3
   2   2  -6 40507.2 1521.67  34
   2  -4   6 38947.2 1762.77  40
   2   2  -6 39032.9 1409.12   2
   2  -4   6 37601.0 1748.10  39
   2  -4   6 39855.1 1839.89  38
   2   2   6 37956.4 1609.14  11
   2   2   6 38652.4 1637.15   6
   2   2   6 37151.7 1677.05  15
  -4   2  -6 37997.1 1436.16  37
   3  -1  -8 13578.5 878.339  21
  -2   3  -8 14276.3 824.773  35
  -2  -1   8 14608.7 983.690  19
  -2   3  -8 14427.7 827.163  34
  -1  -2  -8 11744.1 804.352   9
  -2  -1   8 15856.9 1074.96  40
  -2   3  -8 14220.4 823.322  33
   3  -2   8 13372.1 1112.25  17
  -2   3  -8 14772.7 838.946  32
  -2  -1   8 14126.5 988.072  37
  -2   3  -8 14058.4 820.104  31
   3  -1  -8 14517.7 799.769   2
  -1   3   8 13420.5 993.819  15
   3  -2   8 15785.8 1206.26  38
   3  -2   8 15413.0 1087.95  43
   3  -2   8 15033.3 1075.66  42
   3  -2   8 16099.5 1181.80  39
  -2   3  -8 14018.6 879.463  14
   3  -2   8 15100.3 1076.68   3
  -2  -1   8 15946.6 1065.97  39
   3  -2   8 14653.5 1139.75  41
   3  -2   8 15487.4 1149.97  27
  -2  -1   8 15109.1 1056.40  41
   3  -2   8 15960.3 1175.60  40
  -1  -2  -8 16296.2 849.617  25
  -1   3   8 15144.1 1022.38   6
  -1   3   8 15299.0 1059.51  29
  -2  -1   8 13833.2 986.983  27
  -2  -1   5 39528.8 1561.08  37
   3  -2   5 36798.0 1655.66  36
   3  -1  -5 36518.0 1529.85  21
   3  -1  -5 39322.1 1396.66   2
   3  -2   5 37379.9 1653.82  38
   3  -1  -5 40183.1 1338.83  36
  -2  -1   5 39470.6 1566.56  27
   3  -1  -5 41546.4 1363.58  35
  -1   3   5 35275.0 1346.96  10
  -2   3  -5 39606.2 1379.66  35
   3  -2   5 39350.0 1335.78   5
   3  -1  -5 37954.2 1326.99  34
  -2  -1   5 38372.1 1502.08  19
  -1  -2  -5 37136.7 1572.33   9
  -2   3  -5 38317.9 1354.80  34
   3  -1  -5 40288.1 1328.44  33
  -1  -2  -5 36688.0 1208.96  34
   3  -1  -5 34710.5 1296.83  41
  -2   3  -5 37853.3 1354.48  33
   3  -2   5 38963.8 1651.77  17
  -1   3   5 37466.7 1453.89  17
  -2   3  -5 38891.7 1384.56  32
  -1  -2  -5 34625.6 1293.96   8
  -1  -2  -5 38008.0 1234.94  32
  -2  -1   5 38218.1 1552.74  40
   3  -2   5 39668.3 1556.66  43
  -2   3  -5 39713.5 1390.51  31
  -1  -2  -5 38580.4 1236.10  31
  -1   3   5 39092.0 1583.00  29
  -1  -2  -5 34720.7 1290.64  25
   3  -1  -5 38809.2 1337.92  39
  -1   3   5 38193.4 1548.25  15
  -2  -1   5 34149.0 1419.22   4
  -2   3  -5 37481.5 1447.03  14
  -1  -2  -5 35895.3 1206.94  33
  -1  -2  -5 37422.6 1308.34   5
   3  -1  -5 33847.8 1317.85  42
  -2  -1   5 39562.6 1609.29  41
   3  -1  -5 34152.4 1262.40  27
   3  -2   5 35179.9 1605.84  41
  -2   3  -5 38818.4 1377.75  26
   3  -1  -5 33695.6 1262.05  40
   3  -2   5 37450.9 1621.78  40
  -1   3   5 35963.8 1452.83   6
  -2  -1   5 38320.0 1574.08  39
   3  -2   5 37434.6 1539.50   3
   3  -2   5 38295.6 1656.90  39
  -2  -1   5 34504.3 1315.99   6
   3  -1  -5 35560.8 1326.11  38
   3  -1  -5 37293.4 1382.52  44
   3  -2   5 39649.4 1564.64  42
  -1  -2  -5 39573.8 1245.88  37
  -1  -2  -2 124228. 3359.67  22
  -2  -1   2 128960. 3302.23  37
  -1   3   2 164757. 3576.79  22
   3  -1  -2 129771. 3208.16  37
  -2  -1   2 134191. 3286.57  11
  -2  -1   2 132977. 3258.29  44
   3  -2   2 129533. 3045.53  28
   3  -2   2 125126. 3336.98  36
   3  -1  -2 123978. 3322.91  21
   3  -1  -2 134492. 3271.50  39
  -2  -1   2 118069. 3120.22   2
   3  -1  -2 128148. 3214.08  11
  -2  -1   2 132218. 3321.31  19
  -1  -2  -2 123741. 3071.28  36
  -1   3   2 126547. 3215.09  21
  -1  -2  -2 131566. 3089.15  37
  -2   3  -2 137020. 3251.99  13
  -2  -1   2 126314. 3216.92  36
   3  -2   2 128230. 3258.08  10
  -1  -2  -2 135914. 3106.91  27
   3  -1  -2 109983. 3155.69  20
   3  -2   2 136347. 3410.12  38
  -1  -2  -2 137065. 3117.91  35
   3  -1  -2 128123. 3232.92  35
  -1  -2  -2 126826. 2779.36  13
  -2  -1   2 123768. 3228.33  35
  -1  -2  -2 123662. 3130.53   5
  -1   3   2 137179. 3047.79   5
  -2   3  -2 141803. 3179.34  35
  -1  -2  -2 136099. 3066.66  42
  -1   3   2 137619. 2990.60  19
   3  -2   2 139704. 3362.68  14
  -1   3   2 125330. 3290.14  10
  -1  -2  -2 124565. 3080.25  34
   3  -1  -2 134584. 3264.74  34
  -2   3  -2 137176. 3174.54  22
  -2  -1   2 115669. 3175.90  34
   3  -1  -2 121875. 3103.31  19
   3  -1  -2 126299. 3246.24  43
  -2   3  -2 144657. 3180.07  34
   3  -2   2 120321. 3240.60   1
  -1  -2  -2 133075. 3331.24   9
  -1   3   2 139650. 3420.47   9
  -2   3  -2 121052. 3180.77  18
   3  -2   2 132052. 3366.82  18
   3  -1  -2 127166. 3232.86  33
  -1   3   2 131322. 2868.77   1
  -2  -1   2 117366. 3173.62  33
   3  -1  -2 148060. 3373.31  44
  -2  -1   2 128944. 3238.09  43
  -2   3  -2 124277. 3121.95  33
   3  -1  -2 136848. 3333.97  18
  -1  -2  -2 132681. 2839.86   2
  -2   3  -2 122246. 3142.57  17
  -2  -1   2 116327. 3183.78  32
   3  -2   2 133355. 3248.29  17
  -2   3  -2 133046. 3162.76  32
   3  -1  -2 129646. 3056.68   8
   3  -2   2 134535. 3380.78  39
  -1   3   2 132614. 3060.42   8
  -1   3   2 133746. 3152.89  17
  -1  -2  -2 129867. 3088.81  32
   3  -2   2 133417. 3219.07  32
  -1  -2  -2 121320. 3229.88   8
  -2   3  -2 127789. 3145.78  31
  -1   3   2 140074. 3121.08  13
  -1  -2  -2 130640. 2864.54   1
  -2   3  -2 138314. 3040.80   6
  -1  -2  -2 131850. 2958.29  24
  -2  -1   2 127339. 3154.03  16
   3  -1  -2 140116. 3349.72   2
  -1  -2  -2 135097. 3100.30  31
   3  -2   2 131491. 3217.27  31
  -2   3  -2 133163. 3180.65  38
  -2   3  -2 146974. 3283.26   1
  -2  -1   2 129095. 3246.56   8
  -2  -1   2 120985. 3177.07   4
  -2  -1   2 121965. 3265.39  31
   3  -1  -2 139567. 3263.81  27
  -1   3   2 132104. 3292.12  15
  -1  -2  -2 145136. 3215.53  15
  -1   3   2 132194. 2880.59   4
  -1   3   2 150348. 3318.62  29
  -2   3  -2 133906. 3130.89   7
  -1   3   2 134304. 3050.76  26
  -1   3   2 132445. 3308.29  30
  -1   3   2 121985. 3048.72  23
  -1  -2  -2 137207. 3084.69  44
   3  -2   2 137331. 3308.32  44
  -1  -2  -2 144545. 3226.32  29
  -1   3   2 143872. 3314.95   7
  -1   3   2 130189. 3227.91  28
  -1  -2  -2 125683. 3128.26   7
  -2  -1   2 128559. 3312.67  27
  -2  -1   2 130880. 3242.76  42
  -1  -2  -2 136716. 3034.70  26
   3  -2   2 133421. 3272.17  42
  -2   3  -2 141302. 2981.86  25
   3  -1  -2 147539. 3351.59  42
  -2   3  -2 134491. 3313.75  26
  -2   3  -2 128931. 3174.70  36
  -2   3  -2 130519. 3157.15  41
   3  -2   2 129049. 3354.20  41
  -2   3  -2 126841. 3275.69  14
  -2  -1   2 104588. 3242.69  26
   3  -2   2 132281. 3250.32  43
  -1   3   2 136801. 3146.67   6
  -2  -1   2 130953. 3318.99  40
  -2   3  -2 132587. 3061.61  10
   3  -1  -2 138963. 3272.85  40
   3  -2   2 131099. 3274.17  13
   3  -1  -2 144413. 3312.08  36
  -1  -2  -2 136561. 3093.40   6
  -2  -1   2 136090. 3354.73  39
  -1  -2  -2 148411. 3169.14  25
  -2   3  -2 143470. 3202.93  24
   3  -1  -2 138799. 3303.51  41
  -2   3  -2 126292. 3148.50  39
  -2   3  -2 136066. 3433.33  12
   3  -2   2 130302. 3218.10  27
  -1   3   2 130193. 3008.69  25
   3  -2   2 130622. 3452.83  12
  -1   3   2 120953. 3269.98  20
   3  -1  -2 132793. 2954.41  12
   3  -2   2 127583. 3274.25  24
  -1  -2  -2 127582. 3069.80  38
   3  -1  -2 135324. 3255.67  38
  -1   3   2 133795. 2986.12  11
   3  -1  -2 145237. 3375.94  23
   3  -2   2 133906. 3215.74  37
   3  -2   2 124443. 3314.35   3
  -1  -2  -2 134785. 3054.24  43
  -1  -2   1 59608.1 1645.56  11
  -2   3   1 57084.2 1478.94   3
  -1   3  -1 59524.7 1573.42  44
  -1  -2   1 60028.2 1690.27  37
  -2  -1  -1 57862.3 1472.91   3
  -1  -2   1 60394.2 1718.76  39
  -2   3   1 64404.0 1833.79  22
   3  -2  -1 57106.3 1474.71  11
  -2   3   1 56619.1 1354.99   5
   3  -2  -1 61225.4 1576.29  36
  -2  -1  -1 54276.5 1574.66  36
   3  -2  -1 57495.2 1610.10  21
  -2   3   1 57411.5 1619.12  21
  -1  -2   1 58122.7 1617.96  36
   3  -1   1 56181.4 1655.86  42
   3  -2  -1 56635.0 1762.21  20
   3  -1   1 58877.8 1750.45  35
   3  -2  -1 58411.1 1808.71  10
   3  -2  -1 58074.1 1570.22  35
   3  -1   1 54820.4 1692.36   3
  -2  -1  -1 52908.7 1571.02  35
  -1   3  -1 59938.1 1589.40  10
  -1  -2   1 62930.6 1677.24  44
  -2   3   1 54775.8 1673.10  10
  -1  -2   1 56428.1 1613.31  35
  -1   3  -1 59278.5 1534.10  35
   3  -1   1 58212.6 1606.14  19
  -1   3  -1 58213.8 1535.92  36
  -2  -1  -1 55425.2 1559.61  43
   3  -2  -1 57668.6 1566.61  34
  -1  -2   1 60121.2 1717.89  19
  -2  -1  -1 51939.0 1548.73  34
   3  -2  -1 54112.7 1401.69  19
  -1  -2   1 53406.6 1574.25  34
   3  -1   1 57796.0 1691.64  14
   3  -2  -1 57063.1 1563.30  38
  -2  -1  -1 56315.9 1597.12   5
   3  -1   1 60139.7 1759.53  36
  -2  -1  -1 50704.8 1537.16  33
  -1   3  -1 60060.9 1544.53   1
  -2   3   1 58640.8 1507.33   1
   3  -1   1 57100.0 1705.14  18
  -2   3   1 55289.5 1447.23  18
  -1  -2   1 54636.2 1581.68  33
  -1   3  -1 62845.8 1550.84  33
   3  -2  -1 57473.7 1659.68  18
  -1  -2   1 59359.3 1636.80  43
  -2   3   1 60449.5 1719.76   9
  -2  -1  -1 59108.8 1499.00   1
  -1  -2   1 55713.8 1598.72  32
  -1   3  -1 59828.1 1544.70  32
  -2   3   1 58196.3 1359.03  17
   3  -1   1 55625.3 1603.88  17
  -2  -1  -1 53183.5 1655.14   8
  -2  -1  -1 57100.1 1604.63  32
   3  -1   1 55885.1 1616.35  32
  -2  -1  -1 54288.1 1432.43   2
  -2   3   1 56262.4 1557.10  16
  -1  -2   1 60581.2 1648.09  16
  -2   3   1 54186.6 1448.13   2
  -1   3  -1 58765.5 1690.14  16
  -2  -1  -1 59391.5 1633.79  27
  -2   3   1 62825.3 1455.90   8
  -2  -1  -1 57357.1 1608.76  31
   3  -1   1 57266.9 1638.34  31
  -1  -2   1 58206.4 1731.05   8
  -1   3  -1 64770.5 1754.32  26
   3  -2  -1 52205.2 1487.26  31
  -1  -2   1 58488.1 1667.88  31
  -1   3  -1 62003.5 1693.84   8
  -2   3   1 54995.2 1626.46  28
   3  -2  -1 57053.1 1540.82  44
  -1   3  -1 57240.8 1571.04  30
   3  -2  -1 60011.0 1551.84  42
  -2   3   1 62765.1 1723.69  30
  -1  -2   1 57953.2 1632.72  42
   3  -2  -1 55381.6 1628.80  30
  -1   3  -1 56354.7 1327.22  15
  -1   3  -1 59956.4 1673.98  22
  -2  -1  -1 61411.8 1640.74  15
  -2  -1  -1 61255.7 1604.47  44
  -1   3  -1 51611.3 1530.83  38
  -1   3  -1 61778.1 1547.34  34
  -1   3  -1 53152.6 1624.53  14
  -2  -1  -1 56166.4 1367.26  28
  -2   3   1 59990.9 1690.15   7
   3  -2  -1 55076.5 1519.30  43
   3  -1   1 56383.9 1633.21  37
   3  -1   1 57051.3 1677.87  44
  -2   3   1 57350.6 1328.96  14
  -2   3   1 55460.4 1421.97  25
   3  -2  -1 62220.1 1552.41  27
  -1  -2   1 62793.7 1726.79  27
  -1  -2   1 63087.4 1821.28  13
  -1   3  -1 54617.6 1617.52  13
  -1   3  -1 57033.7 1546.89  41
   3  -1   1 55564.5 1656.60  43
   3  -1   1 59953.0 1738.90  41
   3  -2  -1 54566.3 1505.84  37
  -1  -2   1 62413.2 1818.49  26
  -2  -1  -1 59581.3 1640.03  40
   3  -2  -1 54719.9 1516.32  40
   3  -2  -1 61582.8 1594.36  41
  -2   3   1 59213.5 1622.49  13
  -1   3  -1 59327.7 1547.96  40
   3  -2  -1 52300.9 1510.45  39
  -1   3  -1 54239.9 1736.81  12
  -2   3   1 65308.2 1738.20  12
   3  -1   1 55082.3 1636.22  40
  -1   3  -1 56187.1 1540.77  39
   3  -2  -1 61535.8 1584.46  12
  -1   3  -1 57649.1 1298.51   6
  -1   3  -1 56860.4 1571.83  20
  -1  -2   1 59179.3 1700.50  40
  -2  -1  -1 61390.6 1537.35  24
   3  -1   1 54952.5 1625.42  27
  -2   3   1 58608.0 1467.21  24
   3  -1   1 57243.6 1671.96  24
   3  -1   1 57496.0 1719.32  38
  -2   3   1 61870.5 1734.00  20
  -2  -1  -1 58507.6 1588.84  11
  -2  -1  -1 53177.2 1555.46  38
   3  -2  -1 61953.0 1699.41  23
   3  -1   1 56889.5 1617.77  11
  -1  -2   1 60207.3 1562.78   4
  -2  -1  -1 59370.2 1582.03  42
  -2  -1  -1 59596.1 1631.43  37
  -1  -2   4 39454.0 1558.82  37
  -2  -1  -4 39870.6 1339.25  32
  -2   3   4 50398.1 1658.79  22
  -1   3  -4 38435.8 1414.50  36
  -2  -1  -4 41248.9 1372.84  29
   3  -1   4 41087.3 1647.86  36
  -1  -2   4 43463.7 1543.96  11
  -2  -1  -4 42354.7 1383.43  36
  -2   3   4 45275.4 1415.70   5
   3  -2  -4 41138.6 1566.52  21
   3  -2  -4 44513.5 1333.64  36
  -2  -1  -4 43068.7 1380.79   5
  -2  -1  -4 38682.2 1321.47  35
  -1   3  -4 38923.1 1449.11  44
  -2   3   4 41903.1 1500.29  20
  -2   3   4 40536.9 1442.05  10
   3  -2  -4 40673.8 1304.23  35
   3  -2  -4 40743.1 1454.95  10
  -1   3  -4 43708.0 1446.92  35
  -2  -1  -4 42341.4 1299.73  43
  -1  -2   4 44213.8 1498.69  35
  -2  -1  -4 37895.4 1316.43  34
  -1  -2   4 42340.4 1568.48   4
  -2   3   4 42106.1 1492.74  21
   3  -2  -4 41853.0 1319.00  34
  -1  -2   4 40870.2 1589.35  19
  -2   3   4 44376.3 1551.04   9
   3  -1   4 39552.6 1378.12   5
  -1   3  -4 43058.5 1439.30  34
  -1  -2   4 44112.0 1492.29  34
   3  -2  -4 44261.4 1333.68  33
  -1   3  -4 49473.2 1501.89  33
  -1  -2   4 42502.5 1472.30  33
  -1   3  -4 42065.2 1473.07  26
   3  -2  -4 43503.2 1384.30  18
   3  -2  -4 41685.0 1347.10   9
  -2  -1  -4 41881.3 1343.57  33
   3  -2  -4 46943.0 1443.44   4
  -1   3  -4 43550.1 1515.09  17
  -2  -1  -4 41707.5 1279.28   1
  -1   3  -4 45344.2 1468.46  32
  -2  -1  -4 39879.5 1436.67   8
  -1  -2   4 42496.3 1480.14  32
   3  -1   4 42938.1 1624.11  17
   3  -1   4 41370.6 1485.67  27
   3  -1   4 40901.5 1460.01  32
  -1   3  -4 45529.0 1470.14  31
  -1  -2   4 42170.5 1479.03  31
  -2  -1  -4 44750.2 1388.95  31
   3  -1   4 41580.7 1485.50  31
  -1  -2   4 43394.3 1533.52  16
   3  -2  -4 39931.8 1330.51  42
  -1   3  -4 40945.3 1518.20  14
  -2   3   4 44669.8 1644.07  15
  -2  -1  -4 38588.1 1311.07  15
   3  -2  -4 45895.2 1491.26   2
  -2   3   4 46222.9 1563.59  30
   3  -1   4 42814.9 1583.74  44
   3  -1   4 37008.5 1421.31   1
  -1  -2   4 45367.5 1579.62  44
  -2   3   4 42114.1 1575.87  29
  -2   3   4 44040.0 1516.12   7
  -1   3  -4 44417.2 1375.29   4
  -1  -2   4 41184.7 1496.58  43
  -2  -1  -4 41850.1 1298.65  42
   3  -1   4 42615.3 1554.78  42
  -1  -2   4 44923.5 1387.94   6
  -1  -2   4 43753.4 1624.65  27
  -1  -2   4 36393.7 1611.05  13
  -1  -2   4 44554.2 1666.42  41
  -2   3   4 47730.9 1580.36   6
  -1   3  -4 39967.4 1411.85  41
   3  -1   4 39372.3 1592.11  41
  -2  -1  -4 42449.8 1368.47  41
  -1  -2   4 39883.5 1529.40  26
  -1  -2   4 45681.4 1669.06  40
  -1   3  -4 40580.3 1406.75  40
  -1  -2   4 41371.5 1378.16  25
   3  -1   4 44621.1 1582.56  14
  -2   3   4 48500.0 1502.28  25
  -2  -1  -4 40730.8 1326.31   6
  -1  -2   4 44269.5 1658.60  39
  -2  -1  -4 46788.5 1439.60  25
   3  -2  -4 40975.0 1359.25  44
  -1   3  -4 39928.6 1414.53  39
   3  -1   4 41893.2 1638.21  39
   3  -1   4 40964.7 1526.65  43
  -1   3  -4 42015.1 1471.84  12
   3  -1   4 42730.7 1479.96  24
  -1   3  -4 37663.2 1393.40  38
   3  -1   4 41139.5 1520.73   3
   3  -1   4 41030.6 1627.83  38
  -2  -1  -4 42452.3 1368.32  38
   3  -2  -4 47666.4 1514.79  23
  -2  -1  -4 42717.6 1369.45  37
  -2   3   4 41022.1 1370.41  23
  -1  -2   4 43560.3 1547.71  42
   3  -1   4 40059.2 1464.45  37
  -2  -1  -4 42202.0 1379.79  22
  -1  -2   7 12552.1 908.812  37
   3  -1   7 13162.3 1034.86  36
   3  -2  -7 11513.8 809.720  21
  -1   3  -7 13237.8 763.274  35
  -1   3  -7 12188.5 719.464  26
   3  -2  -7 13880.0 762.629   2
  -2  -1  -7 9390.47 724.118   9
  -1   3  -7 12600.9 743.693  34
  -1  -2   7 13993.8 964.938  19
  -2  -1  -7 13008.8 698.371  34
  -1   3  -7 12584.1 746.580  33
  -2  -1  -7 13544.0 717.724  33
  -2  -1  -7 11468.1 712.142   8
   3  -1   7 12778.9 1011.01  17
  -1   3  -7 12424.0 749.195  32
  -2  -1  -7 10983.1 674.077  32
  -2  -1  -7 13129.8 715.340  31
  -2   3   7 13702.8 956.434  15
  -1   3  -7 13065.6 824.312  14
  -1  -2   7 12175.0 927.129  27
   3  -1   7 14724.6 988.636  43
   3  -1   7 12850.5 931.526  42
  -2  -1  -7 12367.6 720.759   5
  -1  -2   7 11503.3 875.232  13
  -1  -2   7 12341.7 951.587  41
   3  -1   7 12854.6 1003.15  41
  -1  -2   7 14268.8 993.267  40
  -2   3   7 13417.7 927.482   6
   3  -1   7 13125.8 1006.10  40
  -2  -1  -7 13426.3 755.027  25
  -1  -2   7 12194.5 924.837  39
   3  -1   7 12927.2 1004.59  39
   3  -1   7 13118.1 931.815   3
   3  -1   7 12296.8 988.779  38
  -2   3   7 11182.0 872.635  29
  -2  -1  -7 13965.4 732.959  37
  -3   0   6 8747.82 665.208  37
   3  -3   6 9387.64 758.033  42
  -3   0   6 9015.49 675.305   4
   3   0  -6 10654.4 647.719  36
   3  -3   6 8787.34 751.030   3
   3   0  -6 9382.70 621.344  35
  -3   0   6 8900.97 638.995   6
   3   0  -6 9766.17 630.867  34
  -3   0   6 8294.95 635.238  19
  -3   3  -6 9494.77 621.775  34
   0  -3  -6 9347.58 738.155   9
   3   0  -6 8613.89 584.924  33
  -3   3  -6 9875.04 637.026  33
   0   3   6 8205.65 699.717  17
  -3   3  -6 10066.9 651.199  32
  -3   3  -6 9324.00 630.325  31
  -3   0   6 9201.07 697.390  40
   0   3   6 10203.4 779.300  15
   0   3   6 8997.58 742.223  29
   3   0  -6 9138.31 656.134  44
   3   0  -6 8926.96 603.586   2
   3  -3   6 9660.22 765.508  43
  -3   0   6 9083.95 690.186  27
   3  -3   6 9285.66 827.787  41
  -3   3  -6 8850.08 580.930  26
   3  -3   6 10238.9 850.854  40
   0  -3  -6 10075.2 611.778  25
  -3   3  -6 9344.97 686.767  14
  -3   0   6 9284.82 705.938  39
   3  -3   6 8584.65 797.813  39
   0   3   6 10321.0 738.869   6
   3  -3   6 9299.81 848.003  38
   0  -3  -6 10125.4 628.122   5
  -3   0   3 12917.3 694.436  37
   3   0  -3 12797.1 672.680  37
  -3   0   3 14303.2 687.422  11
   3   0  -3 12243.5 680.667  27
   0  -3  -3 15564.2 784.115  22
   3  -3   3 14423.5 828.427  36
  -3   3  -3 13647.3 662.866  36
   0  -3  -3 14326.3 633.589   5
  -3   3  -3 14526.1 609.277  25
   0   3   3 14849.4 702.227  21
   3   0  -3 15229.2 755.100  36
   3   0  -3 12414.9 707.566  11
  -3   0   3 12718.4 651.342  36
   3  -3   3 15812.8 833.944  20
  -3   3  -3 12776.3 642.783  35
   3   0  -3 15474.1 767.657  35
  -3   0   3 11535.2 620.225  35
   3  -3   3 14734.9 712.620  28
  -3   0   3 13152.8 667.434  19
   3   0  -3 14078.6 741.169  34
   0   3   3 13664.1 639.464   5
   0   3   3 13746.0 645.894  11
  -3   0   3 11337.3 613.243  34
   3   0  -3 13153.3 666.798  19
  -3   3  -3 13471.9 647.678  34
   3  -3   3 14406.4 708.116  27
  -3   3  -3 13566.5 668.185  18
  -3   3  -3 13902.9 666.572  39
   3   0  -3 13150.4 720.195  33
   0  -3  -3 13679.3 778.101   9
  -3   0   3 11879.6 624.281  33
  -3   3  -3 13992.8 659.598  33
   0  -3  -3 14397.7 537.670  33
   3  -3   3 13515.1 671.449  33
   3  -3   3 14679.8 790.202  17
   3   0  -3 15448.1 709.510   4
  -3   0   3 12428.7 638.566  32
  -3   3  -3 14387.2 676.307  32
   0  -3  -3 14494.0 537.703  32
   0   3   3 13505.2 730.714  17
   3  -3   3 14492.7 701.466  32
  -3   3  -3 13785.3 667.730  41
   3  -3   3 14235.7 761.813  13
   3   0  -3 14958.3 647.207   8
   0  -3  -3 10931.1 591.759   8
  -3   3  -3 14378.1 680.071  31
   0  -3  -3 15301.1 549.500  31
   3  -3   3 15074.2 718.218  31
   3  -3   3 14020.2 714.115  16
  -3   0   3 14437.9 742.057   4
   3  -3   3 14904.5 739.427  43
  -3   0   3 13429.5 665.076  43
   0  -3  -3 12573.7 644.339  15
  -3   0   3 12772.7 688.489  31
   0   3   3 14806.6 776.438  15
   3  -3   3 13482.3 732.851   1
   0   3   3 14042.4 708.059   7
  -3   0   3 14007.8 686.257  44
   3   0  -3 15352.9 748.794   2
   3  -3   3 13477.7 751.026  44
  -3   3  -3 14207.7 727.090   1
   0   3   3 13949.0 666.301  28
   3  -3   3 14984.4 812.537  14
   0   3   3 14201.3 750.611  29
  -3   3  -3 13610.6 721.309  14
   3  -3   3 14413.4 732.289  42
   0  -3  -3 13909.2 668.336   7
  -3   0   3 13626.0 715.957  27
  -3   0   3 13182.1 662.019  42
   3   0  -3 13659.5 749.530  42
   3  -3   3 13002.1 753.902   3
   3   0  -3 13083.2 713.936  41
   3  -3   3 15539.4 839.604  41
   0  -3  -3 16435.1 647.121   6
  -3   3  -3 13292.0 651.353  13
   3   0  -3 14165.8 770.868  44
  -3   0   3 14234.2 768.680  26
  -3   0   3 13463.8 718.013  40
  -3   3  -3 14546.5 722.548  26
   3   0  -3 13773.2 720.757  40
   3  -3   3 14608.6 810.793  40
   0  -3  -3 15008.3 635.482  25
  -3   0   3 14992.7 760.715  39
   3   0  -3 12739.7 696.184  39
   0   3   3 14967.9 673.147   6
   3  -3   3 13961.0 803.858  39
   3  -3   3 14899.2 855.529  12
  -3   3  -3 14712.6 710.133  24
   3  -3   3 13727.7 707.063  24
   3  -3   3 14609.8 821.288  38
  -3   3  -3 14443.3 630.681   6
  -3   3  -3 13134.6 774.649  12
  -3   3  -3 12594.9 631.155  38
   0  -3  -3 15094.5 692.386  29
   3   0  -3 15561.7 765.623  38
  -3   0   3 13692.4 684.515   2
  -3   3  -3 13740.4 663.634  37
   0  -3  -3 14639.8 542.948  37
   3  -3   3 13835.1 687.745  37
   3   0  -3 14814.8 770.034  23
   3   0   0 94006.7 2558.81  11
   0  -3   0 101738. 2393.90  37
   3   0   0 97563.0 2567.39  37
   0  -3   0 102469. 2787.66  22
   0   3   0 94269.5 2387.76  37
   3  -3   0 101197. 2328.33  44
   0   3   0 93959.4 2453.49  11
   3  -3   0 96926.8 2375.92  36
  -3   3   0 94528.5 2283.66  36
   3   0   0 98376.2 2674.31  36
   0   3   0 102620. 2412.77  36
  -3   0   0 95774.2 2495.97  36
  -3   3   0 100307. 2431.46  21
  -3   3   0 95452.2 2276.66  38
  -3   0   0 100232. 2472.27   3
   0  -3   0 103770. 2400.57  36
  -3   3   0 99119.7 2590.61  10
   3  -3   0 93054.0 2718.46  20
  -3   3   0 93789.5 2287.21  35
   3   0   0 98508.6 2692.73  35
   0   3   0 96134.9 2382.63  35
  -3   0   0 93828.1 2469.07  35
   3  -3   0 99538.6 2579.44   3
   0  -3   0 99313.9 2369.98  35
   3  -3   0 98317.8 2678.34  10
  -3   0   0 100911. 2519.09  19
   0  -3   0 92562.7 2449.01  19
  -3   3   0 89857.2 2276.39  34
   3   0   0 95205.5 2522.85  19
   3   0   0 92006.9 2658.39  34
   0   3   0 100967. 2399.97  34
  -3   0   0 90015.4 2457.16  34
   0   3   0 91522.5 2449.55  19
   0  -3   0 91142.5 2343.82  34
   0  -3   0 99690.7 2332.76   5
   3  -3   0 97309.5 2548.80  18
   0   3   0 89933.0 2359.33  33
  -3   0   0 88874.2 2441.31  33
   0   3   0 101244. 2534.14   9
   0  -3   0 97713.9 2373.27  33
  -3   3   0 94246.6 2434.00  18
   3   0   0 101673. 2644.24  18
  -3   3   0 98723.3 2442.91   2
  -3   0   0 95231.6 2449.20   4
  -3   3   0 99116.6 2298.39  33
   3   0   0 94491.1 2570.01   8
   0  -3   0 88406.2 2347.16  32
  -3   0   0 100737. 2488.30  42
  -3   3   0 98530.2 2303.55  32
   0  -3   0 98801.9 2189.68   1
   3   0   0 98484.2 2646.17  42
  -3   0   0 103414. 2516.11  44
  -3   0   0 99903.9 2547.18   8
   3  -3   0 90676.0 2280.87  32
  -3   0   0 96955.8 2528.71  32
   0   3   0 92861.9 2419.80  42
   0   3   0 100374. 2567.30   8
   0   3   0 97889.5 2613.05  16
   3   0   0 94371.0 2313.06  16
  -3   3   0 99783.9 2304.36  31
  -3   0   0 102781. 2580.11  40
  -3   3   0 89900.4 2302.68  16
   3  -3   0 102878. 2450.17  14
   3  -3   0 100413. 2312.69  31
  -3   0   0 99767.5 2555.83  31
   0  -3   0 103529. 2416.62  40
   0  -3   0 99672.0 2386.84  31
   3   0   0 97141.3 2565.80  31
   0  -3   0 125028. 2706.38   8
   0  -3   0 106374. 2405.44  15
  -3   3   0 99532.0 2588.62  30
   3   0   0 100917. 2610.98  40
  -3   0   0 94884.9 2402.55   2
   3  -3   0 99293.9 2674.94  30
   0   3   0 92881.3 2394.02  30
  -3   0   0 101301. 2536.09  24
   0  -3   0 102967. 2392.46  44
   3   0   0 97130.1 2661.35  44
   0  -3   0 91127.8 2594.77   7
   0  -3   0 98284.3 2572.73  28
  -3   3   0 99137.9 2471.71  28
  -3   3   0 98645.6 2281.40  43
  -3   3   0 100887. 2290.10  42
   3  -3   0 101445. 2320.25  43
   0  -3   0 96397.2 2357.49  43
   3   0   0 98225.5 2633.60  43
   3  -3   0 102773. 2325.22  42
  -3   3   0 97449.5 2506.87   7
   3  -3   0 101250. 2316.89  27
  -3   0   0 96796.3 2555.68  27
   0   3   0 95317.3 2380.87  15
  -3   3   0 98527.2 2520.80   1
   3   0   0 101081. 2607.15  27
   0  -3   0 93361.1 2350.48  42
  -3   3   0 101121. 2372.01  14
   0   3   0 103655. 2438.45  27
   0   3   0 107411. 2506.75  13
   0   3   0 96624.3 2423.37  41
   0  -3   0 101244. 2195.28   3
   3  -3   0 98701.2 2383.17  41
   0  -3   0 105718. 2516.43  13
   0   3   0 87042.1 2512.81  26
  -3   3   0 97305.3 2299.04  41
   3   0   0 108422. 2746.92  41
   3  -3   0 99129.8 2318.36  40
   0   3   0 99091.9 2239.57  29
  -3   3   0 96768.9 2532.05  13
   0   3   0 111764. 2472.73  40
  -3   0   0 101428. 2492.64  43
   0  -3   0 98411.5 2409.73  39
   3   0   0 99816.9 2614.65  39
   0   3   0 92996.4 2402.57  39
   0  -3   0 97772.5 2115.15  24
   0   3   0 97475.7 2183.05   2
   3  -3   0 102492. 2389.68  39
   0  -3   0 102091. 2525.47  26
  -3   3   0 91363.7 2598.18  12
  -3   3   0 100532. 2484.07  24
   3  -3   0 95285.7 2379.02  38
  -3   3   0 99618.0 2481.73   3
   3  -3   0 84141.9 2437.62  24
   3   0   0 95760.9 2648.87  38
   3  -3   0 101092. 2638.42  12
  -3   3   0 94212.4 2526.22  23
   0   3   0 100203. 2392.60  38
  -3   0   0 95477.4 2475.98  38
  -3   0   0 103072. 2481.98  11
   3   0   0 98519.5 2498.49  23
   0   3   0 99493.0 2455.20  44
  -3   3   0 103633. 2318.58  37
   0  -3   0 106409. 2426.88  11
   3  -3   0 102973. 2172.57  11
   3  -3   0 97425.8 2303.70  37
  -3   0   0 100926. 2563.51  37
   0  -3   3 13007.1 670.711  22
   0  -3   3 12857.8 749.800  37
  -3   3   3 16419.5 876.012  22
   3   0   3 13911.2 798.152  36
   0  -3   3 14332.8 751.245  11
   3   0   3 12752.0 689.062   3
  -3   3   3 13463.4 718.499  21
  -3   0  -3 12824.3 647.404  36
   0  -3   3 13544.1 787.708  40
   0   3  -3 13475.3 694.860  36
   3   0   3 12185.9 755.612  35
  -3   3   3 15115.1 774.669  10
  -3   3   3 14463.0 737.372  20
  -3   0  -3 13410.9 662.465  35
   0   3  -3 13901.2 653.344   2
   3  -3  -3 13374.0 725.113  20
  -3   0  -3 12921.8 640.899   5
   0   3  -3 13884.5 709.048  35
   0  -3   3 13622.2 691.656  35
   3  -3  -3 15880.1 804.822  10
  -3   0  -3 12484.8 639.681  34
   0   3  -3 12965.0 672.290  34
   0  -3   3 13871.2 802.405  19
  -3   3   3 14159.2 667.842   3
   0  -3   3 13254.3 675.785  34
  -3   3   3 12236.9 638.721   9
   3   0   3 13046.0 683.917  18
   3   0   3 13412.7 688.140   5
   0   3  -3 14283.9 702.886  33
   3  -3  -3 14196.2 599.687  18
  -3   0  -3 14636.3 707.511  27
   0  -3   3 13139.5 678.357  33
  -3   0  -3 12753.7 589.298  18
  -3   0  -3 14121.7 680.972  33
   0   3  -3 14113.4 706.697  32
  -3   0  -3 12666.4 707.932   8
   0  -3   3 12388.2 666.821  32
   0  -3   3 13269.4 698.732   1
   3   0   3 12771.6 763.708  17
  -3   0  -3 13922.1 682.180  32
   3  -3  -3 14415.2 684.439   2
   3   0   3 12451.6 680.307  32
   0  -3   3 13605.0 696.282  31
  -3   3   3 12851.3 638.284   4
   0  -3   3 13999.4 737.157  16
  -3   0  -3 13681.4 684.534  31
   3   0   3 13774.1 715.960  31
   0   3  -3 14748.0 731.469   8
  -3   0  -3 14741.0 630.170   3
   0  -3   3 12447.6 568.254  30
  -3   3   3 10149.7 595.613  30
   0   3  -3 14361.8 632.728   4
  -3   0  -3 14470.0 662.554  15
   3  -3  -3 14132.4 776.628  21
   3   0   3 13369.9 754.060  44
   0  -3   3 13971.0 805.227  41
   0  -3   3 13836.8 751.175  44
   0   3  -3 12053.7 685.466  44
  -3   0  -3 14663.6 652.181  43
   3   0   3 12899.6 732.029  43
   0  -3   3 13030.2 723.982  42
   3   0   3 13491.8 715.773  27
  -3   0  -3 14606.9 652.668  42
   3   0   3 13919.1 749.353  14
   3   0   3 13381.0 742.907  42
   0  -3   3 14862.3 808.777  27
  -3   3   3 12195.0 680.034   6
   3   0   3 12722.1 660.458   1
   0   3  -3 11970.0 650.428  41
   0  -3   3 13268.4 838.787  13
   0   3  -3 12247.2 644.142  27
   3   0   3 13845.0 806.030  41
   0   3  -3 13601.7 748.851  26
  -3   0  -3 13391.7 666.914  41
   3   0   3 13263.2 716.666  40
   0  -3   3 12495.7 731.092  26
   3   0   3 13321.1 772.383  38
  -3   0  -3 14043.3 648.658   1
   0   3  -3 12051.6 649.744  40
  -3   3   3 14690.1 681.144  25
  -3   3   3 12593.8 605.367   2
   0  -3   3 14637.6 810.813  39
   0   3  -3 12965.6 689.630  12
   0   3  -3 11878.5 652.279  39
  -3   0  -3 12911.4 667.128  25
   3   0   3 13617.9 801.339  39
  -3   0  -3 15175.4 686.555  24
   0   3  -3 11794.0 662.648  38
  -3   0  -3 11994.4 619.290   6
   0   3  -3 12680.8 734.403  14
   3   0   3 14208.2 704.339  24
  -3   0  -3 13017.9 656.669  38
   3   0   3 13552.2 750.983  11
   3  -3  -3 14595.2 703.957  23
  -3   3   3 12871.6 679.791  23
  -3   0  -3 13719.6 682.338  37
   3   0   3 13871.2 723.146  37
   0  -3   6 8895.60 752.560  37
   3   0   6 10372.6 842.096  36
  -3   0  -6 9773.01 604.933   5
   3  -3  -6 9183.43 706.139  21
   0   3  -6 10791.1 684.551  36
   0   3  -6 9960.03 624.901   2
   0   3  -6 9591.40 637.868  35
   0   3  -6 9712.23 641.312  34
   0  -3   6 9321.33 777.929  19
  -3   0  -6 9562.20 596.837  34
   0   3  -6 9660.49 642.153  33
  -3   0  -6 9586.08 603.768  33
  -3   0  -6 9108.16 648.958   8
   0   3  -6 10669.3 682.183  32
   3   0   6 8661.49 781.235  17
  -3   0  -6 9299.56 605.289  32
  -3   0  -6 9667.12 615.904  31
   3   0   6 9411.01 735.691  42
  -3   3   6 9154.94 754.052  15
   0   3  -6 9947.76 696.311  44
   0   3  -6 9677.63 697.236  14
   3   0   6 9685.97 746.715  43
   0  -3   6 10069.1 808.516  27
   0  -3   6 9083.63 789.259  41
   0  -3   6 9214.43 814.633  13
   3   0   6 10134.9 813.676  41
   0   3  -6 10197.3 672.032  26
  -3   3   6 10149.2 756.978   6
  -3   3   6 10358.0 775.121  29
   0  -3   6 9031.63 774.784  40
   3   0   6 10534.4 823.755  40
  -3   0  -6 10544.0 647.515  25
   0  -3   6 10572.4 836.782  39
   3   0   6 9904.64 803.431  39
   3   0   6 9550.74 795.203  38
   3   0   6 9904.44 767.441  44
  -3   0  -6 9762.41 614.895  37
   3   1  -7 11052.2 703.011  36
   3   1  -7 11398.8 725.671  35
   3   1  -7 10747.8 709.981  34
  -4   3  -7 11787.7 728.335  34
   3   1  -7 10090.9 684.785  33
   1  -4  -7 12096.4 873.350   9
  -4   3  -7 11168.4 714.179  33
   1   3   7 10160.1 870.965  17
  -4   3  -7 11385.2 728.900  32
  -4   3  -7 10143.1 694.139  31
   1   3   7 10014.7 858.770  15
   3   1  -7 9567.59 713.585  44
  -4   1   7 9588.73 737.479   4
   3  -4   7 11115.6 879.089  42
  -4   3  -7 10609.6 758.368  14
   3   1  -7 11299.5 689.860   2
   3  -4   7 11620.2 993.631  41
   3  -4   7 10891.0 929.932  27
  -4   1   7 10236.5 736.952   6
   3  -4   7 11339.6 881.611  43
   3  -4   7 10895.8 938.007  40
   3  -4   7 10373.6 885.479   3
   3  -4   7 9701.36 919.721  39
   3  -4   7 10967.7 994.811  38
  -4   1   4 56467.9 1798.58  37
   1  -4  -4 61762.7 1996.40  22
   3   1  -4 57974.2 1874.84  36
   3   1  -4 57935.5 1889.72  35
   3   1  -4 57935.6 1887.18  34
  -4   3  -4 57488.3 1791.27  34
   3   1  -4 52434.0 1882.49  44
   3   1  -4 55514.0 1861.58  33
   1  -4  -4 60424.4 2065.80   9
  -4   3  -4 58433.0 1805.64  33
  -4   3  -4 61234.6 1833.47  32
   1   3   4 60191.5 2051.70  17
  -4   3  -4 61833.5 1844.29  31
  -4   1   4 48953.1 1738.33   6
  -4   1   4 54332.4 1858.92   4
  -4   1   4 52162.3 1758.74  31
   3  -4   4 53108.0 2025.57  30
   1   3   4 59318.9 2035.56  15
   3  -4   4 55783.5 1959.37  28
   3  -4   4 61363.9 1964.50  43
   3  -4   4 59913.7 1958.28  42
  -4   1   4 57132.5 1830.42  27
   3   1  -4 52515.6 1870.21  42
   3  -4   4 56051.7 2058.21  41
   3  -4   4 56816.6 2048.23  27
  -4   3  -4 57658.8 1898.16  14
  -4   3  -4 60651.8 1900.80   1
   3  -4   4 54557.9 1990.75  13
   3   1  -4 59331.6 1838.88   2
  -4   1   4 56835.9 1826.00  40
  -4   3  -4 59199.4 1820.42  26
   3  -4   4 60743.5 2095.70  40
  -4   1   4 55454.4 1825.01  39
  -4   3  -4 58382.2 1729.13  25
   3  -4   4 50926.2 1996.52  39
   3  -4   4 56196.2 1994.75   3
  -4   3  -4 57472.2 1845.34  24
   3  -4   4 61125.8 2154.82  38
   1   3   4 56787.8 1868.74  11
   3   1  -4 60142.0 1905.93  38
  -4   3  -4 59917.5 1828.52  37
   1  -4  -4 64434.8 1764.22   5
   1   3   1 4570.68 381.274  11
   3   1  -1 4637.50 397.257  37
   3   1  -1 4420.23 416.088  11
   1  -4  -1 5182.96 482.966  22
   3  -4   1 4668.86 387.993   3
  -4   3  -1 4518.41 325.627  36
   1   3   1 5677.67 394.533  36
   3   1  -1 5047.98 451.958  36
  -4   1   1 4548.42 346.649  36
  -4   1   1 5070.25 395.886  27
  -4   3  -1 4692.95 333.842  35
   1   3   1 5237.99 387.720  35
   3  -4   1 5363.47 480.040  20
   3   1  -1 4904.39 450.378  35
  -4   1   1 5340.93 398.383   3
  -4   1   1 4323.45 344.249  35
  -4   1   1 5238.63 369.436  19
   1  -4  -1 5332.04 318.276  19
  -4   3  -1 4581.15 329.819  34
   1   3   1 4851.97 371.569  34
   3  -4   1 5461.66 423.552  10
   3   1  -1 5363.91 458.646  34
   1   3   1 5167.72 386.293  19
  -4   1   1 4766.27 358.832  34
   3   1  -1 4726.40 395.358  19
   1   3   1 5007.57 408.360   9
  -4   1   1 4145.39 337.619  33
  -4   3  -1 4554.49 361.917  18
   3   1  -1 4812.95 421.774  18
  -4   3  -1 5309.44 355.023  33
  -4   1   1 5101.38 393.012   4
   3   1  -1 4550.20 395.593   8
   1   3   1 5111.12 422.261   8
   3   1  -1 4973.40 383.989   2
  -4   3  -1 5260.60 358.969  32
  -4   1   1 4914.46 379.865  32
  -4   1   1 4409.29 326.701   8
   3  -4   1 5894.95 389.192  16
   3  -4   1 4685.80 300.949  42
   1   3   1 5086.37 432.963  16
  -4   3  -1 5067.90 353.704  31
   3   1  -1 4752.30 365.178  16
  -4   3  -1 5574.58 433.332   1
  -4   1   1 5072.69 394.351  31
   3  -4   1 4355.59 430.503  30
  -4   3  -1 5377.40 366.184  27
  -4   1   1 5146.58 370.184  42
   3   1  -1 4528.71 401.886  40
  -4   1   1 5022.05 371.978  44
   1   3   1 5339.92 389.031  44
   3   1  -1 4501.18 433.067  44
   3  -4   1 5775.63 421.487  14
  -4   3  -1 5641.84 349.760  28
  -4   1   1 4810.90 360.290   2
  -4   3  -1 5090.53 333.749  43
   3  -4   1 5382.62 319.081  43
   3  -4   1 5014.28 430.802  28
   1  -4  -1 4497.93 396.945  28
  -4   1   1 4643.34 355.726  43
   1  -4  -1 4853.52 422.775   7
   3  -4   1 5137.60 387.423   1
   1   3   1 4782.07 366.831  43
   3   1  -1 4144.47 400.581  43
  -4   3  -1 5052.01 332.791  42
  -4   3  -1 4859.42 345.048   7
   1   3   1 5139.30 381.614  42
   3   1  -1 4960.36 434.924  42
   3   1  -1 4546.21 399.917  27
   3  -4   1 4869.26 353.381  41
  -4   3  -1 4807.79 341.648  41
   1   3   1 5905.23 409.038  41
  -4   1   1 4812.32 388.702  40
  -4   3  -1 4664.76 365.246  13
   1  -4  -1 4751.62 354.523  13
   3  -4   1 4957.08 444.734  13
   3  -4   1 5017.75 359.234  40
   3  -4   1 5863.91 493.101  12
  -4   1   1 4380.68 343.828  38
   3   1  -1 4833.68 420.465  39
   3  -4   1 4716.73 349.431  39
  -4   3  -1 5055.14 385.630   3
  -4   3  -1 5074.99 400.495  24
   3  -4   1 4874.39 363.736  38
   3  -4   1 5011.93 363.190  24
  -4   1   1 4577.95 397.158  24
  -4   3  -1 4713.59 334.786  38
   1   3   1 5951.26 409.170  38
   3   1  -1 5608.15 462.593  38
  -4   3  -1 4237.13 367.060  23
  -4   1   1 5105.68 352.299  11
  -4   3  -1 5184.00 357.917  37
   3   1  -1 5326.75 413.801  23
  -4   1   1 5258.19 439.705  23
  -4   1   1 4969.00 390.809  37
   1  -4   2 16788.4 789.498  37
   1  -4   2 16803.9 744.646  11
   1  -4   2 16915.7 867.735  22
   3   1   2 17388.4 915.817  36
  -4   1  -2 15775.9 736.627  36
   1   3  -2 15797.0 812.081  11
   1   3  -2 16202.9 794.294  36
  -4   3   2 18316.1 797.433   3
   3   1   2 16767.6 896.065  35
  -4   1  -2 15858.2 743.221  35
   1   3  -2 18064.4 837.706  35
   3  -4  -2 11740.5 763.303  20
   1   3  -2 16988.7 885.754  26
   3   1   2 16376.9 810.207  19
  -4   1  -2 15452.7 734.746  34
   3  -4  -2 16437.1 871.474  10
   1   3  -2 16370.4 802.094  34
  -4   1  -2 15696.0 717.855   5
   1  -4   2 15577.1 802.660  19
   1   3  -2 15405.0 760.133  19
   1  -4   2 15655.1 698.858  34
   1   3  -2 16109.4 800.998  33
   3   1   2 14532.7 741.368  18
   1  -4   2 15129.7 694.555  33
  -4   1  -2 16134.0 725.105  18
  -4   3   2 16558.0 700.596  18
   1  -4   2 16324.6 894.918  28
  -4   1  -2 16913.3 770.791  33
  -4   1  -2 15232.2 779.381   8
  -4   3   2 15423.0 744.820   4
   1  -4   2 15639.8 708.558  32
  -4   1  -2 17904.4 805.929   1
  -4   1  -2 17008.7 786.949  32
   3   1   2 16827.2 916.039  17
   1  -4   2 17880.1 790.415  42
   1  -4   2 15953.6 713.782  31
   1  -4   2 17396.1 839.930  16
   1   3  -2 14639.6 761.969   8
  -4   1  -2 17226.9 792.021  31
   1   3  -2 15061.1 821.062  16
   3   1   2 16475.4 801.734  31
  -4   3   2 20610.0 833.177  30
   1  -4   2 16731.5 778.932  30
  -4   1  -2 17090.0 791.175  27
   1  -4   2 14732.7 738.480  44
   1  -4   2 16258.8 863.748   7
  -4   3   2 16309.6 720.005   2
  -4   1  -2 18123.0 752.031  43
  -4   3   2 16883.4 780.375  28
   3   1   2 16613.2 871.120  44
   1  -4   2 15891.6 736.143  43
  -4   1  -2 16668.2 726.133  42
   3   1   2 16272.7 805.013  27
   3   1   2 15698.2 841.227  42
   1   3  -2 14704.5 766.062  42
   1  -4   2 17170.0 805.505  27
   1   3  -2 14778.0 733.775  40
   1  -4   2 18030.7 846.916  41
   1   3  -2 14889.0 727.888  27
   1   3  -2 14105.8 730.994  41
   1  -4   2 16950.9 749.387   3
   1  -4   2 15740.6 856.913  13
   3   1   2 16385.6 881.667  41
  -4   1  -2 16816.4 764.106  41
   3   1   2 15828.6 805.364  40
   1  -4   2 13354.8 759.212  26
   1  -4   2 15413.6 785.326  40
   3   1   2 16221.8 837.284  43
   1  -4   2 18916.0 854.792  39
   1   3  -2 16055.5 754.171  39
  -4   1  -2 17432.3 745.807   3
  -4   1  -2 18676.3 819.272  24
   3   1   2 15924.6 869.890  38
  -4   3   2 19067.2 845.693  24
  -4   1  -2 16323.8 735.873  38
   1   3  -2 17316.8 822.189  38
  -4   3   2 15364.2 794.798  23
  -4   1  -2 16156.1 671.165  23
   3   1   2 16412.7 858.112  11
   1   3  -2 13919.7 752.787  44
  -4   1  -2 17369.2 790.995  37
   3   1   2 15851.5 792.754  37
  -4   1  -5 290.793 125.834  37
   1  -4   5 136.591 150.332  37
   3   1   5-44.0525 137.992  11
   3   1   5-24.3607 168.717  36
   1   3  -5 68.3325 104.018  36
   3  -4  -5 1044.21 249.293  21
   1   3  -5 104.538 120.678  35
   1   3  -5 167.988 111.327   2
   1  -4   5 121.094 167.734  19
   1   3  -5 52.5111 112.671  34
  -4   1  -5 75.7180 116.201   1
  -4   1  -5 103.696 102.612  34
   1  -4   5 247.092 175.509   3
  -4   1  -5 197.838 118.472   5
   3   1   5 167.239 157.398  44
   3  -4  -5 219.909 156.204   9
   1   3  -5 99.1502 109.136  33
  -4   1  -5 119.368 103.354  33
   1   3  -5 152.596 130.096  32
   3   1   5 75.7174 153.661  17
  -4   1  -5 106.913 108.170  32
  -4   1  -5 184.126 117.737  31
  -4   3   5 116.160 134.090  29
   1   3  -5-18.3836 101.582  44
   3   1   5 20.2926 137.317  43
   1   3  -5 287.488 155.008  14
  -4   3   5 195.728 134.101   4
   3   1   5 20.1963 122.966  42
   1  -4   5 72.3478 146.824  27
   1  -4   5 150.557 196.054  41
   3   1   5 115.436 167.007  41
   1   3  -5 75.9243 115.570  26
   1  -4   5 54.0189 143.800  13
   1  -4   5 24.3531 148.268  40
  -4   1  -5 104.302 107.799  25
   1  -4   5 48.8111 157.083  39
   3   1   5 138.277 166.711  39
  -4   1  -5 155.135 119.038  24
  -4   3   5 56.4489 103.972   6
   3   1   5 71.0016 156.288  38
  -4   3   5 58.5782 135.240  23
   3   2  -5 21641.2 1044.09  36
   3   2  -5 20438.0 954.605   2
   3   2  -5 18415.4 1012.60  14
   3   2  -5 21515.5 1058.10  35
  -5   3  -5 22914.8 985.370  26
   3   2  -5 20744.2 1036.54  34
  -5   3  -5 20596.1 968.312  34
   3   2  -5 20520.3 1029.30  33
   2  -5  -5 23700.7 1251.26   9
  -5   3  -5 21249.4 983.037  33
  -5   3  -5 21861.1 1004.35  32
   2   3   5 20471.1 1197.93  17
  -5   3  -5 21084.1 989.411  31
  -5   2   5 19402.0 1012.77   4
  -5   3  -5 23640.8 1091.27   1
   3  -5   5 21006.6 1150.17  30
   3  -5   5 23151.3 1259.46  28
   3   2  -5 17930.9 987.946  42
  -5   2   5 18816.2 970.387   6
   3  -5   5 20937.3 1201.20  13
  -5   3  -5 21960.7 961.381  25
   3  -5   5 21155.4 1178.49   3
  -5   3  -5 21586.9 1028.72  24
   3   2  -5 22129.4 1063.68  38
   2   3   5 20529.5 1097.59  11
  -5   3  -5 22106.5 1012.39  37
   3   2  -5 18492.2 1025.17  44
   3   2  -2 69737.5 2331.43  11
   3   2  -2 83027.2 2444.10  36
  -5   3  -2 78596.5 2187.62  27
   3   2  -2 85190.9 2487.68  35
   3  -5   2 70748.6 2287.10  20
   3   2  -2 80757.6 2413.24  34
  -5   3  -2 81785.3 2359.80   1
   3   2  -2 77288.3 2379.90  33
  -5   3  -2 76537.2 2140.04  33
  -5   2   2 71864.1 2184.81   4
  -5   3  -2 74787.2 2146.26  32
  -5   2   2 72760.6 2119.40  32
   2   3   2 76448.5 2345.07  16
  -5   3  -2 78082.7 2172.36  31
   3   2  -2 68041.5 2196.00  16
  -5   2   2 76722.8 2162.39  31
   3  -5   2 68632.3 2357.45  30
   2   3   2 70678.8 2210.32  44
   3   2  -2 71754.0 2351.22  44
   3  -5   2 75341.3 2408.85  28
   2   3   2 69948.9 2193.14  43
  -5   2   2 79933.3 2190.08  27
   3  -5   2 75178.3 2348.36   7
   2   3   2 69737.8 2195.17  42
   3   2  -2 69913.5 2313.63  42
  -5   2   2 79831.8 2196.70  40
   3  -5   2 75435.6 2422.93  13
   3   2  -2 66613.9 2251.14  43
  -5   3  -2 84787.3 2336.60  24
  -5   2   2 74269.3 2289.53  24
   3   2  -2 85353.3 2436.69  38
   3  -5   2 70818.3 2208.80   3
  -5   3  -2 71703.6 2139.52  23
  -5   3  -2 77592.7 2164.47  37
  -5   2   2 73035.4 2322.37  23
  -5   2   2 80966.3 2192.70  37
   2   3   2 73658.8 2286.70  11
   3   2   1 23790.2 1128.74  11
   2   3  -1 24100.2 1126.74  11
   2  -5   1 28414.6 1314.25  22
   3   2   1 26849.6 1181.73  36
   2   3  -1 28589.8 1180.61  36
   3   2   1 24441.6 1148.99  35
   2   3  -1 27417.9 1170.56  35
   3   2   1 25440.3 1167.16  34
   2   3  -1 26417.0 1134.50  34
  -5   2  -1 26441.5 1002.12   5
   2   3  -1 25880.2 1122.11  33
   3   2   1 28633.7 1118.52  18
  -5   3   1 23308.3 1029.42   4
  -5   2  -1 27489.7 1053.58  33
  -5   2  -1 25835.4 1053.86   8
  -5   2  -1 28400.9 1077.77  32
   3   2   1 25992.7 1080.07  16
   2   3  -1 26644.0 1152.75  16
  -5   2  -1 28219.3 1086.28  31
   2  -5   1 25880.8 1144.77  30
   3  -5  -1 23846.3 1145.98  30
   3   2   1 24842.6 1138.77  44
   2   3  -1 26355.1 1155.75  44
   2  -5   1 26319.2 1220.62  28
   3   2   1 23005.0 1090.29  43
   2  -5   1 25858.9 1183.00   7
  -5   2  -1 28486.1 1093.19  27
   2   3  -1 24467.7 1083.70  43
   3   2   1 24635.9 1127.68  42
   2   3  -1 26015.8 1140.22  42
  -5   2  -1 27801.9 1137.59   1
   3   2   1 27609.3 1210.42  41
   2  -5   1 26271.3 1171.24  13
  -5   2  -1 27912.1 1008.27  13
  -5   2  -1 31178.1 1196.58  24
  -5   3   1 25856.6 1099.97  24
   3   2   1 27779.2 1206.53  38
   2   3  -1 26739.6 1132.94  38
  -5   3   1 26617.5 1139.65  23
  -5   2  -1 25410.4 1029.96  23
  -5   2  -1 28407.9 1081.11  37
  -5   3   1 29446.0 1173.78   1
   3   2   4 26710.1 1293.45  36
   2   3  -4 27626.7 1183.92  36
   3   2   4 27240.8 1305.10  35
  -5   2  -4 26855.3 1039.18   5
   2   3  -4 28428.6 1208.02  35
   2   3  -4 28757.6 1220.87  34
   2  -5   4 26053.5 1261.33  19
   2   3  -4 27037.0 1186.80  33
  -5   2  -4 26565.3 1113.24  33
  -5   2  -4 27473.7 1141.17  32
   3   2   4 26671.9 1372.30  17
  -5   3   4 25408.2 1130.55   4
  -5   2  -4 27393.7 1141.62  31
   3   2   4 29864.2 1310.62  44
   2   3  -4 22390.4 1152.03  14
   2   3  -4 22326.3 1114.01  44
   2  -5   4 26116.2 1384.92  28
   3   2   4 31017.0 1297.07  43
   3   2   4 30119.4 1283.24  42
   2   3  -4 21924.6 1096.20  42
   3   2   4 27942.0 1321.54  41
  -5   2  -4 28214.1 1187.39   1
   2  -5   4 24698.9 1333.65  13
   2  -5   4 25807.1 1225.75   3
  -5   2  -4 27800.6 1140.16  25
   3   2   4 26975.3 1299.72  39
  -5   2  -4 27807.8 1184.75  24
   3   2   4 26455.6 1260.33  38
   2   3  -4 29930.3 1230.21  38
   3   2   4 24671.8 1244.10  11
  -5   2  -4 27818.3 1146.15  37
  -5   3   4 24389.8 1197.99  23
  -5   2  -7 8225.78 627.449   1
   3  -5  -7 8084.42 703.221   9
  -5   3   7 7644.51 631.800   4
   2  -5   7 9674.42 973.217  28
   2  -5   7 7899.09 734.720  43
   2  -5   7 8346.17 790.626  27
   2  -5   7 8989.53 840.807  41
   2  -5   7 8396.53 797.867  40
   2  -5   7 7702.67 775.188  39
   3   3   0 26011.9 1236.74  11
   3   3   0 27369.7 1241.31  36
   3   3   0 27388.8 1249.68  35
   3   3   0 26500.0 1240.63  34
  -6   3   0 25709.9 1110.31   4
   3   3   0 26568.4 1180.59  16
   3  -6   0 26346.7 1286.36  28
   3  -6   0 25427.1 1225.16  30
   3   3   0 26181.4 1243.32  44
   3  -6   0 27307.1 1307.94   7
   3   3   0 26009.7 1202.94  42
   3   3   0 30230.2 1309.98  41
   3   3   0 24557.4 1168.56  43
   3  -6   0 27777.9 1257.99  13
  -6   3   0 26026.4 1166.50  24
   3   3   0 27430.6 1215.95  38
  -6   3   0 25320.6 1136.64  23
  -6   3   0 30607.2 1256.75   1
   3   3  -3 16380.9 945.467  36
   3   3  -3 13606.9 883.909  11
   3   3  -3 15358.9 908.108  35
   3   3  -3 15720.8 923.525  34
   3   3  -3 15103.0 900.138  33
  -6   3  -3 15302.6 803.775  33
  -6   3  -3 13514.3 803.560   8
  -6   3  -3 15338.8 818.292  32
   3   3   3 16472.4 1066.32  17
  -6   3   3 13738.8 799.642   4
   3   3   3 14934.6 907.460  16
  -6   3  -3 15261.1 809.883  31
   3  -6   3 13683.5 890.004  30
   3   3  -3 13170.2 843.904  44
   3  -6   3 14153.4 969.127  28
   3   3  -3 13281.5 841.674  42
   3  -6   3 15117.3 997.434  13
  -6   3  -3 15888.8 882.072  24
  -6   3  -3 15223.0 882.853   1
  -6   3   3 15497.4 885.709  24
   3   3  -3 16935.3 943.480  38
  -6   3  -3 16266.4 834.204  37
  -6   3   3 14592.2 901.525  23
   3   3   3 13730.4 892.992  11
  -2   4   0 21780.5 948.879  22
  -2   4   0 20484.2 721.318   1
  -2   4   0 19368.0 852.446   7
   4  -2   0 19315.3 886.824  36
  -2  -2   0 17464.0 749.902  36
   4  -2   0 20087.7 697.146  21
  -2   4   0 21151.0 864.924  21
   4  -2   0 24214.4 1065.98  20
   4  -2   0 18765.1 861.480  35
  -2   4   0 17315.3 805.915  20
  -2  -2   0 18213.2 769.437  35
  -2   4   0 19665.0 841.629  10
  -2  -2   0 20293.7 869.226  19
  -2  -2   0 19694.8 680.105   3
   4  -2   0 19017.2 733.807  19
   4  -2   0 21297.6 865.580  14
  -2  -2   0 16981.6 752.843  34
   4  -2   0 18510.1 896.953   3
  -2   4   0 16817.1 706.453  18
  -2  -2   0 16982.3 751.319  33
   4  -2   0 19772.1 912.879  18
  -2   4   0 21293.0 925.836   9
   4  -2   0 19331.5 873.052  41
   4  -2   0 19971.5 716.431  17
  -2   4   0 19469.7 828.510  16
  -2  -2   0 18766.5 866.498   8
  -2  -2   0 18393.4 673.639   4
  -2   4   0 19567.4 778.526   8
  -2  -2   0 20019.2 839.247  31
   4  -2   0 18624.2 784.487  31
  -2   4   0 20628.4 714.836  15
  -2   4   0 17465.1 792.256  30
   4  -2   0 20383.9 867.126  30
  -2  -2   0 19077.2 788.459  15
  -2  -2   0 20429.1 815.226  44
   4  -2   0 19115.1 835.215  44
  -2  -2   0 18845.6 747.125  28
  -2   4   0 17850.0 824.786  28
  -2   4   0 19598.9 756.997  14
  -2  -2   0 20224.9 793.553  43
   4  -2   0 18853.9 810.238  43
  -2  -2   0 18830.1 820.558  27
   4  -2   0 19304.6 798.925  27
  -2  -2   0 19466.4 779.785  42
   4  -2   0 19157.5 830.685  42
  -2   4   0 19887.4 831.436  13
  -2  -2   0 17459.9 820.734  26
  -2  -2   0 19851.5 841.602  40
   4  -2   0 20019.2 829.202  40
  -2   4   0 19930.0 863.629  26
   4  -2   0 20681.8 842.484  39
  -2   4   0 19962.2 929.666  12
  -2  -2   0 19194.4 667.892   2
   4  -2   0 22815.8 924.150  12
  -2  -2   0 20407.2 708.706  24
   4  -2   0 18276.7 850.446  38
  -2  -2   0 19434.3 796.440  11
   4  -2   0 18190.2 747.284  11
  -2  -2   0 20360.0 843.883  37
   4  -2   0 20853.1 819.135  37
  -2  -2   3 1545.32 254.836  37
  -2   4   3 1902.42 313.658  22
   4  -2  -3 1660.74 212.079  37
   4  -2   3 1700.66 282.500   3
  -2   4   3 1700.81 251.671  28
   4  -2   3 2342.29 341.313  36
  -2  -2  -3 1480.97 205.899  36
   4  -2  -3 1657.09 276.875  21
   4  -2  -3 2240.34 267.254  36
  -2   4   3 2194.28 302.503  29
   4  -2  -3 1742.76 278.660  10
   4  -2  -3 1917.54 263.603  20
  -2  -2  -3 1870.21 231.036  35
   4  -2  -3 2011.39 258.593  35
  -2  -2  -3 1640.95 227.499   5
   4  -2   3 1853.76 267.942  27
  -2   4  -3 1795.15 231.052  35
  -2  -2  -3 1617.55 212.716  34
   4  -2  -3 1539.48 224.702  34
  -2  -2   3 1635.94 261.879  19
  -2   4  -3 1989.00 244.290  34
  -2  -2  -3 1700.40 274.357   9
   4  -2   3 1827.25 289.977  18
   4  -2  -3 1640.89 228.945  33
  -2   4  -3 1741.58 228.943  33
   4  -2  -3 1953.04 272.022  18
  -2  -2  -3 1886.22 223.921  33
  -2   4  -3 1572.69 222.230  32
   4  -2   3 1777.81 273.797  17
  -2  -2  -3 1828.39 225.470  32
  -2  -2  -3 1712.44 261.887   8
   4  -2   3 2060.12 271.887  32
   4  -2  -3 2033.00 288.537   2
  -2   4  -3 1765.17 230.607  31
  -2  -2   3 1733.51 244.019  16
  -2  -2  -3 1705.22 217.734  31
   4  -2   3 2041.66 277.532  31
  -2   4   3 1986.77 294.626  15
   4  -2   3 1469.30 253.306   1
  -2  -2  -3 1754.91 202.765   7
   4  -2   3 2251.08 315.913  44
  -2  -2  -3 2201.87 255.714  29
   4  -2  -3 1509.76 225.653  44
  -2  -2   3 1684.53 238.818   4
  -2   4   3 1694.70 261.800   7
  -2  -2  -3 1638.69 202.667  43
  -2   4  -3 1945.85 278.465  14
   4  -2   3 2117.39 298.628  43
  -2  -2  -3 1877.88 232.633  27
   4  -2   3 1503.80 274.153  14
  -2  -2  -3 1700.24 207.686  42
   4  -2   3 1709.77 275.318  42
  -2  -2   3 1652.82 260.513  27
   4  -2  -3 1557.80 223.763  42
   4  -2  -3 1668.30 219.199  27
   4  -2  -3 1467.63 213.035  41
   4  -2   3 1807.28 311.147  41
  -2   4   3 1823.75 244.844   6
  -2   4  -3 1927.36 282.238  26
   4  -2   3 2163.99 292.402  40
  -2  -2   3 1250.22 234.516  40
   4  -2  -3 1603.99 219.824  40
  -2  -2   3 1829.35 280.840  39
   4  -2  -3 1516.96 211.232  39
  -2  -2  -3 2034.00 246.159  25
  -2   4  -3 1507.01 263.393  12
   4  -2   3 1995.86 320.643  39
   4  -2   3 2151.53 338.600  38
   4  -2   3 2161.55 287.032  11
  -2  -2  -3 1554.44 206.560  38
   4  -2  -3 1811.84 239.544  38
  -2   4   3 1800.26 227.650  23
  -2  -2  -3 1956.20 233.171  37
   4  -2   3 2093.42 276.538  37
  -2  -2  -3 1756.16 211.672   6
  -2  -2  -3 2241.87 307.690  22
  -2  -2   6 38731.1 1650.64  37
   4  -2   6 37208.1 1821.07  36
  -2  -2  -6 37200.0 1379.58   5
   4  -2  -6 35878.6 1598.75  21
  -2   4  -6 39315.6 1437.21  35
  -2  -2   6 38948.2 1644.37  19
  -2   4  -6 38071.5 1420.89  34
  -2  -2  -6 33929.8 1508.50   9
  -2   4  -6 40301.4 1452.85  33
   4  -2   6 37032.4 1753.27  17
  -2   4  -6 38404.4 1434.01  32
  -2  -2  -6 35099.5 1389.44   8
  -2  -2   6 35601.5 1531.01   4
  -2   4  -6 36300.9 1406.64  31
  -2   4   6 37420.3 1692.05  15
   4  -2  -6 38620.7 1477.39   2
   4  -2   6 40005.6 1740.63  44
  -2   4   6 36745.0 1669.47  29
  -2   4  -6 36240.3 1503.05  14
   4  -2   6 43354.5 1777.23  42
  -2  -2   6 39412.5 1683.68  27
  -2  -2   6 40660.7 1747.30  41
   4  -2   6 37768.5 1784.91  41
  -2   4  -6 38067.1 1457.32  26
  -2  -2   6 38343.8 1670.08  40
  -2   4   6 37174.7 1609.21   6
   4  -2   6 37229.0 1772.28  40
   4  -2   6 41106.4 1726.27  43
  -2  -2   6 41186.2 1729.02  39
   4  -2   6 38248.4 1806.69  39
   4  -2   6 38069.6 1813.15  38
  -2   4  -6 35525.4 1423.89  12
   4  -2   6 38362.9 1683.92   3
  -2  -2  -6 35818.8 1371.21  25
  -1  -3  -7 10427.7 671.848   5
  -3  -1   7 11893.1 838.481  37
   4  -1  -7 11503.7 820.912  21
  -3   4  -7 10697.3 759.521  14
  -3   4  -7 10892.0 700.983  35
  -3  -1   7 10583.6 780.695  19
  -3   4  -7 10888.6 701.094  34
  -1  -3  -7 9199.09 735.426   9
  -3   4  -7 10175.5 680.612  33
  -3   4  -7 10822.8 705.741  32
  -3   4  -7 10993.9 710.696  31
  -1   4   7 10591.5 873.851  15
  -1   4   7 12996.4 950.446  29
   4  -1  -7 10835.9 700.267   2
   4  -3   7 11722.2 926.449  43
  -3  -1   7 10330.7 772.805   4
   4  -3   7 11708.8 926.263  42
  -3  -1   7 11359.1 830.430  27
   4  -3   7 10918.7 982.126  41
  -3  -1   7 10021.2 790.122  40
   4  -3   7 12079.6 1008.94  40
  -1  -3  -7 10195.1 652.109  25
  -3  -1   7 11359.5 840.239  39
   4  -3   7 11923.7 1004.86  39
   4  -3   7 11034.9 914.165   3
   4  -3   7 11826.3 1036.30  38
  -3  -1   4 53232.5 1866.66  37
  -1  -3  -4 57585.1 1891.24  22
   4  -3   4 59944.2 2180.90  36
   4  -1  -4 58858.3 2090.32  21
  -1  -3  -4 59678.2 1774.08   5
   4  -1  -4 63846.1 1931.06  36
   4  -1  -4 52473.9 1848.36  10
   4  -1  -4 62279.7 1896.68  35
  -3   4  -4 58858.0 1802.33  35
   4  -1  -4 58222.8 1867.11  34
  -3  -1   4 52623.6 1833.09  19
  -3   4  -4 56271.7 1772.66  34
  -1  -3  -4 56713.4 2006.11   9
   4  -1  -4 57604.5 1854.47  33
  -3   4  -4 60798.4 1816.52  33
   4  -1  -4 62072.9 1953.79  18
  -3   4  -4 62803.2 1939.99   1
  -3   4  -4 65410.2 1862.06  32
  -1  -3  -4 59996.3 1877.02   8
  -3   4  -4 58377.4 1805.87  31
  -3  -1   4 52703.4 1853.26  31
   4  -1  -4 62646.5 1963.39   2
  -1   4   4 65638.6 2104.37  15
  -3  -1   4 51766.1 1818.23   4
  -1   4   4 68437.4 2117.55  29
   4  -1  -4 54045.2 1845.05  44
   4  -3   4 56689.5 1960.90  43
   4  -3   4 60024.8 2005.08  42
  -3   4  -4 57943.3 1937.73  14
   4  -1  -4 55533.1 1842.79  42
  -3  -1   4 52974.7 1702.23   6
   4  -3   4 60232.7 2133.63  41
  -3   4  -4 57922.2 1907.42  26
  -3  -1   4 55000.8 1905.10  40
   4  -3   4 56378.5 1933.71  13
   4  -3   4 58772.7 2104.63  40
  -3  -1   4 55632.5 1925.21  39
  -1  -3  -4 58220.3 1738.92  25
   4  -3   4 62651.6 2171.24  39
   4  -3   4 61284.5 2167.46  38
  -3   4  -4 54387.2 1961.47  12
   4  -3   4 57963.1 2048.78   3
   4  -1  -4 61291.9 1885.35  38
  -3  -1   4 54609.5 1891.60  27
  -1   4   1 4860.49 458.645  22
  -1  -3  -1 4531.74 477.331  22
   4  -1  -1 4880.42 391.957  37
   4  -1  -1 4159.23 375.227  11
  -3   4  -1 5310.91 426.930  22
   4  -3   1 4962.54 409.083  36
   4  -1  -1 4820.98 361.954  21
   4  -1  -1 5592.66 460.814  36
   4  -3   1 5223.12 419.549  41
  -1  -3  -1 5082.55 336.863  36
  -3  -1   1 4708.19 374.419  36
  -1   4   1 5367.32 425.952  21
   4  -3   1 4755.13 434.589   3
   4  -3   1 4604.59 392.116  35
   4  -3   1 3827.86 441.523  20
  -3   4  -1 4966.77 378.207  10
   4  -3   1 4882.30 449.773  10
   4  -1  -1 5136.41 446.014  35
  -1   4   1 4551.62 393.379  20
  -1  -3  -1 4672.73 326.503  35
  -3  -1   1 4703.53 377.443  35
  -1  -3  -1 4752.48 369.010  19
  -3  -1   1 5133.91 415.380  19
   4  -1  -1 4967.28 437.739  34
  -1   4   1 5391.03 440.493  10
  -1  -3  -1 4674.11 345.485   5
   4  -1  -1 4778.90 360.773  19
  -1  -3  -1 5024.67 340.795  34
  -3  -1   1 4391.09 367.806  34
  -3  -1   1 4596.17 351.732   3
   4  -3   1 4619.91 427.467  18
  -1   4   1 4475.01 408.686   9
  -3   4  -1 4879.41 364.938  18
  -1  -3  -1 4304.99 317.228  33
  -3  -1   1 4356.33 364.122  33
  -1  -3  -1 5407.34 404.845   9
   4  -1  -1 5258.89 449.872  18
   4  -1  -1 5033.12 433.744   2
   4  -3   1 4736.68 346.911  32
  -1  -3  -1 4614.83 325.529  32
  -1   4   1 5272.45 363.495   8
  -1   4   1 5126.59 426.822  16
   4  -1  -1 5060.08 422.621  42
  -3  -1   1 5008.80 370.211   4
  -3  -1   1 4349.42 377.168   8
  -1  -3  -1 4964.13 416.749   8
  -3   4  -1 4822.88 363.134  16
   4  -3   1 4812.38 351.580  31
  -1  -3  -1 4702.89 332.099  31
  -3  -1   1 4820.90 408.435  31
   4  -1  -1 4685.93 382.144  31
  -1  -3  -1 4561.86 349.130  15
   4  -3   1 5003.96 457.484  30
  -1   4   1 5199.74 369.432  15
  -1   4   1 4757.53 374.329  30
  -1   4   1 5047.34 422.956   7
   4  -3   1 4643.04 370.378  44
  -1  -3  -1 6041.78 356.455  44
  -3  -1   1 5511.58 414.576  44
  -1  -3  -1 4302.78 392.893   7
   4  -1  -1 4495.82 408.474  44
  -3   4  -1 5257.37 388.964   7
  -3   4  -1 5290.70 398.891  28
  -1   4   1 4926.71 406.022  28
   4  -3   1 4507.23 360.202  42
  -1  -3  -1 4784.71 352.551  28
   4  -3   1 4925.04 372.914  43
  -3  -1   1 5046.87 391.024  43
   4  -1  -1 4485.11 398.236  43
   4  -3   1 5409.30 419.241  14
  -3   4  -1 5107.81 362.711  14
   4  -3   1 4676.12 355.034  27
  -1  -3  -1 5717.43 366.469  27
  -3  -1   1 5082.01 425.892  27
  -1  -3  -1 4717.68 316.290  42
  -3  -1   1 5254.41 400.980  42
   4  -1  -1 4712.29 394.293  27
  -3  -1   1 4502.89 417.472  26
  -1  -3  -1 4905.89 302.195  13
  -3   4  -1 4972.01 401.995  13
   4  -1  -1 5480.81 463.075  41
  -1   4   1 4584.79 369.564  26
  -3   4  -1 4686.58 351.427   3
   4  -3   1 4621.02 356.556  40
  -1  -3  -1 5870.45 372.339  40
  -3  -1   1 5211.41 437.606  40
   4  -1  -1 4878.71 400.777  40
  -3   4  -1 5327.04 429.460  26
  -3  -1   1 4882.21 345.203   2
  -3   4  -1 5247.82 393.333   1
  -1  -3  -1 4781.33 317.667  43
   4  -1  -1 4982.50 411.358  39
  -1  -3  -1 5485.12 391.141  26
   4  -3   1 5501.05 477.778  12
  -3   4  -1 4647.93 443.400  12
   4  -3   1 5060.93 411.393  39
  -3   4  -1 5317.51 363.638  24
   4  -3   1 5380.69 431.297  38
   4  -3   1 5164.03 418.968  24
  -3  -1   1 5045.37 389.370  24
   4  -1  -1 5152.37 434.138  38
  -1  -3  -1 4889.19 349.906  11
   4  -3   1 4693.45 316.671  11
   4  -1  -1 5282.23 421.106  23
  -3  -1   1 5688.86 408.714  11
   4  -3   1 5021.58 362.185  37
  -1  -3  -1 5067.51 347.303  37
  -3  -1   1 5224.75 428.245  37
  -1  -3   2 18329.2 992.341  22
  -1  -3   2 17006.0 830.583  37
  -1  -3   2 17998.3 810.884  11
  -3   4   2 19034.1 972.440  22
   4  -1   2 17629.8 935.452  36
  -3  -1  -2 15593.8 730.145  36
  -3   4   2 15439.2 760.727  21
   4  -3  -2 17516.4 839.963  21
  -1   4  -2 17526.9 757.011  36
   4  -1   2 17076.3 922.659  35
  -3   4   2 15125.6 808.118  20
   4  -3  -2 17121.3 898.733  20
   4  -1   2 16379.2 855.206   3
  -3  -1  -2 16249.2 743.440  35
  -3   4   2 17722.6 873.830  10
   4  -3  -2 16571.9 903.590  10
  -1   4  -2 18075.5 775.284  35
  -1  -3   2 15674.5 730.820  35
   4  -1   2 16858.6 798.851  19
  -3  -1  -2 15986.6 738.169  34
  -1  -3   2 16349.9 828.993  19
  -3  -1  -2 15864.8 753.108   5
  -1   4  -2 17857.4 749.779  34
  -1  -3   2 15270.9 723.117  34
   4  -1   2 17495.9 881.543  18
  -1   4  -2 15889.5 719.455  33
   4  -3  -2 18193.1 823.520  18
  -3   4   2 16105.1 790.245   9
  -1  -3   2 14152.3 703.463  33
  -3  -1  -2 18878.1 715.555   1
  -1   4  -2 16633.9 735.504  32
  -1  -3   2 14533.8 719.349  32
  -3  -1  -2 17103.6 839.637   8
   4  -1   2 16944.0 845.494  17
  -3  -1  -2 16320.2 760.452  32
   4  -1   2 16103.6 796.125  32
  -3   4   2 17479.6 740.532  16
  -1  -3   2 16928.6 798.828  16
  -3  -1  -2 17303.7 780.159  31
  -1   4  -2 14201.4 798.919  16
   4  -1   2 16390.4 815.751  31
  -1   4  -2 17754.7 827.947   8
  -1  -3   2 16533.0 814.348  31
  -3   4   2 12911.9 712.625  30
   4  -3  -2 16205.3 791.691  30
  -3  -1  -2 15480.1 740.284  15
  -3  -1  -2 18086.9 759.263  44
   4  -1   2 16918.7 879.043  44
  -1  -3   2 16124.4 776.346  44
  -1   4  -2 16653.7 768.678  44
  -1   4  -2 15285.9 800.054  14
  -3   4   2 16927.1 796.960  28
  -3  -1  -2 16660.8 716.254  43
   4  -1   2 16354.6 849.989  43
  -1  -3   2 17744.8 795.925  43
  -3   4   2 16801.6 829.039   7
  -3  -1  -2 17018.4 780.554  27
   4  -1   2 15679.5 805.458  27
  -3  -1  -2 17262.9 735.258  42
  -1  -3   2 18031.6 800.256   4
   4  -1   2 16539.5 852.912  14
   4  -1   2 16495.0 853.280  42
  -1  -3   2 15097.8 746.170  42
  -1  -3   2 17928.9 859.947  27
  -1   4  -2 16401.9 787.823  13
  -1  -3   2 18614.2 985.638  13
   4  -1   2 15614.5 882.542  41
  -1   4  -2 15494.1 831.131  26
  -1  -3   2 15467.2 868.385  26
   4  -1   2 16269.5 827.354  40
  -1  -3   2 18575.5 872.153  40
  -3   4   2 16561.1 775.720  13
  -1  -3   2 18818.5 889.875  39
  -1   4  -2 14560.5 822.392  12
  -3   4   2 13510.0 730.391  12
   4  -1   2 16483.2 930.302  39
  -3  -1  -2 17040.6 711.046  24
  -3  -1  -2 17190.0 716.303   6
   4  -1   2 17330.0 912.283  38
   4  -1   2 16327.8 820.251  24
  -3  -1  -2 15999.5 723.945  38
   4  -1   2 16241.0 826.524  11
  -3   4   2 14702.4 742.137  23
  -3  -1  -2 16461.7 768.111  37
   4  -1   2 16777.8 827.192  37
  -3  -1  -5 112.852 108.249  37
  -1  -3   5 368.274 189.228  37
   4  -3  -5 43.9789 133.883  21
   4  -1   5 54.2329 179.063  36
  -1   4  -5 80.8195 116.939  36
  -1   4  -5 125.170 120.059  35
   4  -3  -5 53.4024 114.585  10
   4  -3  -5 173.540 130.670   2
  -1  -3   5 23.2271 123.670  19
  -1   4  -5 109.170 100.397  34
  -3  -1  -5 143.517 103.834   5
   4  -1   5 256.979 158.108   3
  -1   4  -5 46.8574 92.2734  33
  -3  -1  -5 137.516 114.879  33
   4  -1   5 513.564 225.503  17
  -1   4  -5 48.0668 91.6497  32
  -3  -1  -5 84.5141 106.069  32
  -3   4   5 24.5343 140.314  15
  -3  -1  -5 127.369 108.599  31
  -3  -1  -5 173.479 133.112   8
  -3   4   5 136.382 138.393  29
   4  -1   5 163.618 172.569  44
  -1   4  -5 855.591 213.818  44
   4  -1   5 45.3810 146.049  43
  -1   4  -5 19.1792 109.697  14
   4  -1   5-22.5870 141.506  42
  -1  -3   5 70.9359 135.231  27
  -1  -3   5 101.190 162.825  41
   4  -1   5 154.253 182.055  41
  -1   4  -5 90.0491 112.839  26
  -1  -3   5 158.126 165.102  13
  -1  -3   5 71.2722 152.914  40
   4  -1   5 201.485 185.943  40
  -3  -1  -5 59.7434 108.058  25
  -1  -3   5 73.8226 158.385  39
   4  -1   5 487.315 233.448  39
  -1   4  -5 211.206 135.713  12
   4  -1   5 184.435 202.151  38
  -3   4   5 185.586 155.260   6
  -4   0   5 14283.0 830.722  37
   0  -4  -5 16750.2 798.288   5
   0  -4  -5 16061.8 886.276  22
   4   0  -5 16065.3 859.892  36
   4   0  -5 15051.0 845.699  35
  -4   0   5 13686.3 776.937  19
   4   0  -5 15845.2 863.822  34
  -4   4  -5 16281.0 827.739  34
   4   0  -5 16207.3 865.042  33
   0  -4  -5 14142.3 932.763   9
  -4   4  -5 16415.2 834.924  33
   4   0  -5 16762.6 881.780  18
  -4   4  -5 17507.9 869.577  32
   0   4   5 14790.5 920.594  17
  -4   4  -5 18191.1 930.479   1
  -4   4  -5 15623.9 822.440  31
  -4   0   5 14127.9 817.059  31
  -4   0   5 15427.3 881.471   4
   0   4   5 17589.2 1042.61  15
   4   0  -5 17257.7 883.435   2
   4   0  -5 14003.5 847.331  44
   4  -4   5 16036.2 951.110  43
   4  -4   5 16743.6 971.415  42
  -4   4  -5 15515.9 901.086  14
  -4   0   5 14016.3 830.664  27
   4   0  -5 14742.2 853.876  42
  -4   0   5 14012.7 771.722   6
   4  -4   5 16157.1 1067.70  41
   0   4   5 16298.1 972.522  29
  -4   4  -5 15262.8 834.219  26
  -4   0   5 14807.1 855.702  40
   4  -4   5 15039.0 938.232  13
   4  -4   5 15837.6 1044.85  40
  -4   0   5 16007.5 894.532  39
   4  -4   5 16822.6 1087.54  39
   4  -4   5 15913.7 1010.25   3
   4  -4   5 17952.3 1145.61  38
   4   0  -5 16653.0 872.917  38
   0  -4  -2 2674.14 357.964  22
   4  -4   2 1213.88 244.061   3
   4   0  -2 1123.28 229.349  11
   0   4   2 1161.97 222.270  21
   4  -4   2 1049.75 224.841  36
   0  -4  -2 952.238 152.850   5
   4   0  -2 1355.71 249.975  36
   4  -4   2 1051.55 251.378  20
   4  -4   2 1369.93 237.786  10
  -4   0   2 1136.69 203.887  19
   4   0  -2 1236.48 250.768  35
   4   0  -2 1353.72 252.693  34
   4   0  -2 1073.00 198.814  19
   0   4   2 1357.19 262.140   9
   4   0  -2 1532.45 270.623  18
   0  -4  -2 1233.71 232.984   9
  -4   4  -2 997.153 208.913   1
   4   0  -2 1149.80 219.339   2
  -4   0   2 1187.22 205.378   4
  -4   0   2 967.378 182.226   8
   0   4   2 1023.25 224.391  16
  -4   0   2 1139.59 212.866  31
   0  -4  -2 980.582 190.047  15
   4   0  -2 915.776 188.234   8
   0  -4  -2 1053.25 204.484   8
   0   4   2 1259.27 222.232  15
   4  -4   2 943.833 236.937  30
   0   4   2 896.497 184.683  30
   4  -4   2 1153.91 198.167  44
   4   0  -2 1215.57 248.712  44
   4  -4   2 1344.15 205.032  43
   4  -4   2 1043.23 203.659  28
   4   0  -2 1131.92 231.094  43
   4  -4   2 1040.85 187.096  42
  -4   0   2 1141.38 213.631  27
  -4   4  -2 1066.79 191.510  14
   0  -4  -2 1065.91 208.526   7
   4  -4   2 923.496 214.095  14
   4   0  -2 934.087 214.210  42
   4  -4   2 827.654 202.422  41
  -4   0   2 1311.08 235.986  40
  -4   4  -2 1511.24 242.614  26
   4  -4   2 1334.47 235.391  40
   4  -4   2 1154.25 240.708  13
   4  -4   2 1355.02 240.602  39
  -4   4  -2 994.263 191.131  24
   4  -4   2 1145.92 214.305  24
   0  -4  -2 901.798 179.358  28
  -4   4  -2 800.936 213.170  12
   4  -4   2 1067.55 218.631  38
   4   0  -2 1168.73 237.144  38
  -4   0   2 1115.05 215.159  37
   0  -4   1 49170.3 1504.60  37
   0  -4   1 48233.0 1778.38  22
  -4   4   1 50117.4 1572.87   1
   4   0   1 49097.5 1797.56  36
  -4   4   1 47491.5 1497.27  21
   0   4  -1 47115.1 1540.72  11
   4   0   1 45043.0 1655.47  43
  -4   4   1 45527.7 1623.84  10
   4   0   1 44714.9 1711.37  35
  -4   0  -1 49913.6 1535.00   1
   4  -4  -1 50507.9 1821.13  20
   4  -4  -1 51254.2 1782.37  10
   4   0   1 46270.0 1571.14  19
   4   0   1 44695.6 1714.18  34
   0  -4   1 49613.2 1580.84  19
   0   4  -1 44549.4 1488.34  19
   4  -4  -1 49478.4 1565.72  18
  -4   0  -1 50515.1 1558.51   5
   4   0   1 49903.7 1691.58  18
  -4   4   1 52348.9 1642.17   9
  -4   0  -1 44673.9 1463.67  18
  -4   0  -1 46512.4 1581.00   8
  -4   0  -1 46492.6 1548.02  32
   0   4  -1 43173.5 1543.77   8
  -4   0  -1 44110.2 1383.27   2
   0   4  -1 47299.6 1666.20  16
  -4   0  -1 48758.1 1570.22  31
  -4   4   1 46220.6 1434.17   2
   0  -4   1 45190.2 1456.75  31
  -4   4   1 52547.1 1635.28  30
   4  -4  -1 50249.2 1723.47  30
   4   0   1 47306.0 1723.78  44
   0  -4   1 46132.6 1717.75   7
   0  -4   1 48739.6 1681.14  28
  -4   4   1 48443.4 1528.65  28
  -4   0  -1 48237.0 1580.79  27
  -4   4   1 51044.1 1628.09   7
   4   0   1 46863.2 1692.84  42
   0  -4   1 43644.6 1468.07  27
   0  -4   1 47086.3 1615.62  13
   0   4  -1 47363.2 1650.26  26
   4   0   1 49579.7 1765.96  41
  -4   0  -1 50808.2 1612.99  40
   0  -4   1 52075.0 1670.11  26
   0  -4   1 42929.1 1462.89  40
   0  -4   1 47585.1 1514.19  39
  -4   4   1 48592.4 1613.48  12
  -4   0  -1 48589.5 1543.65  24
  -4   4   1 53964.5 1566.95  24
  -4   0  -1 50271.0 1489.18  11
   4   0   1 49722.8 1767.64  38
  -4   4   1 44871.3 1565.58  23
  -4   4   1 49661.9 1510.21   3
  -4   0  -1 47161.9 1451.40   3
  -4   0  -1 48300.8 1559.64  37
   4   0   1 45065.0 1625.03  11
   0  -4   1 49630.9 1492.07  11
   0  -4   4 120506. 3442.14  37
   4   0   4 119812. 3569.29  36
   0   4  -4 132393. 3299.71  36
   4  -4  -4 128473. 3500.91  21
   4   0   4 115689. 3543.60  35
   4   0   4 121556. 3493.82  44
  -4   0  -4 115499. 3136.96   5
   0   4  -4 127741. 3291.17  35
   4  -4  -4 121682. 3385.83  10
   0  -4   4 117498. 3467.77  19
   0   4  -4 113991. 3174.95  34
   0   4  -4 119914. 3216.29  33
  -4   0  -4 118623. 3173.91  33
   0   4  -4 118736. 3225.83  32
   4  -4  -4 135526. 3292.68   2
  -4   0  -4 108151. 3228.30   8
   4   0   4 124410. 3571.92  17
  -4   0  -4 122621. 3212.01  32
  -4   0  -4 122087. 3217.03  31
   0  -4   4 127840. 3699.45   7
  -4   4   4 108072. 3286.71  29
   0   4  -4 109766. 3207.88  44
   0   4  -4 112222. 3291.53  14
   4   0   4 115944. 3435.84  43
  -4   0  -4 128398. 3263.61  27
   4   0   4 116155. 3422.74  42
   0  -4   4 110844. 3396.81  27
  -4   0  -4 128580. 3162.00   1
   0  -4   4 127305. 3568.29  41
  -4   4   4 105956. 3196.75   6
   0  -4   4 129311. 3798.35  13
   4   0   4 122791. 3603.63  41
   0   4  -4 123463. 3392.83  26
   0  -4   4 120593. 3498.59  40
   0  -4   4 129628. 3553.97  39
  -4   0  -4 121494. 3228.54  25
   0   4  -4 112809. 3183.05  12
   4   0   4 128145. 3641.91  39
  -4   0  -4 116129. 3139.91  24
   4   0   4 124246. 3631.12  38
   4   0   4 122195. 3478.02  11
  -4   0  -4 130956. 3259.48  37
  -4   4   4 104899. 3186.20  23
   0  -4   7 35652.1 1702.39  37
   4   0   7 36201.0 1834.13  36
  -4   0  -7 38282.7 1405.67   5
   0   4  -7 36748.0 1378.47   2
   4  -4  -7 35582.4 1589.68  21
   0   4  -7 38813.8 1471.26  36
   0   4  -7 38118.4 1480.33  35
   0   4  -7 35653.0 1415.18  34
   0  -4   7 35704.5 1708.77  19
  -4   0  -7 36742.6 1384.92  34
   0   4  -7 37419.7 1438.67  33
  -4   0  -7 36175.6 1381.00  33
   0   4  -7 36142.6 1439.24  32
  -4   0  -7 32888.3 1431.28   8
   4   0   7 35498.5 1810.54  17
  -4   0  -7 35566.8 1389.57  32
  -4   0  -7 36506.0 1401.94  31
  -4   4   7 36843.3 1710.48  15
   4   0   7 38699.8 1772.23  44
  -4   4   7 34931.3 1623.65  29
   0   4  -7 32543.5 1425.43  44
   0   4  -7 32405.7 1452.99  14
   4   0   7 36656.3 1719.65  43
   4   0   7 34580.4 1677.29  42
   0  -4   7 35854.3 1722.56  27
   0  -4   7 38126.4 1812.70  41
   0  -4   7 35003.9 1775.43  13
   4   0   7 36982.8 1809.79  41
   0   4  -7 35222.7 1465.19  26
  -4   4   7 38156.2 1644.77   6
   0  -4   7 37715.6 1791.14  40
   4   0   7 36118.5 1790.52  40
  -4   0  -7 34167.1 1419.03  25
   0  -4   7 38047.6 1780.48  39
   4   0   7 39678.2 1858.94  39
   4   0   7 39407.5 1867.94  38
   4   0   7 36428.5 1724.05  11
  -4   0  -7 37055.4 1409.01  37
   4   1  -6 5388.86 499.163  36
   4   1  -6 6639.80 560.965  35
   4   1  -6 6105.32 538.903  34
  -5   4  -6 5610.82 490.498  34
   4   1  -6 4896.85 480.522  33
   1  -5  -6 4680.66 559.972   9
  -5   4  -6 5030.66 471.933  33
  -5   4  -6 5394.89 494.187  32
   1   4   6 5715.45 630.918  17
  -5   4  -6 4630.87 492.017   1
  -5   4  -6 5270.35 484.480  31
   4  -5   6 5466.91 654.192  30
  -5   1   6 4617.77 490.234   4
   1   4   6 4767.74 602.318  15
   4   1  -6 5401.26 515.263  14
   4   1  -6 4256.14 488.494  44
   4   1  -6 5311.82 484.270   2
  -5   4  -6 5087.75 523.900  14
   4   1  -6 4456.55 483.925  42
  -5   1   6 4473.88 454.738   6
   4  -5   6 4614.79 577.386  13
   4  -5   6 5132.43 610.360   3
   4   1  -6 5569.46 513.598  38
   1  -5  -3 10635.3 789.459  22
   4   1  -3 9136.84 693.386  11
   4   1  -3 11715.5 776.365  36
   4  -5   3 10102.8 763.917  20
   4   1  -3 11978.8 795.297  35
   4   1  -3 10254.9 721.472  34
   4   1  -3 10433.1 722.157  33
   1  -5  -3 11896.2 819.864   9
   4   1  -3 10712.0 719.678  18
   1   4   3 10917.1 777.766  17
   1   4   3 10624.6 751.239  16
  -5   1   3 9857.00 656.210   4
   4   1  -3 11219.9 691.999   2
  -5   1   3 11015.5 680.022  31
   4  -5   3 12283.2 854.480  30
   1   4   3 9622.65 698.663  15
   4   1  -3 9772.78 722.861  44
   4  -5   3 10084.4 712.339  28
  -5   1   3 10905.9 676.237  27
   1  -5  -3 11076.2 726.290   7
   4   1  -3 8752.66 677.595  42
  -5   4  -3 10822.9 703.319   1
  -5   1   3 11966.6 709.820  40
   4  -5   3 10489.5 780.086  13
  -5   4  -3 10478.9 677.336  26
  -5   4  -3 10812.2 680.126  24
  -5   1   3 10210.4 698.529  24
  -5   4  -3 9356.27 609.839  23
   4   1  -3 11347.8 746.005  38
   4  -5   3 11118.9 758.751   3
  -5   1   3 10474.8 661.676  37
   4   1   0 63847.6 2156.93  11
   1  -5   0 66664.7 2316.00  22
   1   4   0 60010.8 2002.99  11
   4   1   0 68136.2 2235.58  36
   4   1   0 67199.6 2245.71  35
   4  -5   0 68274.4 2274.41  20
   4   1   0 67362.8 2242.70  34
   4  -5   0 63487.0 2136.46  10
   4  -5   0 69656.0 2071.04   3
   4   1   0 67891.3 2143.25  18
  -5   1   0 62992.3 1944.02   4
  -5   1   0 67234.6 2014.98  32
  -5   1   0 62541.4 1949.85   8
   1   4   0 63643.9 2124.74  16
  -5   1   0 67142.0 2020.75  31
   4  -5   0 70168.4 2291.69  30
   4   1   0 63723.4 2174.41  44
  -5   4   0 70758.7 2119.03   1
   1  -5   0 64312.0 2130.42  28
   1  -5   0 63378.1 2159.36   7
   4   1   0 62503.7 2130.73  43
  -5   1   0 69013.6 2045.60  27
   4   1   0 62064.1 2134.15  42
   4   1   0 73448.8 2306.57  41
  -5   1   0 66448.8 2044.60   1
  -5   1   0 69250.2 2059.14  40
   1  -5   0 65364.7 2022.22  13
  -5   4   0 71307.8 2076.00  24
  -5   1   0 66070.7 2049.62  24
   4   1   0 68953.5 2261.94  38
  -5   4   0 63077.4 2047.38  23
  -5   1   0 68557.3 2023.27  37
  -5   1   0 69621.3 2060.61  23
   4   1   3 10543.1 805.991  36
   1   4  -3 11147.2 690.259  36
  -5   1  -3 10806.3 663.964   1
   4   1   3 10837.5 815.905  35
   1   4  -3 11725.2 708.062  35
  -5   1  -3 11167.3 638.226   5
   4  -5  -3 10560.4 751.572  10
   1   4  -3 11494.8 708.864  34
   1  -5   3 11664.9 748.850  19
   1   4  -3 10221.7 671.461  33
  -5   1  -3 11344.2 682.709  33
  -5   1  -3 10541.8 695.464   8
  -5   1  -3 10603.6 669.399  32
   4   1   3 11677.4 845.836  17
  -5   4   3 9281.67 606.148   4
  -5   1  -3 11050.1 692.341  31
   4   1   3 11414.3 809.836  44
   1   4  -3 9761.98 692.704  14
   1  -5   3 10368.0 775.670   7
   1   4  -3 9194.21 646.240  44
   1  -5   3 10458.3 815.346  28
   4   1   3 10812.4 765.970  43
  -5   1  -3 11055.8 691.271  27
   4   1   3 10727.2 774.043  42
   1   4  -3 8268.41 600.569  42
   1   4  -3 10035.7 735.286  26
   4   1   3 10567.2 790.428  41
   1  -5   3 11748.3 835.745  13
  -5   4   3 12085.0 740.509   1
   1   4  -3 9788.92 637.133  12
   4   1   3 11950.8 853.246  39
  -5   1  -3 10301.4 654.436  24
   4   1   3 10178.3 769.404  38
  -5   4   3 10692.7 675.756  24
   1   4  -3 11439.9 696.276  38
   4   1   3 11324.0 795.159  11
  -5   4   3 10502.0 705.503  23
  -5   1  -3 12060.0 712.855  37
   1  -5   6 3680.34 505.360  37
   4   1   6 5149.26 647.615  36
  -5   1  -6 4695.02 434.590   5
   1   4  -6 5014.37 485.349  36
   4  -5  -6 4877.30 554.706  21
   1   4  -6 4082.76 449.990  35
   1   4  -6 4851.58 479.875  34
   1  -5   6 4988.08 594.061  19
  -5   1  -6 4548.44 439.919  34
   1   4  -6 4721.81 460.090  33
  -5   1  -6 4496.39 442.257  33
   1   4  -6 4499.68 460.800  32
  -5   1  -6 4644.85 497.894   8
   4   1   6 4775.04 630.564  17
  -5   1  -6 4741.97 463.075  32
  -5   1  -6 4624.27 459.385  31
  -5   4   6 4444.00 502.764  29
   4   1   6 4549.13 561.739  44
   1  -5   6 6057.47 744.509  28
   1   4  -6 4108.62 452.001  44
   1   4  -6 4297.38 486.160  14
   4   1   6 4343.63 546.346  43
   4   1   6 4602.83 555.326  42
   1  -5   6 4988.71 578.931  27
   1  -5   6 4813.96 594.010  41
   4   1   6 5378.43 647.159  41
  -5   4   6 4299.44 482.147   6
   1   4  -6 4307.17 473.329  26
   1  -5   6 4429.43 608.645  13
   1  -5   6 4509.42 565.719  40
   1  -5   6 4710.53 578.287  39
  -5   1  -6 4713.66 452.800  25
   4   1   6 5512.37 652.899  39
   4   1   6 5242.54 658.465  38
   4   1   6 4892.69 598.139  11
  -5   1  -6 5084.26 481.633  37
   4   2  -4 7549.44 644.405  36
   4   2  -4 7585.27 635.131  35
   4   2  -4 7369.43 625.080  34
   4   2  -4 7215.17 614.654  33
   4   2  -4 6811.43 573.337  18
   2   4   4 7076.15 706.010  17
   2   4   4 7121.32 656.712  16
  -6   2   4 7349.00 591.543   4
   4  -6   4 5938.22 631.772  30
   4   2  -4 6205.44 583.494  44
   4   2  -4 6640.03 598.855  42
  -6   4  -4 7587.59 628.065   1
   4  -6   4 7469.36 713.357  13
  -6   4  -4 7352.61 575.477  26
  -6   4  -4 7602.75 603.924  24
  -6   2   4 6378.83 576.055  24
   4   2  -4 7265.84 616.300  38
   2   4   1 4374.72 465.071  11
   2  -6  -1 5563.32 615.078  22
   4   2  -1 5664.18 556.258  11
   4   2  -1 5134.47 533.859  36
   4   2  -1 5626.73 563.747  35
  -6   2   1 5446.12 511.348   1
   4  -6   1 5108.52 530.721  20
   4   2  -1 5181.45 548.252  34
   4   2  -1 6088.53 542.169  18
  -6   2   1 4972.00 456.422   4
  -6   2   1 4888.19 440.193  32
  -6   4  -1 6116.84 532.877   1
   2   4   1 4247.71 468.761  16
  -6   2   1 5141.81 454.447  31
   4  -6   1 4343.06 511.300  30
   4   2  -1 5082.81 541.752  44
   4  -6   1 4988.72 535.461  28
   2  -6  -1 4554.34 493.795  28
   4   2  -1 4431.59 486.061  43
  -6   2   1 5726.44 480.995  27
   2  -6  -1 4840.48 527.046   7
   4   2  -1 4866.05 509.197  42
   4   2  -1 6106.43 598.263  41
  -6   2   1 5468.43 481.795  40
   4  -6   1 5383.98 554.820  13
  -6   4  -1 5454.21 490.453  24
  -6   2   1 6107.01 531.887  24
   4   2  -1 5174.41 528.929  38
  -6   4  -1 5044.67 465.001  23
  -6   2   1 5063.64 525.551  23
  -6   2   1 5559.09 467.572  37
   4   2   2 45314.2 1835.38  36
   2   4  -2 38494.6 1603.42  11
   2   4  -2 45302.0 1678.71  36
   4   2   2 45446.3 1829.52  35
   2   4  -2 46604.0 1708.33  35
   2   4  -2 47388.3 1689.11  34
  -6   2  -2 44275.4 1495.08   5
   2   4  -2 45500.3 1667.01  33
  -6   2  -2 44838.8 1571.34  33
  -6   4   2 42224.9 1552.21   4
  -6   2  -2 42346.0 1570.74   8
  -6   2  -2 49703.9 1695.24   1
  -6   2  -2 46054.4 1596.48  32
   4   2   2 44346.4 1848.27  17
  -6   2  -2 46341.5 1607.11  31
   2   4  -2 39928.6 1658.77  16
   4   2   2 40281.2 1684.26  44
   2   4  -2 38244.8 1556.21  44
   2  -6   2 42191.9 1790.23  28
   2  -6   2 45067.8 1788.50   7
  -6   2  -2 45570.6 1610.01  27
   4   2   2 39629.3 1653.02  43
   4   2   2 42292.8 1708.84  42
   2   4  -2 38388.9 1550.92  42
   4   2   2 47148.3 1823.23  41
   2  -6   2 41226.0 1734.40  13
  -6   4   2 42635.4 1646.53   1
  -6   2  -2 48495.9 1670.90  24
  -6   4   2 45107.8 1637.70  24
   4   2   2 44024.0 1775.23  38
   2   4  -2 48651.2 1693.52  38
  -6   4   2 42318.0 1660.78  23
  -6   2  -2 45952.2 1605.36  37
   4   2   2 40292.1 1700.77  11
   2   4  -5 7494.43 597.855  36
   2   4  -5 7331.26 605.471  35
   2   4  -5 7189.04 599.833  34
   2   4  -5 7177.63 592.920  33
  -6   2  -5 7491.69 578.974  33
  -6   2  -5 6733.79 588.705   8
  -6   2  -5 6720.03 557.747  32
   4   2   5 7862.62 792.778  17
  -6   2  -5 7359.27 580.324  31
  -6   4   5 6540.84 558.664   4
   2   4  -5 6427.02 595.227  14
   2   4  -5 5850.93 553.186  44
   2  -6   5 7290.65 786.709  28
  -6   2  -5 7927.31 614.436   1
  -6   4   5 6761.64 575.671   6
   2  -6   5 7360.96 762.891  13
  -6   2  -5 7997.50 591.359  25
  -6   2  -5 7198.94 591.166  24
   2   4  -5 8177.45 631.999  38
  -6   2  -5 8369.24 618.492  37
   4   2   5 6324.81 670.441  11
  -6   4   5 7067.65 641.633  23
   3   4   2 7753.78 685.298  11
   4   3  -2 9717.69 769.838  11
   4   3  -2 9139.25 751.312  36
  -7   3   2 9652.01 710.017   1
   4   3  -2 10329.4 797.474  35
   4   3  -2 9236.36 761.890  34
  -7   4  -2 11363.9 775.331   1
   4   3  -2 9121.59 690.131  18
  -7   3   2 8350.39 618.628   4
   3   4   2 9494.64 814.715  17
   3   4   2 8851.94 712.845  16
   4  -7   2 9700.42 785.268  30
   4   3  -2 8713.80 719.570  44
   4  -7   2 9917.26 828.532  28
   4   3  -2 8466.46 698.328  42
   4  -7   2 8179.03 751.021  13
  -7   4  -2 9958.26 711.205  24
  -7   3   2 8399.95 664.923  24
   4   3  -2 9821.63 761.750  38
  -7   3   2 9235.62 711.680  23
   4   3   1 763.544 249.791  11
   3   4  -1 875.117 259.411  11
   4   3   1 970.401 291.578  36
   4   3   1 759.119 254.830  35
   4   3   1 987.065 269.642  34
  -7   4   1 953.811 256.801   1
   3   4  -1 856.167 239.305  16
   4   3   1 603.873 238.297  44
   3  -7   1 892.006 269.001  28
   4   3   1 809.608 244.359  43
  -7   4   1 696.638 198.219   4
   3  -7   1 885.235 275.146   7
   4   3   1 905.589 247.281  42
   4   3   1 1361.62 327.516  41
   3  -7   1 1155.77 304.306  13
  -7   3  -1 1055.99 265.400   1
  -7   3  -1 883.398 239.629  24
  -7   4   1 1186.26 264.979  24
   4   3   1 1023.75 283.880  38
  -7   4   1 928.435 250.005  23
  -3  -2   5 21537.7 1100.77  37
   5  -3   5 20878.7 1208.57   3
   5  -3   5 24666.0 1387.90  36
   5  -2  -5 23660.9 1237.12  21
  -2  -3  -5 23117.5 1007.79   5
   5  -2  -5 21287.0 1072.59  10
  -3  -2   5 21014.8 1082.14  19
  -2  -3  -5 18506.6 1051.42   9
  -2  -3  -5 21641.3 1044.04   8
   5  -2  -5 23153.1 1128.53   2
  -3  -2   5 20734.0 1087.14  31
  -2   5   5 20697.2 1181.51  15
   5  -3   5 22492.9 1225.80  44
  -2   5   5 26046.4 1301.19  29
   5  -3   5 23977.8 1241.40  43
  -3  -2   5 19880.7 1026.59   4
  -3   5  -5 19959.1 1063.65  14
   5  -3   5 22339.6 1200.75  42
  -3  -2   5 21349.4 1113.03  27
   5  -3   5 21264.7 1285.82  41
  -3   5  -5 22960.5 1119.20  26
  -3  -2   5 21680.3 1128.19  40
   5  -3   5 21845.1 1268.58  40
  -3  -2   5 22722.4 1154.60  39
  -2  -3  -5 23217.4 989.184  25
   5  -3   5 22866.8 1322.72  39
  -3   5  -5 20856.7 1108.21  12
   5  -3   5 22154.3 1305.19  38
  -3  -2   2 83641.5 2431.89  37
  -2  -3  -2 66152.0 2454.33  22
   5  -2  -2 74410.1 2214.38  37
   5  -3   2 76382.4 2459.79  36
   5  -2  -2 85529.8 2427.95  36
   5  -2  -2 67899.2 2461.36  10
   5  -3   2 77049.3 2463.98  35
   5  -3   2 71482.1 2460.76  10
   5  -3   2 83024.9 2596.20   3
   5  -2  -2 80999.8 2455.75  20
   5  -2  -2 81549.4 2411.43  35
  -3  -2   2 82854.1 2428.69  19
  -2  -3  -2 79065.8 2238.19   5
   5  -2  -2 80559.2 2411.00  34
   5  -3   2 79383.0 2521.00  18
  -2  -3  -2 74286.5 2263.77   9
   5  -2  -2 82288.3 2491.31  18
   5  -2  -2 86857.0 2519.46   2
  -2  -3  -2 80001.9 2183.24  32
  -2   5   2 83417.4 2416.11  16
  -2  -3  -2 74360.9 2325.92   8
  -2  -3  -2 81352.9 2202.93  31
  -3  -2   2 77697.3 2353.93   8
  -3  -2   2 83700.7 2425.06  31
   5  -3   2 87051.7 2630.64  30
  -3  -2   2 72827.9 2161.01   4
   5  -3   2 79203.7 2406.78  44
   5  -2  -2 72909.1 2328.32  44
  -2  -3  -2 68889.7 2217.87   7
   5  -3   2 79772.8 2389.90  43
   5  -2  -2 74768.7 2293.18  43
  -2  -3  -2 85193.9 2233.37  27
   5  -3   2 77766.2 2369.78  42
  -3  -2   2 79905.7 2403.93  27
   5  -2  -2 82056.5 2355.99  42
   5  -2  -2 71660.6 2211.90  27
   5  -3   2 84374.0 2531.89  41
   5  -2  -2 93098.5 2507.78  41
  -3   5  -2 83655.7 2467.78  26
  -3  -2   2 86534.8 2486.94  40
   5  -2  -2 75554.6 2240.00  40
  -2   5   2 74871.1 2433.69  12
  -3  -2   2 88823.8 2523.63  39
   5  -2  -2 75293.5 2259.88  39
  -2  -3  -2 79504.1 2197.03  25
  -3   5  -2 85944.5 2554.61  12
   5  -3   2 82161.5 2508.22  39
   5  -3   2 82817.8 2542.11  38
   5  -2  -2 83372.3 2384.98  38
  -2  -3  -2 83004.6 2207.81  37
   5  -2   1 28344.8 1277.58  36
   5  -3  -1 29158.7 1148.17  36
   5  -2   1 27225.5 1251.67  35
   5  -3  -1 25491.7 1243.34  20
   5  -3  -1 26683.9 1092.97  35
   5  -3  -1 26430.6 1296.42  10
  -2  -3   1 30214.9 1214.82  19
   5  -2   1 28220.5 1264.06   3
  -3  -2  -1 26828.3 1072.83   5
   5  -2   1 27265.3 1253.92  18
   5  -3  -1 26630.0 1195.63  18
  -3  -2  -1 26813.5 1065.36  32
  -3  -2  -1 24072.6 1096.83   8
  -3   5   1 25969.3 1054.88  16
  -2   5  -1 27352.9 1164.97  16
  -3  -2  -1 26765.1 1072.47  31
  -2  -3   1 25311.3 1147.72   8
  -2  -3   1 30005.8 1165.28  31
  -2   5  -1 29874.5 1096.25  30
   5  -2   1 23377.9 1102.66  30
   5  -3  -1 29307.6 1157.09  30
   5  -2   1 27091.7 1207.05  44
   5  -3  -1 27182.6 1074.69  44
  -2  -3   1 26641.2 1102.58  28
   5  -2   1 25313.2 1144.55  43
   5  -3  -1 24914.5 1026.65  43
  -3  -2  -1 26920.5 1088.84  27
  -2  -3   1 30342.3 1177.50  27
   5  -2   1 26841.2 1185.42  42
   5  -3  -1 26317.2 1049.38  42
  -2  -3   1 26954.5 1169.78  13
   5  -2   1 27139.7 1237.43  41
   5  -3  -1 28159.3 1124.99  41
  -3  -2  -1 27077.8 1094.58  40
  -2   5  -1 30072.4 1234.21  26
  -2  -3   1 30143.7 1189.73  40
  -3   5   1 29225.2 1140.99  26
  -2  -3   1 30977.0 1216.21  39
  -2   5  -1 23282.1 1165.49  12
  -3   5   1 26703.4 1187.96  12
   5  -2   1 30152.6 1297.72  39
   5  -2   1 28987.0 1296.79  12
   5  -2   1 29066.1 1264.79  38
   5  -3  -1 28667.7 1124.72  38
   5  -2   1 26959.1 1106.76  11
  -3  -2  -1 26476.6 1077.56  37
  -2  -3   1 26480.5 1360.80  22
  -2  -3   1 30584.9 1174.64  37
  -2  -3   4 21979.8 1108.83  37
   5  -2   4 25230.2 1352.98  36
   5  -2   4 21540.9 1177.77   3
   5  -3  -4 22808.3 1164.10  21
  -3  -2  -4 24399.5 1034.87   5
   5  -3  -4 23309.1 1161.21  10
  -2  -3   4 22660.9 1142.91  19
  -3  -2  -4 19892.0 1030.92   9
   5  -2   4 23848.9 1206.20  18
  -3  -2  -4 23796.4 990.318  33
   5  -3  -4 27672.6 1219.78   2
  -3  -2  -4 23934.7 1003.34  32
  -3  -2  -4 21683.4 1072.27   8
  -3  -2  -4 23540.5 1006.42  31
  -3   5   4 24424.6 1214.39  15
  -2  -3   4 22116.5 1107.53  31
   5  -2   4 22660.2 1202.84  44
  -3   5   4 21021.2 1135.29  29
  -2   5  -4 23002.5 1107.70  14
   5  -2   4 23736.7 1209.03  43
  -3  -2  -4 24027.2 1016.47  27
  -2  -3   4 20416.0 1009.24   4
   5  -2   4 23919.2 1215.65  42
  -2  -3   4 22462.7 1127.17  27
  -2  -3   4 20242.7 1161.91  13
   5  -2   4 24505.1 1301.59  41
  -2   5  -4 23478.5 1137.33  26
  -2  -3   4 23134.1 1144.12  40
  -2  -3   4 24406.8 1181.82  39
  -3  -2  -4 21616.1 987.153  25
   5  -2   4 24637.3 1310.95  39
  -2   5  -4 20612.7 1075.90  12
   5  -2   4 25839.5 1357.60  38
   5  -2   4 23693.3 1159.39  11
  -3  -2  -4 24202.2 1010.48  37
  -3  -2  -4 19510.8 1026.61  22
   5  -2   7 8419.49 803.262   3
  -4  -1   6 5021.36 526.430  37
   5  -1  -6 4243.20 508.698  21
  -4  -1   6 5481.70 522.060  19
  -1  -4  -6 5333.91 564.931   9
   5  -1  -6 5655.47 520.074   2
  -4  -1   6 4841.26 510.342  31
  -1   5   6 5855.81 638.182  15
   5  -4   6 5593.78 630.489  44
  -4  -1   6 3960.35 462.911   4
   5  -4   6 6016.43 629.244  43
  -4   5  -6 5362.34 532.914  14
   5  -4   6 6070.02 644.294  42
  -4  -1   6 5994.93 569.081  27
   5  -4   6 6249.64 715.582  41
  -4   5  -6 5400.96 511.368  26
  -4  -1   6 5964.70 574.022  40
   5  -4   6 4590.93 628.258  40
  -4  -1   6 5722.00 564.572  39
   5  -4   6 5149.91 660.435  39
   5  -4   6 5445.04 679.830  38
   5  -4   6 5438.16 636.027   3
  -4  -1   3 10529.1 679.899  37
  -1  -4  -3 9308.24 718.961  22
   5  -4   3 10356.7 775.740  36
   5  -4   3 10355.4 775.903   3
   5  -1  -3 11816.6 760.647  36
   5  -1  -3 9507.65 662.677  11
   5  -4   3 8573.52 766.059  20
  -1  -4  -3 10783.3 604.219   5
   5  -1  -3 10380.6 726.377  35
  -4  -1   3 10942.9 678.425  19
   5  -1  -3 10020.5 708.924  34
  -1  -4  -3 10427.5 703.976   9
   5  -1  -3 11618.1 764.401  18
   5  -1  -3 12004.9 767.179   2
  -1   5   3 10561.4 738.869  16
  -1  -4  -3 10042.7 652.411   8
  -4   5  -3 10708.7 680.068   1
  -4  -1   3 10425.8 680.676  31
  -4  -1   3 9557.04 624.263   4
  -4  -1   3 10084.6 633.042   8
   5  -4   3 11619.0 872.122  30
  -1   5   3 12028.7 755.489  15
   5  -4   3 10580.6 702.053  44
   5  -1  -3 10613.1 724.946  44
   5  -4   3 9811.13 674.677  43
  -1  -4  -3 10287.5 641.792   7
   5  -1  -3 9221.22 653.969  43
   5  -4   3 9699.19 665.731  42
  -4  -1   3 9845.76 669.154  27
   5  -1  -3 9755.40 689.634  42
   5  -4   3 11006.6 779.308  41
  -4  -1   3 10965.8 711.015  40
  -4   5  -3 10708.2 716.362  26
   5  -4   3 10532.4 751.920  13
   5  -4   3 11033.1 772.562  40
  -4  -1   3 11275.3 731.416  39
   5  -4   3 10763.4 769.668  39
  -4   5  -3 12082.5 822.553  12
   5  -4   3 10975.3 788.730  38
   5  -1  -3 10692.8 715.183  38
  -1  -4   0 66283.3 2414.90  22
   5  -1   0 68055.2 2118.53  11
   5  -1   0 73789.7 2340.09  36
   5  -4   0 75328.9 2453.14  20
   5  -1   0 68031.4 2243.36  35
   5  -4   0 69140.7 2299.44  10
  -4  -1   0 66579.9 2026.83  19
  -1  -4   0 69915.1 2047.97  19
   5  -1   0 65062.6 2219.69  34
   5  -4   0 64572.9 2162.50   3
   5  -4   0 69590.3 2183.83  18
   5  -1   0 67314.5 2211.47  18
  -4  -1   0 64389.1 1856.44   4
  -4  -1   0 66951.2 1934.04   1
  -4  -1   0 64907.5 2012.57  32
  -4  -1   0 58698.2 1957.63   8
  -1   5   0 65201.1 2126.46  16
  -4  -1   0 66091.1 2030.64  31
  -1  -4   0 66858.3 2126.56   8
   5  -4   0 63458.9 2167.83  30
  -1  -4   0 60667.8 2137.99   7
   5  -1   0 63727.4 2140.10  44
  -1  -4   0 65436.1 2011.56  28
   5  -1   0 62472.5 2109.12  43
  -4  -1   0 67118.8 2056.57  27
   5  -1   0 61700.9 2107.12  42
   5  -1   0 71560.9 2284.09  41
  -1   5   0 63762.6 2069.06  26
  -4  -1   0 69718.3 2087.41  40
  -4   5   0 69399.4 2107.66  26
  -1   5   0 62750.6 2166.67  12
  -4   5   0 60502.2 2098.53  12
  -4  -1   0 65204.7 1944.02  24
   5  -1   0 70548.9 2266.26  38
  -4   5   0 60314.4 2029.43  23
  -1  -4   0 66841.4 1910.44  11
  -4  -1   0 67498.0 2053.16  37
  -1  -4   3 10894.8 715.160  37
   5  -1   3 11709.6 867.189  36
   5  -4  -3 10202.7 722.970  21
   5  -1   3 10211.1 815.744  35
   5  -4  -3 10495.5 732.563  20
   5  -4  -3 11252.8 795.287  10
   5  -1   3 10424.2 753.576   3
  -4  -1  -3 11716.9 677.400   5
  -1  -4   3 10863.4 728.439  19
   5  -1   3 10283.7 749.346  18
  -4  -1  -3 10672.8 646.437  33
   5  -1   3 10720.8 760.754  17
  -4  -1  -3 9294.72 675.794   8
  -4  -1  -3 11477.4 680.223  32
  -4  -1  -3 10886.2 671.363  31
  -1  -4   3 9693.07 674.327  31
  -1  -4   3 10935.8 884.429   7
  -4   5   3 12977.5 780.301  29
   5  -1   3 12090.2 853.129  44
  -1  -4   3 10172.0 766.495  28
  -1   5  -3 9663.91 681.588  14
   5  -1   3 10282.3 767.471  43
  -4  -1  -3 11480.5 687.333  27
   5  -1   3 9689.68 742.861  42
  -1  -4   3 10350.3 709.091  27
  -1  -4   3 12414.4 910.241  13
   5  -1   3 10984.7 849.345  41
  -1   5  -3 10222.1 718.043  26
  -1  -4   3 10549.2 713.285  40
  -1  -4   3 11177.9 742.771  39
  -1   5  -3 11498.2 749.377  12
  -4  -1  -3 11650.1 690.107  25
   5  -1   3 11393.4 857.570  39
   5  -1   3 10347.7 801.216  38
  -4   5   3 10124.9 664.077  23
   5  -1   3 11069.6 766.949  11
  -4  -1  -3 11188.5 673.279  37
  -1  -4   6 5429.59 592.265  37
   5  -1   6 4985.72 676.421  36
  -4  -1  -6 5173.25 462.513   5
   5  -4  -6 4879.25 568.856  21
   5  -4  -6 4518.38 486.666  10
  -1  -4   6 4966.87 567.747  19
  -4  -1  -6 3514.72 432.913   9
  -4  -1  -6 4516.46 429.916  34
  -4  -1  -6 4900.18 448.603  33
   5  -1   6 5136.46 634.414  17
  -4  -1  -6 4267.56 469.357   8
  -4  -1  -6 4655.08 443.075  32
  -4  -1  -6 5805.24 487.554  31
  -4   5   6 5057.85 602.766  15
   5  -1   6 5788.87 656.024  44
  -4   5   6 4924.89 562.172  29
  -1   5  -6 4190.81 478.790  14
   5  -1   6 4294.44 575.927  43
   5  -1   6 4526.91 577.740  42
  -1  -4   6 5034.72 572.049  27
  -1  -4   6 5570.08 633.154  41
  -1  -4   6 4515.23 581.570  13
   5  -1   6 5397.38 688.830  41
  -1   5  -6 4500.93 480.002  26
  -1  -4   6 5095.10 586.162  40
   5  -1   6 5193.60 660.716  40
  -1  -4   6 5147.49 608.579  39
  -4  -1  -6 4393.68 443.237  25
   5  -1   6 4523.96 628.308  39
   5  -1   6 5433.73 685.504  38
   5  -1   6 5015.65 602.478  11
  -4  -1  -6 5737.32 486.618  37
  -5   0   4 41750.0 1572.30  37
   5  -5   4 38533.7 1736.19   3
   0  -5  -4 38053.8 1664.74  22
   5   0  -4 45037.1 1711.36  36
   5   0  -4 46376.2 1751.94  35
   5   0  -4 41843.0 1663.53  34
   5   0  -4 41255.2 1640.09  33
   0  -5  -4 40586.6 1707.94   9
   5   0  -4 43851.4 1675.56  18
   5   0  -4 46643.2 1676.90   2
   0   5   4 42389.9 1760.23  16
  -5   5  -4 46360.1 1665.54   1
  -5   0   4 40647.0 1547.78  31
  -5   0   4 39489.0 1539.71   4
   5  -5   4 45456.8 1960.00  30
   0   5   4 41286.6 1698.32  15
   5   0  -4 37672.6 1609.99  44
  -5   0   4 41633.8 1570.74  27
  -5   5  -4 42365.3 1591.92  14
   5   0  -4 36180.7 1572.70  42
  -5   0   4 42965.6 1613.31  40
  -5   5  -4 41397.6 1618.35  26
   5  -5   4 41247.5 1770.70  13
  -5   0   4 44278.8 1644.29  39
  -5   5  -4 45047.9 1586.98  24
   5   0  -4 46208.3 1700.94  38
   0  -5  -1 3489.41 475.875  22
   5   0  -1 3604.92 429.285  11
   5   0  -1 4060.28 472.440  36
   5  -5   1 4356.27 537.333  20
   5   0  -1 3946.74 475.324  35
  -5   5  -1 4698.39 436.278   1
  -5   0   1 4340.28 404.392  19
   5  -5   1 4400.86 472.992   3
   5  -5   1 4100.94 454.145  10
   5   0  -1 4308.21 488.204  34
   5   0  -1 5032.85 502.875  18
  -5   0   1 3802.48 361.872   4
  -5   0   1 3711.35 391.583  32
   0   5   1 4159.34 456.760  16
  -5   0   1 3785.90 366.433   8
  -5   0   1 4294.00 421.502  31
   0  -5  -1 4241.73 430.611   8
   5  -5   1 3442.27 459.919  30
   5   0  -1 3547.19 446.723  44
   0  -5  -1 3614.53 426.714   7
   0  -5  -1 3683.01 396.094  28
   5   0  -1 3717.43 437.878  43
  -5   0   1 4615.35 435.860  27
   5   0  -1 3701.57 435.824  42
   5   0  -1 4841.92 524.374  41
  -5   0   1 3991.42 415.253  40
  -5   5  -1 4609.92 460.666  26
  -5   5  -1 4215.32 464.890  12
  -5   0   1 4072.50 410.703  24
   5   0  -1 3690.82 442.961  38
  -5   5  -1 4087.41 426.012  23
  -5   0   1 4328.12 420.426   1
  -5   0   1 4235.55 414.453  37
   0  -5   2 8882.94 732.218  22
   5   0   2 9469.19 780.907  36
   5   0   2 9780.12 794.278  35
   5  -5  -2 8356.50 692.216  20
   5  -5  -2 8809.36 711.864  10
   0  -5   2 8599.89 615.136  19
  -5   0  -2 9344.24 602.908   5
   5   0   2 9170.77 694.439  18
  -5   0  -2 8978.82 608.146  33
  -5   0  -2 9037.90 644.831   8
  -5   0  -2 8860.38 606.952  32
   5   0   2 8902.58 716.904  17
  -5   0  -2 8919.10 573.171   1
  -5   0  -2 8984.82 618.912  31
   0   5  -2 8195.47 662.253  16
   5  -5  -2 8125.51 636.277  30
   5   0   2 8709.33 728.627  44
   0  -5   2 8909.75 746.973   7
   0   5  -2 7395.47 601.494  14
   0  -5   2 9316.10 723.571  28
   5   0   2 9116.94 720.166  43
  -5   0  -2 8769.59 617.184  27
   5   0   2 8658.93 713.626  42
   0  -5   2 8933.32 692.923  13
   0   5  -2 9558.80 705.813  26
   5   0   2 9498.57 772.789  41
   0   5  -2 7905.66 620.530  12
   5   0   2 9073.04 775.614  39
  -5   0  -2 8497.21 568.641  24
   5   0   2 9225.20 757.382  38
  -5   5   2 8334.09 624.946  23
  -5   0  -2 9420.65 631.178  37
   5   0   2 9473.40 717.220  11
  -5   0  -5 159.574 143.463  37
   0  -5   5 277.182 180.524  37
   5   0   5 410.346 245.733  11
   5   0   5 337.552 256.342  36
   5  -5  -5 176.059 181.985  21
   5  -5  -5 220.490 172.328  10
   0  -5   5 170.714 187.160  19
  -5   0  -5 259.269 151.390   5
  -5   0  -5 256.464 153.626  33
   5   0   5 232.700 214.785  17
  -5   0  -5 245.045 139.249  32
  -5   0  -5 299.055 166.377  31
  -5   0  -5 180.865 142.377   8
  -5   5   5 427.692 196.680  29
   5   0   5 433.142 229.643  44
   0  -5   5 299.606 238.263  28
   5   0   5 406.352 253.011  43
   0   5  -5 264.453 156.139  14
   5   0   5 323.714 239.022  42
   0  -5   5 71.2337 140.312  27
   0  -5   5 153.066 195.775  41
   5   0   5 369.723 287.744  41
   0   5  -5 194.083 149.416  26
   0  -5   5 306.834 230.719  13
   0  -5   5 310.918 208.964  40
  -5   0  -5 175.604 129.724  25
   0  -5   5 223.265 200.670  39
   5   0   5 153.663 231.420  39
  -5   5   5 101.658 127.447   6
   5   0   5 568.566 298.660  38
   1  -6  -5 13610.0 931.304  22
   5   1  -5 14264.9 835.767   2
  -6   1   5 11024.3 717.952   6
   5  -6   5 13326.5 978.811   3
   1  -6  -2 50379.4 2064.96  22
   5   1  -2 44008.9 1821.43  11
   5   1  -2 54192.1 2015.33  36
   5   1  -2 52759.6 2007.03  35
   5  -6   2 47952.5 1974.73  20
   5   1  -2 53162.6 2016.19  34
   5   1  -2 52306.5 1875.49  18
  -6   1   2 45742.6 1658.78  32
  -6   1   2 44899.2 1636.85   4
   1   5   2 45112.3 1834.54  16
  -6   1   2 46543.2 1673.30  31
   5  -6   2 50578.5 2036.17  30
   5   1  -2 46950.3 1912.48  44
   5   1  -2 43938.4 1804.31  43
   1  -6  -2 46630.5 1840.75   7
  -6   1   2 49161.8 1719.57  27
   5   1  -2 47158.9 1903.32  42
   5   1  -2 58114.1 2087.90  41
  -6   1   2 50225.1 1738.14  40
  -6   5  -2 50116.3 1825.19  26
   5  -6   2 47892.7 1966.92  13
  -6   5  -2 55337.3 1868.78   1
  -6   5  -2 51980.3 1766.38  24
  -6   1   2 50112.4 1804.95  24
   5   1  -2 51770.8 1937.43  38
  -6   5  -2 43302.2 1666.32  23
  -6   1   2 49332.4 1723.87  37
   5   1   1 13250.9 904.201  11
   1  -6   1 14887.5 1012.76  22
   5   1   1 15328.5 1020.59  36
   5   1   1 13008.3 922.822  35
   5  -6  -1 14110.5 959.191  20
   5   1   1 14255.0 957.288  34
   5  -6  -1 14641.7 933.514  10
  -6   1  -1 15060.0 793.618   5
   5   1   1 15584.8 918.323  18
  -6   1  -1 13720.4 751.575   4
  -6   5   1 12251.8 748.130   4
  -6   1  -1 15911.2 842.621  32
  -6   1  -1 13173.2 780.327   8
   1   5  -1 13829.3 898.188  16
  -6   1  -1 15347.5 834.768  31
   5  -6  -1 14961.6 959.859  30
   5   1   1 13430.0 912.348  44
   1  -6   1 15639.9 959.986  28
   1  -6   1 13706.8 929.099   7
   5   1   1 12245.5 863.268  43
  -6   1  -1 15940.8 854.525  27
   5   1   1 14069.2 919.260  42
   5   1   1 16346.9 1023.50  41
  -6   5   1 16611.8 903.214   1
  -6   1  -1 14243.1 813.394   1
  -6   1  -1 16529.3 871.531  24
   5   1   1 15865.3 1012.54  38
  -6   5   1 13231.6 833.610  23
  -6   1  -1 15839.2 843.619  37
   5   1   4 16793.9 1134.75  36
   5   1   4 15011.1 1068.61  35
  -6   1  -4 14081.9 792.584   5
  -6   1  -4 15010.6 843.216  33
  -6   1  -4 12272.0 816.307   8
   5   1   4 13873.5 1024.32  17
  -6   1  -4 14525.0 840.266  32
  -6   1  -4 14922.5 855.752  31
   5   1   4 13236.0 971.628  44
   1   5  -4 12115.6 822.099  14
   1  -6   4 14160.2 1053.03  28
  -6   1  -4 14554.8 861.504  27
   5   1   4 13490.9 961.180  43
   5   1   4 14732.0 1012.85  42
  -6   5   4 13190.1 820.648   6
   1   5  -4 13825.9 901.854  26
   5   1   4 15194.0 1086.03  41
   1  -6   4 14746.4 1065.97  13
  -6   1  -4 15363.7 863.158  25
   5   1   4 15526.5 1088.84  39
  -6   1  -4 13925.7 817.045  24
   5   1   4 14452.3 1044.04  38
  -6   1  -4 15589.2 871.789  37
  -6   5   4 12547.6 847.448  23
   5   1   4 14624.8 1022.22  11
   5   2   0 14018.4 953.529  11
   2  -7   0 17745.3 1173.54  22
   5   2   0 16510.0 1041.02  36
   5   2   0 16425.0 1053.60  35
   5   2   0 16133.2 1052.12  34
  -7   5   0 15700.5 881.421   4
  -7   2   0 15500.4 842.946   4
  -7   2   0 15836.9 856.843  32
   2   5   0 14344.9 941.046  16
  -7   2   0 15951.3 868.052  31
  -7   5   0 17531.8 982.780   1
   5  -7   0 14736.5 999.281  30
   5   2   0 13559.7 960.159  44
   2  -7   0 15242.2 996.890  28
   5   2   0 12809.7 895.773  43
  -7   2   0 16278.1 876.574  27
   2  -7   0 15862.4 1034.85   7
   5   2   0 13316.1 918.377  42
   5   2   0 17448.1 1079.82  41
  -7   5   0 15665.3 898.407  24
  -7   2   0 16518.8 931.532  24
   5   2   0 16929.3 1064.81  38
  -7   2   0 16170.0 924.357   1
  -7   5   0 14805.0 897.556  23
  -7   2   0 16257.7 868.412  37
   5   2   3 8870.95 813.614  36
   5   2   3 8399.98 808.252  35
  -7   5   3 9812.76 732.774   1
  -7   5   3 8039.43 611.108   4
   5   2   3 8651.60 760.621  44
   2  -7   3 7955.74 752.661   7
   5   2   3 7671.55 707.837  43
   5   2   3 7279.82 705.719  42
   5   2   3 9242.31 808.908  41
   2  -7   3 7926.21 760.351  13
   5   2   3 8517.48 790.749  39
   5   2   3 8889.68 791.046  38
  -7   2  -3 9228.49 671.947   1
   6  -3   0 25804.8 1217.00  36
   6  -3   0 21630.2 1257.00  10
   6  -3   0 22311.5 1246.31  20
   6  -3   0 22845.8 1151.90  35
  -3  -3   0 25355.3 1118.95  19
  -3  -3   0 23095.2 1020.32   5
   6  -3   0 25865.3 1272.58  18
  -3  -3   0 23355.5 1038.73  32
  -3  -3   0 22475.7 1106.98   8
  -3  -3   0 24533.8 1070.71  31
   6  -3   0 20426.8 1046.11  44
   6  -3   0 23401.4 1086.42  43
  -3  -3   0 24259.7 1070.29  27
   6  -3   0 22650.7 1076.26  42
   6  -3   0 23291.4 1147.48  41
  -3  -3   0 25069.1 1083.65  40
  -3   6   0 18534.9 1068.79  12
   6  -3   0 27018.4 1231.19  39
   6  -3   0 24873.7 1178.88  38
  -3  -3   0 25131.0 1082.15  37
  -3  -3  -3 11540.3 840.284  22
  -3  -3   3 15846.0 901.160  37
   6  -3   3 13980.3 967.670  36
   6  -3  -3 12824.3 907.490  10
   6  -3   3 14223.9 975.957   3
  -3  -3  -3 15335.4 808.076   5
  -3  -3   3 14775.2 898.138  19
   6  -3   3 14458.3 973.153  18
   6  -3  -3 15176.6 927.517  18
  -3  -3  -3 13245.1 819.255   8
  -3  -3   3 14739.8 870.742  31
   6  -3   3 15572.6 1013.66  30
   6  -3   3 14175.0 926.108  44
   6  -3   3 14093.7 911.873  43
   6  -3   3 13763.5 904.670  42
  -3  -3   3 16373.1 929.868  27
  -3  -3   3 12651.7 833.526  13
   6  -3   3 15164.1 1012.38  41
  -3   6  -3 13778.9 883.504  26
  -3  -3   3 15390.0 906.163  40
  -3  -3   3 14997.0 907.794  39
   6  -3   3 14769.3 993.743  39
  -3   6  -3 13889.9 895.982  12
   6  -3   3 14467.2 999.420  38
  -4  -2   4 6222.00 566.757  37
  -2  -4  -4 7002.30 618.060  22
   6  -4   4 7127.84 726.166  36
   6  -4   4 6765.62 705.278   3
  -2  -4  -4 6296.23 500.259   5
   6  -4   4 5661.39 712.710  20
   6  -2  -4 7379.78 640.037  10
  -4  -2   4 6964.24 583.457  19
   6  -2  -4 7812.20 661.133  18
   6  -2  -4 8499.02 686.128   2
  -2   6   4 7703.73 668.300  16
  -2  -4  -4 7244.77 579.772   8
  -4  -2   4 7169.82 597.194  31
   6  -4   4 7361.96 764.516  30
   6  -4   4 7240.45 658.021  44
   6  -4   4 7273.19 644.514  43
   6  -4   4 7874.40 669.028  42
  -4  -2   4 6542.28 588.083  27
   6  -4   4 7133.62 707.941  41
  -4   6  -4 6106.33 586.603  26
  -4  -2   4 6450.77 583.708  40
   6  -4   4 7091.16 695.015  40
  -4  -2   4 6919.15 604.987  39
   6  -4   4 6847.08 694.982  39
  -4   6  -4 6677.27 633.565  12
   6  -4   4 7036.51 708.814  38
  -2  -4  -1 5571.77 626.230  22
   6  -2  -1 6175.92 607.325  36
   6  -2  -1 6277.88 602.157  20
   6  -4   1 4938.84 598.636  20
   6  -2  -1 5284.37 554.478  35
   6  -4   1 5078.60 565.364  10
  -4  -2   1 5814.62 518.381  19
   6  -2  -1 4908.88 527.595  34
   6  -4   1 5320.06 566.051   3
   6  -4   1 4714.12 534.342  18
   6  -2  -1 5669.15 583.012  18
  -4  -2   1 5024.03 476.845  32
  -2   6   1 4695.68 481.353  16
  -4  -2   1 5659.11 506.867   8
  -2  -4  -1 4839.03 490.905   8
  -4  -2   1 5767.31 514.101  31
   6  -4   1 6110.41 583.407  30
  -2  -4  -1 4566.86 474.132   7
   6  -2  -1 5281.41 518.019  44
   6  -2  -1 5299.24 512.474  43
  -4  -2   1 5076.13 492.850  27
   6  -2  -1 5151.59 510.475  42
   6  -2  -1 6392.87 616.453  41
  -4  -2   1 6148.63 537.633  40
  -4   6  -1 5659.30 526.068  26
  -2   6   1 4603.88 519.147  12
  -4   6  -1 4799.33 506.856  12
   6  -2  -1 5702.70 572.302  38
  -4  -2   1 5563.71 507.046  37
  -2  -4   2 44061.4 1612.53  37
  -2  -4   2 39662.9 1806.49  22
   6  -2   2 44008.3 1869.76  36
   6  -2   2 42328.7 1846.17  35
   6  -4  -2 46310.2 1842.74  20
   6  -4  -2 42471.8 1816.89  10
  -2  -4   2 47336.6 1710.26  19
  -4  -2  -2 46267.4 1593.75   5
   6  -2   2 41044.4 1765.96   3
   6  -2   2 47634.8 1878.25  18
   6  -4  -2 47034.7 1755.19  18
  -4  -2  -2 44101.1 1556.04  32
  -4  -2  -2 37121.6 1544.97   8
  -4  -2  -2 45540.1 1587.34  31
  -2   6  -2 44147.4 1700.29  16
  -2  -4   2 46424.4 1640.10  31
  -2  -4   2 39214.6 1781.55   7
   6  -2   2 47466.4 1855.58  44
  -2  -4   2 45576.2 1692.19  28
   6  -2   2 43769.6 1758.65  43
  -4  -2  -2 45419.3 1584.29  27
  -2  -4   2 47145.9 1665.02  27
   6  -2   2 46625.7 1833.93  42
   6  -2   2 45665.7 1894.93  41
  -2   6  -2 48196.6 1777.89  26
  -2  -4   2 48997.9 1697.15  40
  -2  -4   2 50354.2 1728.32  39
  -2   6  -2 36484.3 1607.54  12
   6  -2   2 46060.4 1908.05  39
   6  -2   2 42682.0 1824.89  38
  -4   6   2 39424.8 1561.02  23
  -4  -2  -2 43393.5 1554.87  37
   6  -2   2 43910.1 1684.22  11
  -2  -4   5 7793.40 671.463  37
   6  -2   5 7404.87 825.567  36
   6  -2   5 7459.73 734.819   3
  -4  -2  -5 7830.21 584.442   5
   6  -4  -5 8241.69 702.044  10
  -2  -4   5 8012.10 685.603  19
   6  -4  -5 7827.20 666.542   2
  -4  -2  -5 7405.25 617.641   8
  -4   6   5 7945.93 732.081  15
  -2  -4   5 7414.39 647.939  31
   6  -2   5 7227.64 727.950  44
  -4   6   5 7474.61 684.954  29
  -2   6  -5 6742.87 600.579  14
   6  -2   5 7470.66 739.108  43
   6  -2   5 7238.86 721.583  42
  -2  -4   5 6336.26 616.102  27
  -2  -4   5 6540.27 662.936  13
   6  -2   5 7306.23 795.189  41
  -2   6  -5 7809.61 659.448  26
  -2  -4   5 7562.01 668.223  40
  -2  -4   5 7451.52 673.313  39
  -4  -2  -5 6366.77 532.516  25
   6  -2   5 7092.76 781.586  39
  -2   6  -5 7533.34 631.246  12
   6  -2   5 6501.08 769.643  38
   6  -2   5 7615.98 712.151  11
  -1  -5  -5 11532.9 813.519  22
  -5  -1   5 10282.4 727.800   4
  -1  -5  -2 44234.2 1902.30  22
   6  -1  -2 43783.7 1719.74  11
   6  -1  -2 47293.8 1828.46  36
   6  -5   2 48076.2 2062.91  20
   6  -1  -2 47840.8 1853.61  35
   6  -5   2 46400.6 1926.78   3
  -5  -1   2 48200.2 1701.11  19
   6  -1  -2 45304.0 1834.00  34
   6  -1  -2 46415.0 1815.84  18
  -5  -1   2 47778.2 1719.35  32
  -1   6   2 46622.0 1808.45  16
  -1  -5  -2 43610.4 1671.98   8
  -5  -1   2 44960.3 1697.52  31
   6  -5   2 46084.3 1965.75  30
   6  -1  -2 43779.0 1786.91  44
  -1  -5  -2 42323.6 1675.37   7
   6  -1  -2 40743.2 1693.39  43
  -5  -1   2 48480.9 1750.69  27
   6  -1  -2 41678.0 1712.02  42
   6  -1  -2 50078.4 1890.75  41
  -5  -1   2 49669.5 1766.06  40
  -5   6  -2 46423.4 1753.14  26
  -5   6  -2 43568.7 1783.97  12
  -5  -1   2 47774.4 1674.34  24
   6  -1  -2 51644.8 1904.69  38
  -5  -1   2 47175.5 1726.15  37
   6  -1   1 12691.0 835.475  11
  -1  -5   1 15471.8 1076.98  22
   6  -1   1 16609.4 1068.30  36
   6  -1   1 14783.7 1011.03  35
   6  -5  -1 16691.1 1077.30  20
   6  -5  -1 15176.6 1000.55  10
  -1  -5   1 15306.1 854.869  19
  -5  -1  -1 12806.5 768.197   5
   6  -1   1 14973.5 970.111  18
  -5  -1  -1 13458.2 782.089  32
  -5  -1  -1 12399.5 764.707   8
  -1   6  -1 13701.1 887.545  16
  -5  -1  -1 14420.7 809.978  31
   6  -5  -1 14204.7 898.458  30
   6  -1   1 14255.9 933.558  44
  -1  -5   1 13340.4 939.123   7
  -1  -5   1 14225.4 853.895  28
   6  -1   1 13635.2 904.923  43
  -5  -1  -1 13955.9 811.980  27
   6  -1   1 13303.6 899.967  42
   6  -1   1 16407.9 1037.03  41
  -5  -1  -1 15113.4 844.228  40
  -1   6  -1 12376.6 845.833  12
   6  -1   1 17319.5 1061.09  38
  -5   6   1 13499.4 835.150  23
  -5  -1  -1 13787.8 800.593  37
   6  -1   4 17729.6 1222.25  36
   6  -1   4 15792.1 1165.91  35
  -5  -1  -4 17420.5 904.190   5
   6  -5  -4 15517.3 944.147  20
   6  -5  -4 16173.2 1028.70  10
  -1  -5   4 15761.6 972.598  19
  -5  -1  -4 16218.4 882.359  33
  -5  -1  -4 17610.6 919.324  32
  -5  -1  -4 14727.1 905.080   8
  -5  -1  -4 17142.7 922.390  31
  -5   6   4 17018.5 995.360  29
  -1  -5   4 15543.9 1115.66   7
   6  -1   4 18225.9 1181.49  44
  -1  -5   4 15510.7 1026.90  28
  -1   6  -4 16651.6 958.927  14
   6  -1   4 16522.1 1102.05  43
  -5  -1  -4 17191.9 923.096  27
   6  -1   4 16669.7 1093.91  42
  -1  -5   4 17998.8 1166.95  13
   6  -1   4 18204.2 1241.34  41
  -1   6  -4 16512.3 990.150  26
  -5  -1  -4 17069.6 912.228  25
  -1   6  -4 13958.2 877.576  12
   6  -1   4 16643.1 1189.22  39
   6  -1   4 17723.7 1238.39  38
   6  -1   4 16506.6 1067.56  11
  -5  -1  -4 16992.1 917.672  37
  -6   0   3 485.873 183.232  37
   0  -6  -3 393.071 227.223  22
   6   0  -3 254.121 193.152  11
   6   0  -3 308.600 198.463  36
   6  -6   3 555.049 257.697  20
   6   0  -3 606.074 255.770  35
   6   0  -3 355.853 198.092   2
   6   0  -3 749.829 257.678  34
   6  -6   3 246.018 209.900   3
   6   0  -3 540.866 225.845  18
  -6   0   3 326.065 179.632  32
   0   6   3 420.445 222.292  16
  -6   0   3 334.838 171.748  31
   6  -6   3 433.279 233.162  30
   6   0  -3 436.353 226.541  44
  -6   0   3 467.981 177.518   4
   0  -6  -3 489.020 201.201   7
   6   0  -3 519.471 234.032  42
  -6   0   3 584.787 204.860  27
   6   0  -3 246.731 215.696  41
  -6   6  -3 506.790 199.827  26
  -6   0   3 401.035 195.545  40
  -6   6  -3 477.106 197.091   1
  -6   0   3 405.065 180.334  24
   6   0  -3 596.079 234.682  38
  -6   6  -3 426.114 189.898  23
   6   0   0 7964.84 683.817  11
   0  -6   0 7776.35 760.754  22
   6   0   0 8863.69 781.785  36
   6   0   0 8172.13 732.266  35
   6  -6   0 8302.96 765.435  20
   6  -6   0 8096.76 708.415  10
   6   0   0 7098.01 686.830  34
  -6   0   0 7859.31 599.329   5
   6   0   0 7684.86 675.756  18
  -6   0   0 7613.35 584.598  32
   0   6   0 7583.46 673.168  16
  -6   0   0 7970.76 604.821  31
   6  -6   0 8601.09 756.071  30
   6   0   0 7142.07 666.839  44
   0  -6   0 7476.57 680.280   7
   0  -6   0 7110.34 618.002  28
   6   0   0 7679.31 682.866  43
  -6   0   0 8276.25 623.648  27
   6   0   0 7936.43 689.637  42
   6   0   0 8441.69 749.304  41
  -6   0   0 8255.89 626.568  40
  -6   6   0 8890.53 699.135  26
  -6   0   0 8563.36 616.786  24
   6   0   0 8315.54 744.023  38
  -6   6   0 7572.26 632.030  23
  -6   0   0 8460.35 621.743  37
  -6   0  -3 852.455 227.655  37
   6   0   3 626.986 264.757  11
   6   0   3 772.713 329.339  36
   6  -6  -3 635.833 237.130  20
   6   0   3 368.178 264.466  35
   6  -6  -3 1256.88 303.258  10
  -6   0  -3 750.343 204.968   5
  -6   0  -3 626.268 196.363  33
  -6   0  -3 805.107 219.869  32
  -6   0  -3 804.371 226.450  31
  -6   0  -3 601.099 211.671   8
   6   0   3 796.421 282.020  44
   0  -6   3 378.817 233.316  28
   6   0   3 631.098 275.081  43
   0  -6   3 836.893 296.875   7
   6   0   3 610.557 265.874  42
  -6   0  -3 531.861 194.744  27
   6   0   3 589.649 290.090  41
   0   6  -3 652.616 238.778  26
   6   0   3 650.105 282.062  39
   0   6  -3 280.710 170.564  12
   6   0   3 533.305 259.126  38
  -6   6   3 746.522 243.366  23
  -7   6  -1 13643.9 853.842   1
   6  -7   1 11935.0 927.277  20
  -7   1   1 12473.3 736.049   4
  -7   1   1 12248.4 792.139   1
   1  -7  -1 11382.3 826.959  28
  -3  -4  -2 8867.27 774.909  22
   7  -4   2 9748.67 914.529  20
   7  -3  -2 8685.33 796.268  10
  -4  -3   2 9348.47 706.057  19
   7  -4   2 9507.53 832.147   3
   7  -4   2 8616.85 785.043  18
   7  -3  -2 10263.6 822.851  18
  -3  -4  -2 7939.30 647.774   8
  -4  -3   2 9512.40 703.416  31
  -4  -3   2 8676.96 666.161   8
  -4  -3   2 10040.5 718.220  27
  -4   7  -2 10129.3 770.850  26
  -4  -3   2 10162.7 732.655  40
  -3   7   2 7727.31 700.105  12
  -4   7  -2 10081.0 770.799  12
  -4  -3   2 9946.67 717.520  37
  -4  -3  -1 951.524 218.503  37
  -3  -4   1 1095.50 293.186  22
   7  -3   1 1201.64 325.541  36
   7  -3   1 1050.94 329.641  20
   7  -4  -1 1408.19 339.169  20
   7  -3   1 933.549 297.179  35
   7  -3   1 918.504 318.165  10
   7  -4  -1 1193.89 333.565  10
  -3  -4   1 1047.53 247.792  19
  -4  -3  -1 935.851 219.834   5
   7  -3   1 1059.98 336.276  18
   7  -4  -1 836.840 293.040  18
  -4  -3  -1 1014.32 233.681  32
  -4  -3  -1 1010.03 225.866  31
  -4  -3  -1 610.009 204.257   8
  -3  -4   1 618.915 209.684   8
   7  -3   1 746.014 258.278  44
   7  -3   1 1574.99 324.346  43
  -3  -4   1 831.032 248.613   7
   7  -3   1 773.346 256.461  42
  -4  -3  -1 1042.23 235.822  27
   7  -3   1 944.093 303.006  41
  -4  -3  -1 932.621 234.595  40
   7  -3   1 1072.04 309.427  39
  -3   7  -1 764.247 247.300  12
  -4   7   1 740.624 244.773  12
   7  -3   1 826.297 272.331  38
  -2   7   3 9255.08 754.589  16
  -2  -5  -3 6901.77 605.908   8
  -2  -5   0 19436.4 1246.92  22
   7  -2   0 19896.2 1188.95  36
   7  -2   0 18582.4 1152.30  20
   7  -2   0 19726.6 1181.12  35
   7  -5   0 17332.2 1180.73  20
   7  -5   0 17610.4 1162.95  10
  -2  -5   0 18732.7 982.525  19
  -5  -2   0 18933.1 972.989   5
   7  -5   0 20298.1 1158.16  18
   7  -2   0 20222.6 1290.55  18
  -5  -2   0 18443.8 967.359  32
  -5  -2   0 15182.6 902.769   8
  -2   7   0 15343.8 968.812  16
  -5  -2   0 18729.0 977.964  31
  -2  -5   0 16464.8 972.103   8
   7  -2   0 17591.0 1065.15  44
  -2  -5   0 17570.2 1058.74   7
   7  -2   0 17268.5 1029.60  43
  -5  -2   0 19300.7 1004.89  27
   7  -2   0 17448.9 1047.22  42
   7  -2   0 18923.9 1159.84  41
  -5  -2   0 19808.0 1017.13  40
  -2   7   0 15182.6 1013.12  12
  -5   7   0 16123.6 996.778  12
   7  -2   0 19278.0 1160.31  38
  -5   7   0 18836.1 1057.58  23
  -5  -2   0 19003.7 1001.44  37
   7  -5  -3 9477.34 772.298  20
   7  -2   3 8076.00 771.266   3
  -5  -2  -3 9154.83 638.942  33
  -5  -2  -3 9300.10 653.167  32
  -5  -2  -3 9380.31 664.834  31
  -5  -2  -3 9301.75 658.843  27
  -5  -2  -3 9449.13 657.011  25
  -5  -2  -3 9317.53 663.211  37
   7  -6   1 12606.0 942.021   3
   0   0   0    0.00    0.00   0
TITL NiSe4 in R32
REM R32 (#155 in standard setting)
CELL 0.71073   6.028130   6.028130   7.248829  90.0000  90.0000 120.0000
ZERR    3.00   0.000130   0.000130   0.000161   0.0000   0.0000   0.0000
LATT -3
SYMM -y, x-y, z
SYMM -x+y,-x, z
SYMM  y, x,-z
SYMM  x-y,-y,-z
SYMM -x,-x+y,-z
SFAC Ni Se
UNIT 9.00 6.00
TREF
HKLF 4
END
;
_shelx_hkl_checksum              2604
_shelx_res_file
;
TITL NiSe4 in R32 #155
    shelx.res
    created by SHELXL-2018/3 at 15:37:01 on 13-Apr-2020
REM reset to R32 #155
CELL 0.71073 6.02813 6.02813 7.248829 90 90 120
ZERR 3 0.00013 0.00013 0.000161 0 0 0
LATT -3
SYMM -Y,+X-Y,+Z
SYMM +Y-X,-X,+Z
SYMM -Y+X,-Y,-Z
SYMM -X,-X+Y,-Z
SYMM +Y,+X,-Z
SFAC Ni Se
UNIT 9 6
L.S. 4
PLAN  5
fmap 2
acta
REM <olex2.extras>
REM <HklSrc "%.\\nise4.hkl">
REM </olex2.extras>
WGHT    0.031800    1.172800
FVAR       1.72932
SE1   2    0.000000    0.000000   -0.259986    10.33333    0.00573    0.00573 =
         0.00693    0.00000    0.00000    0.00286
NI1   1   -0.246853    0.000000    0.000000    10.50000    0.00624    0.00760 =
         0.00750   -0.00149   -0.00075    0.00380
HKLF 4
REM  NiSe4 in R32 #155
REM wR2 = 0.0517, GooF = S = 1.370, Restrained GooF = 1.370 for all data
REM R1 = 0.0204 for 117 Fo > 4sig(Fo) and 0.0204 for all 117 data
REM 9 parameters refined using 0 restraints
END
WGHT      0.0318      1.1728
REM Highest difference peak  1.148,  deepest hole -1.588,  1-sigma level  0.325
Q1    1  -0.1642  0.1692  0.1667  10.50000  0.05    1.15
Q2    1  -0.2356 -0.0398  0.1842  11.00000  0.05    0.65
Q3    1   0.1654  0.0924 -0.1523  11.00000  0.05    0.61
Q4    1   0.0000  0.0000  0.0000  10.16667  0.05    0.45
Q5    1   0.0000  0.0000 -0.4245  10.33333  0.05    0.45
;
_shelx_res_checksum              36408
loop_
_symmetry_equiv_pos_as_xyz
'x, y, z'
'-y, x-y, z'
'-x+y, -x, z'
'x-y, -y, -z'
'-x, -x+y, -z'
'y, x, -z'
'x+2/3, y+1/3, z+1/3'
'-y+2/3, x-y+1/3, z+1/3'
'-x+y+2/3, -x+1/3, z+1/3'
'x-y+2/3, -y+1/3, -z+1/3'
'-x+2/3, -x+y+1/3, -z+1/3'
'y+2/3, x+1/3, -z+1/3'
'x+1/3, y+2/3, z+2/3'
'-y+1/3, x-y+2/3, z+2/3'
'-x+y+1/3, -x+2/3, z+2/3'
'x-y+1/3, -y+2/3, -z+2/3'
'-x+1/3, -x+y+2/3, -z+2/3'
'y+1/3, x+2/3, -z+2/3'
loop_
_atom_site_type_symbol
_atom_site_label
_atom_site_fract_x
_atom_site_fract_y
_atom_site_fract_z
_atom_site_U_iso_or_equiv
_atom_site_adp_type
_atom_site_calc_flag
_atom_site_occupancy
_atom_site_disorder_assembly
_atom_site_disorder_group
Se Se1 0.000000 0.000000 -0.25999(13) 0.0061(4) Uani d 1 . .
Ni Ni1 -0.2469(2) 0.000000 0.000000 0.0070(4) Uani d 1 . .
loop_
_atom_site_aniso_label
_atom_site_aniso_U_11
_atom_site_aniso_U_22
_atom_site_aniso_U_33
_atom_site_aniso_U_12
_atom_site_aniso_U_13
_atom_site_aniso_U_23
Se1 0.0057(5) 0.0057(5) 0.0069(6) 0.0029(2) 0.000 0.000
Ni1 0.0062(5) 0.0076(7) 0.0075(6) 0.0038(3) -0.0007(2) -0.0015(4)
loop_
_atom_type_symbol
_atom_type_description
_atom_type_scat_dispersion_real
_atom_type_scat_dispersion_imag
_atom_type_scat_source
Ni Ni 0.3393 1.1124 'International Tables Vol C Tables 4.2.6.8 and 6.1.1.4'
Se Se -0.0929 2.2259 'International Tables Vol C Tables 4.2.6.8 and 6.1.1.4'
loop_
_geom_angle_atom_site_label_1
_geom_angle_atom_site_label_2
_geom_angle_atom_site_label_3
_geom_angle_site_symmetry_1
_geom_angle_site_symmetry_3
_geom_angle
_geom_angle_publ_flag
Ni1 Se1 Ni1 15_444 14_554 115.139(17) ?
Ni1 Se1 Ni1 15_444 13_544 115.138(17) ?
Ni1 Se1 Ni1 14_554 13_544 115.138(16) ?
Ni1 Se1 Ni1 15_444 3 125.03(2) ?
Ni1 Se1 Ni1 14_554 3 65.38(2) ?
Ni1 Se1 Ni1 13_544 3 111.71(3) ?
Ni1 Se1 Ni1 15_444 2 111.71(3) ?
Ni1 Se1 Ni1 14_554 2 125.02(2) ?
Ni1 Se1 Ni1 13_544 2 65.38(2) ?
Ni1 Se1 Ni1 3 2 64.92(5) ?
Ni1 Se1 Ni1 15_444 . 65.38(2) ?
Ni1 Se1 Ni1 14_554 . 111.71(3) ?
Ni1 Se1 Ni1 13_544 . 125.03(2) ?
Ni1 Se1 Ni1 3 . 64.92(5) ?
Ni1 Se1 Ni1 2 . 64.92(5) ?
Se1 Ni1 Se1 16_444 7_455 100.03(5) ?
Se1 Ni1 Se1 16_444 4 125.03(2) ?
Se1 Ni1 Se1 7_455 4 102.855(10) ?
Se1 Ni1 Se1 16_444 . 102.855(10) ?
Se1 Ni1 Se1 7_455 . 125.03(2) ?
Se1 Ni1 Se1 4 . 103.41(6) ?
Se1 Ni1 Ni1 16_444 3 157.35(3) ?
Se1 Ni1 Ni1 7_455 3 100.96(2) ?
Se1 Ni1 Ni1 4 3 57.54(2) ?
Se1 Ni1 Ni1 . 3 57.54(2) ?
Se1 Ni1 Ni1 16_444 2 100.96(2) ?
Se1 Ni1 Ni1 7_455 2 157.35(3) ?
Se1 Ni1 Ni1 4 2 57.54(2) ?
Se1 Ni1 Ni1 . 2 57.54(2) ?
Ni1 Ni1 Ni1 3 2 60.0 ?
Se1 Ni1 Ni1 16_444 15_444 57.81(5) ?
Se1 Ni1 Ni1 7_455 15_444 98.23(3) ?
Se1 Ni1 Ni1 4 15_444 157.37(5) ?
Se1 Ni1 Ni1 . 15_444 56.82(2) ?
Ni1 Ni1 Ni1 3 15_444 110.49(5) ?
Ni1 Ni1 Ni1 2 15_444 100.08(2) ?
Se1 Ni1 Ni1 16_444 8_455 98.23(3) ?
Se1 Ni1 Ni1 7_455 8_455 57.81(5) ?
Se1 Ni1 Ni1 4 8_455 56.82(2) ?
Se1 Ni1 Ni1 . 8_455 157.38(5) ?
Ni1 Ni1 Ni1 3 8_455 100.08(2) ?
Ni1 Ni1 Ni1 2 8_455 110.49(5) ?
Ni1 Ni1 Ni1 15_444 8_455 144.71(8) ?
loop_
_geom_bond_atom_site_label_1
_geom_bond_atom_site_label_2
_geom_bond_site_symmetry_2
_geom_bond_distance
_geom_bond_publ_flag
Se1 Ni1 15_444 2.3748(8) ?
Se1 Ni1 14_554 2.3748(8) ?
Se1 Ni1 13_544 2.3748(8) ?
Se1 Ni1 3 2.4012(10) ?
Se1 Ni1 2 2.4012(10) ?
Se1 Ni1 . 2.4013(10) ?
Ni1 Ni1 3 2.577(2) ?
Ni1 Ni1 2 2.577(2) ?
Ni1 Ni1 15_444 2.5795(8) ?
Ni1 Ni1 8_455 2.5795(8) ?
