#------------------------------------------------------------------------------
#$Date: 2021-05-18 09:47:04 +0300 (Tue, 18 May 2021) $
#$Revision: 265292 $
#$URL: file:///home/coder/svn-repositories/cod/cif/2/02/23/2022380.cif $
#------------------------------------------------------------------------------
#
# This file is available in the Crystallography Open Database (COD),
# http://www.crystallography.net/. The original data for this entry
# were provided by IUCr Journals, http://journals.iucr.org/.
#
# The file may be used within the scientific community so long as
# proper attribution is given to the journal article from which the
# data were obtained.
#
data_2022380
loop_
_publ_author_name
'Saravanan, Raju'
'Singh, Harkesh B.'
'Butcher, Ray J.'
_publ_section_title
;
 Bis(2-nitrophenyl) selenide, bis(2-aminophenyl) selenide and
 bis(2-aminophenyl) telluride: structural and theoretical analysis
;
_journal_coeditor_code           ZO3004
_journal_issue                   6
_journal_name_full               'Acta Crystallographica Section C'
_journal_page_first
;
;
_journal_paper_doi               10.1107/S2053229621005015
_journal_volume                  77
_journal_year                    2021
_chemical_formula_iupac          'C12 H12 N2 Te'
_chemical_formula_moiety         'C12 H12 N2 Te'
_chemical_formula_sum            'C12 H12 N2 Te'
_chemical_formula_weight         311.84
_chemical_name_systematic
;
Bis(2-aminophenyl) telluride
;
_space_group_crystal_system      triclinic
_space_group_IT_number           2
_space_group_name_Hall           '-P 1'
_space_group_name_H-M_alt        'P -1'
_atom_sites_solution_hydrogens   mixed
_atom_sites_solution_primary     direct
_atom_sites_solution_secondary   difmap
_audit_creation_method           SHELXL-2018/3
_cell_angle_alpha                66.164(3)
_cell_angle_beta                 88.628(2)
_cell_angle_gamma                88.780(2)
_cell_formula_units_Z            2
_cell_length_a                   7.0048(2)
_cell_length_b                   8.6062(3)
_cell_length_c                   10.1392(3)
_cell_measurement_reflns_used    6288
_cell_measurement_temperature    150(2)
_cell_measurement_theta_max      30.8760
_cell_measurement_theta_min      2.1680
_cell_volume                     558.90(3)
_computing_cell_refinement
;
CrysAlis PRO (Rigaku OD, 2015\\)
;
_computing_data_collection
;
CrysAlis PRO (Rigaku OD, 2015\\)
;
_computing_data_reduction
;
CrysAlis PRO (Rigaku OD, 2015\\)
;
_computing_molecular_graphics
;
SHELXTL (Sheldrick, 2008\\)
;
_computing_publication_material
;
SHELXTL (Sheldrick, 2008\\)
;
_computing_structure_refinement
;
SHELXL2018 (Sheldrick, 2015b\\)
;
_computing_structure_solution
;
SHELXT2018 (Sheldrick, 2015a\\)
;
_diffrn_ambient_temperature      150(2)
_diffrn_measured_fraction_theta_full 0.987
_diffrn_measured_fraction_theta_max 0.991
_diffrn_measurement_device_type  'Rigaku Saturn 724 Dual Source CCD'
_diffrn_measurement_method       '\w scans'
_diffrn_radiation_type           MoK\a
_diffrn_radiation_wavelength     0.71073
_diffrn_reflns_av_R_equivalents  0.0381
_diffrn_reflns_av_unetI/netI     0.0269
_diffrn_reflns_limit_h_max       9
_diffrn_reflns_limit_h_min       -9
_diffrn_reflns_limit_k_max       11
_diffrn_reflns_limit_k_min       -11
_diffrn_reflns_limit_l_max       13
_diffrn_reflns_limit_l_min       -13
_diffrn_reflns_number            13367
_diffrn_reflns_theta_full        25.242
_diffrn_reflns_theta_max         29.127
_diffrn_reflns_theta_min         2.632
_diffrn_source                   'fine-focus sealed X-ray tube'
_exptl_absorpt_coefficient_mu    2.628
_exptl_absorpt_correction_T_max  0.714
_exptl_absorpt_correction_T_min  0.567
_exptl_absorpt_correction_type   multi-scan
_exptl_absorpt_process_details
;
(CrysAlis PRO; Rigaku OD, 2015\\)
;
_exptl_crystal_colour            'pale yellow'
_exptl_crystal_density_diffrn    1.853
_exptl_crystal_density_method    'not measured'
_exptl_crystal_description       prism
_exptl_crystal_F_000             300
_exptl_crystal_size_max          0.21
_exptl_crystal_size_mid          0.16
_exptl_crystal_size_min          0.12
_refine_diff_density_max         1.273
_refine_diff_density_min         -1.280
_refine_ls_extinction_method     none
_refine_ls_goodness_of_fit_ref   1.095
_refine_ls_hydrogen_treatment    mixed
_refine_ls_matrix_type           full
_refine_ls_number_parameters     152
_refine_ls_number_reflns         2976
_refine_ls_number_restraints     4
_refine_ls_restrained_S_all      1.095
_refine_ls_R_factor_all          0.0252
_refine_ls_R_factor_gt           0.0204
_refine_ls_shift/su_max          0.001
_refine_ls_shift/su_mean         0.000
_refine_ls_structure_factor_coef Fsqd
_refine_ls_weighting_details
'w=1/[\s^2^(Fo^2^)+(0.0215P)^2^+0.5277P] where P=(Fo^2^+2Fc^2^)/3'
_refine_ls_weighting_scheme      calc
_refine_ls_wR_factor_gt          0.0474
_refine_ls_wR_factor_ref         0.0490
_reflns_number_gt                2890
_reflns_number_total             2976
_reflns_threshold_expression     'I > 2\s(I)'
_cod_data_source_file            zo3004sup1.cif
_cod_data_source_block           7
_cod_database_code               2022380
_shelx_space_group_comment
;
The symmetry employed for this shelxl refinement is uniquely defined
by the following loop, which should always be used as a source of
symmetry information in preference to the above space-group names.
They are only intended as comments.
;
_shelx_hkl_file
;
  -9  -4  -3   32.68    6.60
  -9  -4  -3   32.47    6.10
  -9  -4  -3   16.64    5.02
  -9  -4  -2   30.04    6.24
  -9  -4  -2   25.60    5.92
  -9  -4  -2   33.16    6.45
  -9  -4  -1  106.15   11.25
  -9  -4  -1  122.72   11.81
  -9  -4  -1  102.61   10.88
  -9  -3  -4  199.68   15.56
  -9  -3  -4  187.42   14.06
  -9  -3  -3  420.68   21.77
  -9  -3  -3  390.64   20.34
  -9  -3  -3  402.59   20.45
  -9  -3  -2  360.87   19.89
  -9  -3  -2  362.11   20.45
  -9  -3  -2  337.72   19.00
  -9  -3  -1  111.36   11.52
  -9  -3  -1  113.02   11.31
  -9  -3  -1  106.23   10.78
  -9  -3   0   34.27    6.39
  -9  -3   0   25.84    6.13
  -9  -3   0   27.93    6.13
  -9  -3   1   13.02    4.62
  -9  -3   1   10.67    4.60
  -9  -3   1    9.43    4.36
  -9  -2  -5  129.11   12.71
  -9  -2  -5  123.38   11.33
  -9  -2  -5  116.22   10.83
  -9  -2  -4   51.31    7.74
  -9  -2  -4   57.41    7.95
  -9  -2  -3   35.75    6.53
  -9  -2  -3   33.63    6.29
  -9  -2  -2    6.82    3.91
  -9  -2  -2    3.20    3.28
  -9  -2  -1  119.23   11.92
  -9  -2  -1  114.19   12.55
  -9  -2   0  330.35   20.00
  -9  -2   0  310.91   19.31
  -9  -2   1  326.15   19.39
  -9  -2   1  275.16   18.26
  -9  -2   2  344.17   19.92
  -9  -2   2  289.67   18.94
  -9  -1  -5   12.36    4.62
  -9  -1  -5   11.10    4.04
  -9  -1  -4  132.13   11.52
  -9  -1  -4  143.67   12.42
  -9  -1  -3  303.33   17.38
  -9  -1  -3  294.11   17.49
  -9  -1  -2  377.78   19.87
  -9  -1  -2  394.24   20.21
  -9  -1  -1  247.00   16.38
  -9  -1  -1  207.82   14.87
  -9  -1   0  186.15   14.43
  -9  -1   0  200.92   14.98
  -9  -1   1  126.29   12.31
  -9  -1   1  126.89   12.44
  -9  -1   2   45.81    8.35
  -9  -1   2   53.79    8.82
  -9  -1   3   45.60    8.30
  -9  -1   3   34.19    7.32
  -9   0  -4  146.55   12.29
  -9   0  -4  120.69   11.89
  -9   0  -3   41.45    7.13
  -9   0  -3   44.28    6.97
  -9   0  -2   52.18    7.64
  -9   0  -2   34.37    6.66
  -9   0  -1   -1.29    2.51
  -9   0  -1    0.24    2.40
  -9   0   0   29.06    6.18
  -9   0   0   22.32    5.28
  -9   0   1  193.58   14.87
  -9   0   1  205.86   15.43
  -9   0   2  420.60   21.98
  -9   0   2  411.83   22.09
  -9   0   3  419.57   23.17
  -9   0   3  418.99   22.75
  -9   0   4  213.08   16.88
  -9   0   4  254.74   20.05
  -9   1  -3  136.48   12.26
  -9   1  -3  132.92   12.15
  -9   1  -2  267.34   17.01
  -9   1  -2  264.75   17.20
  -9   1  -1  128.06   11.97
  -9   1  -1  138.92   12.60
  -9   1   0  204.23   15.19
  -9   1   0  209.09   15.03
  -9   1   1  608.16   25.79
  -9   1   1  597.03   26.34
  -9   1   2  217.17   15.69
  -9   1   2  198.44   15.24
  -9   1   3    7.74    3.46
  -9   1   3   15.90    4.91
  -9   1   4   -2.54    3.12
  -9   1   4    2.11    3.17
  -9   2  -2  244.07   16.70
  -9   2  -2  263.72   17.46
  -9   2  -1   31.36    6.63
  -9   2  -1   35.64    6.97
  -9   2   0    8.45    3.78
  -9   2   0    1.27    3.33
  -9   2   1   30.94    6.66
  -9   2   1   40.45    7.13
  -9   2   2  153.87   13.39
  -9   2   2  140.00   13.05
  -9   2   3  201.40   15.56
  -9   2   3  193.84   14.74
  -9   2   4  384.70   21.69
  -9   2   4  372.68   20.98
  -9   3  -1  240.18   17.20
  -9   3  -1  271.46   17.89
  -9   3   0  268.53   17.99
  -9   3   0  290.43   18.94
  -9   3   1  684.80   28.48
  -9   3   1  605.17   27.21
  -9   3   2  213.10   16.30
  -9   3   2  254.82   17.60
  -9   3   3  127.03   12.52
  -9   3   3  107.85   11.76
  -8  -6  -6  139.89   12.92
  -8  -6  -5  196.72   14.77
  -8  -6  -4  401.11   21.08
  -8  -6  -4  348.98   17.67
  -8  -6  -3  125.28   11.10
  -8  -6  -3   90.54    9.99
  -8  -6  -2   31.15    5.87
  -8  -6  -2   22.46    5.39
  -8  -6  -1  131.73   11.89
  -8  -6  -1  118.26   11.02
  -8  -6   0  129.72   11.92
  -8  -6   0  130.88   11.28
  -8  -5  -7   57.30    8.64
  -8  -5  -6   -2.38    3.38
  -8  -5  -5    2.59    2.40
  -8  -5  -5    3.75    2.67
  -8  -5  -5    4.31    3.01
  -8  -5  -4   21.06    4.65
  -8  -5  -4   15.88    4.89
  -8  -5  -4   17.36    4.25
  -8  -5  -3  261.00   16.14
  -8  -5  -3  225.60   14.58
  -8  -5  -3  267.61   16.78
  -8  -5  -2  280.05   16.94
  -8  -5  -2  275.11   16.27
  -8  -5  -2  310.22   18.10
  -8  -5  -1  434.37   20.71
  -8  -5  -1  495.05   22.56
  -8  -5  -1  492.07   22.93
  -8  -5   0  166.87   13.16
  -8  -5   0  176.75   13.37
  -8  -5   0  171.54   14.00
  -8  -5   1  326.55   18.84
  -8  -5   1  333.55   17.62
  -8  -5   2  188.03   12.95
  -8  -5   2  231.54   16.14
  -8  -4  -7   56.43    8.40
  -8  -4  -6  260.13   17.09
  -8  -4  -5  429.96   19.08
  -8  -4  -5  425.02   18.23
  -8  -4  -5  470.40   22.27
  -8  -4  -4  466.55   21.74
  -8  -4  -4  454.90   19.81
  -8  -4  -4  479.18   19.87
  -8  -4  -3  138.76   10.91
  -8  -4  -3  121.00   10.57
  -8  -4  -3  157.12   12.60
  -8  -4  -2  119.87   10.38
  -8  -4  -2  137.07   11.52
  -8  -4  -2  133.13   11.15
  -8  -4  -1   40.90    6.50
  -8  -4  -1   44.62    6.53
  -8  -4  -1   42.40    7.00
  -8  -4   0   -3.14    2.77
  -8  -4   0    7.00    3.57
  -8  -4   0    6.02    2.99
  -8  -4   1    2.35    2.11
  -8  -4   1    4.76    3.30
  -8  -4   1    5.84    3.51
  -8  -4   2  219.31   16.01
  -8  -4   2  263.59   15.06
  -8  -4   2  239.18   16.20
  -8  -4   3  391.99   21.11
  -8  -4   3  405.23   22.32
  -8  -3  -7   91.47   10.33
  -8  -3  -6  130.83   11.99
  -8  -3  -5  135.59   10.73
  -8  -3  -5  126.29   11.57
  -8  -3  -5  127.21   10.70
  -8  -3  -4    6.79    3.43
  -8  -3  -4    9.43    3.54
  -8  -3  -4    1.22    2.06
  -8  -3  -3  122.03   10.73
  -8  -3  -3  131.81   11.12
  -8  -3  -3  113.21   10.57
  -8  -3  -2  176.80   13.47
  -8  -3  -2  170.54   12.63
  -8  -3  -2  192.79   13.39
  -8  -3  -1  359.71   18.63
  -8  -3  -1  320.45   17.30
  -8  -3   0  326.73   17.99
  -8  -3   0  319.73   17.23
  -8  -3   1  551.78   24.04
  -8  -3   1  564.06   23.46
  -8  -3   2  616.35   25.94
  -8  -3   2  621.87   23.78
  -8  -3   2  654.89   25.94
  -8  -3   3  169.88   14.13
  -8  -3   3  154.64   12.07
  -8  -3   3  167.00   12.23
  -8  -3   3  154.05   13.24
  -8  -3   4   24.23    5.76
  -8  -3   4   19.21    5.02
  -8  -3   4   22.93    5.94
  -8  -2  -7    2.54    3.22
  -8  -2  -6   47.87    7.27
  -8  -2  -5  339.28   16.35
  -8  -2  -5  341.87   16.75
  -8  -2  -5  377.30   20.37
  -8  -2  -4  482.85   19.81
  -8  -2  -4  483.06   20.21
  -8  -2  -3  392.65   18.47
  -8  -2  -3  408.32   18.49
  -8  -2  -2  336.56   17.44
  -8  -2  -2  340.84   17.57
  -8  -2  -1  341.66   17.78
  -8  -2  -1  360.63   19.18
  -8  -2   0  246.63   17.09
  -8  -2   0  184.12   13.61
  -8  -2   1   16.04    4.46
  -8  -2   1   19.95    4.89
  -8  -2   2  133.68   11.52
  -8  -2   2  142.11   10.44
  -8  -2   2  109.30   10.83
  -8  -2   3  261.50   16.38
  -8  -2   3  253.63   14.45
  -8  -2   3  272.26   17.23
  -8  -2   4  334.55   18.89
  -8  -2   4  342.72   18.04
  -8  -2   4  343.54   19.71
  -8  -2   5  456.80   23.46
  -8  -2   5  445.04   22.43
  -8  -2   5  481.63   22.54
  -8  -1  -7  123.30   11.60
  -8  -1  -6  192.65   14.74
  -8  -1  -6  172.65   11.76
  -8  -1  -6  165.49   11.70
  -8  -1  -5  264.59   14.45
  -8  -1  -5  253.13   14.50
  -8  -1  -4  162.09   11.76
  -8  -1  -4  179.84   12.02
  -8  -1  -3   23.94    4.68
  -8  -1  -3   26.05    5.10
  -8  -1  -2   28.24    5.07
  -8  -1  -2   29.72    5.28
  -8  -1  -1  186.18   13.10
  -8  -1  -1  185.81   12.76
  -8  -1   0  469.51   20.87
  -8  -1   0  425.15   19.60
  -8  -1   1  653.73   25.15
  -8  -1   1  705.70   26.05
  -8  -1   2  674.97   26.23
  -8  -1   2  619.15   20.13
  -8  -1   3  604.86   21.51
  -8  -1   3  564.33   24.83
  -8  -1   4  191.15   12.84
  -8  -1   4  186.34   14.32
  -8  -1   4  169.77   13.45
  -8  -1   5   31.92    6.08
  -8  -1   5   36.46    6.34
  -8  -1   5   37.44    7.24
  -8  -1   6   13.39    5.02
  -8  -1   6   22.93    5.63
  -8  -1   6   16.14    5.05
  -8   0  -7   19.63    5.60
  -8   0  -7   20.50    6.24
  -8   0  -6    5.10    3.14
  -8   0  -6    4.94    4.39
  -8   0  -6    6.60    3.38
  -8   0  -5  164.86   11.97
  -8   0  -5  164.97   14.72
  -8   0  -5  144.12   11.28
  -8   0  -4  137.91   11.12
  -8   0  -4  161.87   11.78
  -8   0  -3  201.98   13.21
  -8   0  -3  215.37   13.82
  -8   0  -2  639.91   23.70
  -8   0  -2  634.52   23.88
  -8   0  -1  844.91   27.21
  -8   0  -1  809.74   27.16
  -8   0   0  424.04   19.89
  -8   0   0  425.52   19.39
  -8   0   1  151.62   11.65
  -8   0   1  162.11   12.55
  -8   0   2   19.66    4.52
  -8   0   2   32.92    6.10
  -8   0   3   50.67    7.34
  -8   0   3   62.56    6.76
  -8   0   3   57.75    7.61
  -8   0   4  421.11   21.45
  -8   0   4  426.02   18.41
  -8   0   5  278.65   18.26
  -8   0   5  240.98   14.61
  -8   0   5  259.28   17.33
  -8   0   6  362.74   19.08
  -8   0   6  375.35   20.90
  -8   0   6  388.71   20.61
  -8   1  -6  256.59   21.08
  -8   1  -6  288.16   16.38
  -8   1  -6  268.03   15.56
  -8   1  -5  395.72   24.20
  -8   1  -5  373.52   18.55
  -8   1  -5  400.58   18.97
  -8   1  -4  372.47   18.34
  -8   1  -4  332.44   20.74
  -8   1  -4  354.45   18.07
  -8   1  -3  132.63   12.50
  -8   1  -3  106.37    9.88
  -8   1  -3  146.52   11.65
  -8   1  -2   26.84    5.18
  -8   1  -2   19.95    4.76
  -8   1  -1    3.51    2.46
  -8   1  -1    7.93    3.67
  -8   1   0  102.88    9.70
  -8   1   0  105.97   10.04
  -8   1   1  442.72   20.50
  -8   1   1  403.22   19.31
  -8   1   2  336.35   17.81
  -8   1   2  376.01   19.10
  -8   1   3  734.10   21.80
  -8   1   3  699.60   26.50
  -8   1   3  663.61   25.26
  -8   1   4  833.94   28.82
  -8   1   4  881.87   25.84
  -8   1   4  866.12   29.88
  -8   1   5  353.34   19.50
  -8   1   5  372.18   17.94
  -8   1   5  325.31   19.02
  -8   1   6  113.05   11.73
  -8   1   6  126.58   13.55
  -8   1   7   11.92    4.44
  -8   1   7   11.02    4.41
  -8   1   7   13.26    4.91
  -8   2  -5   63.80    7.95
  -8   2  -5   66.34    8.38
  -8   2  -5   47.61    9.59
  -8   2  -4   49.67    9.14
  -8   2  -4   33.98    6.24
  -8   2  -4   51.65    7.16
  -8   2  -3  312.04   17.25
  -8   2  -3  280.55   16.46
  -8   2  -3  306.73   20.34
  -8   2  -2  552.12   25.44
  -8   2  -2  528.48   22.46
  -8   2  -2  532.09   22.62
  -8   2  -1  658.83   24.94
  -8   2  -1  662.16   24.99
  -8   2  -1  629.21   24.65
  -8   2   0  420.00   20.32
  -8   2   0  391.07   19.34
  -8   2   1  435.42   20.50
  -8   2   1  375.11   19.37
  -8   2   2  266.97   16.12
  -8   2   2  263.54   16.17
  -8   2   3   30.09    5.71
  -8   2   3   28.93    5.76
  -8   2   4   93.84    9.64
  -8   2   4   91.20    9.85
  -8   2   4   75.30    7.45
  -8   2   5    5.79    2.88
  -8   2   5    3.49    3.17
  -8   2   5    4.04    3.20
  -8   2   6  131.49   12.29
  -8   2   6  127.05   11.81
  -8   2   6  131.68   11.28
  -8   2   7  844.43   31.36
  -8   2   7  830.48   29.30
  -8   3  -4  356.96   25.05
  -8   3  -4  325.31   18.39
  -8   3  -4  386.50   19.95
  -8   3  -3  399.73   20.42
  -8   3  -3  424.17   20.87
  -8   3  -3  392.97   24.94
  -8   3  -2  245.12   15.75
  -8   3  -2  257.22   16.33
  -8   3  -2  283.27   19.58
  -8   3  -1   16.78    5.02
  -8   3  -1   29.62    5.84
  -8   3  -1   20.40    5.02
  -8   3   0    1.00    2.11
  -8   3   0    0.82    2.11
  -8   3   0   -0.13    2.32
  -8   3   1    8.14    3.25
  -8   3   1   12.21    3.86
  -8   3   2  351.62   18.86
  -8   3   2  323.25   18.36
  -8   3   3  777.06   28.37
  -8   3   3  705.14   26.87
  -8   3   4  686.94   26.95
  -8   3   4  610.11   24.97
  -8   3   5  288.72   17.75
  -8   3   5  249.48   16.20
  -8   3   5  269.75   14.64
  -8   3   6  335.24   19.00
  -8   3   6  342.77   17.62
  -8   3   6  363.40   20.21
  -8   3   7  167.03   13.82
  -8   3   7  142.40   12.21
  -8   3   7  154.27   13.37
  -8   4  -3  162.69   13.50
  -8   4  -3  132.94   15.98
  -8   4  -3  139.81   12.39
  -8   4  -2   28.48    7.85
  -8   4  -2   31.41    5.89
  -8   4  -2   39.87    7.05
  -8   4  -1  256.14   16.83
  -8   4  -1  280.29   17.38
  -8   4  -1  269.43   19.13
  -8   4   0  388.58   20.34
  -8   4   0  362.74   19.81
  -8   4   1  474.90   22.59
  -8   4   1  506.94   23.01
  -8   4   2  626.31   25.84
  -8   4   2  605.46   25.05
  -8   4   3  343.80   19.26
  -8   4   3  384.46   20.29
  -8   4   4   54.85    7.95
  -8   4   4   47.34    7.56
  -8   4   5    1.00    2.32
  -8   4   5    5.10    3.43
  -8   4   6   46.45    7.79
  -8   4   6   57.25    8.03
  -8   4   6   33.29    5.92
  -8   4   7  336.17   18.23
  -8   4   7  313.95   18.65
  -8   4   7  371.28   20.82
  -8   5  -2  185.68   14.95
  -8   5  -2  190.80   14.98
  -8   5  -1  177.73   17.07
  -8   5  -1  181.90   14.69
  -8   5  -1  192.76   14.93
  -8   5   0   66.53    8.69
  -8   5   0   66.37    8.74
  -8   5   1   70.65    8.98
  -8   5   1   72.34    9.19
  -8   5   2   74.72    9.14
  -8   5   2   58.41    8.30
  -8   5   3  229.32   16.38
  -8   5   3  195.90   14.64
  -8   5   4  193.23   14.74
  -8   5   4  171.73   14.08
  -8   5   5  450.14   22.96
  -8   5   5  433.44   22.38
  -8   5   6  786.54   30.17
  -8   5   6  761.74   29.96
  -8   6   1  296.43   19.08
  -8   6   1  332.76   19.92
  -8   6   2  666.60   28.27
  -8   6   2  573.28   25.94
  -8   6   3  337.70   20.05
  -8   6   3  345.97   20.40
  -8   6   4  215.32   16.04
  -8   6   4  236.27   16.99
  -7  -8  -6  207.45   15.48
  -7  -8  -5   96.38   10.49
  -7  -8  -4   93.31    9.96
  -7  -8  -4   99.29    9.62
  -7  -8  -3  276.19   16.59
  -7  -8  -3  280.90   16.35
  -7  -8  -2  344.88   18.76
  -7  -8  -2  322.14   17.78
  -7  -7  -8  288.40   18.18
  -7  -7  -7  224.01   15.98
  -7  -7  -6  176.25   13.95
  -7  -7  -5  200.82   14.48
  -7  -7  -5  226.81   13.47
  -7  -7  -4   42.77    6.39
  -7  -7  -4   57.86    7.58
  -7  -7  -3    4.02    3.28
  -7  -7  -3   -0.26    2.03
  -7  -7  -2   22.09    5.20
  -7  -7  -2   29.04    5.63
  -7  -7  -1  156.64   12.66
  -7  -7  -1  120.82   10.44
  -7  -7   0  358.49   17.33
  -7  -7   0  402.16   20.87
  -7  -7   1  303.91   18.39
  -7  -6  -9   69.88    9.11
  -7  -6  -8   18.73    5.10
  -7  -6  -7    7.40    3.22
  -7  -6  -6    9.67    3.43
  -7  -6  -5   94.72    9.59
  -7  -6  -5   90.67    8.01
  -7  -6  -4  235.14   14.85
  -7  -6  -4  219.58   12.87
  -7  -6  -3  451.04   20.05
  -7  -6  -3  465.41   19.05
  -7  -6  -2  523.51   21.14
  -7  -6  -2  493.07   20.21
  -7  -6  -1  645.70   23.80
  -7  -6  -1  641.26   23.12
  -7  -6   0  234.03   13.98
  -7  -6   0  240.53   15.19
  -7  -6   1    8.80    3.04
  -7  -6   1   17.17    4.76
  -7  -6   2    4.36    3.25
  -7  -5  -9   65.92    8.80
  -7  -5  -8  246.05   16.30
  -7  -5  -7  268.50   16.59
  -7  -5  -6  275.59   16.46
  -7  -5  -5  307.26   14.50
  -7  -5  -5  302.03   14.93
  -7  -5  -5  331.81   17.70
  -7  -5  -4  517.88   20.21
  -7  -5  -4  529.61   22.17
  -7  -5  -4  507.05   19.10
  -7  -5  -3  196.03   12.21
  -7  -5  -3  208.14   13.13
  -7  -5  -3  216.03   14.03
  -7  -5  -2    4.23    2.69
  -7  -5  -2    5.79    3.04
  -7  -5  -2    3.70    2.40
  -7  -5  -1   13.74    3.65
  -7  -5  -1    7.05    3.36
  -7  -5  -1   19.34    4.46
  -7  -5   0  437.54   20.74
  -7  -5   0  492.17   20.18
  -7  -5   0  449.59   20.05
  -7  -5   1  365.28   16.96
  -7  -5   1  363.40   18.44
  -7  -5   2  394.98   19.47
  -7  -5   2  469.16   18.49
  -7  -5   3  521.90   23.12
  -7  -5   4  304.49   18.23
  -7  -4  -9  167.74   13.45
  -7  -4  -8  177.67   13.42
  -7  -4  -7  188.53   13.87
  -7  -4  -6   33.66    4.78
  -7  -4  -6   26.37    4.07
  -7  -4  -6   30.99    5.76
  -7  -4  -5    9.70    3.09
  -7  -4  -5   12.55    3.65
  -7  -4  -5    6.29    2.40
  -7  -4  -4   42.06    6.21
  -7  -4  -4   56.46    6.34
  -7  -4  -4   50.25    6.18
  -7  -4  -3  531.30   20.98
  -7  -4  -3  519.07   19.79
  -7  -4  -3  498.67   18.78
  -7  -4  -2  506.05   20.16
  -7  -4  -2  526.31   19.87
  -7  -4  -2  497.12   19.92
  -7  -4  -1 1104.43   30.59
  -7  -4  -1 1050.80   28.80
  -7  -4  -1 1031.17   28.16
  -7  -4   0  882.77   27.34
  -7  -4   0  899.57   28.27
  -7  -4   0  903.87   25.89
  -7  -4   1  121.77    9.54
  -7  -4   1  134.74   11.28
  -7  -4   1  128.90   10.75
  -7  -4   2  203.01   14.32
  -7  -4   2  203.09   13.79
  -7  -4   2  192.36   11.73
  -7  -4   3    5.13    2.69
  -7  -4   3    5.87    2.88
  -7  -4   3    6.16    3.06
  -7  -4   3    5.18    2.91
  -7  -4   4    0.90    2.56
  -7  -4   4    2.62    2.88
  -7  -4   5  102.96   10.54
  -7  -4   5  115.67   11.65
  -7  -3  -9    9.43    4.12
  -7  -3  -8   57.62    8.03
  -7  -3  -7  243.17   15.30
  -7  -3  -6  530.09   18.76
  -7  -3  -6  474.08   20.74
  -7  -3  -5  427.10   17.17
  -7  -3  -5  385.91   18.31
  -7  -3  -4  684.88   22.19
  -7  -3  -4  673.55   23.80
  -7  -3  -3  848.84   27.13
  -7  -3  -3  863.14   25.36
  -7  -3  -2  251.99   14.53
  -7  -3  -2  226.55   13.16
  -7  -3  -2  246.02   13.90
  -7  -3  -1   77.04    7.71
  -7  -3  -1   80.71    8.06
  -7  -3   0  215.35   12.97
  -7  -3   0  211.02   13.26
  -7  -3   1   48.30    6.60
  -7  -3   1   44.15    6.13
  -7  -3   2  155.11   10.86
  -7  -3   2  150.94   11.47
  -7  -3   2  158.89   12.13
  -7  -3   3 1176.18   33.18
  -7  -3   3 1295.81   30.78
  -7  -3   3 1156.05   33.92
  -7  -3   3 1280.59   32.79
  -7  -3   4  709.03   27.19
  -7  -3   4  823.08   28.43
  -7  -3   4  740.02   22.38
  -7  -3   4  811.35   27.40
  -7  -3   5  559.25   25.10
  -7  -3   5  588.74   24.39
  -7  -3   5  555.11   23.80
  -7  -3   6  170.67   14.11
  -7  -3   6  189.77   14.29
  -7  -2  -9  107.58   10.70
  -7  -2  -8  325.68   17.60
  -7  -2  -7  475.16   20.98
  -7  -2  -6  328.77   17.15
  -7  -2  -6  319.65   13.92
  -7  -2  -6  294.66   13.66
  -7  -2  -5   52.81    5.89
  -7  -2  -5   39.63    5.13
  -7  -2  -4   17.25    3.73
  -7  -2  -4   21.61    4.04
  -7  -2  -3  284.88   14.13
  -7  -2  -3  207.98   11.97
  -7  -2  -2  585.73   20.66
  -7  -2  -2  543.93   19.87
  -7  -2  -1  777.96   24.31
  -7  -2  -1  742.32   23.91
  -7  -2   0 1225.75   32.42
  -7  -2   0 1087.57   29.75
  -7  -2   1  287.76   15.83
  -7  -2   1  297.75   13.26
  -7  -2   1  324.83   16.96
  -7  -2   2  879.86   27.71
  -7  -2   2  886.12   27.42
  -7  -2   2  848.55   23.72
  -7  -2   3  422.24   18.97
  -7  -2   3  459.18   18.65
  -7  -2   3  432.89   19.89
  -7  -2   4  118.62   10.65
  -7  -2   4  128.98   10.46
  -7  -2   4  147.58   11.52
  -7  -2   5    1.77    2.91
  -7  -2   5    5.02    2.77
  -7  -2   5    7.90    3.28
  -7  -2   6  494.10   23.41
  -7  -2   6  492.04   22.46
  -7  -2   6  486.57   26.92
  -7  -2   6  451.17   21.37
  -7  -2   7  342.93   19.18
  -7  -2   7  311.52   19.13
  -7  -2   7  296.01   18.47
  -7  -1  -9   90.41    9.75
  -7  -1  -9  100.42   13.10
  -7  -1  -8    5.50    2.99
  -7  -1  -8    1.00    3.33
  -7  -1  -7   81.56   10.41
  -7  -1  -7   72.21    8.16
  -7  -1  -6   60.90    6.34
  -7  -1  -6   52.65    8.11
  -7  -1  -6   63.35    6.58
  -7  -1  -5  319.23   14.40
  -7  -1  -5  317.46   14.64
  -7  -1  -4  868.82   24.23
  -7  -1  -4  859.49   23.96
  -7  -1  -3 1092.22   27.50
  -7  -1  -3 1119.62   27.45
  -7  -1  -2  556.32   20.03
  -7  -1  -2  552.36   19.58
  -7  -1  -1  708.29   22.93
  -7  -1  -1  674.34   21.85
  -7  -1   0   36.86    5.23
  -7  -1   0   35.67    5.52
  -7  -1   0   36.70    3.99
  -7  -1   1   19.52    4.17
  -7  -1   1   21.90    3.43
  -7  -1   1   17.36    3.88
  -7  -1   2   17.94    4.33
  -7  -1   2   25.15    4.12
  -7  -1   2   17.28    4.20
  -7  -1   3  670.22   24.68
  -7  -1   3  655.24   21.14
  -7  -1   4  636.93   22.03
  -7  -1   4  641.31   24.25
  -7  -1   4  656.32   24.73
  -7  -1   5  870.93   27.29
  -7  -1   5  927.65   28.74
  -7  -1   5  850.32   28.45
  -7  -1   6  746.57   27.79
  -7  -1   6  775.61   27.24
  -7  -1   6  809.82   27.85
  -7  -1   7  425.54   21.16
  -7  -1   7  429.45   21.85
  -7  -1   7  473.76   22.11
  -7  -1   8  132.42   12.79
  -7  -1   8  131.83   11.97
  -7  -1   8  110.28   14.53
  -7   0  -8  567.68   30.86
  -7   0  -8  506.52   21.58
  -7   0  -7  407.76   25.34
  -7   0  -6  312.78   21.03
  -7   0  -6  293.34   14.32
  -7   0  -6  321.11   15.24
  -7   0  -5  268.69   18.10
  -7   0  -5  255.22   13.37
  -7   0  -5  253.45   13.50
  -7   0  -4  228.66   12.76
  -7   0  -4  198.70   11.84
  -7   0  -4  229.96   15.72
  -7   0  -3    1.80    1.53
  -7   0  -3    4.99    3.36
  -7   0  -3    8.59    2.83
  -7   0  -2  223.17   12.68
  -7   0  -2  247.13   13.50
  -7   0  -1  159.89   10.73
  -7   0  -1  144.60   10.46
  -7   0   0  311.60   15.19
  -7   0   0  314.98   10.38
  -7   0   0  301.37   15.11
  -7   0   1  889.37   25.86
  -7   0   1  866.41   26.05
  -7   0   1  869.63   19.55
  -7   0   2 2701.14   45.55
  -7   0   2 2557.04   36.59
  -7   0   2 2596.57   45.57
  -7   0   3 1088.87   30.12
  -7   0   3 1105.83   29.85
  -7   0   4  110.65   10.09
  -7   0   4   89.40    9.11
  -7   0   5   69.25    8.98
  -7   0   5   63.80    7.90
  -7   0   5   50.65    6.68
  -7   0   6    1.43    2.06
  -7   0   6    6.87    3.57
  -7   0   6    5.84    3.12
  -7   0   7   99.63   10.09
  -7   0   7   90.96    9.83
  -7   0   7   84.70    9.11
  -7   0   8  229.59   15.43
  -7   0   8  257.04   16.88
  -7   0   8  238.65   16.62
  -7   1  -8  220.50   14.61
  -7   1  -8  268.40   23.12
  -7   1  -7    5.68    5.44
  -7   1  -6    3.17    4.15
  -7   1  -6    4.07    2.43
  -7   1  -6   10.46    3.33
  -7   1  -5  120.32   13.21
  -7   1  -5  124.52    9.85
  -7   1  -5  114.66    9.27
  -7   1  -4  503.83   25.26
  -7   1  -4  502.80   19.50
  -7   1  -4  499.55   19.15
  -7   1  -3  846.25   24.99
  -7   1  -3  834.26   25.20
  -7   1  -3  871.99   31.07
  -7   1  -2  807.39   24.73
  -7   1  -2  794.15   24.23
  -7   1  -2  818.88   27.34
  -7   1  -1  812.83   24.91
  -7   1  -1  756.06   24.25
  -7   1   0  464.01   18.73
  -7   1   0  457.67   18.97
  -7   1   1  117.25    6.90
  -7   1   1  111.47    9.46
  -7   1   1  111.91    9.25
  -7   1   2  167.74    9.17
  -7   1   2  171.04   11.70
  -7   1   2  179.05   11.86
  -7   1   3    5.07    2.30
  -7   1   3   -0.32    1.56
  -7   1   3    2.09    1.90
  -7   1   4  682.05   24.23
  -7   1   4  606.49   20.34
  -7   1   4  643.14   22.85
  -7   1   5 1486.25   36.04
  -7   1   5 1479.98   33.74
  -7   1   5 1463.79   36.17
  -7   1   6  770.75   25.76
  -7   1   6  862.58   29.72
  -7   1   6  804.99   28.08
  -7   1   7  452.04   21.43
  -7   1   7  486.10   22.17
  -7   1   7  466.86   21.24
  -7   1   8  300.82   17.78
  -7   1   8  313.29   18.34
  -7   1   8  295.72   17.04
  -7   2  -7  160.21   18.26
  -7   2  -6  256.72   21.58
  -7   2  -6  246.95   14.19
  -7   2  -6  256.99   14.53
  -7   2  -5  667.39   23.30
  -7   2  -5  675.13   33.34
  -7   2  -5  686.99   23.57
  -7   2  -4  333.23   16.25
  -7   2  -4  345.17   22.64
  -7   2  -4  347.55   16.62
  -7   2  -3  207.53   12.95
  -7   2  -3  199.79   12.68
  -7   2  -2   89.48   10.15
  -7   2  -2   81.98    8.14
  -7   2  -2   86.23    8.30
  -7   2  -1    5.36    2.48
  -7   2  -1   10.30    3.46
  -7   2  -1    7.21    3.22
  -7   2   0  317.28   15.90
  -7   2   0  325.31   15.88
  -7   2   0  350.14   16.57
  -7   2   1  855.50   17.73
  -7   2   1  889.82   26.92
  -7   2   2 1157.72   31.04
  -7   2   2 1188.65   23.36
  -7   2   2 1206.99   31.33
  -7   2   3  821.26   21.29
  -7   2   3  848.37   26.68
  -7   2   3  844.30   26.08
  -7   2   4  686.10   20.87
  -7   2   4  632.12   22.72
  -7   2   4  667.23   23.99
  -7   2   5  543.11   21.51
  -7   2   5  521.53   19.55
  -7   2   5  525.33   21.56
  -7   2   6  324.25   16.96
  -7   2   6  356.77   17.12
  -7   2   6  334.08   17.57
  -7   2   7    4.20    2.93
  -7   2   7    1.00    1.85
  -7   2   7    8.16    3.88
  -7   2   8  190.59   14.53
  -7   2   8  169.11   13.32
  -7   2   8  184.20   14.03
  -7   2   9   69.09    8.96
  -7   2   9   69.22    8.61
  -7   2   9   71.44    9.27
  -7   3  -6   10.12    6.26
  -7   3  -6   11.97    4.02
  -7   3  -6    4.54    2.62
  -7   3  -5    9.17    3.78
  -7   3  -5    4.73    5.23
  -7   3  -5    9.48    3.36
  -7   3  -4   57.83   10.73
  -7   3  -4   69.75    8.01
  -7   3  -4   71.49    8.11
  -7   3  -3  303.56   21.95
  -7   3  -3  317.80   16.67
  -7   3  -3  279.81   15.43
  -7   3  -2  470.62   25.10
  -7   3  -2  461.50   19.84
  -7   3  -2  488.85   20.29
  -7   3  -1  672.20   23.49
  -7   3  -1  717.69   28.51
  -7   3  -1  675.69   23.88
  -7   3   0 1244.90   32.18
  -7   3   0 1325.22   33.32
  -7   3   0 1274.60   34.85
  -7   3   1  957.45   26.60
  -7   3   1 1003.53   28.88
  -7   3   2  131.52   10.67
  -7   3   2  105.49    9.51
  -7   3   3   11.70    3.51
  -7   3   3   20.26    4.76
  -7   3   3   19.52    3.59
  -7   3   4   68.30    7.85
  -7   3   4   66.29    6.60
  -7   3   4   78.49    8.43
  -7   3   5  431.73   19.71
  -7   3   5  424.62   17.49
  -7   3   5  420.92   19.15
  -7   3   6  287.71   16.41
  -7   3   6  307.13   16.57
  -7   3   6  315.35   16.06
  -7   3   7  634.34   24.20
  -7   3   7  601.50   24.17
  -7   3   7  631.91   24.02
  -7   3   8  439.18   21.11
  -7   3   8  458.23   21.40
  -7   3   8  447.39   21.51
  -7   3   9  683.35   27.71
  -7   3   9  658.04   26.95
  -7   4  -5  305.25   17.73
  -7   4  -5  339.60   18.60
  -7   4  -5  301.74   26.10
  -7   4  -4  407.76   19.92
  -7   4  -4  409.43   20.16
  -7   4  -4  427.00   29.35
  -7   4  -3  487.00   21.61
  -7   4  -3  487.68   29.78
  -7   4  -3  452.94   20.63
  -7   4  -2  321.32   17.36
  -7   4  -2  307.10   22.22
  -7   4  -2  335.14   17.81
  -7   4  -1   19.34    5.87
  -7   4  -1   27.98    5.10
  -7   4   0   22.40    5.07
  -7   4   0   18.20    4.31
  -7   4   0   26.37    5.97
  -7   4   1   93.08    9.64
  -7   4   1   84.46    8.77
  -7   4   1   69.14    7.93
  -7   4   2  346.60   17.75
  -7   4   2  336.54   17.23
  -7   4   3  817.32   26.55
  -7   4   3  879.20   21.98
  -7   4   3  849.71   27.61
  -7   4   4 1504.82   30.96
  -7   4   4 1463.58   36.43
  -7   4   4 1556.44   37.15
  -7   4   5  467.02   18.41
  -7   4   5  503.69   21.43
  -7   4   5  503.61   21.77
  -7   4   6  330.86   17.81
  -7   4   6  344.94   17.94
  -7   4   6  310.46   16.04
  -7   4   7  243.54   15.48
  -7   4   7  217.09   14.35
  -7   4   7  248.77   15.14
  -7   4   8    3.20    3.12
  -7   4   8    1.64    3.04
  -7   4   8    2.38    2.72
  -7   4   9    8.80    3.73
  -7   4   9    1.93    3.04
  -7   4   9    5.97    3.67
  -7   5  -4    8.82    3.91
  -7   5  -4   11.31    4.04
  -7   5  -4   11.41    6.71
  -7   5  -3   32.18    6.10
  -7   5  -3   39.66    6.60
  -7   5  -3   28.80    9.19
  -7   5  -2  216.33   14.93
  -7   5  -2  206.92   19.97
  -7   5  -2  244.78   15.88
  -7   5  -1  556.74   23.59
  -7   5  -1  526.60   22.91
  -7   5  -1  552.94   30.30
  -7   5   0  726.97   32.55
  -7   5   0  747.02   26.97
  -7   5   0  772.86   27.56
  -7   5   1  623.48   24.23
  -7   5   1  593.73   26.58
  -7   5   1  629.85   24.70
  -7   5   2  413.26   19.58
  -7   5   2  420.97   19.81
  -7   5   3  338.04   17.86
  -7   5   3  345.65   18.10
  -7   5   4  102.14    8.32
  -7   5   4  114.69   11.15
  -7   5   4  113.13   10.46
  -7   5   4  133.21   11.36
  -7   5   5   57.94    6.74
  -7   5   5   35.38    5.92
  -7   5   5   42.88    6.66
  -7   5   5   58.02    7.93
  -7   5   6   46.08    6.71
  -7   5   6   44.54    7.32
  -7   5   6   58.36    7.82
  -7   5   6   54.79    6.95
  -7   5   7  461.00   20.55
  -7   5   7  453.21   22.93
  -7   5   7  411.38   20.18
  -7   5   7  425.68   20.87
  -7   5   8  455.32   21.16
  -7   5   8  518.96   24.97
  -7   5   8  499.73   22.62
  -7   5   8  433.95   21.08
  -7   6  -2  304.57   26.66
  -7   6  -2  337.72   19.58
  -7   6  -2  324.51   19.23
  -7   6  -1  183.06   14.16
  -7   6  -1  144.62   17.57
  -7   6  -1  188.88   14.37
  -7   6   0   17.07    4.91
  -7   6   0   26.29    7.95
  -7   6   0   28.27    6.00
  -7   6   1    6.00    3.12
  -7   6   1   10.15    3.25
  -7   6   2   15.75    4.65
  -7   6   2   12.63    3.78
  -7   6   3  259.23   16.70
  -7   6   3  289.32   17.25
  -7   6   3  251.49   16.04
  -7   6   4  736.72   27.58
  -7   6   4  757.88   27.74
  -7   6   4  781.87   29.54
  -7   6   5  523.93   23.20
  -7   6   5  538.78   20.74
  -7   6   5  499.76   23.70
  -7   6   5  510.51   22.69
  -7   6   6  408.98   20.82
  -7   6   6  403.38   18.71
  -7   6   6  394.03   20.05
  -7   6   6  447.66   22.72
  -7   6   7  670.77   28.48
  -7   6   7  683.11   26.74
  -7   6   7  645.01   26.29
  -7   6   7  686.07   25.60
  -7   6   8  156.46   13.13
  -7   6   8  156.85   12.89
  -7   6   8  160.61   14.27
  -7   6   8  172.07   13.71
  -7   7   0  298.41   25.47
  -7   7   0  347.74   20.26
  -7   7   1  358.41   20.21
  -7   7   1  411.86   21.82
  -7   7   2  504.09   23.94
  -7   7   2  508.05   23.54
  -7   7   2  527.45   24.54
  -7   7   3  399.68   21.06
  -7   7   3  441.40   22.69
  -7   7   3  447.58   22.11
  -7   7   4  254.71   17.38
  -7   7   4  292.81   17.97
  -7   7   4  235.59   16.22
  -7   7   5   46.37    7.77
  -7   7   5   37.38    6.79
  -7   7   5   47.56    7.74
  -7   7   6   14.21    4.68
  -7   7   6   23.70    5.36
  -7   7   6   16.06    4.76
  -7   7   6   21.19    5.89
  -7   7   7   42.40    7.58
  -7   7   7   44.52    7.00
  -7   7   7   44.07    7.48
  -6  -9  -6  267.24   17.04
  -6  -9  -5  371.49   17.49
  -6  -9  -5  418.57   21.14
  -6  -9  -4  302.14   16.35
  -6  -9  -3  104.44   10.15
  -6  -9  -2  139.79   11.84
  -6  -8  -9  133.66   12.47
  -6  -8  -8  300.74   18.44
  -6  -8  -7  458.96   21.85
  -6  -8  -6   46.82    7.29
  -6  -8  -5   22.40    5.13
  -6  -8  -5   24.02    4.52
  -6  -8  -4   71.15    8.14
  -6  -8  -4   49.09    6.37
  -6  -8  -3  160.76   11.76
  -6  -8  -3  149.14   11.62
  -6  -8  -2  100.24    9.78
  -6  -8  -2  109.30    9.83
  -6  -8  -1  326.60   17.78
  -6  -8  -1  302.30   15.90
  -6  -8   0  633.52   25.42
  -6  -8   0  557.48   21.06
  -6  -8   1  439.04   21.80
  -6  -7 -10   88.22   10.30
  -6  -7  -9   21.27    5.31
  -6  -7  -8   43.04    7.03
  -6  -7  -7  104.62   10.04
  -6  -7  -6  390.67   19.10
  -6  -7  -6  373.87   15.09
  -6  -7  -5  334.13   17.30
  -6  -7  -5  326.44   14.87
  -6  -7  -4  732.96   25.05
  -6  -7  -4  799.33   24.46
  -6  -7  -3  414.10   18.04
  -6  -7  -3  397.70   18.07
  -6  -7  -2  458.44   19.76
  -6  -7  -2  440.29   18.63
  -6  -7  -1  183.30   12.79
  -6  -7  -1  167.90   11.41
  -6  -7   0    7.13    2.75
  -6  -7   0    0.32    2.11
  -6  -7   1    3.73    2.62
  -6  -7   1    7.98    2.91
  -6  -7   2   46.42    7.32
  -6  -7   3  280.23   17.81
  -6  -6 -10   89.06   10.07
  -6  -6  -9  148.64   12.47
  -6  -6  -8  309.03   17.23
  -6  -6  -7 1083.64   31.65
  -6  -6  -6  339.57   17.23
  -6  -6  -6  348.08   13.71
  -6  -6  -5  163.09   11.76
  -6  -6  -5  195.27   10.78
  -6  -6  -4   44.70    6.16
  -6  -6  -4   35.88    4.89
  -6  -6  -3    9.35    3.01
  -6  -6  -3    6.55    2.51
  -6  -6  -2   30.25    4.76
  -6  -6  -2   21.61    4.28
  -6  -6  -1  426.81   17.57
  -6  -6  -1  388.16   17.44
  -6  -6   0  708.18   22.11
  -6  -6   0  701.05   24.17
  -6  -6   1  677.64   24.54
  -6  -6   1  693.84   21.32
  -6  -6   2  543.22   18.49
  -6  -6   2  623.51   24.54
  -6  -6   3  404.33   20.48
  -6  -6   4  154.16   13.08
  -6  -5 -10  349.96   18.71
  -6  -5  -9  179.89   13.21
  -6  -5  -8  193.66   13.32
  -6  -5  -7    3.54    2.43
  -6  -5  -6  239.63   11.49
  -6  -5  -6  229.85   10.75
  -6  -5  -6  249.69   14.29
  -6  -5  -5  128.48   10.25
  -6  -5  -5  149.01    9.51
  -6  -5  -5  129.30    8.53
  -6  -5  -4  473.05   19.10
  -6  -5  -4  508.61   17.30
  -6  -5  -4  489.69   17.91
  -6  -5  -3  834.13   24.94
  -6  -5  -3  802.92   22.56
  -6  -5  -3  838.49   23.99
  -6  -5  -2 1196.26   29.33
  -6  -5  -2 1195.26   28.40
  -6  -5  -2 1202.60   29.75
  -6  -5  -1  885.51   24.86
  -6  -5  -1  859.44   24.86
  -6  -5  -1  853.57   26.05
  -6  -5   0  256.01   13.05
  -6  -5   0  268.27   14.40
  -6  -5   1   98.70    7.90
  -6  -5   1   98.23    9.01
  -6  -5   2    5.02    2.27
  -6  -5   2    5.65    2.46
  -6  -5   3  135.06    8.72
  -6  -5   3  129.69   10.83
  -6  -5   4  441.08   20.82
  -6  -5   5  530.11   23.83
  -6  -4 -11   24.39    5.18
  -6  -4 -10    1.22    2.77
  -6  -4  -9  153.66   11.92
  -6  -4  -8  378.75   18.15
  -6  -4  -7  738.09   24.99
  -6  -4  -6  528.05   20.87
  -6  -4  -6  536.45   16.49
  -6  -4  -6  550.80   16.17
  -6  -4  -5  594.16   17.97
  -6  -4  -5  635.34   22.22
  -6  -4  -5  614.79   17.78
  -6  -4  -4  509.66   19.26
  -6  -4  -4  521.16   17.36
  -6  -4  -4  488.71   16.27
  -6  -4  -3  141.69    9.96
  -6  -4  -3  140.39    9.09
  -6  -4  -3  145.39    9.54
  -6  -4  -2   62.17    6.39
  -6  -4  -2   65.89    6.68
  -6  -4  -2   68.88    6.90
  -6  -4  -1    3.01    1.72
  -6  -4  -1    5.10    2.19
  -6  -4  -1    5.73    2.46
  -6  -4   0  656.35   22.19
  -6  -4   0  658.49   21.72
  -6  -4   0  609.87   19.50
  -6  -4   1 1538.14   34.29
  -6  -4   1 1582.57   35.96
  -6  -4   2 1046.09   29.88
  -6  -4   2  992.38   23.91
  -6  -4   2  995.82   27.98
  -6  -4   3  701.18   24.33
  -6  -4   3  755.82   20.69
  -6  -4   3  705.86   24.20
  -6  -4   4  499.70   21.56
  -6  -4   4  471.25   20.05
  -6  -4   5  313.18   17.89
  -6  -4   5  315.16   17.20
  -6  -4   6   63.04    8.27
  -6  -4   6   71.07    9.25
  -6  -3 -10  397.62   18.78
  -6  -3  -9  577.99   22.32
  -6  -3  -8  369.77   17.62
  -6  -3  -7  162.24   11.52
  -6  -3  -6    9.22    2.59
  -6  -3  -6    9.59    2.67
  -6  -3  -6    4.83    2.38
  -6  -3  -5   68.16    6.24
  -6  -3  -5   56.93    6.58
  -6  -3  -5   52.55    5.55
  -6  -3  -4  248.27   11.99
  -6  -3  -4  249.19   13.26
  -6  -3  -3  745.62   21.37
  -6  -3  -3  716.74   22.40
  -6  -3  -2 1382.07   30.20
  -6  -3  -2 1333.94   30.65
  -6  -3  -1 1148.42   26.95
  -6  -3  -1 1214.57   28.22
  -6  -3   0 1618.19   32.60
  -6  -3   0 1627.33   33.61
  -6  -3   1  920.62   25.02
  -6  -3   1  868.05   25.20
  -6  -3   1  867.07   22.93
  -6  -3   2  281.58   14.74
  -6  -3   2  274.50   14.16
  -6  -3   2  255.90   13.10
  -6  -3   3   13.24    3.62
  -6  -3   3    5.60    2.56
  -6  -3   3   14.35    3.25
  -6  -3   3   14.58    3.65
  -6  -3   3   10.20    2.99
  -6  -3   4  243.19   11.52
  -6  -3   4  263.59   15.38
  -6  -3   4  250.01   14.35
  -6  -3   4  258.17   14.74
  -6  -3   4  239.55   15.75
  -6  -3   5  207.79   13.90
  -6  -3   5  191.41   12.92
  -6  -3   5  194.40   15.80
  -6  -3   6  527.97   27.90
  -6  -3   6  572.36   22.75
  -6  -3   7  706.86   26.29
  -6  -3   7  727.63   35.83
  -6  -2 -10    4.39    2.85
  -6  -2 -10   12.87    6.34
  -6  -2  -9    2.80    3.59
  -6  -2  -9    1.32    2.27
  -6  -2  -8  117.86   12.10
  -6  -2  -8   86.42    8.69
  -6  -2  -7  374.34   12.95
  -6  -2  -7  358.20   13.05
  -6  -2  -7  353.05   16.46
  -6  -2  -6  449.82   18.47
  -6  -2  -6  444.17   14.53
  -6  -2  -6  443.64   14.93
  -6  -2  -5  778.64   20.29
  -6  -2  -5  755.47   19.31
  -6  -2  -4 1479.67   27.58
  -6  -2  -4 1447.44   27.85
  -6  -2  -3 1677.61   30.81
  -6  -2  -3 1688.99   30.15
  -6  -2  -2  158.73    9.54
  -6  -2  -2  162.48    9.80
  -6  -2  -1   13.63    3.22
  -6  -2  -1   13.76    3.01
  -6  -2   0   37.23    4.07
  -6  -2   0   32.95    4.83
  -6  -2   0   44.12    5.50
  -6  -2   1  867.81   24.99
  -6  -2   1  815.53   20.48
  -6  -2   2  522.43   19.13
  -6  -2   2  543.88   18.07
  -6  -2   2  541.58   19.79
  -6  -2   3 1191.67   29.14
  -6  -2   3 1134.12   27.42
  -6  -2   3 1218.38   30.28
  -6  -2   4 1298.45   32.42
  -6  -2   4 1254.52   30.86
  -6  -2   4 1317.58   31.20
  -6  -2   5  981.81   33.69
  -6  -2   5 1014.34   28.85
  -6  -2   5  998.38   28.82
  -6  -2   5 1024.08   30.04
  -6  -2   6  604.35   23.04
  -6  -2   6  594.42   23.67
  -6  -2   6  620.02   23.96
  -6  -2   6  545.73   27.16
  -6  -2   7  103.72   13.02
  -6  -2   7   93.42    9.46
  -6  -2   7  100.40   10.33
  -6  -2   8    0.82    2.11
  -6  -2   8    2.30    5.52
  -6  -2   8   -1.08    2.48
  -6  -1 -10  301.48   22.59
  -6  -1  -9  415.85   19.08
  -6  -1  -9  396.19   24.91
  -6  -1  -8  382.24   23.41
  -6  -1  -8  364.30   16.88
  -6  -1  -7  426.86   14.77
  -6  -1  -7  418.78   17.78
  -6  -1  -7  410.75   14.37
  -6  -1  -7  420.00   23.36
  -6  -1  -6  441.26   15.30
  -6  -1  -6  418.09   21.58
  -6  -1  -6  441.34   15.11
  -6  -1  -5    3.94    2.06
  -6  -1  -5    5.89    3.09
  -6  -1  -5    2.72    1.43
  -6  -1  -4    2.83    1.98
  -6  -1  -4    5.10    2.01
  -6  -1  -4    4.49    2.56
  -6  -1  -3    5.44    2.14
  -6  -1  -3    3.46    1.80
  -6  -1  -2  684.38   19.50
  -6  -1  -2  719.02   20.42
  -6  -1  -1 2318.79   36.33
  -6  -1  -1 2344.23   37.54
  -6  -1   0 4094.30   49.27
  -6  -1   0 4145.51   38.89
  -6  -1   1  696.77   20.92
  -6  -1   1  714.92   21.58
  -6  -1   1  750.77   18.23
  -6  -1   2  197.54   11.65
  -6  -1   2  188.85    9.93
  -6  -1   2  215.82   12.29
  -6  -1   3  711.04   22.96
  -6  -1   3  689.29   20.26
  -6  -1   4   42.11    5.76
  -6  -1   4   27.61    4.81
  -6  -1   4   31.23    4.60
  -6  -1   5    3.36    2.22
  -6  -1   5    5.47    2.59
  -6  -1   5    1.82    1.53
  -6  -1   6  342.19   16.67
  -6  -1   6  348.72   17.44
  -6  -1   6  383.91   18.31
  -6  -1   7  775.18   27.40
  -6  -1   7  739.86   33.10
  -6  -1   7  781.76   26.37
  -6  -1   7  732.12   26.42
  -6  -1   8  587.10   23.14
  -6  -1   8  613.28   32.44
  -6  -1   8  638.75   26.34
  -6  -1   8  653.52   25.81
  -6  -1   9  584.04   33.79
  -6  -1   9  639.65   27.34
  -6   0  -9   60.42   10.73
  -6   0  -9   48.69    6.71
  -6   0  -8    3.88    4.97
  -6   0  -8   12.44    3.46
  -6   0  -7   37.23    4.83
  -6   0  -7   42.46    5.13
  -6   0  -6  325.78   13.71
  -6   0  -6  320.53   20.77
  -6   0  -6  336.93   13.87
  -6   0  -5  964.75   23.28
  -6   0  -5  964.77   33.47
  -6   0  -5  946.83   23.28
  -6   0  -4  991.61   23.83
  -6   0  -4  940.70   30.86
  -6   0  -4  953.12   23.04
  -6   0  -3 1590.26   30.49
  -6   0  -3 1630.89   30.33
  -6   0  -2  638.94   21.48
  -6   0  -2  671.75   19.97
  -6   0  -2  644.99   19.26
  -6   0  -1  474.71   16.80
  -6   0  -1  510.38   17.60
  -6   0  -1  490.01   10.01
  -6   0   0  867.02   16.12
  -6   0   0  827.92   22.30
  -6   0   0  839.20   22.72
  -6   0   1  222.80   11.70
  -6   0   1  241.95   12.42
  -6   0   1  232.18    9.48
  -6   0   2  347.68   12.84
  -6   0   2  344.73   15.03
  -6   0   2  326.52   14.43
  -6   0   3  947.89   25.07
  -6   0   3  937.06   25.42
  -6   0   3  958.59   23.01
  -6   0   4 1231.74   29.80
  -6   0   4 1167.15   29.35
  -6   0   4 1191.88   27.37
  -6   0   5 1220.04   29.54
  -6   0   5 1236.32   31.62
  -6   0   6 1597.37   35.59
  -6   0   6 1603.29   36.09
  -6   0   6 1617.82   36.46
  -6   0   7  314.03   16.99
  -6   0   7  299.92   16.14
  -6   0   7  300.02   15.69
  -6   0   8  131.31   11.68
  -6   0   8  138.78   11.52
  -6   0   8  112.15   10.04
  -6   0   9   40.13    9.91
  -6   0   9   42.64    6.66
  -6   0   9   37.99    6.21
  -6   0   9   32.42    6.60
  -6   1  -9  105.15   14.98
  -6   1  -8  476.96   19.34
  -6   1  -8  473.39   30.22
  -6   1  -7  552.52   18.63
  -6   1  -7  531.65   18.49
  -6   1  -7  520.29   29.75
  -6   1  -6  605.15   19.37
  -6   1  -6  625.49   31.36
  -6   1  -6  602.13   19.37
  -6   1  -5  607.15   19.26
  -6   1  -5  587.15   28.48
  -6   1  -5  528.82   18.04
  -6   1  -4  255.19   17.67
  -6   1  -4  258.04   12.60
  -6   1  -4  249.72   12.23
  -6   1  -3   35.98    4.78
  -6   1  -3   33.71    6.37
  -6   1  -3   27.21    4.23
  -6   1  -2  579.65   18.68
  -6   1  -2  531.17   21.88
  -6   1  -2  582.21   18.86
  -6   1  -1  734.63   10.12
  -6   1  -1  761.10   21.85
  -6   1  -1  756.45   23.94
  -6   1   0 1631.24   31.76
  -6   1   0 1654.86   32.23
  -6   1   0 1706.32   21.03
  -6   1   1 1028.89   25.50
  -6   1   1 1049.58   19.15
  -6   1   1 1068.23   26.23
  -6   1   2  486.68   17.73
  -6   1   2  469.82   17.60
  -6   1   3 2995.32   44.33
  -6   1   3 2906.76   44.44
  -6   1   3 2995.19   38.92
  -6   1   4  661.47   21.56
  -6   1   4  652.04   20.95
  -6   1   4  649.29   19.52
  -6   1   5   82.77    7.90
  -6   1   5   95.59    8.01
  -6   1   5  100.53    8.61
  -6   1   6   38.55    5.94
  -6   1   6   39.21    5.68
  -6   1   6   38.44    5.63
  -6   1   7  459.47   19.92
  -6   1   7  477.59   20.34
  -6   1   7  472.57   19.79
  -6   1   8  556.53   21.48
  -6   1   8  545.70   22.93
  -6   1   8  570.27   22.54
  -6   1   9  676.69   24.44
  -6   1   9  632.94   26.05
  -6   1   9  679.86   25.28
  -6   1  10  402.56   19.37
  -6   1  10  425.89   22.64
  -6   1  10  391.28   28.43
  -6   1  10  368.66   19.52
  -6   2  -8  190.67   20.34
  -6   2  -7    3.33    2.40
  -6   2  -7    8.85    3.17
  -6   2  -6   86.23    8.03
  -6   2  -6   84.12    7.79
  -6   2  -6   71.33   11.55
  -6   2  -5  211.68   11.99
  -6   2  -5  197.38   11.76
  -6   2  -4  231.65   18.63
  -6   2  -4  243.67   12.89
  -6   2  -4  222.22   12.29
  -6   2  -3 1338.80   41.08
  -6   2  -3 1287.01   29.17
  -6   2  -3 1316.82   29.48
  -6   2  -2 2380.35   39.29
  -6   2  -2 2418.87   39.55
  -6   2  -2 2325.89   50.49
  -6   2  -1  873.15   23.62
  -6   2  -1  905.20   28.56
  -6   2  -1  950.37   24.76
  -6   2   0  645.65   12.34
  -6   2   0  652.73   20.63
  -6   2   0  674.76   22.17
  -6   2   0  643.43   20.53
  -6   2   1   30.28    4.46
  -6   2   1   24.17    4.04
  -6   2   1   26.42    3.09
  -6   2   2   96.93    6.37
  -6   2   2  106.23    8.43
  -6   2   2   95.59    7.95
  -6   2   3   64.60    6.84
  -6   2   3   60.08    5.55
  -6   2   4 1086.07   27.74
  -6   2   4 1046.22   26.82
  -6   2   4 1101.52   25.10
  -6   2   5  896.50   25.71
  -6   2   5  915.50   24.46
  -6   2   5  914.55   25.39
  -6   2   6 1695.17   36.12
  -6   2   6 1813.38   36.35
  -6   2   6 1777.76   36.20
  -6   2   7 1026.73   28.67
  -6   2   7  988.13   28.40
  -6   2   7 1051.32   29.62
  -6   2   8  684.22   24.68
  -6   2   8  710.88   25.79
  -6   2   9  286.05   16.12
  -6   2   9  298.12   15.98
  -6   2   9  266.10   16.70
  -6   2  10    6.13    3.01
  -6   2  10   10.49    3.83
  -6   2  10    5.18    3.65
  -6   3  -7  494.74   20.18
  -6   3  -7  525.28   20.79
  -6   3  -7  569.53   35.90
  -6   3  -6  499.47   19.89
  -6   3  -6  539.49   33.90
  -6   3  -6  457.06   19.18
  -6   3  -5  660.10   22.35
  -6   3  -5  684.41   36.33
  -6   3  -5  610.48   21.58
  -6   3  -4  470.54   28.77
  -6   3  -4  448.40   18.28
  -6   3  -4  486.47   19.15
  -6   3  -3  197.57   12.23
  -6   3  -3  216.88   18.49
  -6   3  -3  223.83   12.79
  -6   3  -2    5.71    3.04
  -6   3  -2    9.85    2.93
  -6   3  -2   11.62    3.14
  -6   3  -1   37.83    6.82
  -6   3  -1   44.04    5.84
  -6   3  -1   26.18    4.44
  -6   3   0  421.42   19.87
  -6   3   0  399.23   16.57
  -6   3   0  368.03    9.62
  -6   3   0  404.17   16.70
  -6   3   1 1170.40   29.48
  -6   3   1 1153.52   27.93
  -6   3   1 1244.64   29.14
  -6   3   1 1213.28   20.13
  -6   3   2  908.02   19.31
  -6   3   2  896.05   24.91
  -6   3   2  889.90   22.14
  -6   3   2  888.95   24.76
  -6   3   3 2391.97   34.32
  -6   3   3 2361.64   40.87
  -6   3   3 2373.13   40.45
  -6   3   4 1376.76   31.68
  -6   3   4 1429.95   28.45
  -6   3   4 1440.30   31.94
  -6   3   5  607.71   21.32
  -6   3   5  622.13   22.51
  -6   3   5  625.46   20.05
  -6   3   5  617.83   21.24
  -6   3   6  106.26    9.11
  -6   3   6  115.38    9.41
  -6   3   6  118.57   10.04
  -6   3   6  108.40    8.98
  -6   3   7   22.01    4.41
  -6   3   7   18.68    4.33
  -6   3   7   28.03    5.18
  -6   3   7   27.27    4.97
  -6   3   8  144.49   10.99
  -6   3   8  143.33   11.07
  -6   3   8  127.85   11.02
  -6   3   8  141.45   11.20
  -6   3   9  352.86   19.13
  -6   3   9  342.32   17.83
  -6   3  10  377.30   18.34
  -6   3  10  412.60   21.56
  -6   3  10  376.46   18.86
  -6   4  -7   79.18    8.77
  -6   4  -7   78.36   15.53
  -6   4  -7   84.54    9.09
  -6   4  -6    4.10    3.04
  -6   4  -6    1.22    5.05
  -6   4  -6    1.82    2.93
  -6   4  -5   -0.55    1.98
  -6   4  -5    7.37    7.21
  -6   4  -5    3.78    2.69
  -6   4  -4  103.14    9.30
  -6   4  -4  112.71   16.12
  -6   4  -4  106.13    9.46
  -6   4  -3  547.13   21.08
  -6   4  -3  532.81   20.71
  -6   4  -3  526.15   31.47
  -6   4  -2 1066.30   41.64
  -6   4  -2 1058.17   28.61
  -6   4  -2 1087.36   29.25
  -6   4  -1  811.14   24.91
  -6   4  -1  776.58   33.45
  -6   4  -1  797.77   24.68
  -6   4   0  968.81   34.29
  -6   4   0  965.41   16.67
  -6   4   0 1026.01   27.87
  -6   4   0 1006.94   27.82
  -6   4   1  863.19   25.47
  -6   4   1  851.88   25.15
  -6   4   1  856.29   17.60
  -6   4   1  856.40   29.06
  -6   4   2  493.21   19.00
  -6   4   2  511.70   19.31
  -6   4   2  490.80   19.63
  -6   4   2  486.23   19.08
  -6   4   2  512.68   14.85
  -6   4   3   61.00    6.76
  -6   4   3   64.68    7.34
  -6   4   3   75.30    6.26
  -6   4   3   65.28    7.00
  -6   4   3   79.31    6.39
  -6   4   4  241.71   13.47
  -6   4   4  247.13   12.05
  -6   4   4  222.85   12.84
  -6   4   4  238.33   13.92
  -6   4   5  609.35   21.66
  -6   4   5  587.29   19.60
  -6   4   5  607.44   21.40
  -6   4   6  888.13   26.21
  -6   4   6  896.48   28.03
  -6   4   6  934.50   27.29
  -6   4   6  903.56   25.84
  -6   4   7  912.33   27.42
  -6   4   7  935.10   29.22
  -6   4   7  909.55   27.24
  -6   4   7  896.48   26.50
  -6   4   8  877.88   26.60
  -6   4   8  857.19   26.97
  -6   4   8  854.26   28.45
  -6   4   8  955.16   29.70
  -6   4   9  500.71   22.88
  -6   4   9  496.59   22.17
  -6   4   9  503.61   21.08
  -6   4   9  505.89   20.82
  -6   4  10  306.81   18.10
  -6   4  10  305.18   18.73
  -6   4  10  322.00   17.65
  -6   5  -5  458.12   34.48
  -6   5  -5  404.46   19.89
  -6   5  -5  446.39   20.90
  -6   5  -4  571.43   23.04
  -6   5  -4  621.45   24.17
  -6   5  -4  630.32   39.42
  -6   5  -3  336.72   27.50
  -6   5  -3  328.42   17.17
  -6   5  -3  330.12   17.38
  -6   5  -2  188.08   19.52
  -6   5  -2  205.12   13.50
  -6   5  -2  212.71   13.76
  -6   5  -1   78.26    8.35
  -6   5  -1   91.81   13.34
  -6   5  -1   81.06    8.48
  -6   5   0    0.48    1.93
  -6   5   0   -0.42    3.62
  -6   5   0    5.26    2.67
  -6   5   1  249.96   14.27
  -6   5   1  278.02   15.03
  -6   5   1  266.58   14.77
  -6   5   1  245.07    9.99
  -6   5   2  820.84   19.39
  -6   5   2  819.01   25.55
  -6   5   2  778.33   24.99
  -6   5   2  789.45   28.37
  -6   5   2  849.08   26.87
  -6   5   3 1204.16   29.72
  -6   5   3 1307.25   31.97
  -6   5   3 1305.22   33.10
  -6   5   3 1260.78   31.68
  -6   5   3 1296.31   26.10
  -6   5   4 1301.81   32.07
  -6   5   4 1319.62   27.95
  -6   5   4 1373.46   34.56
  -6   5   4 1281.33   31.41
  -6   5   5 1103.32   31.31
  -6   5   5 1182.97   28.37
  -6   5   5 1061.02   28.93
  -6   5   5 1102.26   29.70
  -6   5   6  484.54   19.71
  -6   5   6  505.07   21.58
  -6   5   6  541.29   20.37
  -6   5   6  515.61   20.53
  -6   5   7  123.99   10.36
  -6   5   7  113.13   10.75
  -6   5   7  115.35    9.80
  -6   5   7  134.05   10.75
  -6   5   8   14.98    4.41
  -6   5   8   12.60    3.86
  -6   5   8   20.92    4.57
  -6   5   8   11.36    3.57
  -6   5   9   20.87    4.99
  -6   5   9   16.80    3.99
  -6   5   9   13.26    3.94
  -6   5   9   17.57    4.83
  -6   5  10   30.36    5.63
  -6   5  10   29.67    6.05
  -6   5  10   42.48    7.19
  -6   5  10   21.51    4.86
  -6   6  -4   10.17    3.91
  -6   6  -4    7.56    7.03
  -6   6  -4   14.27    4.49
  -6   6  -3   73.21    9.01
  -6   6  -3   88.53    9.72
  -6   6  -3   67.50   14.08
  -6   6  -2  408.45   20.05
  -6   6  -2  434.02   20.66
  -6   6  -2  375.03   30.04
  -6   6  -1  592.44   36.01
  -6   6  -1  561.08   23.04
  -6   6  -1  570.06   23.41
  -6   6   0  676.98   35.98
  -6   6   0  665.17   24.57
  -6   6   0  656.32   24.68
  -6   6   1  955.02   28.93
  -6   6   1  948.63   39.79
  -6   6   1  936.85   28.74
  -6   6   1  957.45   28.98
  -6   6   2  648.40   23.75
  -6   6   2  658.94   18.63
  -6   6   2  696.21   24.68
  -6   6   2  642.50   29.64
  -6   6   2  703.61   24.76
  -6   6   3  288.77   15.96
  -6   6   3  276.19   15.46
  -6   6   3  261.48   15.35
  -6   6   3  277.96   12.76
  -6   6   4  105.97    8.32
  -6   6   4   97.65    9.19
  -6   6   4  101.93    9.51
  -6   6   4   93.95    9.51
  -6   6   5   59.15    6.63
  -6   6   5   64.81    7.64
  -6   6   5   64.04    7.79
  -6   6   5   55.88    6.92
  -6   6   6  314.77   16.54
  -6   6   6  318.60   17.99
  -6   6   6  313.23   15.67
  -6   6   6  317.78   16.72
  -6   6   7  426.60   19.26
  -6   6   7  429.27   19.39
  -6   6   7  424.30   21.06
  -6   6   7  408.50   19.10
  -6   6   8  856.27   30.70
  -6   6   8  883.69   28.56
  -6   6   8  869.45   27.69
  -6   6   8  895.82   29.56
  -6   6   9  482.00   23.41
  -6   6   9  423.01   19.55
  -6   6   9  449.64   20.29
  -6   6   9  448.24   21.90
  -6   6  10  640.34   27.48
  -6   6  10  601.05   26.31
  -6   7  -3  305.20   18.57
  -6   7  -3  261.19   28.77
  -6   7  -3  263.27   17.60
  -6   7  -2  562.95   24.89
  -6   7  -2  546.41   39.15
  -6   7  -2  495.40   23.43
  -6   7  -1  457.91   22.22
  -6   7  -1  447.90   22.01
  -6   7   0   43.72   10.38
  -6   7   0   53.05    7.61
  -6   7   0   60.34    8.35
  -6   7   0   38.31    5.87
  -6   7   1   41.14    6.63
  -6   7   1   25.79    8.61
  -6   7   1   45.79    6.58
  -6   7   1   33.16    6.37
  -6   7   2  129.69   11.39
  -6   7   2  120.47   14.80
  -6   7   2  131.39   11.25
  -6   7   2  144.07   11.78
  -6   7   3  320.58   14.32
  -6   7   3  311.09   17.28
  -6   7   3  304.46   17.04
  -6   7   3  313.92   17.25
  -6   7   4  767.36   27.11
  -6   7   4  755.47   26.82
  -6   7   4  784.69   28.16
  -6   7   4  763.61   23.22
  -6   7   5  868.95   28.43
  -6   7   5  855.68   25.73
  -6   7   5  927.39   31.10
  -6   7   5  854.97   28.22
  -6   7   6  309.51   16.06
  -6   7   6  280.34   16.04
  -6   7   6  305.57   16.88
  -6   7   6  331.09   18.63
  -6   7   7  615.16   23.80
  -6   7   7  601.79   25.89
  -6   7   7  677.30   25.05
  -6   7   7  605.49   23.96
  -6   7   8  267.10   16.06
  -6   7   8  276.67   16.72
  -6   7   8  277.28   16.27
  -6   7   8  305.57   18.78
  -6   7   9   27.53    5.76
  -6   7   9   20.42    4.94
  -6   7   9   23.04    5.57
  -6   7   9   21.74    5.71
  -6   8   0  320.21   19.37
  -6   8   0  287.90   16.51
  -6   8   0  304.36   18.84
  -6   8   0  284.94   28.67
  -6   8   1  588.58   23.88
  -6   8   1  641.16   26.66
  -6   8   1  570.22   25.31
  -6   8   1  545.75   36.78
  -6   8   2  572.17   23.96
  -6   8   2  606.84   25.68
  -6   8   2  597.56   25.31
  -6   8   3  371.33   19.87
  -6   8   3  365.86   19.60
  -6   8   3  382.66   19.97
  -6   8   4  409.43   21.06
  -6   8   4  415.69   20.98
  -6   8   4  395.06   17.46
  -6   8   4  402.08   20.53
  -6   8   5   52.31    7.50
  -6   8   5   52.60    6.92
  -6   8   5   61.90    8.56
  -6   8   5   31.55    5.87
  -6   8   6   95.93   10.67
  -6   8   6   98.15   10.17
  -6   8   6  105.10    9.99
  -6   8   6   72.13    8.85
  -6   8   7   53.61    7.66
  -6   8   7   71.47    8.45
  -6   8   7   58.55    8.67
  -6   8   7   50.12    7.27
  -6   8   8  118.70   11.31
  -6   8   8  149.80   13.66
  -6   8   8  146.18   12.50
  -6   8   8  133.63   11.81
  -6   9   4  202.96   15.40
  -6   9   4  173.63   14.13
  -6   9   4  190.28   14.90
  -6   9   5  485.70   23.62
  -6   9   5  454.90   22.93
  -6   9   5  472.70   23.43
  -6   9   5  470.19   20.79
  -5 -10  -5  298.12   15.75
  -5 -10  -4  145.23   11.62
  -5 -10  -3   10.17    4.17
  -5  -9  -5   28.59    4.81
  -5  -9  -4   65.34    7.34
  -5  -9  -3  349.61   17.17
  -5  -9  -2  722.53   25.65
  -5  -9  -1  487.34   21.82
  -5  -9   0  253.84   16.33
  -5  -8  -8   72.60    8.56
  -5  -8  -7  284.15   16.41
  -5  -8  -6  613.05   23.46
  -5  -8  -6  550.43   17.86
  -5  -8  -5  638.70   23.41
  -5  -8  -5  611.91   19.74
  -5  -8  -4  577.83   19.89
  -5  -8  -4  588.40   22.01
  -5  -8  -3  233.58   13.58
  -5  -8  -3  250.38   13.66
  -5  -8  -2   90.91    8.61
  -5  -8  -2   91.89    8.40
  -5  -8  -1   16.72    4.41
  -5  -8   0   14.13    4.07
  -5  -8   1  357.12   18.76
  -5  -8   2  533.65   23.36
  -5  -7 -10  302.72   17.57
  -5  -7  -9  486.84   21.80
  -5  -7  -8  325.97   17.15
  -5  -7  -7  425.89   19.29
  -5  -7  -6  158.02    8.93
  -5  -7  -6  175.03   11.97
  -5  -7  -5   42.03    5.89
  -5  -7  -5   28.51    4.23
  -5  -7  -4    8.32    2.91
  -5  -7  -4    8.11    2.64
  -5  -7  -3  397.01   16.30
  -5  -7  -3  400.81   17.01
  -5  -7  -2  625.09   21.27
  -5  -7  -2  592.17   20.11
  -5  -7  -1  832.59   25.39
  -5  -7  -1  790.77   22.85
  -5  -7   0  848.10   23.17
  -5  -7   0  847.55   26.66
  -5  -7   1  746.54   25.60
  -5  -7   1  740.49   21.19
  -5  -7   2  227.37   14.56
  -5  -7   3  103.28   10.30
  -5  -7   4    5.76    2.67
  -5  -6 -11  149.06   12.39
  -5  -6 -10  155.40   12.21
  -5  -6  -9   -2.06    2.69
  -5  -6  -8    4.73    3.04
  -5  -6  -7    5.81    2.93
  -5  -6  -6  493.31   19.42
  -5  -6  -6  548.79   15.72
  -5  -6  -5 1096.90   28.16
  -5  -6  -5 1074.78   23.17
  -5  -6  -4 1852.87   35.75
  -5  -6  -4 1803.18   31.23
  -5  -6  -3  828.95   22.03
  -5  -6  -3  784.88   22.91
  -5  -6  -2  299.94   13.92
  -5  -6  -2  304.04   13.95
  -5  -6  -1  430.59   17.23
  -5  -6  -1  390.83   15.53
  -5  -6   0   98.26    7.64
  -5  -6   0   99.21    8.64
  -5  -6   1   82.88    8.30
  -5  -6   1   94.08    7.34
  -5  -6   2  514.13   20.95
  -5  -6   2  479.92   15.69
  -5  -6   3  405.23   19.13
  -5  -6   4  617.64   24.15
  -5  -6   5  445.89   21.27
  -5  -5 -11  108.03   10.22
  -5  -5 -10  139.31   11.12
  -5  -5  -9  464.04   19.71
  -5  -5  -8  288.58   15.22
  -5  -5  -7 1120.57   29.06
  -5  -5  -7 1081.49   18.86
  -5  -5  -6  916.93   18.81
  -5  -5  -6  856.16   24.81
  -5  -5  -5  278.99   13.74
  -5  -5  -5  271.20   10.88
  -5  -5  -4  412.73   14.06
  -5  -5  -4  386.39   15.88
  -5  -5  -3  114.27    8.53
  -5  -5  -3  122.59    8.06
  -5  -5  -2  440.00   15.75
  -5  -5  -2  468.08   16.72
  -5  -5  -1  763.40   20.90
  -5  -5  -1  759.01   21.35
  -5  -5   0 1135.15   24.94
  -5  -5   0 1122.02   26.79
  -5  -5   1 1411.40   30.96
  -5  -5   1 1372.56   26.50
  -5  -5   2  878.91   20.71
  -5  -5   2  888.10   25.55
  -5  -5   2  892.36   27.85
  -5  -5   3  531.91   20.66
  -5  -5   3  480.79   14.85
  -5  -5   3  533.47   24.17
  -5  -5   4  300.00   20.24
  -5  -5   4  305.52   16.38
  -5  -5   5   42.27    6.53
  -5  -5   5   34.45    6.39
  -5  -5   6   13.18    4.62
  -5  -5   6    7.64    3.49
  -5  -4 -12  329.24   17.28
  -5  -4 -11  164.20   12.05
  -5  -4 -10  407.84   18.39
  -5  -4  -9  400.21   17.86
  -5  -4  -8   85.94    8.11
  -5  -4  -7   83.96    7.79
  -5  -4  -7   94.37    5.47
  -5  -4  -7   99.26    5.81
  -5  -4  -6  459.97   13.08
  -5  -4  -6  465.09   13.50
  -5  -4  -6  453.97   17.67
  -5  -4  -5  690.53   16.80
  -5  -4  -5  694.34   21.48
  -5  -4  -5  696.58   17.41
  -5  -4  -4 1041.84   21.48
  -5  -4  -4 1051.32   22.25
  -5  -4  -3 1487.36   26.68
  -5  -4  -3 1553.62   30.20
  -5  -4  -3 1479.72   27.56
  -5  -4  -2 1143.37   24.49
  -5  -4  -2 1116.16   24.94
  -5  -4  -2 1128.02   25.26
  -5  -4  -1 2348.06   37.54
  -5  -4  -1 2334.75   35.46
  -5  -4  -1 2369.25   36.43
  -5  -4   0  576.11   14.37
  -5  -4   0  643.82   19.71
  -5  -4   0  641.37   18.28
  -5  -4   0  625.38   20.11
  -5  -4   1   10.38    2.77
  -5  -4   1    8.67    2.51
  -5  -4   1   15.09    2.93
  -5  -4   1   13.50    3.14
  -5  -4   2   12.84    3.54
  -5  -4   2   15.40    2.83
  -5  -4   2   19.02    3.78
  -5  -4   2   13.50    3.20
  -5  -4   3  225.68   14.56
  -5  -4   3  228.90   12.73
  -5  -4   3  242.90   10.59
  -5  -4   3  251.89   13.92
  -5  -4   4  903.40   32.02
  -5  -4   4  898.59   27.27
  -5  -4   4  898.19   25.97
  -5  -4   4  894.20   18.94
  -5  -4   5  732.30   24.49
  -5  -4   5  778.67   26.60
  -5  -4   5  712.96   31.65
  -5  -4   6  658.73   25.68
  -5  -4   6  641.05   32.84
  -5  -4   6  688.84   25.18
  -5  -4   7  809.61   28.14
  -5  -4   7  770.61   29.04
  -5  -4   7  733.26   38.02
  -5  -3 -11    0.66    2.19
  -5  -3 -10    1.69    2.17
  -5  -3  -9  138.60   10.28
  -5  -3  -8   73.45    7.29
  -5  -3  -7 1564.11   23.33
  -5  -3  -7 1492.48   22.56
  -5  -3  -7 1583.39   33.29
  -5  -3  -6 3743.58   38.26
  -5  -3  -6 3748.47   49.62
  -5  -3  -5  670.01   20.21
  -5  -3  -5  629.66   16.30
  -5  -3  -4  376.88   14.85
  -5  -3  -4  377.09   13.05
  -5  -3  -3   47.24    4.89
  -5  -3  -3   59.39    5.84
  -5  -3  -3   42.06    4.25
  -5  -3  -3   53.16    5.26
  -5  -3  -2   26.97    3.75
  -5  -3  -2   21.53    3.12
  -5  -3  -2   23.17    3.43
  -5  -3  -2   22.91    3.78
  -5  -3  -1   23.01    3.57
  -5  -3  -1   33.26    4.41
  -5  -3  -1   26.55    3.43
  -5  -3  -1   23.62    3.49
  -5  -3   0 1033.49   24.25
  -5  -3   0 1118.88   24.49
  -5  -3   1 1670.66   30.96
  -5  -3   1 1786.56   30.81
  -5  -3   1 1731.45   32.55
  -5  -3   2 2065.69   35.85
  -5  -3   2 2018.26   35.48
  -5  -3   2 1991.02   36.33
  -5  -3   2 2078.10   32.10
  -5  -3   3 1768.20   34.45
  -5  -3   3 1720.62   27.87
  -5  -3   3 1704.18   35.03
  -5  -3   3 1737.23   34.21
  -5  -3   3 1644.47   35.61
  -5  -3   4 1300.81   31.25
  -5  -3   4 1358.72   23.43
  -5  -3   4 1335.05   35.43
  -5  -3   4 1307.12   30.25
  -5  -3   4 1371.03   32.36
  -5  -3   5  539.15   25.13
  -5  -3   5  543.83   14.27
  -5  -3   5  542.74   20.08
  -5  -3   5  589.11   21.95
  -5  -3   6    1.72    1.82
  -5  -3   6    5.36    2.93
  -5  -3   6    0.29    3.38
  -5  -3   7  163.30   11.94
  -5  -3   7  185.28   13.61
  -5  -3   7  165.26   17.01
  -5  -3   8   74.69   12.39
  -5  -3   8   91.60    9.54
  -5  -3   8   85.63    9.75
  -5  -2 -11  202.11   17.78
  -5  -2 -10  332.89   21.72
  -5  -2 -10  328.87   15.46
  -5  -2  -9  873.15   33.47
  -5  -2  -9  827.47   23.99
  -5  -2  -8  320.18   19.34
  -5  -2  -8  345.44   15.59
  -5  -2  -7  282.03    9.72
  -5  -2  -7  277.01    9.85
  -5  -2  -7  290.59   13.71
  -5  -2  -7  255.98   16.12
  -5  -2  -6   19.52    3.43
  -5  -2  -6   15.24    2.64
  -5  -2  -6   18.26    2.67
  -5  -2  -6   14.29    3.70
  -5  -2  -5    1.51    1.48
  -5  -2  -5    4.10    1.61
  -5  -2  -5    3.99    1.88
  -5  -2  -4  562.11   15.32
  -5  -2  -4  572.44   15.03
  -5  -2  -3 3124.01   36.12
  -5  -2  -3 3012.57   36.49
  -5  -2  -2 1456.31   26.08
  -5  -2  -2 1420.96   25.26
  -5  -2  -1 1792.19   29.85
  -5  -2  -1 1872.82   30.57
  -5  -2   0 2321.32   35.61
  -5  -2   0 2252.98   29.75
  -5  -2   1 1253.38   27.03
  -5  -2   1 1263.84   23.80
  -5  -2   1 1272.59   27.61
  -5  -2   2  314.69   13.87
  -5  -2   2  300.00   13.21
  -5  -2   2  306.73   12.58
  -5  -2   3    0.55    1.19
  -5  -2   3   -0.34    1.06
  -5  -2   3    2.46    1.53
  -5  -2   4  261.74   13.18
  -5  -2   4  282.40   13.55
  -5  -2   4  295.90   14.37
  -5  -2   5  713.76   23.30
  -5  -2   5  750.80   23.04
  -5  -2   5  771.48   23.83
  -5  -2   5  801.66   29.17
  -5  -2   6 1062.02   28.01
  -5  -2   6 1092.59   30.17
  -5  -2   6 1135.15   30.41
  -5  -2   6 1036.95   35.93
  -5  -2   7 1241.70   43.14
  -5  -2   7 1294.76   31.60
  -5  -2   8 1104.00   30.51
  -5  -2   8 1082.05   43.70
  -5  -2   9  157.51   12.18
  -5  -2   9  140.87   12.81
  -5  -2   9  169.51   18.92
  -5  -1 -11   66.95   11.12
  -5  -1 -10  100.87    8.43
  -5  -1 -10  110.41   13.50
  -5  -1  -9    7.19    2.54
  -5  -1  -9   -1.14    2.62
  -5  -1  -8  247.26   12.68
  -5  -1  -8  218.12   17.07
  -5  -1  -7  875.84   18.68
  -5  -1  -7  851.56   23.04
  -5  -1  -7  885.54   18.57
  -5  -1  -7  915.90   33.26
  -5  -1  -6 1860.85   44.36
  -5  -1  -6 1905.98   27.69
  -5  -1  -6 1884.71   27.48
  -5  -1  -5  645.44   16.20
  -5  -1  -5  667.15   16.75
  -5  -1  -5  666.76   24.81
  -5  -1  -4  777.38   24.86
  -5  -1  -4  805.30   18.34
  -5  -1  -4  816.87   18.65
  -5  -1  -3 1873.38   28.37
  -5  -1  -3 1893.01   28.96
  -5  -1  -2 1212.43   23.20
  -5  -1  -2 1311.11   24.49
  -5  -1  -1   32.21    3.96
  -5  -1  -1   29.25    3.75
  -5  -1   0  342.27   12.76
  -5  -1   0  317.65   12.55
  -5  -1   0  348.77   10.44
  -5  -1   1  934.97   18.89
  -5  -1   1  876.03   21.45
  -5  -1   1  871.27   20.90
  -5  -1   2 2107.01   34.13
  -5  -1   2 2079.05   34.35
  -5  -1   3 3225.25   44.83
  -5  -1   3 3046.05   40.21
  -5  -1   4 1672.24   32.02
  -5  -1   4 1635.31   32.47
  -5  -1   4 1749.84   32.84
  -5  -1   5  840.10   23.86
  -5  -1   5  890.03   23.86
  -5  -1   5  911.96   25.13
  -5  -1   6  704.51   22.19
  -5  -1   6  740.44   23.36
  -5  -1   6  734.13   23.88
  -5  -1   7  190.28   12.89
  -5  -1   7  223.25   13.50
  -5  -1   7  224.91   17.60
  -5  -1   7  224.36   12.89
  -5  -1   8    4.89    3.75
  -5  -1   8    1.03    2.19
  -5  -1   8    1.64    1.98
  -5  -1   9  216.75   13.42
  -5  -1   9  193.45   19.23
  -5  -1   9  232.28   15.88
  -5  -1  10  277.36   15.96
  -5  -1  10  309.72   19.13
  -5  -1  10  283.09   24.89
  -5   0 -10  214.48   20.42
  -5   0  -9  585.73   20.13
  -5   0  -9  540.05   30.62
  -5   0  -8  934.20   38.55
  -5   0  -8  920.68   24.09
  -5   0  -7  950.03   20.71
  -5   0  -7  891.27   20.16
  -5   0  -7  885.78   35.40
  -5   0  -6  240.76   10.38
  -5   0  -6  241.82   17.52
  -5   0  -6  234.79   10.25
  -5   0  -5    7.03    2.01
  -5   0  -5   10.07    3.88
  -5   0  -5    8.45    2.11
  -5   0  -4   23.38    3.33
  -5   0  -4   24.33    4.94
  -5   0  -4   21.11    3.17
  -5   0  -3  367.29   12.81
  -5   0  -3  356.75   12.87
  -5   0  -3  361.98   17.38
  -5   0  -2 1192.38   23.49
  -5   0  -2 1158.56   28.24
  -5   0  -2 1220.25   23.49
  -5   0  -1 1800.48   29.09
  -5   0  -1 1838.50   29.80
  -5   0  -1 1919.90   32.31
  -5   0  -1 1889.10   17.94
  -5   0   0 3480.92   41.11
  -5   0   0 3388.10   41.03
  -5   0   0 3363.00   29.04
  -5   0   1 3994.44   44.60
  -5   0   1 3915.42   44.86
  -5   0   2 1151.93   24.44
  -5   0   2 1172.67   21.77
  -5   0   2 1158.24   24.91
  -5   0   3  506.97   16.54
  -5   0   3  463.56   14.90
  -5   0   3  473.79   16.38
  -5   0   4   -0.58    1.19
  -5   0   4    2.75    1.56
  -5   0   4   -0.82    1.11
  -5   0   5  388.16   16.17
  -5   0   5  387.31   15.61
  -5   0   6  671.27   21.45
  -5   0   6  656.24   20.66
  -5   0   6  674.26   21.90
  -5   0   7  684.30   23.43
  -5   0   7  709.40   22.88
  -5   0   7  731.62   22.43
  -5   0   8 1110.56   31.78
  -5   0   8 1082.31   28.53
  -5   0   8 1072.99   29.30
  -5   0   9 1036.50   30.09
  -5   0   9  960.60   27.53
  -5   0   9  938.27   40.48
  -5   0   9  992.75   31.60
  -5   0  10  354.16   17.09
  -5   0  10  362.19   27.00
  -5   1 -10  137.09   17.97
  -5   1  -9   13.39    6.21
  -5   1  -8   11.60    5.47
  -5   1  -8   19.02    3.59
  -5   1  -7   46.71    5.07
  -5   1  -7   47.45    9.06
  -5   1  -7   54.03    5.52
  -5   1  -6  324.67   13.13
  -5   1  -6  342.82   13.45
  -5   1  -6  352.97   23.12
  -5   1  -5 1325.24   41.77
  -5   1  -5 1375.49   26.55
  -5   1  -5 1350.05   26.21
  -5   1  -4 1740.78   29.25
  -5   1  -4 1740.41   29.46
  -5   1  -4 1669.92   44.44
  -5   1  -3 1608.65   40.66
  -5   1  -3 1620.91   28.24
  -5   1  -3 1559.14   27.50
  -5   1  -2 1835.62   29.99
  -5   1  -2 1873.19   40.18
  -5   1  -2 1926.61   30.41
  -5   1  -1  795.82   19.79
  -5   1  -1  788.68   23.54
  -5   1  -1  834.39   20.24
  -5   1  -1  844.46   10.07
  -5   1   0  396.35   14.11
  -5   1   0  408.93    9.41
  -5   1   0  387.10   14.64
  -5   1   0  369.30   13.50
  -5   1   1  310.12    9.62
  -5   1   1  295.72   12.39
  -5   1   1  286.47   12.02
  -5   1   2 1461.15   27.48
  -5   1   2 1501.17   23.36
  -5   1   3 1021.71   21.40
  -5   1   3  999.36   23.57
  -5   1   3 1040.54   23.62
  -5   1   4 2094.38   34.08
  -5   1   4 2057.02   32.84
  -5   1   4 2072.98   34.61
  -5   1   5 1852.32   33.18
  -5   1   5 1746.30   32.18
  -5   1   5 1849.33   33.61
  -5   1   6 2282.75   39.10
  -5   1   6 2213.11   38.12
  -5   1   6 2188.78   38.63
  -5   1   7 1014.18   26.87
  -5   1   7 1014.60   26.60
  -5   1   7  949.45   26.95
  -5   1   8   48.56    5.89
  -5   1   8   31.28    4.91
  -5   1   8   43.06    6.16
  -5   1   9   11.33    3.57
  -5   1   9   13.82    4.23
  -5   1   9   13.05    3.51
  -5   1  10    7.93    2.96
  -5   1  10   10.36    3.65
  -5   1  10    1.64    2.59
  -5   1  11   88.30   15.61
  -5   1  11  175.06   14.61
  -5   2  -9  334.63   28.11
  -5   2  -8  665.59   37.62
  -5   2  -7  645.41   20.08
  -5   2  -7  620.42   19.47
  -5   2  -7  612.44   34.61
  -5   2  -6  514.29   17.54
  -5   2  -6  508.92   17.36
  -5   2  -6  538.99   30.91
  -5   2  -5  527.29   17.52
  -5   2  -5  526.84   17.38
  -5   2  -4  187.82   10.25
  -5   2  -4  188.69   16.70
  -5   2  -4  173.55    9.83
  -5   2  -3   33.50    4.25
  -5   2  -3   25.42    5.87
  -5   2  -3   29.56    4.04
  -5   2  -2  370.72   20.24
  -5   2  -2  382.45   14.37
  -5   2  -2  395.03   14.50
  -5   2  -1 1313.51   26.34
  -5   2  -1 1311.74   34.72
  -5   2  -1 1356.76   26.84
  -5   2  -1 1276.76   12.58
  -5   2   0 1757.84   35.46
  -5   2   0 1803.65   19.50
  -5   2   0 1704.05   29.85
  -5   2   0 1771.13   30.44
  -5   2   1 4932.13   50.99
  -5   2   1 4877.97   50.78
  -5   2   2 1485.40   28.08
  -5   2   2 1507.44   23.06
  -5   2   2 1490.10   23.04
  -5   2   2 1488.02   28.48
  -5   2   3 1289.79   26.63
  -5   2   3 1241.12   26.50
  -5   2   3 1293.41   23.43
  -5   2   4  705.46   20.90
  -5   2   4  775.76   21.03
  -5   2   4  722.95   20.58
  -5   2   4  754.47   19.52
  -5   2   5   39.13    4.86
  -5   2   5   38.02    4.91
  -5   2   5   47.90    5.63
  -5   2   5   44.57    5.36
  -5   2   6    5.87    2.30
  -5   2   6    6.29    2.09
  -5   2   6    3.06    2.11
  -5   2   6    4.70    2.06
  -5   2   7  619.97   20.40
  -5   2   7  585.83   20.16
  -5   2   7  598.70   20.16
  -5   2   7  612.52   21.37
  -5   2   8  996.34   27.16
  -5   2   8 1012.17   27.64
  -5   2   8  930.40   27.95
  -5   2   8  883.64   25.39
  -5   2   9 1120.57   28.98
  -5   2   9 1117.08   32.39
  -5   2   9 1123.45   28.08
  -5   2  10  792.91   25.23
  -5   2  10  766.62   24.02
  -5   2  10  787.50   28.74
  -5   2  11  581.29   35.16
  -5   2  11  599.07   26.39
  -5   3  -8   99.18   16.59
  -5   3  -7   22.27    4.44
  -5   3  -7   21.06    4.36
  -5   3  -6   19.39    3.75
  -5   3  -6   17.17    3.59
  -5   3  -5  417.91   28.40
  -5   3  -5  470.75   17.73
  -5   3  -5  427.23   16.88
  -5   3  -4  871.14   23.54
  -5   3  -4  860.78   23.41
  -5   3  -3 1093.38   25.97
  -5   3  -3 1073.73   41.48
  -5   3  -3 1082.02   25.89
  -5   3  -2 2540.77   38.76
  -5   3  -2 2522.30   59.07
  -5   3  -2 2508.19   38.71
  -5   3  -1 1406.59   40.53
  -5   3  -1 1408.52   28.56
  -5   3  -1 1390.32   28.32
  -5   3  -1 1445.32   15.61
  -5   3   0 1159.99   33.45
  -5   3   0 1225.48   16.94
  -5   3   0 1243.21   26.79
  -5   3   0 1185.69   25.97
  -5   3   1  108.48    7.95
  -5   3   1  119.87    8.27
  -5   3   1  130.80   10.07
  -5   3   1  126.50    8.74
  -5   3   1  131.33    6.24
  -5   3   2  571.91   17.94
  -5   3   2  535.50   16.94
  -5   3   2  539.97   14.08
  -5   3   2  571.65   18.52
  -5   3   2  553.36   17.60
  -5   3   3   37.54    4.76
  -5   3   3   37.30    4.62
  -5   3   3   36.86    4.89
  -5   3   3   27.66    3.51
  -5   3   3   33.16    3.30
  -5   3   4  889.90   21.29
  -5   3   4  871.22   22.48
  -5   3   4  899.01   23.01
  -5   3   5 1393.72   28.93
  -5   3   5 1421.23   29.46
  -5   3   5 1418.80   28.59
  -5   3   5 1370.66   30.41
  -5   3   6 2493.66   39.74
  -5   3   6 2513.34   39.31
  -5   3   6 2530.57   40.50
  -5   3   6 2542.93   42.35
  -5   3   7 2114.59   36.49
  -5   3   7 2127.11   37.44
  -5   3   7 2163.12   39.89
  -5   3   7 2219.55   40.18
  -5   3   8  424.35   16.94
  -5   3   8  416.27   17.04
  -5   3   8  432.62   18.07
  -5   3   8  432.73   18.97
  -5   3   9  204.86   13.90
  -5   3   9  186.52   11.97
  -5   3   9  214.63   13.18
  -5   3  10   33.29    5.13
  -5   3  10   29.80    5.31
  -5   3  10   37.83    6.55
  -5   3  10   34.64    5.42
  -5   3  11   20.48    4.81
  -5   3  11   16.83    4.97
  -5   4  -7  552.94   21.53
  -5   4  -7  577.83   21.90
  -5   4  -7  502.77   37.23
  -5   4  -6  604.41   39.05
  -5   4  -6  588.90   21.72
  -5   4  -6  592.36   21.80
  -5   4  -5  588.47   37.09
  -5   4  -5  615.95   21.56
  -5   4  -5  605.12   21.51
  -5   4  -4  390.96   16.91
  -5   4  -4  422.64   17.54
  -5   4  -4  381.69   28.43
  -5   4  -3  416.06   28.80
  -5   4  -3  433.50   17.44
  -5   4  -3  418.73   17.28
  -5   4  -2   75.85    7.29
  -5   4  -2   70.44    3.78
  -5   4  -2   78.47    7.34
  -5   4  -1  354.69   15.27
  -5   4  -1  360.76    9.30
  -5   4  -1  389.90   15.88
  -5   4  -1  363.09   23.43
  -5   4   0  661.58   20.50
  -5   4   0  651.88   20.18
  -5   4   0  687.21   13.92
  -5   4   0  681.05   20.74
  -5   4   0  655.03   29.38
  -5   4   1 2435.22   28.51
  -5   4   1 2342.09   38.78
  -5   4   1 2202.57   36.88
  -5   4   1 2288.93   37.46
  -5   4   1 2338.42   50.17
  -5   4   2 1150.82   21.27
  -5   4   2 1135.55   26.42
  -5   4   2 1113.09   26.97
  -5   4   2 1151.67   30.41
  -5   4   2 1149.10   26.74
  -5   4   3 1659.48   31.84
  -5   4   3 1695.44   32.18
  -5   4   3 1607.06   29.46
  -5   4   3 1644.74   27.05
  -5   4   4 2585.23   39.92
  -5   4   4 2534.48   26.50
  -5   4   4 2589.22   39.39
  -5   4   4 2607.64   36.41
  -5   4   5  221.29   11.68
  -5   4   5  227.55   11.97
  -5   4   5  223.67   12.66
  -5   4   5  209.06   11.15
  -5   4   6  210.96   11.57
  -5   4   6  236.59   12.68
  -5   4   6  209.51   11.70
  -5   4   7    1.85    1.51
  -5   4   7    1.00    1.80
  -5   4   7    0.77    1.51
  -5   4   7    5.92    2.72
  -5   4   8  215.22   12.21
  -5   4   8  259.50   14.50
  -5   4   8  260.10   13.16
  -5   4   8  242.32   14.11
  -5   4   9  715.11   22.27
  -5   4   9  742.77   23.12
  -5   4   9  700.79   25.52
  -5   4   9  763.51   25.81
  -5   4  10  966.62   31.57
  -5   4  10  960.97   29.41
  -5   4  10  960.15   27.56
  -5   4  11  522.19   22.30
  -5   4  11  616.37   26.47
  -5   5  -7  280.50   16.43
  -5   5  -7  266.60   15.96
  -5   5  -6   21.08    9.43
  -5   5  -6   32.31    5.76
  -5   5  -6   27.37    5.47
  -5   5  -5   76.56   15.85
  -5   5  -5  104.65    9.62
  -5   5  -5   78.60    8.43
  -5   5  -4  291.44   15.59
  -5   5  -4  311.38   28.08
  -5   5  -4  304.36   16.09
  -5   5  -3  318.83   15.88
  -5   5  -3  311.94   15.83
  -5   5  -2 1347.62   32.10
  -5   5  -2 1358.53   53.26
  -5   5  -2 1442.79   33.16
  -5   5  -1 1428.99   32.44
  -5   5  -1 1486.17   53.05
  -5   5  -1 1415.23   32.39
  -5   5   0  916.58   25.44
  -5   5   0  943.69   19.00
  -5   5   0  830.06   23.30
  -5   5   0  799.41   36.70
  -5   5   0  910.29   25.28
  -5   5   1  872.80   24.65
  -5   5   1  875.79   24.57
  -5   5   1  906.99   35.88
  -5   5   1  852.25   18.23
  -5   5   1  884.24   24.46
  -5   5   2  109.48    8.61
  -5   5   2  117.65    7.19
  -5   5   2   99.39   11.28
  -5   5   2  118.36    8.96
  -5   5   2  109.64    8.56
  -5   5   3  291.60   13.90
  -5   5   3  304.94   14.64
  -5   5   3  291.67   14.06
  -5   5   3  281.40   15.83
  -5   5   3  335.95   12.81
  -5   5   4  199.05   10.49
  -5   5   4  181.24   11.39
  -5   5   4  209.96   11.84
  -5   5   4  163.20    9.51
  -5   5   4  183.54   11.04
  -5   5   5 1017.69   25.73
  -5   5   5 1052.41   27.90
  -5   5   5 1063.74   26.55
  -5   5   5 1051.17   25.28
  -5   5   6 1568.39   32.65
  -5   5   6 1644.95   35.53
  -5   5   6 1518.66   31.97
  -5   5   6 1548.47   32.26
  -5   5   7 1787.01   35.30
  -5   5   7 1814.94   38.28
  -5   5   7 1751.00   34.64
  -5   5   7 1754.54   36.49
  -5   5   8  506.39   19.05
  -5   5   8  476.82   18.20
  -5   5   8  470.40   20.21
  -5   5   8  498.94   20.69
  -5   5   9  603.51   23.22
  -5   5   9  628.98   21.51
  -5   5   9  638.41   21.14
  -5   5   9  630.80   24.41
  -5   5  10  376.14   16.51
  -5   5  10  437.33   20.45
  -5   5  10  399.81   17.38
  -5   5  10  420.89   21.00
  -5   5  11   34.35    6.76
  -5   5  11   55.06    7.71
  -5   6  -5  372.15   19.29
  -5   6  -5  382.48   19.42
  -5   6  -5  345.62   33.32
  -5   6  -4  826.99   28.06
  -5   6  -4  761.76   47.40
  -5   6  -4  782.42   27.48
  -5   6  -3  620.94   40.90
  -5   6  -3  637.59   24.20
  -5   6  -3  582.24   23.20
  -5   6  -2  231.41   14.19
  -5   6  -2  215.66   13.79
  -5   6  -1    0.95    2.35
  -5   6  -1    2.48    1.93
  -5   6  -1    1.40    1.85
  -5   6   0   25.39    4.60
  -5   6   0   42.99    6.05
  -5   6   0   33.47    5.42
  -5   6   1  618.01   21.85
  -5   6   1  619.41   21.22
  -5   6   1  593.18   21.45
  -5   6   2  625.22   17.83
  -5   6   2  553.28   20.37
  -5   6   2  568.92   20.69
  -5   6   2  571.30   20.63
  -5   6   3  490.88   19.00
  -5   6   3  459.49   15.93
  -5   6   3  457.51   18.60
  -5   6   3  484.51   24.68
  -5   6   3  461.29   18.28
  -5   6   4 2275.33   45.94
  -5   6   4 2354.22   41.45
  -5   6   4 2409.06   43.46
  -5   6   4 2410.44   37.65
  -5   6   4 2335.04   41.14
  -5   6   5 1598.58   33.82
  -5   6   5 1663.23   34.69
  -5   6   5 1654.44   36.38
  -5   6   5 1667.41   32.89
  -5   6   6  787.68   23.83
  -5   6   6  823.80   24.46
  -5   6   6  794.02   25.71
  -5   6   6  782.34   23.57
  -5   6   7   75.09    7.61
  -5   6   7   88.80    8.11
  -5   6   7   90.73    8.98
  -5   6   7   71.97    7.61
  -5   6   8   32.18    4.97
  -5   6   8   33.16    5.13
  -5   6   8   20.45    4.91
  -5   6   8   40.48    6.24
  -5   6   9  213.21   12.63
  -5   6   9  179.42   13.16
  -5   6   9  200.95   12.52
  -5   6   9  202.48   14.00
  -5   6  10  316.09   18.47
  -5   6  10  311.46   17.86
  -5   6  11  255.48   17.30
  -5   6  11  290.70   17.70
  -5   7  -4   -3.33    7.79
  -5   7  -4    1.08    2.54
  -5   7  -4   -0.90    2.51
  -5   7  -3   40.74    6.66
  -5   7  -3   49.77    7.37
  -5   7  -2  412.49   20.37
  -5   7  -2  377.70   19.39
  -5   7  -1  841.74   28.35
  -5   7  -1  855.74   24.94
  -5   7  -1  865.12   28.53
  -5   7   0  575.32   20.77
  -5   7   0  612.49   23.49
  -5   7   1 1055.50   30.07
  -5   7   1 1094.68   29.22
  -5   7   1 1099.94   30.78
  -5   7   2  953.23   27.74
  -5   7   2  922.47   27.95
  -5   7   2  967.73   28.51
  -5   7   3  316.72   16.06
  -5   7   3  321.29   16.27
  -5   7   3  328.95   14.69
  -5   7   3  275.64   15.19
  -5   7   4   29.04    4.99
  -5   7   4   20.92    4.46
  -5   7   4   26.08    4.28
  -5   7   5   76.56    7.90
  -5   7   5   67.90    8.01
  -5   7   5   65.97    7.34
  -5   7   5   70.09    7.21
  -5   7   6   80.32    8.06
  -5   7   6   61.08    6.95
  -5   7   6   55.09    6.74
  -5   7   6   59.18    7.56
  -5   7   7  804.11   25.13
  -5   7   7  859.78   27.19
  -5   7   7  758.25   26.79
  -5   7   7  794.87   24.81
  -5   7   8 1243.66   31.23
  -5   7   8 1276.34   35.67
  -5   7   8 1269.84   31.84
  -5   7   8 1297.08   34.43
  -5   7   9  733.31   24.12
  -5   7   9  723.96   24.20
  -5   7   9  727.13   27.05
  -5   7   9  747.44   28.27
  -5   7  10  346.97   19.63
  -5   7  10  288.08   18.02
  -5   8  -2  297.09   18.41
  -5   8  -2  356.64   20.13
  -5   8  -1  151.65   12.79
  -5   8  -1  126.97   11.81
  -5   8   0   81.85    9.41
  -5   8   0   84.68    9.46
  -5   8   0   85.92    8.45
  -5   8   1    1.40    2.09
  -5   8   1   -0.95    2.59
  -5   8   1    5.92    3.30
  -5   8   2  142.22   11.70
  -5   8   2  162.53   12.44
  -5   8   3  405.31   19.26
  -5   8   3  350.54   18.10
  -5   8   3  373.71   18.26
  -5   8   4 1264.53   33.87
  -5   8   4 1188.94   32.76
  -5   8   4 1183.13   32.87
  -5   8   4 1274.84   30.99
  -5   8   5 1451.58   35.77
  -5   8   5 1571.11   37.09
  -5   8   5 1550.29   38.41
  -5   8   5 1499.77   34.43
  -5   8   6  515.85   21.24
  -5   8   6  561.92   21.66
  -5   8   6  518.25   21.51
  -5   8   6  496.96   22.35
  -5   8   7   73.10    8.22
  -5   8   7   62.75    7.53
  -5   8   7   73.53    8.93
  -5   8   7   70.67    8.24
  -5   8   8  185.47   12.66
  -5   8   8  198.44   13.13
  -5   8   8  204.17   14.98
  -5   8   8  199.63   14.21
  -5   8   9   43.14    6.47
  -5   8   9   44.86    6.50
  -5   8   9   41.21    6.82
  -5   8   9   53.84    8.14
  -5   8  10   18.68    5.31
  -5   8  10   11.49    4.44
  -5   9   0  395.45   21.45
  -5   9   0  442.56   22.67
  -5   9   1  511.96   21.64
  -5   9   1  536.40   24.41
  -5   9   1  516.30   23.99
  -5   9   2  466.86   20.85
  -5   9   2  497.22   23.04
  -5   9   2  469.61   22.51
  -5   9   3  400.84   20.37
  -5   9   3  409.82   20.85
  -5   9   3  443.69   20.79
  -5   9   4  293.97   16.57
  -5   9   4  274.55   16.83
  -5   9   4  283.33   16.88
  -5   9   4  264.67   16.43
  -5   9   5   78.94    9.19
  -5   9   5   90.04    9.67
  -5   9   5   87.11    9.06
  -5   9   5   69.67    8.48
  -5   9   6   25.15    5.10
  -5   9   6   20.69    4.89
  -5   9   6   31.47    5.97
  -5   9   6   27.74    5.63
  -5   9   7  216.01   15.64
  -5   9   7  226.07   14.80
  -5   9   7  251.31   15.85
  -5   9   7  229.59   15.01
  -5   9   8  521.50   22.09
  -5   9   8  563.64   24.41
  -5   9   8  535.66   24.89
  -5   9   8  512.07   21.93
  -4 -10  -5  375.74   16.99
  -4 -10  -4  643.11   22.96
  -4 -10  -3  628.13   23.51
  -4 -10  -2  234.56   14.90
  -4 -10  -1  166.68   13.00
  -4  -9  -6  602.32   18.89
  -4  -9  -5  404.94   16.51
  -4  -9  -4  197.01   11.86
  -4  -9  -3   33.98    5.31
  -4  -9  -2   42.93    6.26
  -4  -9  -1  108.03    9.83
  -4  -9   0  308.77   16.99
  -4  -9   1  422.14   20.74
  -4  -8  -6    2.03    1.59
  -4  -8  -5  155.03    9.51
  -4  -8  -4  587.81   19.15
  -4  -8  -3  824.30   23.65
  -4  -8  -2  675.61   22.35
  -4  -8  -1  676.22   23.01
  -4  -8   0  597.62   22.54
  -4  -8   1  443.03   20.00
  -4  -8   2    7.64    3.25
  -4  -8   3   74.11    9.51
  -4  -7  -8  274.03   15.09
  -4  -7  -7  959.65   18.47
  -4  -7  -7  927.68   27.19
  -4  -7  -6 1065.38   21.32
  -4  -7  -6 1052.09   27.90
  -4  -7  -5  760.76   19.13
  -4  -7  -5  716.16   22.62
  -4  -7  -4  813.60   20.74
  -4  -7  -4  763.66   22.64
  -4  -7  -3  544.62   17.83
  -4  -7  -3  558.36   18.97
  -4  -7  -2  224.07   11.86
  -4  -7  -2  205.23   11.33
  -4  -7  -1    0.61    1.11
  -4  -7  -1   -1.56    1.53
  -4  -7   0  188.69   11.86
  -4  -7   1  360.58   16.91
  -4  -7   2  940.99   27.93
  -4  -7   3  953.62   29.27
  -4  -7   4  951.35   30.30
  -4  -7   5  181.03   13.79
  -4  -6  -9  620.84   22.38
  -4  -6  -8  554.50   20.45
  -4  -6  -7  866.31   15.75
  -4  -6  -7  818.67   24.23
  -4  -6  -6  412.36   16.67
  -4  -6  -6  378.65   11.62
  -4  -6  -5    3.70    1.98
  -4  -6  -5    5.31    1.77
  -4  -6  -4  158.86    9.93
  -4  -6  -4  163.96    8.74
  -4  -6  -3  440.97   15.06
  -4  -6  -3  456.48   16.35
  -4  -6  -2 1065.46   24.41
  -4  -6  -2 1098.77   24.76
  -4  -6  -1 1829.41   30.83
  -4  -6  -1 1922.38   34.27
  -4  -6   0 1018.17   22.40
  -4  -6   0  999.49   25.47
  -4  -6   1 1269.68   24.60
  -4  -6   1 1249.50   29.46
  -4  -6   1 1176.98   28.19
  -4  -6   2  907.23   26.13
  -4  -6   2  929.16   30.46
  -4  -6   3   56.22    8.90
  -4  -6   3   51.55    6.55
  -4  -6   4    8.16    3.12
  -4  -6   4    5.10    4.62
  -4  -6   5  406.71   19.21
  -4  -6   5  442.37   28.61
  -4  -6   6  254.34   16.04
  -4  -5 -10  106.23    9.22
  -4  -5  -9    1.85    2.01
  -4  -5  -8   59.42    6.63
  -4  -5  -7  173.34    6.34
  -4  -5  -7  193.50   11.47
  -4  -5  -6  652.15   14.24
  -4  -5  -6  587.97   19.23
  -4  -5  -5 1183.24   26.39
  -4  -5  -5 1235.55   20.74
  -4  -5  -4 2420.00   30.54
  -4  -5  -4 2461.08   36.99
  -4  -5  -3 2272.98   34.95
  -4  -5  -3 2292.84   31.28
  -4  -5  -2  913.10   20.82
  -4  -5  -2  878.51   21.03
  -4  -5  -1  404.94   14.43
  -4  -5  -1  407.39   14.13
  -4  -5   0   13.13    2.62
  -4  -5   0   16.88    2.91
  -4  -5   0   12.47    2.85
  -4  -5   1  235.61   10.12
  -4  -5   1  215.72   12.21
  -4  -5   1  221.48   11.68
  -4  -5   2 1308.55   29.51
  -4  -5   2 1268.20   22.59
  -4  -5   2 1300.20   34.13
  -4  -5   3  509.80   23.91
  -4  -5   3  485.70   18.68
  -4  -5   3  484.59   13.29
  -4  -5   4 1030.11   28.19
  -4  -5   4  995.23   36.64
  -4  -5   5 1607.09   38.55
  -4  -5   5 1556.76   35.67
  -4  -5   6  336.85   17.33
  -4  -5   6  381.00   26.87
  -4  -5   6  366.13   19.37
  -4  -5   7  401.90   21.22
  -4  -5   7  382.08   18.89
  -4  -5   7  403.99   29.91
  -4  -4 -11   13.37    3.49
  -4  -4 -10  216.30   12.55
  -4  -4  -9 1643.68   33.34
  -4  -4  -8 1481.44   30.83
  -4  -4  -7  486.49   17.12
  -4  -4  -7  446.28    9.25
  -4  -4  -6  843.82   21.95
  -4  -4  -6  837.16   14.93
  -4  -4  -5  632.20   18.63
  -4  -4  -5  634.76   13.98
  -4  -4  -5  637.96   14.56
  -4  -4  -4  399.18   12.23
  -4  -4  -4  393.95   14.40
  -4  -4  -4  376.56   11.62
  -4  -4  -3   50.09    4.62
  -4  -4  -3   56.43    5.55
  -4  -4  -3   56.56    4.73
  -4  -4  -2 1081.89   21.32
  -4  -4  -2 1052.57   22.09
  -4  -4  -1 1689.76   27.95
  -4  -4  -1 1723.79   29.33
  -4  -4  -1 1785.40   29.09
  -4  -4   0 1901.59   30.81
  -4  -4   0 1930.63   32.60
  -4  -4   0 1854.72   25.86
  -4  -4   1 2920.97   39.39
  -4  -4   1 3017.30   40.77
  -4  -4   2 3435.82   44.04
  -4  -4   2 3507.84   35.88
  -4  -4   2 3450.85   46.21
  -4  -4   3  453.95   16.75
  -4  -4   3  424.67   17.04
  -4  -4   3  423.59   11.99
  -4  -4   4   12.79    2.09
  -4  -4   4    8.22    2.72
  -4  -4   4   15.06    3.65
  -4  -4   4    8.22    3.73
  -4  -4   5   36.09    5.68
  -4  -4   5   32.89    7.29
  -4  -4   5   26.63    4.65
  -4  -4   6   43.17    9.11
  -4  -4   6   26.42    5.34
  -4  -4   6   33.34    5.36
  -4  -4   7  118.99   10.30
  -4  -4   7  125.31   15.90
  -4  -4   7  116.14   10.83
  -4  -4   8 1303.42   34.45
  -4  -4   8 1273.67   37.38
  -4  -4   8 1235.21   52.84
  -4  -3 -12  633.71   28.85
  -4  -3 -11  582.98   26.10
  -4  -3 -11  543.27   19.42
  -4  -3 -10  147.32    9.91
  -4  -3 -10  196.33   14.74
  -4  -3  -9  365.54   15.22
  -4  -3  -9  397.01   19.63
  -4  -3  -8  213.92   11.33
  -4  -3  -7   81.58    4.10
  -4  -3  -7   81.43    4.02
  -4  -3  -7   89.96    7.19
  -4  -3  -6  478.15   16.43
  -4  -3  -6  439.41   11.18
  -4  -3  -6  487.29   11.12
  -4  -3  -6  485.70   11.28
  -4  -3  -5 1899.85   23.72
  -4  -3  -5 1910.18   31.62
  -4  -3  -4 1299.70   20.74
  -4  -3  -4 1277.27   25.07
  -4  -3  -4 1277.50   20.40
  -4  -3  -3 4552.82   40.66
  -4  -3  -3 4342.81   30.59
  -4  -3  -3 4523.86   39.74
  -4  -3  -3 4386.69   45.13
  -4  -3  -2 2456.88   31.10
  -4  -3  -2 2388.06   21.29
  -4  -3  -2 2467.82   33.05
  -4  -3  -2 2452.82   30.41
  -4  -3  -1 1264.16   22.64
  -4  -3  -1 1234.23   23.14
  -4  -3  -1 1285.93   23.30
  -4  -3  -1 1277.85   17.12
  -4  -3   0  941.95   21.00
  -4  -3   0  926.46   19.50
  -4  -3   0  925.27   20.26
  -4  -3   1  301.98   12.15
  -4  -3   1  326.81   13.00
  -4  -3   1  328.93   12.47
  -4  -3   1  339.81   12.05
  -4  -3   1  318.07   11.10
  -4  -3   2  215.96   10.59
  -4  -3   2  216.70   10.96
  -4  -3   2  225.52    8.93
  -4  -3   2  239.50   11.62
  -4  -3   2  207.50   10.57
  -4  -3   3  733.07   23.06
  -4  -3   3  744.83   20.45
  -4  -3   3  750.64   15.72
  -4  -3   3  759.78   21.72
  -4  -3   3  746.47   21.11
  -4  -3   4 1231.64   28.59
  -4  -3   4 1228.94   33.61
  -4  -3   4 1262.79   19.47
  -4  -3   4 1215.76   26.90
  -4  -3   5 2393.21   39.07
  -4  -3   5 2487.16   42.77
  -4  -3   5 2501.30   25.57
  -4  -3   5 2361.51   52.26
  -4  -3   6  879.73   24.99
  -4  -3   6  892.70   35.11
  -4  -3   7  767.34   26.23
  -4  -3   7  780.57   36.04
  -4  -3   7  784.75   24.94
  -4  -3   8  406.65   28.35
  -4  -3   8  465.62   19.71
  -4  -3   8  439.63   20.95
  -4  -3   9  144.01   18.94
  -4  -3   9  130.65   10.83
  -4  -3   9  140.76   12.73
  -4  -2 -12  114.56   13.69
  -4  -2 -11   16.67    5.57
  -4  -2 -10   89.85    7.53
  -4  -2 -10  114.16   12.44
  -4  -2  -9  466.12   23.65
  -4  -2  -9  460.87   16.43
  -4  -2  -8  779.73   20.74
  -4  -2  -8  750.98   28.48
  -4  -2  -7  252.12    7.58
  -4  -2  -7  277.12   12.76
  -4  -2  -7  253.02   15.38
  -4  -2  -7  265.28    7.93
  -4  -2  -6 2999.55   27.58
  -4  -2  -6 3031.44   39.26
  -4  -2  -6 2969.51   28.06
  -4  -2  -6 3019.84   49.77
  -4  -2  -5 3026.42   28.51
  -4  -2  -5 2858.65   44.23
  -4  -2  -5 3002.27   29.17
  -4  -2  -5 2768.32   30.33
  -4  -2  -5 3085.62   38.60
  -4  -2  -4 1121.65   26.29
  -4  -2  -4 1134.33   18.73
  -4  -2  -4 1190.21   18.57
  -4  -2  -3  152.07    7.11
  -4  -2  -3  151.73    6.92
  -4  -2  -2  332.92   10.75
  -4  -2  -2  325.04   10.81
  -4  -2  -1  175.56    8.35
  -4  -2  -1  187.47    8.51
  -4  -2  -1  190.49    8.59
  -4  -2   0 3036.83   31.81
  -4  -2   0 3211.91   37.60
  -4  -2   1 3287.21   39.18
  -4  -2   1 3294.74   39.10
  -4  -2   2 2330.52   33.98
  -4  -2   2 2250.28   31.94
  -4  -2   3 1876.41   31.02
  -4  -2   3 1786.22   30.41
  -4  -2   3 1834.80   31.60
  -4  -2   4 1991.55   23.86
  -4  -2   4 2023.84   40.50
  -4  -2   4 2007.75   34.45
  -4  -2   4 2129.12   35.22
  -4  -2   4 2087.09   34.13
  -4  -2   5  654.18   20.71
  -4  -2   5  648.50   19.66
  -4  -2   5  656.48   25.13
  -4  -2   5  679.20   20.98
  -4  -2   6   83.75    7.90
  -4  -2   6  103.67   11.33
  -4  -2   6  102.19    8.03
  -4  -2   6   81.74    4.54
  -4  -2   7   39.76    7.95
  -4  -2   7   36.46    5.10
  -4  -2   7   35.88    5.65
  -4  -2   8  923.64   28.98
  -4  -2   8  927.55   26.50
  -4  -2   8  884.11   38.84
  -4  -2   9  629.00   35.75
  -4  -2   9  684.99   23.57
  -4  -2   9  680.97   26.23
  -4  -2  10  450.54   22.72
  -4  -2  10  400.81   18.60
  -4  -1 -12  113.79   14.19
  -4  -1 -11  606.39   31.89
  -4  -1 -10  518.73   17.07
  -4  -1 -10  550.69   29.04
  -4  -1  -9  850.77   34.24
  -4  -1  -9  894.36   21.93
  -4  -1  -8  239.84    8.22
  -4  -1  -8  257.22    8.43
  -4  -1  -8  247.00   11.65
  -4  -1  -8  267.45   18.23
  -4  -1  -7  406.31   10.88
  -4  -1  -7  431.78   11.15
  -4  -1  -7  406.87   14.29
  -4  -1  -7  405.31   21.16
  -4  -1  -6  283.43   11.78
  -4  -1  -6  270.46   16.49
  -4  -1  -6  284.65    9.22
  -4  -1  -6  282.01    9.17
  -4  -1  -5  834.18   15.90
  -4  -1  -5  850.22   27.19
  -4  -1  -5  866.75   16.17
  -4  -1  -4  812.51   15.93
  -4  -1  -4  818.88   15.77
  -4  -1  -4  849.34   24.81
  -4  -1  -3 3355.05   32.73
  -4  -1  -3 3325.01   51.25
  -4  -1  -3 3310.61   44.52
  -4  -1  -3 3342.53   33.18
  -4  -1  -2 3042.85   32.81
  -4  -1  -2 3121.79   32.55
  -4  -1  -1 2232.69   28.03
  -4  -1  -1 2194.38   28.24
  -4  -1  -1 2160.98   20.77
  -4  -1   0 4681.80   41.66
  -4  -1   0 5012.08   44.15
  -4  -1   1 1849.81   27.27
  -4  -1   1 1783.58   23.78
  -4  -1   1 1871.32   27.87
  -4  -1   2   45.36    4.57
  -4  -1   2   38.18    4.25
  -4  -1   2   41.72    4.12
  -4  -1   3  347.39   13.34
  -4  -1   3  356.69   13.66
  -4  -1   3  342.69   12.66
  -4  -1   4  207.29   10.49
  -4  -1   4  217.07   10.83
  -4  -1   5  848.16   22.72
  -4  -1   5  855.37   21.61
  -4  -1   5  850.32   22.25
  -4  -1   6 2121.01   38.31
  -4  -1   6 2018.21   47.16
  -4  -1   6 2093.32   36.62
  -4  -1   6 2106.74   35.40
  -4  -1   7 2230.62   37.33
  -4  -1   7 2223.09   53.53
  -4  -1   7 2247.80   41.88
  -4  -1   8 1141.97   41.66
  -4  -1   8 1134.68   27.29
  -4  -1   8 1061.57   30.36
  -4  -1   9  559.07   23.22
  -4  -1   9  486.23   18.92
  -4  -1   9  516.75   30.41
  -4  -1  10  133.68   17.01
  -4  -1  10  115.77    9.72
  -4  -1  10  113.37   11.28
  -4   0 -11   14.74    6.26
  -4   0 -10   16.06    6.58
  -4   0  -9   36.14    8.64
  -4   0  -9   30.51    4.15
  -4   0  -8  388.50   11.92
  -4   0  -8  406.50   24.86
  -4   0  -8  400.00   14.37
  -4   0  -8  386.44   11.99
  -4   0  -7  537.91   14.00
  -4   0  -7  562.72   16.51
  -4   0  -7  517.85   13.84
  -4   0  -7  543.16   26.97
  -4   0  -6 2634.16   30.51
  -4   0  -6 2713.79   56.93
  -4   0  -6 2626.68   30.75
  -4   0  -5 2735.59   31.07
  -4   0  -5 2687.58   52.84
  -4   0  -5 2796.22   31.07
  -4   0  -4 1472.72   22.35
  -4   0  -4 1424.61   22.22
  -4   0  -4 1497.69   36.59
  -4   0  -3 2376.91   28.45
  -4   0  -3 2401.32   42.88
  -4   0  -2   47.40    4.07
  -4   0  -2   52.21    4.25
  -4   0  -2   49.67    5.55
  -4   0  -1   82.22    5.42
  -4   0  -1   72.13    7.37
  -4   0  -1   74.56    5.26
  -4   0  -1   96.64    3.57
  -4   0  -1   91.97    6.84
  -4   0   0  187.32    8.40
  -4   0   0  164.67    9.93
  -4   0   0  192.42    8.59
  -4   0   0  199.42    6.42
  -4   0   1 1688.89   25.84
  -4   0   1 1677.16   25.97
  -4   0   1 1717.84   21.56
  -4   0   2 2604.09   32.42
  -4   0   2 2629.17   29.78
  -4   0   2 2694.50   33.58
  -4   0   3 4366.30   43.54
  -4   0   3 4341.17   42.09
  -4   0   3 4358.95   44.41
  -4   0   4 4268.75   45.71
  -4   0   4 4139.51   44.54
  -4   0   5 1800.88   31.76
  -4   0   5 1864.60   31.99
  -4   0   6  435.48   15.77
  -4   0   6  430.04   15.14
  -4   0   6  440.68   16.75
  -4   0   7   99.10    8.43
  -4   0   7  103.72    7.85
  -4   0   7  100.66    7.95
  -4   0   8    5.50    2.35
  -4   0   8    5.55    2.51
  -4   0   8    6.92    2.91
  -4   0   8    6.87    4.41
  -4   0   9  360.21   24.15
  -4   0   9  360.97   15.19
  -4   0  10  601.66   20.69
  -4   0  10  612.25   34.08
  -4   0  10  687.39   26.39
  -4   0  11  419.23   30.83
  -4   0  11  486.10   23.59
  -4   1 -11  300.23   26.05
  -4   1 -10  301.66   25.20
  -4   1  -9  605.12   34.21
  -4   1  -8  823.69   19.60
  -4   1  -8  778.75   37.25
  -4   1  -8  833.55   19.89
  -4   1  -8  841.81   19.76
  -4   1  -7 1058.48   21.72
  -4   1  -7  994.07   21.08
  -4   1  -6 1113.44   40.18
  -4   1  -6 1090.05   21.66
  -4   1  -6 1060.17   21.37
  -4   1  -5   62.69    5.20
  -4   1  -5   61.35    5.07
  -4   1  -5   69.77    9.80
  -4   1  -4  180.69    8.51
  -4   1  -4  206.15   15.38
  -4   1  -4  207.53    9.04
  -4   1  -3  697.98   16.38
  -4   1  -3  671.72   25.60
  -4   1  -3  687.87   16.22
  -4   1  -2 1968.86   27.58
  -4   1  -2 1995.51   40.77
  -4   1  -2 1949.31   27.56
  -4   1  -1 2072.98   28.06
  -4   1  -1 2018.58   13.74
  -4   1  -1 2023.60   36.33
  -4   1  -1 2079.11   28.08
  -4   1   0 5612.97   46.55
  -4   1   0 5730.17   52.89
  -4   1   1 3871.53   39.23
  -4   1   1 3755.02   30.17
  -4   1   1 3760.41   35.14
  -4   1   1 3858.30   38.76
  -4   1   2 2103.62   29.43
  -4   1   2 2044.87   29.38
  -4   1   3  608.29   15.32
  -4   1   3  590.17   15.96
  -4   1   3  625.04   16.51
  -4   1   4    4.76    1.93
  -4   1   4    1.35    1.19
  -4   1   4    0.03    1.27
  -4   1   4    1.40    1.24
  -4   1   5  348.58   12.92
  -4   1   5  352.31   13.26
  -4   1   5  358.09   13.82
  -4   1   5  365.54   13.47
  -4   1   6 1391.95   26.90
  -4   1   6 1369.00   27.56
  -4   1   6 1332.83   28.48
  -4   1   7 1987.46   36.96
  -4   1   7 1940.80   33.50
  -4   1   7 2049.78   33.71
  -4   1   7 1973.14   32.26
  -4   1   8 1578.93   30.17
  -4   1   8 1502.07   30.54
  -4   1   8 1608.97   35.16
  -4   1   9 1231.08   27.66
  -4   1   9 1178.90   31.89
  -4   1  10  411.09   19.76
  -4   1  10  392.39   15.93
  -4   1  10  410.99   26.97
  -4   1  11  271.89   23.75
  -4   1  11  299.23   18.02
  -4   2 -10  107.00   16.57
  -4   2  -9  202.59   21.85
  -4   2  -8    5.50    2.17
  -4   2  -8   11.44    5.94
  -4   2  -8    3.86    1.93
  -4   2  -7  139.31   16.94
  -4   2  -7  171.76    9.75
  -4   2  -7  151.68    9.17
  -4   2  -6 1016.45   22.99
  -4   2  -6  992.49   22.67
  -4   2  -5 2062.49   31.76
  -4   2  -5 2126.61   32.10
  -4   2  -5 2130.57   58.68
  -4   2  -4 1329.97   24.81
  -4   2  -4 1384.61   25.42
  -4   2  -3 2453.16   33.10
  -4   2  -3 2373.90   55.88
  -4   2  -3 2392.79   32.87
  -4   2  -2 2007.91   29.64
  -4   2  -2 2033.40   47.42
  -4   2  -2 1990.47   29.38
  -4   2  -2 1916.52   10.36
  -4   2  -1  667.26   16.80
  -4   2  -1  677.75   24.94
  -4   2  -1  697.59    9.04
  -4   2  -1  696.21   17.09
  -4   2   0   28.32    3.51
  -4   2   0   28.01    4.65
  -4   2   0   31.02    2.38
  -4   2   0   28.30    3.49
  -4   2   1   36.38    3.88
  -4   2   1   62.22    5.36
  -4   2   1   54.19    5.34
  -4   2   1   60.47    3.86
  -4   2   1   45.39    4.33
  -4   2   2  618.99   16.25
  -4   2   2  657.67   14.13
  -4   2   2  603.85   15.83
  -4   2   2  635.05   14.27
  -4   2   3 3385.57   38.31
  -4   2   3 3301.16   38.04
  -4   2   3 3336.72   35.35
  -4   2   3 3360.47   40.53
  -4   2   4 5149.49   51.07
  -4   2   4 5079.98   47.08
  -4   2   4 5035.46   48.45
  -4   2   5 2984.67   39.47
  -4   2   5 2891.30   36.83
  -4   2   5 2960.16   37.67
  -4   2   5 2898.20   38.49
  -4   2   6 1439.67   29.11
  -4   2   6 1501.23   28.88
  -4   2   6 1443.63   27.29
  -4   2   7  741.18   20.61
  -4   2   7  742.98   20.05
  -4   2   7  743.14   20.16
  -4   2   7  734.47   22.19
  -4   2   8  293.74   13.21
  -4   2   8  329.14   14.06
  -4   2   8  316.54   13.58
  -4   2   8  274.74   14.37
  -4   2   9    9.83    2.80
  -4   2   9   11.92    3.17
  -4   2   9    0.66    1.29
  -4   2   9    7.34    2.77
  -4   2  10  335.40   14.56
  -4   2  10  361.77   15.46
  -4   2  10  356.38   15.56
  -4   2  10  333.39   17.67
  -4   2  11  216.40   20.90
  -4   2  11  225.07   15.40
  -4   2  12  467.52   31.89
  -4   2  12  510.96   24.12
  -4   3  -9  298.76   28.72
  -4   3  -8  663.22   40.95
  -4   3  -8  649.03   21.06
  -4   3  -8  685.12   21.74
  -4   3  -7  770.16   42.46
  -4   3  -7  736.40   21.77
  -4   3  -7  818.78   23.14
  -4   3  -6  835.05   42.99
  -4   3  -6  860.55   22.88
  -4   3  -6  886.15   23.41
  -4   3  -5  336.93   13.92
  -4   3  -5  352.73   14.37
  -4   3  -5  376.40   27.53
  -4   3  -4  125.92   15.61
  -4   3  -4  132.39    8.61
  -4   3  -4  144.23    8.93
  -4   3  -3    4.17    1.72
  -4   3  -3    5.87    4.15
  -4   3  -3    2.51    1.59
  -4   3  -3    4.41    0.95
  -4   3  -2  429.53   14.69
  -4   3  -2  452.91   15.03
  -4   3  -2  428.32    8.64
  -4   3  -1 1478.53   43.54
  -4   3  -1 1472.83   26.55
  -4   3  -1 1463.26   26.63
  -4   3   0 3239.54   58.76
  -4   3   0 3312.94   39.60
  -4   3   0 3373.15   39.31
  -4   3   0 3379.33   27.24
  -4   3   0 3325.91   39.42
  -4   3   1 5819.94   51.76
  -4   3   1 5347.61   65.07
  -4   3   1 5509.06   38.12
  -4   3   1 5698.75   50.83
  -4   3   1 5651.14   51.62
  -4   3   2 2971.83   36.99
  -4   3   2 3009.11   38.36
  -4   3   2 3024.70   37.44
  -4   3   3  733.63   18.26
  -4   3   3  735.00   18.28
  -4   3   3  724.75   15.14
  -4   3   3  756.16   19.68
  -4   3   3  783.14   17.09
  -4   3   4  849.16   19.87
  -4   3   4  824.46   19.76
  -4   3   4  844.22   19.23
  -4   3   4  831.11   20.82
  -4   3   5  170.06    9.01
  -4   3   5  158.89    9.46
  -4   3   5  172.18    9.27
  -4   3   5  161.72    9.09
  -4   3   6  188.51    9.72
  -4   3   6  190.01   10.54
  -4   3   6  210.35   10.38
  -4   3   6  184.49   10.49
  -4   3   7  919.65   21.58
  -4   3   7 1003.82   24.49
  -4   3   7  940.52   22.32
  -4   3   7  997.61   25.68
  -4   3   8 1238.98   28.24
  -4   3   8 1280.62   26.50
  -4   3   8 1284.00   30.86
  -4   3   8 1298.96   26.97
  -4   3   9 1713.72   32.39
  -4   3   9 1667.51   33.79
  -4   3   9 1605.95   36.54
  -4   3  10  856.66   22.32
  -4   3  10  881.89   23.38
  -4   3  10  865.35   25.13
  -4   3  10  937.06   29.83
  -4   3  11  528.45   23.30
  -4   3  11  559.92   20.48
  -4   3  12  390.41   29.19
  -4   3  12  394.58   21.32
  -4   4  -8   50.12    6.60
  -4   4  -8   57.12   13.26
  -4   4  -8   51.36    6.60
  -4   4  -7   18.44    4.20
  -4   4  -7   21.48    4.36
  -4   4  -6  113.24    9.11
  -4   4  -6  108.88   17.57
  -4   4  -6  122.88    9.54
  -4   4  -5  483.03   33.87
  -4   4  -5  498.44   18.31
  -4   4  -5  478.25   18.02
  -4   4  -4 1081.81   26.39
  -4   4  -4 1099.72   26.71
  -4   4  -3 1046.25   25.20
  -4   4  -3 1101.15   26.13
  -4   4  -2 1766.32   22.19
  -4   4  -2 1728.33   31.73
  -4   4  -2 1805.21   32.55
  -4   4  -1 2436.75   36.80
  -4   4  -1 2450.65   33.92
  -4   4  -1 2380.43   36.33
  -4   4   0 1287.89   25.13
  -4   4   0 1305.90   26.37
  -4   4   0 1329.87   26.58
  -4   4   1  546.23   16.91
  -4   4   1  522.72   16.35
  -4   4   1  553.86   17.09
  -4   4   2  368.82   13.74
  -4   4   2  403.96   14.24
  -4   4   2  337.30   17.81
  -4   4   2  431.86   14.95
  -4   4   2  405.60   12.05
  -4   4   3 1606.62   29.59
  -4   4   3 1602.84   32.29
  -4   4   3 1621.38   25.50
  -4   4   3 1686.77   29.25
  -4   4   3 1648.33   28.64
  -4   4   4 1977.92   31.33
  -4   4   4 1890.28   29.72
  -4   4   4 1927.33   31.10
  -4   4   4 1938.21   25.18
  -4   4   4 1988.99   33.66
  -4   4   5 1477.40   27.50
  -4   4   5 1477.11   29.51
  -4   4   5 1474.62   27.32
  -4   4   5 1488.07   28.03
  -4   4   6 1402.73   26.87
  -4   4   6 1405.16   27.13
  -4   4   6 1405.38   28.69
  -4   4   6 1353.88   28.88
  -4   4   7 2506.74   36.41
  -4   4   7 2561.61   37.36
  -4   4   7 2629.06   41.27
  -4   4   8 1164.77   24.91
  -4   4   8 1161.71   28.16
  -4   4   8 1202.55   30.20
  -4   4   9  147.48    9.09
  -4   4   9  157.46   10.75
  -4   4   9  128.32    8.69
  -4   4   9  153.95   11.31
  -4   4  10    3.22    2.06
  -4   4  10    3.43    2.27
  -4   4  10    1.74    2.14
  -4   4  10    1.61    2.27
  -4   4  11    9.43    3.46
  -4   4  11    7.45    3.91
  -4   4  12  453.28   22.77
  -4   5  -7  511.38   41.35
  -4   5  -7  578.38   22.51
  -4   5  -7  565.15   22.54
  -4   5  -6  738.20   24.73
  -4   5  -6  781.74   25.57
  -4   5  -5  604.93   21.72
  -4   5  -5  623.93   22.32
  -4   5  -4  519.86   19.52
  -4   5  -4  541.61   20.13
  -4   5  -3  209.06   12.15
  -4   5  -3  193.31   11.81
  -4   5  -2    4.07    1.82
  -4   5  -2    7.69    2.75
  -4   5  -2    2.88    2.01
  -4   5  -1  533.73   18.52
  -4   5  -1  541.24   16.70
  -4   5  -1  575.79   19.37
  -4   5   0  296.69   13.55
  -4   5   0  302.53   12.68
  -4   5   0  290.83   13.37
  -4   5   1 1489.79   29.67
  -4   5   1 1482.52   28.32
  -4   5   1 1430.79   29.06
  -4   5   2 5072.45   53.66
  -4   5   2 5081.88   54.03
  -4   5   3 1719.80   31.10
  -4   5   3 1718.48   30.88
  -4   5   3 1701.41   31.57
  -4   5   3 1686.98   27.95
  -4   5   4 1442.92   28.27
  -4   5   4 1487.57   28.69
  -4   5   4 1478.56   27.27
  -4   5   4 1413.78   29.27
  -4   5   5  537.04   18.52
  -4   5   5  502.87   16.62
  -4   5   5  496.14   13.37
  -4   5   5  491.70   16.49
  -4   5   5  477.33   16.30
  -4   5   6   63.86    6.05
  -4   5   6   66.55    6.74
  -4   5   6   63.22    6.05
  -4   5   6   55.59    6.08
  -4   5   7   38.26    4.76
  -4   5   7   35.46    4.57
  -4   5   7   45.26    5.65
  -4   5   7   37.25    5.26
  -4   5   8  480.89   16.54
  -4   5   8  521.82   17.44
  -4   5   8  511.17   19.68
  -4   5   9  765.86   21.29
  -4   5   9  776.64   20.90
  -4   5   9  833.78   25.39
  -4   5   9  763.69   25.63
  -4   5  10  914.05   23.09
  -4   5  10  977.27   28.40
  -4   5  10  903.93   23.33
  -4   5  10  938.72   30.15
  -4   5  11  571.65   22.48
  -4   5  11  549.48   23.99
  -4   5  12  682.64   25.15
  -4   5  12  607.71   26.42
  -4   6  -6   21.61    4.99
  -4   6  -6   30.94    5.81
  -4   6  -5   10.12    4.07
  -4   6  -5   13.82    3.96
  -4   6  -4  352.15   17.38
  -4   6  -4  416.03   19.08
  -4   6  -3  462.03   19.31
  -4   6  -3  477.86   19.87
  -4   6  -2  999.38   27.61
  -4   6  -2  984.56   22.83
  -4   6  -2  997.90   27.95
  -4   6  -1 2894.79   46.63
  -4   6  -1 3035.79   40.90
  -4   6  -1 2970.27   46.37
  -4   6   0 1436.55   28.74
  -4   6   0 1468.44   31.99
  -4   6   0 1417.69   31.76
  -4   6   1  396.83   16.54
  -4   6   1  383.22   16.22
  -4   6   1  378.91   15.09
  -4   6   2   24.73    4.10
  -4   6   2   19.13    3.67
  -4   6   2   27.48    4.41
  -4   6   3   22.22    3.80
  -4   6   3   26.97    4.44
  -4   6   3   19.60    3.67
  -4   6   4   12.52    2.99
  -4   6   4   13.55    2.88
  -4   6   4   10.94    2.88
  -4   6   4   11.65    3.01
  -4   6   5 1567.14   30.81
  -4   6   5 1604.32   33.29
  -4   6   5 1562.84   30.81
  -4   6   5 1558.77   30.75
  -4   6   6 1357.69   30.01
  -4   6   6 1351.00   28.61
  -4   6   6 1343.13   28.48
  -4   6   6 1425.32   31.97
  -4   6   7 1946.93   34.37
  -4   6   7 2009.31   38.28
  -4   6   7 1923.10   38.02
  -4   6   7 1989.65   34.64
  -4   6   8 1504.21   29.99
  -4   6   8 1513.91   30.51
  -4   6   8 1483.02   34.29
  -4   6   8 1538.19   35.03
  -4   6   9  530.83   17.99
  -4   6   9  540.18   21.27
  -4   6   9  537.83   18.39
  -4   6   9  534.55   21.61
  -4   6  10  184.33   12.71
  -4   6  10  209.61   14.40
  -4   6  11   15.69    4.52
  -4   6  11   17.94    5.07
  -4   6  12   43.57    6.95
  -4   6  12   42.96    7.56
  -4   7  -5  585.91   24.78
  -4   7  -5  564.33   23.94
  -4   7  -4  409.01   19.92
  -4   7  -4  410.96   20.26
  -4   7  -3  288.35   16.41
  -4   7  -3  286.15   16.41
  -4   7  -2  469.69   16.41
  -4   7  -2  456.69   20.05
  -4   7  -2  423.64   19.58
  -4   7  -1   14.77    3.36
  -4   7  -1   18.39    4.28
  -4   7  -1   27.11    5.10
  -4   7   0   79.44    8.24
  -4   7   0   66.45    6.63
  -4   7   0   55.96    6.84
  -4   7   1  520.29   20.16
  -4   7   1  476.19   17.75
  -4   7   1  523.22   19.95
  -4   7   2 2796.54   45.52
  -4   7   2 2849.75   45.81
  -4   7   3  706.23   22.27
  -4   7   3  701.79   22.51
  -4   7   3  729.93   22.83
  -4   7   4  684.27   22.35
  -4   7   4  669.80   21.69
  -4   7   4  660.57   21.45
  -4   7   5 1158.17   29.54
  -4   7   5 1257.56   29.30
  -4   7   5 1256.45   29.85
  -4   7   5 1214.99   28.72
  -4   7   6  894.02   25.39
  -4   7   6  908.18   24.68
  -4   7   6  916.53   26.87
  -4   7   6  894.42   24.76
  -4   7   7  313.79   14.37
  -4   7   7  310.54   15.64
  -4   7   7  315.43   16.14
  -4   7   7  319.55   14.64
  -4   7   8  126.82    9.17
  -4   7   8  108.29    9.75
  -4   7   8  132.63    9.48
  -4   7   8  116.48   10.09
  -4   7   9  114.90    8.74
  -4   7   9  135.14    9.54
  -4   7   9  132.02   11.04
  -4   7   9  121.13   10.75
  -4   7  10  427.55   20.37
  -4   7  10  405.07   20.16
  -4   7  11  846.57   29.41
  -4   7  11  807.31   29.85
  -4   8  -3  153.74   12.87
  -4   8  -3  157.09   13.08
  -4   8  -2  336.01   18.76
  -4   8  -2  306.47   17.73
  -4   8  -1  779.70   27.29
  -4   8  -1  804.83   28.08
  -4   8   0  661.02   24.41
  -4   8   0  667.87   21.45
  -4   8   0  632.54   24.09
  -4   8   1 1000.02   29.51
  -4   8   1  944.43   26.08
  -4   8   1  960.04   29.27
  -4   8   2  445.23   19.52
  -4   8   2  431.99   17.99
  -4   8   2  474.26   20.13
  -4   8   3  159.07   11.52
  -4   8   3  162.72   11.62
  -4   8   3  155.72   11.07
  -4   8   4  259.34   14.29
  -4   8   4  238.94   13.76
  -4   8   4  228.11   13.69
  -4   8   5  403.27   17.62
  -4   8   5  388.82   17.97
  -4   8   5  371.91   16.94
  -4   8   6  509.59   19.63
  -4   8   6  494.45   20.71
  -4   8   6  480.10   19.00
  -4   8   6  549.11   21.24
  -4   8   7  668.84   23.88
  -4   8   7  638.70   21.88
  -4   8   7  642.79   21.98
  -4   8   7  659.68   24.52
  -4   8   8 1064.48   27.87
  -4   8   8 1094.47   28.06
  -4   8   8 1161.94   32.50
  -4   8   8 1089.63   32.05
  -4   8   9  665.94   22.01
  -4   8   9  669.19   21.82
  -4   8   9  692.41   26.21
  -4   8   9  687.39   26.26
  -4   8  10  446.26   21.72
  -4   8  10  443.85   21.93
  -4   8  11  166.95   13.66
  -4   8  11  161.82   13.92
  -4   9  -1  166.89   13.71
  -4   9  -1  160.47   13.50
  -4   9   0   16.06    4.52
  -4   9   0   18.49    4.97
  -4   9   1    8.85    3.46
  -4   9   1    1.80    2.48
  -4   9   1    2.01    2.51
  -4   9   2  113.53    9.96
  -4   9   2  127.05   11.07
  -4   9   2  142.14   11.97
  -4   9   3  282.27   16.27
  -4   9   3  253.21   14.66
  -4   9   3  247.16   15.16
  -4   9   4  894.28   28.56
  -4   9   4  898.62   28.59
  -4   9   4  868.29   27.77
  -4   9   5 1309.42   34.58
  -4   9   5 1317.16   33.98
  -4   9   5 1322.23   34.03
  -4   9   6  638.04   23.43
  -4   9   6  595.21   23.67
  -4   9   6  651.30   23.54
  -4   9   7  548.87   21.48
  -4   9   7  521.50   22.35
  -4   9   7  512.89   20.66
  -4   9   7  533.73   22.96
  -4   9   8   54.95    7.00
  -4   9   8   33.08    5.94
  -4   9   8   40.55    6.18
  -4   9   8   34.32    6.26
  -4   9   9    3.49    3.28
  -4   9   9    4.17    3.01
  -4   9  10   68.45    8.85
  -4   9  10   73.24    9.33
  -4  10   1  526.10   24.49
  -4  10   1  519.47   24.83
  -4  10   2  511.33   23.72
  -4  10   2  437.22   19.79
  -4  10   2  470.88   22.99
  -4  10   3  213.45   15.22
  -4  10   3  184.62   13.21
  -4  10   3  209.80   15.14
  -4  10   4  313.63   18.18
  -4  10   4  317.75   17.52
  -4  10   4  331.94   18.52
  -4  10   5   57.62    8.03
  -4  10   5   38.20    6.24
  -4  10   5   46.10    7.19
  -4  10   6   45.42    6.87
  -4  10   6   44.36    7.16
  -4  10   6   47.34    7.11
  -4  10   7  268.61   15.98
  -4  10   7  282.03   17.60
  -4  10   7  244.09   15.30
  -4  10   8  369.90   18.65
  -4  10   8  430.06   22.01
  -4  10   8  408.93   19.44
  -4  10   8  447.34   22.30
  -3 -11  -5  382.00   18.07
  -3 -11  -4  228.74   14.56
  -3 -11  -3  453.21   21.03
  -3 -10  -6  238.73   12.68
  -3 -10  -5  186.68   11.84
  -3 -10  -4   -1.64    2.48
  -3 -10  -3    5.92    2.80
  -3 -10  -2  456.46   20.13
  -3 -10  -1  492.28   21.66
  -3 -10   0  426.31   20.79
  -3  -9  -6  110.25    8.01
  -3  -9  -5  617.03   19.50
  -3  -9  -4  528.55   18.84
  -3  -9  -3 1010.45   27.05
  -3  -9  -2 1574.59   35.09
  -3  -9  -1  138.25   10.86
  -3  -9   0   17.52    4.20
  -3  -9   1    0.82    2.06
  -3  -9   2    9.46    3.54
  -3  -8  -7  671.41   16.33
  -3  -8  -6  712.15   18.10
  -3  -8  -5 1033.65   23.14
  -3  -8  -4  391.81   14.87
  -3  -8  -3  170.88   10.28
  -3  -8  -2  246.02   12.73
  -3  -8  -1  600.58   20.74
  -3  -8   0  456.43   18.68
  -3  -8   1 1154.23   30.94
  -3  -8   2  570.85   22.51
  -3  -8   3  390.35   19.31
  -3  -8   4  394.08   19.95
  -3  -7  -7   12.34    2.06
  -3  -7  -6   14.24    2.43
  -3  -7  -5  223.91    9.78
  -3  -7  -4 1333.49   25.36
  -3  -7  -3 1350.40   26.60
  -3  -7  -2 1629.81   30.54
  -3  -7  -1 1020.62   25.20
  -3  -7   0 1179.83   26.63
  -3  -7   0 1223.66   28.82
  -3  -7   1  374.95   16.57
  -3  -7   1  362.32   17.99
  -3  -7   2    5.23    4.25
  -3  -7   2    6.10    2.38
  -3  -7   3   58.36    7.05
  -3  -7   3   55.38    9.27
  -3  -7   4  325.15   23.20
  -3  -7   4  396.03   18.78
  -3  -7   5  479.76   21.43
  -3  -7   5  443.14   29.56
  -3  -7   6  403.99   20.42
  -3  -6  -7 1019.80   14.85
  -3  -6  -7 1041.23   26.02
  -3  -6  -6 1871.58   33.95
  -3  -6  -6 1848.04   22.99
  -3  -6  -5 2272.95   36.30
  -3  -6  -5 2106.13   27.05
  -3  -6  -4 1821.17   26.63
  -3  -6  -4 1919.35   32.31
  -3  -6  -3 1133.73   22.40
  -3  -6  -3 1125.88   24.15
  -3  -6  -2   17.12    3.12
  -3  -6  -2   13.16    2.85
  -3  -6  -1  452.86   14.69
  -3  -6  -1  466.02   15.75
  -3  -6   0   13.26    2.85
  -3  -6   0   32.44    4.36
  -3  -6   1  244.75   12.36
  -3  -6   1  222.88   13.47
  -3  -6   2 1827.01   34.98
  -3  -6   2 1878.11   44.15
  -3  -6   3 2278.60   40.29
  -3  -6   3 2339.00   55.35
  -3  -6   4 1107.12   29.43
  -3  -6   4 1064.80   40.92
  -3  -6   5  558.94   21.72
  -3  -6   5  603.22   33.47
  -3  -6   6   71.25   13.08
  -3  -6   6   72.31    8.30
  -3  -6   7   -8.90    8.27
  -3  -6   7    1.69    2.69
  -3  -5  -9  930.51   24.91
  -3  -5  -8  924.67   24.02
  -3  -5  -7  908.66   11.20
  -3  -5  -7  944.19   23.43
  -3  -5  -6  481.45   10.33
  -3  -5  -6  450.48   10.15
  -3  -5  -6  463.32   15.96
  -3  -5  -5    7.48    1.64
  -3  -5  -5    5.73    1.64
  -3  -5  -5    4.28    1.85
  -3  -5  -4  461.84   15.11
  -3  -5  -4  414.39   11.60
  -3  -5  -3 1080.91   22.46
  -3  -5  -3 1170.56   20.90
  -3  -5  -2 1910.94   29.04
  -3  -5  -2 2052.58   29.67
  -3  -5  -1 3366.89   37.33
  -3  -5  -1 3581.31   40.69
  -3  -5   0 3629.63   42.83
  -3  -5   0 3489.92   36.59
  -3  -5   0 3582.74   40.61
  -3  -5   1  791.78   16.78
  -3  -5   1  766.60   23.59
  -3  -5   1  805.28   20.90
  -3  -5   2  332.15   10.46
  -3  -5   2  324.01   13.82
  -3  -5   2  316.51   17.33
  -3  -5   3  333.79   14.64
  -3  -5   3  314.37   19.21
  -3  -5   4   36.41    5.44
  -3  -5   4   33.87    4.91
  -3  -5   5  581.10   20.69
  -3  -5   5  591.06   31.31
  -3  -5   5  611.88   22.59
  -3  -5   6 1211.82   33.34
  -3  -5   6 1134.28   46.16
  -3  -5   6 1136.71   30.28
  -3  -5   7  500.23   20.92
  -3  -5   7  490.62   32.87
  -3  -5   7  495.19   22.46
  -3  -5   8  669.06   24.99
  -3  -5   8  656.16   41.19
  -3  -5   8  724.17   28.45
  -3  -4  -9    6.50    2.51
  -3  -4  -8  256.38   11.94
  -3  -4  -7  332.02   13.37
  -3  -4  -7  254.08    4.68
  -3  -4  -6 1723.23   29.51
  -3  -4  -6 1785.00   17.09
  -3  -4  -6 1710.39   16.41
  -3  -4  -5 3266.10   26.58
  -3  -4  -5 3184.19   26.34
  -3  -4  -5 3292.94   39.42
  -3  -4  -4 2391.20   24.76
  -3  -4  -4 2337.86   26.29
  -3  -4  -3 1704.26   26.68
  -3  -4  -3 1613.01   21.72
  -3  -4  -2 1738.42   24.17
  -3  -4  -2 1813.56   26.37
  -3  -4  -1 1136.55   20.32
  -3  -4  -1 1088.13   20.29
  -3  -4   0    8.22    1.90
  -3  -4   0   11.28    2.11
  -3  -4   0   11.84    2.32
  -3  -4   1  208.48    8.16
  -3  -4   1  213.66    9.93
  -3  -4   1  222.51   11.36
  -3  -4   2 1977.95   23.94
  -3  -4   2 2072.19   32.63
  -3  -4   2 1970.39   38.52
  -3  -4   2 2029.28   33.50
  -3  -4   3 3543.45   45.18
  -3  -4   3 3529.13   57.81
  -3  -4   3 3484.91   29.67
  -3  -4   4 1431.61   30.91
  -3  -4   4 1312.17   38.94
  -3  -4   4 1354.86   28.67
  -3  -4   5 1610.63   47.29
  -3  -4   5 1553.59   31.84
  -3  -4   5 1655.70   35.01
  -3  -4   6  650.85   21.45
  -3  -4   6  681.84   33.37
  -3  -4   6  653.36   22.96
  -3  -4   7  208.53   20.32
  -3  -4   7  222.85   12.97
  -3  -4   7  227.47   14.32
  -3  -4   8   73.21    7.98
  -3  -4   8   57.44   12.29
  -3  -4   8   62.06    8.03
  -3  -4   9   13.21    8.56
  -3  -4   9   17.46    4.41
  -3  -4   9   24.78    5.60
  -3  -3 -13   79.68   10.54
  -3  -3 -12   24.23    6.02
  -3  -3 -11  140.47   12.36
  -3  -3 -10  327.66   18.04
  -3  -3 -10  309.40   13.32
  -3  -3  -9 1123.95   24.52
  -3  -3  -9 1038.51   29.93
  -3  -3  -8 1988.67   39.13
  -3  -3  -8 1784.79   30.09
  -3  -3  -7 2244.65   32.81
  -3  -3  -6 1264.11   14.58
  -3  -3  -6 1318.53   13.47
  -3  -3  -6 1295.73   13.71
  -3  -3  -6 1331.95   24.49
  -3  -3  -5  668.05   11.31
  -3  -3  -5  662.34   10.94
  -3  -3  -5  635.40   16.54
  -3  -3  -5  633.49   10.57
  -3  -3  -4  190.14    6.37
  -3  -3  -4  206.55    9.30
  -3  -3  -4  199.73    6.79
  -3  -3  -4  201.37    6.63
  -3  -3  -3  767.97   17.12
  -3  -3  -3  721.26   13.47
  -3  -3  -3  755.08   14.24
  -3  -3  -3  739.68   13.87
  -3  -3  -2 1880.59   23.33
  -3  -3  -2 1934.64   26.00
  -3  -3  -2 1847.33   23.96
  -3  -3  -2 1901.43   25.20
  -3  -3  -1 1444.40   21.88
  -3  -3  -1 1441.44   21.80
  -3  -3  -1 1479.17   22.91
  -3  -3   0 3342.19   32.02
  -3  -3   0 3416.11   36.86
  -3  -3   0 3324.80   28.90
  -3  -3   1 4128.76   42.62
  -3  -3   1 4054.97   33.90
  -3  -3   1 4059.46   40.32
  -3  -3   1 4039.19   40.98
  -3  -3   2 5003.91   53.26
  -3  -3   2 5069.30   47.29
  -3  -3   2 5247.21   37.38
  -3  -3   2 5252.58   49.67
  -3  -3   3 1336.68   31.28
  -3  -3   3 1364.48   25.44
  -3  -3   3 1400.20   18.49
  -3  -3   3 1404.98   27.58
  -3  -3   4  317.46   17.15
  -3  -3   4  302.51    7.77
  -3  -3   4  298.97   12.47
  -3  -3   4  295.24   13.21
  -3  -3   5   27.74    2.11
  -3  -3   5   37.01    4.73
  -3  -3   5   33.02    4.81
  -3  -3   6 1098.54   26.53
  -3  -3   6 1037.08   38.47
  -3  -3   6 1135.73   28.77
  -3  -3   7  200.55   11.70
  -3  -3   7  227.90   13.61
  -3  -3   8  647.97   21.74
  -3  -3   8  724.43   37.54
  -3  -3   8  714.13   25.39
  -3  -3   9  817.24   25.50
  -3  -3   9  902.21   30.15
  -3  -3   9  793.49   42.62
  -3  -3  10  508.40   36.70
  -3  -3  10  495.16   20.69
  -3  -3  10  541.37   24.83
  -3  -2 -12  791.64   33.08
  -3  -2 -11  591.46   27.64
  -3  -2 -10  608.21   26.50
  -3  -2 -10  659.68   18.31
  -3  -2  -9  448.16   14.72
  -3  -2  -9  469.03   22.43
  -3  -2  -8   50.75    7.13
  -3  -2  -8   60.74    5.39
  -3  -2  -7   54.27    2.59
  -3  -2  -7   54.69    4.94
  -3  -2  -7   56.78    2.69
  -3  -2  -7   67.61    7.74
  -3  -2  -7   57.46    2.75
  -3  -2  -6  519.55    8.77
  -3  -2  -6  502.85    8.59
  -3  -2  -6  555.93   15.48
  -3  -2  -6  509.00    8.90
  -3  -2  -6  514.82   19.26
  -3  -2  -6  519.31   11.57
  -3  -2  -5 1482.89   16.04
  -3  -2  -5 1518.06   16.46
  -3  -2  -5 1522.49   30.44
  -3  -2  -5 1548.57   24.52
  -3  -2  -5 1481.70   18.07
  -3  -2  -4 2275.14   21.19
  -3  -2  -4 2254.06   21.45
  -3  -2  -4 2291.05   32.44
  -3  -2  -4 2223.65   28.59
  -3  -2  -4 2233.77   21.43
  -3  -2  -3 5455.59   44.17
  -3  -2  -2 7814.72   47.08
  -3  -2  -1 3422.45   31.92
  -3  -2  -1 3467.86   32.55
  -3  -2  -1 3456.42   27.77
  -3  -2   0   23.78    2.91
  -3  -2   0   20.95    2.38
  -3  -2   0   21.85    2.72
  -3  -2   0   23.62    2.64
  -3  -2   1   26.63    3.04
  -3  -2   1   27.82    2.69
  -3  -2   1   23.49    2.99
  -3  -2   1   26.92    3.12
  -3  -2   2   52.84    4.54
  -3  -2   2   58.86    4.91
  -3  -2   2   38.39    3.17
  -3  -2   2   36.49    3.80
  -3  -2   3 2690.80   26.47
  -3  -2   3 2701.80   34.21
  -3  -2   3 2629.19   34.87
  -3  -2   3 2715.27   40.87
  -3  -2   3 2617.33   34.53
  -3  -2   4 2614.37   34.69
  -3  -2   4 2420.69   42.80
  -3  -2   4 2550.46   26.31
  -3  -2   4 2793.84   38.15
  -3  -2   4 2687.37   37.04
  -3  -2   5 3079.57   54.37
  -3  -2   5 3239.41   30.70
  -3  -2   5 3140.68   39.42
  -3  -2   5 3329.03   23.86
  -3  -2   5 3168.92   43.25
  -3  -2   6 1458.90   31.23
  -3  -2   6 1402.07   27.85
  -3  -2   7  881.97   25.65
  -3  -2   7  877.98   23.33
  -3  -2   7  845.54   34.43
  -3  -2   8 1168.36   30.86
  -3  -2   8 1126.49   27.11
  -3  -2   8 1174.33   44.39
  -3  -2   9   22.35    4.12
  -3  -2   9   27.71    5.36
  -3  -2   9   19.58    8.01
  -3  -2  10    0.55    2.14
  -3  -2  10    2.88    3.25
  -3  -2  10    1.06    5.50
  -3  -1 -12  174.45   17.52
  -3  -1 -11   -2.32    3.70
  -3  -1 -10  228.58   18.23
  -3  -1  -9  612.04   27.87
  -3  -1  -9  649.93   16.94
  -3  -1  -8 1352.88   23.70
  -3  -1  -8 1278.11   16.01
  -3  -1  -8 1322.60   39.26
  -3  -1  -8 1277.64   16.14
  -3  -1  -7 1340.62   16.62
  -3  -1  -7 1423.97   38.23
  -3  -1  -7 1407.36   24.17
  -3  -1  -7 1370.74   16.94
  -3  -1  -7 1310.42   16.70
  -3  -1  -6 2278.87   29.54
  -3  -1  -6 2296.33   21.74
  -3  -1  -6 2235.09   21.66
  -3  -1  -6 2323.89   46.02
  -3  -1  -6 2327.82   21.77
  -3  -1  -5 2725.07   23.65
  -3  -1  -5 2730.28   30.46
  -3  -1  -5 2601.59   22.99
  -3  -1  -5 2702.30   46.13
  -3  -1  -5 2831.83   32.63
  -3  -1  -5 2662.88   23.17
  -3  -1  -4 1062.63   15.14
  -3  -1  -4 1079.94   15.01
  -3  -1  -4 1086.99   26.60
  -3  -1  -4 1041.87   27.45
  -3  -1  -4 1045.30   17.15
  -3  -1  -3  784.06   13.18
  -3  -1  -3  755.21   13.02
  -3  -1  -3  754.13   19.79
  -3  -1  -3  756.45   21.45
  -3  -1  -2  156.27    6.10
  -3  -1  -2  160.92    9.01
  -3  -1  -2  169.51    6.29
  -3  -1  -2  153.18    7.90
  -3  -1  -2  165.47    6.37
  -3  -1  -1 1346.93   18.47
  -3  -1  -1 1349.10   18.28
  -3  -1  -1 1395.02   19.13
  -3  -1  -1 1357.95   22.62
  -3  -1   0 3903.37   32.89
  -3  -1   0 3974.23   34.00
  -3  -1   3 3431.19   36.86
  -3  -1   3 3372.67   35.35
  -3  -1   3 3406.31   24.12
  -3  -1   3 3440.97   36.83
  -3  -1   4  866.28   18.78
  -3  -1   4  915.79   12.71
  -3  -1   4  874.36   20.13
  -3  -1   4  874.28   19.50
  -3  -1   5  902.26   20.29
  -3  -1   5  894.42   12.73
  -3  -1   5  895.02   27.48
  -3  -1   5  905.78   21.16
  -3  -1   5  881.13   21.74
  -3  -1   6   22.91    3.75
  -3  -1   6   16.30    4.25
  -3  -1   6   23.59    2.22
  -3  -1   6   27.74    3.83
  -3  -1   7    6.13    1.96
  -3  -1   7    7.61    3.70
  -3  -1   7    6.84    2.48
  -3  -1   8  565.60   18.15
  -3  -1   8  571.14   28.98
  -3  -1   8  529.32   20.42
  -3  -1   9 1434.36   30.17
  -3  -1   9 1430.16   50.36
  -3  -1   9 1470.63   35.88
  -3  -1  10  825.86   23.62
  -3  -1  10  811.11   28.30
  -3  -1  11  797.69   44.20
  -3  -1  11  867.86   30.65
  -3   0 -12  251.68   22.38
  -3   0 -11  660.28   34.21
  -3   0 -10  694.02   33.87
  -3   0  -9  871.09   18.36
  -3   0  -9  889.48   37.25
  -3   0  -8  590.06   13.45
  -3   0  -8  617.35   15.32
  -3   0  -8  582.74   28.69
  -3   0  -8  590.32   13.39
  -3   0  -7   27.66    6.24
  -3   0  -7   19.08    2.83
  -3   0  -7   17.28    2.32
  -3   0  -7   21.11    2.56
  -3   0  -6   61.27    8.67
  -3   0  -6   50.73    3.78
  -3   0  -6   57.30    3.99
  -3   0  -6   53.24    4.49
  -3   0  -6   51.10    3.83
  -3   0  -5  317.06    9.14
  -3   0  -5  285.04    8.69
  -3   0  -5  313.71   17.67
  -3   0  -5  275.85    8.53
  -3   0  -4 1181.97   17.20
  -3   0  -4 1250.61   17.91
  -3   0  -4 1278.22   32.63
  -3   0  -4 1182.63   22.32
  -3   0  -4 1245.51   17.67
  -3   0  -3 3415.92   29.48
  -3   0  -3 3261.39   33.42
  -3   0  -3 3397.88   48.98
  -3   0  -3 3231.57   51.91
  -3   0  -2 9275.07   79.87
  -3   0  -1 3738.35   31.07
  -3   0  -1 3766.30   31.02
  -3   0  -1 3722.23   31.81
  -3   0  -1 3813.54   39.44
  -3   0  -1 3791.77   45.34
  -3   0   0 3826.99   32.13
  -3   0   0 3887.09   32.73
  -3   0   1  997.80   16.99
  -3   0   1 1002.71   17.33
  -3   0   1 1021.26   17.33
  -3   0   2  545.70   12.97
  -3   0   2  598.09   12.89
  -3   0   2  569.40   13.42
  -3   0   3  804.30   16.62
  -3   0   3  780.34   16.62
  -3   0   3  820.04   16.80
  -3   0   4 1170.85   22.06
  -3   0   4 1203.00   21.95
  -3   0   5 2290.23   31.41
  -3   0   5 2379.42   30.96
  -3   0   5 2392.55   34.06
  -3   0   6 2335.41   32.21
  -3   0   6 2383.99   33.69
  -3   0   7 1400.20   26.05
  -3   0   7 1405.64   39.63
  -3   0   7 1429.34   30.25
  -3   0   7 1443.05   27.45
  -3   0   8 2696.59   37.20
  -3   0   8 2747.42   44.23
  -3   0   8 2613.55   59.07
  -3   0   9  785.14   25.13
  -3   0   9  768.24   34.21
  -3   0   9  805.67   21.24
  -3   0  10  120.98   15.40
  -3   0  10  132.44    9.17
  -3   0  10  123.43   10.88
  -3   0  11   16.54    4.70
  -3   0  11   18.26    7.24
  -3   1 -11  127.37   17.12
  -3   1 -10    7.05    6.05
  -3   1  -9   18.04    6.60
  -3   1  -8  601.53   15.90
  -3   1  -8  638.83   33.39
  -3   1  -8  635.40   16.14
  -3   1  -8  613.31   14.64
  -3   1  -7  795.03   17.36
  -3   1  -7  783.48   17.49
  -3   1  -7  805.33   16.72
  -3   1  -7  778.70   35.46
  -3   1  -6 1044.96   15.43
  -3   1  -6 1048.05   39.63
  -3   1  -6 1101.97   19.95
  -3   1  -5 5604.22   43.49
  -3   1  -5 5587.08   29.54
  -3   1  -5 5525.20   84.91
  -3   1  -4 2668.53   29.01
  -3   1  -4 2562.91   28.61
  -3   1  -4 2560.66   15.48
  -3   1  -4 2681.48   55.69
  -3   1  -3 1269.02   19.63
  -3   1  -3 1219.96   34.32
  -3   1  -2   67.00    4.44
  -3   1  -2   71.20    7.64
  -3   1  -2   70.33    4.52
  -3   1  -2   62.19    5.18
  -3   1  -1    0.87    2.09
  -3   1  -1    1.16    0.66
  -3   1  -1    4.10    0.55
  -3   1  -1    1.35    1.45
  -3   1  -1    1.85    1.06
  -3   1  -1    3.57    1.08
  -3   1   0   10.30    2.93
  -3   1   0   15.38    2.11
  -3   1   0   11.84    2.32
  -3   1   0    6.00    1.61
  -3   1   0   13.42    2.01
  -3   1   1 3434.13   33.74
  -3   1   1 5443.67   39.34
  -3   1   3 5662.85   44.83
  -3   1   4 2012.16   26.39
  -3   1   4 2094.69   27.29
  -3   1   4 2165.02   28.03
  -3   1   4 1974.33   27.58
  -3   1   5 2826.63   32.79
  -3   1   5 2845.18   33.39
  -3   1   5 2840.79   33.26
  -3   1   5 2782.53   35.77
  -3   1   6  940.57   19.76
  -3   1   6  938.17   22.40
  -3   1   6  927.10   20.32
  -3   1   7  169.67    8.61
  -3   1   7  166.23    8.53
  -3   1   7  168.03    8.85
  -3   1   7  154.37    9.67
  -3   1   8  131.91    8.30
  -3   1   8  117.86    7.24
  -3   1   8  127.66    7.87
  -3   1   8  109.62    8.69
  -3   1   9  833.12   19.74
  -3   1   9  786.65   19.92
  -3   1   9  818.86   34.32
  -3   1   9  801.42   24.97
  -3   1  10  516.51   29.17
  -3   1  10  522.21   16.80
  -3   1  10  529.27   21.32
  -3   1  11  983.48   43.88
  -3   1  11  959.46   30.57
  -3   1  12  859.15   30.78
  -3   1  12  713.10   40.82
  -3   2 -10  515.21   35.40
  -3   2  -9  461.08   32.34
  -3   2  -8  894.63   21.58
  -3   2  -8  893.91   43.43
  -3   2  -8  892.12   21.24
  -3   2  -7  376.46   27.40
  -3   2  -7  459.81   12.89
  -3   2  -7  442.40   14.50
  -3   2  -7  400.13   14.11
  -3   2  -6 1305.22   48.90
  -3   2  -6 1262.89   23.70
  -3   2  -6 1261.41   23.91
  -3   2  -5  127.11    7.37
  -3   2  -5  131.23   14.90
  -3   2  -5  119.07    7.03
  -3   2  -5  116.35    5.31
  -3   2  -4  630.19   30.88
  -3   2  -4  600.92   15.32
  -3   2  -4  676.85   11.02
  -3   2  -4  650.77   16.14
  -3   2  -3 1072.35   19.95
  -3   2  -3 1035.50   11.97
  -3   2  -3 1054.18   20.05
  -3   2  -2 7464.76   91.02
  -3   2  -1 2871.07   31.23
  -3   2  -1 2904.86   31.41
  -3   2   0 2080.32   26.05
  -3   2   0 2036.33   38.36
  -3   2   0 2126.93   26.39
  -3   2   0 2125.63   18.04
  -3   2   0 2002.46   25.52
  -3   2   1 4406.56   47.61
  -3   2   1 4457.18   37.62
  -3   2   2 3716.16   34.69
  -3   2   2 3722.55   32.60
  -3   2   2 3857.90   37.15
  -3   2   2 3790.11   31.31
  -3   2   2 3913.94   35.77
  -3   2   3  407.16   11.68
  -3   2   3  391.22   11.44
  -3   2   3  399.86   12.10
  -3   2   3  382.43   10.88
  -3   2   4  105.86    6.08
  -3   2   4  100.87    5.97
  -3   2   4  103.94    6.47
  -3   2   4  104.01    6.37
  -3   2   5  392.92   11.89
  -3   2   5  393.15   12.73
  -3   2   5  362.56   11.65
  -3   2   5  383.62   13.21
  -3   2   6 2160.32   33.55
  -3   2   6 2029.39   27.77
  -3   2   6 2236.54   31.28
  -3   2   6 2097.36   29.01
  -3   2   7 2993.13   41.95
  -3   2   7 2908.79   36.01
  -3   2   8 2433.21   32.76
  -3   2   8 2390.09   34.35
  -3   2   8 2443.73   33.71
  -3   2   8 2482.04   40.71
  -3   2   9 1313.28   31.60
  -3   2   9 1310.77   26.26
  -3   2   9 1265.43   24.49
  -3   2   9 1301.04   25.63
  -3   2  10  548.85   17.36
  -3   2  10  630.27   31.60
  -3   2  10  565.20   16.67
  -3   2  10  610.17   22.59
  -3   2  11  113.66   15.01
  -3   2  11  157.86   12.34
  -3   2  12   17.07    7.03
  -3   2  12   15.51    4.54
  -3   3 -10   16.75    8.24
  -3   3  -9   36.33   10.44
  -3   3  -8    2.99    4.57
  -3   3  -8    4.99    2.17
  -3   3  -8    2.85    1.69
  -3   3  -7  370.62   14.95
  -3   3  -7  360.60   29.46
  -3   3  -7  369.11   14.66
  -3   3  -6  270.30   12.26
  -3   3  -6  300.05   25.86
  -3   3  -6  294.37   12.68
  -3   3  -5 2441.03   35.67
  -3   3  -5 2429.54   35.14
  -3   3  -4 2428.40   33.82
  -3   3  -4 2508.53   26.31
  -3   3  -4 2447.87   34.69
  -3   3  -3 2854.03   36.14
  -3   3  -3 2807.18   35.40
  -3   3  -3 2773.39   26.00
  -3   3  -2 2171.73   30.20
  -3   3  -2 2130.65   21.61
  -3   3  -2 2213.98   30.70
  -3   3  -1  182.19    8.61
  -3   3  -1  187.13    7.93
  -3   3  -1  185.41    8.67
  -3   3   0  240.42    9.64
  -3   3   0  250.41    9.35
  -3   3   0  220.58    9.22
  -3   3   1 1258.98   21.61
  -3   3   1 1224.85   21.27
  -3   3   2 1627.91   24.36
  -3   3   2 1633.70   24.09
  -3   3   2 1661.38   25.18
  -3   3   2 1649.49   21.85
  -3   3   3 2020.51   27.00
  -3   3   3 2037.81   25.79
  -3   3   3 2046.21   28.96
  -3   3   3 2071.66   27.56
  -3   3   3 1987.35   26.82
  -3   3   4 4160.59   38.97
  -3   3   4 4141.73   40.29
  -3   3   4 4230.16   42.38
  -3   3   5 4624.60   41.19
  -3   3   5 4533.59   41.58
  -3   3   5 4662.59   45.55
  -3   3   5 4673.53   45.71
  -3   3   6 2198.00   29.14
  -3   3   6 2073.24   31.39
  -3   3   6 2119.42   29.27
  -3   3   6 2120.16   32.95
  -3   3   7 1139.80   21.24
  -3   3   7 1150.53   21.77
  -3   3   7 1223.03   27.08
  -3   3   7 1159.51   24.12
  -3   3   8  395.11   13.34
  -3   3   8  411.36   16.70
  -3   3   8  371.38   14.24
  -3   3   8  386.18   13.08
  -3   3   9  141.19    8.14
  -3   3   9  144.75    9.17
  -3   3   9  146.23    8.03
  -3   3   9  151.20   10.65
  -3   3  10  854.36   26.71
  -3   3  10  841.13   22.62
  -3   3  10  839.97   20.50
  -3   3  10  881.58   20.32
  -3   3  11  432.81   16.57
  -3   3  11  420.31   27.40
  -3   3  11  426.20   20.08
  -3   3  12  377.80   20.03
  -3   3  12  351.54   26.87
  -3   4  -9  256.85   28.43
  -3   4  -8  671.33   22.19
  -3   4  -8  666.86   44.52
  -3   4  -8  695.08   22.91
  -3   4  -7  783.45   46.60
  -3   4  -7  817.77   23.96
  -3   4  -7  808.47   24.02
  -3   4  -6 1520.91   31.89
  -3   4  -6 1640.88   32.58
  -3   4  -5  487.79   17.44
  -3   4  -5  478.04   17.09
  -3   4  -4  336.32   13.92
  -3   4  -4  370.46   14.69
  -3   4  -3    3.96    1.66
  -3   4  -3    1.35    1.45
  -3   4  -2  161.06    9.22
  -3   4  -2  152.76    8.74
  -3   4  -2  162.06    7.56
  -3   4  -2  148.29    6.87
  -3   4  -1 1610.68   27.58
  -3   4  -1 1641.41   28.22
  -3   4   0 4131.00   43.20
  -3   4   0 4041.78   43.04
  -3   4   1 5261.00   47.82
  -3   4   1 5140.13   45.23
  -3   4   1 5282.09   47.95
  -3   4   2 2901.21   35.01
  -3   4   2 2936.14   34.93
  -3   4   2 2942.22   35.14
  -3   4   3 2189.65   29.99
  -3   4   3 2256.67   30.15
  -3   4   3 2261.27   31.52
  -3   4   4  471.25   13.79
  -3   4   4  505.46   15.48
  -3   4   4  471.70   14.03
  -3   4   4  458.36   13.58
  -3   4   5    2.30    1.37
  -3   4   5    1.19    0.74
  -3   4   5    0.16    0.92
  -3   4   5    2.35    1.45
  -3   4   6  434.95   13.34
  -3   4   6  409.61   12.89
  -3   4   6  413.55   14.64
  -3   4   6  413.42   14.93
  -3   4   7 1484.21   28.64
  -3   4   7 1529.87   25.18
  -3   4   7 1481.83   25.20
  -3   4   7 1433.12   29.17
  -3   4   8 1037.69   24.57
  -3   4   8 1063.13   20.98
  -3   4   8 1062.66   21.43
  -3   4   8 1036.08   26.29
  -3   4   9 1232.56   23.54
  -3   4   9 1204.69   23.46
  -3   4   9 1076.74   28.69
  -3   4   9 1124.48   26.39
  -3   4  10 2014.70   30.94
  -3   4  10 2156.78   37.70
  -3   4  10 2094.35   42.09
  -3   4  10 2083.26   30.73
  -3   4  11  891.06   25.20
  -3   4  11  838.59   28.24
  -3   4  12  149.35   17.36
  -3   4  12  140.61   12.31
  -3   4  13    1.90    2.83
  -3   4  13    5.79    6.08
  -3   5  -8  152.34   11.65
  -3   5  -8  146.18   23.30
  -3   5  -8  124.70   10.75
  -3   5  -7    8.85    3.28
  -3   5  -7    3.06    2.62
  -3   5  -6   54.77    6.68
  -3   5  -6   49.88    6.53
  -3   5  -5  715.40   23.09
  -3   5  -5  708.32   22.56
  -3   5  -4 1697.74   34.35
  -3   5  -4 1790.50   34.79
  -3   5  -3 2243.49   37.75
  -3   5  -3 2234.22   38.10
  -3   5  -2 1395.65   23.09
  -3   5  -2 1381.62   29.09
  -3   5  -2 1339.11   28.24
  -3   5  -1  346.34   11.76
  -3   5  -1  340.87   13.76
  -3   5  -1  381.53   14.82
  -3   5   0 1378.82   24.17
  -3   5   0 1358.43   26.74
  -3   5   0 1365.22   27.24
  -3   5   1  728.87   19.29
  -3   5   1  706.97   17.70
  -3   5   1  728.05   19.50
  -3   5   2  134.87    7.95
  -3   5   2  158.02    8.74
  -3   5   2  146.05    8.32
  -3   5   2  151.65    8.67
  -3   5   3 1481.28   26.45
  -3   5   3 1490.50   24.86
  -3   5   3 1433.33   26.02
  -3   5   3 1491.82   26.90
  -3   5   4 2324.89   32.73
  -3   5   4 2395.62   29.62
  -3   5   4 2304.10   34.45
  -3   5   4 2374.43   32.89
  -3   5   5 3114.42   37.62
  -3   5   5 3278.83   41.74
  -3   5   5 3246.92   38.23
  -3   5   5 3150.75   40.40
  -3   5   5 3236.00   32.29
  -3   5   6 2804.25   35.35
  -3   5   6 2890.27   40.55
  -3   5   6 2910.43   28.32
  -3   5   6 2988.42   41.19
  -3   5   6 2897.09   35.69
  -3   5   7 1517.95   25.84
  -3   5   7 1452.46   30.51
  -3   5   7 1472.32   18.12
  -3   5   7 1454.07   29.56
  -3   5   8  669.95   17.49
  -3   5   8  652.97   17.12
  -3   5   8  639.25   21.16
  -3   5   8  614.84   19.87
  -3   5   9  175.03    8.80
  -3   5   9  185.28   11.25
  -3   5   9  169.40    8.90
  -3   5   9  189.61   12.13
  -3   5  10   53.26    7.05
  -3   5  10   48.35    5.92
  -3   5  11   42.80    5.97
  -3   5  11   64.52    8.06
  -3   5  12   59.05    7.19
  -3   5  12   68.30    8.80
  -3   5  13  892.14   44.76
  -3   5  13  911.96   32.87
  -3   6  -7  460.68   20.90
  -3   6  -7  502.21   22.27
  -3   6  -6  535.53   21.90
  -3   6  -6  518.59   21.74
  -3   6  -5  690.01   24.49
  -3   6  -5  765.43   25.47
  -3   6  -4  243.70   13.95
  -3   6  -4  254.26   14.56
  -3   6  -3  189.19   11.86
  -3   6  -3  213.68   12.87
  -3   6  -2   16.46    2.85
  -3   6  -2   15.83    3.65
  -3   6  -2   12.29    3.25
  -3   6  -1  523.67   18.41
  -3   6  -1  548.90   15.93
  -3   6  -1  537.83   19.00
  -3   6   0 1671.87   32.15
  -3   6   0 1729.26   28.53
  -3   6   0 1650.52   32.55
  -3   6   1 1373.99   26.02
  -3   6   1 1350.48   28.48
  -3   6   1 1442.31   29.22
  -3   6   2 2184.36   33.53
  -3   6   2 2141.19   34.90
  -3   6   2 2217.34   35.69
  -3   6   2 2213.06   35.53
  -3   6   3 3215.21   40.74
  -3   6   3 3244.14   42.17
  -3   6   3 3303.48   42.38
  -3   6   3 3260.26   42.75
  -3   6   4 1480.62   27.90
  -3   6   4 1483.50   29.01
  -3   6   4 1428.92   27.42
  -3   6   5  263.72   11.70
  -3   6   5  258.39   12.39
  -3   6   5  283.99   12.07
  -3   6   5  249.51   10.46
  -3   6   6   51.52    5.13
  -3   6   6   44.57    4.28
  -3   6   6   60.24    6.26
  -3   6   6   57.62    5.50
  -3   6   6   50.91    5.76
  -3   6   7   27.24    3.78
  -3   6   7   33.63    4.83
  -3   6   7   22.93    3.41
  -3   6   7   25.71    3.06
  -3   6   7   24.99    4.31
  -3   6   8  769.93   19.42
  -3   6   8  791.19   19.52
  -3   6   8  737.54   22.69
  -3   6   8  789.11   24.12
  -3   6   9 1355.20   25.55
  -3   6   9 1338.03   25.71
  -3   6   9 1388.89   33.63
  -3   6   9 1380.49   32.05
  -3   6  10 1138.30   29.88
  -3   6  10 1141.42   31.62
  -3   6  11  446.68   19.47
  -3   6  11  553.36   23.43
  -3   6  12  507.34   21.27
  -3   6  12  514.55   23.86
  -3   7  -6    4.25    3.41
  -3   7  -6    4.46    3.49
  -3   7  -5  142.14   11.97
  -3   7  -5  113.95   10.81
  -3   7  -4  206.26   13.90
  -3   7  -4  243.48   15.27
  -3   7  -3  413.81   19.31
  -3   7  -3  441.11   19.47
  -3   7  -2 1040.54   22.25
  -3   7  -2  958.88   27.93
  -3   7  -2 1026.44   29.38
  -3   7  -1 1532.22   34.11
  -3   7  -1 1519.61   27.64
  -3   7  -1 1485.72   34.11
  -3   7   0 1237.48   29.80
  -3   7   0 1229.08   25.47
  -3   7   0 1253.59   30.62
  -3   7   1  936.98   25.23
  -3   7   1  887.73   22.17
  -3   7   1  926.25   25.36
  -3   7   1  917.80   26.21
  -3   7   2  211.15   11.84
  -3   7   2  199.18   11.78
  -3   7   2  184.60   10.38
  -3   7   2  206.23   11.73
  -3   7   3  368.98   15.27
  -3   7   3  331.54   14.19
  -3   7   3  379.97   15.53
  -3   7   3  329.96   14.66
  -3   7   4  512.49   17.78
  -3   7   4  487.45   17.60
  -3   7   4  461.47   16.43
  -3   7   5  913.07   23.30
  -3   7   5  898.48   24.28
  -3   7   5  892.91   22.91
  -3   7   5  945.91   22.77
  -3   7   6 1331.32   27.61
  -3   7   6 1363.21   30.54
  -3   7   6 1317.93   27.27
  -3   7   6 1376.50   26.68
  -3   7   7 1046.73   23.99
  -3   7   7 1096.92   27.98
  -3   7   7 1055.23   27.85
  -3   7   7 1057.11   24.36
  -3   7   7 1079.25   22.46
  -3   7   8 1390.00   27.29
  -3   7   8 1333.57   31.81
  -3   7   8 1369.63   32.95
  -3   7   8 1329.95   26.74
  -3   7   9 1106.46   24.12
  -3   7   9 1098.77   24.23
  -3   7   9 1079.12   29.48
  -3   7   9 1136.24   31.20
  -3   7  10  180.13   12.47
  -3   7  10  186.31   13.37
  -3   7  11   19.08    4.57
  -3   7  11   12.79    4.25
  -3   7  12   10.83    3.80
  -3   7  12   10.28    4.31
  -3   8  -4  559.76   24.31
  -3   8  -4  545.30   24.28
  -3   8  -3  129.09   11.49
  -3   8  -3  140.42   12.07
  -3   8  -2   77.73    8.64
  -3   8  -2   81.82    9.17
  -3   8  -1   82.22    8.72
  -3   8  -1   80.66    6.82
  -3   8  -1   91.04    9.14
  -3   8   0   89.14    8.69
  -3   8   0   90.70    7.42
  -3   8   0   98.36    9.27
  -3   8   1  544.35   20.74
  -3   8   1  507.84   17.73
  -3   8   1  536.03   21.40
  -3   8   1  532.89   20.74
  -3   8   2 1707.20   33.32
  -3   8   2 1752.40   36.43
  -3   8   2 1686.40   36.78
  -3   8   2 1662.60   35.77
  -3   8   3 1626.22   34.77
  -3   8   3 1664.45   34.69
  -3   8   3 1663.84   33.47
  -3   8   3 1589.68   34.24
  -3   8   4  676.45   21.77
  -3   8   4  717.35   22.54
  -3   8   4  762.50   23.17
  -3   8   4  732.07   22.83
  -3   8   5 1026.04   26.50
  -3   8   5 1049.90   27.64
  -3   8   5  997.98   25.86
  -3   8   5 1027.76   26.45
  -3   8   6  363.88   15.51
  -3   8   6  365.97   15.35
  -3   8   6  316.69   15.56
  -3   8   6  329.01   14.72
  -3   8   7  133.21    9.17
  -3   8   7  132.20    9.17
  -3   8   7  118.89    9.93
  -3   8   7  114.24    8.40
  -3   8   7  135.90   11.02
  -3   8   8   28.61    4.46
  -3   8   8   45.02    6.29
  -3   8   8   33.39    4.70
  -3   8   8   31.57    5.52
  -3   8   9  324.28   17.04
  -3   8   9  322.14   13.79
  -3   8   9  343.83   17.97
  -3   8   9  341.16   14.11
  -3   8  10  371.28   18.84
  -3   8  10  344.04   18.52
  -3   8  11  493.60   22.40
  -3   8  11  509.19   23.51
  -3   8  12  769.08   28.67
  -3   9  -2  338.70   19.21
  -3   9  -2  345.33   19.58
  -3   9  -1  738.57   27.29
  -3   9  -1  713.63   27.34
  -3   9   0  779.75   22.62
  -3   9   0  792.75   27.48
  -3   9   0  772.20   27.64
  -3   9   1  632.78   23.83
  -3   9   1  642.40   24.41
  -3   9   1  616.29   20.63
  -3   9   2  787.28   26.29
  -3   9   2  813.28   24.17
  -3   9   2  783.51   27.34
  -3   9   2  839.70   27.27
  -3   9   3    3.94    1.96
  -3   9   3    7.69    3.14
  -3   9   3    0.61    1.98
  -3   9   4    5.84    3.14
  -3   9   4    4.20    2.38
  -3   9   4    3.70    2.03
  -3   9   4    4.28    2.03
  -3   9   5   60.34    7.11
  -3   9   5   45.39    6.31
  -3   9   5   56.99    6.87
  -3   9   5   44.02    6.16
  -3   9   6  496.38   19.31
  -3   9   6  480.42   19.02
  -3   9   6  472.12   20.08
  -3   9   6  478.91   19.00
  -3   9   7  563.96   20.42
  -3   9   7  566.89   20.24
  -3   9   7  570.72   22.43
  -3   9   7  520.23   19.39
  -3   9   8 1239.25   29.46
  -3   9   8 1212.75   33.47
  -3   9   8 1302.55   35.59
  -3   9   8 1284.06   30.01
  -3   9   9  777.38   28.16
  -3   9   9  781.68   27.53
  -3   9  10  335.93   18.60
  -3   9  10  351.25   19.39
  -3   9  11   86.08   10.38
  -3   9  11   85.47    9.96
  -3  10   0    1.77    2.54
  -3  10   0   -0.37    2.30
  -3  10   1   32.39    6.05
  -3  10   1   43.49    7.42
  -3  10   2  321.11   18.04
  -3  10   2  319.76   18.65
  -3  10   2  368.56   19.60
  -3  10   2  315.32   15.96
  -3  10   3  605.41   24.12
  -3  10   3  651.25   25.89
  -3  10   3  606.04   22.54
  -3  10   3  604.96   24.44
  -3  10   4  210.54   14.45
  -3  10   4  172.02   12.26
  -3  10   4  179.02   13.08
  -3  10   4  207.08   14.13
  -3  10   5  887.94   28.32
  -3  10   5  952.96   29.25
  -3  10   5  924.46   29.19
  -3  10   5  914.63   28.90
  -3  10   6  825.46   26.76
  -3  10   6  818.80   26.63
  -3  10   6  812.65   26.79
  -3  10   6  843.66   28.19
  -3  10   7  366.97   17.52
  -3  10   7  350.33   18.65
  -3  10   7  324.73   16.64
  -3  10   7  365.78   17.60
  -3  10   8   39.71    5.89
  -3  10   8   45.26    6.84
  -3  10   8   56.51    6.95
  -3  10   8   63.78    9.25
  -3  10   9   33.82    6.58
  -3  10   9   47.69    7.69
  -3  11   4  122.98   11.52
  -3  11   4  111.70   11.44
  -3  11   4  117.12   10.67
  -3  11   4  114.00   11.20
  -3  11   5   74.16    8.80
  -3  11   5   71.31    8.98
  -3  11   5   92.52    9.85
  -3  11   5   73.61    9.06
  -3  11   6   63.62    8.30
  -3  11   6   73.39    8.90
  -3  11   6   49.09    7.13
  -3  11   6   63.38    8.22
  -2 -11  -6    9.22    5.28
  -2 -11  -6    0.42    1.93
  -2 -11  -5   49.64    6.53
  -2 -11  -5   42.32    8.56
  -2 -11  -4   64.62   10.81
  -2 -11  -4   69.77    7.95
  -2 -11  -3  179.07   13.16
  -2 -11  -3  168.06   17.33
  -2 -11  -2  536.74   23.30
  -2 -10  -6  505.78   24.39
  -2 -10  -6  531.41   18.71
  -2 -10  -5  863.98   24.62
  -2 -10  -5  909.74   33.90
  -2 -10  -4  777.09   24.31
  -2 -10  -3  171.52   11.92
  -2 -10  -2  152.39   11.57
  -2 -10  -1  126.74   11.02
  -2 -10   0    5.07    3.09
  -2 -10   1  208.88   15.09
  -2  -9  -7  699.15   24.04
  -2  -9  -7  715.50   18.57
  -2  -9  -6  447.60   20.90
  -2  -9  -6  459.73   15.80
  -2  -9  -5  187.63   10.67
  -2  -9  -4   34.03    4.86
  -2  -9  -3   97.62    8.35
  -2  -9  -2  387.66   17.09
  -2  -9  -1 1123.08   29.78
  -2  -9   0  588.21   22.40
  -2  -9   1  835.02   27.58
  -2  -9   2  517.56   22.38
  -2  -9   3  126.89   11.68
  -2  -8  -7  398.36   16.30
  -2  -8  -7  390.64   12.18
  -2  -8  -6  597.80   16.17
  -2  -8  -5  253.76   11.23
  -2  -8  -4 1185.40   25.34
  -2  -8  -3 1362.39   28.19
  -2  -8  -2 2303.36   38.07
  -2  -8  -1  738.59   22.40
  -2  -8   0   23.83    4.54
  -2  -8   0   30.28    5.50
  -2  -8   1   13.82    4.62
  -2  -8   1   18.36    4.12
  -2  -8   2  371.28   17.73
  -2  -8   2  395.69   23.22
  -2  -8   3  218.62   14.03
  -2  -8   3  214.21   18.52
  -2  -8   4  525.73   22.43
  -2  -8   4  433.05   28.61
  -2  -8   5  647.63   26.05
  -2  -7  -7 1975.49   31.20
  -2  -7  -7 2113.56   24.44
  -2  -7  -6 1639.96   23.72
  -2  -7  -5 1073.78   20.45
  -2  -7  -4    3.73    1.40
  -2  -7  -3   20.92    3.20
  -2  -7  -2  404.94   14.64
  -2  -7  -1 1452.22   28.88
  -2  -7   0 2218.00   37.09
  -2  -7   0 2325.87   41.95
  -2  -7   1 1883.26   35.51
  -2  -7   1 1987.27   44.62
  -2  -7   2 1182.18   28.98
  -2  -7   2 1222.02   39.34
  -2  -7   3  589.14   21.32
  -2  -7   3  582.19   29.56
  -2  -7   4  454.29   28.19
  -2  -7   4  491.30   20.26
  -2  -7   5   32.05    8.51
  -2  -7   5   33.90    5.87
  -2  -7   6   17.36    7.90
  -2  -7   6   20.69    4.70
  -2  -6  -7   67.82    4.68
  -2  -6  -7   67.93    3.62
  -2  -6  -6   69.59    4.25
  -2  -6  -6   74.37    5.92
  -2  -6  -5   71.49    4.68
  -2  -6  -4 2425.87   29.04
  -2  -6  -3 2987.08   34.45
  -2  -6  -2 4518.47   44.78
  -2  -6  -1 1806.77   29.70
  -2  -6   0  310.67   12.87
  -2  -6   0  363.93   15.56
  -2  -6   1 1110.85   25.34
  -2  -6   1 1174.31   32.65
  -2  -6   2    4.60    3.65
  -2  -6   2    6.90    2.30
  -2  -6   3  130.67    9.38
  -2  -6   3  101.37   12.18
  -2  -6   4  307.32   14.95
  -2  -6   4  306.07   22.22
  -2  -6   5 1199.17   30.75
  -2  -6   5 1159.83   46.53
  -2  -6   6  963.21   45.47
  -2  -6   6 1037.35   29.78
  -2  -6   7  547.81   22.54
  -2  -6   7  505.15   35.14
  -2  -5  -7 1770.81   10.67
  -2  -5  -6  927.78   12.42
  -2  -5  -6  872.59   13.74
  -2  -5  -5 2432.52   30.17
  -2  -5  -5 2413.26   23.17
  -2  -5  -5 2423.70   33.82
  -2  -5  -4 3933.80   45.94
  -2  -5  -4 3904.74   32.87
  -2  -5  -4 4010.95   42.19
  -2  -5  -3 1413.30   24.20
  -2  -5  -3 1386.27   20.92
  -2  -5  -2  989.63   18.84
  -2  -5  -2 1065.46   20.29
  -2  -5  -1 1584.34   25.13
  -2  -5  -1 1529.39   23.59
  -2  -5   0 1940.77   29.27
  -2  -5   0 1948.46   33.13
  -2  -5   1 1449.97   26.53
  -2  -5   1 1320.70   31.70
  -2  -5   2 1854.17   31.15
  -2  -5   2 1923.81   43.38
  -2  -5   3 1524.90   29.67
  -2  -5   3 1457.58   41.85
  -2  -5   4 2144.50   36.96
  -2  -5   4 2052.19   54.13
  -2  -5   5  725.14   22.32
  -2  -5   5  735.69   35.19
  -2  -5   5  769.58   24.28
  -2  -5   6  202.01   12.29
  -2  -5   6  207.26   20.18
  -2  -5   6  204.20   13.24
  -2  -5   7   12.81    6.45
  -2  -5   7   14.95    3.65
  -2  -5   7   18.49    4.36
  -2  -5   8  143.20   11.39
  -2  -5   8  157.83   20.77
  -2  -5   8  143.70   12.31
  -2  -4  -7 1372.69   25.42
  -2  -4  -6   29.99    1.48
  -2  -4  -6   28.77    3.67
  -2  -4  -6   27.90    1.48
  -2  -4  -5   30.28    2.14
  -2  -4  -5   33.92    2.43
  -2  -4  -5   30.70    3.65
  -2  -4  -4  412.20    9.06
  -2  -4  -4  396.35   12.34
  -2  -4  -4  404.46   10.83
  -2  -4  -3 1104.93   19.79
  -2  -4  -3 1046.59   16.04
  -2  -4  -3 1066.75   21.29
  -2  -4  -2 5925.83   58.39
  -2  -4  -1 8013.08   92.28
  -2  -4   0 1355.15   19.39
  -2  -4   0 1375.10   23.94
  -2  -4   1 3057.62   35.72
  -2  -4   1 2991.41   27.79
  -2  -4   1 2942.03   43.57
  -2  -4   2 1180.41   31.25
  -2  -4   2 1177.82   23.22
  -2  -4   3   62.88    5.63
  -2  -4   3   52.89    5.52
  -2  -4   4  134.48    8.61
  -2  -4   4  117.22   11.97
  -2  -4   4  133.66    9.14
  -2  -4   5  735.90   32.47
  -2  -4   5  726.99   20.61
  -2  -4   5  739.70   22.35
  -2  -4   6 1063.29   26.26
  -2  -4   6 1028.26   41.77
  -2  -4   6 1099.88   28.48
  -2  -4   7 1045.91   27.21
  -2  -4   7 1049.50   45.55
  -2  -4   7 1091.56   29.96
  -2  -4   8  874.26   25.84
  -2  -4   8  845.94   43.70
  -2  -4   8  851.59   27.98
  -2  -4   9  633.84   23.04
  -2  -4   9  697.64   42.69
  -2  -4   9  687.34   26.53
  -2  -3 -13  210.91   15.48
  -2  -3 -12  518.73   22.91
  -2  -3 -11  302.19   16.94
  -2  -3 -10  313.23   16.46
  -2  -3  -9   24.46    4.46
  -2  -3  -8  269.22   10.94
  -2  -3  -8  237.43   12.39
  -2  -3  -7  668.66   19.34
  -2  -3  -7  639.31   16.27
  -2  -3  -6 1676.79   25.31
  -2  -3  -3 2282.46   19.92
  -2  -3  -3 2268.06   26.37
  -2  -3  -3 2339.08   23.06
  -2  -3  -2  839.04   15.24
  -2  -3  -2  812.86   16.33
  -2  -3  -2  764.03   14.98
  -2  -3  -2  802.71   13.08
  -2  -3  -1  191.39    7.45
  -2  -3  -1  186.47    6.90
  -2  -3  -1  187.00    6.82
  -2  -3   0    0.26    0.71
  -2  -3   0    1.35    1.00
  -2  -3   0    2.03    2.54
  -2  -3   0    1.19    0.77
  -2  -3   1  515.53   10.46
  -2  -3   1  519.55   12.42
  -2  -3   1  546.84   13.53
  -2  -3   1  570.72   16.22
  -2  -3   1  521.92   13.76
  -2  -3   2 2344.55   21.00
  -2  -3   2 2330.76   38.47
  -2  -3   2 2368.75   31.10
  -2  -3   2 2428.96   30.28
  -2  -3   3 3106.68   36.93
  -2  -3   3 3039.89   49.67
  -2  -3   3 2957.30   21.51
  -2  -3   3 3101.29   38.07
  -2  -3   4 3675.10   61.00
  -2  -3   4 3701.42   44.36
  -2  -3   5 3061.66   42.59
  -2  -3   5 3077.22   39.74
  -2  -3   6 1295.50   27.08
  -2  -3   6 1325.64   29.59
  -2  -3   7  175.53   17.38
  -2  -3   7  141.64    9.33
  -2  -3   7  152.44   10.67
  -2  -3   8    2.80    1.88
  -2  -3   8   12.13    3.88
  -2  -3   8    8.48    6.34
  -2  -3   9  107.34    8.90
  -2  -3   9  107.19   16.30
  -2  -3   9   89.03    9.33
  -2  -3  10  160.34   13.05
  -2  -3  10  144.36   10.59
  -2  -2 -13    3.30    4.23
  -2  -2 -12    4.46    3.78
  -2  -2 -11  256.77   17.33
  -2  -2 -10  292.02   17.65
  -2  -2  -9 1810.05   41.35
  -2  -2  -8 2328.88   43.96
  -2  -2  -8 2262.33   29.46
  -2  -2  -7 1968.59   38.18
  -2  -2  -7 2002.15   26.90
  -2  -2  -6 1761.14   33.53
  -2  -2  -6 1795.15   24.68
  -2  -2  -5 1093.41    9.67
  -2  -2  -5  982.79   11.20
  -2  -2  -5 1047.39   23.30
  -2  -2  -5 1015.89    8.82
  -2  -2  -5  918.43   16.94
  -2  -2  -5  979.59    8.45
  -2  -2  -4   70.59    2.88
  -2  -2  -4   58.33    4.81
  -2  -2  -4   62.19    4.28
  -2  -2  -4   63.01    2.64
  -2  -2  -4   58.65    2.51
  -2  -2  -3  975.60   11.28
  -2  -2  -3 1022.50   16.59
  -2  -2  -3 1000.91   12.10
  -2  -2  -2 3589.84   29.48
  -2  -2  -2 3522.82   29.01
  -2  -2   0   -0.48    0.82
  -2  -2   0   -0.40    1.66
  -2  -2   1 3232.73   29.96
  -2  -2   1 3179.81   30.91
  -2  -2   2 4303.68   38.10
  -2  -2   2 4005.35   35.27
  -2  -2   2 4318.85   43.83
  -2  -2   2 3896.87   36.67
  -2  -2   3 2448.75   24.94
  -2  -2   3 2483.25   38.84
  -2  -2   3 2413.63   28.82
  -2  -2   3 2496.43   31.28
  -2  -2   4  263.85   14.43
  -2  -2   4  277.30    8.96
  -2  -2   4  272.55   10.28
  -2  -2   4  268.82    5.23
  -2  -2   4  269.38   11.07
  -2  -2   5   23.28    4.89
  -2  -2   5   15.69    2.75
  -2  -2   5   24.60    3.73
  -2  -2   6 1170.08   23.99
  -2  -2   6 1128.63   37.09
  -2  -2   6 1232.40   27.21
  -2  -2   7 1379.85   27.00
  -2  -2   7 1377.77   30.49
  -2  -2   8  884.06   22.51
  -2  -2   8  878.46   38.97
  -2  -2   8  887.81   25.65
  -2  -2   9 1182.68   27.32
  -2  -2   9 1158.22   48.64
  -2  -2   9 1185.03   31.57
  -2  -2  10  585.23   19.87
  -2  -2  10  566.65   36.91
  -2  -2  10  624.41   24.33
  -2  -2  11  317.04   29.93
  -2  -2  11  377.72   19.95
  -2  -1 -12  592.97   30.28
  -2  -1 -11  791.99   33.37
  -2  -1 -10  774.52   32.18
  -2  -1  -9  592.49   26.63
  -2  -1  -8    1.37    0.66
  -2  -1  -8    0.87    0.55
  -2  -1  -8    2.17    0.82
  -2  -1  -8   -0.66    1.82
  -2  -1  -8    2.88    1.27
  -2  -1  -7   13.05    1.48
  -2  -1  -7   11.84    1.37
  -2  -1  -7   14.11    1.61
  -2  -1  -7   13.08    2.17
  -2  -1  -6  450.99    7.82
  -2  -1  -6  462.43    7.98
  -2  -1  -6  445.89   19.34
  -2  -1  -6  435.66   11.39
  -2  -1  -6  438.12    7.69
  -2  -1  -5 3512.65   31.49
  -2  -1  -5 3436.35   20.74
  -2  -1  -5 3433.10   48.11
  -2  -1  -4 6130.37   58.65
  -2  -1  -4 6131.46   57.91
  -2  -1  -3 7064.16   55.32
  -2  -1  -3 6704.95   54.45
  -2  -1  -2 3653.07   23.04
  -2  -1  -2 3682.34   35.32
  -2  -1  -2 3691.90   34.58
  -2  -1  -1 2931.04   25.47
  -2  -1   0 2347.43   21.16
  -2  -1   0 2375.09   21.77
  -2  -1   0 2376.67   19.02
  -2  -1   1   58.89    4.10
  -2  -1   1   47.82    3.57
  -2  -1   1   47.05    2.59
  -2  -1   1   54.98    6.24
  -2  -1   1   50.20    3.33
  -2  -1   1   44.68    3.33
  -2  -1   2  236.35    8.01
  -2  -1   2  231.89    8.64
  -2  -1   2  240.08    7.79
  -2  -1   2  230.38    5.65
  -2  -1   2  240.74    8.11
  -2  -1   3 3765.83   34.45
  -2  -1   3 3684.24   33.24
  -2  -1   3 3793.25   35.72
  -2  -1   4 3614.71   34.61
  -2  -1   4 3669.63   26.13
  -2  -1   4 3509.24   48.45
  -2  -1   4 3601.07   38.12
  -2  -1   4 3582.26   36.35
  -2  -1   5 3457.09   35.61
  -2  -1   5 3509.92   28.19
  -2  -1   5 3428.18   52.63
  -2  -1   5 3520.99   40.42
  -2  -1   6 4788.25   44.39
  -2  -1   6 4919.29   36.30
  -2  -1   6 4908.88   69.96
  -2  -1   7 1018.38   22.11
  -2  -1   7  982.00   24.65
  -2  -1   7  997.14   35.16
  -2  -1   8  277.14   13.95
  -2  -1   8  255.77   11.36
  -2  -1   8  251.86   19.50
  -2  -1   9   24.81    3.83
  -2  -1   9   21.56    4.31
  -2  -1   9   16.46    5.26
  -2  -1  10    5.81    2.32
  -2  -1  10    9.41    3.38
  -2  -1  10    1.43    3.75
  -2  -1  11   61.95    8.06
  -2  -1  11   43.46   11.20
  -2   0 -12  212.79   19.66
  -2   0 -11   -0.90    3.73
  -2   0 -10  109.40   13.61
  -2   0  -9  675.48   13.92
  -2   0  -9  709.48   32.58
  -2   0  -9  665.70   14.06
  -2   0  -8 1934.83   22.80
  -2   0  -8 2025.92   51.99
  -2   0  -8 2055.38   23.80
  -2   0  -8 2039.64   23.70
  -2   0  -7 2832.12   58.65
  -2   0  -7 2826.23   27.93
  -2   0  -7 2876.14   27.79
  -2   0  -7 2861.71   26.53
  -2   0  -7 2875.29   26.97
  -2   0  -6 2437.28   23.22
  -2   0  -6 2431.65   23.99
  -2   0  -6 2354.27   50.94
  -2   0  -6 2379.24   25.52
  -2   0  -6 2440.87   23.62
  -2   0  -5 1125.88   15.22
  -2   0  -5 1097.48   14.85
  -2   0  -5 1107.41   32.42
  -2   0  -5 1120.46   16.72
  -2   0  -5 1108.87   14.98
  -2   0  -5 1090.40   14.87
  -2   0  -4 1546.88   35.35
  -2   0  -4 1577.42   17.04
  -2   0  -4 1627.14   15.01
  -2   0  -4 1609.79   17.25
  -2   0  -4 1592.72   17.17
  -2   0  -3 1351.64   15.01
  -2   0  -3 1377.42   15.32
  -2   0  -3 1418.16   30.49
  -2   0  -3 1326.86   15.06
  -2   0  -3 1288.81   18.89
  -2   0  -3 1315.57   29.22
  -2   0  -2  400.97    8.06
  -2   0  -2  401.61   13.95
  -2   0  -2  392.86    7.95
  -2   0  -2  399.94    9.25
  -2   0  -2  387.97   14.48
  -2   0  -1 3192.89   32.58
  -2   0  -1 3313.47   36.04
  -2   0   1 6535.76   67.11
  -2   0   4 2086.35   24.89
  -2   0   4 2135.91   25.92
  -2   0   4 2178.68   22.80
  -2   0   4 2158.68   24.76
  -2   0   4 2053.98   12.79
  -2   0   5  668.37   14.69
  -2   0   5  691.59   15.43
  -2   0   5  717.01   13.47
  -2   0   5  674.97    9.04
  -2   0   5  656.08   16.72
  -2   0   6  158.36    8.88
  -2   0   6  157.65    7.50
  -2   0   6  158.20    6.55
  -2   0   6  161.29    5.10
  -2   0   6  175.40   12.58
  -2   0   6  161.87    7.95
  -2   0   7  530.25   12.23
  -2   0   7  505.49   13.95
  -2   0   7  491.33    8.45
  -2   0   7  508.29   10.15
  -2   0   7  521.40   23.57
  -2   0   7  522.98   17.23
  -2   0   8  182.56    8.93
  -2   0   8  171.60   14.74
  -2   0   8  161.29   10.28
  -2   0   9 2046.48   56.25
  -2   0   9 2132.77   39.31
  -2   0  10 1236.45   24.99
  -2   0  10 1324.50   49.14
  -2   0  10 1302.89   32.79
  -2   0  11  766.86   40.61
  -2   0  11  742.95   26.47
  -2   0  12  367.87   31.49
  -2   0  12  408.11   20.92
  -2   1 -11  627.71   35.83
  -2   1 -10  738.99   38.34
  -2   1  -9 1178.67   21.88
  -2   1  -9 1258.72   48.67
  -2   1  -9 1234.25   22.69
  -2   1  -8  606.57   11.55
  -2   1  -8  612.36   15.27
  -2   1  -8  619.52   15.59
  -2   1  -7  105.34    6.10
  -2   1  -7  114.37    5.18
  -2   1  -7  119.31   14.00
  -2   1  -6   11.94    2.03
  -2   1  -6   21.11    2.27
  -2   1  -6   13.79    5.10
  -2   1  -5 1188.15   18.55
  -2   1  -5 1110.21   37.99
  -2   1  -5 1092.56   18.12
  -2   1  -5 1132.80   18.23
  -2   1  -5 1150.19   16.78
  -2   1  -4 3013.71   28.32
  -2   1  -4 3018.49   58.44
  -2   1  -4 3086.31   23.67
  -2   1  -4 3061.03   28.06
  -2   1  -4 3037.22   28.43
  -2   1  -3 2331.60   23.70
  -2   1  -3 2235.91   46.68
  -2   1  -3 2541.93   24.17
  -2   1  -3 2465.02   17.30
  -2   1  -3 2394.45   23.94
  -2   1  -2 4865.55   32.42
  -2   1  -2 4863.28   61.80
  -2   1  -1    0.29    0.92
  -2   1  -1    0.42    0.66
  -2   1   0    0.26    0.69
  -2   1   1  426.28    9.19
  -2   1   1  425.83    9.38
  -2   1   1  415.06    9.48
  -2   1   1  410.27    9.38
  -2   1   1  429.53    7.82
  -2   1   1  423.88    9.19
  -2   1   2 1408.52   17.09
  -2   1   2 1425.80   17.36
  -2   1   2 1463.08   17.01
  -2   1   2 1440.04   18.07
  -2   1   3  251.65    7.61
  -2   1   3  252.31    7.69
  -2   1   3  259.52    8.06
  -2   1   3  252.92    8.24
  -2   1   3  247.29    7.53
  -2   1   4 6309.32   39.95
  -2   1   5 3155.29   30.17
  -2   1   5 3307.07   30.65
  -2   1   5 3263.56   36.20
  -2   1   5 3409.37   31.99
  -2   1   6 3791.32   35.19
  -2   1   6 3890.32   34.72
  -2   1   6 3871.40   42.51
  -2   1   7 1130.82   10.65
  -2   1   7 1168.07   20.95
  -2   1   7 1210.66   20.63
  -2   1   7 1199.22   19.95
  -2   1   7 1112.70    9.88
  -2   1   7 1202.50   25.68
  -2   1   8 1563.18   23.96
  -2   1   8 1686.98   24.31
  -2   1   8 1629.84   43.86
  -2   1   8 1514.07   13.71
  -2   1   8 1544.42   30.81
  -2   1   9 1535.20   23.96
  -2   1   9 1488.02   24.68
  -2   1   9 1494.91   32.34
  -2   1  10  164.15   16.67
  -2   1  10  153.90    8.30
  -2   1  10  154.53   11.10
  -2   1  11   15.14    6.76
  -2   1  11    6.13    2.88
  -2   1  12  411.49   20.42
  -2   1  12  434.29   32.21
  -2   2 -11  110.06   17.36
  -2   2 -10   14.87    8.19
  -2   2  -9  170.35    9.46
  -2   2  -9  155.16   19.02
  -2   2  -8  279.76   11.73
  -2   2  -8  303.09   25.44
  -2   2  -7 1132.62   22.62
  -2   2  -7 1168.94   15.59
  -2   2  -6 2135.49   29.64
  -2   2  -5 3183.85   34.61
  -2   2  -5 3086.34   31.10
  -2   2  -4 2832.68   31.31
  -2   2  -4 2935.37   27.34
  -2   2  -3 1748.46   23.54
  -2   2  -3 1954.80   19.68
  -2   2  -2  416.61   10.94
  -2   2  -2  435.61    8.35
  -2   2  -2  418.15   11.10
  -2   2  -1    0.03    0.87
  -2   2  -1  668.50   13.26
  -2   2  -1   -0.21    0.42
  -2   2  -1  719.20   12.36
  -2   2  -1  595.90   20.74
  -2   2  -1  687.44   13.58
  -2   2   0  913.23   19.08
  -2   2   0  951.64   15.46
  -2   2   0 1004.56   14.90
  -2   2   0  949.61   15.32
  -2   2   0  894.07   23.30
  -2   2   0  955.37   15.43
  -2   2   1 4180.64   31.41
  -2   2   1 4130.34   31.39
  -2   2   3 9999.00   74.03
  -2   2   4 3888.73   30.81
  -2   2   4 3890.50   31.18
  -2   2   4 3968.65   34.43
  -2   2   4 3810.53   31.52
  -2   2   4 3752.33   34.90
  -2   2   5 4992.29   36.78
  -2   2   5 5120.58   44.62
  -2   2   6  820.47   16.80
  -2   2   6  858.25   15.77
  -2   2   6  800.18   15.27
  -2   2   6  843.35   15.88
  -2   2   6  870.43   20.11
  -2   2   7  639.86   14.56
  -2   2   7  703.48   16.14
  -2   2   7  648.98   14.32
  -2   2   7  699.57   19.26
  -2   2   8    0.29    0.87
  -2   2   8    4.02    1.53
  -2   2   8    0.48    1.29
  -2   2   8    1.59    1.06
  -2   2   9  500.73   25.55
  -2   2   9  501.69   14.66
  -2   2   9  493.76   13.16
  -2   2   9  483.48   18.23
  -2   2  10 1114.15   22.32
  -2   2  10 1091.88   40.34
  -2   2  10 1153.73   29.70
  -2   2  10 1031.75   19.87
  -2   2  11 1035.34   42.69
  -2   2  11 1175.58   31.86
  -2   2  12 1039.09   47.00
  -2   2  12 1010.53   31.41
  -2   2  13  291.23   27.40
  -2   2  13  294.21   17.94
  -2   3 -10  536.06   38.86
  -2   3  -9 1043.37   25.81
  -2   3  -9 1049.10   53.08
  -2   3  -8 1038.11   51.25
  -2   3  -8 1070.13   25.47
  -2   3  -7   66.37    6.13
  -2   3  -6   23.17    3.54
  -2   3  -5  655.66   17.57
  -2   3  -4   87.34    6.24
  -2   3  -3 2142.83   29.35
  -2   3  -3 2175.54   25.36
  -2   3  -2 5507.74   37.38
  -2   3   0 3350.22   32.34
  -2   3   0 3318.65   32.58
  -2   3   1 4088.33   33.90
  -2   3   1 4196.31   35.30
  -2   3   2 2143.78   24.49
  -2   3   2 2248.64   25.60
  -2   3   2 2198.55   22.85
  -2   3   2 2146.21   24.54
  -2   3   2 2067.06   29.96
  -2   3   3  361.32    9.88
  -2   3   3  372.44    8.61
  -2   3   3  359.12    9.80
  -2   3   3  335.29   11.25
  -2   3   3  342.43   10.46
  -2   3   4 1895.20   22.40
  -2   3   4 1957.44   25.81
  -2   3   4 1968.22   32.34
  -2   3   4 2036.62   18.36
  -2   3   4 1900.27   25.47
  -2   3   4 1868.96   22.48
  -2   3   5  439.63   10.96
  -2   3   5  439.26   10.86
  -2   3   5  440.63   12.71
  -2   3   5  417.70   11.76
  -2   3   5  436.83    7.34
  -2   3   5  420.47   12.92
  -2   3   6  802.34   15.16
  -2   3   6  774.15    8.69
  -2   3   6  831.35   15.51
  -2   3   6  846.36   18.23
  -2   3   6  815.13   19.34
  -2   3   7 2264.23   25.71
  -2   3   7 2279.40   30.94
  -2   3   7 2273.64   26.34
  -2   3   7 2311.13   34.87
  -2   3   8 5062.91   47.87
  -2   3   8 5082.64   55.67
  -2   3   8 5182.75   41.95
  -2   3   9 3109.96   31.94
  -2   3   9 3034.71   45.31
  -2   3   9 3059.10   38.68
  -2   3   9 3060.37   32.73
  -2   3  10   81.06    6.55
  -2   3  10   93.76    8.56
  -2   3  11  168.19    9.70
  -2   3  11  144.17   15.64
  -2   3  11  144.62   11.20
  -2   3  12    3.46    2.69
  -2   3  12    3.25    4.25
  -2   3  13   95.30   15.38
  -2   3  13   90.88   10.15
  -2   4  -9    3.33    6.34
  -2   4  -9    1.74    2.38
  -2   4  -8    2.32    2.14
  -2   4  -7  510.62   18.47
  -2   4  -6  992.41   24.78
  -2   4  -5 1619.46   30.57
  -2   4  -4 1928.36   31.99
  -2   4  -3 1743.89   19.87
  -2   4  -3 1644.61   28.45
  -2   4  -2 3829.66   41.80
  -2   4  -2 3846.72   31.23
  -2   4  -1  151.78    6.47
  -2   4  -1  147.79    7.90
  -2   4   0  108.82    6.87
  -2   4   0  116.64    6.87
  -2   4   0  110.09    5.68
  -2   4   0  114.74    6.87
  -2   4   1  210.88    8.90
  -2   4   1  236.59    8.61
  -2   4   1  219.47    8.90
  -2   4   1  218.41    9.06
  -2   4   2 2551.33   29.48
  -2   4   2 2661.88   30.09
  -2   4   2 2611.65   29.75
  -2   4   2 2605.89   30.17
  -2   4   3 6578.43   46.95
  -2   4   4 4466.77   37.52
  -2   4   4 4501.25   42.06
  -2   4   4 4468.41   33.90
  -2   4   5 1902.57   24.07
  -2   4   5 2171.00   33.95
  -2   4   5 2128.46   29.96
  -2   4   5 2138.45   30.22
  -2   4   5 1921.25   24.44
  -2   4   5 2047.14   21.45
  -2   4   6 1990.28   24.76
  -2   4   6 2039.66   24.86
  -2   4   6 2348.40   32.55
  -2   4   6 2262.49   22.01
  -2   4   6 2321.27   33.37
  -2   4   6 2384.84   21.53
  -2   4   7  301.13    9.59
  -2   4   7  305.99    9.80
  -2   4   7  301.77   12.05
  -2   4   7  321.21   13.45
  -2   4   7  344.25    7.77
  -2   4   8  439.78   11.57
  -2   4   8  426.63   14.80
  -2   4   8  425.73   11.65
  -2   4   8  438.65    8.32
  -2   4   8  428.24   16.17
  -2   4   9    9.67    2.27
  -2   4   9    7.82    2.25
  -2   4   9    5.07    1.53
  -2   4   9    4.78    1.98
  -2   4  10  787.79   24.83
  -2   4  10  790.38   21.37
  -2   4  11 1371.95   29.14
  -2   4  11 1388.15   34.37
  -2   4  12  883.95   29.30
  -2   4  12  824.96   23.28
  -2   4  13  328.45   26.82
  -2   4  13  329.06   18.94
  -2   5  -8  434.63   19.34
  -2   5  -7  761.50   24.41
  -2   5  -6  407.90   17.33
  -2   5  -5 1348.02   30.44
  -2   5  -4   13.47    3.28
  -2   5  -3  644.78   19.55
  -2   5  -3  680.65   13.24
  -2   5  -2  900.60   22.22
  -2   5  -2  966.41   16.86
  -2   5  -1 2333.32   36.70
  -2   5  -1 2281.72   26.84
  -2   5  -1 2300.53   34.32
  -2   5   0 1870.63   25.31
  -2   5   0 1960.72   30.78
  -2   5   0 1924.58   31.78
  -2   5   1 4469.20   46.50
  -2   5   1 4367.54   44.46
  -2   5   1 4418.58   40.18
  -2   5   1 4390.05   45.02
  -2   5   2 2437.65   32.89
  -2   5   2 2506.05   31.99
  -2   5   2 2548.96   32.89
  -2   5   3 1992.79   28.90
  -2   5   3 1896.49   27.48
  -2   5   3 1954.96   28.37
  -2   5   3 1887.33   27.50
  -2   5   4  648.58   15.72
  -2   5   4  660.31   17.30
  -2   5   4  610.69   15.24
  -2   5   4  666.86   15.35
  -2   5   5    5.42    1.51
  -2   5   5    7.98    1.85
  -2   5   5    8.74    2.25
  -2   5   5    7.77    1.56
  -2   5   6  921.13   18.02
  -2   5   6  936.93   16.54
  -2   5   6  881.79   21.24
  -2   5   6  925.09   22.30
  -2   5   6  895.05   17.78
  -2   5   7 1434.52   22.01
  -2   5   7 1379.56   28.06
  -2   5   7 1421.15   27.71
  -2   5   7 1418.45   21.27
  -2   5   7 1450.69   19.84
  -2   5   7 1389.58   21.82
  -2   5   8 1628.46   23.28
  -2   5   8 1615.73   23.54
  -2   5   8 1648.15   20.32
  -2   5   8 1677.47   32.92
  -2   5   9 2179.79   26.47
  -2   5   9 2172.34   26.97
  -2   5   9 2194.11   39.23
  -2   5  10  909.05   24.20
  -2   5  10  912.25   26.60
  -2   5  11  574.05   19.97
  -2   5  11  586.55   22.64
  -2   5  12  299.39   14.74
  -2   5  12  249.46   15.96
  -2   5  13    3.80    3.38
  -2   5  13    3.20    5.15
  -2   6  -7   12.71    4.04
  -2   6  -6   16.43    4.07
  -2   6  -5  376.64   17.41
  -2   6  -4 2311.44   41.77
  -2   6  -3 1325.43   30.44
  -2   6  -3 1363.61   19.95
  -2   6  -2 1892.48   35.06
  -2   6  -2 1905.26   25.39
  -2   6  -1  926.12   23.75
  -2   6  -1  896.42   24.76
  -2   6  -1  895.61   18.15
  -2   6   0  259.73   10.07
  -2   6   0  248.48   11.97
  -2   6   0  256.03   12.79
  -2   6   1  160.53    8.30
  -2   6   1  164.62    9.41
  -2   6   1  164.41    9.83
  -2   6   2  406.87   13.50
  -2   6   2  399.71   14.19
  -2   6   2  417.43   15.22
  -2   6   2  406.79   14.56
  -2   6   3 1200.17   24.28
  -2   6   3 1237.24   24.49
  -2   6   3 1162.02   23.38
  -2   6   3 1233.41   25.31
  -2   6   4 1554.73   26.58
  -2   6   4 1599.38   27.05
  -2   6   4 1585.59   28.48
  -2   6   4 1558.29   26.79
  -2   6   5 1714.04   27.19
  -2   6   5 1763.60   27.19
  -2   6   5 1766.01   27.69
  -2   6   5 1790.58   31.07
  -2   6   6 3722.45   39.39
  -2   6   6 3779.62   38.57
  -2   6   6 3752.72   39.05
  -2   6   7 2615.43   32.15
  -2   6   7 2532.97   39.18
  -2   6   7 2494.48   30.25
  -2   6   7 2692.84   41.27
  -2   6   7 2678.18   32.55
  -2   6   8  437.72   12.92
  -2   6   8  454.29   13.08
  -2   6   8  452.68   12.58
  -2   6   8  462.27   17.23
  -2   6   8  443.09   17.30
  -2   6   9   32.58    3.57
  -2   6   9   26.92    3.30
  -2   6   9   36.72    5.55
  -2   6   9   26.50    4.46
  -2   6  10   10.25    3.14
  -2   6  10   13.39    3.49
  -2   6  11  246.05   14.87
  -2   6  11  235.19   13.53
  -2   6  12  370.04   17.30
  -2   6  12  373.34   19.50
  -2   6  13  359.63   17.78
  -2   6  13  375.24   20.58
  -2   7  -6  361.26   19.02
  -2   7  -5  634.47   24.31
  -2   7  -4  320.87   16.83
  -2   7  -3   16.51    3.96
  -2   7  -2   15.11    3.73
  -2   7  -2   13.55    2.59
  -2   7  -1  716.37   22.59
  -2   7  -1  706.52   23.91
  -2   7  -1  684.83   17.17
  -2   7   0  659.39   21.08
  -2   7   0  651.91   17.15
  -2   7   0  643.22   21.85
  -2   7   1 1619.59   32.18
  -2   7   1 1541.54   27.19
  -2   7   1 1644.87   33.79
  -2   7   2 2491.81   40.55
  -2   7   2 2417.17   37.94
  -2   7   2 2429.41   35.30
  -2   7   2 2355.01   37.99
  -2   7   3 1996.78   33.47
  -2   7   3 1969.17   32.92
  -2   7   3 2014.11   34.24
  -2   7   3 2038.02   35.61
  -2   7   4 1359.43   28.16
  -2   7   4 1397.00   27.19
  -2   7   4 1429.73   28.93
  -2   7   4 1394.36   27.64
  -2   7   5  245.78   12.31
  -2   7   5  276.93   11.92
  -2   7   5  239.20   11.36
  -2   7   5  238.12   11.23
  -2   7   6    1.16    1.32
  -2   7   6    1.82    1.37
  -2   7   6    1.16    0.98
  -2   7   6    0.69    1.74
  -2   7   7  154.45    8.43
  -2   7   7  144.33    9.91
  -2   7   7  142.22    8.27
  -2   7   7  156.19    8.45
  -2   7   8  493.84   14.72
  -2   7   8  447.95   17.86
  -2   7   8  468.82   18.68
  -2   7   8  444.33   14.13
  -2   7   8  496.14   14.85
  -2   7   9 1144.98   21.85
  -2   7   9 1120.75   21.48
  -2   7   9 1086.81   28.48
  -2   7   9 1104.45   29.78
  -2   7  10 1445.40   33.90
  -2   7  10 1514.25   36.41
  -2   7  11  670.96   23.91
  -2   7  11  727.15   26.47
  -2   7  12  244.54   16.04
  -2   7  12  251.83   15.09
  -2   7  13  224.65   14.64
  -2   7  13  233.58   16.72
  -2   8  -5   59.18    8.38
  -2   8  -4  655.18   25.73
  -2   8  -3  460.87   21.19
  -2   8  -2  671.43   24.46
  -2   8  -1  985.96   21.95
  -2   8  -1 1036.05   29.41
  -2   8  -1 1085.46   31.57
  -2   8   0  896.19   26.55
  -2   8   0  868.21   21.22
  -2   8   0  884.11   27.50
  -2   8   1  581.10   17.86
  -2   8   1  611.96   21.35
  -2   8   1  585.94   21.95
  -2   8   2   46.50    5.81
  -2   8   2   36.41    4.76
  -2   8   2   45.73    6.08
  -2   8   2   47.50    5.94
  -2   8   3   35.06    4.73
  -2   8   3   42.59    5.76
  -2   8   3   36.09    5.18
  -2   8   4  503.54   18.15
  -2   8   4  505.15   18.07
  -2   8   4  518.01   17.97
  -2   8   4  551.83   19.87
  -2   8   5 1106.94   26.76
  -2   8   5 1116.87   27.64
  -2   8   5 1131.90   26.02
  -2   8   5 1130.77   26.18
  -2   8   6 1616.63   30.81
  -2   8   6 1646.17   31.68
  -2   8   6 1596.23   33.74
  -2   8   6 1592.67   30.17
  -2   8   7 1506.54   28.61
  -2   8   7 1517.63   33.71
  -2   8   7 1434.94   28.01
  -2   8   7 1503.58   29.67
  -2   8   8  815.32   20.42
  -2   8   8  806.97   21.37
  -2   8   8  810.16   20.34
  -2   8   8  810.61   25.26
  -2   8   9  453.97   19.31
  -2   8   9  463.91   20.08
  -2   8  10  192.89   13.05
  -2   8  10  201.64   13.84
  -2   8  11    3.83    3.30
  -2   8  11    4.54    2.77
  -2   8  12   50.36    7.85
  -2   8  12   46.34    7.03
  -2   9  -3  102.24   10.86
  -2   9  -2   68.24    8.43
  -2   9  -1   -1.03    2.48
  -2   9   0  126.15   10.83
  -2   9   0  115.67    8.19
  -2   9   0  121.48   11.20
  -2   9   1  368.00   15.06
  -2   9   1  348.87   17.38
  -2   9   1  363.93   18.65
  -2   9   2  748.13   24.68
  -2   9   2  816.16   27.21
  -2   9   2  758.54   22.30
  -2   9   2  733.89   24.81
  -2   9   3 1804.61   35.43
  -2   9   3 1842.81   39.81
  -2   9   3 1838.77   38.12
  -2   9   3 1809.47   37.30
  -2   9   4 1613.27   34.24
  -2   9   4 1605.43   36.86
  -2   9   4 1575.31   34.35
  -2   9   5  479.28   18.44
  -2   9   5  524.01   20.69
  -2   9   5  471.54   19.08
  -2   9   5  486.18   18.63
  -2   9   6   94.03    8.53
  -2   9   6  109.48    9.33
  -2   9   6  114.21    8.90
  -2   9   6  107.58    8.72
  -2   9   7   27.82    5.07
  -2   9   7   16.54    3.59
  -2   9   7   23.30    4.23
  -2   9   7   14.35    3.70
  -2   9   8    5.94    2.59
  -2   9   8    3.09    1.88
  -2   9   8    7.27    2.88
  -2   9   8    6.92    2.99
  -2   9   9  216.93   14.21
  -2   9   9  229.91   15.51
  -2   9  10  644.30   25.07
  -2   9  10  694.66   26.79
  -2   9  11  612.17   25.13
  -2   9  11  622.21   26.21
  -2  10  -1  485.81   23.33
  -2  10   0  518.20   23.30
  -2  10   0  493.68   24.20
  -2  10   0  524.91   23.80
  -2  10   1  591.57   24.49
  -2  10   1  517.99   18.97
  -2  10   1  589.45   25.63
  -2  10   1  526.02   23.43
  -2  10   2  390.09   16.91
  -2  10   2  412.23   20.92
  -2  10   2  432.15   20.37
  -2  10   2  438.52   20.63
  -2  10   3   68.00    7.40
  -2  10   3   79.84    8.53
  -2  10   3   56.56    7.69
  -2  10   3   66.87    8.06
  -2  10   4   35.83    6.05
  -2  10   4   39.23    5.81
  -2  10   4   32.50    5.36
  -2  10   4   37.04    5.87
  -2  10   5   73.18    8.14
  -2  10   5   74.05    7.93
  -2  10   5  103.30    9.99
  -2  10   5  109.17    9.56
  -2  10   6  600.34   21.85
  -2  10   6  618.75   23.43
  -2  10   6  626.07   23.96
  -2  10   6  626.47   22.54
  -2  10   7  798.62   24.46
  -2  10   7  796.74   24.39
  -2  10   7  803.93   26.31
  -2  10   7  811.99   27.58
  -2  10   8  523.59   19.37
  -2  10   8  534.58   22.80
  -2  10   8  505.68   18.92
  -2  10   8  506.97   20.50
  -2  10   9  527.13   23.09
  -2  10   9  617.22   26.87
  -2  10  10  383.83   20.26
  -2  10  10  399.18   21.35
  -2  11   2  253.29   17.60
  -2  11   2  231.20   15.96
  -2  11   2  223.27   16.01
  -2  11   3  613.10   22.80
  -2  11   3  612.54   25.18
  -2  11   3  640.26   27.13
  -2  11   3  569.48   24.78
  -2  11   4  490.91   23.43
  -2  11   4  535.56   21.82
  -2  11   4  488.40   22.01
  -2  11   4  522.19   23.17
  -2  11   5  271.60   15.98
  -2  11   5  273.81   16.30
  -2  11   5  298.31   17.86
  -2  11   5  304.28   17.07
  -2  11   6  385.97   18.89
  -2  11   6  410.35   20.69
  -2  11   6  406.26   19.92
  -2  11   6  380.66   18.86
  -2  11   7  263.54   15.35
  -2  11   7  273.89   15.53
  -2  11   7  262.32   16.57
  -2  11   7  262.45   16.49
  -2  11   8  154.98   13.26
  -2  11   8  145.68   12.36
  -1 -11  -6  545.75   20.55
  -1 -11  -6  587.97   27.74
  -1 -11  -5  477.09   25.86
  -1 -11  -5  461.08   19.60
  -1 -11  -4  188.27   13.05
  -1 -11  -4  251.15   20.08
  -1 -11  -3  176.19   17.15
  -1 -11  -3  166.02   12.60
  -1 -11  -2   -1.35    3.86
  -1 -11  -2   14.82    4.23
  -1 -11  -1   99.52   14.13
  -1 -11  -1   96.56   10.25
  -1 -10  -7  188.40   13.42
  -1 -10  -7  190.09   10.91
  -1 -10  -6   83.86    9.88
  -1 -10  -6   78.84    7.40
  -1 -10  -5  131.70   12.89
  -1 -10  -5  137.44    9.91
  -1 -10  -4  511.36   19.60
  -1 -10  -4  518.46   26.29
  -1 -10  -3  367.08   23.30
  -1 -10  -3  317.43   16.17
  -1 -10  -2  573.42   29.96
  -1 -10  -2  586.78   22.54
  -1 -10  -1  923.85   39.29
  -1 -10  -1  954.86   29.72
  -1 -10   0  482.27   21.74
  -1 -10   1  174.21   13.50
  -1  -9  -7  211.68   12.95
  -1  -9  -7  235.80   10.91
  -1  -9  -6 1254.70   34.00
  -1  -9  -6 1310.61   26.66
  -1  -9  -5 2338.97   49.48
  -1  -9  -5 2243.54   36.57
  -1  -9  -4  871.96   31.78
  -1  -9  -4  887.20   23.75
  -1  -9  -3  597.56   20.29
  -1  -9  -2  243.14   13.47
  -1  -9  -1   -0.98    2.17
  -1  -9   0   59.47    7.13
  -1  -9   1  210.51   13.87
  -1  -9   1  218.76   16.86
  -1  -9   2  524.38   22.38
  -1  -9   2  539.60   29.19
  -1  -9   3  403.72   20.45
  -1  -9   3  379.39   26.55
  -1  -8  -7  419.94   15.98
  -1  -8  -6  138.84   10.36
  -1  -8  -6  143.35    8.01
  -1  -8  -5  273.71   15.48
  -1  -8  -5  301.05   12.05
  -1  -8  -4    9.88    2.30
  -1  -8  -3  462.43   16.35
  -1  -8  -2 1078.80   25.92
  -1  -8  -1 1266.94   29.17
  -1  -8   0 1492.03   32.89
  -1  -8   0 1615.39   39.47
  -1  -8   1 1271.19   31.28
  -1  -8   1 1276.95   39.18
  -1  -8   2  554.68   21.53
  -1  -8   2  612.97   29.96
  -1  -8   3  122.17   10.65
  -1  -8   3  137.15   15.61
  -1  -8   4    6.82    6.18
  -1  -8   4   -1.24    2.32
  -1  -8   5   23.59    8.32
  -1  -8   5   37.60    6.45
  -1  -7  -8   61.45    4.07
  -1  -7  -7  216.25    9.64
  -1  -7  -6 1695.31   31.62
  -1  -7  -6 1763.68   24.65
  -1  -7  -5 2529.93   42.25
  -1  -7  -5 2443.46   30.81
  -1  -7  -4 1487.01   25.36
  -1  -7  -3 1220.60   24.17
  -1  -7  -2 1666.61   29.17
  -1  -7  -1 1164.19   25.42
  -1  -7   0   97.44    7.66
  -1  -7   0   84.75    8.72
  -1  -7   1    4.17    3.49
  -1  -7   1    3.17    1.59
  -1  -7   2  366.31   15.98
  -1  -7   2  412.10   23.38
  -1  -7   3 1222.89   30.20
  -1  -7   3 1347.60   46.08
  -1  -7   4 1096.40   29.75
  -1  -7   4 1100.15   44.65
  -1  -7   5  622.27   23.54
  -1  -7   5  646.31   36.75
  -1  -7   6  590.14   23.94
  -1  -7   6  521.79   34.74
  -1  -6  -8 1421.91   11.60
  -1  -6  -7 2797.01   27.19
  -1  -6  -7 2773.05   35.64
  -1  -6  -6 2279.61   30.65
  -1  -6  -6 2352.63   24.25
  -1  -6  -6 2367.08   27.53
  -1  -6  -5 1217.72   25.47
  -1  -6  -5 1250.79   19.21
  -1  -6  -4  591.33   14.19
  -1  -6  -3  152.84    7.64
  -1  -6  -2  192.42    9.04
  -1  -6  -1  971.83   21.14
  -1  -6  -1 1048.71   31.52
  -1  -6   0 2542.48   35.67
  -1  -6   0 2544.84   44.39
  -1  -6   1 2493.24   49.41
  -1  -6   1 2427.61   36.30
  -1  -6   2 2492.34   38.36
  -1  -6   2 2419.47   53.58
  -1  -6   3  965.06   24.78
  -1  -6   3  942.66   35.83
  -1  -6   4  684.75   21.77
  -1  -6   4  658.73   32.44
  -1  -6   5   55.01   10.44
  -1  -6   5   69.51    7.27
  -1  -6   6   68.19    7.69
  -1  -6   6   76.64   13.16
  -1  -6   7  304.57   16.46
  -1  -6   7  337.41   29.11
  -1  -5  -7   35.93    2.11
  -1  -5  -7   33.37    1.66
  -1  -5  -6  107.42    6.42
  -1  -5  -6   96.59    4.73
  -1  -5  -5  719.12   16.41
  -1  -5  -5  761.10   21.85
  -1  -5  -5  747.26   14.03
  -1  -5  -5  748.21   12.44
  -1  -5  -4 3152.31   28.27
  -1  -5  -4 3211.80   31.86
  -1  -5  -3 3280.42   30.81
  -1  -5  -2 1984.58   25.71
  -1  -5  -1 8973.54   83.51
  -1  -5   0 2060.77   29.14
  -1  -5   0 2123.76   37.33
  -1  -5   1  311.30   11.81
  -1  -5   1  326.15   16.78
  -1  -5   2   77.99    6.24
  -1  -5   2   66.87    8.38
  -1  -5   3  808.42   31.84
  -1  -5   3  808.13   21.00
  -1  -5   4  415.50   15.67
  -1  -5   4  474.47   26.60
  -1  -5   5 1046.86   26.00
  -1  -5   5 1148.55   44.57
  -1  -5   6 1541.44   32.84
  -1  -5   6 1542.55   55.32
  -1  -5   7 1202.29   30.20
  -1  -5   7 1218.30   52.60
  -1  -5   8  292.26   15.75
  -1  -5   8  265.78   26.37
  -1  -5   9   96.86   17.38
  -1  -5   9  114.74   10.28
  -1  -4  -5 1280.89   16.20
  -1  -4  -5 1301.47   19.15
  -1  -4  -5 1295.10   12.52
  -1  -4  -4 3876.08   25.65
  -1  -4  -4 3865.77   43.65
  -1  -4  -3  767.60   12.68
  -1  -4  -3  796.69   14.27
  -1  -4  -2  942.84   15.35
  -1  -4  -2  951.40   27.16
  -1  -4  -2  940.12   17.04
  -1  -4  -1    7.85    2.72
  -1  -4  -1    8.45    1.69
  -1  -4   0 5415.90   42.62
  -1  -4   0 5664.80   53.95
  -1  -4   1 1680.83   25.20
  -1  -4   1 2346.32   40.26
  -1  -4   2 5242.17   68.96
  -1  -4   3 2596.06   34.66
  -1  -4   3 2604.68   53.50
  -1  -4   3 2614.95   36.14
  -1  -4   4 1733.75   29.75
  -1  -4   4 1675.97   46.84
  -1  -4   4 1660.06   30.44
  -1  -4   5 1223.90   25.97
  -1  -4   5 1257.98   43.99
  -1  -4   5 1273.41   27.90
  -1  -4   6   72.52    6.58
  -1  -4   6   79.07   11.92
  -1  -4   6   65.20    6.74
  -1  -4   7   15.67    6.18
  -1  -4   7   11.78    2.99
  -1  -4   7   25.28    4.57
  -1  -4   8  125.34    9.56
  -1  -4   8  123.86   17.54
  -1  -4   8  112.73    9.88
  -1  -4   9  278.70   14.64
  -1  -4   9  233.23   25.20
  -1  -4   9  234.79   14.90
  -1  -3 -12  223.70   13.90
  -1  -3 -11  940.49   27.53
  -1  -3 -10 1382.07   31.39
  -1  -3  -9 1784.21   33.53
  -1  -3  -8 1406.14   27.24
  -1  -3  -4  338.17    5.44
  -1  -3  -4  348.11    7.58
  -1  -3  -4  330.09    9.41
  -1  -3  -4  356.51   10.12
  -1  -3  -3 5325.89   41.35
  -1  -3  -3 5027.88   36.67
  -1  -3  -2 2664.65   23.75
  -1  -3  -2 2732.68   36.72
  -1  -3  -2 2736.96   26.08
  -1  -3   0 1384.74   32.21
  -1  -3   0 2602.69   28.69
  -1  -3   1 2023.07   24.44
  -1  -3   1 2059.82   24.89
  -1  -3   1 2025.32   33.58
  -1  -3   2 1244.08   20.37
  -1  -3   2 1234.49   29.80
  -1  -3   2 1254.36   21.48
  -1  -3   3  314.92   10.88
  -1  -3   3  304.96   16.43
  -1  -3   3  329.53   11.65
  -1  -3   4   31.65    3.75
  -1  -3   4   38.31    6.79
  -1  -3   4   37.04    4.25
  -1  -3   5  766.62   18.94
  -1  -3   5  727.26   19.84
  -1  -3   6 1812.45   30.78
  -1  -3   6 1836.26   53.18
  -1  -3   6 1897.02   33.69
  -1  -3   7 1819.40   31.73
  -1  -3   7 1824.18   56.86
  -1  -3   7 1820.27   35.16
  -1  -3   8 1336.79   28.56
  -1  -3   8 1292.62   51.31
  -1  -3   8 1340.81   32.10
  -1  -3   9  609.80   20.13
  -1  -3   9  632.28   23.38
  -1  -3   9  642.71   39.00
  -1  -3  10  215.37   12.66
  -1  -3  10  226.97   14.85
  -1  -2 -12  611.91   26.13
  -1  -2 -11  269.38   16.64
  -1  -2 -10   78.60    8.69
  -1  -2  -9   95.77    8.88
  -1  -2  -8  173.00   11.18
  -1  -2  -7 1991.82   35.53
  -1  -2  -6 5020.24   51.02
  -1  -2  -6 5060.77   37.94
  -1  -2  -5 2189.38   29.91
  -1  -2  -5 2269.96   24.15
  -1  -2  -1 3449.24   24.54
  -1  -2  -1 3487.86   23.62
  -1  -2   1  953.91   14.50
  -1  -2   1 1021.89   22.64
  -1  -2   1  933.25   10.41
  -1  -2   1  903.00   18.28
  -1  -2   1  980.31   15.19
  -1  -2   1  935.26   13.76
  -1  -2   2 2217.02   24.44
  -1  -2   2 2111.50   13.87
  -1  -2   2 2254.72   22.96
  -1  -2   2 2143.89   33.47
  -1  -2   2 2213.37   25.05
  -1  -2   2 2140.72   36.27
  -1  -2   3 5148.01   39.76
  -1  -2   3 5273.42   38.28
  -1  -2   3 5144.02   58.97
  -1  -2   3 5167.11   42.03
  -1  -2   4 6175.68   44.60
  -1  -2   4 6114.02   46.02
  -1  -2   4 6111.54   49.06
  -1  -2   5 4071.74   39.71
  -1  -2   5 4072.93   67.00
  -1  -2   5 4083.87   43.17
  -1  -2   6  529.22   15.06
  -1  -2   6  506.94   25.55
  -1  -2   6  555.03   17.30
  -1  -2   7  289.88   11.89
  -1  -2   7  303.11   21.74
  -1  -2   7  277.78   12.92
  -1  -2   8   46.60    4.99
  -1  -2   8   52.39   10.28
  -1  -2   8   60.00    6.50
  -1  -2   9  116.78    8.22
  -1  -2   9  140.74   17.30
  -1  -2   9  134.90   10.25
  -1  -2  10  451.94   19.81
  -1  -2  10  474.87   34.03
  -1  -2  10  457.93   16.83
  -1  -2  11  463.27   35.98
  -1  -2  11  533.28   22.64
  -1  -1 -12   17.86    5.89
  -1  -1 -11  400.15   22.83
  -1  -1 -10  899.52   32.71
  -1  -1  -9 1520.06   40.13
  -1  -1  -9 1496.79   16.75
  -1  -1  -8 1545.24   16.67
  -1  -1  -8 1564.95   16.12
  -1  -1  -8 1515.52   38.23
  -1  -1  -8 1509.26   16.64
  -1  -1  -7 2318.60   18.12
  -1  -1  -7 2341.51   44.86
  -1  -1  -7 2360.45   19.60
  -1  -1  -6 2349.73   17.28
  -1  -1  -6 2327.03   16.49
  -1  -1  -6 2306.08   16.17
  -1  -1  -6 2283.89   40.85
  -1  -1  -6 2367.66   23.17
  -1  -1  -5  737.22    7.85
  -1  -1  -5  680.10   20.42
  -1  -1  -5  746.84    8.11
  -1  -1  -5  727.71   12.23
  -1  -1  -5  736.48    8.51
  -1  -1  -5  725.46    7.90
  -1  -1  -4  197.73    3.36
  -1  -1  -4  192.73    9.48
  -1  -1  -4  203.46    6.10
  -1  -1  -4  204.91    3.49
  -1  -1  -4  191.49    3.33
  -1  -1  -3 2473.63   28.64
  -1  -1  -3 2475.83   20.03
  -1  -1  -1    0.05    0.21
  -1  -1  -1   -0.08    0.16
  -1  -1   0    0.00    0.24
  -1  -1   0    0.18    0.24
  -1  -1   0   -0.16    0.26
  -1  -1   1 1773.17   16.57
  -1  -1   1 1899.61   22.09
  -1  -1   1 1886.22   17.81
  -1  -1   1 1834.35   14.27
  -1  -1   1 1788.20   19.47
  -1  -1   1 1928.62   17.70
  -1  -1   3  953.41   21.82
  -1  -1   3 1037.90   20.82
  -1  -1   3 1022.79   13.63
  -1  -1   3 1015.92   15.09
  -1  -1   3  990.64   16.70
  -1  -1   4  791.80   19.52
  -1  -1   4  799.49   14.64
  -1  -1   4  810.16   13.71
  -1  -1   4  794.02   23.04
  -1  -1   4  780.86   16.43
  -1  -1   5   11.94    1.93
  -1  -1   5   11.78    2.38
  -1  -1   5   16.09    2.32
  -1  -1   6 1700.72   42.40
  -1  -1   6 1716.81   23.99
  -1  -1   6 1733.93   28.85
  -1  -1   6 1683.34   24.52
  -1  -1   7 2986.97   33.98
  -1  -1   7 2824.78   60.55
  -1  -1   7 2834.87   39.79
  -1  -1   8 1788.09   53.02
  -1  -1   8 1785.24   27.98
  -1  -1   8 1874.67   34.64
  -1  -1   9 1087.28   22.69
  -1  -1   9 1111.61   45.36
  -1  -1   9 1133.81   28.59
  -1  -1  10  829.32   20.77
  -1  -1  10  839.52   43.12
  -1  -1  10  877.61   26.74
  -1  -1  11  256.69   26.13
  -1  -1  11  280.45   16.12
  -1  -1  12   38.73    6.66
  -1  -1  12   21.40    9.72
  -1   0 -12  453.10   27.87
  -1   0 -11  969.84   39.60
  -1   0 -10  483.24   27.19
  -1   0  -9  612.86   13.66
  -1   0  -9  693.49   31.18
  -1   0  -8    2.88    3.41
  -1   0  -8    7.27    1.61
  -1   0  -7  561.13   11.81
  -1   0  -7  553.84   12.18
  -1   0  -7  557.96   25.92
  -1   0  -7  569.48   12.89
  -1   0  -6 1056.13   15.01
  -1   0  -6 1073.25   13.53
  -1   0  -6 1098.80   15.56
  -1   0  -6 1083.71   34.03
  -1   0  -5 1085.67   13.92
  -1   0  -5 1084.88   13.16
  -1   0  -5 1040.17   30.94
  -1   0  -5 1069.90   17.01
  -1   0  -4 6881.09   72.36
  -1   0  -4    0.71    1.24
  -1   0  -3   -0.24    0.74
  -1   0  -2 4262.02   43.14
  -1   0  -2    0.11    0.82
  -1   0  -1    0.13    0.45
  -1   0  -1    0.00    0.18
  -1   0  -1   -0.21    0.53
  -1   0   0   -0.05    0.11
  -1   0   0    0.03    0.13
  -1   0   0   -0.13    0.18
  -1   0   0    0.03    0.11
  -1   0   1   -0.03    0.24
  -1   0   1   -0.05    0.18
  -1   0   1   -0.05    0.16
  -1   0   1    0.00    0.24
  -1   0   3 2336.94   20.05
  -1   0   3 2372.10   22.67
  -1   0   3 2340.37   20.66
  -1   0   3 2313.21   17.46
  -1   0   3 2444.18   24.02
  -1   0   4 2852.47   27.85
  -1   0   4 2762.61   20.29
  -1   0   4 2860.34   24.28
  -1   0   4 2802.43   20.24
  -1   0   4 2730.25   25.13
  -1   0   4 2808.64   29.06
  -1   0   5 5068.98   60.16
  -1   0   5 5028.67   43.09
  -1   0   6 4179.56   60.63
  -1   0   6 4336.84   33.37
  -1   0   6 4334.35   35.27
  -1   0   6 4188.02   39.63
  -1   0   6 4231.77   27.69
  -1   0   6 4265.19   20.16
  -1   0   6 4212.27   42.93
  -1   0   7 2411.28   21.82
  -1   0   7 2341.59   27.13
  -1   0   7 2290.91   50.25
  -1   0   7 2243.57   33.63
  -1   0   7 2418.05   28.06
  -1   0   8  548.63   13.95
  -1   0   8  585.96   10.73
  -1   0   8  562.00   27.37
  -1   0   8  542.06   17.73
  -1   0   9    0.69    1.19
  -1   0   9    1.80    2.06
  -1   0  10  171.86    8.56
  -1   0  10  151.94   17.36
  -1   0  11  185.33   20.55
  -1   0  11  176.96   12.42
  -1   0  12  428.45   34.00
  -1   0  12  482.85   21.64
  -1   1 -12    1.48    6.31
  -1   1 -11    1.77    4.94
  -1   1 -10   20.61    7.11
  -1   1  -9  544.41   15.06
  -1   1  -9  530.25   31.07
  -1   1  -8 2869.35   33.18
  -1   1  -8 2624.83   66.21
  -1   1  -7 2428.67   29.06
  -1   1  -7 2346.34   60.29
  -1   1  -6 2641.58   28.67
  -1   1  -6 2693.98   18.60
  -1   1  -5 2105.66   23.88
  -1   1  -5 2147.53   24.81
  -1   1  -5 2115.17   25.89
  -1   1  -4 1005.38   15.38
  -1   1  -4 1006.62   15.48
  -1   1  -4 1019.38   15.69
  -1   1  -3   47.50    3.12
  -1   1  -3   45.60    3.06
  -1   1  -3   53.92    6.21
  -1   1  -3   49.22    3.04
  -1   1  -2 1378.22   15.09
  -1   1  -2 1330.87   14.80
  -1   1  -2 1320.59   27.50
  -1   1  -2 1329.63   12.76
  -1   1  -1   -0.18    0.32
  -1   1  -1    0.21    0.55
  -1   1   0   -0.13    0.21
  -1   1   0 2482.54   20.69
  -1   1   0    0.08    0.24
  -1   1   0  123.06    3.70
  -1   1   0 1981.33   23.72
  -1   1   1    2.35    0.63
  -1   1   1    4.12    0.82
  -1   1   4  461.69    8.77
  -1   1   4  503.59    9.72
  -1   1   4  437.80    9.04
  -1   1   4  455.87   11.28
  -1   1   4  479.76    9.22
  -1   1   5   49.51    3.09
  -1   1   5   52.95    3.28
  -1   1   5   51.60    3.33
  -1   1   5   48.53    3.20
  -1   1   5   61.80    4.70
  -1   1   6   46.39    3.33
  -1   1   6   48.14    3.46
  -1   1   6   42.62    3.14
  -1   1   6   44.09    2.88
  -1   1   6   45.79    2.99
  -1   1   6   43.88    4.36
  -1   1   7  784.91   12.42
  -1   1   7  827.84   14.56
  -1   1   7  818.30   28.16
  -1   1   7  771.59   14.80
  -1   1   7  762.95   13.61
  -1   1   7  768.98   14.03
  -1   1   7  791.62   19.52
  -1   1   8 1545.74   20.66
  -1   1   8 1502.65   17.70
  -1   1   8 1516.23   21.51
  -1   1   8 1510.53   28.98
  -1   1   8 1569.79   21.32
  -1   1   9 1354.73   20.69
  -1   1   9 1339.88   19.71
  -1   1   9 1379.62   43.75
  -1   1   9 1357.61   29.41
  -1   1  10 1273.41   46.02
  -1   1  10 1339.75   31.12
  -1   1  11  795.84   39.63
  -1   1  11  836.00   25.92
  -1   1  12  537.01   35.59
  -1   1  12  534.90   22.35
  -1   1  13  114.98   11.15
  -1   2 -11 1060.89   50.70
  -1   2 -10  417.46   31.41
  -1   2  -9  414.42   14.87
  -1   2  -9  482.98   32.73
  -1   2  -8  762.71   19.39
  -1   2  -7  296.77   11.41
  -1   2  -6   36.46    3.91
  -1   2  -6   25.34    1.43
  -1   2  -5 1253.75   21.48
  -1   2  -4 2876.59   30.67
  -1   2  -4 2999.57   30.81
  -1   2  -3 5580.76   40.79
  -1   2  -2 7000.40   73.55
  -1   2  -1    0.13    0.45
  -1   2  -1 4760.67   54.82
  -1   2   0 4361.04   38.28
  -1   2   0 4446.22   45.86
  -1   2   1  468.66    8.82
  -1   2   1  474.34    8.77
  -1   2   1  466.44   11.36
  -1   2   1  459.49    8.72
  -1   2   1  471.12    8.88
  -1   2   1  477.41    8.96
  -1   2   2   89.51    3.67
  -1   2   2   88.51    4.07
  -1   2   2   96.59    4.54
  -1   2   2   79.39    4.23
  -1   2   2   85.15    3.59
  -1   2   2   90.41    3.33
  -1   2   3  927.68   11.62
  -1   2   3  920.41   12.76
  -1   2   3  930.45   14.03
  -1   2   3  985.22    9.91
  -1   2   3  946.09   14.69
  -1   2   3  924.32   11.70
  -1   2   4  965.72   12.13
  -1   2   4  983.35   12.39
  -1   2   4 1057.00   15.85
  -1   2   4  969.40   15.14
  -1   2   4  978.54    9.75
  -1   2   4 1007.60   13.02
  -1   2   4  994.71   16.59
  -1   2   7 2401.80   27.40
  -1   2   7 2436.59   20.63
  -1   2   7 2429.72   22.85
  -1   2   7 2485.18   22.83
  -1   2   7 2340.85   26.26
  -1   2   7 2476.96   23.94
  -1   2   7 2405.26   33.79
  -1   2   8  299.47   10.12
  -1   2   8  327.32    8.35
  -1   2   8  311.28    8.43
  -1   2   8  300.60   18.10
  -1   2   8  307.18    8.69
  -1   2   8  317.51   13.16
  -1   2   9  982.53   15.83
  -1   2   9  985.86   15.61
  -1   2   9 1022.24   19.26
  -1   2   9  982.29   24.60
  -1   2   9 1003.58   35.72
  -1   2  10   66.66    5.10
  -1   2  10   69.75    7.08
  -1   2  10   71.33   10.62
  -1   2  11    6.24    2.69
  -1   2  11    4.62    3.46
  -1   2  12   72.63   13.10
  -1   2  12   76.75    8.45
  -1   2  13  422.37   33.29
  -1   2  13  395.58   19.89
  -1   3 -10   -2.22    6.60
  -1   3  -9  166.07   10.33
  -1   3  -8 1251.03   27.40
  -1   3  -7  876.19   21.90
  -1   3  -6 1343.95   26.05
  -1   3  -5 3356.93   39.52
  -1   3  -4 2270.18   30.94
  -1   3  -3  854.18   18.07
  -1   3  -3  841.52    9.27
  -1   3  -2  424.20   12.15
  -1   3  -2  437.01   13.10
  -1   3  -2  437.62    7.77
  -1   3  -2  440.79   11.36
  -1   3  -1   11.33    3.51
  -1   3  -1    8.96    1.69
  -1   3  -1    5.55    0.98
  -1   3  -1    4.94    1.37
  -1   3  -1    6.82    1.48
  -1   3   0 2999.81   28.48
  -1   3   0 3089.32   28.82
  -1   3   0 3107.34   30.57
  -1   3   1 8905.33   68.43
  -1   3   2 4119.25   39.71
  -1   3   2 4266.14   31.76
  -1   3   4 5352.65   39.50
  -1   3   4 6103.00   41.98
  -1   3   5 1245.38   14.95
  -1   3   5 1285.96   15.09
  -1   3   5 1252.85   17.70
  -1   3   5 1291.48   18.34
  -1   3   5 1269.10   14.48
  -1   3   5 1259.67   21.19
  -1   3   5 1270.40   20.05
  -1   3   6 2282.67   20.37
  -1   3   6 2310.86   23.51
  -1   3   6 2362.78   28.67
  -1   3   6 2271.89   19.60
  -1   3   6 2314.27   20.82
  -1   3   6 2365.08   31.20
  -1   3   7   32.76    2.83
  -1   3   7   35.43    3.73
  -1   3   7   31.25    2.46
  -1   3   7   40.24    2.96
  -1   3   7   30.75    3.86
  -1   3   7   34.98    2.75
  -1   3   8  885.80   13.76
  -1   3   8  841.92   14.16
  -1   3   8  848.60   18.65
  -1   3   8  932.09   14.13
  -1   3   8  919.30   13.50
  -1   3   8  870.61   21.64
  -1   3   9  585.65   15.93
  -1   3   9  579.49   26.45
  -1   3   9  558.86   11.62
  -1   3   9  575.48   10.70
  -1   3   9  565.54   18.73
  -1   3  10 1302.71   24.36
  -1   3  10 1325.11   42.83
  -1   3  10 1232.14   29.33
  -1   3  11  939.44   39.47
  -1   3  11  886.33   20.79
  -1   3  11  948.84   27.21
  -1   3  12 1135.63   47.45
  -1   3  12 1193.67   32.81
  -1   3  13  254.32   24.60
  -1   3  13  249.88   15.96
  -1   4  -9  759.81   24.07
  -1   4  -8  959.83   26.21
  -1   4  -7  518.17   18.49
  -1   4  -6   39.60    5.02
  -1   4  -5   51.78    5.47
  -1   4  -4  308.58   12.71
  -1   4  -3 1425.69   26.10
  -1   4  -3 1431.16   14.27
  -1   4  -2 3383.61   38.31
  -1   4  -2 3273.28   24.36
  -1   4  -2 3360.02   40.29
  -1   4  -1 3663.32   37.97
  -1   4  -1 3491.48   27.05
  -1   4   0 5116.43   42.83
  -1   4   0 5100.61   45.63
  -1   4   1 6637.11   70.36
  -1   4   2 1386.67   20.34
  -1   4   2 1416.02   20.90
  -1   4   2 1381.76   20.18
  -1   4   2 1403.34   20.13
  -1   4   2 1334.83   27.74
  -1   4   3  156.04    6.66
  -1   4   3  139.97    6.76
  -1   4   3  123.14    5.65
  -1   4   3  141.48    6.13
  -1   4   3  133.68    6.00
  -1   4   4 1171.40   16.91
  -1   4   4 1108.63   22.54
  -1   4   4 1196.24   16.88
  -1   4   4 1103.90   19.87
  -1   4   4 1183.24   17.25
  -1   4   4 1145.96   16.70
  -1   4   5 1513.64   18.39
  -1   4   5 1539.14   24.76
  -1   4   5 1509.97   19.13
  -1   4   5 1526.17   18.31
  -1   4   5 1541.15   24.28
  -1   4   5 1554.12   18.81
  -1   4   6 2847.08   24.41
  -1   4   6 2759.44   31.70
  -1   4   6 2872.23   34.16
  -1   4   6 2826.05   31.33
  -1   4   6 2814.32   35.30
  -1   4   6 2699.89   25.34
  -1   4   6 2772.79   24.60
  -1   4   6 2779.76   24.09
  -1   4   7 3750.24   27.58
  -1   4   7 3631.80   39.58
  -1   4   7 3716.08   27.93
  -1   4   7 3601.84   27.27
  -1   4   7 3697.19   45.18
  -1   4   7 3685.62   29.83
  -1   4   7 3625.01   35.01
  -1   4   7 3609.95   42.32
  -1   4   8  701.13   11.84
  -1   4   8  659.94   17.62
  -1   4   8  652.94   11.44
  -1   4   8  657.09   14.40
  -1   4   8  659.25   12.95
  -1   4   8  690.40   11.89
  -1   4   8  723.67   20.13
  -1   4   9 2373.56   34.56
  -1   4   9 2299.37   24.54
  -1   4   9 2285.02   20.40
  -1   4   9 2361.01   38.10
  -1   4   9 2341.48   21.45
  -1   4  10 1123.13   24.44
  -1   4  10 1113.75   28.03
  -1   4  11  106.55    7.85
  -1   4  11  105.26   13.10
  -1   4  11   94.72    8.85
  -1   4  12    3.14    2.01
  -1   4  12    7.19    3.14
  -1   4  12    8.90    5.34
  -1   4  13  259.71   23.88
  -1   4  13  303.09   17.54
  -1   5  -9   14.66    4.65
  -1   5  -8   34.37    5.68
  -1   5  -7  521.18   20.18
  -1   5  -6 1044.69   27.61
  -1   5  -5 1062.79   26.74
  -1   5  -4 1833.64   33.69
  -1   5  -3 1950.23   33.34
  -1   5  -3 2009.60   19.34
  -1   5  -3 1984.68   35.80
  -1   5  -2 1542.94   28.51
  -1   5  -2 1525.45   18.81
  -1   5  -2 1577.76   30.41
  -1   5  -1  378.62   13.53
  -1   5  -1  349.53    9.62
  -1   5  -1  387.02   14.50
  -1   5   0  401.40   13.42
  -1   5   0  408.93   11.04
  -1   5   0  406.52   14.43
  -1   5   1  928.21   17.20
  -1   5   1  950.72   20.50
  -1   5   2  774.71   17.12
  -1   5   2  732.81   17.17
  -1   5   3 3605.49   35.43
  -1   5   3 3565.56   36.72
  -1   5   3 3493.10   36.09
  -1   5   5 2564.15   27.11
  -1   5   5 2517.57   28.56
  -1   5   5 2540.48   27.08
  -1   5   6 1245.61   18.20
  -1   5   6 1260.62   24.36
  -1   5   6 1249.29   18.78
  -1   5   6 1233.36   18.02
  -1   5   7  202.46    7.03
  -1   5   7  186.37    7.58
  -1   5   7  216.46   10.46
  -1   5   7  203.99    7.37
  -1   5   7  206.68    9.78
  -1   5   7  225.81   11.07
  -1   5   7  219.50    7.32
  -1   5   8   31.62    2.72
  -1   5   8   30.54    4.17
  -1   5   8   27.87    2.64
  -1   5   8   31.39    2.75
  -1   5   8   30.99    3.14
  -1   5   8   35.14    4.65
  -1   5   9   11.62    1.64
  -1   5   9   17.94    3.51
  -1   5   9    9.91    1.98
  -1   5   9   13.95    1.80
  -1   5   9   14.32    3.43
  -1   5  10  877.90   16.96
  -1   5  10  910.74   25.68
  -1   5  11  669.19   20.85
  -1   5  11  716.93   24.20
  -1   5  12  973.94   25.76
  -1   5  12  996.45   41.95
  -1   5  13  637.96   36.09
  -1   5  13  695.18   26.68
  -1   6  -8  367.79   18.92
  -1   6  -7  562.56   22.62
  -1   6  -6  354.26   17.28
  -1   6  -5  217.96   13.10
  -1   6  -4   53.08    6.42
  -1   6  -3  197.07   11.65
  -1   6  -3  227.98    7.24
  -1   6  -3  216.33   12.87
  -1   6  -2  635.71   20.00
  -1   6  -2  632.68   13.32
  -1   6  -2  651.88   21.45
  -1   6  -1 2487.43   38.18
  -1   6  -1 2497.39   28.19
  -1   6  -1 2572.00   41.27
  -1   6   0 3399.07   42.80
  -1   6   0 3509.55   46.50
  -1   6   1 2804.09   37.52
  -1   6   1 2841.42   32.68
  -1   6   1 2839.84   39.81
  -1   6   2 2085.92   29.17
  -1   6   2 2076.04   30.94
  -1   6   2 1996.10   31.86
  -1   6   3 1170.71   22.48
  -1   6   3 1097.88   21.85
  -1   6   3 1140.60   23.38
  -1   6   4   83.41    5.76
  -1   6   4   74.85    5.89
  -1   6   4   81.80    6.29
  -1   6   4   79.47    5.76
  -1   6   5  125.28    7.85
  -1   6   5  106.92    6.76
  -1   6   5  118.02    6.60
  -1   6   5  116.80    6.63
  -1   6   6  295.90   10.07
  -1   6   6  297.99   10.12
  -1   6   6  275.00   12.18
  -1   6   6  307.69   11.15
  -1   6   7 2034.96   24.89
  -1   6   7 2013.24   33.74
  -1   6   7 2014.75   28.30
  -1   6   7 2110.57   25.23
  -1   6   8 1063.11   17.07
  -1   6   8 1062.60   25.13
  -1   6   8 1063.90   20.37
  -1   6   8 1092.96   26.50
  -1   6   8 1068.92   17.17
  -1   6   9 1825.21   26.71
  -1   6   9 1827.25   34.13
  -1   6   9 1757.18   35.01
  -1   6  10 1623.44   33.02
  -1   6  10 1570.87   24.78
  -1   6  10 1578.69   34.90
  -1   6  11  350.72   16.12
  -1   6  11  371.91   17.57
  -1   6  12  223.33   13.08
  -1   6  12  217.14   19.52
  -1   6  12  247.66   15.24
  -1   6  13    5.07    2.88
  -1   6  13    8.69    3.86
  -1   6  13    2.56    4.81
  -1   7  -5  158.47   12.10
  -1   7  -4  903.11   27.87
  -1   7  -3 1768.57   37.52
  -1   7  -3 1878.08   40.98
  -1   7  -2 1534.46   33.74
  -1   7  -2 1523.95   22.48
  -1   7  -2 1583.42   35.96
  -1   7  -1 1085.70   20.21
  -1   7  -1 1163.87   29.85
  -1   7   0   23.72    3.91
  -1   7   0   22.54    3.25
  -1   7   1    4.65    1.61
  -1   7   1    1.45    1.77
  -1   7   1    0.37    1.29
  -1   7   2  162.27    9.59
  -1   7   2  160.29    8.61
  -1   7   2  147.79    9.67
  -1   7   3  986.28   22.27
  -1   7   3  958.25   22.40
  -1   7   3 1021.13   24.39
  -1   7   4 2807.53   38.60
  -1   7   4 2903.67   37.83
  -1   7   4 2793.58   38.97
  -1   7   4 2960.31   38.44
  -1   7   5 1946.96   33.37
  -1   7   5 1962.99   32.44
  -1   7   5 1971.42   30.20
  -1   7   6 1563.79   25.71
  -1   7   6 1623.29   28.82
  -1   7   6 1581.54   30.75
  -1   7   6 1605.69   26.10
  -1   7   7 1276.50   22.17
  -1   7   7 1218.06   27.77
  -1   7   7 1254.39   21.93
  -1   7   7 1220.67   24.44
  -1   7   8  506.68   13.32
  -1   7   8  469.82   15.09
  -1   7   8  482.56   13.13
  -1   7   9  329.35   15.22
  -1   7   9  345.41   12.84
  -1   7   9  351.81   16.43
  -1   7  10  146.89   10.59
  -1   7  10  124.99    7.77
  -1   7  10  143.12   10.81
  -1   7  11  450.33   19.02
  -1   7  11  456.19   20.13
  -1   7  12  428.27   19.44
  -1   7  12  412.39   20.05
  -1   7  13  369.19   18.39
  -1   7  13  401.42   28.16
  -1   7  13  403.40   20.79
  -1   8  -5  269.56   16.91
  -1   8  -4  567.68   23.67
  -1   8  -3   -0.90    1.72
  -1   8  -2   77.38    8.27
  -1   8  -2   56.67    7.69
  -1   8  -1  360.26   16.94
  -1   8  -1  337.65   12.10
  -1   8  -1  354.66   17.99
  -1   8   0 1077.82   28.27
  -1   8   0 1127.76   31.31
  -1   8   0 1046.65   22.30
  -1   8   1 1505.85   32.47
  -1   8   1 1439.91   27.37
  -1   8   2 2080.38   37.09
  -1   8   2 2061.33   33.58
  -1   8   2 2024.95   38.63
  -1   8   3 1042.60   25.50
  -1   8   3 1043.98   24.57
  -1   8   3 1044.67   27.03
  -1   8   4  579.81   19.60
  -1   8   4  545.75   18.23
  -1   8   4  599.17   18.78
  -1   8   5  142.75    8.82
  -1   8   5  151.39    9.91
  -1   8   5  129.85    9.19
  -1   8   5  155.48    9.38
  -1   8   6   47.87    5.73
  -1   8   6   39.63    4.60
  -1   8   6   32.15    4.68
  -1   8   6   37.89    4.44
  -1   8   7  210.09   12.13
  -1   8   7  224.75   10.36
  -1   8   7  204.38   11.12
  -1   8   7  227.90   10.46
  -1   8   8  651.83   16.83
  -1   8   8  608.24   21.16
  -1   8   8  670.51   16.96
  -1   8   8  629.11   19.21
  -1   8   9 1015.68   28.14
  -1   8   9  966.46   23.78
  -1   8   9 1052.88   30.17
  -1   8  10 1259.25   32.36
  -1   8  10 1205.11   32.68
  -1   8  11  636.06   23.83
  -1   8  11  665.22   25.31
  -1   8  12  408.21   19.68
  -1   8  12  442.61   21.77
  -1   9  -3  822.48   29.56
  -1   9  -2  504.94   22.43
  -1   9  -2  521.37   24.09
  -1   9  -1  905.94   29.14
  -1   9  -1  923.45   30.75
  -1   9   0  268.19   11.94
  -1   9   0  272.55   16.49
  -1   9   0  279.36   15.61
  -1   9   1  258.91   14.64
  -1   9   1  240.84   11.89
  -1   9   1  250.38   15.38
  -1   9   2  163.57   10.12
  -1   9   2  174.24   11.78
  -1   9   2  153.34   12.15
  -1   9   3  121.93    8.98
  -1   9   3  127.66    9.78
  -1   9   3  125.20   10.28
  -1   9   4  710.88   23.80
  -1   9   4  725.41   22.64
  -1   9   4  725.09   22.30
  -1   9   5  850.00   23.51
  -1   9   5  837.19   24.57
  -1   9   5  826.52   25.05
  -1   9   5  901.66   24.54
  -1   9   6  863.37   22.80
  -1   9   6  863.03   25.50
  -1   9   6  895.95   25.63
  -1   9   6  819.23   22.59
  -1   9   7 1314.20   32.23
  -1   9   7 1319.27   27.45
  -1   9   7 1245.69   29.75
  -1   9   7 1340.20   27.95
  -1   9   8  699.52   19.23
  -1   9   8  718.12   24.44
  -1   9   8  740.47   19.81
  -1   9   8  672.65   21.90
  -1   9   9  271.65   15.51
  -1   9   9  288.21   14.29
  -1   9  10   95.96    9.78
  -1   9  10  134.40   11.76
  -1   9  11    5.34    2.77
  -1   9  11    6.37    3.54
  -1   9  12  110.43   10.94
  -1   9  12  135.22   12.68
  -1  10  -1   36.12    6.71
  -1  10  -1   48.74    7.74
  -1  10   0  176.41   13.47
  -1  10   0  174.74   14.29
  -1  10   1  168.90   12.84
  -1  10   1  173.18   10.70
  -1  10   1  200.34   15.03
  -1  10   2  728.32   25.71
  -1  10   2  696.19   22.03
  -1  10   2  774.07   28.48
  -1  10   3  721.18   23.09
  -1  10   3  763.69   25.68
  -1  10   3  803.00   28.69
  -1  10   4  883.37   26.10
  -1  10   4  951.83   27.93
  -1  10   4  975.87   30.12
  -1  10   4  920.78   27.82
  -1  10   5  735.37   24.33
  -1  10   5  743.64   23.94
  -1  10   5  739.49   25.76
  -1  10   5  822.11   25.57
  -1  10   6  146.08   11.31
  -1  10   6  160.26   11.68
  -1  10   6  164.57   10.94
  -1  10   6  171.54   11.25
  -1  10   7   -2.03    1.90
  -1  10   7    0.79    2.17
  -1  10   7   -2.03    2.56
  -1  10   7   -0.32    1.59
  -1  10   8   81.93    8.74
  -1  10   8   73.37    8.03
  -1  10   9  228.40   14.93
  -1  10   9  279.39   15.09
  -1  10  10  520.71   23.17
  -1  10  10  580.18   26.18
  -1  10  11  411.36   21.24
  -1  10  11  367.26   20.45
  -1  11   1  250.94   16.75
  -1  11   2   62.64    8.32
  -1  11   2   64.57    7.32
  -1  11   2   81.58    9.99
  -1  11   3   48.48    7.32
  -1  11   3   58.94    7.29
  -1  11   3   45.39    7.77
  -1  11   4    1.27    2.30
  -1  11   4    5.28    3.06
  -1  11   4    7.56    3.67
  -1  11   4    2.80    2.64
  -1  11   5  185.20   12.89
  -1  11   5  189.80   13.05
  -1  11   5  179.63   14.21
  -1  11   5  208.90   14.00
  -1  11   6  360.47   17.54
  -1  11   6  354.03   18.26
  -1  11   6  350.19   18.89
  -1  11   6  364.80   18.10
  -1  11   7  621.02   24.57
  -1  11   7  570.93   23.70
  -1  11   7  554.55   21.22
  -1  11   7  614.02   22.32
  -1  11   8  562.90   24.20
  -1  11   8  519.52   22.38
  -1  11   9  339.10   19.18
  -1  11   9  327.71   17.62
   0 -11  -7   35.77    6.82
   0 -11  -6   83.14   10.25
   0 -11  -5  168.40   15.32
   0 -11  -5  150.59   11.55
   0 -11  -4  582.13   23.14
   0 -11  -4  602.24   29.19
   0 -11  -3  716.82   26.26
   0 -11  -3  724.56   33.71
   0 -11  -2  316.59   23.25
   0 -11  -2  298.57   17.62
   0 -11  -1  386.42   26.87
   0 -11  -1  364.04   19.74
   0 -10  -7  869.95   27.58
   0 -10  -6  573.23   24.36
   0 -10  -5  995.02   26.90
   0 -10  -5  959.96   33.37
   0 -10  -4  390.14   22.35
   0 -10  -4  376.91   17.15
   0 -10  -3   44.91    6.29
   0 -10  -3   36.43    7.19
   0 -10  -2    6.84    3.57
   0 -10  -2    8.64    3.41
   0 -10  -1   83.57   11.99
   0 -10  -1   74.13    8.48
   0 -10   0  271.73   21.88
   0 -10   0  274.16   16.51
   0 -10   1  356.30   25.63
   0 -10   1  320.37   18.12
   0  -9  -8  503.56   17.15
   0  -9  -7  487.71   18.81
   0  -9  -6   51.86    6.82
   0  -9  -5   43.62    5.31
   0  -9  -5   53.42    7.56
   0  -9  -4  690.16   27.50
   0  -9  -4  645.12   20.55
   0  -9  -3 1071.19   35.90
   0  -9  -3 1048.68   27.16
   0  -9  -2 1253.41   40.55
   0  -9  -2 1232.91   30.30
   0  -9  -1 1115.23   29.80
   0  -9  -1 1073.12   38.76
   0  -9   0  967.81   38.15
   0  -9   0  909.74   27.69
   0  -9   1  291.46   21.45
   0  -9   1  237.83   14.58
   0  -9   2   23.86    6.76
   0  -9   2   32.95    7.90
   0  -9   2   32.13    5.63
   0  -9   3   14.74    7.24
   0  -9   3    5.87    2.96
   0  -9   3    1.08    4.62
   0  -8  -8  217.25    9.62
   0  -8  -7  990.08   23.72
   0  -8  -6  622.03   20.58
   0  -8  -5 2435.22   44.76
   0  -8  -5 2423.49   34.90
   0  -8  -4 2008.86   43.43
   0  -8  -4 1981.06   32.84
   0  -8  -3  517.75   23.12
   0  -8  -3  556.00   17.99
   0  -8  -2  522.03   18.07
   0  -8  -2  535.00   24.36
   0  -8  -1  122.83   12.36
   0  -8  -1  110.12    8.64
   0  -8   0  287.61   19.34
   0  -8   0  306.60   14.87
   0  -8   1 1004.11   27.74
   0  -8   1 1023.11   36.38
   0  -8   2  750.38   24.68
   0  -8   2  794.68   35.27
   0  -8   3  836.53   27.05
   0  -8   3  866.44   36.75
   0  -8   3  847.12   39.23
   0  -8   4  501.10   29.09
   0  -8   4  490.09   21.56
   0  -8   4  514.16   32.36
   0  -8   5  383.43   26.21
   0  -8   5  345.47   18.76
   0  -8   5  312.02   26.92
   0  -7  -8 1563.13   21.56
   0  -7  -7 1826.51   27.56
   0  -7  -6  695.08   19.05
   0  -7  -5  269.03   13.21
   0  -7  -5  268.50   10.54
   0  -7  -4  413.79   17.73
   0  -7  -4  446.44   14.13
   0  -7  -3  685.91   24.25
   0  -7  -3  754.07   19.05
   0  -7  -2 1249.45   30.70
   0  -7  -2 1286.06   34.56
   0  -7  -2 1228.36   25.31
   0  -7  -1 2030.34   33.69
   0  -7   0 2085.26   35.69
   0  -7   0 2205.76   46.34
   0  -7   1 1920.01   35.46
   0  -7   1 1995.86   49.25
   0  -7   2  924.64   25.42
   0  -7   2  923.43   36.22
   0  -7   3   72.87    7.58
   0  -7   3   87.24   12.34
   0  -7   4    8.27    5.36
   0  -7   4   -1.27    1.61
   0  -7   5   29.43    8.64
   0  -7   5   33.16    5.84
   0  -7   6  273.76   21.35
   0  -7   6  250.41   15.43
   0  -7   6  298.33   27.05
   0  -6  -8  340.74    7.82
   0  -6  -7  541.26   23.22
   0  -6  -7  576.90   12.31
   0  -6  -7  552.89   12.66
   0  -6  -6 1417.45   23.33
   0  -6  -6 1500.94   42.83
   0  -6  -5 2593.47   35.93
   0  -6  -5 2791.23   29.67
   0  -6  -4 4175.94   38.76
   0  -6  -4 4062.20   49.77
   0  -6  -3 2650.96   42.83
   0  -6  -3 2699.44   32.21
   0  -6  -2 2686.37   39.10
   0  -6  -2 2657.94   33.66
   0  -6  -1  699.99   18.15
   0  -6   0    4.89    2.43
   0  -6   0    3.99    1.61
   0  -6   1   74.95    6.42
   0  -6   1   97.83   10.52
   0  -6   2  429.56   16.06
   0  -6   2  409.69   23.01
   0  -6   3 1080.07   26.26
   0  -6   3 1111.30   41.00
   0  -6   4 1704.05   34.35
   0  -6   4 1748.20   54.66
   0  -6   5 1473.99   33.21
   0  -6   5 1533.85   53.45
   0  -6   6  677.72   23.59
   0  -6   6  644.04   36.64
   0  -6   7  388.71   18.49
   0  -6   7  365.02   29.59
   0  -6   8   31.28   10.78
   0  -6   8   38.68    8.24
   0  -6   8   30.86    5.71
   0  -5  -8 1773.14   13.63
   0  -5  -8 1742.78   23.62
   0  -5  -7 3893.06   50.86
   0  -5  -7 3828.18   26.42
   0  -5  -6 2456.38   23.78
   0  -5  -6 2450.97   46.87
   0  -5  -5 1992.32   45.86
   0  -5  -5 1959.58   25.47
   0  -5  -4  155.16    8.30
   0  -5  -4  165.28    6.58
   0  -5  -4  154.03   14.03
   0  -5  -4  161.58    7.21
   0  -5  -3  158.49    6.90
   0  -5  -3  164.23    9.46
   0  -5  -2  903.56   17.46
   0  -5  -2  849.16   19.02
   0  -5  -1 1945.29   27.03
   0  -5   0 2958.75   35.06
   0  -5   0 3019.12   47.24
   0  -5   1 3598.38   39.95
   0  -5   1 3568.42   57.57
   0  -5   2 3340.84   40.53
   0  -5   2 3375.24   61.53
   0  -5   3 1644.24   29.67
   0  -5   3 1472.24   42.93
   0  -5   4  434.10   16.09
   0  -5   4  356.17   23.57
   0  -5   5   12.87    6.50
   0  -5   5   14.29    3.04
   0  -5   6   24.54    7.74
   0  -5   6   19.50    4.17
   0  -5   7  306.05   15.30
   0  -5   7  303.88   26.79
   0  -5   8  907.55   27.29
   0  -5   8  891.99   47.74
   0  -5   9  415.90   25.68
   0  -5   9  416.51   19.34
   0  -5   9  457.14   36.30
   0  -4  -7   46.50    2.19
   0  -4  -7   41.58    3.96
   0  -4  -7   47.74    2.14
   0  -4  -6  555.58    8.11
   0  -4  -6  588.90    8.96
   0  -4  -5 2309.44   20.55
   0  -4  -5 2273.50   25.42
   0  -4  -4 3843.69   58.31
   0  -4  -4 3880.52   33.42
   0  -4  -4 3795.68   26.82
   0  -4  -4 3825.54   33.69
   0  -4  -3 4719.87   42.91
   0  -4  -3 4716.39   36.64
   0  -4  -3 4633.93   34.35
   0  -4  -2 6361.34   84.83
   0  -4  -2    0.16    0.61
   0  -4  -1   -0.58    1.11
   0  -4  -1    0.95    3.22
   0  -4   0 1141.52   19.13
   0  -4   0 1175.92   26.60
   0  -4   1  106.42    6.21
   0  -4   1  111.47    9.38
   0  -4   2   48.30    4.41
   0  -4   2   50.94    7.00
   0  -4   3  600.21   16.14
   0  -4   3  574.31   25.81
   0  -4   4 1816.65   29.67
   0  -4   4 1878.42   50.99
   0  -4   5 2208.56   34.32
   0  -4   5 2204.81   59.63
   0  -4   5 2217.28   35.38
   0  -4   6 1555.99   30.46
   0  -4   6 1576.50   54.13
   0  -4   6 1611.66   31.65
   0  -4   7 1354.07   29.54
   0  -4   7 1354.57   30.78
   0  -4   8  474.21   18.34
   0  -4   8  508.85   19.89
   0  -4   9  111.02    9.30
   0  -4   9  126.92   19.02
   0  -4   9  115.98   10.17
   0  -4  10   17.09    9.43
   0  -4  10   11.28    3.86
   0  -3 -11  158.94   10.09
   0  -3 -10   22.14    3.62
   0  -3  -9  449.22   14.74
   0  -3  -8 2042.73   28.80
   0  -3  -4 3369.13   26.45
   0  -3  -4    0.16    0.58
   0  -3  -3  622.32   12.79
   0  -3  -3  631.04    9.30
   0  -3  -3  628.40   11.36
   0  -3  -3  655.13   12.10
   0  -3  -3  641.24    9.96
   0  -3  -2  353.97    9.06
   0  -3  -2  378.49   17.30
   0  -3  -2  344.25    7.58
   0  -3  -2  354.92    8.27
   0  -3  -1    0.18    0.45
   0  -3  -1  603.38   11.02
   0  -3  -1   -0.03    1.72
   0  -3  -1  646.99   12.60
   0  -3   0 1654.14   19.76
   0  -3   0 1771.92   42.56
   0  -3   0 1733.67   21.93
   0  -3   0 1732.69   22.25
   0  -3   0 1743.81   28.37
   0  -3   1 9547.86  103.04
   0  -3   1 8947.20   74.69
   0  -3   2 9303.16   86.89
   0  -3   3 3635.31   35.77
   0  -3   3 3587.55   60.08
   0  -3   3 3509.85   36.14
   0  -3   4 1014.42   20.05
   0  -3   4 1047.62   35.32
   0  -3   4  999.51   20.37
   0  -3   5 1182.81   22.80
   0  -3   5 1145.48   40.37
   0  -3   5 1233.12   24.12
   0  -3   6  176.93    9.33
   0  -3   6  187.84   10.17
   0  -3   7   30.62    8.11
   0  -3   7   33.34    4.36
   0  -3   7   34.87    4.76
   0  -3   8  483.51   17.01
   0  -3   8  480.50   32.21
   0  -3   8  502.03   18.81
   0  -3   9  428.56   16.62
   0  -3   9  454.00   18.73
   0  -3  10  677.51   43.59
   0  -3  10  648.34   23.41
   0  -2 -11  547.50   21.88
   0  -2 -10 1134.49   29.75
   0  -2  -9 2503.25   19.52
   0  -2  -9 2529.46   41.98
   0  -2  -8 2011.97   16.01
   0  -2  -8 2007.48   34.66
   0  -2  -8 2040.90   16.20
   0  -2  -8 2092.24   16.91
   0  -2  -7  937.72    9.93
   0  -2  -7  897.27   20.92
   0  -2  -7  866.38   20.11
   0  -2  -7  910.90    9.96
   0  -2  -7  932.51   10.46
   0  -2  -6  322.80    5.18
   0  -2  -6  323.64    9.88
   0  -2  -6  327.26   11.33
   0  -2  -6  320.53    5.60
   0  -2  -6  330.62    5.26
   0  -2  -5  704.64    6.82
   0  -2  -5  699.39   10.12
   0  -2  -5  704.88    6.82
   0  -2  -4 3379.65   27.48
   0  -2  -3   -0.08    0.37
   0  -2  -2 1930.21   18.10
   0  -2  -2 1965.21   17.62
   0  -2  -1    0.00    0.24
   0  -2  -1    1.74    1.48
   0  -2   1 3200.31   50.57
   0  -2   1 3218.59   26.76
   0  -2   1 3258.30   27.48
   0  -2   1 3240.63   39.23
   0  -2   2 4622.89   63.01
   0  -2   2 4672.58   36.49
   0  -2   2 4512.74   53.61
   0  -2   3  122.90    5.76
   0  -2   3  114.03    6.08
   0  -2   3  120.21    6.31
   0  -2   3  138.99   10.59
   0  -2   3  111.81   10.15
   0  -2   3  118.31    5.84
   0  -2   4 2160.69   25.94
   0  -2   4 2125.84   45.39
   0  -2   4 2214.83   27.77
   0  -2   5 1219.41   20.69
   0  -2   5 1216.16   37.70
   0  -2   5 1231.27   22.25
   0  -2   6 1957.31   27.98
   0  -2   6 1914.17   51.81
   0  -2   6 1938.10   30.09
   0  -2   7 2453.19   32.92
   0  -2   7 2392.02   62.25
   0  -2   7 2436.59   36.27
   0  -2   8 1624.00   28.08
   0  -2   8 1654.17   55.56
   0  -2   8 1533.38   30.65
   0  -2   9  289.88   12.47
   0  -2   9  275.37   24.73
   0  -2   9  282.16   14.06
   0  -2  10  326.81   28.88
   0  -2  10  304.73   15.48
   0  -2  11   71.60   15.30
   0  -2  11   87.61    9.04
   0  -1 -11  492.73   24.07
   0  -1 -10   47.56    7.45
   0  -1  -9   23.12    2.54
   0  -1  -9   26.18    5.20
   0  -1  -8  267.53    7.79
   0  -1  -8  263.54    7.90
   0  -1  -8  278.31   15.59
   0  -1  -8  265.84    7.85
   0  -1  -7 1354.81   16.09
   0  -1  -7 1325.64   16.33
   0  -1  -7 1293.20   31.07
   0  -1  -7 1319.93   16.38
   0  -1  -7 1291.40   33.00
   0  -1  -6 5521.71   59.07
   0  -1  -6 5836.11   60.74
   0  -1  -5 3361.97   19.87
   0  -1  -5 3158.33   36.80
   0  -1  -5 3190.80   40.42
   0  -1  -5 3251.12   20.11
   0  -1  -5 3303.56   31.55
   0  -1  -4 3627.99   29.67
   0  -1  -4 3674.78   29.11
   0  -1  -3    0.11    0.34
   0  -1  -2  645.91    8.61
   0  -1  -2   -0.11    0.21
   0  -1  -1  273.05    4.78
   0  -1  -1   -0.08    0.18
   0  -1  -1    0.05    0.11
   0  -1  -1    0.03    0.08
   0  -1  -1  323.91    4.62
   0  -1   0    0.11    0.29
   0  -1   0    0.00    0.11
   0  -1   1    3.94    0.85
   0  -1   1   -0.08    0.63
   0  -1   2 3269.98   24.68
   0  -1   2 3212.97   38.20
   0  -1   2 3278.94   23.67
   0  -1   3 9769.57   77.36
   0  -1   4 2972.92   26.31
   0  -1   4 3079.70   44.49
   0  -1   4 3118.75   29.59
   0  -1   4 3088.40   29.64
   0  -1   4 2986.02   29.19
   0  -1   5 4575.09   55.46
   0  -1   5 4500.48   40.13
   0  -1   5 4602.73   40.50
   0  -1   6 1866.93   24.09
   0  -1   6 1950.60   28.61
   0  -1   7  145.39    7.21
   0  -1   7  143.64   14.61
   0  -1   7  137.33    8.32
   0  -1   8    0.95    0.98
   0  -1   8    5.50    2.25
   0  -1   8    1.98    2.64
   0  -1   9  266.05   10.81
   0  -1   9  267.69   22.91
   0  -1   9  260.24   13.02
   0  -1  10  636.98   37.36
   0  -1  10  708.37   22.83
   0  -1  11  560.58   37.97
   0  -1  11  549.14   21.24
   0  -1  12  261.69   28.14
   0  -1  12  205.55   13.82
   0   0 -11  541.84   28.59
   0   0 -10 1176.03   41.56
   0   0  -9 1742.23   25.05
   0   0  -9 1721.36   48.59
   0   0  -8 2241.51   52.65
   0   0  -8 2005.90   25.47
   0   0  -7 1842.70   45.92
   0   0  -7 1938.13   23.57
   0   0  -6 1949.02   22.67
   0   0  -6 1985.42   22.51
   0   0  -5    8.35    1.43
   0   0  -5    6.10    1.32
   0   0  -5    6.37    1.29
   0   0  -4  138.99    4.81
   0   0  -4  136.41    4.91
   0   0  -4  136.70    9.04
   0   0  -4  137.54    5.87
   0   0  -4  122.77    4.54
   0   0  -3  600.89    8.53
   0   0  -3  559.60   15.27
   0   0  -3  594.31    8.88
   0   0  -3  578.99    8.67
   0   0  -3  576.82   10.36
   0   0  -2    7.37    0.63
   0   0  -2    7.85    0.79
   0   0  -2   10.09    1.74
   0   0  -2   10.65    0.98
   0   0  -2    8.69    0.90
   0   0   1    0.00    0.08
   0   0   1   -0.13    0.24
   0   0   2    9.96    0.71
   0   0   2    9.62    1.40
   0   0   2   11.12    0.95
   0   0   2    9.22    1.08
   0   0   3  592.02    6.58
   0   0   3  575.93    8.19
   0   0   3  639.68   12.97
   0   0   3  591.22    6.08
   0   0   3  570.77   15.40
   0   0   3  584.80   10.30
   0   0   4  138.68    3.59
   0   0   4  128.40    4.46
   0   0   4  136.30    6.74
   0   0   4  122.24    8.53
   0   0   4  116.70    5.36
   0   0   5    3.83    1.66
   0   0   5    3.17    0.66
   0   0   5    5.10    1.37
   0   0   6 1823.20   20.55
   0   0   6 1897.52   15.53
   0   0   6 1864.92   26.68
   0   0   6 1853.24   42.19
   0   0   7 1909.91   29.30
   0   0   7 1976.78   22.93
   0   0   7 2016.15   16.59
   0   0   7 1986.82   48.11
   0   0   7 1957.95   29.48
   0   0   8 2261.98   26.00
   0   0   8 2042.28   17.07
   0   0   8 2194.77   56.54
   0   0   8 2094.22   33.13
   0   0   9 1670.45   23.75
   0   0   9 1620.09   31.04
   0   0  10 1132.09   47.21
   0   0  10 1144.51   28.19
   0   0  11  504.72   34.35
   0   0  11  479.47   19.52
   0   0  12   17.36    4.44
   0   0  12   32.36   10.38
   0   1 -11  595.42   33.74
   0   1 -10  726.47   36.33
   0   1  -9  273.87   11.39
   0   1  -9  278.23   22.32
   0   1  -8    0.37    0.95
   0   1  -7  149.01    7.53
   0   1  -6 1864.97   51.15
   0   1  -6 1929.81   25.39
   0   1  -5 4769.15   37.94
   0   1  -5 4462.52   73.87
   0   1  -5 4948.48   39.89
   0   1  -5 4596.18   36.96
   0   1  -4 3021.16   27.16
   0   1  -4 3029.14   30.62
   0   1  -4 2954.42   27.37
   0   1  -3 9280.83   86.16
   0   1  -2 3020.05   43.70
   0   1  -2 3298.04   36.70
   0   1  -1   18.55    1.77
   0   1  -1   -0.16    0.32
   0   1   0   -0.26    0.61
   0   1   0   -0.05    0.13
   0   1   0   -0.03    0.08
   0   1   0    0.00    0.11
   0   1   1    0.08    0.13
   0   1   1    0.00    0.11
   0   1   1    0.08    0.13
   0   1   2  662.64    8.35
   0   1   2  655.03    9.59
   0   1   2  623.80    6.90
   0   1   2  668.55    8.35
   0   1   4 4009.60   43.78
   0   1   5 3378.12   24.91
   0   1   5 3378.83   22.01
   0   1   5 3376.56   23.59
   0   1   5 3246.47   45.13
   0   1   5 3281.23   31.02
   0   1   6 5844.88   32.73
   0   1   6 5618.25   67.00
   0   1   7 1381.39   17.44
   0   1   7 1350.48   17.33
   0   1   7 1374.17   16.86
   0   1   7 1347.70   15.80
   0   1   7 1364.03   24.02
   0   1   8  268.87    8.38
   0   1   8  289.75    8.27
   0   1   8  264.62    7.58
   0   1   8  258.04   17.75
   0   1   8  277.80   11.76
   0   1   9   25.02    2.54
   0   1   9   22.69    2.46
   0   1   9   30.28    4.41
   0   1   9   21.43    5.84
   0   1  10   53.66   10.17
   0   1  10   33.55    4.76
   0   1  11  473.71   31.33
   0   1  11  451.65   18.31
   0   1  12  568.21   38.10
   0   1  12  597.48   22.32
   0   1  13  531.17   38.76
   0   1  13  574.68   23.25
   0   2 -11  114.77   17.09
   0   2 -10  314.18   27.24
   0   2  -9  257.91   12.26
   0   2  -8 1595.39   29.04
   0   2  -7 2425.63   33.76
   0   2  -6 1952.69   28.93
   0   2  -5 1226.99   21.69
   0   2  -4 2145.10   55.16
   0   2  -4 2123.36   26.74
   0   2  -3  110.41   11.84
   0   2  -3  122.30    6.13
   0   2  -3  110.54    2.40
   0   2  -3  116.43    5.97
   0   2  -3  130.09    6.39
   0   2  -3  117.04    6.00
   0   2  -2 4246.22   66.02
   0   2  -2 4439.56   50.88
   0   2  -1 3165.75   51.89
   0   2  -1 3189.95   39.21
   0   2  -1 3192.49   25.89
   0   2   2 1960.56   13.69
   0   2   2 2017.44   13.82
   0   2   2 1962.67   16.14
   0   2   4 3488.45   27.32
   0   2   4 3337.91   33.74
   0   2   4 3414.23   27.05
   0   2   4 3279.83   28.01
   0   2   5  705.96   13.02
   0   2   5  675.69    7.29
   0   2   5  689.37    7.11
   0   2   5  694.52   20.16
   0   2   5  740.63   11.68
   0   2   5  697.32    7.40
   0   2   5  736.64   13.34
   0   2   5  738.57   14.69
   0   2   6  350.70    5.55
   0   2   6  338.60    8.67
   0   2   6  351.28    9.51
   0   2   6  347.05    9.70
   0   2   6  379.07   16.35
   0   2   6  324.86    5.44
   0   2   6  333.76   10.81
   0   2   7  987.28   16.88
   0   2   7  905.04   10.07
   0   2   7  929.98   10.12
   0   2   7  921.52   15.51
   0   2   7  945.70   16.49
   0   2   7  985.93   29.51
   0   2   7  938.09   19.84
   0   2   8 2120.93   25.68
   0   2   8 1995.28   16.41
   0   2   8 2023.07   15.88
   0   2   8 2119.00   25.13
   0   2   8 2038.13   46.37
   0   2   8 2034.75   31.55
   0   2   9 2494.03   28.77
   0   2   9 2457.20   18.65
   0   2   9 2521.11   29.54
   0   2   9 2457.57   56.75
   0   2   9 2491.68   37.25
   0   2  10 1107.54   19.50
   0   2  10 1101.76   20.74
   0   2  10 1119.80   41.48
   0   2  10 1155.81   27.32
   0   2  11  516.38   30.94
   0   2  11  554.60   20.24
   0   2  12  399.49   30.01
   0   2  12  404.73   18.28
   0   2  13  119.31   18.57
   0   2  13  141.03   11.57
   0   3  -9  436.75   17.30
   0   3  -8  463.30   17.15
   0   3  -7   31.47    4.36
   0   3  -6  185.18    9.93
   0   3  -5 1237.79   24.33
   0   3  -4 1022.74   21.03
   0   3  -3 3590.51   37.86
   0   3  -3 3499.62   36.88
   0   3  -1 9522.33   79.26
   0   3   0 1684.76   16.64
   0   3   0 1676.76   20.61
   0   3   0 1645.14   29.62
   0   3   0 1736.81   21.14
   0   3   1  606.04   11.57
   0   3   1  607.10   10.73
   0   3   1  625.99   11.70
   0   3   1  580.05   11.68
   0   3   1  620.42   15.59
   0   3   2  340.52    7.79
   0   3   2  337.65    8.64
   0   3   2  366.73    8.06
   0   3   2  323.85    8.30
   0   3   3  646.55   12.66
   0   3   3  607.10    9.27
   0   3   3  598.44    9.27
   0   3   3  592.54   10.88
   0   3   4 3455.68   30.78
   0   3   4 3489.53   19.74
   0   3   4 3666.75   30.30
   0   3   4 3678.14   32.31
   0   3   5 3567.07   36.83
   0   3   5 3548.79   34.56
   0   3   6 4104.29   49.51
   0   3   6 4186.46   32.02
   0   3   6 4169.79   39.15
   0   3   7 3705.27   31.76
   0   3   7 3787.23   40.42
   0   3   8 1846.16   26.79
   0   3   8 1889.07   24.04
   0   3   8 1837.74   29.91
   0   3   9  470.75   13.82
   0   3   9  496.35   13.02
   0   3   9  479.86   23.49
   0   3   9  481.79   16.49
   0   3  10   20.55    3.17
   0   3  10   20.16    2.77
   0   3  10   20.55    3.91
   0   3  10   18.94    5.73
   0   3  11  148.61    8.24
   0   3  11  166.37    8.51
   0   3  11  169.17   16.94
   0   3  11  146.60   10.33
   0   3  12  280.34   24.02
   0   3  12  266.26   14.90
   0   3  13  219.79   23.04
   0   3  13  212.86   14.21
   0   4  -9  111.15    9.56
   0   4  -8  460.31   18.52
   0   4  -7 1343.42   30.49
   0   4  -6 1577.24   31.68
   0   4  -5 2364.63   36.99
   0   4  -4 1971.00   15.69
   0   4  -4 1894.25   32.44
   0   4  -4 1856.44   31.33
   0   4  -3  579.60    8.19
   0   4  -3  626.28   10.44
   0   4  -3  618.12   17.67
   0   4  -3  577.99   16.62
   0   4  -2   56.06    3.49
   0   4  -2   48.30    2.80
   0   4  -2   59.47    5.26
   0   4  -2   48.03    4.62
   0   4  -1   95.22    4.31
   0   4  -1  101.98    6.45
   0   4  -1   97.36    6.24
   0   4   0 1145.62   16.04
   0   4   0 1192.09   20.71
   0   4   0 1198.03   20.37
   0   4   1 4769.73   38.76
   0   4   1 5000.11   54.66
   0   4   2 5975.53   40.24
   0   4   2 6354.26   54.16
   0   4   3 4185.43   35.64
   0   4   3 4675.67   36.22
   0   4   4 3730.19   35.22
   0   4   4 3629.05   26.34
   0   4   4 3709.79   31.81
   0   4   5 2370.44   19.63
   0   4   5 2368.67   19.13
   0   4   5 2289.20   25.10
   0   4   5 2350.49   29.14
   0   4   5 2401.38   19.37
   0   4   6  575.74    8.38
   0   4   6  558.88   14.77
   0   4   6  581.26    8.72
   0   4   6  520.55   15.67
   0   4   6  572.46   12.55
   0   4   6  559.44    8.30
   0   4   7   46.13    1.96
   0   4   7   48.88    2.06
   0   4   7   50.09    4.70
   0   4   7   47.32    3.78
   0   4   7   48.14    2.06
   0   4   7   52.50    4.97
   0   4   8 1000.10   21.43
   0   4   8 1046.52   18.49
   0   4   8 1034.31   23.04
   0   4   9  874.36   20.66
   0   4   9  896.95   17.94
   0   4   9  914.97   22.85
   0   4  10 1051.24   23.17
   0   4  10 1085.27   20.71
   0   4  10 1105.62   37.91
   0   4  10 1035.29   25.84
   0   4  11  934.42   22.54
   0   4  11  901.15   19.60
   0   4  11  960.07   38.28
   0   4  11  915.47   25.97
   0   4  12  785.20   20.98
   0   4  12  784.72   38.12
   0   4  12  819.38   25.92
   0   4  13  491.78   33.10
   0   4  13  499.26   21.48
   0   5  -9  411.01   19.31
   0   5  -8  909.13   27.90
   0   5  -7  305.86   15.69
   0   5  -6   28.24    4.81
   0   5  -5   13.84    3.38
   0   5  -4  423.91   16.51
   0   5  -4  415.35   16.62
   0   5  -3 1582.89   30.38
   0   5  -3 1634.86   19.95
   0   5  -3 1621.20   16.35
   0   5  -3 1581.33   30.99
   0   5  -2 3395.47   42.67
   0   5  -2 3388.90   30.70
   0   5  -2 3329.48   43.33
   0   5  -1 3482.77   29.43
   0   5  -1 3452.67   42.32
   0   5   0 2937.09   36.12
   0   5   0 2890.06   28.27
   0   5   0 2818.81   36.04
   0   5   1 1917.47   27.77
   0   5   1 1881.43   24.04
   0   5   1 1860.27   28.19
   0   5   2  854.47   17.38
   0   5   2  871.14   17.04
   0   5   2  842.03   18.31
   0   5   2  843.85   23.94
   0   5   3  148.32    6.84
   0   5   3  166.97    7.77
   0   5   3  153.26    7.66
   0   5   3  171.60    9.72
   0   5   4  161.32    8.03
   0   5   4  171.76    7.05
   0   5   4  168.32    6.79
   0   5   4  158.41    7.56
   0   5   5 2032.53   21.77
   0   5   5 1977.34   29.30
   0   5   5 2041.88   22.14
   0   5   6 2571.23   22.59
   0   5   6 2618.34   34.27
   0   5   6 2619.95   23.78
   0   5   6 2586.90   22.56
   0   5   6 2572.95   29.85
   0   5   7 3850.13   24.49
   0   5   7 3583.93   41.66
   0   5   7 3782.00   25.18
   0   5   7 3666.15   36.35
   0   5   7 3742.47   24.31
   0   5   8 1829.99   13.08
   0   5   8 1868.65   31.57
   0   5   8 1840.01   13.45
   0   5   8 1892.50   26.23
   0   5   8 1799.90   13.53
   0   5   8 1926.59   32.73
   0   5   9  762.11   20.55
   0   5   9  704.30   16.22
   0   5   9  757.43   21.56
   0   5  10  708.71   20.50
   0   5  10  686.31   29.46
   0   5  10  668.08   16.49
   0   5  10  689.32   21.72
   0   5  11   32.92    4.68
   0   5  11   36.41    4.23
   0   5  11   41.61    5.73
   0   5  11   32.58    7.08
   0   5  12    0.61    1.82
   0   5  12    1.64    2.11
   0   5  12    4.39    4.39
   0   5  13  121.00   16.22
   0   5  13  117.01   10.62
   0   6  -8   50.33    7.27
   0   6  -7  395.61   19.02
   0   6  -6  648.71   23.54
   0   6  -5 1439.22   33.90
   0   6  -4 1664.03   35.22
   0   6  -4 1724.39   36.75
   0   6  -3 1016.98   26.47
   0   6  -3  990.93   14.40
   0   6  -3  996.29   26.84
   0   6  -2  457.83   17.09
   0   6  -2  422.93   10.54
   0   6  -2  438.94   17.30
   0   6  -1  108.53    8.06
   0   6  -1   97.96    5.47
   0   6  -1  107.21    8.45
   0   6   0    7.32    2.11
   0   6   0    7.34    1.74
   0   6   0    4.70    1.98
   0   6   1  674.97   18.20
   0   6   1  684.67   15.90
   0   6   1  690.03   19.21
   0   6   2 2590.41   34.13
   0   6   2 2692.02   32.58
   0   6   2 2685.76   36.80
   0   6   3 2609.01   32.47
   0   6   3 2661.51   33.71
   0   6   3 2595.48   34.98
   0   6   4 4143.08   38.94
   0   6   4 4091.13   43.46
   0   6   5 2709.43   36.35
   0   6   5 2639.18   33.87
   0   6   6 1437.87   19.87
   0   6   6 1496.92   27.95
   0   6   6 1440.46   24.81
   0   6   6 1423.68   20.16
   0   6   7  604.22   11.99
   0   6   7  555.69   12.26
   0   6   7  544.93   17.52
   0   6   7  575.13   11.68
   0   6   7  564.80   15.67
   0   6   8  351.67    8.08
   0   6   8  350.86   14.35
   0   6   8  326.52   11.97
   0   6   8  371.38   15.72
   0   6   8  330.93    7.87
   0   6   9  134.00    9.17
   0   6   9  142.67    8.06
   0   6   9  129.19    9.33
   0   6  10  147.24    9.88
   0   6  10  145.26    8.38
   0   6  10  146.66   10.25
   0   6  11  612.54   20.74
   0   6  11  600.84   17.36
   0   6  11  631.17   30.04
   0   6  11  624.91   22.46
   0   6  12  820.65   24.65
   0   6  12  865.54   37.78
   0   6  12  838.35   27.16
   0   6  13  970.51   27.69
   0   6  13  891.19   41.32
   0   6  13  931.32   30.30
   0   7  -6  252.47   15.83
   0   7  -5   42.91    6.60
   0   7  -4    3.41    2.75
   0   7  -4    2.80    3.04
   0   7  -3   64.25    7.24
   0   7  -3   63.94    7.48
   0   7  -2  880.12   25.55
   0   7  -2  903.74   16.96
   0   7  -2  905.54   27.16
   0   7  -1 1876.20   36.01
   0   7  -1 1930.68   38.57
   0   7  -1 1867.91   25.97
   0   7   0 2099.27   36.80
   0   7   0 2106.50   29.06
   0   7   0 2164.79   38.28
   0   7   1 2020.61   34.64
   0   7   1 1935.94   28.93
   0   7   1 1988.01   35.69
   0   7   2 1213.07   25.63
   0   7   2 1198.35   23.59
   0   7   2 1238.82   27.27
   0   7   3  729.50   19.26
   0   7   3  725.46   18.89
   0   7   3  691.54   20.11
   0   7   4  410.27   14.66
   0   7   4  416.77   13.84
   0   7   4  428.00   15.46
   0   7   5  254.08   11.81
   0   7   5  255.74   10.36
   0   7   5  245.68   11.47
   0   7   6  691.80   20.13
   0   7   6  676.61   15.80
   0   7   6  652.15   18.49
   0   7   6  721.63   16.51
   0   7   7 1831.50   33.84
   0   7   7 1891.45   24.83
   0   7   7 1857.18   30.94
   0   7   7 1904.05   25.10
   0   7   8 1502.23   20.32
   0   7   8 1491.27   31.31
   0   7   8 1529.84   28.11
   0   7   8 1520.33   20.45
   0   7   9  597.59   17.86
   0   7   9  612.41   20.66
   0   7   9  632.78   21.95
   0   7  10 1405.48   32.21
   0   7  10 1415.76   27.90
   0   7  10 1372.43   32.76
   0   7  11  204.09   12.81
   0   7  11  220.95   11.28
   0   7  11  235.51   14.16
   0   7  12  106.00    9.54
   0   7  12   97.28   13.24
   0   7  12  120.95   10.81
   0   7  13   19.05    4.76
   0   7  13   27.95    5.60
   0   7  13   14.77    6.60
   0   8  -5  319.44   18.34
   0   8  -4  475.79   21.72
   0   8  -3  778.96   26.90
   0   8  -3  837.27   28.74
   0   8  -2  795.05   26.13
   0   8  -2  787.47   27.24
   0   8  -1  941.18   27.45
   0   8  -1  945.96   19.89
   0   8   0  300.29   14.95
   0   8   0  277.12   11.36
   0   8   0  317.33   16.41
   0   8   1  120.53    9.17
   0   8   1  118.26    7.79
   0   8   1  143.91   10.62
   0   8   2  542.24   18.71
   0   8   2  527.50   16.83
   0   8   2  486.02   18.73
   0   8   3  525.99   17.83
   0   8   3  511.80   17.09
   0   8   4 1907.38   32.65
   0   8   4 1981.35   34.43
   0   8   4 1948.17   36.09
   0   8   5 2461.56   39.21
   0   8   5 2424.55   35.19
   0   8   6  624.12   20.42
   0   8   6  676.37   17.81
   0   8   6  651.41   20.13
   0   8   6  668.87   17.91
   0   8   7  957.59   25.86
   0   8   7  974.39   24.54
   0   8   7 1006.41   20.48
   0   8   7 1010.93   20.74
   0   8   8  224.30    9.17
   0   8   8  252.49   13.61
   0   8   8  238.99    9.46
   0   8   8  238.68   12.07
   0   8   9  111.41    9.38
   0   8   9  125.18    8.85
   0   8  10    5.50    2.77
   0   8  10   13.58    3.20
   0   8  10   10.12    3.36
   0   8  11  487.55   20.69
   0   8  11  454.87   17.09
   0   8  11  517.78   21.74
   0   8  12  349.08   17.91
   0   8  12  386.50   25.31
   0   8  12  385.65   19.55
   0   8  13  512.15   22.40
   0   8  13  591.01   33.18
   0   8  13  575.74   24.94
   0   9  -3    8.40    3.38
   0   9  -3    6.68    3.65
   0   9  -2   43.72    6.97
   0   9  -2   25.52    5.47
   0   9  -1  297.49   16.59
   0   9  -1  252.36   16.25
   0   9   0  946.54   28.56
   0   9   0  995.71   31.31
   0   9   1 1084.03   29.64
   0   9   1 1149.26   32.02
   0   9   2 1252.30   27.64
   0   9   2 1261.78   31.07
   0   9   2 1227.17   32.42
   0   9   3 1072.41   27.56
   0   9   3 1005.35   25.47
   0   9   3 1004.61   28.45
   0   9   4  667.50   21.11
   0   9   4  650.32   21.06
   0   9   4  645.99   22.35
   0   9   5   43.20    5.26
   0   9   5   37.81    5.47
   0   9   5   32.23    5.15
   0   9   6   42.40    5.79
   0   9   6   50.33    5.50
   0   9   6   51.86    6.58
   0   9   6   41.66    5.15
   0   9   7  486.07   15.88
   0   9   7  465.38   19.15
   0   9   7  436.19   17.86
   0   9   7  461.29   15.59
   0   9   8  480.13   19.79
   0   9   8  495.56   18.94
   0   9   9   53.32    7.03
   0   9   9   60.77    6.87
   0   9  10 1083.74   31.55
   0   9  10  996.56   27.05
   0   9  11 1046.86   31.84
   0   9  11 1153.38   34.08
   0   9  12  280.23   17.01
   0   9  12  332.92   18.92
   0  10  -1  338.91   19.08
   0  10  -1  320.74   19.55
   0  10   0  320.97   18.31
   0  10   0  295.14   18.20
   0  10   1   72.50    8.45
   0  10   1   66.63    6.63
   0  10   1   77.07    9.46
   0  10   2    3.12    2.06
   0  10   2    6.31    2.67
   0  10   2    1.69    2.46
   0  10   3   27.00    5.02
   0  10   3   34.35    5.15
   0  10   3   41.27    6.60
   0  10   4  376.69   17.01
   0  10   4  383.93   17.38
   0  10   4  383.01   18.71
   0  10   5  935.29   27.19
   0  10   5  953.65   26.55
   0  10   5  924.98   28.61
   0  10   6  574.82   21.95
   0  10   6  619.23   20.69
   0  10   6  559.23   22.19
   0  10   6  589.74   20.48
   0  10   7  881.84   23.46
   0  10   7  866.54   27.48
   0  10   7  914.10   27.93
   0  10   7  942.05   24.73
   0  10   8  707.31   25.39
   0  10   8  682.85   24.36
   0  10   9  220.18   14.53
   0  10   9  184.46   12.60
   0  10  10    0.58    2.22
   0  10  10    4.86    3.01
   0  10  11   29.30    5.65
   0  10  11   46.60    7.90
   0  11   1  390.48   20.82
   0  11   1  366.50   21.43
   0  11   2  282.06   17.12
   0  11   2  266.39   14.16
   0  11   2  310.70   19.58
   0  11   3  667.23   25.63
   0  11   3  661.37   22.91
   0  11   3  736.77   28.82
   0  11   4  546.18   22.48
   0  11   4  511.28   20.69
   0  11   4  549.03   24.44
   0  11   5  156.43   11.99
   0  11   5  150.28   11.62
   0  11   5  141.69   12.36
   0  11   6   81.87    8.43
   0  11   6   71.97    8.59
   0  11   6   65.39    8.40
   0  11   6   55.46    6.87
   0  11   7   46.47    6.97
   0  11   7   39.21    6.71
   0  11   7   28.56    4.78
   0  11   7   44.49    6.05
   0  11   8   55.22    7.71
   0  11   8   52.52    7.48
   0  11   9  161.45   13.08
   0  11   9  150.17   12.36
   1 -11  -7  576.16   24.49
   1 -11  -6  371.12   20.74
   1 -11  -5  217.30   16.59
   1 -11  -4    0.69    3.17
   1 -11  -3   40.79    8.77
   1 -11  -2   67.95   10.73
   1 -11  -2   57.36    8.16
   1 -11  -1  220.10   15.72
   1 -11  -1  252.20   20.98
   1 -10  -8   79.81    7.87
   1 -10  -7    3.28    2.91
   1 -10  -6  167.53   12.89
   1 -10  -5  746.89   28.32
   1 -10  -4 1012.67   35.56
   1 -10  -3  822.66   33.05
   1 -10  -3  773.31   26.02
   1 -10  -2  772.30   26.50
   1 -10  -2  671.51   30.81
   1 -10  -1  183.96   16.94
   1 -10  -1  209.03   14.08
   1 -10   0  189.80   17.94
   1 -10   0  161.00   12.71
   1 -10   1   51.76   10.49
   1 -10   1   64.99    8.56
   1  -9  -8  652.07   19.60
   1  -9  -7 1345.90   30.94
   1  -9  -6  897.64   27.34
   1  -9  -5  876.95   28.22
   1  -9  -4  825.46   29.62
   1  -9  -3  126.10   12.18
   1  -9  -3  110.17    9.04
   1  -9  -2  217.65   16.49
   1  -9  -2  162.11   11.25
   1  -9  -1  231.75   18.12
   1  -9  -1  281.53   15.14
   1  -9   0  287.66   20.40
   1  -9   0  235.27   14.45
   1  -9   1  891.30   36.99
   1  -9   1  885.25   28.59
   1  -9   2  555.21   30.49
   1  -9   2  565.91   23.51
   1  -9   2  495.93   29.25
   1  -9   3  838.04   38.12
   1  -9   3  752.36   27.90
   1  -9   3  830.45   40.16
   1  -8  -8  676.27   17.89
   1  -8  -7  217.01   11.02
   1  -8  -6   38.73    5.28
   1  -8  -5  146.95   10.57
   1  -8  -4  593.42   23.22
   1  -8  -3 1065.33   32.07
   1  -8  -3 1072.20   25.81
   1  -8  -2 2120.64   47.85
   1  -8  -2 2149.28   37.52
   1  -8  -1 1517.69   41.95
   1  -8  -1 1500.51   32.31
   1  -8   0 1081.18   36.80
   1  -8   0 1040.89   27.66
   1  -8   1  256.06   18.78
   1  -8   1  273.50   14.66
   1  -8   2   75.56   10.54
   1  -8   2   72.92    7.90
   1  -8   2   73.47   11.25
   1  -8   3    5.02    4.97
   1  -8   3   -0.16    3.12
   1  -8   3   -1.24    1.90
   1  -8   4  625.54   32.34
   1  -8   4  618.94   24.52
   1  -8   4  589.58   35.61
   1  -8   5  238.57   20.77
   1  -8   5  304.46   17.75
   1  -8   5  287.84   26.42
   1  -7  -8  494.37   13.37
   1  -7  -7 1251.24   23.04
   1  -7  -6 1650.13   29.35
   1  -7  -5 2000.46   35.14
   1  -7  -4 3008.85   47.00
   1  -7  -3  997.37   28.64
   1  -7  -3 1024.88   23.14
   1  -7  -2  156.83   11.99
   1  -7  -2  160.90    9.43
   1  -7  -1   -0.26    1.14
   1  -7  -1    5.39    3.30
   1  -7   0   31.07    6.08
   1  -7   0   24.41    3.88
   1  -7   1 1137.64   36.78
   1  -7   1 1094.94   26.92
   1  -7   1 1126.83   37.60
   1  -7   2 1475.18   43.01
   1  -7   2 1522.15   32.65
   1  -7   2 1565.61   48.74
   1  -7   3 1828.46   37.07
   1  -7   3 1818.92   49.14
   1  -7   3 1831.00   56.19
   1  -7   4  933.86   36.38
   1  -7   4  944.93   27.66
   1  -7   4 1022.39   44.91
   1  -7   5  193.95   17.49
   1  -7   5  149.69   11.49
   1  -7   5  155.37   18.60
   1  -7   6  226.84   19.34
   1  -7   6  230.04   15.03
   1  -7   6  246.26   24.89
   1  -6  -9 1754.14   20.77
   1  -6  -8 1107.70   17.41
   1  -6  -7 1981.22   25.44
   1  -6  -6  290.51   10.49
   1  -6  -5  115.93    7.48
   1  -6  -4   75.61    6.50
   1  -6  -3 1194.94   22.62
   1  -6  -3 1233.78   28.48
   1  -6  -2 2136.41   40.24
   1  -6  -2 2144.52   31.25
   1  -6  -1 2747.50   48.14
   1  -6  -1 2802.46   37.01
   1  -6   0 3480.39   56.80
   1  -6   0 3463.48   42.30
   1  -6   0 3492.83   56.99
   1  -6   1 2645.86   51.49
   1  -6   1 2623.83   38.18
   1  -6   1 2572.58   54.93
   1  -6   2  655.16   26.42
   1  -6   2  640.20   19.68
   1  -6   2  634.34   29.43
   1  -6   3  216.25   15.96
   1  -6   3  236.67   12.39
   1  -6   3  197.54   17.49
   1  -6   4   51.76    8.22
   1  -6   4   52.89    6.02
   1  -6   4   59.42   10.78
   1  -6   5  219.26   17.07
   1  -6   5  227.16   13.26
   1  -6   5  218.41   21.40
   1  -6   6  366.05   22.91
   1  -6   6  359.10   17.07
   1  -6   6  318.73   26.95
   1  -6   7  571.20   29.48
   1  -6   7  574.29   22.59
   1  -6   7  522.35   36.49
   1  -6   8  385.10   24.81
   1  -6   8  342.88   18.20
   1  -6   8  315.72   30.30
   1  -5  -9    7.58    1.66
   1  -5  -8   30.51    2.83
   1  -5  -8   30.28    2.72
   1  -5  -7  208.00    7.56
   1  -5  -7  223.80    7.37
   1  -5  -6 1210.71   18.97
   1  -5  -6 1283.10   19.00
   1  -5  -5 2547.98   29.46
   1  -5  -3 3532.67   42.96
   1  -5  -2  795.50   21.77
   1  -5  -2  788.18   16.94
   1  -5  -1  970.08   25.76
   1  -5  -1 1013.49   20.03
   1  -5   0  413.29   17.86
   1  -5   0  413.34   13.34
   1  -5   0  421.66   18.55
   1  -5   1  367.87   10.28
   1  -5   1  353.50   17.09
   1  -5   1  344.07   12.68
   1  -5   1  363.38   19.23
   1  -5   2 1564.37   37.52
   1  -5   2 1543.68   28.03
   1  -5   2 1624.32   44.44
   1  -5   3 1936.20   43.41
   1  -5   3 2001.51   33.21
   1  -5   3 1996.94   53.24
   1  -5   4 1761.38   32.26
   1  -5   4 1706.72   42.64
   1  -5   4 1722.99   52.68
   1  -5   5 1177.50   36.49
   1  -5   5 1100.65   26.66
   1  -5   6 1069.69   36.17
   1  -5   6 1053.20   26.97
   1  -5   6  995.47   44.02
   1  -5   7  556.98   27.27
   1  -5   7  498.46   19.50
   1  -5   7  468.69   32.65
   1  -5   8   20.00    7.85
   1  -5   8   31.31    5.10
   1  -5   9   11.73    9.17
   1  -5   9    9.75    5.15
   1  -5   9   11.73    3.96
   1  -4  -9 2343.70   29.06
   1  -4  -8  680.89   13.13
   1  -4  -8  618.94   11.04
   1  -4  -7 3510.64   27.11
   1  -4  -7 3529.55   27.19
   1  -4  -6 2880.71   25.10
   1  -4  -6 2815.00   24.09
   1  -4  -5 1593.25   19.26
   1  -4  -5 1548.54   19.39
   1  -4  -5 1569.44   19.18
   1  -4  -4 1107.78   17.89
   1  -4  -4 1141.79   16.80
   1  -4  -3  137.49    6.31
   1  -4  -3  149.48    7.37
   1  -4  -3  138.55    6.24
   1  -4  -2 1420.12   21.37
   1  -4  -2 1458.08   25.44
   1  -4  -2 1389.26   19.92
   1  -4  -2 1464.34   21.51
   1  -4  -1 5953.31   56.33
   1  -4   0 5230.57   36.46
   1  -4   0 5318.78   56.67
   1  -4   1 3813.59   29.25
   1  -4   1 3740.31   49.99
   1  -4   1 3743.40   37.54
   1  -4   1 3739.01   57.62
   1  -4   2 3514.57   25.84
   1  -4   2 3428.82   37.75
   1  -4   2 3426.62   60.18
   1  -4   3 1365.19   24.89
   1  -4   3 1309.66   39.55
   1  -4   4  276.09   11.76
   1  -4   4  268.56   19.74
   1  -4   5   43.62    6.60
   1  -4   5   56.04    5.57
   1  -4   5   66.42   10.86
   1  -4   6   57.28    7.77
   1  -4   6   63.59    6.21
   1  -4   6   53.69   10.57
   1  -4   7  525.20   24.33
   1  -4   7  499.68   17.86
   1  -4   7  551.57   34.21
   1  -4   8 1012.20   35.03
   1  -4   8  963.00   25.84
   1  -4   8  971.40   48.40
   1  -4   9  747.57   31.15
   1  -4   9  760.36   23.83
   1  -4   9  819.30   47.11
   1  -3  -9  563.61   18.02
   1  -3  -9  559.92   11.18
   1  -3  -8  859.89   18.78
   1  -3  -8  849.00   12.89
   1  -3  -8  810.45   12.66
   1  -3  -7   35.46    3.14
   1  -3  -7   35.19    2.62
   1  -3  -7   35.98    2.59
   1  -3  -6 2259.29   21.06
   1  -3  -6 2325.18   20.45
   1  -3  -6 2362.43   20.74
   1  -3  -5 1255.23   14.80
   1  -3  -5 1253.83   14.80
   1  -3  -5 1217.72   13.92
   1  -3  -5 1227.07   14.95
   1  -3  -3 6752.69   43.46
   1  -3  -2 3770.42   31.02
   1  -3  -2 4199.27   35.24
   1  -3  -1    0.00    0.42
   1  -3  -1    5.23    1.59
   1  -3   0 2900.47   29.27
   1  -3   0 3026.68   36.93
   1  -3   0 2783.67   26.90
   1  -3   0 3153.47   30.99
   1  -3   0 3197.09   41.85
   1  -3   1    7.42    1.22
   1  -3   1    7.50    2.19
   1  -3   1    7.16    1.51
   1  -3   2  434.82    7.79
   1  -3   2  446.49   16.20
   1  -3   2  434.66   11.94
   1  -3   2  434.16   19.37
   1  -3   3  889.40    9.25
   1  -3   3  874.87   17.86
   1  -3   3  861.76   30.38
   1  -3   4 2349.38   30.81
   1  -3   4 2328.33   54.27
   1  -3   4 2298.66   29.33
   1  -3   5 3355.50   38.71
   1  -3   5 3371.09   70.88
   1  -3   5 3244.27   36.96
   1  -3   6 1345.67   34.27
   1  -3   6 1319.91   25.47
   1  -3   6 1339.88   47.79
   1  -3   6 1281.76   25.05
   1  -3   7  942.05   29.70
   1  -3   7  879.91   21.66
   1  -3   7  977.82   43.70
   1  -3   7  881.87   21.95
   1  -3   8 1256.79   26.92
   1  -3   8 1252.59   52.58
   1  -3   8 1262.73   27.79
   1  -3   9  187.71   14.19
   1  -3   9  166.02   10.36
   1  -3   9  183.64   22.06
   1  -3   9  168.85   10.81
   1  -3  10    3.54    5.84
   1  -3  10    2.62    2.35
   1  -2 -10   72.36    6.87
   1  -2  -9  995.66   23.17
   1  -2  -9 1002.79   16.72
   1  -2  -8  305.02    8.45
   1  -2  -8  328.16   14.74
   1  -2  -8  306.42   11.70
   1  -2  -8  314.32    9.06
   1  -2  -7 2304.47   22.03
   1  -2  -7 2466.45   33.50
   1  -2  -7 2404.94   29.25
   1  -2  -7 2323.73   22.27
   1  -2  -4  959.54   12.10
   1  -2  -4  982.10   12.15
   1  -2  -4  976.85   12.29
   1  -2  -3  945.27   11.76
   1  -2  -3  977.03   11.89
   1  -2  -3  978.77    9.70
   1  -2  -3  946.30   11.89
   1  -2  -2   78.60    3.65
   1  -2  -2   89.14    3.70
   1  -2  -2   94.50    3.38
   1  -2  -2   91.65    3.78
   1  -2  -1  489.53    9.09
   1  -2  -1  458.57   10.28
   1  -2  -1    4.28    0.95
   1  -2  -1   80.45    3.67
   1  -2   0 4751.68   43.41
   1  -2   1 4595.96   41.37
   1  -2   1 4725.87   51.81
   1  -2   2 6790.97   70.41
   1  -2   3 5726.76   84.33
   1  -2   3 5715.79   42.85
   1  -2   4 3073.42   30.99
   1  -2   4 2990.67   57.15
   1  -2   4 2932.18   29.33
   1  -2   5 1300.15   21.43
   1  -2   5 1291.98   21.35
   1  -2   6   30.33    7.27
   1  -2   6   28.16    3.41
   1  -2   6   26.26    3.38
   1  -2   7  290.49   11.25
   1  -2   7  275.85   14.61
   1  -2   7  298.15   22.88
   1  -2   7  284.94   11.76
   1  -2   8  834.15   19.84
   1  -2   8  842.29   26.58
   1  -2   9  439.15   20.05
   1  -2   9  401.95   14.48
   1  -2   9  448.48   31.78
   1  -2   9  425.57   16.35
   1  -2  10  360.42   30.78
   1  -2  10  407.58   17.20
   1  -2  11 1087.28   56.59
   1  -2  11  906.09   27.13
   1  -1 -10 1244.48   43.14
   1  -1 -10 1231.06   21.56
   1  -1  -9 1326.57   41.48
   1  -1  -9 1417.08   34.40
   1  -1  -9 1401.91   22.14
   1  -1  -8 1417.66   38.60
   1  -1  -8 1447.94   21.58
   1  -1  -7  775.34   14.40
   1  -1  -7  776.11   14.53
   1  -1  -7  744.38   23.49
   1  -1  -7  798.91   23.09
   1  -1  -7  770.72   14.85
   1  -1  -7  807.07   15.03
   1  -1  -6   47.79    3.41
   1  -1  -6   48.06    3.51
   1  -1  -6   34.93    4.44
   1  -1  -6   41.90    3.28
   1  -1  -6   37.44    4.65
   1  -1  -5   47.13    3.12
   1  -1  -5   53.53    3.43
   1  -1  -5   52.55    3.28
   1  -1  -5   51.02    4.39
   1  -1  -5   51.73    4.62
   1  -1  -4  461.98    8.72
   1  -1  -4  447.00    8.74
   1  -1  -4  495.35    9.78
   1  -1  -4  451.04   10.04
   1  -1  -4  441.63   10.81
   1  -1  -4  472.57   11.55
   1  -1  -2    0.26    0.34
   1  -1  -1 2064.97   21.56
   1  -1  -1 1954.22   15.48
   1  -1   0    0.24    0.55
   1  -1   0   -0.18    0.37
   1  -1   1 5375.53   46.31
   1  -1   2 1306.25   15.38
   1  -1   2 1339.35   19.44
   1  -1   2 1367.07   14.95
   1  -1   2 1334.99   10.28
   1  -1   2 1296.84   27.29
   1  -1   2 1330.77   12.76
   1  -1   3   51.28    4.23
   1  -1   3   44.97    6.82
   1  -1   3   53.37    1.98
   1  -1   3   54.64    3.30
   1  -1   3   51.68    6.16
   1  -1   3   52.92    3.06
   1  -1   3   50.78    3.38
   1  -1   4  994.73   20.08
   1  -1   4  973.44   14.93
   1  -1   4 1002.39   30.73
   1  -1   4  984.69   29.78
   1  -1   4 1010.77   16.46
   1  -1   4 1033.36   15.64
   1  -1   5 2140.37   23.86
   1  -1   5 2129.07   44.94
   1  -1   5 2140.03   25.97
   1  -1   5 2123.68   25.07
   1  -1   6 2668.77   37.67
   1  -1   6 2718.12   28.59
   1  -1   6 2810.59   60.32
   1  -1   6 2755.61   31.62
   1  -1   7 2439.71   38.10
   1  -1   7 2492.00   29.01
   1  -1   7 2525.76   61.80
   1  -1   7 2477.33   32.65
   1  -1   8 2863.48   43.43
   1  -1   8 2840.08   32.42
   1  -1   8 2759.18   69.11
   1  -1   8 2688.16   36.86
   1  -1   9  524.17   19.26
   1  -1   9  549.43   15.01
   1  -1   9  480.10   31.12
   1  -1   9  498.44   16.96
   1  -1  10   17.75    7.90
   1  -1  10   23.46    4.12
   1  -1  11   -2.03    5.81
   1  -1  11    2.03    2.14
   1  -1  12    0.29    7.21
   1   0 -10  186.92   15.77
   1   0 -10  182.35    9.22
   1   0  -9    0.29    1.16
   1   0  -9   -1.40    4.39
   1   0  -9    3.22    3.54
   1   0  -8  473.07   26.18
   1   0  -8  514.39   14.24
   1   0  -7 2288.30   20.66
   1   0  -7 2266.58   50.70
   1   0  -6 4397.87   27.64
   1   0  -6 4194.57   35.40
   1   0  -6 3973.06   59.18
   1   0  -6 4078.27   35.93
   1   0  -6 4267.83   36.59
   1   0  -5 5260.71   36.88
   1   0  -5 5046.29   58.36
   1   0  -5 5220.18   37.36
   1   0  -5 4981.17   37.33
   1   0  -4 2927.95   25.13
   1   0  -4 2847.08   36.33
   1   0  -4 2918.60   25.57
   1   0  -3 2359.08   27.11
   1   0  -3 2404.15   21.19
   1   0  -2    0.00    0.32
   1   0  -2   -0.21    0.37
   1   0  -1  891.09    9.93
   1   0  -1  885.54   10.12
   1   0  -1  898.25    9.96
   1   0   0  654.15    7.58
   1   0   0  622.95    5.52
   1   0   0  646.92    7.48
   1   0   1   42.99    3.41
   1   0   2 4205.88   41.56
   1   0   4 7229.89   65.20
   1   0   4 7007.33   70.54
   1   0   5 1058.62   11.84
   1   0   5  998.62   17.78
   1   0   5 1074.76   24.97
   1   0   5 1080.20   13.76
   1   0   5 1112.43   15.22
   1   0   5 1035.74   30.62
   1   0   5 1063.85   16.43
   1   0   6 1093.78   12.47
   1   0   6 1026.86   19.60
   1   0   6 1068.31   14.98
   1   0   6 1083.74   16.62
   1   0   6 1044.77   33.84
   1   0   6 1023.87   18.26
   1   0   7  592.60   15.96
   1   0   7  551.36    8.98
   1   0   7  560.39   18.12
   1   0   7  547.74   11.57
   1   0   7  526.89   26.05
   1   0   7  538.38   14.40
   1   0   8    9.06    2.43
   1   0   8    9.27    1.66
   1   0   8    5.71    0.98
   1   0   8    9.25    2.27
   1   0   8   10.70    4.36
   1   0   9  732.25   19.29
   1   0   9  699.28   14.56
   1   0   9  708.84   35.69
   1   0   9  701.37   19.37
   1   0  10  448.34   30.83
   1   0  10  419.86   16.06
   1   0  11  963.69   48.22
   1   0  11  949.85   25.84
   1   0  12  402.61   33.58
   1   0  12  348.35   16.67
   1   1 -10  877.93   39.50
   1   1 -10  813.55   21.29
   1   1  -9 1053.86   47.34
   1   1  -9 1081.89   23.62
   1   1  -8 1631.05   55.38
   1   1  -8 1742.39   28.93
   1   1  -7 2790.88   66.45
   1   1  -7 2777.36   34.50
   1   1  -6 1621.33   13.00
   1   1  -6 1537.79   44.94
   1   1  -5   13.98    4.15
   1   1  -5   14.58    1.29
   1   1  -5   14.98    2.27
   1   1  -4  806.20   15.72
   1   1  -4  836.69   15.67
   1   1  -4  808.45    9.22
   1   1  -4  733.39   24.33
   1   1  -4  759.28   15.27
   1   1  -3  996.03   16.06
   1   1  -3 1013.01   25.28
   1   1  -3  978.62   10.17
   1   1  -3  979.70   16.01
   1   1  -3  968.42   13.34
   1   1  -2    0.16    0.45
   1   1  -2    0.03    0.40
   1   1  -1 1893.80   17.91
   1   1  -1 1912.37   17.36
   1   1  -1 1905.08   24.97
   1   1  -1 1833.43   17.70
   1   1   0    0.05    0.34
   1   1   0  107.90    3.30
   1   1   1   -0.21    0.24
   1   1   2 4781.77   35.90
   1   1   3 2417.52   33.10
   1   1   3 2418.97   30.09
   1   1   3 2380.19   17.44
   1   1   4  188.93    3.78
   1   1   4  210.06    6.82
   1   1   4  192.15   11.70
   1   1   4  221.05   10.91
   1   1   4  203.49    3.73
   1   1   4  196.59    5.92
   1   1   5  699.15   11.70
   1   1   5  724.40    9.75
   1   1   5  697.91   12.15
   1   1   5  660.84   21.61
   1   1   5  706.18   13.16
   1   1   6 2255.80   22.01
   1   1   6 2324.97   20.77
   1   1   6 2249.65   44.70
   1   1   6 2317.41   16.33
   1   1   6 2341.46   26.58
   1   1   7 2292.42   23.22
   1   1   7 2362.14   23.28
   1   1   7 2336.75   23.46
   1   1   7 2285.21   29.17
   1   1   7 2398.13   18.41
   1   1   8 1561.57   19.60
   1   1   8 1563.34   19.50
   1   1   8 1595.20   16.33
   1   1   8 1626.46   20.98
   1   1   8 1565.48   45.89
   1   1   8 1540.28   25.97
   1   1   9 1470.29   18.97
   1   1   9 1492.40   20.87
   1   1   9 1477.90   48.43
   1   1   9 1491.19   27.58
   1   1  10  917.24   41.37
   1   1  10  859.30   22.43
   1   1  11  410.22   29.88
   1   1  11  374.77   15.80
   1   1  12   11.02    3.36
   1   1  12   12.81    7.56
   1   1  13    3.96    6.82
   1   2 -10  484.28   17.89
   1   2  -9  118.81    8.61
   1   2  -8   61.98   12.89
   1   2  -8   52.07    5.44
   1   2  -7  268.80   23.51
   1   2  -7  282.88   12.10
   1   2  -6  523.06   30.54
   1   2  -6  526.39   15.72
   1   2  -5 3788.10   75.56
   1   2  -5 4061.94   41.45
   1   2  -4 5563.67   83.22
   1   2  -3 5035.19   72.65
   1   2  -2 2054.01   41.43
   1   2  -2 2157.79   31.49
   1   2  -2 2111.71   22.38
   1   2  -2 2055.46   24.54
   1   2  -2 2189.25   25.84
   1   2  -1  998.11   15.35
   1   2  -1  921.63   25.26
   1   2  -1 1031.09   11.23
   1   2  -1  933.04   13.53
   1   2  -1  905.57   16.72
   1   2  -1  915.45   15.03
   1   2  -1  988.71   16.09
   1   2  -1 1001.89   15.43
   1   2   1 3305.67   36.78
   1   2   1 3312.97   36.49
   1   2   2 5467.58   40.34
   1   2   3 5090.46   33.50
   1   2   3 4970.31   35.56
   1   2   4 5892.52   51.99
   1   2   4 5957.75   36.38
   1   2   5 2174.30   23.65
   1   2   5 2097.39   38.39
   1   2   5 2214.54   24.23
   1   2   5 2122.49   23.12
   1   2   5 2145.76   34.64
   1   2   5 2202.01   23.38
   1   2   6 4723.70   37.09
   1   2   6 4662.70   58.73
   1   2   7 1912.53   24.15
   1   2   7 1877.47   41.85
   1   2   7 1990.07   27.21
   1   2   8  164.46    7.40
   1   2   8  161.95   13.61
   1   2   8  162.61    8.43
   1   2   9  101.87    5.92
   1   2   9  116.01   13.13
   1   2   9  108.37    7.42
   1   2  10   96.93    5.79
   1   2  10   87.85   12.63
   1   2  10   91.60    7.37
   1   2  11  242.27   11.60
   1   2  11  263.67   22.91
   1   2  11  262.40   13.21
   1   2  12  553.63   35.85
   1   2  12  599.57   20.98
   1   2  13  548.53   39.05
   1   2  13  533.02   21.22
   1   3 -10  256.59   14.43
   1   3  -9  621.21   21.24
   1   3  -8 1281.78   29.27
   1   3  -7 1627.06   64.46
   1   3  -7 1759.35   32.81
   1   3  -6 1711.08   61.90
   1   3  -6 1831.71   32.29
   1   3  -5  691.88   37.07
   1   3  -5  693.84   18.92
   1   3  -4   29.22    1.59
   1   3  -4   33.58    7.90
   1   3  -4   34.98    1.82
   1   3  -4   38.60    4.04
   1   3  -4   40.98    4.44
   1   3  -3  308.32   21.56
   1   3  -3  359.34   11.92
   1   3  -3  326.10   11.70
   1   3  -2 1176.87   39.23
   1   3  -2 1243.95   20.21
   1   3  -2 1214.44   27.03
   1   3  -2 1254.17   21.53
   1   3  -1 1874.51   45.86
   1   3  -1 2055.30   24.60
   1   3  -1 1900.75   30.12
   1   3  -1 2046.08   25.89
   1   3   0 5853.57   74.64
   1   3   0 6603.50   42.22
   1   3   2 2856.27   22.59
   1   3   2 2465.68   41.53
   1   3   2 2844.44   26.50
   1   3   2 2602.30   24.62
   1   3   2 2466.76   34.58
   1   3   2 2719.52   22.91
   1   3   3 5319.66   55.46
   1   3   3 5159.60   38.02
   1   3   4  348.56    5.71
   1   3   4  339.68    9.91
   1   3   4  344.01    5.71
   1   3   4  346.68    5.87
   1   3   4  346.26   11.33
   1   3   4  342.03   10.15
   1   3   4  348.87    9.54
   1   3   5   30.33    3.14
   1   3   5   35.56    4.41
   1   3   5   30.99    3.01
   1   3   6   16.91    2.46
   1   3   6   16.99    2.38
   1   3   6   23.09    3.86
   1   3   6   18.07    2.56
   1   3   7 1461.44   23.04
   1   3   7 1432.43   22.32
   1   3   7 1423.10   23.30
   1   3   8 1407.49   23.49
   1   3   8 1405.64   23.28
   1   3   8 1382.34   24.62
   1   3   9 1772.82   27.66
   1   3   9 1836.02   47.61
   1   3   9 1762.94   29.96
   1   3  10 1403.02   24.89
   1   3  10 1393.94   25.81
   1   3  10 1363.79   44.73
   1   3  10 1414.38   28.77
   1   3  11  940.81   20.63
   1   3  11  939.51   22.40
   1   3  11  934.13   40.58
   1   3  11  952.65   25.18
   1   3  12  228.00   21.90
   1   3  12  241.11   13.55
   1   3  13   50.78    6.71
   1   3  13   52.28   12.84
   1   4  -9  292.68   15.77
   1   4  -8  131.99   10.12
   1   4  -7   12.18    3.17
   1   4  -6   83.33    7.53
   1   4  -5 1249.31   56.12
   1   4  -5 1367.81   27.82
   1   4  -5 1246.70   27.48
   1   4  -4 1585.80   12.84
   1   4  -4 1619.03   60.11
   1   4  -4 1711.24   14.40
   1   4  -4 1699.61   29.83
   1   4  -4 1661.75   30.49
   1   4  -3 2638.20   20.16
   1   4  -3 2659.50   36.12
   1   4  -2 5113.05   31.28
   1   4  -2 5134.90   47.19
   1   4  -2 5145.39   48.43
   1   4  -1 2442.80   23.12
   1   4  -1 2360.48   61.21
   1   4  -1 2383.75   30.57
   1   4  -1 2360.32   39.18
   1   4  -1 2432.55   31.76
   1   4   0 5040.98   83.70
   1   4   0 5373.08   43.65
   1   4   0 5526.23   54.74
   1   4   0 5214.50   43.57
   1   4   1    7.98    2.09
   1   4   1    5.42    1.45
   1   4   1   11.44    4.25
   1   4   1   10.70    2.06
   1   4   1    7.61    1.69
   1   4   2  926.17   16.67
   1   4   2  925.54   32.10
   1   4   2  932.65   16.01
   1   4   2  907.63   15.85
   1   4   3  787.73   15.85
   1   4   3  722.13   19.66
   1   4   3  696.82   14.80
   1   4   3  772.67   13.21
   1   4   3  781.05   13.53
   1   4   4 3530.80   35.38
   1   4   4 3416.32   32.13
   1   4   5 1296.26   22.25
   1   4   5 1306.33   12.76
   1   4   5 1350.40   13.50
   1   4   5 1327.41   13.90
   1   4   6 4253.56   41.53
   1   4   6 4280.01   38.57
   1   4   7 4079.64   54.98
   1   4   7 4012.67   41.58
   1   4   8 1210.82   23.91
   1   4   8 1234.81   22.46
   1   4   8 1206.83   23.88
   1   4   9  262.45   11.44
   1   4   9  261.74   10.94
   1   4   9  285.31   17.78
   1   4   9  255.14   11.70
   1   4  10   -0.05    1.11
   1   4  10    2.62    1.77
   1   4  10    5.07    2.46
   1   4  10    7.93    4.25
   1   4  11   46.68    5.20
   1   4  11   45.89    5.15
   1   4  11   33.84    5.02
   1   4  11   44.41    9.35
   1   4  12  284.59   23.49
   1   4  12  317.30   15.64
   1   4  13  405.31   30.83
   1   4  13  422.14   18.94
   1   5  -9   92.58    9.80
   1   5  -8  307.63   16.75
   1   5  -7 1229.29   32.07
   1   5  -6 1503.29   33.87
   1   5  -5 1199.72   28.56
   1   5  -5 1124.88   28.27
   1   5  -4  389.88    7.08
   1   5  -4  438.01   16.78
   1   5  -4  424.83   16.67
   1   5  -3  824.14   12.63
   1   5  -3  862.63   14.11
   1   5  -3  850.56   22.64
   1   5  -3  830.61   45.47
   1   5  -3  803.98   22.01
   1   5  -2   76.56    4.25
   1   5  -2   65.31   12.39
   1   5  -2   82.19    4.86
   1   5  -2   79.73    6.58
   1   5  -2   77.78    6.53
   1   5  -1  320.71    9.41
   1   5  -1  288.11   24.94
   1   5  -1  298.62   12.13
   1   5  -1  320.34   12.81
   1   5   0 1865.90   23.70
   1   5   0 1999.24   61.35
   1   5   0 1979.69   38.55
   1   5   0 1996.97   30.01
   1   5   1 7399.98  112.57
   1   5   1 7910.46   71.12
   1   5   2 1900.27   25.71
   1   5   2 1992.16   28.22
   1   5   2 1919.06   26.39
   1   5   3 3435.53   36.22
   1   5   3 3475.18   38.81
   1   5   3 3426.07   32.97
   1   5   4 3255.82   29.99
   1   5   4 3228.24   36.09
   1   5   4 3218.07   29.85
   1   5   4 3214.47   35.32
   1   5   5  722.32   17.81
   1   5   5  707.73   12.47
   1   5   5  763.90   13.21
   1   5   5  700.42   16.64
   1   5   6  100.53    6.84
   1   5   6   95.82    3.91
   1   5   6  103.12    4.25
   1   5   6   91.78    5.87
   1   5   6   93.37    4.31
   1   5   6  100.00    4.07
   1   5   7   36.49    1.72
   1   5   7   31.92    4.04
   1   5   7   40.69    2.01
   1   5   7   38.28    4.10
   1   5   7   34.69    1.66
   1   5   7   38.97    1.93
   1   5   8  138.70    8.61
   1   5   8  135.40    7.69
   1   5   8  121.40   10.15
   1   5   8  124.23    8.22
   1   5   9 1218.06   26.10
   1   5   9 1227.60   24.04
   1   5   9 1240.09   35.51
   1   5   9 1247.99   26.66
   1   5  10 1747.22   32.29
   1   5  10 1792.43   30.20
   1   5  10 1710.52   45.36
   1   5  10 1792.29   33.76
   1   5  11  972.91   23.22
   1   5  11 1005.38   25.34
   1   5  11 1005.41   38.92
   1   5  11 1033.09   26.55
   1   5  12  461.87   17.52
   1   5  12  460.87   16.59
   1   5  12  439.26   28.30
   1   5  12  472.44   19.39
   1   5  13  226.76   22.35
   1   5  13  207.03   13.58
   1   6  -7  354.74   18.55
   1   6  -6   99.42    9.48
   1   6  -5   76.99    7.95
   1   6  -5   79.71    8.08
   1   6  -4  684.11   22.80
   1   6  -4  636.08   22.09
   1   6  -3  927.15   14.80
   1   6  -3  945.35   25.84
   1   6  -2 2389.91   26.13
   1   6  -2 2476.65   40.32
   1   6  -2 2399.37   39.37
   1   6  -1 2316.04   27.40
   1   6  -1 2351.68   37.54
   1   6  -1 2363.28   37.57
   1   6   0 2489.14   29.43
   1   6   0 2519.23   37.73
   1   6   0 2491.49   37.04
   1   6   1  905.33   18.65
   1   6   1  916.34   22.09
   1   6   1  880.63   27.34
   1   6   1  948.15   21.82
   1   6   2  204.52    9.06
   1   6   2  182.30    9.62
   1   6   2  168.14   11.23
   1   6   2  182.09    9.19
   1   6   3  142.22    7.77
   1   6   3  157.86    8.30
   1   6   3  139.58    8.35
   1   6   3  133.90    9.30
   1   6   4  598.12   14.80
   1   6   4  583.43   16.46
   1   6   4  576.51   16.46
   1   6   4  552.25   17.62
   1   6   5 1225.72   24.57
   1   6   5 1175.23   23.54
   1   6   6 2279.45   34.77
   1   6   6 2223.31   25.05
   1   6   6 2300.72   32.92
   1   6   7 2777.33   24.68
   1   6   7 2810.70   37.01
   1   6   7 2838.84   26.00
   1   6   7 2817.96   23.20
   1   6   7 2873.58   23.75
   1   6   8 1385.98   11.73
   1   6   8 1524.16   29.85
   1   6   8 1507.54   27.19
   1   6   8 1382.50   11.76
   1   6   9  605.96   19.44
   1   6   9  528.77   16.09
   1   6   9  580.21   23.96
   1   6   9  582.45   19.31
   1   6  10  317.01   13.10
   1   6  10  300.42   18.71
   1   6  10  340.26   15.19
   1   6  11   82.88    7.77
   1   6  11   72.71    6.58
   1   6  11   73.50   10.09
   1   6  11   79.21    7.87
   1   6  12   25.65    4.39
   1   6  12   33.34    5.36
   1   6  12   37.28    5.87
   1   6  12   47.19    9.62
   1   6  13   90.75    8.56
   1   6  13  106.37   15.11
   1   6  13  123.83   10.78
   1   7  -6  561.45   24.12
   1   7  -5  630.96   24.81
   1   7  -5  701.42   25.84
   1   7  -4 1006.52   30.04
   1   7  -4 1081.10   30.91
   1   7  -3 1293.20   32.63
   1   7  -3 1367.83   34.16
   1   7  -2  363.25   11.07
   1   7  -2  386.84   17.86
   1   7  -2  361.37   16.54
   1   7  -1    6.00    2.40
   1   7  -1    6.08    1.82
   1   7  -1    9.93    3.01
   1   7   0   94.77    6.34
   1   7   0   88.72    7.87
   1   7   0   88.43    7.58
   1   7   1 1229.37   28.19
   1   7   1 1212.64   27.08
   1   7   2 1593.30   29.96
   1   7   2 1580.06   27.37
   1   7   2 1615.73   31.47
   1   7   3 1217.00   25.07
   1   7   3 1159.12   24.25
   1   7   3 1151.93   25.97
   1   7   4 1551.19   26.84
   1   7   4 1500.43   28.27
   1   7   4 1533.43   29.59
   1   7   5 2512.05   31.84
   1   7   5 2507.43   37.67
   1   7   5 2437.91   36.88
   1   7   6 1695.36   31.62
   1   7   6 1717.23   24.52
   1   7   6 1657.55   30.22
   1   7   7  230.41   12.15
   1   7   7  199.47    7.69
   1   7   7  191.75   11.76
   1   7   7  209.59   10.88
   1   7   7  199.84    7.74
   1   7   8   57.46    6.26
   1   7   8   61.37    3.73
   1   7   8   61.51    6.05
   1   7   8   64.99    3.83
   1   7   9  537.85   19.47
   1   7   9  521.42   17.44
   1   7  10  504.49   19.44
   1   7  10  466.15   17.04
   1   7  10  514.34   24.23
   1   7  10  499.70   19.34
   1   7  11  446.23   18.92
   1   7  11  437.12   16.88
   1   7  11  425.15   23.96
   1   7  11  466.47   19.34
   1   7  12  341.74   17.30
   1   7  12  317.20   22.85
   1   7  13  440.97   19.89
   1   7  13  454.34   29.54
   1   7  13  472.76   21.24
   1   8  -5   39.97    7.03
   1   8  -4    3.43    2.83
   1   8  -4    6.37    3.78
   1   8  -3  149.48   11.99
   1   8  -3  149.25   12.10
   1   8  -2  564.09   22.46
   1   8  -2  602.79   23.72
   1   8  -1 1258.51   32.26
   1   8  -1 1172.56   22.64
   1   8  -1 1241.57   32.73
   1   8   0 1382.28   25.76
   1   8   0 1397.90   33.69
   1   8   1 1225.75   29.59
   1   8   1 1214.23   24.94
   1   8   1 1275.10   30.94
   1   8   2 1054.41   26.34
   1   8   2 1099.86   28.40
   1   8   3  510.38   17.65
   1   8   3  497.83   17.04
   1   8   3  502.98   18.73
   1   8   4   15.30    3.25
   1   8   4   10.86    2.88
   1   8   4   14.66    3.38
   1   8   5  314.42   14.11
   1   8   5  303.41   12.42
   1   8   5  283.17   13.79
   1   8   6  149.88    9.96
   1   8   6  135.64    7.85
   1   8   6  127.77    9.27
   1   8   7  457.88   17.86
   1   8   7  479.78   13.82
   1   8   7  449.27   16.99
   1   8   8 2415.06   42.75
   1   8   8 2412.71   39.74
   1   8   9 1226.75   31.12
   1   8   9 1158.61   27.95
   1   8  10  306.95   15.96
   1   8  10  319.94   14.95
   1   8  10  353.10   17.89
   1   8  11  234.19   14.48
   1   8  11  212.31   12.42
   1   8  11  200.90   16.46
   1   8  11  230.22   14.48
   1   8  12   47.03    6.97
   1   8  12   59.05    7.71
   1   8  13    5.57    3.51
   1   8  13    1.96    2.51
   1   9  -3  396.30   20.85
   1   9  -3  398.65   21.19
   1   9  -2  504.72   22.69
   1   9  -2  552.28   24.52
   1   9  -1  217.38   14.45
   1   9  -1  222.85   15.46
   1   9   0   48.56    6.60
   1   9   0   61.61    5.92
   1   9   0   67.58    8.14
   1   9   1    2.14    2.14
   1   9   1    1.59    1.77
   1   9   1   -0.63    1.88
   1   9   2  237.59   13.55
   1   9   2  234.56   12.05
   1   9   2  265.70   15.19
   1   9   3  638.28   21.51
   1   9   3  602.29   19.81
   1   9   3  623.35   22.75
   1   9   4  873.10   23.99
   1   9   4  887.55   24.76
   1   9   4  922.74   27.13
   1   9   5 2195.80   36.86
   1   9   5 2175.43   39.50
   1   9   5 2109.15   40.24
   1   9   6 1231.77   26.16
   1   9   6 1282.60   31.07
   1   9   6 1250.63   30.83
   1   9   7  235.06   13.66
   1   9   7  216.80   10.46
   1   9   7  214.34   12.87
   1   9   8   19.31    4.28
   1   9   8   24.99    4.68
   1   9   9    4.60    2.69
   1   9   9    2.06    2.09
   1   9  10    6.13    3.12
   1   9  10   11.31    3.43
   1   9  11  241.24   15.53
   1   9  11  212.23   13.18
   1   9  11  256.33   16.14
   1   9  12  335.61   18.60
   1   9  12  318.39   18.04
   1  10  -1  203.62   14.93
   1  10  -1  189.30   15.27
   1  10   0  467.66   22.06
   1  10   0  574.16   26.00
   1  10   1  972.28   30.46
   1  10   1  864.88   23.70
   1  10   1  937.98   31.44
   1  10   2  564.70   22.43
   1  10   2  566.57   20.00
   1  10   2  555.37   23.75
   1  10   3  333.76   16.72
   1  10   3  301.98   14.87
   1  10   3  342.32   18.34
   1  10   4  523.19   20.32
   1  10   4  475.61   19.18
   1  10   4  473.76   21.16
   1  10   5  145.26   10.91
   1  10   5  152.81   10.62
   1  10   5  116.91   10.46
   1  10   6   76.06    8.16
   1  10   6   66.26    6.74
   1  10   6   82.09    8.72
   1  10   7  162.51   12.05
   1  10   7  174.48   10.44
   1  10   7  178.04   12.42
   1  10   8  924.19   29.59
   1  10   8  889.63   28.01
   1  10   9  496.96   21.98
   1  10   9  469.64   20.50
   1  10  10  136.06   11.84
   1  10  10  146.31   11.47
   1  10  11  468.29   22.54
   1  10  11  448.37   20.24
   1  10  11  455.21   23.33
   1  11   1   85.92    9.99
   1  11   1  117.94   12.50
   1  11   2   11.57    3.83
   1  11   2    8.35    3.01
   1  11   2    6.08    3.99
   1  11   3  164.57   11.57
   1  11   3  183.25   14.53
   1  11   4  204.01   13.69
   1  11   4  188.37   12.81
   1  11   4  192.07   14.72
   1  11   5  411.49   19.13
   1  11   5  427.71   21.29
   1  11   5  402.51   18.49
   1  11   6  547.42   22.56
   1  11   6  543.77   20.77
   1  11   6  539.47   23.75
   1  11   7  575.87   23.83
   1  11   7  582.82   24.52
   1  11   8  333.23   18.44
   1  11   8  344.25   18.63
   1  11   9   12.02    4.10
   1  11   9   18.36    4.97
   2 -11  -7  267.05   16.72
   2 -11  -6  394.16   21.37
   2 -11  -5  319.81   20.08
   2 -11  -4  534.34   26.92
   2 -11  -3  665.36   30.81
   2 -11  -2  243.72   19.42
   2 -10  -8  524.14   20.21
   2 -10  -7  748.29   25.36
   2 -10  -6  603.03   24.46
   2 -10  -5   90.20   10.17
   2 -10  -4   46.71    7.93
   2 -10  -3   80.47   10.38
   2 -10  -2  438.54   24.68
   2 -10  -1  621.87   30.78
   2 -10   0  562.64   29.88
   2 -10   1  420.76   26.92
   2  -9  -8    5.18    2.30
   2  -9  -7   14.48    3.57
   2  -9  -6  100.87    9.09
   2  -9  -5  508.79   21.80
   2  -9  -4 1568.94   40.08
   2  -9  -3 1811.16   44.31
   2  -9  -2  741.71   29.70
   2  -9  -1  350.78   21.58
   2  -9   0  115.59   13.00
   2  -9   0  117.38   10.46
   2  -9   1    6.45    4.07
   2  -9   1    1.14    2.40
   2  -9   2   73.08   11.23
   2  -9   2   80.03    9.27
   2  -9   3  102.61   14.03
   2  -9   3  101.27   10.57
   2  -9   3  123.30   16.67
   2  -8  -9  442.98   14.53
   2  -8  -8  885.72   21.90
   2  -8  -7 1497.53   29.93
   2  -8  -6 1614.65   32.84
   2  -8  -5 1123.82   29.67
   2  -8  -4  524.83   21.24
   2  -8  -3   44.65    6.63
   2  -8  -2   44.25    6.97
   2  -8  -1  621.95   26.82
   2  -8  -1  632.41   21.85
   2  -8   0  860.63   32.47
   2  -8   0  886.57   26.42
   2  -8   1 1066.36   37.12
   2  -8   1 1078.91   29.91
   2  -8   2  686.78   30.59
   2  -8   2  720.49   25.18
   2  -8   2  775.45   35.90
   2  -8   3  560.52   28.56
   2  -8   3  494.08   21.53
   2  -8   3  530.40   32.23
   2  -8   4  712.62   33.47
   2  -8   4  687.15   26.23
   2  -8   4  684.09   38.68
   2  -8   5   83.62   15.27
   2  -8   5   76.88   11.92
   2  -8   5   66.92    8.80
   2  -7  -9 1144.45   21.69
   2  -7  -8  457.51   14.27
   2  -7  -7  143.62    8.40
   2  -7  -6   -0.21    1.08
   2  -7  -5  265.07   12.89
   2  -7  -4 1473.64   32.63
   2  -7  -3 2093.27   40.71
   2  -7  -2 2407.98   45.65
   2  -7  -1 1654.78   40.16
   2  -7  -1 1682.07   32.92
   2  -7   0  675.05   26.29
   2  -7   0  666.70   21.32
   2  -7   1  721.60   22.59
   2  -7   1  773.99   32.18
   2  -7   2   11.92    5.52
   2  -7   2   13.24    3.41
   2  -7   2    5.44    3.30
   2  -7   3    8.22    4.20
   2  -7   3   18.36    5.36
   2  -7   3   18.41    4.28
   2  -7   4  324.51   21.22
   2  -7   4  329.98   16.91
   2  -7   4  295.58   24.86
   2  -7   5  679.23   31.52
   2  -7   5  641.50   24.17
   2  -7   5  599.04   36.99
   2  -7   6  362.27   23.91
   2  -7   6  395.08   19.68
   2  -7   6  432.28   33.32
   2  -6  -9   29.99    3.46
   2  -6  -8  446.18   12.92
   2  -6  -7 2661.98   32.23
   2  -6  -6 3752.78   40.77
   2  -6  -5 1739.69   29.01
   2  -6  -4 1658.50   30.65
   2  -6  -3 1215.05   27.98
   2  -6  -2  393.92   16.67
   2  -6  -1  188.77   12.58
   2  -6   0  267.53   15.30
   2  -6   0  246.63   11.89
   2  -6   1  946.70   30.33
   2  -6   1  959.46   23.96
   2  -6   1  934.07   33.84
   2  -6   2 1853.53   43.70
   2  -6   2 1884.08   34.72
   2  -6   3 1342.26   38.60
   2  -6   3 1332.88   30.12
   2  -6   3 1361.28   47.56
   2  -6   4 2497.86   54.69
   2  -6   4 2462.64   42.48
   2  -6   4 2339.74   66.21
   2  -6   5  367.66   21.56
   2  -6   5  387.29   17.41
   2  -6   5  355.82   27.50
   2  -6   6   17.04    7.61
   2  -6   6   17.38    5.65
   2  -6   6   15.88    4.25
   2  -6   7   11.99    8.38
   2  -6   7    7.64    4.25
   2  -6   7    8.90    3.43
   2  -5  -9 2073.64   27.85
   2  -5  -8 1608.36   23.28
   2  -5  -7 1383.61   21.45
   2  -5  -7 1325.38   18.26
   2  -5  -6  913.91   17.75
   2  -5  -6  904.43   15.93
   2  -5  -5    8.30    1.96
   2  -5  -4  634.02   16.64
   2  -5  -3 1980.24   31.68
   2  -5  -2 2454.53   37.38
   2  -5  -1 4404.87   53.32
   2  -5   0 1873.35   37.04
   2  -5   0 1811.40   29.38
   2  -5   1 2288.33   42.85
   2  -5   1 2287.67   34.13
   2  -5   1 2301.75   50.14
   2  -5   2  893.49   16.41
   2  -5   2  958.88   28.82
   2  -5   2  944.90   22.64
   2  -5   2  916.82   34.45
   2  -5   3  686.25   25.57
   2  -5   3  684.56   19.97
   2  -5   3  641.00   30.88
   2  -5   4   20.13    6.53
   2  -5   4   13.92    4.17
   2  -5   4   13.98    3.12
   2  -5   5 1387.59   38.97
   2  -5   5 1361.54   30.25
   2  -5   5 1396.87   51.81
   2  -5   6  441.37   22.77
   2  -5   6  397.38   17.01
   2  -5   6  423.32   30.17
   2  -5   7  741.23   30.49
   2  -5   7  726.15   23.91
   2  -5   7  693.52   40.92
   2  -5   8  441.61   23.96
   2  -5   8  484.75   20.32
   2  -5   8  459.73   35.38
   2  -4  -9    5.73    2.06
   2  -4  -8  382.08   11.76
   2  -4  -7  287.58    9.51
   2  -4  -6 2262.20   25.79
   2  -4  -6 2324.28   20.37
   2  -4  -5 2049.36   25.13
   2  -4  -5 2066.35   20.79
   2  -4  -4 4144.77   37.75
   2  -4  -4 4551.71   33.13
   2  -4  -3 7132.98   45.71
   2  -4  -2 2603.78   34.16
   2  -4  -1  222.56   10.59
   2  -4   0  114.40    8.24
   2  -4   0  110.12    9.19
   2  -4   1  146.87    6.39
   2  -4   1  171.25   10.59
   2  -4   1  162.56    8.32
   2  -4   1  162.22   12.42
   2  -4   2 3864.14   52.79
   2  -4   2 3804.43   40.98
   2  -4   2 3748.26   30.33
   2  -4   2 3758.51   65.12
   2  -4   3 1649.63   18.89
   2  -4   3 1616.21   35.85
   2  -4   3 1629.60   28.16
   2  -4   3 1579.48   45.81
   2  -4   4 1883.42   17.15
   2  -4   4 1918.55   40.63
   2  -4   4 1954.78   31.92
   2  -4   4 1904.47   53.95
   2  -4   5 1705.72   39.79
   2  -4   5 1686.98   30.88
   2  -4   6 1020.15   31.99
   2  -4   6  989.87   24.60
   2  -4   7  473.89   22.43
   2  -4   7  525.97   18.63
   2  -4   7  497.06   32.76
   2  -4   8   -2.03    3.14
   2  -4   8   -0.53    1.59
   2  -4   9   -0.08    6.13
   2  -4   9    4.91    4.12
   2  -4   9    8.53    3.46
   2  -3 -10   85.42    8.82
   2  -3 -10   88.88    5.87
   2  -3  -9 3078.23   44.52
   2  -3  -8 4128.39   43.65
   2  -3  -7 2312.84   28.69
   2  -3  -6  742.19   14.64
   2  -3  -6  785.30   15.19
   2  -3  -6  730.11   14.40
   2  -3  -5  434.26   10.86
   2  -3  -5  399.52   10.49
   2  -3  -5  435.06    6.97
   2  -3  -5  412.25   10.73
   2  -3  -4 1877.92   22.27
   2  -3  -4 1812.72   22.01
   2  -3  -4 1806.82   22.25
   2  -3  -3  386.47   10.54
   2  -3  -3  351.12    9.72
   2  -3  -3  372.41    8.40
   2  -3  -3  368.03   10.25
   2  -3  -2 2053.72   29.96
   2  -3  -2 2064.34   25.47
   2  -3  -1 4162.47   39.84
   2  -3  -1 4099.14   33.66
   2  -3  -1 4135.44   34.87
   2  -3   0 3618.72   39.74
   2  -3   0 3740.99   30.81
   2  -3   1 7138.84   75.35
   2  -3   2 5763.96   57.17
   2  -3   2 5470.86   72.79
   2  -3   3 2151.84   37.12
   2  -3   3 2125.02   29.04
   2  -3   3 2211.34   50.75
   2  -3   4   90.46    3.65
   2  -3   4   94.24    8.19
   2  -3   4   87.21    6.18
   2  -3   4   76.54   10.07
   2  -3   5  710.75   23.41
   2  -3   5  694.13   18.04
   2  -3   5  658.73   31.81
   2  -3   6   16.59    6.10
   2  -3   6   27.69    5.10
   2  -3   6   15.90    3.01
   2  -3   7   80.55    8.53
   2  -3   7   78.94    6.71
   2  -3   7   72.36   12.52
   2  -3   8 1094.33   32.18
   2  -3   8 1053.04   25.02
   2  -3   8 1052.49   48.45
   2  -3   9 1045.43   32.31
   2  -3   9 1034.68   26.13
   2  -3   9 1105.83   53.61
   2  -3  10  597.01   41.32
   2  -2 -10 1008.76   34.48
   2  -2 -10 1039.73   20.92
   2  -2  -9  487.89   21.16
   2  -2  -9  453.73   12.50
   2  -2  -9  456.51   13.53
   2  -2  -8    1.77    1.77
   2  -2  -8    3.01    1.29
   2  -2  -7  619.52   17.38
   2  -2  -7  690.35   11.12
   2  -2  -6  800.44   15.14
   2  -2  -6  825.20   17.36
   2  -2  -6  797.38   15.24
   2  -2  -5 5025.52   36.25
   2  -2  -5 4961.56   36.17
   2  -2  -4 3668.97   30.17
   2  -2  -4 3724.51   30.33
   2  -2  -4 3799.04   30.54
   2  -2  -3   -0.26    0.61
   2  -2  -2   -0.24    0.45
   2  -2  -2   -0.21    0.45
   2  -2  -1 3755.00   29.78
   2  -2  -1 4077.05   30.88
   2  -2   0  928.34   17.07
   2  -2   0  950.14   15.48
   2  -2   0  882.05   13.79
   2  -2   0  906.91   15.27
   2  -2   1  671.20   11.41
   2  -2   1  665.65   13.47
   2  -2   1  697.67   15.83
   2  -2   1  696.32   21.40
   2  -2   2  388.87   10.86
   2  -2   2  381.48    8.35
   2  -2   2  363.11   17.28
   2  -2   3 1697.26   28.59
   2  -2   3 1819.40   17.33
   2  -2   3 1670.10   23.12
   2  -2   3 1788.89   40.71
   2  -2   4 2752.31   19.87
   2  -2   4 2819.18   31.10
   2  -2   4 2789.80   56.96
   2  -2   5 3294.68   44.12
   2  -2   5 3194.08   34.93
   2  -2   5 3216.35   66.50
   2  -2   5 3176.85   30.65
   2  -2   6 2200.93   37.70
   2  -2   6 2187.72   30.12
   2  -2   6 2182.33   27.61
   2  -2   7 1109.84   27.98
   2  -2   7 1113.91   22.32
   2  -2   7 1107.44   45.10
   2  -2   7 1087.07   21.19
   2  -2   8  287.74   14.82
   2  -2   8  272.02   11.60
   2  -2   8  254.95   23.22
   2  -2   8  258.39   11.18
   2  -2   9  176.54   11.94
   2  -2   9  152.57   19.37
   2  -2   9  187.98   10.28
   2  -2  10   15.67    8.98
   2  -2  11  127.85   20.37
   2  -1 -10  115.56   13.74
   2  -1 -10  143.41    8.43
   2  -1  -9 1503.21   43.09
   2  -1  -9 1448.73   31.15
   2  -1  -9 1482.92   26.10
   2  -1  -8 1521.07   38.68
   2  -1  -8 1547.62   30.62
   2  -1  -8 1501.12   25.28
   2  -1  -7 1182.39   29.33
   2  -1  -7 1197.61   24.99
   2  -1  -6 3409.27   43.04
   2  -1  -6 4009.63   41.56
   2  -1  -5 3172.02   30.30
   2  -1  -5 3128.85   30.04
   2  -1  -5 3100.58   29.78
   2  -1  -5 3222.27   35.85
   2  -1  -4 6580.20   41.72
   2  -1  -3  262.98    7.77
   2  -1  -3  249.03    7.71
   2  -1  -3  232.34    7.40
   2  -1  -3  232.57    7.82
   2  -1  -3  255.88    7.61
   2  -1  -2 1406.72   17.20
   2  -1  -2    0.11    0.42
   2  -1  -2    0.21    0.45
   2  -1  -2   -0.16    0.48
   2  -1  -2 1441.12   16.80
   2  -1  -1  431.22    9.27
   2  -1  -1  437.59    9.27
   2  -1  -1  445.68    9.64
   2  -1  -1  421.55    9.17
   2  -1  -1  416.27   15.72
   2  -1  -1  427.29    7.93
   2  -1   2 4849.54   56.75
   2  -1   3 2411.23   24.39
   2  -1   3 2363.83   27.82
   2  -1   3 2362.57   20.42
   2  -1   3 2332.90   16.78
   2  -1   4 3050.91   33.98
   2  -1   4 3058.70   23.20
   2  -1   4 2974.87   29.11
   2  -1   5 1189.55   22.80
   2  -1   5 1179.22   39.66
   2  -1   5 1130.98   13.69
   2  -1   5 1065.19   36.01
   2  -1   5 1100.97   19.18
   2  -1   5 1155.47   16.59
   2  -1   6    8.56    4.25
   2  -1   6   13.92    2.85
   2  -1   6   10.20    1.32
   2  -1   6    8.14    1.64
   2  -1   7  103.59    3.46
   2  -1   7  117.65    7.95
   2  -1   7  104.83   13.39
   2  -1   7  115.72    6.47
   2  -1   8  614.10   18.86
   2  -1   8  585.36   33.21
   2  -1   8  625.70   16.27
   2  -1   9 1211.48   26.47
   2  -1   9 1234.28   51.28
   2  -1   9 1178.40   24.23
   2  -1  10  808.58   44.36
   2  -1  10  689.00   19.81
   2  -1  11  529.53   38.57
   2   0 -10 1166.86   48.59
   2   0 -10 1270.66   26.58
   2   0  -9 2113.00   59.81
   2   0  -9 2257.33   50.57
   2   0  -9 2130.26   33.34
   2   0  -8  178.15   15.72
   2   0  -8  160.84    8.82
   2   0  -7  495.87   11.65
   2   0  -7  518.94   23.67
   2   0  -7  482.74   14.61
   2   0  -6  145.36    6.24
   2   0  -6  164.49   11.73
   2   0  -5  694.42   13.08
   2   0  -5  691.78   20.92
   2   0  -4 2059.29   24.70
   2   0  -4 2168.01   31.62
   2   0  -4 2029.28   21.58
   2   0  -4 2121.41   25.42
   2   0  -2    0.58    0.58
   2   0  -2   -0.11    0.42
   2   0  -1   97.07    4.65
   2   0   1 3337.93   23.46
   2   0   1 3013.50   31.18
   2   0   2  387.45    7.95
   2   0   2  392.60   16.04
   2   0   2  395.77    8.27
   2   0   2  363.06   13.34
   2   0   2  393.84    8.03
   2   0   3 1384.03   15.35
   2   0   3 1270.82   15.56
   2   0   3 1350.66   30.09
   2   0   3 1315.42    9.99
   2   0   4 1588.28   17.89
   2   0   4 1550.55   18.78
   2   0   4 1589.71   36.88
   2   0   5 1117.74   17.52
   2   0   5 1080.25   33.50
   2   0   5 1073.23   14.64
   2   0   5 1124.72   15.93
   2   0   6 2381.14   27.32
   2   0   6 2339.16   47.50
   2   0   6 2424.57   54.42
   2   0   6 2370.20   24.97
   2   0   6 2350.76   24.86
   2   0   7 2887.47   24.33
   2   0   7 2831.33   31.33
   2   0   7 2755.85   50.07
   2   0   7 2921.90   29.96
   2   0   7 2723.20   62.40
   2   0   7 2777.20   29.80
   2   0   8 1981.88   19.95
   2   0   8 1933.93   27.05
   2   0   8 1887.75   55.96
   2   0   8 1944.87   27.69
   2   0   9  633.47   15.83
   2   0   9  732.70   37.70
   2   0   9  702.53   18.20
   2   0  10   89.91   14.29
   2   0  10  100.45    7.53
   2   0  11   12.15    7.03
   2   0  12  204.33   24.65
   2   1 -10    3.59    2.35
   2   1 -10   10.81    8.27
   2   1  -9   23.75    8.82
   2   1  -9   23.62    4.02
   2   1  -8  257.51   21.88
   2   1  -8  277.41   12.42
   2   1  -7  951.85   37.25
   2   1  -7  978.48   22.25
   2   1  -6 4717.89   31.44
   2   1  -6 4770.20   75.38
   2   1  -5 3441.23   27.05
   2   1  -5 3425.38   57.17
   2   1  -5 3371.11   37.62
   2   1  -4 3800.23   53.00
   2   1  -4 3736.84   28.03
   2   1  -4 3762.82   27.03
   2   1  -3 3870.61   47.82
   2   1  -2   -0.13    0.50
   2   1  -2  231.94   10.17
   2   1  -2    0.13    0.48
   2   1  -2  240.92    7.16
   2   1  -2  233.45    5.79
   2   1  -2  227.16    8.01
   2   1  -1   46.58    3.30
   2   1  -1   41.35    3.70
   2   1  -1   47.08    3.41
   2   1  -1   49.17    2.59
   2   1  -1   43.20    3.12
   2   1   0 2456.14   21.93
   2   1   0 2466.45   40.79
   2   1   0 2425.66   22.19
   2   1   0 2364.55   18.97
   2   1   1 2923.56   23.17
   2   1   1 2906.07   22.75
   2   1   2 3671.09   38.78
   2   1   2 3270.90   32.47
   2   1   3 6577.87   63.35
   2   1   3 6688.99   58.70
   2   1   4 5928.50   63.51
   2   1   5 3519.59   21.69
   2   1   5 3511.11   54.87
   2   1   5 3601.94   22.17
   2   1   6  445.94    8.16
   2   1   6  449.90   16.12
   2   1   6  445.78   21.64
   2   1   6  451.30    8.43
   2   1   6  452.31   10.70
   2   1   7   11.92    1.90
   2   1   7   14.95    3.36
   2   1   7   14.13    1.66
   2   1   7    8.32    1.22
   2   1   7   12.21    2.01
   2   1   7   18.89    5.20
   2   1   8    3.25    0.90
   2   1   8    3.51    1.19
   2   1   8    2.09    1.43
   2   1   9  508.08   12.10
   2   1   9  548.98   30.96
   2   1   9  576.03   15.98
   2   1  10  825.25   40.58
   2   1  10  753.02   19.76
   2   1  11  725.73   41.43
   2   1  11  736.00   20.95
   2   1  12  581.42   39.68
   2   2 -10  608.79   43.59
   2   2 -10  589.16   21.03
   2   2  -9 1134.86   55.59
   2   2  -9 1207.99   28.80
   2   2  -8  861.76   45.07
   2   2  -8  842.61   23.17
   2   2  -7 1247.25   49.91
   2   2  -7 1317.85   27.77
   2   2  -6 1120.91   13.55
   2   2  -6 1145.67   43.67
   2   2  -6 1155.39   24.97
   2   2  -5   17.44    1.85
   2   2  -5   12.71    4.65
   2   2  -5   19.23    2.64
   2   2  -5   19.37    3.22
   2   2  -4  256.72   17.15
   2   2  -4  278.28    7.64
   2   2  -4  287.26    9.35
   2   2  -4  247.21   10.49
   2   2  -3 2558.81   49.72
   2   2  -3 2572.23   23.96
   2   2  -3 2432.74   25.10
   2   2  -3 2410.97   31.18
   2   2  -2 3895.34   53.58
   2   2  -1 4812.37   53.34
   2   2  -1 5171.49   39.26
   2   2   0 5087.19   36.93
   2   2   0 4554.51   46.37
   2   2   0 5078.89   36.93
   2   2   0 4682.75   33.58
   2   2   1 5477.12   65.02
   2   2   2 3406.73   29.96
   2   2   2 3478.30   28.85
   2   2   2 3411.56   22.25
   2   2   3  957.22   11.36
   2   2   3  944.93   11.25
   2   2   3  926.89   13.61
   2   2   3  976.79   20.87
   2   2   3  991.43   16.01
   2   2   3  939.30   17.94
   2   2   4   59.31    2.46
   2   2   4   64.62    3.04
   2   2   4   72.21    4.60
   2   2   4   60.21    2.43
   2   2   4   67.37    5.97
   2   2   5  988.60    9.85
   2   2   5 1035.68   26.68
   2   2   5 1012.38   14.80
   2   2   6 1954.78   41.16
   2   2   6 1747.12   21.48
   2   2   7 2012.37   26.08
   2   2   7 2044.71   47.03
   2   2   7 1951.76   25.15
   2   2   8 2212.69   53.55
   2   2   8 2197.41   29.01
   2   2   9 1784.47   25.86
   2   2   9 1724.74   51.65
   2   2   9 1785.93   28.03
   2   2  10  288.93   10.54
   2   2  10  299.15   23.28
   2   2  10  293.74   12.31
   2   2  11  256.91   13.10
   2   2  11  230.88   22.17
   2   2  11  231.62   11.81
   2   2  12    1.43    1.74
   2   2  12   11.10    6.95
   2   2  13    4.78    7.27
   2   3 -10  158.60   11.70
   2   3  -9   81.69   17.83
   2   3  -9   90.75    8.53
   2   3  -8    1.51    2.01
   2   3  -8    5.15    6.87
   2   3  -7  164.70   20.63
   2   3  -7  163.17   10.52
   2   3  -6 1311.29   53.24
   2   3  -6 1293.78   28.48
   2   3  -5 3007.68   22.91
   2   3  -5 2963.59   35.75
   2   3  -5 2921.77   41.00
   2   3  -4 3496.79   74.85
   2   3  -4 3609.53   28.37
   2   3  -4 3480.41   42.69
   2   3  -3 2918.54   62.91
   2   3  -3 3006.84   32.55
   2   3  -3 2880.00   36.93
   2   3  -2 2287.48   51.23
   2   3  -2 2340.66   27.64
   2   3  -2 2355.35   31.57
   2   3  -1  532.89   22.75
   2   3  -1  505.97   12.31
   2   3  -1  510.80   13.90
   2   3   0    2.48    1.00
   2   3   0   -1.32    2.03
   2   3   0    0.08    0.77
   2   3   1  194.42    7.53
   2   3   1  185.02    7.27
   2   3   1  193.13   11.68
   2   3   1  188.69    7.08
   2   3   1  182.98    7.40
   2   3   1  190.83    7.64
   2   3   2  828.39   22.32
   2   3   2  793.47   25.60
   2   3   2  792.94   14.80
   2   3   2  765.51   13.84
   2   3   2  823.24   14.53
   2   3   3 2359.92   20.92
   2   3   3 2361.40   33.92
   2   3   3 2325.92   26.37
   2   3   3 2356.89   21.29
   2   3   3 2296.49   21.77
   2   3   3 2327.00   21.43
   2   3   4 8293.76   57.99
   2   3   4 8769.77   55.77
   2   3   5 5084.02   42.56
   2   3   5 5232.39   52.60
   2   3   6 1598.06   24.81
   2   3   6 1588.99   33.66
   2   3   6 1506.96   21.80
   2   3   7  605.49   15.53
   2   3   7  597.77   15.90
   2   3   7  586.12   22.99
   2   3   7  602.77   14.40
   2   3   8  255.00   10.46
   2   3   8  230.12   10.46
   2   3   8  260.00   17.12
   2   3   8  230.99    9.64
   2   3   9   25.26    3.41
   2   3   9   25.60    3.83
   2   3   9   28.72    3.80
   2   3  10  343.59   12.73
   2   3  10  323.64   13.76
   2   3  10  326.92   23.30
   2   3  10  333.74   13.29
   2   3  11  282.32   11.78
   2   3  11  320.79   14.35
   2   3  11  296.48   23.80
   2   3  11  338.12   14.29
   2   3  12  553.68   19.79
   2   3  12  553.13   35.40
   2   3  12  581.82   19.89
   2   3  13  140.05   19.29
   2   4  -9  683.88   24.83
   2   4  -8  795.26   52.71
   2   4  -8  847.07   26.53
   2   4  -7 1011.11   56.01
   2   4  -7 1088.79   29.14
   2   4  -6 1050.53   53.90
   2   4  -6 1003.69   26.90
   2   4  -5  691.86   41.27
   2   4  -5  764.06   20.34
   2   4  -5  729.85   21.98
   2   4  -4  126.84   17.07
   2   4  -4  124.70    5.42
   2   4  -4  119.10    7.90
   2   4  -4  116.38    8.43
   2   4  -3   52.73   10.44
   2   4  -3   58.65    5.26
   2   4  -3   58.02    5.65
   2   4  -2 1128.13   43.20
   2   4  -2 1136.24   21.93
   2   4  -2 1169.95   24.46
   2   4  -1 2988.03   34.21
   2   4  -1 3102.08   37.67
   2   4   0 1409.36   42.22
   2   4   0 1509.68   22.62
   2   4   0 1380.36   22.69
   2   4   0 1481.28   22.19
   2   4   0 1401.62   24.20
   2   4   1 7512.58   90.75
   2   4   2 5723.09   43.59
   2   4   2 5575.72   74.32
   2   4   2 5570.85   44.33
   2   4   3 1094.60   17.44
   2   4   3 1063.48   16.75
   2   4   3  958.75   29.04
   2   4   3  994.55   29.75
   2   4   3 1001.63   18.55
   2   4   3 1008.63   10.70
   2   4   3 1079.33   17.17
   2   4   3 1014.36   11.25
   2   4   4  393.13   12.10
   2   4   4  393.29    9.78
   2   4   4  380.97    9.17
   2   4   4  415.37    9.78
   2   4   5   32.87    2.32
   2   4   5   20.79    4.20
   2   4   5   35.27    2.40
   2   4   5   33.61    3.75
   2   4   5   20.34    3.01
   2   4   5   35.11    2.46
   2   4   6   32.47    3.83
   2   4   6   34.66    1.64
   2   4   6   34.40    1.64
   2   4   6   38.26    4.10
   2   4   6   35.16    4.76
   2   4   6   34.27    1.59
   2   4   7 1379.96   25.15
   2   4   7 1284.32   24.12
   2   4   7 1275.97   31.49
   2   4   7 1385.32   24.33
   2   4   8 1797.21   29.62
   2   4   8 1699.98   29.01
   2   4   8 1754.78   41.03
   2   4   8 1749.10   27.50
   2   4   9 1678.13   29.41
   2   4   9 1733.40   30.33
   2   4   9 1645.48   28.43
   2   4  10  863.93   21.85
   2   4  10  862.63   22.43
   2   4  10  810.93   34.48
   2   4  10  858.17   21.53
   2   4  11  514.50   17.28
   2   4  11  554.34   18.89
   2   4  11  540.02   31.23
   2   4  11  582.19   19.18
   2   4  12  158.28   10.67
   2   4  12  178.28   11.18
   2   4  13   15.51    8.98
   2   5  -8  143.99   11.84
   2   5  -7   18.15    4.54
   2   5  -6  191.62   26.45
   2   5  -6  177.59   12.18
   2   5  -5  724.06   21.90
   2   5  -5  729.90   23.62
   2   5  -4 2007.62   20.90
   2   5  -4 1925.48   72.05
   2   5  -4 2004.18   37.52
   2   5  -3 1479.91   59.58
   2   5  -3 1572.24   29.88
   2   5  -3 1454.57   30.62
   2   5  -2 1899.80   64.02
   2   5  -2 1875.01   31.44
   2   5  -2 1829.31   32.87
   2   5  -1 1380.46   51.84
   2   5  -1 1407.15   26.47
   2   5  -1 1438.24   27.87
   2   5   0 1874.72   57.38
   2   5   0 1971.00   30.33
   2   5   0 1885.95   29.33
   2   5   0 1933.51   30.75
   2   5   1 1489.76   48.88
   2   5   1 1510.68   25.86
   2   5   1 1555.94   23.43
   2   5   1 1544.19   26.16
   2   5   2  990.43   37.81
   2   5   2 1057.43   21.37
   2   5   2 1012.09   16.27
   2   5   2 1018.80   20.13
   2   5   3 1319.85   41.74
   2   5   3 1329.47   23.96
   2   5   3 1408.78   18.44
   2   5   3 1392.61   22.06
   2   5   4 4019.64   35.83
   2   5   4 3874.31   60.79
   2   5   4 4034.75   35.03
   2   5   4 3742.42   67.71
   2   5   4 3746.14   39.37
   2   5   4 3821.39   34.11
   2   5   5 2489.72   25.71
   2   5   5 2261.54   32.87
   2   5   5 2258.76   31.07
   2   5   5 2579.92   26.21
   2   5   5 2455.40   29.43
   2   5   5 2380.19   24.20
   2   5   6  917.67   12.81
   2   5   6  892.73   21.19
   2   5   6  914.73   12.79
   2   5   6  904.54   13.10
   2   5   6  873.28   20.77
   2   5   7 1732.80   10.99
   2   5   7 2077.28   32.81
   2   5   7 1826.30   10.81
   2   5   7 2034.54   31.55
   2   5   7 2057.52   36.86
   2   5   7 1735.12   10.94
   2   5   7 1772.19   10.96
   2   5   8 1269.21   26.50
   2   5   8 1269.08   25.86
   2   5   8 1278.82   33.13
   2   5   9  165.89    9.88
   2   5   9  175.96    9.93
   2   5   9  168.85   13.61
   2   5   9  184.23    9.96
   2   5  10    8.96    2.56
   2   5  10    7.45    2.48
   2   5  10    7.45    2.69
   2   5  10    1.56    2.77
   2   5  11    0.24    1.74
   2   5  11    1.82    2.11
   2   5  11    2.25    2.03
   2   5  11    6.95    4.70
   2   5  12  281.50   14.00
   2   5  12  328.90   15.46
   2   5  12  336.22   25.57
   2   5  12  278.86   14.32
   2   5  13  472.84   32.92
   2   5  13  551.28   21.11
   2   6  -7  555.56   23.65
   2   6  -6 1026.67   30.94
   2   6  -5 1059.17   62.25
   2   6  -5 1211.24   30.81
   2   6  -5 1088.60   30.65
   2   6  -4  356.91   16.30
   2   6  -4  329.69   16.33
   2   6  -3  134.29    6.39
   2   6  -3  133.00   19.81
   2   6  -3  116.12    9.14
   2   6  -3  122.14    9.72
   2   6  -2    8.98    2.91
   2   6  -2    4.54    6.79
   2   6  -2    2.67    1.32
   2   6  -2    7.74    2.67
   2   6  -1 1072.64   19.87
   2   6  -1 1067.70   51.70
   2   6  -1 1071.64   25.47
   2   6  -1 1088.87   26.34
   2   6   0  302.19   10.88
   2   6   0  305.36   26.55
   2   6   0  327.79   13.71
   2   6   0  337.96   14.58
   2   6   0  330.83   13.92
   2   6   1 1675.04   26.79
   2   6   1 1594.78   57.75
   2   6   1 1660.25   30.01
   2   6   1 1603.23   28.69
   2   6   1 1670.66   29.96
   2   6   2 4332.43   44.23
   2   6   2 4398.11   47.71
   2   6   2 4310.00   42.91
   2   6   2 4417.37   46.66
   2   6   3 3012.39   37.44
   2   6   3 2954.24   72.60
   2   6   3 3043.14   39.47
   2   6   3 3112.99   34.87
   2   6   3 3071.22   36.96
   2   6   4 2385.39   34.56
   2   6   4 2356.65   34.64
   2   6   4 2327.37   30.15
   2   6   5   67.90    6.05
   2   6   5   63.28    8.06
   2   6   5   63.28    5.84
   2   6   5   63.30    4.68
   2   6   6   70.20    4.70
   2   6   6   78.39    4.62
   2   6   6   76.19    6.60
   2   6   6   76.12    4.81
   2   6   6   71.78    6.13
   2   6   7   65.63    6.13
   2   6   7   63.99    3.54
   2   6   7   51.76    5.31
   2   6   7   69.19    6.71
   2   6   8  518.62   17.83
   2   6   8  560.26   17.62
   2   6   8  537.75   20.29
   2   6   9  633.15   20.42
   2   6   9  633.07   19.39
   2   6   9  614.47   24.49
   2   6   9  667.47   20.55
   2   6  10  849.00   24.33
   2   6  10  835.18   22.91
   2   6  10  916.34   33.21
   2   6  10  851.11   23.25
   2   6  11  638.67   21.80
   2   6  11  634.31   20.79
   2   6  11  670.75   31.44
   2   6  11  659.49   21.66
   2   6  12  431.59   18.39
   2   6  12  419.10   17.44
   2   6  12  421.85   27.58
   2   6  12  429.90   18.15
   2   6  13  228.69   13.87
   2   6  13  234.53   22.91
   2   6  13  246.13   14.66
   2   7  -6   18.71    4.97
   2   7  -5   31.41    5.73
   2   7  -5   34.95    6.02
   2   7  -4  497.54   21.16
   2   7  -4  489.53   21.24
   2   7  -3  589.64   22.69
   2   7  -3  574.71   22.25
   2   7  -2 1160.68   20.98
   2   7  -2 1135.00   60.74
   2   7  -2 1219.88   30.73
   2   7  -2 1160.52   30.15
   2   7  -1 1924.87   28.43
   2   7  -1 1852.43   74.32
   2   7  -1 1833.64   36.41
   2   7  -1 1841.65   36.64
   2   7   0 2131.63   31.10
   2   7   0 2064.66   76.14
   2   7   0 2158.13   38.65
   2   7   0 2203.31   38.68
   2   7   1 1411.45   26.00
   2   7   1 1448.73   30.73
   2   7   1 1380.41   29.43
   2   7   2  406.18   14.40
   2   7   2  384.73   15.53
   2   7   2  384.38   14.90
   2   7   3   25.15    4.33
   2   7   3   25.57    3.83
   2   7   4    3.78    1.77
   2   7   4    2.17    1.03
   2   7   4    2.91    1.93
   2   7   5  994.86   20.77
   2   7   5  980.17   24.36
   2   7   5  966.20   24.04
   2   7   6 1659.96   24.65
   2   7   6 1548.17   30.99
   2   7   6 1622.94   37.73
   2   7   6 1525.96   30.28
   2   7   7 2031.68   36.54
   2   7   7 1989.04   23.99
   2   7   7 1971.84   34.79
   2   7   8  981.84   25.89
   2   7   8  944.03   24.57
   2   7   9  725.59   22.99
   2   7   9  695.00   21.22
   2   7   9  694.05   24.81
   2   7  10  180.16   11.84
   2   7  10  163.72   10.59
   2   7  10  170.30   13.84
   2   7  10  193.71   12.07
   2   7  11    1.93    2.01
   2   7  11    5.26    2.56
   2   7  11    4.62    4.49
   2   7  12   36.88    5.81
   2   7  12   39.34    5.65
   2   7  12   53.76    7.11
   2   7  13  152.20   11.84
   2   7  13  141.29   11.39
   2   8  -5  645.73   27.00
   2   8  -5  639.33   26.45
   2   8  -4  486.49   22.38
   2   8  -4  500.97   22.96
   2   8  -3  222.32   14.87
   2   8  -3  211.09   14.64
   2   8  -2  395.72   19.18
   2   8  -2  370.06   18.41
   2   8  -1   19.47    4.52
   2   8  -1   13.55    2.83
   2   8  -1   16.57    4.04
   2   8   0   34.43    4.33
   2   8   0   37.86    5.71
   2   8   1  681.87   19.29
   2   8   1  699.46   23.30
   2   8   1  717.61   22.93
   2   8   2 2166.74   35.24
   2   8   2 2236.97   40.71
   2   8   2 2255.56   39.13
   2   8   3 1338.48   31.28
   2   8   3 1337.21   29.17
   2   8   4 1263.26   27.27
   2   8   4 1273.54   28.45
   2   8   4 1227.99   29.09
   2   8   5  246.71   11.44
   2   8   5  243.62   12.68
   2   8   5  275.72   13.84
   2   8   6  581.92   16.35
   2   8   6  546.81   19.63
   2   8   6  512.47   18.84
   2   8   7  322.43   15.35
   2   8   7  359.28   15.88
   2   8   8   17.23    4.04
   2   8   8   23.36    4.33
   2   8   9  193.02   12.58
   2   8   9  198.07   12.13
   2   8  10  375.11   18.02
   2   8  10  389.98   17.36
   2   8  11  560.50   22.62
   2   8  11  531.51   20.69
   2   8  11  558.04   21.93
   2   8  12  623.16   24.57
   2   8  12  599.62   22.48
   2   8  12  613.92   23.70
   2   9  -3  129.19   12.21
   2   9  -3  118.60   11.89
   2   9  -2  536.56   23.88
   2   9  -2  577.25   25.07
   2   9  -1  799.83   28.16
   2   9  -1  771.11   27.93
   2   9   0  590.03   23.14
   2   9   0  512.91   17.07
   2   9   0  557.83   23.09
   2   9   1 1115.92   31.04
   2   9   1 1126.01   26.31
   2   9   1 1123.69   31.70
   2   9   2  417.20   18.39
   2   9   2  360.31   15.30
   2   9   2  390.70   18.73
   2   9   3   88.51    8.30
   2   9   3  108.37    8.69
   2   9   3  115.03    9.91
   2   9   4   25.13    4.23
   2   9   4   32.63    5.07
   2   9   4   28.03    5.02
   2   9   5  172.39   10.38
   2   9   5  164.65   11.18
   2   9   5  148.35   11.07
   2   9   6  459.76   16.09
   2   9   6  432.12   18.47
   2   9   6  435.13   18.76
   2   9   7  743.37   24.57
   2   9   7  711.19   18.86
   2   9   7  683.32   23.30
   2   9   8  639.12   23.54
   2   9   8  654.21   22.88
   2   9   9  789.37   26.71
   2   9   9  771.85   25.34
   2   9  10  368.21   18.89
   2   9  10  366.94   17.83
   2   9  11   74.37    8.74
   2   9  11  101.87    9.64
   2   9  11   76.30    8.93
   2   9  12   26.34    5.87
   2   9  12   27.37    5.63
   2   9  12   28.80    6.13
   2  10  -1  179.34   14.45
   2  10  -1  214.40   16.33
   2  10   0    0.42    3.12
   2  10   0    0.95    2.77
   2  10   1  111.86   10.62
   2  10   1  108.90    8.77
   2  10   1  131.81   11.70
   2  10   2  178.94   13.02
   2  10   2  164.44   10.99
   2  10   2  161.19   12.89
   2  10   3  171.44   12.31
   2  10   3  182.27   11.81
   2  10   4  771.70   24.91
   2  10   4  765.75   24.54
   2  10   4  784.40   27.40
   2  10   5  798.20   24.31
   2  10   5  883.43   27.21
   2  10   5  814.15   27.56
   2  10   6  538.54   21.58
   2  10   6  505.09   18.49
   2  10   6  532.86   22.14
   2  10   7  353.73   18.07
   2  10   7  376.69   18.71
   2  10   8  130.62   11.18
   2  10   8  161.08   12.15
   2  10   9   12.15    3.78
   2  10   9   12.44    4.25
   2  10  10  130.22   11.92
   2  10  10  152.50   12.26
   2  10  11  135.61   12.52
   2  10  11  151.25   12.26
   2  11   2  529.53   23.78
   2  11   2  489.59   19.81
   2  11   2  502.72   24.39
   2  11   3  154.48   12.60
   2  11   3  150.70   11.41
   2  11   3  149.22   13.29
   2  11   4   64.33    7.87
   2  11   4   69.99    7.79
   2  11   4   62.48    8.51
   2  11   5   59.21    7.40
   2  11   5   53.34    7.21
   2  11   5   49.93    7.50
   2  11   6    8.67    3.09
   2  11   6   15.67    4.31
   2  11   6   10.94    4.73
   2  11   7  185.86   13.87
   2  11   7  175.43   13.69
   2  11   8  391.09   20.37
   2  11   8  406.73   20.87
   2  11   9  478.78   22.64
   3 -11  -6   71.97    9.33
   3 -11  -5   52.26    8.43
   3 -11  -4  121.66   12.95
   3 -10  -8   50.54    6.87
   3 -10  -7  392.07   18.92
   3 -10  -6  767.13   27.13
   3 -10  -5  957.43   31.97
   3 -10  -4  207.45   15.69
   3 -10  -3  632.86   28.40
   3 -10  -2  330.43   21.29
   3 -10  -1   51.68    8.98
   3 -10   0   -0.79    3.09
   3  -9  -8 1165.09   29.09
   3  -9  -7  598.86   21.77
   3  -9  -6  493.15   20.26
   3  -9  -5   51.52    7.16
   3  -9  -4    3.38    2.11
   3  -9  -3    3.75    3.30
   3  -9  -2  870.06   32.07
   3  -9  -1  639.36   28.59
   3  -9   0  854.76   33.69
   3  -9   1  696.53   31.20
   3  -9   2  324.65   22.22
   3  -8  -9  350.54   14.35
   3  -8  -8   37.20    4.97
   3  -8  -7  138.52    9.64
   3  -8  -6  339.10   15.61
   3  -8  -5 1054.39   28.11
   3  -8  -4  714.05   24.65
   3  -8  -3 1699.35   40.40
   3  -8  -2 1749.73   42.59
   3  -8  -1  542.24   24.49
   3  -8   0  106.74   11.28
   3  -8   1   98.52   11.18
   3  -8   2   78.39   10.49
   3  -8   3  137.54   14.00
   3  -8   3  137.83   16.72
   3  -8   4  585.46   29.14
   3  -8   4  564.38   35.72
   3  -7  -9 1111.82   24.09
   3  -7  -8 1368.68   27.13
   3  -7  -7 1069.69   24.54
   3  -7  -6 1345.75   28.59
   3  -7  -5  940.73   24.73
   3  -7  -4  492.07   18.81
   3  -7  -3  356.96   16.75
   3  -7  -2  202.46   13.32
   3  -7  -1  928.02   29.48
   3  -7   0 1270.40   35.72
   3  -7   1 1484.34   39.81
   3  -7   2  974.84   33.00
   3  -7   2 1045.67   41.32
   3  -7   3  478.07   24.31
   3  -7   3  409.35   27.32
   3  -7   4  199.28   16.41
   3  -7   4  209.30   21.51
   3  -7   5  132.65   13.47
   3  -7   5  169.91   20.58
   3  -7   6    4.97    7.95
   3  -7   6    7.13    4.99
   3  -6  -9 1310.74   25.34
   3  -6  -8  782.08   19.44
   3  -6  -7   23.49    3.49
   3  -6  -6   54.29    5.34
   3  -6  -5  267.79   12.26
   3  -6  -4 1372.59   28.32
   3  -6  -3 3275.18   46.37
   3  -6  -2 2237.20   40.66
   3  -6  -1 1454.75   33.98
   3  -6   0 1797.02   39.26
   3  -6   1  545.09   22.30
   3  -6   2   14.37    5.42
   3  -6   2   20.58    4.83
   3  -6   3  238.94   15.93
   3  -6   3  222.24   19.15
   3  -6   4  263.78   17.41
   3  -6   4  253.63   22.09
   3  -6   5  758.28   30.36
   3  -6   5  690.22   38.89
   3  -6   6  520.58   25.36
   3  -6   6  521.71   35.53
   3  -6   7  500.68   25.92
   3  -6   7  511.22   37.78
   3  -5  -9  165.73    9.09
   3  -5  -8  635.29   16.99
   3  -5  -7 1437.26   25.02
   3  -5  -6 2854.92   35.32
   3  -5  -6 2776.43   26.50
   3  -5  -5 3285.41   38.92
   3  -5  -5 3020.39   30.46
   3  -5  -4 2409.04   34.66
   3  -5  -3 1392.30   26.82
   3  -5  -2  137.28    9.04
   3  -5  -1  741.10   22.14
   3  -5   0 1442.60   32.13
   3  -5   1  349.67   16.41
   3  -5   1  352.92   20.11
   3  -5   2 1370.05   33.79
   3  -5   2 1427.75   43.88
   3  -5   3 2289.30   44.99
   3  -5   3 2319.66   59.76
   3  -5   4 1710.79   40.74
   3  -5   4 1820.27   56.46
   3  -5   5  747.63   27.85
   3  -5   5  740.49   38.20
   3  -5   6   46.58   11.07
   3  -5   6   58.15    8.19
   3  -5   7    9.78    6.55
   3  -5   7    4.76    3.36
   3  -5   8  162.69   14.24
   3  -5   8  141.43   20.24
   3  -4 -10 2024.18   38.41
   3  -4  -9 1127.04   25.42
   3  -4  -8 1007.28   22.06
   3  -4  -7 1438.11   24.57
   3  -4  -6  403.40   12.71
   3  -4  -6  416.27    7.64
   3  -4  -5   -0.08    1.03
   3  -4  -5    1.16    0.69
   3  -4  -4  470.88   13.76
   3  -4  -4  489.61   11.25
   3  -4  -3 2195.78   31.20
   3  -4  -3 2159.40   26.47
   3  -4  -2 2888.50   36.62
   3  -4  -1 5157.38   52.05
   3  -4   0 4090.53   49.06
   3  -4   1 1648.07   32.34
   3  -4   1 1724.32   41.40
   3  -4   2  163.59   10.70
   3  -4   2  174.50   14.56
   3  -4   3    3.73    3.01
   3  -4   3    1.51    1.98
   3  -4   4  335.64   16.38
   3  -4   4  267.74   20.85
   3  -4   5  479.52   20.18
   3  -4   5  423.72   27.95
   3  -4   6 1603.02   38.28
   3  -4   6 1589.81   56.93
   3  -4   7  787.57   27.66
   3  -4   7  816.19   43.20
   3  -4   8  702.58   27.13
   3  -4   8  683.14   41.77
   3  -4   9  283.11   28.45
   3  -3 -10  825.59   28.08
   3  -3  -9  149.77   10.44
   3  -3  -8  363.14   14.35
   3  -3  -7 1131.82   22.85
   3  -3  -6 2010.49   28.30
   3  -3  -5 4545.77   40.90
   3  -3  -4 4213.06   38.73
   3  -3  -4 4211.32   25.81
   3  -3  -3 2096.65   27.42
   3  -3  -3 2044.63   21.53
   3  -3  -2 1619.72   35.93
   3  -3  -2 1676.42   25.42
   3  -3  -2 1661.67   21.72
   3  -3  -1 1178.06   21.90
   3  -3   0  242.75   10.46
   3  -3   1  187.47    9.75
   3  -3   1  182.69   12.36
   3  -3   2 2202.38   35.03
   3  -3   2 2266.90   48.77
   3  -3   3 2916.25   42.30
   3  -3   3 2811.33   58.97
   3  -3   4 2451.07   40.21
   3  -3   4 2498.65   60.03
   3  -3   5 2337.04   40.85
   3  -3   5 2425.29   62.69
   3  -3   6  303.33   15.16
   3  -3   6  279.31   22.51
   3  -3   7  381.69   17.78
   3  -3   7  357.62   26.84
   3  -3   8    9.46    6.08
   3  -3   8    6.18    3.01
   3  -3   9   23.43    9.01
   3  -3  10    6.95    6.63
   3  -2 -10  561.13   26.00
   3  -2 -10  547.63   17.38
   3  -2  -9 1292.83   35.19
   3  -2  -8 2449.17   42.69
   3  -2  -7 2666.53   38.86
   3  -2  -6 1932.24   29.91
   3  -2  -5  362.64   11.94
   3  -2  -4   97.04    5.81
   3  -2  -3  397.83   11.39
   3  -2  -3  401.90    7.61
   3  -2  -2 3924.69   53.50
   3  -2  -2 3898.74   28.56
   3  -2  -1 4612.24   39.44
   3  -2  -1 4555.96   34.79
   3  -2   0 2031.74   26.87
   3  -2   0 1886.88   24.89
   3  -2   1 2722.56   31.84
   3  -2   1 2739.15   28.53
   3  -2   2 7275.06   55.27
   3  -2   2 7493.24   82.01
   3  -2   3  960.20   16.09
   3  -2   3  960.70   32.23
   3  -2   4  684.62   18.86
   3  -2   4  649.87   28.69
   3  -2   5  126.63    8.51
   3  -2   5  108.82    5.10
   3  -2   5  110.54   12.58
   3  -2   6 1242.89   27.37
   3  -2   6 1289.45   45.92
   3  -2   7  439.78   16.88
   3  -2   7  407.00   27.53
   3  -2   8  957.14   25.73
   3  -2   8  742.16   39.18
   3  -2   9  451.67   32.89
   3  -2  10  473.76   35.56
   3  -1 -10  496.08   28.08
   3  -1 -10  525.65   17.81
   3  -1  -9  764.72   31.49
   3  -1  -9  785.78   21.08
   3  -1  -8  124.83   11.39
   3  -1  -8  118.94    7.08
   3  -1  -7  160.42   11.23
   3  -1  -7  158.57    7.71
   3  -1  -6  881.95   23.09
   3  -1  -5 2706.82   36.14
   3  -1  -4 2002.49   28.06
   3  -1  -4 1857.81   14.03
   3  -1  -3 5263.88   42.62
   3  -1  -3 5287.87   31.47
   3  -1  -2 6977.39   47.90
   3  -1  -1 5012.84   38.31
   3  -1  -1 5072.66   68.53
   3  -1  -1 4950.49   49.43
   3  -1  -1 5015.43   39.39
   3  -1  -1 4990.28   38.18
   3  -1   0   11.47    1.90
   3  -1   0   10.12    1.77
   3  -1   0   14.48    2.11
   3  -1   0   13.61    2.06
   3  -1   1    1.45    1.14
   3  -1   1    2.22    1.06
   3  -1   1    1.37    0.77
   3  -1   1    3.01    1.16
   3  -1   1    2.64    0.98
   3  -1   2   65.57    4.41
   3  -1   2   70.28    4.54
   3  -1   2   77.28    4.97
   3  -1   2   66.63    4.52
   3  -1   3 1214.84   20.16
   3  -1   3 1275.39   18.94
   3  -1   3 1224.40   33.16
   3  -1   4 2485.52   26.45
   3  -1   4 2447.14   51.23
   3  -1   5 5140.85   37.91
   3  -1   5 5276.91   80.84
   3  -1   5 5205.36   29.19
   3  -1   6  997.22   16.46
   3  -1   6 1033.33   38.86
   3  -1   6 1089.76   15.48
   3  -1   7  779.78   19.63
   3  -1   7  742.85   35.35
   3  -1   7  779.38   14.95
   3  -1   8  628.40   17.91
   3  -1   8  580.05   33.74
   3  -1   8  578.67   14.21
   3  -1   9   38.26    9.75
   3  -1  10    6.45    6.82
   3  -1  11  137.65   20.42
   3   0 -10  108.64   15.83
   3   0 -10  105.05    8.45
   3   0  -9  795.00   36.67
   3   0  -9  787.23   22.17
   3   0  -8 2765.28   62.27
   3   0  -8 2604.52   38.81
   3   0  -7 1379.01   38.12
   3   0  -6 2416.75   44.99
   3   0  -5 2261.80   38.60
   3   0  -4 1148.34   24.65
   3   0  -4 1030.87    9.54
   3   0  -3  768.21   17.97
   3   0  -3  740.71    8.69
   3   0  -2  564.67   14.11
   3   0  -2  631.99   14.24
   3   0  -2  615.53   11.33
   3   0  -2  624.09    9.04
   3   0  -2  585.75   12.95
   3   0  -1 1518.00   20.92
   3   0  -1 1662.57   37.62
   3   0  -1 1628.15   22.14
   3   0  -1 1629.76   22.19
   3   0  -1 1587.38   16.01
   3   0  -1 1512.53   21.85
   3   0  -1 1591.08   18.44
   3   0  -1 1528.44   21.08
   3   0   0 3786.43   32.07
   3   0   0 3870.82   40.55
   3   0   0 3788.05   23.65
   3   0   0 3790.58   32.10
   3   0   1 3673.46   30.33
   3   0   1 3797.56   31.23
   3   0   1 3730.77   48.48
   3   0   1 3658.69   30.46
   3   0   2 9226.38   71.57
   3   0   3 3331.67   28.61
   3   0   3 3376.66   49.83
   3   0   3 3428.90   29.22
   3   0   4 1037.19   30.09
   3   0   4 1039.80    7.71
   3   0   5  301.13    9.22
   3   0   5  311.04    9.51
   3   0   5  285.23    6.05
   3   0   6   55.35    4.15
   3   0   6   67.66    9.48
   3   0   6   58.26    3.36
   3   0   6   50.88    4.04
   3   0   7   27.48    7.05
   3   0   7   25.76    2.96
   3   0   7   16.57    2.17
   3   0   8  601.50   14.40
   3   0   8  637.30   33.87
   3   0   8  599.20   13.90
   3   0   9  922.69   43.33
   3   0   9  811.91   17.57
   3   0  10  693.49   40.61
   3   0  11  575.27   39.21
   3   0  12  220.18   26.23
   3   1 -10  800.26   45.60
   3   1 -10  712.57   23.09
   3   1  -9 1408.92   55.01
   3   1  -9 1344.53   30.65
   3   1  -8  586.84   32.07
   3   1  -8  548.74   18.81
   3   1  -7    7.27    4.07
   3   1  -7   10.17    2.72
   3   1  -6   23.38    5.71
   3   1  -5  827.65   28.30
   3   1  -5  861.21   12.89
   3   1  -4  844.14   25.28
   3   1  -4  884.11   12.73
   3   1  -3 3256.14   44.60
   3   1  -3 3307.81   24.09
   3   1  -2 7714.77   61.61
   3   1  -1 5537.41   46.76
   3   1  -1 5702.11   39.37
   3   1   0 3959.64   33.53
   3   1   0 4016.13   34.03
   3   1   0 3942.79   35.75
   3   1   1 1313.43   18.34
   3   1   1 1305.48   19.13
   3   1   1 1377.56   24.83
   3   1   1 1329.05   18.10
   3   1   1 1354.31   14.29
   3   1   1 1255.58   17.70
   3   1   2  164.41    6.21
   3   1   2  162.48    6.29
   3   1   2  158.62    6.10
   3   1   2  173.13    4.28
   3   1   2  150.99    7.42
   3   1   3  705.25   12.34
   3   1   3  748.95   12.92
   3   1   3  722.03   12.58
   3   1   3  725.99   20.29
   3   1   3  741.47    8.06
   3   1   4 1066.54   14.98
   3   1   4 1024.03   14.53
   3   1   4 1055.13    9.99
   3   1   4 1057.77   15.03
   3   1   5 2589.75   23.36
   3   1   5 2696.62   23.59
   3   1   5 2666.74   19.13
   3   1   6 2247.67   22.48
   3   1   6 2328.46   21.82
   3   1   6 2191.10   50.49
   3   1   6 2274.56   20.85
   3   1   7 1405.98   17.04
   3   1   7 1325.90   35.53
   3   1   7 1293.54   42.35
   3   1   7 1325.03   18.15
   3   1   7 1336.53   17.75
   3   1   8 1303.63   16.38
   3   1   8 1227.25   44.54
   3   1   8 1260.49   19.63
   3   1   9  609.69   14.77
   3   1   9  579.18   32.73
   3   1   9  610.75   14.95
   3   1  10  253.89   23.57
   3   1  11    2.40    5.57
   3   1  12  167.37   22.03
   3   2 -10    0.87    2.38
   3   2 -10   -4.12    7.56
   3   2  -9   11.25    3.38
   3   2  -9    9.54    7.29
   3   2  -8 1068.39   49.91
   3   2  -8 1205.14   29.62
   3   2  -7  777.17   38.94
   3   2  -7  783.43   23.06
   3   2  -6 1444.40   48.00
   3   2  -6 1430.82   29.75
   3   2  -5 3315.74   67.77
   3   2  -5 3281.37   31.92
   3   2  -4 2469.01   51.86
   3   2  -4 2511.26   26.76
   3   2  -3 2537.97   48.11
   3   2  -3 2595.64   26.13
   3   2  -2   42.64    5.71
   3   2  -2   34.27    2.99
   3   2  -1   32.21    4.70
   3   2  -1   26.63    2.62
   3   2   0   20.79    3.41
   3   2   0   27.61    2.67
   3   2   0   25.10    2.77
   3   2   1 3410.88   31.47
   3   2   1 3365.94   61.11
   3   2   1 3469.34   32.29
   3   2   1 3399.70   37.04
   3   2   1 3485.14   31.02
   3   2   2 7702.22   44.02
   3   2   3 5622.51   43.59
   3   2   3 5698.54   46.16
   3   2   4 2230.65   20.90
   3   2   4 2109.83   22.27
   3   2   4 2262.51   28.69
   3   2   4 2217.65   20.58
   3   2   4 2066.03   34.58
   3   2   5 1491.48   17.38
   3   2   5 1433.67   15.72
   3   2   5 1421.97   16.17
   3   2   5 1475.28   16.06
   3   2   6  524.06    8.93
   3   2   6  499.65    9.30
   3   2   6  514.95   10.65
   3   2   6  475.42   21.90
   3   2   7   55.88    2.83
   3   2   7   49.27    6.05
   3   2   7   61.48    8.93
   3   2   7   60.00    4.04
   3   2   7   56.38    2.75
   3   2   8   62.01    9.56
   3   2   8   54.05    4.25
   3   2   9  462.40   14.06
   3   2   9  452.25   27.45
   3   2   9  429.24   12.84
   3   2  10  578.14   16.06
   3   2  10  608.10   34.11
   3   2  10  603.67   16.33
   3   2  11  605.33   36.80
   3   2  12  743.22   25.18
   3   2  12  711.30   42.85
   3   3 -10  476.19   42.77
   3   3 -10  499.63   21.74
   3   3  -9  746.44   49.67
   3   3  -9  863.29   27.58
   3   3  -8  621.63   42.88
   3   3  -8  671.04   23.46
   3   3  -7  175.11   21.43
   3   3  -7  230.78   13.26
   3   3  -6 1134.39   49.56
   3   3  -6 1113.54   22.35
   3   3  -6 1125.75   28.32
   3   3  -5   41.69    9.56
   3   3  -5   37.86    4.15
   3   3  -5   37.01    4.99
   3   3  -4  297.28   21.43
   3   3  -4  316.30   11.07
   3   3  -4  336.91   14.08
   3   3  -3 1325.01   42.25
   3   3  -3 1347.97   21.98
   3   3  -3 1345.16   27.34
   3   3  -2 5123.15   74.40
   3   3  -2 5038.28   41.19
   3   3  -2 4934.14   49.59
   3   3  -1 3951.72   59.74
   3   3  -1 3838.75   35.38
   3   3   0 3370.96   51.25
   3   3   0 3240.92   32.31
   3   3   1 1497.08   31.81
   3   3   1 1417.66   21.29
   3   3   2 1833.09   23.12
   3   3   2 1768.33   45.92
   3   3   2 1770.07   31.47
   3   3   2 1740.41   23.30
   3   3   2 1835.41   25.05
   3   3   2 1908.36   23.94
   3   3   3  741.68   13.92
   3   3   3  735.63   13.98
   3   3   3  705.12   18.28
   3   3   3  735.18   16.49
   3   3   4  200.92    6.66
   3   3   4  185.94    6.42
   3   3   4  177.54    8.53
   3   3   4  198.23    8.82
   3   3   4  187.42    8.56
   3   3   5  646.28   10.75
   3   3   5  638.70   15.06
   3   3   5  649.00   16.64
   3   3   5  648.98   10.65
   3   3   5  635.40   20.11
   3   3   6 1307.52   19.60
   3   3   6 1313.96   12.84
   3   3   6 1297.27   24.83
   3   3   6 1342.44   33.39
   3   3   6 1270.79   12.84
   3   3   7 1993.59   31.94
   3   3   7 2075.43   25.05
   3   3   8 1796.23   31.86
   3   3   8 1728.09   46.18
   3   3   8 1755.15   25.10
   3   3   9 1083.71   23.33
   3   3   9 1132.56   26.37
   3   3   9 1101.79   40.53
   3   3   9 1070.98   20.87
   3   3  10  355.61   13.55
   3   3  10  339.63   15.19
   3   3  10  304.88   23.28
   3   3  10  325.33   12.31
   3   3  11  115.64    9.43
   3   3  11  137.59   16.86
   3   3  12    8.93    7.29
   3   3  12   11.68    3.36
   3   3  13   69.14    8.22
   3   3  13  101.90   17.99
   3   4  -9   18.92    4.94
   3   4  -9   20.18   13.50
   3   4  -8   47.40   14.93
   3   4  -8   70.36    8.19
   3   4  -7  232.05   27.40
   3   4  -7  237.22   14.21
   3   4  -6  643.19   42.38
   3   4  -6  687.13   19.74
   3   4  -6  654.05   22.96
   3   4  -5 1523.00   60.53
   3   4  -5 1664.05   30.07
   3   4  -5 1559.72   34.13
   3   4  -4 1331.95   52.71
   3   4  -4 1386.67   26.34
   3   4  -4 1304.48   29.88
   3   4  -3 3371.19   78.04
   3   4  -3 3540.31   40.13
   3   4  -3 3365.67   45.92
   3   4  -2 1312.46   45.07
   3   4  -2 1316.47   27.53
   3   4  -1  207.61   16.78
   3   4  -1  213.89    9.43
   3   4  -1  215.03   10.67
   3   4   0   10.33    2.32
   3   4   0    9.35    3.91
   3   4   0   17.65    2.75
   3   4   1 1101.49   34.19
   3   4   1 1082.34   20.74
   3   4   1 1083.56   21.93
   3   4   2 1778.87   41.03
   3   4   2 1763.95   25.92
   3   4   2 1764.31   26.55
   3   4   3 1696.94   46.08
   3   4   3 1664.61   37.25
   3   4   3 1679.75   26.00
   3   4   3 1589.71   23.57
   3   4   4 2345.92   25.39
   3   4   4 2394.40   42.14
   3   4   4 2377.92   26.16
   3   4   4 2431.07   32.55
   3   4   4 2356.33   26.74
   3   4   5 3197.62   26.68
   3   4   5 3186.44   27.08
   3   4   5 3140.13   44.83
   3   4   5 3158.49   38.26
   3   4   5 3270.46   28.27
   3   4   5 3187.74   37.73
   3   4   6 1723.58   16.72
   3   4   6 1738.64   31.33
   3   4   6 1755.25   29.62
   3   4   6 1698.93   17.67
   3   4   6 1666.27   33.39
   3   4   6 1696.94   16.72
   3   4   7  338.97   13.55
   3   4   7  332.36   16.99
   3   4   8  270.96   12.26
   3   4   8  272.18   12.50
   3   4   8  261.87   16.88
   3   4   8  239.76    9.72
   3   4   9    4.99    2.09
   3   4   9    5.52    2.27
   3   4   9    6.16    1.96
   3   4   9   11.33    4.81
   3   4  10  793.55   21.72
   3   4  10  837.09   23.83
   3   4  10  786.17   35.22
   3   4  10  800.60   19.92
   3   4  11  619.39   19.71
   3   4  11  671.83   22.40
   3   4  11  611.35   33.98
   3   4  11  599.36   18.26
   3   4  12  337.30   16.72
   3   4  12  358.38   28.01
   3   4  13  151.91   11.84
   3   4  13  131.89   18.47
   3   5  -8  628.00   51.70
   3   5  -8  699.97   26.95
   3   5  -7  421.55   40.32
   3   5  -7  481.37   21.48
   3   5  -6 1052.57   59.10
   3   5  -6 1062.45   31.04
   3   5  -5  575.05   42.06
   3   5  -5  593.23   19.81
   3   5  -5  571.75   21.90
   3   5  -4   35.56   11.33
   3   5  -4   41.98    5.20
   3   5  -4   36.67    5.50
   3   5  -3  298.65   13.05
   3   5  -3  309.96   14.82
   3   5  -2  305.23   25.63
   3   5  -2  345.54   13.66
   3   5  -2  324.57   14.74
   3   5  -1  831.93   39.37
   3   5  -1  763.40   19.68
   3   5  -1  825.57   22.48
   3   5   0 3511.22   76.38
   3   5   0 3407.47   41.03
   3   5   0 3561.10   44.57
   3   5   1 3392.22   71.84
   3   5   1 3465.25   40.79
   3   5   1 3384.67   41.88
   3   5   2 1787.49   49.01
   3   5   2 1833.22   29.27
   3   5   2 1821.20   29.17
   3   5   3 1076.42   36.51
   3   5   3 1071.35   22.03
   3   5   3 1111.38   21.56
   3   5   4  433.65   23.86
   3   5   4  393.89   21.22
   3   5   4  430.30   14.35
   3   5   4  455.74   12.92
   3   5   5    6.90    1.59
   3   5   5    6.08    1.53
   3   5   5   11.49    4.46
   3   5   5    7.05    1.69
   3   5   5    5.23    2.03
   3   5   5    4.12    1.45
   3   5   6  440.34   10.25
   3   5   6  456.24   10.46
   3   5   6  435.79   20.16
   3   5   6  455.42   15.61
   3   5   6  471.73   15.53
   3   5   6  463.22   10.62
   3   5   7  966.49   23.36
   3   5   7  938.48   26.10
   3   5   7  944.32   11.81
   3   5   8  850.93   22.62
   3   5   8  817.72   22.35
   3   5   9  955.34   24.46
   3   5   9  896.61   24.04
   3   5   9  932.65   32.95
   3   5   9  969.47   21.93
   3   5  10  792.36   22.99
   3   5  10  796.80   23.72
   3   5  10  771.04   33.21
   3   5  11  559.41   19.87
   3   5  11  556.72   20.63
   3   5  11  596.61   31.97
   3   5  11  562.50   18.34
   3   5  12  270.51   14.16
   3   5  12  277.83   15.27
   3   5  13   23.30    9.14
   3   5  13   50.17    6.92
   3   6  -7    2.22    3.01
   3   6  -7    3.94    9.88
   3   6  -6   88.53   20.21
   3   6  -6   83.04    8.64
   3   6  -6   75.75    8.98
   3   6  -5  600.10   21.74
   3   6  -5  569.90   23.22
   3   6  -4 1045.83   58.86
   3   6  -4 1138.22   29.54
   3   6  -4 1024.16   29.75
   3   6  -3 2318.52   39.79
   3   6  -3 2244.42   42.56
   3   6  -2 1790.58   68.93
   3   6  -2 1833.72   34.32
   3   6  -2 1796.97   36.64
   3   6  -1  226.21   23.62
   3   6  -1  239.36   12.23
   3   6  -1  257.49   13.37
   3   6   0   11.02    6.79
   3   6   0   15.75    3.30
   3   6   0   22.56    4.04
   3   6   1  466.97   31.07
   3   6   1  462.74   16.22
   3   6   1  457.86   16.49
   3   6   2   12.76    2.77
   3   6   2   10.38    5.89
   3   6   2   14.24    2.93
   3   6   3 1065.11   42.85
   3   6   3 1093.01   24.52
   3   6   3 1124.14   23.46
   3   6   4 1901.12   32.47
   3   6   4 1794.54   28.19
   3   6   5 2086.29   33.95
   3   6   5 2116.39   28.56
   3   6   6 1685.06   30.96
   3   6   6 1650.47   24.49
   3   6   6 1648.60   22.80
   3   6   7 1049.71   15.88
   3   6   7 1006.78   25.18
   3   6   7 1018.25   24.65
   3   6   7 1054.76   24.78
   3   6   8  359.15   15.59
   3   6   8  361.42   15.30
   3   6   8  403.01   18.04
   3   6   9   99.36    8.59
   3   6   9  104.49    8.53
   3   6   9  106.45   10.75
   3   6   9  120.92    8.69
   3   6  10   59.23    6.66
   3   6  10   56.25    6.53
   3   6  10   59.71    9.17
   3   6  10   56.59    5.94
   3   6  11   64.44    7.19
   3   6  11   68.88    7.58
   3   6  11   59.10    6.37
   3   6  12   67.24    7.50
   3   6  12   62.30    7.45
   3   6  12   70.91    7.19
   3   6  13  225.57   13.98
   3   6  13  200.13   13.74
   3   7  -6  396.14   19.87
   3   7  -6  329.30   19.47
   3   7  -5  411.04   42.64
   3   7  -5  497.04   21.35
   3   7  -5  432.92   21.56
   3   7  -4  395.50   40.69
   3   7  -4  408.64   19.02
   3   7  -4  376.24   19.42
   3   7  -3   33.71   13.26
   3   7  -3   52.39    6.79
   3   7  -3   57.36    7.61
   3   7  -2    3.83    2.54
   3   7  -2    6.13    8.27
   3   7  -2    4.76    2.09
   3   7  -2   13.90    3.73
   3   7  -1  360.23   13.37
   3   7  -1  337.14   32.23
   3   7  -1  376.48   16.72
   3   7  -1  356.03   16.78
   3   7   0 1089.13   54.95
   3   7   0 1192.01   29.04
   3   7   0 1125.77   28.64
   3   7   1  966.20   50.49
   3   7   1  998.03   25.92
   3   7   1  981.92   25.89
   3   7   2 1618.93   32.97
   3   7   2 1622.02   31.92
   3   7   3 1338.45   29.43
   3   7   3 1335.34   27.71
   3   7   4 1341.89   53.47
   3   7   4 1330.85   29.27
   3   7   4 1374.83   26.92
   3   7   5  215.19   11.89
   3   7   5  241.27   12.42
   3   7   5  238.62   10.57
   3   7   6   12.36    5.15
   3   7   6   10.07    2.80
   3   7   6   12.29    3.01
   3   7   6   17.36    2.77
   3   7   7    9.59    5.71
   3   7   7   13.08    2.27
   3   7   7   10.41    3.04
   3   7   7    6.29    2.11
   3   7   8  268.80   14.08
   3   7   8  244.70   12.76
   3   7   9  956.66   27.32
   3   7   9  965.43   26.10
   3   7  10  822.50   25.89
   3   7  10  793.39   24.62
   3   7  11  214.98   13.71
   3   7  11  208.72   13.10
   3   7  11  207.45   12.42
   3   7  12  252.65   15.27
   3   7  12  272.49   15.35
   3   7  12  244.70   14.00
   3   8  -4  392.97   20.34
   3   8  -4  387.90   20.85
   3   8  -3  371.89   19.47
   3   8  -3  398.25   20.45
   3   8  -2  570.64   48.06
   3   8  -2  624.33   23.80
   3   8  -2  564.72   23.28
   3   8  -1 1126.83   24.44
   3   8  -1 1192.43   65.92
   3   8  -1 1160.09   31.70
   3   8  -1 1144.74   31.89
   3   8   0  471.25   16.33
   3   8   0  461.16   39.87
   3   8   0  430.91   19.08
   3   8   0  455.16   19.66
   3   8   1  580.05   18.60
   3   8   1  634.26   45.10
   3   8   1  616.72   22.19
   3   8   1  610.40   21.95
   3   8   2  279.52   13.37
   3   8   2  281.93   29.78
   3   8   2  274.26   14.64
   3   8   2  259.76   13.69
   3   8   3  186.18   11.15
   3   8   3  174.71   22.88
   3   8   3  204.38   12.44
   3   8   3  164.57   10.54
   3   8   4  369.30   16.04
   3   8   4  366.05   16.54
   3   8   4  377.25   15.35
   3   8   5  987.49   26.58
   3   8   5 1024.40   27.50
   3   8   5 1045.14   24.12
   3   8   6  743.06   19.34
   3   8   6  715.66   23.06
   3   8   6  726.49   23.20
   3   8   7  611.57   16.20
   3   8   7  668.92   22.91
   3   8   7  640.92   22.03
   3   8   8  647.39   22.83
   3   8   8  618.80   22.03
   3   8   9  465.44   20.00
   3   8   9  433.50   18.86
   3   8  10  162.72   12.21
   3   8  10  139.63   10.94
   3   8  11    3.54    3.33
   3   8  11    0.00    2.22
   3   8  11   -1.64    1.98
   3   8  12   30.83    6.21
   3   8  12   27.71    5.65
   3   8  12   34.06    6.05
   3   9  -2   10.44    4.65
   3   9  -2   11.62    4.46
   3   9  -1   -0.45    2.25
   3   9  -1    1.29    2.40
   3   9   0   20.95    4.83
   3   9   0   17.07    3.73
   3   9   0   24.25    5.26
   3   9   1  137.17    9.62
   3   9   1  121.77   10.94
   3   9   1  113.29   10.20
   3   9   2 1527.94   32.63
   3   9   2 1633.33   38.47
   3   9   2 1570.45   36.30
   3   9   3 1009.77   27.11
   3   9   3  957.74   28.93
   3   9   3 1004.06   27.95
   3   9   4  521.32   20.00
   3   9   4  503.27   21.00
   3   9   4  561.32   20.24
   3   9   5  574.55   19.71
   3   9   5  574.34   21.37
   3   9   5  590.01   22.64
   3   9   6  120.37    8.69
   3   9   6  108.03    9.72
   3   9   6  113.74    9.83
   3   9   7   60.18    7.42
   3   9   7   93.61    9.19
   3   9   8   20.77    4.83
   3   9   8   26.97    5.20
   3   9   9  196.01   13.63
   3   9   9  185.18   12.97
   3   9  10  225.84   15.14
   3   9  10  252.78   15.48
   3   9  11  182.69   14.11
   3   9  11  186.76   13.50
   3   9  11  221.74   15.16
   3  10   0  435.77   22.17
   3  10   0  421.45   21.58
   3  10   1  429.98   17.78
   3  10   1  414.00   20.79
   3  10   2  444.14   20.92
   3  10   2  454.58   18.68
   3  10   2  437.93   21.56
   3  10   3    3.75    2.83
   3  10   3    0.00    1.69
   3  10   3    4.65    2.96
   3  10   4    0.13    2.01
   3  10   4   -0.26    1.74
   3  10   4    0.37    2.06
   3  10   5  174.00   11.84
   3  10   5  149.40   11.49
   3  10   5  164.30   12.79
   3  10   6  238.44   13.05
   3  10   6  251.01   15.27
   3  10   6  218.94   14.82
   3  10   7  248.03   15.53
   3  10   7  262.35   16.35
   3  10   8  553.31   23.49
   3  10   8  517.67   22.54
   3  10   9  368.11   19.68
   3  10   9  338.12   18.57
   3  10  10  263.27   17.09
   3  10  10  305.20   17.83
   3  11   3  394.95   20.34
   3  11   3  385.15   18.65
   3  11   3  355.35   20.53
   3  11   4  248.35   15.53
   3  11   4  260.61   15.85
   3  11   5  360.60   18.12
   3  11   5  375.90   19.13
   3  11   5  356.80   20.24
   3  11   6  242.30   15.72
   3  11   6  229.77   16.09
   3  11   7  268.50   16.83
   3  11   7  265.62   17.60
   4 -10  -8  388.42   19.05
   4 -10  -7  252.60   15.90
   4 -10  -6   56.46    7.87
   4 -10  -5   51.18    8.16
   4 -10  -4  344.41   19.87
   4 -10  -3  199.39   15.98
   4 -10  -2  448.87   24.70
   4 -10  -1  592.41   29.48
   4  -9  -9    3.25    2.22
   4  -9  -8   40.05    6.08
   4  -9  -7  551.46   21.90
   4  -9  -6  683.80   24.91
   4  -9  -5 1276.79   35.19
   4  -9  -4  787.76   28.01
   4  -9  -3  265.68   17.17
   4  -9  -2  105.05   11.23
   4  -9  -1    6.13    4.12
   4  -9   0   25.02    6.63
   4  -9   1  183.54   16.57
   4  -8  -9  640.39   21.40
   4  -8  -8 1058.06   27.64
   4  -8  -7  667.10   22.38
   4  -8  -6  516.72   20.40
   4  -8  -5  400.68   18.39
   4  -8  -4  233.82   14.40
   4  -8  -3  156.93   12.15
   4  -8  -2  432.86   21.22
   4  -8  -1  964.83   32.39
   4  -8   0  684.54   28.80
   4  -8   1  855.61   32.65
   4  -8   2  354.82   21.66
   4  -8   3  169.25   15.38
   4  -7  -9  110.04    8.56
   4  -7  -8  121.06    8.85
   4  -7  -7  312.78   14.37
   4  -7  -6  933.44   25.18
   4  -7  -5 1209.66   29.72
   4  -7  -4  691.41   23.17
   4  -7  -3  667.81   23.06
   4  -7  -2 2764.57   49.11
   4  -7  -1  446.60   20.63
   4  -7   0   68.03    8.32
   4  -7   1   22.64    5.28
   4  -7   2  433.84   22.59
   4  -7   3  310.70   19.44
   4  -7   3  270.99   22.77
   4  -7   4  443.59   24.23
   4  -7   4  417.93   29.88
   4  -7   5  557.35   27.34
   4  -7   5  520.15   35.14
   4  -6  -9  495.87   17.73
   4  -6  -8 1546.62   30.46
   4  -6  -7 2012.45   34.40
   4  -6  -6 1355.60   28.53
   4  -6  -5 1599.09   31.78
   4  -6  -4   14.16    3.43
   4  -6  -3   15.56    3.28
   4  -6  -2   12.84    3.22
   4  -6  -1  372.89   17.23
   4  -6   0 1458.56   35.67
   4  -6   1 3012.86   52.52
   4  -6   2  961.23   30.94
   4  -6   3  439.49   21.45
   4  -6   3  412.33   26.66
   4  -6   4  365.44   20.40
   4  -6   4  352.07   26.71
   4  -6   5    7.53    6.13
   4  -6   5    6.68    3.75
   4  -6   6   34.53   10.25
   4  -6   6   30.99    6.84
   4  -5 -10  936.40   26.42
   4  -5  -9  746.73   22.03
   4  -5  -8  520.79   17.49
   4  -5  -7   40.32    4.76
   4  -5  -6   65.68    6.08
   4  -5  -5  513.31   16.78
   4  -5  -4 1547.04   29.64
   4  -5  -3 1796.28   33.00
   4  -5  -2 4876.78   55.46
   4  -5  -1 1403.87   30.12
   4  -5   0  296.09   14.58
   4  -5   1  560.50   20.95
   4  -5   2    8.40    4.68
   4  -5   2   12.44    3.88
   4  -5   3  215.51   14.06
   4  -5   3  213.05   18.71
   4  -5   4  567.97   23.41
   4  -5   4  501.34   30.51
   4  -5   5  680.60   26.31
   4  -5   5  672.75   36.93
   4  -5   6  762.66   28.80
   4  -5   6  773.44   42.03
   4  -5   7  604.41   26.39
   4  -5   7  536.01   36.80
   4  -4 -10    2.75    2.72
   4  -4  -9  120.74    9.43
   4  -4  -8 1074.73   25.44
   4  -4  -7 2433.34   36.43
   4  -4  -6 1329.44   26.29
   4  -4  -5 1468.81   27.00
   4  -4  -5 1504.11   17.99
   4  -4  -4 1885.98   30.51
   4  -4  -4 1811.79   23.33
   4  -4  -3 1596.97   28.45
   4  -4  -2  381.03   20.66
   4  -4  -2  384.57   14.53
   4  -4  -1  580.95   18.20
   4  -4   0 1212.78   26.82
   4  -4   1 2365.10   38.71
   4  -4   2 1742.60   34.72
   4  -4   2 1949.91   48.93
   4  -4   3 1094.47   28.64
   4  -4   3 1184.69   41.29
   4  -4   4 1110.40   29.85
   4  -4   4 1092.72   42.35
   4  -4   5  513.87   21.08
   4  -4   5  521.40   31.20
   4  -4   6  112.15   10.17
   4  -4   6  107.77   15.46
   4  -4   7   21.27    7.98
   4  -4   7   21.40    5.10
   4  -4   8   40.11   10.88
   4  -4   8   48.06    6.95
   4  -3 -10  855.47   30.07
   4  -3  -9 1578.53   36.38
   4  -3  -8 1272.75   29.72
   4  -3  -7  951.75   23.59
   4  -3  -6  185.76    9.91
   4  -3  -5  160.42    8.72
   4  -3  -5  146.74    3.73
   4  -3  -4  840.76   19.74
   4  -3  -4  879.70   13.47
   4  -3  -3  708.63   17.86
   4  -3  -3  686.47   14.00
   4  -3  -2 3030.27   37.25
   4  -3  -2 2233.43   50.41
   4  -3  -1 5626.92   52.23
   4  -3   0 3365.46   41.14
   4  -3   1 1412.19   27.37
   4  -3   2  414.76   15.19
   4  -3   2  455.98   22.27
   4  -3   3    3.36    3.36
   4  -3   3    3.38    1.85
   4  -3   4  145.23    9.83
   4  -3   4  150.62   15.32
   4  -3   5  343.96   15.51
   4  -3   5  344.20   24.09
   4  -3   6  856.48   25.47
   4  -3   6  849.48   40.53
   4  -3   7  752.57   24.12
   4  -3   7  798.22   41.21
   4  -3   8  720.49   24.39
   4  -3   8  666.44   40.11
   4  -3   9  298.36   28.98
   4  -2 -10  353.63   21.98
   4  -2  -9    9.56    3.96
   4  -2  -8  273.84   15.24
   4  -2  -7  678.91   21.43
   4  -2  -6 1500.70   29.67
   4  -2  -5 2764.33   37.44
   4  -2  -4 4828.67   46.58
   4  -2  -3 3275.71   37.73
   4  -2  -3 3098.44   25.68
   4  -2  -2  642.95   16.41
   4  -2  -2  611.94   13.10
   4  -2  -1   59.23    4.97
   4  -2   0   33.02    3.78
   4  -2   1  737.30   18.07
   4  -2   2 2101.22   31.57
   4  -2   2 2104.87   43.83
   4  -2   3 2349.41   34.19
   4  -2   3 2535.72   53.42
   4  -2   4 1328.34   26.23
   4  -2   4 1343.87   42.06
   4  -2   5 1980.19   32.68
   4  -2   5 2075.30   56.22
   4  -2   6  998.54   24.33
   4  -2   6  960.55   40.74
   4  -2   7  158.41    9.93
   4  -2   7  148.74   17.57
   4  -2   8    8.03    6.31
   4  -2   8    7.95    2.85
   4  -2   9  166.37   20.98
   4  -2  10  124.91   19.63
   4  -1 -10  370.35   25.15
   4  -1 -10  377.64   16.67
   4  -1  -9 1221.04   40.77
   4  -1  -8 1592.16   41.85
   4  -1  -7 1839.19   39.79
   4  -1  -6 1274.41   30.04
   4  -1  -5  338.91   14.29
   4  -1  -5  316.09    7.24
   4  -1  -4   -0.34    0.82
   4  -1  -4    0.45    0.26
   4  -1  -4    1.00    0.40
   4  -1  -3  581.79   16.33
   4  -1  -3  602.61   15.06
   4  -1  -3  600.05    9.19
   4  -1  -2 2034.88   28.82
   4  -1  -2 2010.05   32.71
   4  -1  -1 3589.55   67.85
   4  -1  -1 3597.51   50.33
   4  -1  -1 3674.65   29.35
   4  -1   0 5702.11   46.82
   4  -1   1 2089.38   27.93
   4  -1   2 1917.10   27.19
   4  -1   2 1924.31   38.18
   4  -1   3  692.33   16.75
   4  -1   3  660.97   25.23
   4  -1   4  192.36    9.06
   4  -1   4  169.01   13.95
   4  -1   5   64.23    5.39
   4  -1   5   63.46    9.30
   4  -1   6 1094.04   22.67
   4  -1   6  994.73   39.52
   4  -1   7  994.60   22.19
   4  -1   7  945.93   40.42
   4  -1   8  848.39   20.92
   4  -1   8  716.16   36.91
   4  -1   9  511.73   33.63
   4  -1  10  240.34   24.73
   4  -1  11  245.65   26.08
   4   0 -10  607.07   36.17
   4   0 -10  560.65   21.16
   4   0  -9  363.33   25.57
   4   0  -9  371.01   16.80
   4   0  -8   10.86    4.86
   4   0  -7   98.89   10.83
   4   0  -6  415.82   19.63
   4   0  -5 1714.88   36.46
   4   0  -4 4101.09   50.86
   4   0  -4 4172.64   22.46
   4   0  -3 4187.01   47.69
   4   0  -3 4354.65   36.17
   4   0  -2 2530.52   34.29
   4   0  -2 2590.78   31.28
   4   0  -2 2625.94   22.80
   4   0  -1 1689.12   44.76
   4   0  -1 1667.54   26.21
   4   0  -1 1635.70   28.51
   4   0  -1 1674.30   19.84
   4   0  -1 1589.10   20.29
   4   0   0  173.92   15.67
   4   0   0  196.56    8.56
   4   0   0  177.65   10.91
   4   0   0  190.35    6.05
   4   0   1   80.58    5.39
   4   0   1   83.62    3.12
   4   0   2   63.17    4.68
   4   0   3 2344.07   28.30
   4   0   3 2414.90   43.62
   4   0   4 1440.54   22.19
   4   0   4 1454.65   37.57
   4   0   5 2753.60   31.33
   4   0   5 2580.79   55.32
   4   0   6 2694.50   31.12
   4   0   6 2354.98   56.80
   4   0   7  518.01   13.90
   4   0   7  496.43   27.34
   4   0   8  389.72   12.18
   4   0   8  333.95   24.41
   4   0   9   29.64    8.48
   4   0  10    4.97    6.29
   4   0  11   14.64    7.87
   4   1 -10  128.40   19.42
   4   1 -10  105.02    9.67
   4   1  -9  461.29   32.23
   4   1  -9  473.73   19.68
   4   1  -8 1170.50   46.79
   4   1  -8 1172.01   29.91
   4   1  -7 2093.64   55.67
   4   1  -6 1827.38   47.98
   4   1  -5  824.46   29.30
   4   1  -5  859.04   12.95
   4   1  -4  174.24   12.02
   4   1  -4  199.18    6.31
   4   1  -3  314.84   14.85
   4   1  -3  328.58    8.38
   4   1  -2   32.95    4.49
   4   1  -2   35.59    2.88
   4   1  -1 1873.03   30.81
   4   1  -1 1872.35   22.06
   4   1   0 4927.85   37.70
   4   1   0 4879.71   35.48
   4   1   1 2187.16   29.11
   4   1   1 2147.96   26.31
   4   1   1 2227.93   20.79
   4   1   2 2995.00   32.47
   4   1   2 3159.73   20.16
   4   1   3 3266.99   32.65
   4   1   3 3237.11   42.99
   4   1   4  748.95   15.19
   4   1   4  750.19   24.39
   4   1   5  847.89   16.01
   4   1   5  819.15   28.67
   4   1   6  287.21    9.19
   4   1   6  273.58   17.67
   4   1   6  249.14    4.97
   4   1   7  409.67   10.78
   4   1   7  382.61   23.14
   4   1   7  378.91    7.77
   4   1   8  246.18    8.30
   4   1   8  191.97   17.91
   4   1   9  807.05   39.29
   4   1  10  491.22   32.65
   4   1  11  583.93   38.63
   4   1  12  119.23   18.60
   4   2 -10  399.23   36.38
   4   2 -10  398.83   19.52
   4   2  -9  639.31   42.43
   4   2  -9  667.23   24.44
   4   2  -8  919.44   46.34
   4   2  -8  902.03   27.48
   4   2  -7   30.46    8.53
   4   2  -7   29.38    4.76
   4   2  -6   63.70   10.78
   4   2  -6   78.18    7.61
   4   2  -6   78.60    4.94
   4   2  -5  599.17   28.48
   4   2  -5  637.14   13.92
   4   2  -4 1924.47   47.79
   4   2  -4 1968.72   24.07
   4   2  -3 1765.48   41.72
   4   2  -3 1743.18   22.46
   4   2  -2 1656.39   36.59
   4   2  -2 2282.86   25.63
   4   2  -1 3085.78   45.23
   4   2  -1 2999.44   29.70
   4   2   0 2951.52   41.40
   4   2   0 2863.06   30.41
   4   2   1  161.32   15.53
   4   2   1  168.40    9.09
   4   2   1  174.53    7.87
   4   2   1  183.78    7.21
   4   2   2  296.38   11.33
   4   2   2  307.13   10.75
   4   2   2  315.11    8.67
   4   2   3  152.26    7.66
   4   2   3  143.80    7.74
   4   2   3  155.03    5.52
   4   2   4 1089.45   19.29
   4   2   4 1113.09   22.64
   4   2   4 1111.77   25.60
   4   2   5 2956.22   30.41
   4   2   5 2797.59   27.53
   4   2   5 3005.07   38.81
   4   2   5 2944.86   20.95
   4   2   5 2684.57   46.58
   4   2   5 2695.56   27.64
   4   2   6 2888.58   27.27
   4   2   6 3009.48   29.22
   4   2   6 2932.04   22.06
   4   2   7  248.74    8.03
   4   2   7  238.91    6.97
   4   2   7  256.64   17.91
   4   2   8  700.42   32.10
   4   2   8  716.14   13.34
   4   2   9  461.13   28.37
   4   2  10   74.87    6.31
   4   2  10   81.72   13.10
   4   2  11    9.64    5.47
   4   2  11   18.39    4.49
   4   2  12   78.26   14.48
   4   2  12  118.39   11.02
   4   3  -9  141.90   22.69
   4   3  -9  131.23   11.33
   4   3  -8  411.38   35.06
   4   3  -8  438.83   20.18
   4   3  -7  711.70   42.56
   4   3  -7  771.56   26.00
   4   3  -6  930.35   19.84
   4   3  -6  882.90   26.53
   4   3  -5 2433.82   67.19
   4   3  -5 2386.40   42.48
   4   3  -4 1166.43   42.91
   4   3  -4 1195.87   21.51
   4   3  -4 1191.35   28.64
   4   3  -3  726.25   31.23
   4   3  -3  717.14   16.35
   4   3  -2  192.60   14.82
   4   3  -2  208.88    8.77
   4   3  -1  310.51   17.41
   4   3  -1  311.54   10.62
   4   3   0  901.76   27.27
   4   3   0  847.26   17.44
   4   3   1 1316.79   41.61
   4   3   1 1261.52   30.38
   4   3   1 1248.20   21.95
   4   3   2 2427.88   61.19
   4   3   2 2528.75   39.60
   4   3   2 2494.88   32.31
   4   3   3 4282.84   48.43
   4   3   3 4321.44   43.83
   4   3   3 4310.84   36.22
   4   3   4 1222.44   23.96
   4   3   4 1257.03   19.08
   4   3   4 1295.44   21.08
   4   3   5 1685.56   21.82
   4   3   5 1825.61   28.19
   4   3   5 1775.31   30.22
   4   3   5 1671.69   21.37
   4   3   5 1811.32   32.89
   4   3   6  455.58   13.16
   4   3   6  471.01   10.59
   4   3   6  458.41   15.90
   4   3   6  447.50   10.54
   4   3   7   85.36    5.36
   4   3   7   81.95    7.21
   4   3   7   69.35    4.31
   4   3   7   80.69    9.41
   4   3   8  215.43   12.05
   4   3   8  206.31    7.79
   4   3   9  350.54   15.93
   4   3   9  297.01   21.80
   4   3  10  148.56    9.48
   4   3  10  129.75   10.30
   4   3  10  124.09   15.46
   4   3  11  470.35   20.34
   4   3  11  437.62   30.73
   4   3  12  547.10   22.88
   4   3  12  557.51   37.01
   4   4  -8 1280.25   68.48
   4   4  -8 1220.70   35.03
   4   4  -7  119.31   20.32
   4   4  -7  109.35   10.28
   4   4  -6   42.35   12.44
   4   4  -6   35.16    4.60
   4   4  -6   25.86    5.18
   4   4  -5   34.95   10.07
   4   4  -5   37.75    4.65
   4   4  -5   32.26    5.63
   4   4  -4   10.86    3.04
   4   4  -4    6.82    6.00
   4   4  -4   10.81    2.67
   4   4  -3  416.72   27.42
   4   4  -3  433.50   14.50
   4   4  -3  461.10   18.10
   4   4  -2 3427.73   74.03
   4   4  -2 3380.94   39.44
   4   4  -2 3337.91   47.42
   4   4  -1 3037.75   64.83
   4   4  -1 3003.48   36.72
   4   4  -1 3010.70   42.88
   4   4   0 1814.88   46.00
   4   4   0 1816.73   28.27
   4   4   1 1619.38   41.14
   4   4   1 1590.00   26.37
   4   4   2 1086.22   38.34
   4   4   2 1084.56   31.73
   4   4   2 1032.80   21.51
   4   4   3   58.28    9.80
   4   4   3   55.24    7.00
   4   4   3   42.64    4.60
   4   4   4  361.37   16.57
   4   4   4  412.73   14.53
   4   4   5  630.35   18.60
   4   4   5  638.51   14.64
   4   4   6  823.56   14.66
   4   4   6  885.25   23.22
   4   4   6  905.20   22.91
   4   4   6  849.53   14.82
   4   4   6  853.52   22.54
   4   4   7  474.26   16.33
   4   4   7  473.10   17.07
   4   4   7  464.83   10.17
   4   4   7  456.19   20.00
   4   4   8 1501.23   31.73
   4   4   8 1411.48   22.43
   4   4   8 1451.35   40.48
   4   4   9 1514.41   33.00
   4   4   9 1561.31   24.76
   4   4   9 1474.62   45.18
   4   4  10  183.51   11.23
   4   4  10  199.92   12.68
   4   4  10  181.69   17.62
   4   4  11   13.69    7.27
   4   4  11    9.17    3.59
   4   4  11   13.82    4.07
   4   4  12    6.63    7.56
   4   4  12   10.65    3.86
   4   5  -7  389.75   39.15
   4   5  -7  413.39   20.87
   4   5  -6  300.13   32.65
   4   5  -6  352.84   18.76
   4   5  -5 1572.03   32.23
   4   5  -5 1486.01   37.07
   4   5  -4  986.89   51.18
   4   5  -4 1095.44   25.97
   4   5  -4  991.27   29.17
   4   5  -3  473.81   33.53
   4   5  -3  490.43   16.94
   4   5  -3  496.35   19.89
   4   5  -2 1199.41   49.91
   4   5  -2 1227.07   26.05
   4   5  -2 1304.98   30.96
   4   5  -1  221.24   20.45
   4   5  -1  234.45   11.25
   4   5  -1  249.38   13.10
   4   5   0   11.23    4.97
   4   5   0   20.05    3.80
   4   5   0   15.61    2.99
   4   5   1  439.84   25.63
   4   5   1  407.82   14.58
   4   5   1  428.74   15.90
   4   5   2  907.44   35.19
   4   5   2  875.50   21.53
   4   5   2  964.11   23.17
   4   5   3 2348.35   53.71
   4   5   3 2291.81   33.87
   4   5   4 2264.84   62.14
   4   5   4 2424.07   52.39
   4   5   4 2368.51   35.72
   4   5   4 2361.06   32.71
   4   5   5 1228.39   35.48
   4   5   5 1220.97   26.55
   4   5   5 1168.94   21.53
   4   5   6  569.21   18.73
   4   5   6  561.37   13.74
   4   5   7  191.25   13.10
   4   5   7  176.93   10.78
   4   5   7  168.40    6.66
   4   5   7  164.60   10.28
   4   5   8   58.18    6.53
   4   5   8   60.53    7.77
   4   5   9    1.24    2.96
   4   5   9    3.57    2.22
   4   5   9   -0.18    1.43
   4   5   9    2.56    1.77
   4   5  10   92.18    8.38
   4   5  10   83.94    8.45
   4   5  11  412.89   17.94
   4   5  11  473.63   20.55
   4   5  12  501.08   20.18
   4   5  12  545.49   22.85
   4   6  -6  210.88   30.46
   4   6  -6  206.58   14.98
   4   6  -5  428.42   18.49
   4   6  -5  405.57   20.48
   4   6  -4    7.82    3.01
   4   6  -4    8.59    7.42
   4   6  -4    4.83    2.48
   4   6  -3   67.98    7.05
   4   6  -3   65.57    8.01
   4   6  -2  911.67   49.70
   4   6  -2  917.88   24.91
   4   6  -2  869.58   26.82
   4   6  -1 1275.68   55.59
   4   6  -1 1281.44   28.69
   4   6  -1 1270.42   31.28
   4   6   0  929.98   45.31
   4   6   0  997.16   25.10
   4   6   0  946.73   26.02
   4   6   1 1880.17   61.16
   4   6   1 1851.16   33.55
   4   6   1 1805.74   34.77
   4   6   2 1089.16   44.76
   4   6   2 1054.49   25.47
   4   6   2 1038.27   25.34
   4   6   3  405.60   15.88
   4   6   3  431.83   15.85
   4   6   4  196.64   17.04
   4   6   4  130.73   14.66
   4   6   4  145.04    9.41
   4   6   4  177.54    9.62
   4   6   5    3.83    1.66
   4   6   5    5.55    4.78
   4   6   5    6.60    4.76
   4   6   5    2.22    1.56
   4   6   6  324.14   21.35
   4   6   6  371.07   15.48
   4   6   6  354.29   11.84
   4   6   7  720.81   30.07
   4   6   7  781.89   23.20
   4   6   8  521.87   19.58
   4   6   9  577.04   21.19
   4   6   9  618.22   22.06
   4   6  10  638.25   22.75
   4   6  10  694.58   24.33
   4   6  10  676.32   19.66
   4   6  11  247.61   14.66
   4   6  11  227.05   14.56
   4   6  12   90.14    9.17
   4   6  12  105.05   10.38
   4   7  -5  162.51   28.93
   4   7  -5  186.71   13.42
   4   7  -5  171.04   14.29
   4   7  -4  951.83   62.11
   4   7  -4  996.40   30.30
   4   7  -4  924.06   31.41
   4   7  -3  838.14   55.85
   4   7  -3  906.28   27.50
   4   7  -3  876.61   29.46
   4   7  -2  879.89   54.95
   4   7  -2  972.59   27.58
   4   7  -2  854.44   28.16
   4   7  -1  369.40   33.92
   4   7  -1  394.00   17.52
   4   7  -1  364.12   17.73
   4   7   0  172.47   22.59
   4   7   0  191.70   11.97
   4   7   0  182.75   12.15
   4   7   1    1.56    1.85
   4   7   1    2.80    4.86
   4   7   1    1.88    1.80
   4   7   2  216.09   23.59
   4   7   2  222.51   12.63
   4   7   2  224.59   12.52
   4   7   3  543.06   35.27
   4   7   3  532.12   19.47
   4   7   3  539.99   18.73
   4   7   4  794.15   41.43
   4   7   4  775.87   23.28
   4   7   4  768.45   21.37
   4   7   5  752.41   38.92
   4   7   5  721.05   22.77
   4   7   5  740.36   19.87
   4   7   6  998.70   40.77
   4   7   6  986.59   42.77
   4   7   6  986.78   26.60
   4   7   6 1015.50   21.90
   4   7   7  832.65   40.21
   4   7   7  878.17   24.97
   4   7   8  247.45   14.29
   4   7   8  266.95   14.37
   4   7   9   18.55    4.28
   4   7   9   16.06    3.80
   4   7  10   23.20    4.81
   4   7  10   16.46    4.31
   4   7  10   23.67    4.36
   4   7  11  109.03   10.12
   4   7  11   81.61    8.82
   4   7  12  121.85   11.18
   4   7  12  114.24   10.75
   4   8  -3   40.40   17.81
   4   8  -3   53.74    7.40
   4   8  -3   43.72    7.42
   4   8  -2    9.19    3.43
   4   8  -2   18.34   11.36
   4   8  -2    6.58    3.01
   4   8  -1  384.01   15.30
   4   8  -1  385.89   39.00
   4   8  -1  402.61   19.02
   4   8  -1  424.94   20.45
   4   8   0  603.06   45.86
   4   8   0  609.98   23.09
   4   8   0  660.89   24.49
   4   8   1  639.65   46.23
   4   8   1  643.11   23.28
   4   8   1  609.35   22.77
   4   8   2  658.94   44.39
   4   8   2  683.00   23.59
   4   8   2  618.01   22.27
   4   8   3  826.86   25.97
   4   8   3  857.90   25.23
   4   8   4  528.98   20.71
   4   8   4  507.58   18.73
   4   8   5  171.49   21.64
   4   8   5  136.30   10.41
   4   8   5  161.74   10.17
   4   8   6    1.66    1.53
   4   8   6    7.34    3.04
   4   8   6    6.31    2.88
   4   8   7  142.22   11.07
   4   8   7  145.57   15.75
   4   8   7  122.80   10.36
   4   8   8  163.99   12.18
   4   8   8  152.50   18.12
   4   8   8  161.06   11.81
   4   8   9  308.90   17.01
   4   8   9  282.45   15.85
   4   8  10  735.08   26.90
   4   8  10  672.20   24.94
   4   8  11  309.03   17.83
   4   8  11  334.03   17.73
   4   8  11  316.09   16.09
   4   9  -2  462.93   48.06
   4   9  -2  486.55   23.12
   4   9  -1  348.42   40.24
   4   9  -1  397.41   20.42
   4   9  -1  411.78   21.35
   4   9   0  286.21   14.35
   4   9   0  245.39   33.50
   4   9   0  277.96   16.72
   4   9   0  311.38   18.07
   4   9   1  110.12    9.01
   4   9   1  127.58   11.23
   4   9   1  124.54   11.12
   4   9   2   38.10    5.76
   4   9   2   34.98   13.92
   4   9   2   34.95    5.97
   4   9   2   32.15    5.60
   4   9   3   26.08    4.97
   4   9   3   27.05    4.99
   4   9   3   41.03   13.79
   4   9   3   25.15    5.47
   4   9   4  211.07   13.21
   4   9   4  209.61   27.32
   4   9   4  216.35   14.11
   4   9   4  199.39   12.66
   4   9   5  419.26   19.18
   4   9   5  407.02   17.17
   4   9   6  676.22   24.52
   4   9   6  631.94   24.20
   4   9   6  626.31   20.32
   4   9   7  523.80   22.14
   4   9   7  512.97   21.82
   4   9   8  346.21   18.36
   4   9   8  339.84   18.10
   4   9   9  231.25   15.43
   4   9   9  265.39   16.27
   4   9  10   55.67    8.01
   4   9  10   44.60    7.21
   4  10   1  145.71   11.04
   4  10   1  167.16   13.84
   4  10   1  156.78   13.21
   4  10   2  197.09   13.00
   4  10   2  219.39   15.72
   4  10   2  220.71   15.30
   4  10   3  654.45   23.96
   4  10   3  692.97   27.34
   4  10   3  616.48   24.54
   4  10   4  611.57   23.70
   4  10   4  626.33   25.68
   4  10   4  613.23   23.54
   4  10   5  400.47   19.76
   4  10   5  413.13   21.08
   4  10   5  435.64   19.13
   4  10   6   27.21    5.36
   4  10   6   16.96    4.81
   4  10   7   11.41    4.28
   4  10   7    8.14    3.49
   4  10   8   -0.37    2.40
   4  10   8    2.38    2.43
   4  10   9   44.33    7.37
   4  10   9   47.45    7.66
   5  -9  -8  547.00   22.64
   5  -9  -7  241.95   15.38
   5  -9  -6   24.25    5.31
   5  -9  -5   95.90   10.17
   5  -9  -4  282.98   17.65
   5  -9  -3  415.69   21.90
   5  -9  -2  469.80   23.62
   5  -9  -1  549.43   25.84
   5  -9   0  381.21   22.43
   5  -8  -9   56.88    7.24
   5  -8  -8  216.56   13.61
   5  -8  -7  100.63    9.46
   5  -8  -6  503.03   21.14
   5  -8  -5 1517.77   37.60
   5  -8  -4 1223.90   34.48
   5  -8  -3  370.88   19.47
   5  -8  -2  149.51   12.81
   5  -8  -1    0.40    2.27
   5  -8   0   79.71    9.80
   5  -8   1  169.80   14.61
   5  -8   2  282.61   19.26
   5  -7  -9  686.62   23.51
   5  -7  -8 1269.34   31.78
   5  -7  -7  805.96   25.07
   5  -7  -6   65.52    7.34
   5  -7  -5   71.52    7.82
   5  -7  -4   29.33    5.15
   5  -7  -3  326.02   17.15
   5  -7  -2  973.97   30.12
   5  -7  -1 1052.54   31.78
   5  -7   0  580.47   24.04
   5  -7   1  834.73   29.80
   5  -7   2  396.93   21.16
   5  -7   3   36.93    7.00
   5  -7   4    1.37    3.22
   5  -6 -10  279.73   15.61
   5  -6  -9  180.76   12.02
   5  -6  -8   37.15    5.42
   5  -6  -7   70.94    7.37
   5  -6  -6  828.79   24.28
   5  -6  -5 1595.78   34.08
   5  -6  -4 2359.50   41.98
   5  -6  -3  500.87   19.76
   5  -6  -2  527.02   27.32
   5  -6  -2  550.99   21.24
   5  -6  -1  605.65   22.69
   5  -6   0   29.41    5.31
   5  -6   1   -1.53    2.09
   5  -6   2  219.15   14.66
   5  -6   3  646.99   26.23
   5  -6   4  754.87   28.96
   5  -6   4  837.22   41.03
   5  -6   5  344.09   20.16
   5  -6   5  379.47   29.43
   5  -5 -10  371.41   18.49
   5  -5  -9  601.82   22.09
   5  -5  -8  455.11   18.36
   5  -5  -7 1636.73   33.58
   5  -5  -6 1525.27   32.13
   5  -5  -5 1030.11   26.00
   5  -5  -4  176.22   10.83
   5  -5  -3  311.52   14.64
   5  -5  -2   96.72   12.34
   5  -5  -2  114.79    9.11
   5  -5  -1  904.14   25.84
   5  -5   0  897.67   26.26
   5  -5   1 1435.76   33.87
   5  -5   2 1345.09   33.42
   5  -5   3  338.97   17.23
   5  -5   4  284.96   16.43
   5  -5   4  279.07   22.62
   5  -5   5  100.77   10.09
   5  -5   5   75.90   13.26
   5  -5   6   30.04   10.15
   5  -5   6   28.01    5.81
   5  -5   7  264.49   17.30
   5  -5   7  301.37   28.80
   5  -4 -10  949.42   31.52
   5  -4  -9  696.14   24.73
   5  -4  -8  220.87   13.08
   5  -4  -7    2.27    1.74
   5  -4  -6  214.90   11.73
   5  -4  -5  251.99   12.55
   5  -4  -4 2580.37   39.44
   5  -4  -3 1716.68   32.36
   5  -4  -2 1014.94   38.47
   5  -4  -2 1132.80   26.60
   5  -4  -1 2368.35   39.18
   5  -4   0  668.34   21.29
   5  -4   1  361.32   15.98
   5  -4   2   71.70    7.37
   5  -4   3  429.06   18.23
   5  -4   3  423.09   24.81
   5  -4   4  420.74   18.31
   5  -4   4  432.84   26.84
   5  -4   5  587.68   22.01
   5  -4   5  630.17   34.40
   5  -4   6  558.99   22.22
   5  -4   6  580.71   35.51
   5  -4   7  575.63   23.06
   5  -4   7  627.50   38.94
   5  -4   8  183.27   22.64
   5  -3 -10   18.76    5.44
   5  -3  -9  197.09   14.21
   5  -3  -8  414.87   18.94
   5  -3  -7 2058.26   39.29
   5  -3  -6 2300.00   38.89
   5  -3  -5 1305.53   28.08
   5  -3  -5 1343.16   12.76
   5  -3  -4  847.86   22.35
   5  -3  -4  805.54   14.66
   5  -3  -3   41.35    4.86
   5  -3  -2  529.98   26.95
   5  -3  -2  554.68   17.65
   5  -3  -1  132.28    8.74
   5  -3   0 1241.55   26.79
   5  -3   1 1451.03   29.59
   5  -3   2 2643.91   41.08
   5  -3   3 1052.22   26.47
   5  -3   3 1044.24   36.83
   5  -3   4  940.57   25.57
   5  -3   4  909.79   37.30
   5  -3   5  463.56   18.31
   5  -3   5  454.66   28.19
   5  -3   6   16.04    6.42
   5  -3   6   18.47    4.15
   5  -3   7   19.76    7.64
   5  -3   7   25.50    4.97
   5  -3   8   91.57   15.80
   5  -2 -10  781.68   34.06
   5  -2  -9 1055.58   36.06
   5  -2  -8  903.21   30.36
   5  -2  -7  588.03   22.32
   5  -2  -6    9.56    2.72
   5  -2  -5   43.12    5.44
   5  -2  -4  710.53   20.37
   5  -2  -4  748.90   11.02
   5  -2  -4  713.76   12.23
   5  -2  -3 1227.04   26.05
   5  -2  -3 1182.60   18.52
   5  -2  -2 1597.21   46.34
   5  -2  -2 1446.48   27.79
   5  -2  -1 4635.91   86.58
   5  -2  -1 4685.45   49.72
   5  -2   0 1736.68   30.01
   5  -2   1 1300.22   26.08
   5  -2   2  383.25   14.48
   5  -2   3   24.94    5.60
   5  -2   3   28.08    4.07
   5  -2   4  209.80   11.18
   5  -2   4  180.50   15.77
   5  -2   5  569.48   18.78
   5  -2   5  539.18   28.93
   5  -2   6  508.98   18.12
   5  -2   6  437.01   27.95
   5  -2   7  675.08   21.51
   5  -2   7  636.51   35.83
   5  -2   8  636.24   38.18
   5  -2   9  305.78   28.37
   5  -1 -10   20.66    7.82
   5  -1  -9   17.12    6.16
   5  -1  -8   59.39    8.74
   5  -1  -7  937.61   30.88
   5  -1  -6 2126.35   42.40
   5  -1  -5 1716.92   35.83
   5  -1  -4 2003.81   35.90
   5  -1  -4 2031.60   16.96
   5  -1  -3  991.69   24.02
   5  -1  -3 1026.99   14.77
   5  -1  -2 1300.54   26.23
   5  -1  -2 1257.03   31.76
   5  -1  -1  330.88   12.95
   5  -1  -1  284.04    9.14
   5  -1   0  382.77   13.82
   5  -1   1  815.21   19.74
   5  -1   2 1933.40   30.36
   5  -1   3 1556.10   27.34
   5  -1   3 1664.77   40.24
   5  -1   4 1689.18   29.01
   5  -1   4 1665.16   44.25
   5  -1   5 1381.41   26.60
   5  -1   5 1392.85   44.12
   5  -1   6  366.42   13.95
   5  -1   6  319.68   22.72
   5  -1   7   44.57    9.54
   5  -1   7   40.77    4.83
   5  -1   8   27.45    8.80
   5  -1   9   35.59   10.33
   5  -1  10  150.59   20.11
   5   0 -10  418.33   31.60
   5   0 -10  360.08   18.60
   5   0  -9  858.62   39.87
   5   0  -8 1035.76   40.82
   5   0  -7  766.12   31.49
   5   0  -6  625.91   26.00
   5   0  -5  312.86   16.62
   5   0  -4    1.45    1.80
   5   0  -4   -0.24    0.61
   5   0  -3  446.65   17.30
   5   0  -3  445.31   14.95
   5   0  -3  435.40    9.78
   5   0  -2  843.56   22.54
   5   0  -2 1128.52   17.54
   5   0  -1 3981.65   76.30
   5   0  -1 3907.31   45.44
   5   0  -1 3881.70   34.93
   5   0   0 3417.75   77.49
   5   0   0 3315.61   40.98
   5   0   1 1796.63   29.01
   5   0   1 1810.36   16.72
   5   0   2 1217.69   23.54
   5   0   3  360.79   12.81
   5   0   4   17.62    4.23
   5   0   4   23.72    3.38
   5   0   5    8.35    3.59
   5   0   5    9.72    2.30
   5   0   6  253.68   10.67
   5   0   6  255.43   19.05
   5   0   7  907.97   20.32
   5   0   7  952.83   39.44
   5   0   8  869.40   40.53
   5   0   9  458.86   31.62
   5   0  10  226.23   23.86
   5   1 -10  252.63   27.13
   5   1 -10  252.65   16.17
   5   1  -9  274.53   25.84
   5   1  -9  243.33   15.46
   5   1  -8    0.77    5.28
   5   1  -8    0.55    2.03
   5   1  -7  183.19   17.54
   5   1  -6  722.95   31.89
   5   1  -5  840.18   31.31
   5   1  -5  836.29   13.10
   5   1  -4 1585.08   39.44
   5   1  -4 1642.86   19.74
   5   1  -3 2941.21   49.35
   5   1  -3 2904.44   27.79
   5   1  -2 2051.47   38.12
   5   1  -2 2050.02   24.39
   5   1  -1  839.60   22.96
   5   1  -1  883.03   17.17
   5   1   0  340.79   23.41
   5   1   0  319.34   13.50
   5   1   0  319.97   10.81
   5   1   1   28.51    7.66
   5   1   1   40.37    4.62
   5   1   1   38.71    4.04
   5   1   2 1252.72   24.44
   5   1   2 1241.81   14.00
   5   1   3 1901.91   29.14
   5   1   3 1555.84    9.11
   5   1   4  794.44   18.31
   5   1   4  736.51   23.91
   5   1   5  615.40   15.90
   5   1   5  701.66   26.47
   5   1   6 1861.30   27.24
   5   1   6 1799.66   46.84
   5   1   7  868.13   18.47
   5   1   7  784.80   33.90
   5   1   8  237.83   20.29
   5   1   9    4.78    5.02
   5   1  10  100.24   15.35
   5   1  11   78.73   15.11
   5   2  -9  151.49   21.66
   5   2  -9  137.28   12.02
   5   2  -8 1104.98   52.34
   5   2  -8 1086.88   32.31
   5   2  -7 1397.03   55.35
   5   2  -7 1277.45   34.16
   5   2  -6 1089.55   43.65
   5   2  -5  672.75   31.86
   5   2  -5  679.46   14.58
   5   2  -4  227.77   17.01
   5   2  -4  250.49    8.93
   5   2  -3    4.02    2.93
   5   2  -3    1.88    1.24
   5   2  -2  292.55   16.30
   5   2  -2  306.63   10.33
   5   2  -1 1127.02   29.93
   5   2  -1 1089.08   19.66
   5   2   0 2191.07   39.23
   5   2   0 2163.86   29.38
   5   2   1 1792.21   33.58
   5   2   1 1800.48   27.82
   5   2   2 1317.21   27.37
   5   2   2 1339.30   24.97
   5   2   2 1372.38   19.10
   5   2   3 2981.87   39.18
   5   2   3 2990.14   38.55
   5   2   3 2901.50   24.49
   5   2   4  560.95   16.35
   5   2   4  548.45    9.11
   5   2   5    3.94    2.46
   5   2   5    5.36    1.90
   5   2   5    3.54    1.53
   5   2   5    2.67    0.58
   5   2   6   11.70    4.20
   5   2   6   13.42    2.56
   5   2   6   12.76    3.04
   5   2   7  287.95   10.52
   5   2   7  269.11   18.44
   5   2   8  291.89   21.00
   5   2   9  808.10   37.46
   5   2  10  405.49   19.44
   5   2  10  293.44   24.41
   5   2  11  232.02   15.43
   5   2  11  184.99   20.53
   5   3  -8   56.01   15.24
   5   3  -8   67.05    8.64
   5   3  -7  160.90   20.98
   5   3  -7  161.24   12.58
   5   3  -6   -0.55    2.14
   5   3  -6    5.28    5.76
   5   3  -5  578.99   33.71
   5   3  -5  538.78   15.03
   5   3  -4 1221.26   45.15
   5   3  -4 1308.94   23.36
   5   3  -3 1658.45   48.45
   5   3  -3 1638.08   26.13
   5   3  -2 1929.04   48.96
   5   3  -2 2032.00   28.98
   5   3  -1 1631.16   41.74
   5   3  -1 1614.30   26.21
   5   3   0 1004.69   30.67
   5   3   0 1016.77   20.95
   5   3   1   28.53    7.74
   5   3   1   28.35    5.20
   5   3   1   33.39    3.99
   5   3   2   24.46    7.79
   5   3   2   30.81    4.94
   5   3   2   26.90    3.73
   5   3   3   48.30    5.92
   5   3   3   45.65    4.99
   5   3   4  363.38   14.82
   5   3   4  357.62   14.19
   5   3   4  347.29    9.99
   5   3   5  654.13   19.10
   5   3   5  692.60   18.92
   5   3   6 3496.37   42.40
   5   3   6 3510.35   47.77
   5   3   6 3604.51   27.87
   5   3   6 3584.98   52.76
   5   3   7 1408.44   25.86
   5   3   7 1417.98   31.57
   5   3   7 1408.20   38.26
   5   3   8   67.79    7.29
   5   3   8   74.61   10.09
   5   3   9  141.53   11.18
   5   3   9  139.26   14.64
   5   3  10    7.27    5.84
   5   3  10    6.26    3.22
   5   3  11   12.42    7.45
   5   3  11    1.64    3.04
   5   4  -7  696.48   48.19
   5   4  -7  719.60   27.79
   5   4  -6  665.52   44.15
   5   4  -6  624.85   25.20
   5   4  -5  697.83   41.21
   5   4  -5  726.44   26.00
   5   4  -4  923.03   21.98
   5   4  -4  921.63   28.59
   5   4  -3  224.86   20.50
   5   4  -3  223.17   10.62
   5   4  -3  204.36   13.02
   5   4  -2   17.12    6.21
   5   4  -2   22.75    3.41
   5   4  -1    9.59    4.36
   5   4  -1   13.47    2.67
   5   4   0  560.07   26.87
   5   4   0  616.06   17.65
   5   4   1 2254.53   50.99
   5   4   1 2194.96   32.89
   5   4   2 1055.18   33.08
   5   4   2 1001.76   23.04
   5   4   3 1394.17   53.66
   5   4   3 1466.17   36.96
   5   4   3 1440.36   28.45
   5   4   4 1048.18   29.88
   5   4   4  987.12   24.39
   5   4   5  725.33   23.80
   5   4   5  726.33   21.45
   5   4   6  458.20   18.41
   5   4   6  475.95   18.07
   5   4   6  439.70   14.50
   5   4   7   89.14    7.98
   5   4   7   76.72    7.58
   5   4   7   75.72    7.85
   5   4   8   71.44    7.71
   5   4   8   63.14    8.43
   5   4   9  401.79   18.31
   5   4  10  382.08   18.73
   5   4  11  174.71   11.78
   5   4  11  189.77   13.90
   5   4  12  388.08   20.58
   5   5  -6   13.32    4.49
   5   5  -6   24.52   11.86
   5   5  -5   25.34    5.44
   5   5  -5   34.69   12.26
   5   5  -4  247.00   26.45
   5   5  -4  268.16   13.10
   5   5  -4  282.06   16.49
   5   5  -3  516.72   17.94
   5   5  -3  546.71   21.95
   5   5  -2  889.53   43.51
   5   5  -2  842.55   22.38
   5   5  -2  854.68   26.76
   5   5  -1 1348.92   28.19
   5   5  -1 1276.90   31.81
   5   5   0 1122.79   25.60
   5   5   0 1085.83   28.40
   5   5   1  764.64   34.58
   5   5   1  735.61   20.79
   5   5   1  722.03   22.22
   5   5   2  427.84   24.49
   5   5   2  404.73   15.40
   5   5   2  445.86   16.94
   5   5   3  139.42   16.01
   5   5   3  106.63   11.89
   5   5   3  111.02    8.27
   5   5   3  120.08    8.53
   5   5   4  413.10   22.38
   5   5   4  367.42   15.32
   5   5   4  397.38   14.82
   5   5   5  271.99   24.60
   5   5   5  261.69   17.49
   5   5   5  253.89   13.08
   5   5   5  271.57   11.73
   5   5   6  917.16   31.52
   5   5   6  908.52   25.55
   5   5   6  888.47   20.13
   5   5   7 1053.57   28.08
   5   5   8  322.93   16.20
   5   5   9  493.47   20.71
   5   5  10  144.70   11.81
   5   5  11   83.20    8.77
   5   5  11   83.35    9.41
   5   6  -5  468.48   42.64
   5   6  -5  412.73   21.85
   5   6  -4  623.43   46.79
   5   6  -4  569.14   20.92
   5   6  -4  566.70   24.54
   5   6  -3  437.20   37.23
   5   6  -3  465.57   18.41
   5   6  -3  428.50   20.63
   5   6  -2  505.28   37.81
   5   6  -2  533.87   19.55
   5   6  -2  540.34   22.43
   5   6  -1  103.99    8.61
   5   6  -1   98.49    9.33
   5   6   0   95.77   15.30
   5   6   0   93.24    8.01
   5   6   0  103.09    9.27
   5   6   1  402.03   28.82
   5   6   1  417.35   16.78
   5   6   1  413.29   17.73
   5   6   2  315.56   14.58
   5   6   2  294.71   14.61
   5   6   3  791.19   37.52
   5   6   3  765.73   23.12
   5   6   3  805.22   23.09
   5   6   4 1606.30   51.39
   5   6   4 1563.34   32.26
   5   6   4 1820.35   58.15
   5   6   4 1799.22   33.05
   5   6   5  885.59   42.80
   5   6   5  956.03   38.68
   5   6   5 1022.95   26.79
   5   6   5 1074.47   24.46
   5   6   6  514.92   34.50
   5   6   6  496.77   27.34
   5   6   6  493.10   19.13
   5   6   6  542.08   16.41
   5   6   7    3.46    2.32
   5   6   8    7.69    2.77
   5   6   9   -1.37    1.69
   5   6  10  179.92   12.81
   5   6  10  186.13   13.55
   5   6  11  135.22   11.44
   5   6  11  147.82   12.55
   5   7  -4    2.93    3.14
   5   7  -4    8.27   12.05
   5   7  -4    5.57    3.36
   5   7  -3   90.91   20.82
   5   7  -3  111.04    9.91
   5   7  -3   91.15   10.36
   5   7  -2  161.53   24.25
   5   7  -2  201.45   13.16
   5   7  -2  191.81   14.32
   5   7  -1  699.70   47.13
   5   7  -1  776.06   24.91
   5   7  -1  747.73   26.82
   5   7   0  864.96   26.26
   5   7   0  838.56   27.64
   5   7   1  718.54   44.23
   5   7   1  756.56   24.23
   5   7   1  769.29   25.57
   5   7   2  556.11   37.73
   5   7   2  617.06   21.85
   5   7   2  584.96   21.66
   5   7   3  433.58   18.36
   5   7   3  402.95   17.33
   5   7   4   11.76    3.04
   5   7   4    7.64    6.60
   5   7   4   12.36    3.59
   5   7   5   45.86   10.65
   5   7   5   32.58    5.20
   5   7   5   30.33    4.54
   5   7   6  137.01   17.15
   5   7   6  142.14    9.06
   5   7   7  392.33   30.81
   5   7   7  447.47   19.21
   5   7   8  313.87   16.59
   5   7   9  494.98   21.58
   5   7   9  502.16   21.58
   5   7  10  261.53   16.17
   5   7  10  289.77   16.91
   5   7  11  117.99   11.12
   5   7  11  139.36   12.39
   5   8  -2  531.33   47.40
   5   8  -2  568.03   23.43
   5   8  -2  527.84   24.70
   5   8  -1  392.89   40.26
   5   8  -1  371.41   18.73
   5   8  -1  387.97   20.63
   5   8   0   11.28    4.07
   5   8   0   18.89   10.04
   5   8   0   18.47    4.39
   5   8   1   14.21    4.28
   5   8   1   12.36    9.38
   5   8   1    7.98    3.33
   5   8   2   88.61   18.31
   5   8   2   82.17    8.74
   5   8   2   93.31    9.33
   5   8   3  245.12   27.79
   5   8   3  245.23   14.77
   5   8   3  223.19   13.66
   5   8   4  560.31   39.92
   5   8   4  648.92   24.09
   5   8   4  585.12   21.16
   5   8   5  610.17   41.06
   5   8   5  579.47   22.72
   5   8   5  548.08   19.66
   5   8   6  483.51   35.48
   5   8   6  529.37   21.82
   5   8   6  534.18   18.44
   5   8   7  287.13   24.23
   5   8   7  269.56   15.98
   5   8   8   77.28    8.80
   5   8   8   52.63   12.44
   5   8   8   60.61    7.85
   5   8   9   38.78    6.45
   5   8   9   32.13    5.92
   5   8  10    1.29    2.27
   5   8  10    1.80    2.17
   5   9   0  266.26   14.61
   5   9   0  236.54   33.58
   5   9   0  266.50   16.86
   5   9   0  247.08   16.86
   5   9   1  497.41   20.45
   5   9   1  410.11   42.48
   5   9   1  457.01   21.74
   5   9   1  461.74   22.27
   5   9   2  713.81   52.92
   5   9   2  737.69   27.27
   5   9   2  745.49   27.19
   5   9   3  303.04   17.49
   5   9   3  305.57   17.04
   5   9   4   46.53   14.85
   5   9   4   59.39    7.90
   5   9   4   59.79    7.40
   5   9   5   18.81    4.25
   5   9   5    9.83    8.93
   5   9   5   19.63    5.26
   5   9   5   27.85    5.52
   5   9   6    3.83    2.64
   5   9   6   10.38    3.86
   5   9   7   41.24    6.79
   5   9   7   51.23    7.69
   5   9   8  183.25   14.03
   5   9   8  173.26   13.87
   5   9   9  208.24   15.16
   5   9   9  203.75   15.01
   5  10   3    1.69    2.83
   5  10   3    9.48   12.31
   5  10   3   12.89    4.36
   5  10   3    7.13    3.78
   5  10   4  161.74   12.97
   5  10   4  161.50   13.84
   5  10   4  154.11   12.47
   5  10   5  280.02   17.23
   5  10   5  299.47   16.62
   5  10   6  247.66   16.57
   5  10   6  237.94   16.72
   6  -9  -5  499.15   23.91
   6  -9  -4  197.94   15.53
   6  -8  -8  124.70   11.39
   6  -8  -7   59.87    7.90
   6  -8  -6   93.21    9.88
   6  -8  -5   62.69    8.24
   6  -8  -4  406.36   20.74
   6  -8  -3  421.08   21.58
   6  -8  -2  635.42   27.19
   6  -8  -1  623.77   27.42
   6  -8   0  322.93   20.24
   6  -7  -9   16.33    4.83
   6  -7  -8  270.20   15.96
   6  -7  -7  643.64   24.57
   6  -7  -6  305.68   16.75
   6  -7  -5  899.81   28.90
   6  -7  -4  787.47   27.45
   6  -7  -3  319.63   17.65
   6  -7  -2  116.80   11.12
   6  -7  -1   46.82    7.21
   6  -7   0   59.63    8.53
   6  -7   1  469.67   23.49
   6  -7   2  514.31   24.99
   6  -7   3  284.59   18.94
   6  -6 -10  553.55   24.36
   6  -6  -9  430.35   20.53
   6  -6  -8  850.48   27.74
   6  -6  -7  410.09   19.08
   6  -6  -6  318.44   16.70
   6  -6  -5   60.26    7.29
   6  -6  -4   88.90    8.80
   6  -6  -3  249.80   14.90
   6  -6  -2  618.43   33.16
   6  -6  -2  695.16   25.10
   6  -6  -1  983.77   30.07
   6  -6   0  657.03   25.63
   6  -6   1  611.01   25.02
   6  -6   2  431.88   21.58
   6  -6   3   58.15    8.35
   6  -6   4   16.01    5.34
   6  -5 -10   27.34    6.42
   6  -5  -9   16.51    4.70
   6  -5  -8    7.21    3.12
   6  -5  -7  118.86   10.17
   6  -5  -6  532.23   20.92
   6  -5  -5 1099.88   29.56
   6  -5  -4 1284.24   31.84
   6  -5  -3 1253.73   31.57
   6  -5  -2  675.37   33.90
   6  -5  -2  823.27   25.68
   6  -5  -1  277.33   15.03
   6  -5   0    4.76    2.59
   6  -5   1   91.97    9.25
   6  -5   2  225.89   14.48
   6  -5   3  332.07   18.04
   6  -5   4  574.08   24.41
   6  -5   5  405.91   20.82
   6  -5   5  488.26   32.05
   6  -4 -10  279.13   18.76
   6  -4  -9  472.49   22.77
   6  -4  -8  838.30   28.59
   6  -4  -7  846.94   27.13
   6  -4  -6  849.69   26.34
   6  -4  -5  590.24   21.16
   6  -4  -4  255.35   13.92
   6  -4  -3   69.56    7.24
   6  -4  -2  453.68   27.79
   6  -4  -2  507.23   19.26
   6  -4  -1  850.90   41.06
   6  -4  -1  909.45   25.81
   6  -4   0 1023.82   27.61
   6  -4   1  762.74   24.33
   6  -4   2 1129.29   30.30
   6  -4   3  560.68   22.06
   6  -4   4  109.01   10.01
   6  -4   5    2.03    4.23
   6  -4   5    5.28    2.72
   6  -4   6    4.17    5.42
   6  -4   6    2.91    3.17
   6  -4   7   75.14   14.37
   6  -4   7   78.94    9.14
   6  -3 -10  356.64   22.96
   6  -3  -9  310.38   19.47
   6  -3  -8   96.04   10.25
   6  -3  -7   19.76    4.57
   6  -3  -6  100.08    9.38
   6  -3  -5  556.14   20.58
   6  -3  -4 1362.02   31.49
   6  -3  -3 2282.59   40.21
   6  -3  -2  900.99   38.89
   6  -3  -2  895.13   24.70
   6  -3  -1 1125.72   47.61
   6  -3  -1 1253.86   29.25
   6  -3   0  392.12   16.38
   6  -3   1   25.13    4.33
   6  -3   2    6.29    2.38
   6  -3   3  233.31   13.08
   6  -3   4  460.02   18.76
   6  -3   5  623.85   22.27
   6  -3   5  587.07   32.02
   6  -3   6  494.29   20.29
   6  -3   6  418.38   29.27
   6  -3   7  528.95   21.37
   6  -3   7  545.57   35.22
   6  -3   8   92.65   16.51
   6  -2 -10   -1.06    4.31
   6  -2  -9  268.19   19.84
   6  -2  -8  584.12   26.82
   6  -2  -7  967.36   31.47
   6  -2  -6 1709.68   39.84
   6  -2  -5  906.49   27.03
   6  -2  -4 1026.22   27.87
   6  -2  -4 1082.47   15.67
   6  -2  -3   55.16    6.37
   6  -2  -2   61.66    6.45
   6  -2  -1   28.56    7.93
   6  -2  -1   36.93    4.91
   6  -2   0  654.68   20.42
   6  -2   1  908.82   24.02
   6  -2   2 2429.22   39.21
   6  -2   3 1302.84   29.25
   6  -2   4  263.67   13.26
   6  -2   5  186.42   11.33
   6  -2   5  178.15   16.72
   6  -2   6   78.65    7.56
   6  -2   6   72.23   11.76
   6  -2   7    8.32    4.94
   6  -2   7    5.97    2.75
   6  -2   8  184.54   20.87
   6  -1 -10  376.06   28.14
   6  -1  -9  608.61   33.02
   6  -1  -8  534.34   28.06
   6  -1  -7  463.59   24.04
   6  -1  -6   37.41    6.47
   6  -1  -5   95.64    9.35
   6  -1  -4  603.98   22.19
   6  -1  -4  637.40   11.49
   6  -1  -3 2737.01   44.94
   6  -1  -3 2959.34   29.06
   6  -1  -2  579.73   19.81
   6  -1  -2  626.18   14.74
   6  -1  -1  995.92   43.06
   6  -1  -1 1010.27   25.28
   6  -1   0 1539.91   56.93
   6  -1   0 1525.74   30.67
   6  -1   1  773.10   21.61
   6  -1   2  527.66   17.78
   6  -1   3   32.05    4.39
   6  -1   4  274.71   12.92
   6  -1   5  587.68   19.00
   6  -1   5  586.07   28.19
   6  -1   6  604.86   19.58
   6  -1   6  628.26   31.86
   6  -1   7  560.71   18.73
   6  -1   7  521.21   31.36
   6  -1   8  422.56   30.01
   6  -1   9  103.75   15.88
   6   0  -9   24.09    8.59
   6   0  -8  152.47   16.70
   6   0  -7  268.19   20.21
   6   0  -6 1500.91   43.20
   6   0  -5 1144.74   34.87
   6   0  -4 1112.91   32.26
   6   0  -4 1161.76   16.41
   6   0  -3  922.16   27.61
   6   0  -3  943.72   16.57
   6   0  -2  363.06   16.75
   6   0  -2  351.41   11.12
   6   0  -1  251.25   21.51
   6   0  -1  229.77   12.52
   6   0  -1  226.23    9.48
   6   0   0  792.57   41.03
   6   0   0  798.01   22.72
   6   0   0  827.57   19.21
   6   0   1  470.25   16.72
   6   0   2  623.51   18.94
   6   0   3 1584.34   29.93
   6   0   4  990.40   23.49
   6   0   5  972.46   23.30
   6   0   5 1024.43   34.74
   6   0   6  351.46   14.11
   6   0   6  345.70   22.14
   6   0   7   33.50    4.54
   6   0   7   55.59   10.49
   6   0   8   17.83    7.79
   6   0   9   56.96   11.36
   6   0  10  139.10   18.97
   6   1  -9  584.25   39.89
   6   1  -9  582.50   25.50
   6   1  -8  598.51   36.33
   6   1  -7  826.83   39.23
   6   1  -6  314.34   22.62
   6   1  -5    8.45    4.65
   6   1  -4   34.93    6.37
   6   1  -4   32.36    3.17
   6   1  -3  652.46   25.26
   6   1  -3  684.11   14.98
   6   1  -2  193.60   13.10
   6   1  -2  170.09    7.93
   6   1  -1  699.83   23.43
   6   1  -1  740.31   17.36
   6   1   0 4131.27   88.69
   6   1   0 4028.68   53.92
   6   1   0 3984.16   42.14
   6   1   1 2341.22   38.89
   6   1   1 2306.61   33.69
   6   1   2  668.84   20.48
   6   1   2  706.60   19.68
   6   1   3    6.37    2.27
   6   1   3    3.17    1.66
   6   1   4    2.22    1.61
   6   1   5    4.73    2.11
   6   1   6  415.95   14.85
   6   1   6  397.30   21.90
   6   1   7  426.23   14.98
   6   1   7  434.02   25.05
   6   1   8  387.97   25.84
   6   1   9  354.45   26.55
   6   1  10  307.79   26.53
   6   2  -8    6.13    7.45
   6   2  -8    0.95    3.01
   6   2  -7  108.72   16.41
   6   2  -7   77.41    9.30
   6   2  -6  549.90   32.71
   6   2  -5  995.52   41.29
   6   2  -4 1218.77   41.56
   6   2  -4 1181.86   20.66
   6   2  -3 1141.84   37.67
   6   2  -3 1168.02   21.19
   6   2  -2  540.39   24.28
   6   2  -2  509.19   14.32
   6   2  -1  806.31   27.95
   6   2  -1  831.62   19.10
   6   2   0   42.11    6.24
   6   2   0   38.34    4.31
   6   2   1   11.49    5.89
   6   2   1   10.78    3.17
   6   2   1   13.05    2.69
   6   2   2  142.30   18.31
   6   2   2  147.90   10.30
   6   2   2  148.19    9.19
   6   2   3 1628.23   33.13
   6   2   3 1671.24   31.62
   6   2   4 1458.29   30.36
   6   2   4 1470.10   30.83
   6   2   5  744.91   20.95
   6   2   5  713.65   22.56
   6   2   6  430.17   15.61
   6   2   6  426.42   18.12
   6   2   6  420.50   19.95
   6   2   7  372.41   14.21
   6   2   7  376.17   17.54
   6   2   7  342.98   20.42
   6   2   8   87.53    9.04
   6   2   8   97.49   12.07
   6   2   9    1.59    4.39
   6   2   9   -1.64    2.09
   6   2  10    3.57    5.97
   6   2  10    6.05    3.36
   6   3  -7  697.38   44.68
   6   3  -7  701.66   27.98
   6   3  -6  567.42   38.23
   6   3  -6  534.47   24.02
   6   3  -5  217.44   21.29
   6   3  -4  236.96   20.92
   6   3  -3    7.56    5.05
   6   3  -3   11.44    2.64
   6   3  -2  250.94   18.84
   6   3  -2  248.11   10.91
   6   3  -1  947.63   33.95
   6   3  -1  862.18   20.37
   6   3   0 1578.72   41.19
   6   3   0 1512.48   27.53
   6   3   1 1098.35   32.84
   6   3   1 1094.04   24.33
   6   3   2 1154.04   31.70
   6   3   2 1161.71   25.97
   6   3   3  719.68   41.77
   6   3   3  651.49   22.91
   6   3   3  661.47   20.42
   6   3   4  249.54   13.84
   6   3   4  205.41   11.76
   6   3   5   39.23    5.34
   6   3   5   56.04    6.29
   6   3   6    6.79    2.46
   6   3   6    5.87    2.35
   6   3   7  161.77   11.73
   6   3   8  346.73   17.49
   6   3   9  537.14   22.91
   6   3  10  395.29   20.50
   6   4  -6   28.08   11.36
   6   4  -6   46.02    7.79
   6   4  -5  291.52   28.59
   6   4  -5  302.37   18.18
   6   4  -4  546.31   36.51
   6   4  -4  462.53   21.85
   6   4  -3  697.43   37.70
   6   4  -3  693.49   19.66
   6   4  -2  964.16   41.14
   6   4  -2  984.32   23.36
   6   4  -1 1461.04   48.08
   6   4  -1 1462.71   28.64
   6   4   0  603.69   29.51
   6   4   0  619.33   18.92
   6   4   1    8.40    4.57
   6   4   1    6.31    2.46
   6   4   2   64.91   12.02
   6   4   2   70.54    9.51
   6   4   2   57.99    6.08
   6   4   3  119.58   17.12
   6   4   3  143.94   12.50
   6   4   3  139.58    9.54
   6   4   4  500.55   35.35
   6   4   4  446.92   21.03
   6   4   4  534.71   19.39
   6   4   5  612.04   23.83
   6   4   5  602.74   21.29
   6   4   6  499.55   21.08
   6   4   6  528.08   20.45
   6   4   7  708.24   24.31
   6   4   8  360.50   17.89
   6   4   9  179.79   13.32
   6   4  10    0.74    2.64
   6   4  11   41.51    7.45
   6   5  -5  542.95   42.67
   6   5  -5  491.17   24.02
   6   5  -4  447.53   36.22
   6   5  -4  441.53   22.09
   6   5  -3  109.09   17.36
   6   5  -3  141.03    9.72
   6   5  -3  124.25   11.36
   6   5  -2    6.79    2.96
   6   5  -2    7.42    2.72
   6   5  -1  103.59   14.80
   6   5  -1   94.72    8.01
   6   5  -1   78.15    8.51
   6   5   0  254.95   21.82
   6   5   0  246.47   12.73
   6   5   0  253.58   14.72
   6   5   1  759.73   35.53
   6   5   1  837.46   23.59
   6   5   2 1124.43   41.27
   6   5   2 1070.35   26.18
   6   5   3  804.48   33.71
   6   5   3  769.77   22.96
   6   5   4  446.23   32.76
   6   5   4  487.34   25.55
   6   5   4  447.02   18.26
   6   5   5  146.39   20.18
   6   5   5  156.88   13.98
   6   5   5  137.12   10.41
   6   5   6  239.60   17.01
   6   5   6  230.59   13.98
   6   5   7    9.46    3.38
   6   5   8  219.36   14.29
   6   5   9  216.43   14.77
   6   5  10  338.70   19.08
   6   6  -4  165.41   25.34
   6   6  -4  146.47   13.45
   6   6  -3  322.77   32.73
   6   6  -3  363.14   16.91
   6   6  -3  336.35   19.63
   6   6  -2  556.67   40.42
   6   6  -2  570.06   20.90
   6   6  -2  593.55   25.07
   6   6  -1  668.00   42.19
   6   6  -1  702.79   23.06
   6   6  -1  678.67   25.86
   6   6   0  657.14   39.42
   6   6   0  656.45   22.06
   6   6   0  636.53   24.39
   6   6   1  388.77   29.80
   6   6   1  380.95   17.04
   6   6   1  369.93   18.04
   6   6   2   16.88    4.04
   6   6   2    6.87    5.02
   6   6   2   17.99    4.36
   6   6   3    4.44    2.09
   6   6   3    8.69    5.44
   6   6   3    8.93    3.04
   6   6   4   31.57    8.38
   6   6   4   40.87    5.81
   6   6   4   46.02    6.08
   6   6   5  163.83   19.89
   6   6   5  190.25   12.58
   6   6   5  184.36   11.25
   6   6   6  306.68   29.27
   6   6   6  302.93   22.25
   6   6   6  349.35   17.33
   6   6   6  352.76   14.77
   6   6   7 1064.37   55.61
   6   6   7 1065.51   30.94
   6   6   8  302.69   17.15
   6   6   9  161.11   13.05
   6   6  10  117.41   11.41
   6   7  -3  203.72   29.56
   6   7  -3  296.75   19.13
   6   7  -2   37.78    6.95
   6   7  -2   34.21   13.18
   6   7  -2   41.03    6.47
   6   7  -1    6.74    3.62
   6   7  -1    4.04    6.21
   6   7  -1    4.12    2.85
   6   7   0    1.40    1.96
   6   7   0    5.65    7.87
   6   7   0    3.88    2.56
   6   7   1  200.50   24.52
   6   7   1  171.31   12.10
   6   7   1  164.49   12.79
   6   7   2  460.15   19.84
   6   7   2  442.88   20.11
   6   7   3  360.02   29.99
   6   7   3  384.99   18.28
   6   7   3  414.82   18.94
   6   7   4  656.77   39.26
   6   7   4  691.35   24.76
   6   7   4  727.31   24.17
   6   7   5  341.87   17.36
   6   7   5  300.34   14.90
   6   7   6  409.14   31.62
   6   7   6  323.91   16.88
   6   7   7  106.63   18.47
   6   7   7  107.24   10.22
   6   7   8   28.64   11.92
   6   7   8   47.27    7.13
   6   7   9   21.16    5.28
   6   7  10  121.95   11.92
   6   7  10   92.84   10.52
   6   8  -1  406.44   42.35
   6   8  -1  393.50   20.00
   6   8  -1  440.10   22.93
   6   8   0  538.49   45.84
   6   8   0  630.88   24.89
   6   8   0  565.60   25.39
   6   8   1  315.56   34.56
   6   8   1  309.01   17.60
   6   8   1  296.35   18.04
   6   8   2   94.74   19.26
   6   8   2  111.76   10.46
   6   8   2  108.48   10.62
   6   8   3  154.93   23.51
   6   8   3  147.40   12.10
   6   8   3  137.57   11.52
   6   8   4   66.05   16.09
   6   8   4   55.38    7.48
   6   8   4   50.28    6.74
   6   8   5   23.59    4.73
   6   8   5   14.72    9.54
   6   8   5   23.51    4.94
   6   8   6   55.85    7.85
   6   8   7  489.69   22.48
   6   8   8  205.28   24.28
   6   8   8  273.39   16.99
   6   8   9  108.82   11.55
   6   8   9  120.92   11.52
   6   9   2  112.42   22.72
   6   9   2  159.52   13.34
   6   9   2  129.19   12.21
   6   9   3   82.56   19.95
   6   9   3  109.40   11.12
   6   9   3  110.38   10.78
   6   9   4  258.97   32.34
   6   9   4  265.33   17.04
   6   9   4  270.78   16.35
   6   9   5  309.46   34.90
   6   9   5  387.61   20.77
   6   9   6  251.65   16.80
   7  -7  -7   40.79    6.82
   7  -7  -6   19.55    5.26
   7  -7  -5   66.97    8.88
   7  -7  -4  220.92   15.72
   7  -7  -3  393.92   20.79
   7  -7  -2  534.29   24.60
   7  -7  -1  397.96   21.45
   7  -7   0  378.97   21.29
   7  -6  -8  147.87   12.89
   7  -6  -7  642.40   25.97
   7  -6  -6  419.20   20.95
   7  -6  -5  486.28   22.17
   7  -6  -4  679.81   26.26
   7  -6  -3  300.66   17.57
   7  -6  -2   22.11    4.94
   7  -6  -1    4.46    3.38
   7  -6   0   22.14    5.26
   7  -6   1  191.04   14.72
   7  -6   2  341.08   20.03
   7  -5  -8  435.08   22.14
   7  -5  -7  419.26   21.00
   7  -5  -6   26.42    5.63
   7  -5  -5   33.66    6.08
   7  -5  -4  132.60   11.39
   7  -5  -3  346.18   17.97
   7  -5  -2  432.57   29.51
   7  -5  -2  373.05   18.78
   7  -5  -1  544.64   36.64
   7  -5  -1  667.26   24.97
   7  -5   0  775.37   27.21
   7  -5   1  538.04   23.04
   7  -5   2  251.81   15.96
   7  -5   3   42.40    7.03
   7  -5   4   13.37    4.60
   7  -4  -9    6.05    4.39
   7  -4  -8    1.37    2.69
   7  -4  -7  254.98   16.83
   7  -4  -6  323.72   18.04
   7  -4  -5  533.92   22.46
   7  -4  -4 1413.72   35.64
   7  -4  -3  873.10   27.90
   7  -4  -2  382.22   27.37
   7  -4  -2  258.31   15.14
   7  -4  -1   71.97   14.11
   7  -4  -1   75.51    8.30
   7  -4   0   17.33    4.23
   7  -4   1   38.10    5.89
   7  -4   2  331.49   17.38
   7  -4   3  502.53   21.88
   7  -4   4  417.51   20.13
   7  -4   5  334.82   18.44
   7  -3  -9  603.85   29.99
   7  -3  -8  453.10   24.23
   7  -3  -7  594.39   26.37
   7  -3  -6  293.50   17.67
   7  -3  -5  442.90   20.85
   7  -3  -4   65.63    7.82
   7  -3  -3   14.37    3.73
   7  -3  -2  158.44   11.55
   7  -3  -1  895.74   46.47
   7  -3  -1  980.47   28.56
   7  -3   0 1115.31   54.03
   7  -3   0 1213.01   31.33
   7  -3   1  708.90   23.94
   7  -3   2  440.52   19.23
   7  -3   3  297.78   16.09
   7  -3   4   67.93    7.82
   7  -3   5    0.63    2.03
   7  -3   6    6.58    3.17
   7  -2  -9   64.62   11.20
   7  -2  -8  198.94   17.25
   7  -2  -7   -2.09    2.72
   7  -2  -6  333.34   19.55
   7  -2  -5  477.04   22.11
   7  -2  -4  659.60   24.83
   7  -2  -3  771.99   26.02
   7  -2  -3  809.69   17.65
   7  -2  -2 1137.06   30.41
   7  -2  -1  878.96   44.33
   7  -2  -1  839.15   25.76
   7  -2   0  286.52   27.58
   7  -2   0  301.32   15.35
   7  -2   1    9.30    2.99
   7  -2   2  156.09   10.91
   7  -2   3  232.39   13.42
   7  -2   4  348.93   16.59
   7  -2   5  717.22   23.96
   7  -2   6  255.45   14.64
   7  -2   7  123.51   15.93
   7  -1  -8  309.93   23.22
   7  -1  -7  423.27   25.05
   7  -1  -6  742.56   30.78
   7  -1  -5 1323.58   38.76
   7  -1  -4  601.95   24.76
   7  -1  -3   -0.48    2.06
   7  -1  -3    4.52    1.59
   7  -1  -2  177.88   12.44
   7  -1  -2  160.29    8.43
   7  -1  -1   94.48    8.77
   7  -1  -1  106.08    7.24
   7  -1   0  363.22   30.67
   7  -1   0  422.82   18.18
   7  -1   1  751.54   44.97
   7  -1   1  801.92   24.39
   7  -1   2  810.93   24.41
   7  -1   3  856.37   25.02
   7  -1   4  523.93   19.68
   7  -1   5  125.57    9.80
   7  -1   6    0.29    2.22
   7  -1   7    1.96    5.10
   7  -1   8  198.97   20.66
   7   0  -8  262.98   23.46
   7   0  -7  104.31   14.27
   7   0  -6    5.97    4.54
   7   0  -5   41.43    7.42
   7   0  -4   81.45    9.72
   7   0  -3 1050.61   32.79
   7   0  -3 1062.68   19.55
   7   0  -2 2566.00   49.06
   7   0  -2 2540.74   33.16
   7   0  -1  839.12   26.68
   7   0  -1  853.78   20.24
   7   0   0  320.63   27.58
   7   0   0  321.95   16.12
   7   0   0  352.02   13.76
   7   0   1  154.27   20.55
   7   0   1  167.00   11.52
   7   0   1  149.51    9.46
   7   0   2  236.11   13.29
   7   0   3    2.40    1.53
   7   0   4  223.54   12.60
   7   0   5  276.40   13.90
   7   0   6  294.42   14.45
   7   0   7  480.02   27.56
   7   0   8  578.44   32.58
   7   1  -8  118.39   17.46
   7   1  -7  431.41   30.38
   7   1  -6  689.50   35.27
   7   1  -5  890.32   37.70
   7   1  -4  604.22   28.30
   7   1  -3  591.04   26.39
   7   1  -2   12.21    4.02
   7   1  -2   17.04    3.01
   7   1  -1   26.37    5.20
   7   1  -1   17.60    3.12
   7   1   0   38.52    9.30
   7   1   0   39.02    6.18
   7   1   0   25.18    3.91
   7   1   1  690.35   23.91
   7   1   1  696.43   20.34
   7   1   2  550.77   21.03
   7   1   2  527.21   18.49
   7   1   3 1075.39   28.43
   7   1   3 1075.02   27.48
   7   1   4  840.55   24.83
   7   1   4  775.13   24.44
   7   1   5  304.81   14.85
   7   1   5  307.53   16.09
   7   1   6   53.53    6.29
   7   1   7   49.09    8.74
   7   1   8    7.40    5.31
   7   2  -7  268.82   26.26
   7   2  -6  451.78   31.99
   7   2  -5    7.11    5.20
   7   2  -4  129.72   14.82
   7   2  -3  431.33   24.99
   7   2  -2  867.36   33.58
   7   2  -2  788.08   19.29
   7   2  -1  269.40   17.78
   7   2  -1  264.04   11.68
   7   2   0 1057.64   33.26
   7   2   0 1075.26   24.54
   7   2   1  738.80   41.80
   7   2   1  745.49   26.66
   7   2   1  705.33   20.85
   7   2   2  465.99   35.83
   7   2   2  502.82   21.32
   7   2   2  559.57   19.10
   7   2   3  233.66   26.42
   7   2   3  238.49   14.35
   7   2   3  226.66   12.71
   7   2   4   11.78    4.02
   7   2   4   21.00    4.23
   7   2   5   41.58    5.97
   7   2   5   42.30    6.05
   7   2   6  270.06   14.13
   7   2   6  285.28   16.04
   7   2   7  483.61   21.80
   7   2   8  327.29   18.52
   7   2   9   96.88   10.81
   7   3  -6  156.41   20.85
   7   3  -6  165.10   14.21
   7   3  -5  606.10   38.04
   7   3  -4  712.12   38.34
   7   3  -3 1139.09   45.49
   7   3  -2  152.71   16.01
   7   3  -2  143.09    8.88
   7   3  -1   65.71   10.07
   7   3  -1   49.91    5.34
   7   3   0  203.91   16.27
   7   3   0  215.69   11.31
   7   3   1   71.99    9.54
   7   3   1   65.97    6.58
   7   3   2  244.99   24.60
   7   3   2  211.70   15.43
   7   3   2  214.29   12.21
   7   3   3  810.22   48.82
   7   3   3  828.08   29.06
   7   3   3  847.86   24.97
   7   3   4  637.30   24.60
   7   3   4  600.84   21.93
   7   3   5  373.68   18.57
   7   3   5  405.83   18.41
   7   3   6  471.30   20.37
   7   3   6  496.77   20.98
   7   3   7  220.66   14.58
   7   3   8   24.60    5.36
   7   3   9   10.49    4.52
   7   4  -5  140.63   21.61
   7   4  -5  116.64   12.13
   7   4  -4    1.85    5.13
   7   4  -4    7.08    3.83
   7   4  -3    3.41    4.60
   7   4  -2  161.64   18.15
   7   4  -2  182.32   10.65
   7   4  -1  151.07   17.04
   7   4  -1   98.97    8.08
   7   4   0  804.40   36.46
   7   4   0  839.94   23.30
   7   4   1 1091.59   40.53
   7   4   1  985.46   25.68
   7   4   2  540.47   27.53
   7   4   2  518.28   19.37
   7   4   3  515.71   36.62
   7   4   3  537.14   26.34
   7   4   3  512.39   19.81
   7   4   4   56.64   14.82
   7   4   4   53.95    8.51
   7   4   4   68.06    7.69
   7   4   5    9.80    8.27
   7   4   5   18.15    5.65
   7   4   5    4.99    2.67
   7   4   6   34.58    6.71
   7   4   6   35.32    6.05
   7   4   7  192.84   13.76
   7   4   8  178.15   13.82
   7   4   9  200.95   15.01
   7   5  -4  349.30   33.66
   7   5  -4  240.00   17.23
   7   5  -3  555.82   40.55
   7   5  -3  514.74   24.83
   7   5  -2  428.11   33.90
   7   5  -2  439.60   17.86
   7   5  -2  463.88   22.72
   7   5  -1  343.01   28.35
   7   5  -1  342.64   15.77
   7   5  -1  333.81   18.71
   7   5   0  428.50   29.72
   7   5   0  400.45   17.15
   7   5   1   17.01    6.47
   7   5   1    8.88    3.22
   7   5   2    7.85    5.60
   7   5   2    6.34    2.67
   7   5   3  154.08   16.27
   7   5   3  197.09   12.44
   7   5   4  506.26   37.09
   7   5   4  496.85   27.79
   7   5   4  497.83   20.61
   7   5   5  271.81   29.30
   7   5   5  323.72   21.93
   7   5   5  300.29   16.38
   7   5   6  274.79   30.15
   7   5   6  275.00   16.30
   7   5   7  296.32   17.28
   7   5   8  222.93   15.32
   7   5   9   41.90    7.21
   7   6  -2    2.54    2.62
   7   6  -2    0.79    7.19
   7   6  -1   12.50    4.49
   7   6  -1   12.84    8.22
   7   6  -1    9.11    3.41
   7   6   0  215.56   24.39
   7   6   0  242.32   14.29
   7   6   0  247.42   16.57
   7   6   1  655.05   40.71
   7   6   1  682.50   23.86
   7   6   1  621.50   25.47
   7   6   2  486.84   34.06
   7   6   2  521.34   21.11
   7   6   2  543.03   23.30
   7   6   3  453.13   31.70
   7   6   3  411.70   18.73
   7   6   3  441.45   20.40
   7   6   4  231.94   22.35
   7   6   4  231.54   14.27
   7   6   4  238.91   14.53
   7   6   5   94.03   16.91
   7   6   5   83.17   13.71
   7   6   5   96.43    9.59
   7   6   5  103.06    9.30
   7   6   6    5.65    6.87
   7   6   6    2.35    2.03
   7   6   7    6.21    8.98
   7   6   7    4.31    3.01
   7   6   8    6.29    7.24
   7   6   8   19.42    5.18
   7   7  -1  245.23   30.99
   7   7  -1  238.44   15.01
   7   7  -1  217.54   16.54
   7   7   0  317.70   33.26
   7   7   0  353.89   18.31
   7   7   0  356.03   20.61
   7   7   1  125.63   10.88
   7   7   1  126.97   12.13
   7   7   2   22.27    5.31
   7   7   2   28.37   11.23
   7   7   2   31.78    6.02
   7   7   3    6.05    2.85
   7   7   3    0.79    2.27
   7   7   4   44.81    6.87
   7   7   4   55.75    7.48
   7   7   5  173.05   21.22
   7   7   5  197.86   13.26
   7   7   6  202.93   24.12
   7   7   6  178.23   13.53
   7   7   7  197.01   25.97
   7   7   7  217.88   15.46
   7   7   8  198.10   27.27
   7   8   2  300.39   33.79
   7   8   2  281.16   17.33
   7   8   2  326.95   19.42
   7   8   3  256.09   30.65
   7   8   3  278.33   17.41
   7   8   3  277.65   17.44
   7   8   4  119.81   21.66
   7   8   4  116.43   11.44
   7   8   4  100.90   10.38
   7   8   5  100.58   10.88
   7   8   6  180.58   14.58
   8  -6  -4  233.31   16.72
   8  -6  -3  354.42   20.48
   8  -6  -2  521.03   24.78
   8  -6  -1  332.31   20.08
   8  -5  -6  782.45   30.78
   8  -5  -5  414.74   21.85
   8  -5  -4  180.63   14.45
   8  -5  -3  169.27   14.13
   8  -5  -2   91.28   10.33
   8  -5  -1   70.28   15.09
   8  -5  -1   68.69    8.93
   8  -5   0   43.88   14.69
   8  -5   0   59.00    8.38
   8  -5   1  183.54   14.66
   8  -5   2  165.28   13.92
   8  -4  -7  339.97   21.27
   8  -4  -6   48.00    8.14
   8  -4  -5    6.31    4.04
   8  -4  -4   48.96    7.98
   8  -4  -3  331.83   18.86
   8  -4  -2  602.21   25.10
   8  -4  -1  416.72   33.45
   8  -4  -1  434.10   21.43
   8  -4   0  330.12   32.76
   8  -4   0  335.06   18.81
   8  -4   1  275.61   17.07
   8  -4   2   27.08    5.84
   8  -4   3  129.99   12.10
   8  -3  -7  128.11   13.74
   8  -3  -6  357.83   21.35
   8  -3  -5  284.70   18.41
   8  -3  -4  606.36   26.18
   8  -3  -3  648.76   26.16
   8  -3  -2  315.61   17.97
   8  -3  -1   18.15    8.53
   8  -3  -1   28.37    5.55
   8  -3   0   -4.07    6.63
   8  -3   0    1.19    2.59
   8  -3   1   31.60   11.97
   8  -3   1   28.85    5.84
   8  -3   2  272.78   16.41
   8  -3   3  382.03   19.60
   8  -3   4  393.87   20.05
   8  -2  -7  840.68   36.14
   8  -2  -6  132.65   13.69
   8  -2  -5    6.50    4.39
   8  -2  -4   77.62    9.75
   8  -2  -3   25.60    5.63
   8  -2  -2  250.54   15.85
   8  -2  -1  364.01   30.67
   8  -2  -1  396.01   19.79
   8  -2   0  350.80   32.10
   8  -2   0  396.77   19.44
   8  -2   1  587.58   43.70
   8  -2   1  611.88   23.99
   8  -2   2  526.78   22.30
   8  -2   3  288.93   16.70
   8  -2   4   52.71    7.27
   8  -2   5   53.63    7.71
   8  -1  -7   18.28    6.66
   8  -1  -6   98.65   12.55
   8  -1  -5  299.73   20.45
   8  -1  -4  827.28   32.10
   8  -1  -3  627.68   26.68
   8  -1  -2  317.17   18.52
   8  -1  -1  431.33   20.71
   8  -1  -1  441.03   16.20
   8  -1   0  120.08   11.02
   8  -1   0  122.24    9.09
   8  -1   1   16.80   10.44
   8  -1   1    6.50    3.17
   8  -1   2   14.98    4.12
   8  -1   3  127.29   10.83
   8  -1   4  351.99   17.86
   8  -1   5  435.66   19.81
   8  -1   6  216.30   14.19
   8   0  -6  383.85   26.79
   8   0  -5  240.37   19.68
   8   0  -4  407.53   24.04
   8   0  -3   51.99    8.56
   8   0  -2   25.20    5.92
   8   0  -1  140.50   12.55
   8   0  -1  145.26    9.25
   8   0   0  420.79   33.84
   8   0   0  428.24   20.90
   8   0   0  421.34   16.51
   8   0   1  804.54   27.85
   8   0   1  841.37   24.39
   8   0   2  617.46   45.31
   8   0   2  628.79   24.46
   8   0   2  675.05   22.85
   8   0   3  228.80   14.50
   8   0   3  191.31   12.66
   8   0   4  134.32   11.25
   8   0   5  163.64   12.15
   8   0   6    1.53    2.46
   8   1  -6    2.83    4.78
   8   1  -5   29.96    8.01
   8   1  -4  178.99   17.44
   8   1  -3  597.75   29.75
   8   1  -2  589.16   28.03
   8   1  -1  596.24   26.90
   8   1  -1  605.41   18.94
   8   1   0  447.34   22.25
   8   1   0  411.99   16.51
   8   1   1  173.10   22.06
   8   1   1  153.47   12.84
   8   1   1  167.48   10.88
   8   1   2   20.79   10.52
   8   1   2   31.02    6.08
   8   1   2   24.39    4.62
   8   1   3   35.01   12.36
   8   1   3   19.63    4.86
   8   1   3   29.75    5.44
   8   1   4  172.92   12.81
   8   1   4  171.33   12.39
   8   1   5  239.31   14.74
   8   1   5  258.44   15.93
   8   1   6  186.58   14.11
   8   1   7  125.10   12.18
   8   2  -5  398.67   30.51
   8   2  -4  296.30   24.54
   8   2  -3  252.39   21.03
   8   2  -2   86.16   12.21
   8   2  -1   15.27    5.44
   8   2  -1    9.54    2.75
   8   2   0  163.49   14.72
   8   2   0  149.85   10.07
   8   2   1  310.41   19.52
   8   2   1  311.70   15.03
   8   2   2  305.76   30.54
   8   2   2  313.39   18.71
   8   2   2  276.80   14.66
   8   2   3  357.30   19.55
   8   2   3  372.15   17.73
   8   2   4  495.42   42.01
   8   2   4  459.18   21.98
   8   2   4  451.81   20.00
   8   2   5  324.49   17.97
   8   2   5  360.74   18.63
   8   2   6   47.82    7.29
   8   2   7    8.90    3.94
   8   3  -4   23.06   10.09
   8   3  -3  150.80   18.57
   8   3  -2  639.25   35.61
   8   3  -1  540.05   30.62
   8   3  -1  512.33   18.34
   8   3   0  313.52   22.48
   8   3   0  303.25   14.48
   8   3   1  317.54   21.37
   8   3   1  347.90   16.06
   8   3   2  173.31   15.35
   8   3   2  167.05   11.60
   8   3   3   97.62   11.23
   8   3   3   91.23    8.90
   8   3   4    5.28    6.90
   8   3   4    1.82    2.80
   8   3   4   10.07    4.04
   8   3   5  100.87   11.20
   8   3   5  112.28   10.57
   8   3   6  159.84   13.05
   8   3   7  100.40   10.99
   8   4  -3  358.89   30.70
   8   4  -2  295.58   26.50
   8   4  -1   -0.61    4.02
   8   4  -1    5.36    2.80
   8   4   0   10.86    6.26
   8   4   0    4.44    2.64
   8   4   1   32.47    8.56
   8   4   1   38.10    5.60
   8   4   2  127.21   14.56
   8   4   2  109.77    9.56
   8   4   3  142.59   21.03
   8   4   3  147.77   15.16
   8   4   3  148.43   11.49
   8   4   4  421.45   37.12
   8   4   4  459.57   26.02
   8   4   4  451.65   20.55
   8   4   5  440.58   25.13
   8   4   5  449.93   21.37
   8   4   6  167.26   25.86
   8   4   6  228.19   15.61
   8   4   7   46.95    7.53
   8   5  -2  177.91   23.30
   8   5  -2  199.97   16.25
   8   5  -1  318.83   29.19
   8   5   0  128.82   18.68
   8   5   0  141.37   10.94
   8   5   1  423.01   31.41
   8   5   1  431.44   19.29
   8   5   2  316.30   25.76
   8   5   2  244.09   14.37
   8   5   3  232.44   21.40
   8   5   3  217.80   14.08
   8   5   4   32.81   11.62
   8   5   4   39.68    9.80
   8   5   4   18.02    4.65
   8   5   5   -3.12    7.66
   8   5   5    4.86    5.42
   8   5   5    0.82    2.46
   8   5   6    4.83    9.27
   8   5   6    5.92    3.75
   8   5   7   69.22   18.31
   8   5   7   56.72    8.38
   8   6   0  112.97   19.89
   8   6   0  135.06   11.44
   8   6   0  142.17   13.58
   8   6   1  117.62   19.00
   8   6   1  126.21   11.33
   8   6   1  127.95   12.68
   8   6   2   11.25    7.40
   8   6   2   26.00    5.57
   8   6   2   17.17    4.76
   8   6   3   87.87   15.88
   8   6   3   92.50    9.62
   8   6   3   89.43    9.93
   8   6   4  314.79   27.50
   8   6   4  301.24   17.23
   8   6   4  361.87   19.47
   8   6   5  223.38   15.46
   8   6   6  171.60   24.70
   8   6   6  129.91   12.31
   9  -3  -3  109.17   12.44
   9  -3  -2  243.17   17.67
   9  -3  -1  652.44   28.24
   9  -3   0  250.83   28.98
   9  -3   0  281.87   18.34
   9  -3   1  204.75   29.14
   9  -3   1  237.46   17.09
   9  -2  -4  325.49   21.90
   9  -2  -3  222.40   17.41
   9  -2  -2  130.54   13.16
   9  -2  -1   41.74    7.79
   9  -2   0    1.72    6.92
   9  -2   0    0.61    2.72
   9  -2   0    1.77    2.06
   9  -2   1   19.84   11.60
   9  -2   1   28.43    6.31
   9  -2   2  241.16   31.47
   9  -2   2  258.68   17.54
   9  -1  -4    1.69    3.28
   9  -1  -3   17.78    5.81
   9  -1  -2  163.62   15.35
   9  -1  -1  556.80   26.71
   9  -1   0  199.18   15.75
   9  -1   0  189.88   12.26
   9  -1   1   98.04   19.76
   9  -1   1   98.55    9.48
   9  -1   2  239.81   31.55
   9  -1   2  240.08   16.80
   9  -1   2  266.68   15.80
   9  -1   3  184.49   29.48
   9  -1   3  129.25   12.21
   9   0  -4  214.40   19.55
   9   0  -3  381.29   24.57
   9   0  -2  384.17   23.75
   9   0  -1  232.76   18.15
   9   0   0   40.71    7.56
   9   0   0   22.51    4.78
   9   0   1    8.45   10.67
   9   0   1    0.50    2.40
   9   0   1    0.18    2.01
   9   0   2   25.92   12.21
   9   0   2   33.90    6.76
   9   0   2   42.88    6.47
   9   0   3   46.00   17.23
   9   0   3   48.72    7.87
   9   0   3   41.69    6.58
   9   0   4  121.85   11.97
   9   0   4  145.34   12.60
   9   1  -3   37.75    8.96
   9   1  -2   60.24   10.49
   9   1  -1  165.86   16.41
   9   1   0  174.13   15.88
   9   1   0  198.60   12.39
   9   1   1  234.40   17.97
   9   1   1  215.08   13.61
   9   1   2  348.95   35.51
   9   1   2  367.90   21.80
   9   1   2  371.09   18.18
   9   1   3  283.93   34.50
   9   1   3  254.13   17.78
   9   1   3  248.27   15.43
   9   1   4  146.60   26.18
   9   1   4  121.93   12.47
   9   1   4  144.12   12.50
   9   1   5    6.53    3.96
   9   1   5   10.28    4.70
   9   2  -2  284.91   23.57
   9   2  -1  265.33   21.98
   9   2   0  293.31   22.03
   9   2   1   85.02   11.78
   9   2   1   86.60    8.80
   9   2   2   -4.04    9.14
   9   2   2    0.74    3.96
   9   2   2    1.51    2.64
   9   2   3   31.18   13.13
   9   2   3   28.88    6.97
   9   2   3   32.42    6.16
   9   2   4   61.06    9.33
   9   2   4   69.83    8.88
   9   2   5  107.24   11.81
   9   2   5  147.50   12.97
   9   3  -1    5.63    5.47
   9   3   0   30.67    8.64
   9   3   1  104.60   14.13
   9   3   1   71.17    8.30
   9   3   2  302.59   22.48
   9   3   2  316.35   17.17
   9   3   3  374.21   36.54
   9   3   3  348.72   23.91
   9   3   3  404.09   20.08
   9   3   4  154.58   25.42
   9   3   4  149.38   15.59
   9   3   4  159.55   13.13
   9   4   1   99.18   15.14
   9   4   1   85.02    8.69
   9   4   2   51.81   11.15
   9   4   2   37.60    6.13
   9   4   3   22.56    7.79
   9   4   3   28.51    5.81
_computing_structure_solution     'SHELXT 2014/4 (Sheldrick, 2014)'
;
_shelx_hkl_checksum              31691
_shelx_res_file
;
TITL rs4195_a.res in P-1
    shelx.res
    created by SHELXL-2018/3 at 14:04:26 on 24-May-2020
REM Old TITL RS4195 in P-1 #2
REM SHELXT solution in P-1
REM R1 0.117, Rweak 0.010, Alpha 0.075, Orientation as input
REM Formula found by SHELXT: C11 N3 Te
CELL 0.71073 7.0048 8.6062 10.1392 66.164 88.628 88.78
ZERR 2 0.0002 0.0003 0.0003 0.003 0.002 0.002
LATT 1
SFAC C H N Te
UNIT 24 24 4 2
TEMP -123.15
L.S. 15
acta
conf
bond $h
bind n1 n2
htab
HTAB N2 N1
EQIV $1 -x+2, -y+1, -z+1
HTAB N2 N1_$1
bind te1 h1n1
bind te1 h2n1
dfix 0.85   n1 h1n1 n1 h1n2 n2 h2n1 n2 h2n2
mpla 3 n1 h1n1 h1n2
mpla 6 c1 c2 c3 c4 c5 c6
mpla 3 n2 h2n1 h2n2
mpla 6 c7 c8 c9 c10 c11 c12
mpla 3 c2 h1n1 h1n2 n1
mpla 3 c8 h2n1 h2n2 n2
omit    -1   1   2  !      0.27      16364.36      12.74       1.000       4.00
omit     1   1   1  !     -0.08      15656.54      12.71       0.978       5.26
omit     0   1   3  !      0.11      14137.26      12.65       0.929       3.38
omit     1   0   3  !     -0.25      10066.17      12.39       0.784       2.85
omit     2  -1   1  !      0.38       9186.32      12.30       0.749       2.88
omit     1   1   0  !     19.90       6695.21      11.77       0.640       5.27
omit    -2   1   0  !      0.27       5561.94      11.74       0.583       3.18
omit     1   0   1  !      4.99       5651.75      11.70       0.588       5.63
omit     0   2   3  !     -0.08       4963.24      11.58       0.551       3.12
omit    -1  -1   2  !      0.09       4932.08      11.57       0.549       3.08
omit     0   0   1  !     -0.03       4803.44      11.53       0.542       9.27
omit    -2   2   2  !     -0.23       4484.28      11.43       0.523       2.56
omit     0   2   1  !      0.25       3716.65      11.12       0.477       4.30
omit    -2   0   2  !      0.18       3474.02      11.00       0.461       2.77
omit     0  -1   1  !      5.21       3235.79      10.83       0.445       5.07
omit    -1   0   2  !     -0.10       2733.70      10.55       0.409       3.84
omit     0   1   0  !     -0.02       1390.66       9.04       0.292       7.87
WGHT    0.021500    0.527700
FVAR       1.09015
TE1   4    0.799040    0.712669    0.058750    11.00000    0.02854    0.01968 =
         0.02071   -0.00683    0.00508    0.00115
N1    3    1.152416    0.461979    0.246975    11.00000    0.03108    0.03259 =
         0.03556   -0.01321   -0.00109   -0.00148
H1N1  2    1.151119    0.569579    0.185442    11.00000    0.04371
H1N2  2    1.260037    0.407586    0.253729    11.00000    0.06591
N2    3    0.816140    0.637317    0.408726    11.00000    0.02796    0.03594 =
         0.02169   -0.01098   -0.00181    0.00653
H2N1  2    0.893326    0.597764    0.363974    11.00000    0.03246
H2N2  2    0.821438    0.588043    0.500846    11.00000    0.04097
C1    1    0.831908    0.444370    0.167195    11.00000    0.02777    0.02072 =
         0.02066   -0.00902    0.00522    0.00161
C2    1    1.001843    0.368746    0.235612    11.00000    0.02974    0.02568 =
         0.01956   -0.01128    0.00357    0.00334
C3    1    1.012251    0.189736    0.302677    11.00000    0.03848    0.02961 =
         0.02422   -0.01186    0.00127    0.00975
AFIX  43
H3    2    1.126508    0.136094    0.349196    11.00000   -1.20000
AFIX   0
C4    1    0.860019    0.091136    0.302063    11.00000    0.05201    0.02221 =
         0.02790   -0.01016    0.00881   -0.00126
AFIX  43
H4    2    0.870739   -0.029119    0.348067    11.00000   -1.20000
AFIX   0
C5    1    0.691992    0.165427    0.235218    11.00000    0.04192    0.02784 =
         0.03399   -0.01423    0.00960   -0.00748
AFIX  43
H5    2    0.586994    0.097238    0.235456    11.00000   -1.20000
AFIX   0
C6    1    0.679076    0.340874    0.167867    11.00000    0.03007    0.02828 =
         0.03153   -0.01366    0.00512   -0.00118
AFIX  43
H6    2    0.564225    0.392455    0.121032    11.00000   -1.20000
AFIX   0
C7    1    0.597175    0.741636    0.206335    11.00000    0.02371    0.01700 =
         0.02292   -0.00880    0.00355    0.00005
C8    1    0.639138    0.697734    0.352095    11.00000    0.02692    0.01814 =
         0.02304   -0.00802    0.00196    0.00018
C9    1    0.495677    0.723753    0.440639    11.00000    0.03343    0.02742 =
         0.02296   -0.00962    0.00533    0.00092
AFIX  43
H9    2    0.519978    0.692485    0.539947    11.00000   -1.20000
AFIX   0
C10   1    0.319901    0.793841    0.386532    11.00000    0.02877    0.02708 =
         0.03431   -0.01443    0.00884    0.00016
AFIX  43
H10   2    0.225347    0.809897    0.448766    11.00000   -1.20000
AFIX   0
C11   1    0.280911    0.840930    0.241438    11.00000    0.02310    0.02570 =
         0.03820   -0.01393    0.00125    0.00205
AFIX  43
H11   2    0.161479    0.891668    0.203528    11.00000   -1.20000
AFIX   0
C12   1    0.418762    0.812747    0.153095    11.00000    0.02698    0.02267 =
         0.02648   -0.01102   -0.00083    0.00077
AFIX  43
H12   2    0.391751    0.842237    0.054446    11.00000   -1.20000
AFIX   0
HKLF 4
REM  rs4195_a.res in P-1
REM wR2 = 0.0490, GooF = S = 1.095, Restrained GooF = 1.095 for all data
REM R1 = 0.0204 for 2890 Fo > 4sig(Fo) and 0.0252 for all 2976 data
REM 152 parameters refined using 4 restraints
END
WGHT      0.0214      0.5261
REM Instructions for potential hydrogen bonds
HTAB N2 N1
HTAB N2 N1_$1
REM Highest difference peak  1.273,  deepest hole -1.280,  1-sigma level  0.198
Q1    1   0.5228  0.3734  0.1562  11.00000  0.05    1.27
Q2    1   0.7720  0.1580  0.2832  11.00000  0.05    0.76
Q3    1   1.0585  0.5816  0.1002  11.00000  0.05    0.65
Q4    1   1.1197  0.6393  0.1161  11.00000  0.05    0.61
Q5    1   1.1051  0.2343  0.3109  11.00000  0.05    0.61
Q6    1   0.5722  0.7073  0.4018  11.00000  0.05    0.55
Q7    1   1.0319  0.6501  0.0405  11.00000  0.05    0.55
Q8    1   0.8461  0.5347  0.1209  11.00000  0.05    0.52
Q9    1   0.5268  0.8473 -0.0191  11.00000  0.05    0.51
Q10   1   0.3628  0.7967  0.2120  11.00000  0.05    0.51
Q11   1   0.4405  0.8271 -0.0297  11.00000  0.05    0.50
Q12   1   1.0024  0.2774  0.2548  11.00000  0.05    0.50
Q13   1   0.5979  0.0711  0.1937  11.00000  0.05    0.47
Q14   1   0.8077  0.5280  0.2472  11.00000  0.05    0.47
Q15   1   0.7413  0.3189  0.2210  11.00000  0.05    0.47
Q16   1   0.6205  0.1616  0.1198  11.00000  0.05    0.46
Q17   1   1.0238  0.3365  0.0716  11.00000  0.05    0.44
Q18   1   0.4988  0.7994  0.1845  11.00000  0.05    0.43
Q19   1   0.3267  0.8204  0.0581  11.00000  0.05    0.42
Q20   1   0.7206  0.5216  0.2207  11.00000  0.05    0.42
;
_shelx_res_checksum              81609
loop_
_space_group_symop_operation_xyz
'x, y, z'
'-x, -y, -z'
loop_
_atom_site_type_symbol
_atom_site_label
_atom_site_fract_x
_atom_site_fract_y
_atom_site_fract_z
_atom_site_U_iso_or_equiv
_atom_site_adp_type
_atom_site_calc_flag
_atom_site_occupancy
_atom_site_disorder_assembly
_atom_site_disorder_group
Te Te1 0.79904(2) 0.71267(2) 0.05875(2) 0.02352(5) Uani d 1 . .
N N1 1.1524(3) 0.4620(3) 0.2470(2) 0.0332(4) Uani d 1 . .
H H1N1 1.151(5) 0.570(2) 0.185(3) 0.044(8) Uiso d 1 . .
H H1N2 1.260(4) 0.408(4) 0.254(4) 0.066(11) Uiso d 1 . .
N N2 0.8161(3) 0.6373(3) 0.4087(2) 0.0288(4) Uani d 1 . .
H H2N1 0.893(4) 0.598(4) 0.364(3) 0.032(7) Uiso d 1 . .
H H2N2 0.821(4) 0.588(4) 0.5008(19) 0.041(8) Uiso d 1 . .
C C1 0.8319(3) 0.4444(2) 0.1672(2) 0.0230(4) Uani d 1 . .
C C2 1.0018(3) 0.3687(3) 0.2356(2) 0.0244(4) Uani d 1 . .
C C3 1.0123(3) 0.1897(3) 0.3027(2) 0.0306(4) Uani d 1 . .
H H3 1.126508 0.136094 0.349196 0.037 Uiso calc 1 . .
C C4 0.8600(4) 0.0911(3) 0.3021(2) 0.0342(5) Uani d 1 . .
H H4 0.870739 -0.029119 0.348067 0.041 Uiso calc 1 . .
C C5 0.6920(4) 0.1654(3) 0.2352(3) 0.0341(5) Uani d 1 . .
H H5 0.586994 0.097238 0.235456 0.041 Uiso calc 1 . .
C C6 0.6791(3) 0.3409(3) 0.1679(2) 0.0295(4) Uani d 1 . .
H H6 0.564225 0.392455 0.121032 0.035 Uiso calc 1 . .
C C7 0.5972(3) 0.7416(2) 0.2063(2) 0.0210(3) Uani d 1 . .
C C8 0.6391(3) 0.6977(2) 0.3521(2) 0.0228(4) Uani d 1 . .
C C9 0.4957(3) 0.7238(3) 0.4406(2) 0.0282(4) Uani d 1 . .
H H9 0.519978 0.692485 0.539947 0.034 Uiso calc 1 . .
C C10 0.3199(3) 0.7938(3) 0.3865(2) 0.0296(4) Uani d 1 . .
H H10 0.225347 0.809897 0.448766 0.035 Uiso calc 1 . .
C C11 0.2809(3) 0.8409(3) 0.2414(3) 0.0287(4) Uani d 1 . .
H H11 0.161479 0.891668 0.203528 0.034 Uiso calc 1 . .
C C12 0.4188(3) 0.8127(2) 0.1531(2) 0.0250(4) Uani d 1 . .
H H12 0.391751 0.842237 0.054446 0.030 Uiso calc 1 . .
loop_
_atom_site_aniso_label
_atom_site_aniso_U_11
_atom_site_aniso_U_22
_atom_site_aniso_U_33
_atom_site_aniso_U_12
_atom_site_aniso_U_13
_atom_site_aniso_U_23
Te1 0.02854(8) 0.01968(7) 0.02071(8) 0.00115(5) 0.00508(5) -0.00683(5)
N1 0.0311(9) 0.0326(10) 0.0356(10) -0.0015(8) -0.0011(8) -0.0132(8)
N2 0.0280(9) 0.0359(9) 0.0217(8) 0.0065(7) -0.0018(7) -0.0110(7)
C1 0.0278(9) 0.0207(8) 0.0207(9) 0.0016(7) 0.0052(7) -0.0090(7)
C2 0.0297(9) 0.0257(9) 0.0196(9) 0.0033(7) 0.0036(7) -0.0113(7)
C3 0.0385(11) 0.0296(10) 0.0242(10) 0.0098(8) 0.0013(8) -0.0119(8)
C4 0.0520(14) 0.0222(9) 0.0279(11) -0.0013(9) 0.0088(9) -0.0102(8)
C5 0.0419(12) 0.0278(10) 0.0340(11) -0.0075(9) 0.0096(9) -0.0142(9)
C6 0.0301(10) 0.0283(10) 0.0315(11) -0.0012(8) 0.0051(8) -0.0137(9)
C7 0.0237(8) 0.0170(8) 0.0229(9) 0.0000(6) 0.0036(7) -0.0088(7)
C8 0.0269(9) 0.0181(8) 0.0230(9) 0.0002(7) 0.0020(7) -0.0080(7)
C9 0.0334(10) 0.0274(10) 0.0230(9) 0.0009(8) 0.0053(8) -0.0096(8)
C10 0.0288(10) 0.0271(10) 0.0343(11) 0.0002(8) 0.0088(8) -0.0144(9)
C11 0.0231(9) 0.0257(9) 0.0382(11) 0.0021(7) 0.0012(8) -0.0139(9)
C12 0.0270(9) 0.0227(9) 0.0265(10) 0.0008(7) -0.0008(7) -0.0110(8)
loop_
_atom_type_symbol
_atom_type_description
_atom_type_scat_dispersion_real
_atom_type_scat_dispersion_imag
_atom_type_scat_source
C C 0.0033 0.0016 'International Tables Vol C Tables 4.2.6.8 and 6.1.1.4'
H H 0.0000 0.0000 'International Tables Vol C Tables 4.2.6.8 and 6.1.1.4'
N N 0.0061 0.0033 'International Tables Vol C Tables 4.2.6.8 and 6.1.1.4'
Te Te -0.5308 1.6751 'International Tables Vol C Tables 4.2.6.8 and 6.1.1.4'
loop_
_geom_angle_atom_site_label_1
_geom_angle_atom_site_label_2
_geom_angle_atom_site_label_3
_geom_angle_site_symmetry_1
_geom_angle_site_symmetry_3
_geom_angle
_geom_angle_publ_flag
C7 Te1 C1 . . 96.36(7) y
C7 Te1 H1N1 . . 113.5(6) ?
C1 Te1 H1N1 . . 59.9(5) ?
C7 Te1 H2N1 . . 59.9(4) ?
C1 Te1 H2N1 . . 66.3(5) ?
H1N1 Te1 H2N1 . . 53.7(7) ?
C2 N1 N2 . . 84.56(12) ?
C2 N1 H1N1 . . 115(2) ?
N2 N1 H1N1 . . 78(2) ?
C2 N1 H1N2 . . 111(3) ?
N2 N1 H1N2 . . 148(3) ?
H1N1 N1 H1N2 . . 116(3) ?
C8 N2 N1 . . 123.77(13) ?
C8 N2 H2N1 . . 120(2) ?
N1 N2 H2N1 . . 4(2) ?
C8 N2 H2N2 . . 116(2) ?
N1 N2 H2N2 . . 111(2) ?
H2N1 N2 H2N2 . . 115(3) ?
C2 C1 C6 . . 119.40(18) ?
C2 C1 Te1 . . 121.91(15) ?
C6 C1 Te1 . . 118.68(15) ?
N1 C2 C1 . . 122.51(19) ?
N1 C2 C3 . . 119.3(2) ?
C1 C2 C3 . . 118.08(19) ?
C4 C3 C2 . . 121.4(2) ?
C4 C3 H3 . . 119.3 ?
C2 C3 H3 . . 119.3 ?
C3 C4 C5 . . 120.7(2) ?
C3 C4 H4 . . 119.7 ?
C5 C4 H4 . . 119.7 ?
C4 C5 C6 . . 119.0(2) ?
C4 C5 H5 . . 120.5 ?
C6 C5 H5 . . 120.5 ?
C5 C6 C1 . . 121.5(2) ?
C5 C6 H6 . . 119.2 ?
C1 C6 H6 . . 119.2 ?
C12 C7 C8 . . 119.93(18) ?
C12 C7 Te1 . . 117.65(14) ?
C8 C7 Te1 . . 122.39(14) ?
N2 C8 C9 . . 119.47(19) ?
N2 C8 C7 . . 122.63(18) ?
C9 C8 C7 . . 117.86(18) ?
C10 C9 C8 . . 121.5(2) ?
C10 C9 H9 . . 119.2 ?
C8 C9 H9 . . 119.2 ?
C9 C10 C11 . . 120.33(19) ?
C9 C10 H10 . . 119.8 ?
C11 C10 H10 . . 119.8 ?
C12 C11 C10 . . 119.02(19) ?
C12 C11 H11 . . 120.5 ?
C10 C11 H11 . . 120.5 ?
C11 C12 C7 . . 121.29(19) ?
C11 C12 H12 . . 119.4 ?
C7 C12 H12 . . 119.4 ?
loop_
_geom_bond_atom_site_label_1
_geom_bond_atom_site_label_2
_geom_bond_site_symmetry_2
_geom_bond_distance
_geom_bond_publ_flag
Te1 C7 . 2.1180(18) y
Te1 C1 . 2.1286(19) y
Te1 H1N1 . 2.83(3) y
Te1 H2N1 . 2.93(3) y
N1 C2 . 1.373(3) ?
N1 N2 . 3.490(3) ?
N1 H1N1 . 0.883(18) ?
N1 H1N2 . 0.868(18) ?
N2 C8 . 1.379(3) ?
N2 H2N1 . 0.848(17) ?
N2 H2N2 . 0.857(17) ?
C1 C2 . 1.401(3) ?
C1 C6 . 1.405(3) ?
C2 C3 . 1.411(3) ?
C3 C4 . 1.379(3) ?
C3 H3 . 0.9500 ?
C4 C5 . 1.382(4) ?
C4 H4 . 0.9500 ?
C5 C6 . 1.385(3) ?
C5 H5 . 0.9500 ?
C6 H6 . 0.9500 ?
C7 C12 . 1.400(3) ?
C7 C8 . 1.406(3) ?
C8 C9 . 1.406(3) ?
C9 C10 . 1.384(3) ?
C9 H9 . 0.9500 ?
C10 C11 . 1.391(3) ?
C10 H10 . 0.9500 ?
C11 C12 . 1.385(3) ?
C11 H11 . 0.9500 ?
C12 H12 . 0.9500 ?
loop_
_geom_hbond_atom_site_label_D
_geom_hbond_atom_site_label_H
_geom_hbond_atom_site_label_A
_geom_hbond_site_symmetry_A
_geom_hbond_distance_DH
_geom_hbond_distance_HA
_geom_hbond_distance_DA
_geom_hbond_angle_DHA
_geom_hbond_publ_flag
N2 H2N1 N1 . 0.848(17) 2.645(18) 3.490(3) 175(3) yes
N2 H2N2 N1 2_766 0.857(17) 2.426(19) 3.253(3) 162(3) yes
loop_
_geom_torsion_atom_site_label_1
_geom_torsion_atom_site_label_2
_geom_torsion_atom_site_label_3
_geom_torsion_atom_site_label_4
_geom_torsion_site_symmetry_1
_geom_torsion_site_symmetry_2
_geom_torsion_site_symmetry_3
_geom_torsion_site_symmetry_4
_geom_torsion
_geom_torsion_publ_flag
N2 N1 C2 C1 . . . . 55.43(18) ?
N2 N1 C2 C3 . . . . -120.52(17) ?
C6 C1 C2 N1 . . . . -175.84(19) ?
Te1 C1 C2 N1 . . . . 5.1(3) ?
C6 C1 C2 C3 . . . . 0.2(3) ?
Te1 C1 C2 C3 . . . . -178.87(14) ?
N1 C2 C3 C4 . . . . 175.8(2) ?
C1 C2 C3 C4 . . . . -0.3(3) ?
C2 C3 C4 C5 . . . . 0.0(3) ?
C3 C4 C5 C6 . . . . 0.4(3) ?
C4 C5 C6 C1 . . . . -0.6(3) ?
C2 C1 C6 C5 . . . . 0.3(3) ?
Te1 C1 C6 C5 . . . . 179.34(16) ?
N1 N2 C8 C9 . . . . 163.18(15) ?
N1 N2 C8 C7 . . . . -19.5(3) ?
C12 C7 C8 N2 . . . . -175.81(19) ?
Te1 C7 C8 N2 . . . . 1.9(3) ?
C12 C7 C8 C9 . . . . 1.6(3) ?
Te1 C7 C8 C9 . . . . 179.30(14) ?
N2 C8 C9 C10 . . . . 176.0(2) ?
C7 C8 C9 C10 . . . . -1.5(3) ?
C8 C9 C10 C11 . . . . -0.1(3) ?
C9 C10 C11 C12 . . . . 1.6(3) ?
C10 C11 C12 C7 . . . . -1.5(3) ?
C8 C7 C12 C11 . . . . -0.1(3) ?
Te1 C7 C12 C11 . . . . -177.97(15) ?

_cod_database_fobs_code 2022380
