#------------------------------------------------------------------------------
#$Date: 2021-05-06 10:09:08 +0300 (Thu, 06 May 2021) $
#$Revision: 264984 $
#$URL: file:///home/coder/svn-repositories/cod/cif/2/02/23/2022343.cif $
#------------------------------------------------------------------------------
#
# This file is available in the Crystallography Open Database (COD),
# http://www.crystallography.net/. The original data for this entry
# were provided by IUCr Journals, http://journals.iucr.org/.
#
# The file may be used within the scientific community so long as
# proper attribution is given to the journal article from which the
# data were obtained.
#
data_2022343
loop_
_publ_author_name
'Unoki, Kohei'
'Yoshiasa, Akira'
'Kitahara, Ginga'
'Nishiayama, Tadao'
'Tokuda, Makoto'
'Sugiyama, Kazumasa'
'Nakatsuka, Akihiko'
_publ_section_title
;
 Crystal structure refinements of stoichiometric Ni~3~Se~2~ and NiSe
;
_journal_coeditor_code           EP3012
_journal_issue                   4
_journal_name_full               'Acta Crystallographica Section C'
_journal_page_first              169
_journal_page_last               175
_journal_paper_doi               10.1107/S2053229621002187
_journal_volume                  77
_journal_year                    2021
_chemical_formula_iupac          'Ni Se'
_chemical_formula_moiety         'Ni Se'
_chemical_formula_sum            'Ni Se'
_chemical_formula_weight         137.67
_chemical_name_systematic
;
Nickel selenide
;
_space_group_IT_number           194
_space_group_name_Hall           '-P 6c 2c'
_space_group_name_H-M_alt        'P 63/m m c'
_symmetry_cell_setting           hexagonal
_symmetry_space_group_name_Hall  '-P 6c 2c'
_symmetry_space_group_name_H-M   'P 63/m m c'
_cell_angle_alpha                90
_cell_angle_beta                 90
_cell_angle_gamma                120
_cell_formula_units_Z            2
_cell_length_a                   3.66147(10)
_cell_length_b                   3.66147(10)
_cell_length_c                   5.35766(16)
_cell_measurement_reflns_used    2443
_cell_measurement_temperature    293(2)
_cell_measurement_theta_max      39.7390
_cell_measurement_theta_min      3.7540
_cell_volume                     62.204(3)
_computing_cell_refinement
;
CrysAlis PRO (Rigaku OD, 2019)
;
_computing_data_collection
;
CrysAlis PRO (Rigaku OD, 2019)
;
_computing_data_reduction
;
CrysAlis PRO (Rigaku OD, 2019)
;
_computing_molecular_graphics
;
<i>VESTA</i> (Momma & Izumi, 2011)
;
_computing_publication_material
;
SHELXL2018 (Sheldrick, 2015b)
;
_computing_structure_refinement
;
SHELXL2018 (Sheldrick, 2015b)
;
_computing_structure_solution
;
<i>OLEX2</i> (Dolomanov <i>et al.</i>, 2009) and
SHELXT2018 (Sheldrick, 2015a)
;
_diffrn_ambient_temperature      293(2)
_diffrn_detector_area_resol_mean 10.0000
_diffrn_measured_fraction_theta_full 0.909
_diffrn_measured_fraction_theta_max 0.968
_diffrn_measurement_device_type
'Rigaku SuperNova Single Source diffractometer with a HyPix3000 detector'
_diffrn_measurement_method       '\w scans'
_diffrn_radiation_monochromator  mirror
_diffrn_radiation_type           MoK\a
_diffrn_radiation_wavelength     0.71073
_diffrn_reflns_av_R_equivalents  0.0538
_diffrn_reflns_av_sigmaI/netI    0.0406
_diffrn_reflns_limit_h_max       6
_diffrn_reflns_limit_h_min       -6
_diffrn_reflns_limit_k_max       6
_diffrn_reflns_limit_k_min       -6
_diffrn_reflns_limit_l_max       9
_diffrn_reflns_limit_l_min       -9
_diffrn_reflns_number            2898
_diffrn_reflns_theta_full        25.242
_diffrn_reflns_theta_max         39.7390
_diffrn_reflns_theta_min         3.7540
_exptl_absorpt_coefficient_mu    43.984
_exptl_absorpt_correction_T_max  0.349
_exptl_absorpt_correction_T_min  0.040
_exptl_absorpt_correction_type   gaussian
_exptl_absorpt_process_details
;
(CrysAlis PRO; Rigaku OD, 2019)
;
_exptl_crystal_colour            silver
_exptl_crystal_density_diffrn    7.350
_exptl_crystal_description       plate
_exptl_crystal_F_000             124
_exptl_crystal_size_max          0.125
_exptl_crystal_size_mid          0.112
_exptl_crystal_size_min          0.034
_refine_diff_density_max         1.228
_refine_diff_density_min         -1.735
_refine_ls_extinction_method     none
_refine_ls_goodness_of_fit_ref   1.238
_refine_ls_hydrogen_treatment    undef
_refine_ls_matrix_type           full
_refine_ls_number_parameters     5
_refine_ls_number_reflns         91
_refine_ls_number_restraints     0
_refine_ls_restrained_S_all      1.238
_refine_ls_R_factor_all          0.0193
_refine_ls_R_factor_gt           0.0176
_refine_ls_shift/su_max          0.000
_refine_ls_shift/su_mean         0.000
_refine_ls_structure_factor_coef Fsqd
_refine_ls_weighting_details
'w=1/[\s^2^(Fo^2^)+(0.0278P)^2^] where P=(Fo^2^+2Fc^2^)/3'
_refine_ls_weighting_scheme      calc
_refine_ls_wR_factor_ref         0.0429
_reflns_number_gt                85
_reflns_number_total             91
_reflns_threshold_expression     'I > 2\s(I)'
_cod_data_source_file            ep3012sup1.cif
_cod_data_source_block           II
_cod_depositor_comments
'Adding full bibliography for 2022342--2022343.cif.'
_cod_original_cell_volume        62.204(4)
_cod_database_code               2022343
_cod_database_fobs_code          2022343
_shelx_hkl_file
;
   0   0  -1 4.75163 15.7740   9
   0   0   1-2.59709 16.0921   4
   0   0  -1-2.47676 20.8817  18
   0   0   1 61.7111 17.9629   5
   0   0   1 10.6787 20.7922  10
   0   0   1 28.4013 25.3966   7
   0   0   1 26.9050 19.0918  19
   0   0  -1 44.8643 17.8321   6
   0   0  -1 1.68680 12.7234   5
   0   0  -1 17.3612 21.1103   2
   0   0  -1 5.88500 9.82889  17
   0   0   1 3.22398 14.5133   6
   0   0  -2 2768.75 117.223  17
   0   0   2 2677.02 150.989   4
   0   0  -2 2814.39 148.403  18
   0   0   2 2422.88 153.559  10
   0   0  -2 2701.33 155.574  14
   0   0  -2 2525.74 142.017   9
   0   0   2 2845.38 106.394  16
   0   0   2 2635.30 160.426   7
   0   0  -2 2560.26 126.834   5
   0   0   2 2482.16 133.137  19
   0   0  -3 24.7144 16.0661  17
   0   0  -3 89.8763 25.9544   5
   0   0  -3 3.67204 25.1556   9
   0   0  -3 31.9928 33.0366   1
   0   0   3 9.04672 19.3702  19
   0   0  -3-3.84509 26.7363  18
   0   0   3 4.84570 25.8425  10
   0   0  -3 52.5404 33.2087  14
   0   0   3 8.36245 23.3888   4
   0   0   3 4.98147 28.4879   7
   0   0   4 102477. 3197.05   4
   0   0  -4 101804. 3193.73  18
   0   0   4 95258.0 3210.21  10
   0   0  -4 100698. 3217.53  14
   0   0   4 93964.1 3210.88   7
   0   0  -4 97548.3 3181.07   9
   0   0  -4 98804.3 3228.67   1
   0   0  -4 97604.7 3210.55  21
   0   0  -5 5.18267 43.2498  21
   0   0   5 8.35662 33.0416   4
   0   0  -5 5.36256 40.9352  14
   0   0   5 10.5797 34.5411  10
   0   0   5-5.43604 34.8992   7
   0   0  -5-5.84599 40.0358   1
   0   0  -6 681.549 89.2357  21
   0   0   6 800.041 94.7760   7
   0   0  -6 913.453 100.492  14
   0   0   6 784.751 92.5413  10
   0   0  -6 877.314 100.267   1
   0   0  -7 58.3680 52.0722  14
   0   0   7 21.5712 43.6047  20
   0   0   7 11.7138 46.3162   7
   0   0  -7-11.0876 54.0982  21
   0   0  -7-12.5098 55.3016   1
   0   0   7-11.8573 42.9927  10
   0   0   8 12958.0 536.211   7
   0   0  -8 13781.5 551.606   1
   0   0  -8 13145.9 531.713  14
   0   0   8 12731.3 536.012  10
   0   0  -8 12715.9 529.331  21
   0   0   9 121.328 67.0736   7
   0   0  -9 57.4701 69.3596   1
   0   0   9-12.1810 58.5454  10
   0   0  -9-17.0917 65.8566  21
   1   0   0 9770.40 324.476  17
   0  -1   0 6758.01 330.374   6
   0  -1   0 8638.55 299.879  23
   1   0   0 9196.50 304.274   8
   1   0   0 7831.05 281.637  19
   0  -1   0 8414.23 277.976  12
   0  -1   0 9808.39 288.836   4
  -1   0   0 8159.28 280.677  20
  -1   1   0 8003.59 277.326  13
   1  -1   0 8159.20 352.497  19
  -1   1   0 7807.29 264.070   7
  -1   0   0 7927.92 275.647  15
   0  -1   0 10072.3 365.065  16
   0  -1   0 9442.06 326.512   5
  -1   0   0 8644.27 263.747   2
   0   1   0 8379.44 262.805   3
   1   0   0 7586.12 272.659  14
  -1   0   0 8057.00 261.435   1
   0   1   0 10522.5 274.821  14
  -1   0   0 7629.55 268.726   3
   0  -1   0 8170.73 276.062  18
   0   1   0 7604.98 268.927   2
   0  -1   0 7650.34 281.625  11
  -1   0   0 8425.14 277.902  13
  -1   1   0 8142.27 273.583  20
   0  -1   0 7324.87 271.978  21
  -1   1   0 7086.15 273.862   3
  -1   1   0 7491.86 276.367  22
  -1   1   0 7681.54 271.281  15
   1  -1   0 8131.99 277.998  12
   0   1  -1 50016.0 1634.25   2
   1  -1  -1 43105.0 1691.38   8
   0  -1  -1 54833.4 1710.94  16
   0  -1   1 45493.3 1662.57   6
   1   0   1 51866.3 1643.47  17
   1   0  -1 54400.4 1669.64   8
  -1   1  -1 52163.5 1642.74   2
   0  -1   1 57026.2 1729.42   4
  -1   1  -1 51973.3 1642.07   3
   1   0  -1 57036.1 1687.84   9
   0  -1  -1 51028.0 1632.11   1
   1  -1  -1 51404.8 1639.15   1
  -1   1  -1 51843.0 1637.05  13
  -1   0  -1 50669.8 1626.67  11
  -1   1   1 51084.4 1641.50  13
   0  -1   1 53927.0 1713.09  16
   0  -1  -1 51792.9 1621.51  15
  -1   0   1 51154.1 1632.07  13
  -1   1   1 48181.5 1636.04   7
   1  -1  -1 51693.3 1665.18   5
  -1   0   1 53960.8 1642.91   7
   0  -1  -1 50219.3 1739.44   5
   1  -1   1 49262.5 1675.77  10
   1  -1  -1 53895.9 1658.01  16
   1   0  -1 48952.7 1627.56   1
  -1   0  -1 48498.4 1633.80  15
   0  -1  -1 49954.7 1638.01  21
   0  -1  -1 47113.0 1725.50   6
   0  -1   1 51014.6 1642.90  11
  -1   0  -1 49930.7 1634.74   3
   1   0  -1 50702.8 1639.95  14
   0  -1   1 50191.4 1643.25  12
   0   1   1 51518.3 1616.06  15
   1  -1  -1 51973.3 1632.28  21
  -1   0  -1 50203.6 1639.52  23
   1   0   1 51260.8 1652.68   8
   1  -1   1 51122.3 1644.11   4
  -1   0  -1 54378.2 1672.59  21
   0  -1   1 50017.9 1617.30  20
   1  -1   1 52539.4 1765.33  19
   0  -1  -1 53038.8 1660.57  23
  -1   0  -1 54474.2 1647.41   2
  -1   0   1 50438.7 1638.96  20
   0  -1  -1 52213.6 1631.56  12
   1   0   1 52484.1 1649.80  19
   0   1  -1 54638.4 1682.11   9
   1   0  -1 56081.0 1728.43  17
   0  -1  -1 53426.6 1649.00  18
   0  -1  -1 51007.7 1642.79  11
  -1   1   1 52609.5 1627.13  15
   0  -1   1 56035.1 1663.41  23
   1  -1  -1 51492.9 1633.24  14
   0   1  -1 50443.2 1618.13  20
   0  -1   1 51706.1 1628.41   7
   1  -1  -1 53079.3 1636.64  18
  -1   1   1 52828.7 1621.21  19
  -1   1   1 50356.7 1642.49  20
  -1   1  -1 50381.1 1643.90  15
   0   1  -1 48989.6 1710.70  14
  -1   0  -1 50615.4 1646.21   6
   1  -1   1 50011.4 1632.50  12
   1   0   2 90783.9 2847.79   4
   0  -1   2 93175.8 2865.13  11
   0  -1  -2 95682.5 2880.20  23
   0  -1  -2 92758.0 2955.04   5
   0  -1  -2 91865.6 2866.53   1
   0  -1   2 87366.4 2873.09  23
   1  -1   2 97720.2 2970.67  19
   0   1  -2 83494.9 2921.19   9
   0  -1   2 98063.4 2881.59  16
  -1   0  -2 82852.2 2944.40  18
  -1   1  -2 88672.6 2891.21  15
  -1   0  -2 86484.6 2941.38  21
  -1   0  -2 89774.1 2859.38  15
  -1   0  -2 88469.8 2837.73  23
   1   0   2 89617.5 2865.39  10
   1   0   2 91837.3 2865.69   8
   0  -1  -2 82250.5 2898.18  16
   0  -1  -2 85559.3 2946.23   6
  -1   1   2 95678.5 2865.68  10
  -1   1   2 96851.6 2893.20  20
   1   0  -2 91332.0 2872.11  14
   1  -1  -2 93115.5 2894.36   5
   0   1  -2 97519.0 2956.63  14
   1   0   2 89087.4 2876.31  19
  -1   0   2 90507.6 2861.20  20
   1  -1  -2 89127.7 2854.83  21
  -1   0  -2 80803.6 2918.81   2
   0  -1  -2 90120.3 2867.15  21
  -1   1  -2 89900.4 2870.06   3
   0   1  -2 90620.4 2880.26   2
   1  -1  -2 87604.5 2850.79  18
   0  -1   2 89744.0 2853.19   7
   0  -1  -2 96360.4 2901.86  18
  -1   0  -2 88140.1 2830.03  11
   1  -1   2 92752.1 2882.95   4
   1  -1  -2 90476.3 2857.66  16
   1  -1  -2 92415.7 2856.61  14
  -1   0  -2 92618.1 2870.82   6
  -1   0   2 86119.4 2864.67   7
   0   1   2 90095.5 2862.10  10
  -1   0  -2 88843.2 2831.05   9
   0   1   2 87476.8 2840.76  19
  -1   1  -2 90244.3 2869.34   2
   0  -1  -2 82730.2 2869.89  14
   1   0  -2 96521.4 2888.04   1
   1  -1  -2 92351.5 2865.34   1
   0  -1   2 92580.6 2876.80  10
   1  -1   2 95169.4 2970.98  10
   1  -1   2 87452.4 2851.28  12
   1   0  -2 81992.8 2933.35   9
  -1   0   2 88856.9 2850.95  13
   0  -1   2 91538.3 2843.74  20
  -1   1   2 95627.4 2903.21   7
   1   0  -2 85996.7 2881.25   8
   0   1   2 89921.7 2834.75   8
   0  -1   2 94888.1 2957.47   4
   1   0  -2 79922.1 2931.08  17
   0   1   2 82138.0 2835.71   4
  -1   1   3 30868.5 1113.37  20
   1   0   3 31247.0 1053.79   8
   1   0  -3 32415.9 1039.91   5
   0  -1  -3 33606.2 1123.93   6
   0  -1  -3 33239.3 1112.69   5
   0   1  -3 34865.2 1138.07  14
   1  -1   3 30379.4 1090.62   4
  -1   0  -3 32445.3 1118.78  21
   0  -1   3 31840.4 1065.19  11
  -1   0  -3 30353.9 1062.06   6
  -1   1   3 24474.4 1089.97   7
   0   1  -3 28948.5 1096.44  17
   1  -1  -3 30061.6 1092.69   5
   0  -1   3 33461.6 1118.29  10
   1  -1   3 37606.2 1167.33  10
  -1   0   3 32436.4 1085.41   7
   1   0  -3 29580.7 1123.93   9
   1   0   3 28284.8 1077.36  19
  -1   0  -3 30284.2 1070.98  15
   0  -1  -3 30178.5 1109.64  18
   1  -1   3 37267.6 1139.05   7
   0  -1   3 32427.5 1071.22  20
  -1   0   3 34674.9 1084.74  20
   0  -1  -3 29435.0 1073.74  14
   0   1  -3 28178.0 1132.20   9
   0  -1  -3 32131.1 1090.68  21
   1  -1  -3 31899.2 1036.10  16
   1   0  -3 24878.1 1049.44   8
   1  -1  -3 34435.7 1090.33   1
  -1   1  -3 33515.9 1096.96   2
   1   0  -3 33710.6 1106.74  14
  -1   0   3 33619.6 1087.50  10
   1  -1  -3 33882.4 1077.99  21
  -1   0  -3 33185.5 1134.97  18
   0   1  -3 30430.9 1116.29   2
   1  -1  -3 32184.4 1056.77  18
   1   0  -3 29155.2 1102.69   1
  -1   1  -3 33414.3 1068.24   9
   0   1   3 28585.4 1082.18  10
   0  -1  -3 32694.0 1103.27   1
   0  -1   3 31519.9 1075.69   7
   1   0   3 32043.9 1090.40  10
   0  -1   3 32740.9 1124.52   4
   1  -1   3 34535.2 1131.20  19
  -1   1   3 29251.2 1076.80  10
   1  -1  -3 33550.0 1073.78  14
   1  -1   3 32472.6 1064.31  12
   1   0  -3 31630.1 1087.55  17
   1   0   3 31390.9 1053.86   4
  -1   0   3 36073.2 1121.28   4
   0   1  -4 2099.21 173.213   2
   1   0   4 1783.88 152.786  10
   1  -1  -4 2072.50 147.760  14
  -1   0   4 2367.52 167.286  20
  -1   0  -4 2448.29 164.069   1
   0  -1  -4 1875.75 148.220  18
  -1   1  -4 2956.19 194.175   2
   1  -1   4 1712.37 144.924   4
  -1   0  -4 2018.06 147.404  21
   0  -1   4 1889.74 154.744   7
   0  -1  -4 2246.70 142.917   5
   1   0  -4 1953.37 157.308  14
   0  -1   4 1676.63 152.108  10
   1   0   4 1835.97 129.081   4
   0  -1   4 1475.81 120.856  20
   0   1   4 2364.67 186.401   7
  -1   1  -4 2287.50 146.912   9
  -1   1   4 1562.35 125.922  10
  -1   0   4 2398.79 173.698  10
   0  -1  -4 1921.13 159.464   1
   0   1  -4 2323.35 142.268  17
   1   0  -4 2189.16 152.723   9
   1   0   4 1989.30 147.316  19
   1  -1   4 2484.38 155.219   7
   0   1  -4 2098.45 162.127   9
   1  -1  -4 2089.10 161.616   1
  -1   0  -4 1949.87 134.420   6
   1  -1   4 2517.03 167.605  10
  -1   0   4 2418.60 178.411   7
   0  -1  -4 2301.56 138.173  14
   1  -1  -4 1696.54 135.052   5
   0   1   4 2129.44 167.528  10
   1   0  -4 2246.42 158.703   1
  -1   1   4 1559.91 133.190   7
  -1   0  -4 2250.39 160.002  18
   1  -1  -4 2271.29 139.801  18
  -1   1   4 1616.47 140.924  20
   0  -1   4 2033.25 149.137   4
   1  -1   4 2125.71 148.121  12
   1   0  -4 2314.16 140.199  21
   1  -1   4 2441.58 155.734  19
   0   1  -4 2221.93 160.182  14
   1  -1  -4 2044.17 150.354  21
   0  -1  -4 1844.91 154.119  21
  -1   0   4 1891.60 144.872   4
   1   0  -5 13822.4 547.660   1
   1   0  -5 11692.6 542.782  14
   0  -1  -5 13992.3 537.722  18
   0  -1  -5 13561.2 557.293   1
  -1   1   5 12294.2 530.476   7
   1   0   5 15075.7 604.808   7
  -1   0   5 11416.3 550.832   7
   1  -1  -5 12333.7 571.988   1
   0  -1  -5 14251.6 521.852  14
   0  -1  -5 12868.8 562.147  21
   1   0   5 13847.6 592.480  10
   1   0  -5 14176.4 519.388  21
   0   1   5 14945.4 578.396   7
   1  -1  -5 12040.5 543.592  21
   1  -1   5 13482.9 540.100  10
   1  -1  -5 12374.9 546.925  14
  -1   1   5 11915.2 532.407  20
   0   1  -5 14190.0 553.925   9
   0   1  -5 15169.8 561.520  14
  -1   0   5 11732.5 551.766  10
  -1   0  -5 14128.2 546.471   1
  -1   1  -5 11888.4 584.127   2
   1  -1   5 14728.5 569.021   4
   0  -1   5 11274.6 525.406   7
   0  -1   5 13945.9 534.933   4
  -1   0   5 12177.3 528.096   4
  -1   1   5 12539.4 515.894  10
  -1   0  -5 15008.5 549.005  18
  -1   1  -5 13104.7 549.104  18
   1  -1   5 14197.4 529.064   7
  -1   0  -5 14006.8 539.762  21
  -1   0   5 11486.6 541.570  20
   1   0  -5 13827.4 531.869   9
   0  -1   5 11737.5 542.172  10
   0   1   5 14686.3 556.599  10
   1  -1   6 17481.8 659.439   7
  -1   0  -6 18649.4 689.843  14
   0  -1   6 16750.5 692.168  10
  -1   0   6 17147.4 670.644   4
   1   0  -6 18394.2 688.153   1
  -1   0  -6 17543.5 674.915  21
   1   0   6 19032.5 718.264   7
  -1   1   6 17243.8 663.452  10
  -1   1   6 16362.0 679.688  20
  -1   0   6 15795.8 693.325   7
   1   0  -6 17323.6 692.342  14
   1  -1   6 19516.1 700.168   4
  -1   0  -6 17647.7 669.034  18
   1   0  -6 17001.9 655.492   9
  -1   0   6 16866.0 697.942  10
   0   1  -6 18736.4 702.664   1
  -1   1   6 15765.2 674.260   7
  -1   1  -6 18391.6 710.673  14
   0  -1   6 16968.8 662.673   4
   0   1   6 17509.7 668.290  10
  -1   0   6 15951.1 682.104  20
   1  -1  -6 18088.2 687.639  21
   0  -1  -6 17589.5 690.943   1
   0   1   6 17647.2 688.831   7
   1   0   6 18566.8 712.828  10
   1  -1  -6 17530.8 707.164   1
  -1   0  -6 17493.8 680.226   1
   0   1  -6 18592.3 680.200   9
   0  -1  -6 17401.8 692.523  21
   0  -1  -6 17547.2 664.885  18
   0  -1   6 15807.6 669.470   7
   1  -1  -6 17299.0 684.159  14
   0   1  -6 18198.8 690.778  14
   1  -1   6 17424.0 676.229  10
   1  -1   7 4909.81 273.238  10
  -1   0   7 5638.19 307.098   7
  -1   1   7 4743.09 275.860   7
  -1   1  -7 5241.19 286.241  21
   1   0   7 5051.60 283.249   7
   1   0  -7 5070.54 279.669   1
   0  -1  -7 5003.79 281.215   1
   0  -1  -7 5977.97 297.081  21
   1  -1  -7 5435.63 300.460   1
   1  -1  -7 5313.44 281.938  14
   0   1  -7 5172.49 286.088   1
  -1   1  -7 5044.50 286.988  14
   1  -1   7 4884.71 257.249   7
  -1   0   7 5391.38 298.024  10
   0   1   7 4651.18 255.717  10
   0   1  -7 5330.88 283.730  14
   0   1   7 5004.16 281.282   7
  -1   0  -7 4921.44 272.027  21
  -1   0  -7 5397.53 281.320   1
   0  -1   7 5359.07 294.378  10
  -1   0   7 5219.63 286.962  20
   0  -1   7 5318.85 281.473   7
   1   0   7 4913.70 278.114  10
  -1   0  -7 5816.74 284.687  14
   1  -1  -7 5330.19 280.084  21
   0  -1   7 5080.15 268.293   4
  -1   1   7 4940.31 278.463  20
   0   1  -7 4922.20 273.474  21
  -1   1  -7 5742.36 311.553   1
   1   0  -7 5261.14 287.826  14
   0  -1  -8 298.570 84.7117  21
   0  -1  -8 268.409 79.0547   1
  -1   1   8 281.504 78.9649   7
  -1   0  -8 333.637 81.5077  21
  -1   0   8 229.587 79.1490  10
   0  -1   8 846.884 111.597  10
  -1   1   8 274.568 82.4541  20
  -1   0   8 385.700 94.2616   7
  -1   1  -8 337.225 94.2873   1
  -1   0  -8 400.469 90.1077   1
   0   1  -8 312.682 84.2319  21
   1  -1  -8 395.806 85.6501  21
   0   1  -8 416.287 91.4297  14
   1   0  -8 304.202 80.1076   1
  -1   1  -8 351.449 91.0686  21
   1   0   8 358.957 82.5440   7
   1  -1   8 212.906 69.1353  10
   1   0  -8 277.328 84.8174  14
   0   1   8 283.821 80.2391   7
   1  -1  -8 352.925 94.9674   1
   0   1  -8 506.381 95.5444   1
   1   0   8 266.062 75.0899  10
  -1   1  -8 316.496 88.1784  14
   0   1   8 295.241 76.1957  20
  -1   1  -9 1819.41 158.396  21
   0  -1   9 1840.55 166.021  10
   0   1  -9 1918.75 162.904   1
  -1   1   9 1661.37 153.133   7
   0   1  -9 1745.06 150.759  14
  -1   0  -9 1836.79 154.370   1
   1  -1  -9 1890.99 169.776   1
   1   0   9 1744.37 150.391  10
   0   1   9 1692.91 150.220   7
   0  -1  -9 1939.74 162.978  21
   1  -1   9 1677.65 150.172  10
   1   0  -9 1830.19 159.928  14
  -1   1  -9 1824.73 156.939  14
  -1   0  -9 1501.00 145.834  21
   0   1   9 1760.82 148.767  20
   1   0  -9 1683.03 155.988   1
   1   0   9 1754.11 149.306   7
  -1   1   9 1570.39 149.001  20
  -1   1  -9 1838.51 166.420   1
  -1   0   9 1981.11 169.361   7
   0  -1  -9 1880.52 163.727   1
  -1   2   0 115239. 3701.25  13
  -1  -1   0 112526. 3750.95  23
   1   1   0 112238. 3866.99  17
   1   1   0 119266. 3810.79   9
   1  -2   0 116407. 3736.10   4
   1  -2   0 95451.6 3790.58  23
  -1  -1   0 118706. 3703.43  12
  -1  -1   0 109906. 3722.75  11
  -2   1   0 126828. 3710.77   2
  -1  -1   0 115898. 3761.43   6
  -1   2   0 118756. 3706.43   3
  -1   2   0 115823. 3715.21   2
   1  -2   0 110651. 3799.00  16
  -2   1   0 124733. 3725.29  13
  -2   1   0 121394. 3721.84  20
   1   1   0 117898. 3759.28   8
   2  -1   0 110644. 3755.58  19
  -1  -1   0 121575. 3704.46  15
  -1  -1   0 116325. 3694.76  21
  -2   1   0 117008. 3714.70   3
  -1  -1   0 107715. 3703.85  18
   2  -1   0 111967. 3785.63   8
   2  -1   0 114699. 3759.62  17
   1  -2   0 118418. 3722.47  12
   1  -2   0 97169.9 3877.13   5
  -2   1   0 121881. 3718.46  15
   1   1   0 121831. 3695.60  14
  -1   2   0 113961. 3708.35  22
   2  -1   0 121499. 3718.48  14
  -1  -1   1 4.39693 9.33445  18
  -1  -1  -1-2.87699 16.2757  21
   1  -2  -1 11.0556 21.2571  18
   1  -2  -1 153.876 20.5720   4
  -1  -1  -1 13.2413 35.3009   6
  -1   2  -1 216.826 31.5567   2
   1   1  -1 28.4227 40.7263   9
  -1   2  -1 12.3654 11.2014  13
  -2   1   1-2.23618 17.6895  13
   2  -1  -1 9.94219 31.9175  17
  -1   2   1 293.083 31.1581  13
   1  -2   1 13.4879 25.7092   4
   2  -1   1 17.2970 14.9404  12
  -1  -1  -1 2.94069 22.7246  23
  -1  -1   1 75.8789 32.4357   6
   1   1  -1 66.6267 45.8608  17
  -2   1  -1-3.56968 14.2813   2
  -2   1  -1-4.58058 18.1172  13
   1  -2  -1 12.8523 20.7511  12
   2  -1  -1 7.68971 14.9024   1
  -1  -1  -1 25.5974 17.8832  11
   1  -2   1 12.3555 11.5136  10
   1  -2   1 93.6220 46.4882   5
   1  -2   1 98.5558 26.7071  12
  -1   2   1 111.547 24.6305  20
  -1   2  -1 8.63382 14.2697   3
  -2   1   1-6.95927 17.9285  20
   1   1  -1 12.8984 15.2633  14
   2  -1  -1 2.69607 19.8186  19
   2  -1   1 4.87408 29.6322  19
   1  -2   1-5.90776 33.0376  23
   1  -2  -1-4.78050 32.7420  16
   1   1   1 15.1438 24.8168  17
  -1  -1   1 453.794 47.1708  11
   1  -2  -1-5.70084 16.6539   1
   1  -2  -1 9.48529 50.5726   5
   1  -2  -1-6.26759 38.1023  23
  -1  -1  -1-0.74597 10.0328  12
  -1  -1   1 4.31921 8.46501  13
   1  -2  -1 19.6154 20.5251  21
   2  -1  -1 5.20383 25.5829   8
   2  -1  -1 6.25795 18.2802  14
  -1  -1  -1-4.81641 11.3125  15
  -2   1  -1 31.7523 17.4900   3
  -1   2   1 73.2936 35.2400   7
  -2   1  -1 2.02118 14.6641  15
   1  -2   1 26.6289 21.7687  11
  -1  -1  -1 3.35645 27.4361  18
   1  -2   1-20.7232 37.7407  16
   1   1   1-2.90234 20.4751   8
   2  -1   1 20.0820 27.4316   8
  -1  -1   1 4.39846 26.7414  23
  -1  -1   1-4.45847 13.0278  20
  -2   1   1 5.61643 15.4699   7
  -2   1   1-1.92951 15.6081  22
  -1  -1   2 2046.19 99.5328  20
   1   1  -2 2251.51 121.707  14
   1  -2  -2 2178.42 120.392  18
   2  -1   2 2144.57 113.034   4
   1  -2   2 2439.92 119.029  11
   2  -1   2 2407.08 156.002   8
  -1  -1  -2 2261.59 107.768  11
  -1  -1  -2 2152.64 117.365  23
   2  -1  -2 2075.94 107.824   1
  -1   2   2 2154.08 148.919   7
   1  -2   2 2217.77 120.258  12
  -1   2  -2 2084.34 114.243   3
   2  -1  -2 2128.88 160.418  17
  -2   1   2 2212.93 121.260  20
  -1  -1  -2 2535.21 173.930  18
  -1   2  -2 2143.71 128.463   9
  -2   1  -2 2109.30 117.804   3
   1  -2  -2 1949.27 175.807   5
  -1  -1   2 2547.94 144.255   4
   1  -2   2 2502.46 158.517  23
   2  -1  -2 1918.91 139.008   8
  -1  -1  -2 2406.59 109.210   1
   1   1   2 2308.06 117.077   8
  -2   1  -2 2124.37 115.232   2
   1   1  -2 2092.65 180.153  17
   1   1   2 2066.03 114.047  19
   1  -2   2 2212.78 121.553  10
   1  -2   2 1920.85 152.880   4
   1   1  -2 2460.73 192.133   9
   1  -2  -2 2039.29 112.553  12
  -1   2  -2 2265.45 120.259   2
   2  -1  -2 2038.54 113.335  14
   1  -2   2 2069.26 153.611  16
  -1  -1   2 2480.42 162.727  23
  -2   1  -2 2013.79 115.482  15
  -1  -1   2 2690.56 146.580  11
  -1  -1   2 2044.72 110.089   7
  -1  -1  -2 2340.61 154.517   6
   1  -2  -2 2087.27 112.603  21
  -2   1   2 1680.84 107.968   7
  -1  -1  -2 2187.66 114.418  21
   1  -2  -2 2198.91 115.100   1
  -1   2   2 2568.60 156.139  20
  -2   1   2 2088.77 114.050  13
   2  -1   2 2203.88 121.662  10
  -2   1   2 2206.32 111.161  15
  -1  -1  -2 2125.25 100.312  15
   1  -2  -2 2483.61 147.275  16
   2  -1   2 2137.15 161.759  19
  -1  -1   3 13.5009 35.9932  23
   2  -1  -3 7.44126 30.7345   5
   1  -2   3 58.0643 37.6586  12
   1   1  -3 21.7316 39.5773  17
  -1  -1  -3 6.47130 45.6439   6
  -1  -1  -3-8.56365 21.7959  15
  -1  -1   3 2.37257 21.1722  20
   1  -2   3-16.0323 52.3451   4
   2  -1   3-10.2675 25.4853   4
   2  -1  -3 34.4796 31.0375   1
   1  -2   3 65.6158 40.8541  10
   1   1  -3 324.915 63.8184  14
   1  -2  -3-12.4795 32.1427  18
  -1  -1  -3 21.8959 36.9188  21
   2  -1   3 7.50593 39.0075  19
  -1   2   3-5.69025 35.2523   7
  -2   1  -3 34.7503 32.7552   3
   2  -1  -3-19.5364 41.0832  17
  -2   1   3 18.2260 28.1673  13
  -2   1   3-4.17346 35.1849   7
  -2   1  -3 8.18326 30.4662  15
   1   1   3 22.3385 25.8076  19
   1   1   3 37.4418 27.2254  10
   2  -1   3 15.3806 34.5784  10
  -1   2  -3-16.7672 28.2731   2
   2  -1  -3-7.40405 29.9371  14
  -2   1  -3 13.1570 27.7100   6
  -1   2   3-6.17291 45.3670  20
  -1   2  -3 19.7738 33.3415   9
   1  -2  -3 43.1171 30.5944  21
   1   1  -3 40.0278 49.5937   9
  -2   1  -3-4.40859 29.2668   2
  -1  -1  -3 260.334 75.7506  18
   1  -2  -3 7.43145 29.7196   1
   1  -2  -3 13.1284 33.8137  16
  -1  -1  -3-4.46840 31.5189   1
   1  -2  -3 22.4560 43.7197   5
   2  -1   3-17.8076 38.1111   8
  -1  -1   3 19.9755 26.0311   7
  -1  -1   3-6.69361 30.9096   4
  -2   1   3 17.4122 36.6986  20
  -1  -1  -4 62251.3 2265.29   6
   2  -1   4 63066.5 2295.18  19
   1  -2  -4 75570.4 2256.63  21
   1   1  -4 69175.5 2240.08   1
   2  -1   4 62508.7 2273.53  10
   1  -2  -4 70759.1 2254.26  18
  -1   2  -4 74864.6 2283.98   2
  -1  -1  -4 63480.0 2263.35  21
  -2   1  -4 62841.9 2266.07   2
  -1  -1  -4 66049.6 2267.62  18
   1  -2  -4 76628.1 2266.41   1
  -2   1   4 76578.0 2291.48   7
   1   1   4 73262.7 2249.92  10
   1   1  -4 70305.9 2290.66   9
  -2   1  -4 69450.1 2258.71  15
  -2   1   4 78588.5 2297.50  20
   1  -2   4 55222.9 2246.31  10
   2  -1  -4 72553.2 2228.87   5
  -1   2   4 51483.3 2222.77  20
   1  -2   4 70884.6 2261.57  12
  -1  -1   4 48810.7 2236.30   4
   2  -1  -4 75318.9 2259.00   1
  -1  -1   4 75980.6 2249.83   7
   2  -1  -4 76914.7 2263.92  14
   1  -2  -4 56681.7 2243.72   5
   2  -1   4 72893.6 2234.10   4
  -1   2   4 62658.4 2236.94   7
   1   1  -4 69015.8 2257.46  17
  -1   2  -4 63878.7 2258.99   9
   1   1  -4 59391.7 2267.96  14
  -1  -1  -4 54358.6 2232.73   1
  -2   1   4 80731.6 2265.76  13
   1  -2   4 73967.8 2318.78   4
   2  -1  -5-8.22313 53.6950  14
  -2   1  -5-39.5601 69.7534   2
   1  -2   5 8.05664 52.6079   4
  -1  -1   5 8.42579 60.2694   7
   2  -1   5 85.8288 49.7801   4
  -1  -1  -5-25.8171 62.4054  21
   1  -2   5-17.3665 64.6470  12
  -2   1  -5-8.68486 76.7853  18
  -1   2   5-12.0463 45.9782   7
   1  -2  -5 6.22136 45.1153   5
  -1  -1  -5-28.6028 60.2793   6
  -1  -1  -5-18.6277 53.8904   1
   2  -1  -5 8.08221 54.5055   1
   1  -2  -5-14.4599 57.8198  18
   2  -1   5-24.6086 63.3760   7
  -2   1   5 395.671 89.1167   7
   1  -2   5 346.938 69.7020  10
  -1   2   5 6.54541 36.6007  20
   1  -2  -5 87.8825 61.9828   1
  -2   1   5 9.67840 67.2787  20
   1   1  -5 28.2568 54.5787   9
   1  -2  -5 41.2886 59.8820  21
  -1   2  -5-8.99201 63.4199   9
   1   1  -5-72.1571 55.7329  14
  -1  -1   5 7.04820 45.2496   4
   2  -1   5-9.88427 64.5416  10
  -1   2  -5-20.0479 62.0947   2
   2  -1   5 15.5098 48.9206  19
   1   1  -5 27.9723 49.0107   1
  -1  -1  -5 45.4922 56.4043  18
  -2   1   5-24.4950 62.3280  13
   1   1  -6 870.401 111.410  14
  -1   2   6 786.115 95.6724   7
  -1   2  -6 860.356 117.717  14
   2  -1  -6 533.845 119.473  14
  -1  -1  -6 696.328 96.5004  18
   1   1   6 598.804 118.901  10
  -2   1  -6 687.552 111.885  18
   2  -1   6 842.374 108.412  19
  -1  -1   6 661.319 126.031   7
  -2   1   6 742.978 122.388   7
  -2   1   6 568.456 101.517  13
  -1   2  -6 554.416 125.499   2
   1  -2   6 885.755 108.767  10
   2  -1  -6 662.069 117.224   1
  -1  -1   6 814.890 104.369   4
  -1   2   6 674.566 95.1799  20
  -2   1   6 534.595 105.562  20
   1   1   6 751.826 136.297   7
  -1  -1  -6 783.538 100.757   1
  -1   2  -6 705.312 119.764   9
   2  -1   6 1059.31 126.776   7
   1  -2   6 679.955 101.680   4
   1  -2  -6 550.706 119.961   1
   1   1  -6 661.570 97.9710   9
  -1  -1  -6 889.363 117.762  21
   1  -2  -6 603.861 116.098  21
  -2   1  -6 850.371 111.267  21
   2  -1   6 970.523 126.229  10
   2  -1   7 37.7476 55.4855  10
  -1  -1   7-13.5174 58.6633   4
  -1   2  -7 95.4920 74.8233  14
  -1  -1  -7 79.8043 61.2341   1
  -2   1   7-45.6646 78.5165   7
  -1   2   7 12.5388 49.0160   7
   1  -2   7 85.1824 58.4609   4
  -2   1   7 89.1007 68.2856  13
   2  -1  -7 8.90368 79.4352  14
  -2   1  -7-7.92282 77.8904   1
   1  -2  -7-19.0888 79.6520   1
   1  -2  -7 36.0070 74.3533  21
   1   1   7 110.747 80.1011   7
  -1  -1   7-28.5753 66.2165   7
  -1  -1  -7 81.5446 67.8867  21
   1   1   7 8.35082 62.1759  10
  -2   1  -7 39.0134 65.7789  21
  -2   1   7 45.0341 66.1943  20
  -1   2   7 6.86409 54.2849  20
   1  -2   7 7.14590 58.4078  10
  -2   1  -7-7.38673 67.0691  18
   2  -1  -7-25.6517 75.6010   1
   1   1  -7 100.763 64.5888   9
  -1  -1  -7-23.9361 58.8319  18
   1   1  -7-7.55743 59.0843  14
  -1   2  -8 12200.7 543.121   1
   2  -1  -8 12241.8 529.360  14
  -1  -1   8 12831.3 546.673   7
  -2   1  -8 12597.7 533.157  14
  -2   1  -8 11844.1 512.027   1
   1   1   8 11722.7 518.804   7
  -2   1   8 12125.1 532.221  20
   2  -1  -8 12325.2 529.788   1
   1  -2   8 10514.5 493.661  10
   1  -2  -8 12809.6 549.737   1
  -1  -1  -8 11712.5 506.408  21
   2  -1   8 11031.7 494.678  10
  -1   2  -8 11702.8 506.008  14
   1   1  -8 11396.0 505.222  14
   1   1   8 10731.4 490.762  10
  -1   2   8 10384.1 486.230  20
   1  -2   8 9986.79 469.841   4
   1  -2  -8 12228.3 529.324  21
  -2   1  -8 10863.3 485.723  21
  -1  -1  -8 10639.2 473.271  18
  -2   1   8 12180.0 535.802   7
  -1   2   8 9671.49 472.106   7
   1   1  -9 6.86732 74.5861  14
  -1   2  -9 20.1544 67.4853  14
   2  -1  -9-29.5238 81.6005   1
  -2   1   9-40.0836 81.6562   7
  -1   2   9 18.5440 63.8180   7
   1   1   9 40.9878 71.9253   7
  -2   1  -9-6.69376 75.7047   1
  -1   2   9-13.1887 62.3982  20
   1  -2  -9 28.5410 82.4716  21
   1   1   9 6.56260 63.0760  20
   1  -2   9-20.7914 69.6182  10
   2  -1   9-6.70213 67.3246  10
  -1   2  -9 23.0325 85.8604   1
  -1  -1  -9 46.7664 77.2203  21
  -2   1  -9 6.14313 68.7009  21
   1  -2  -9 15.6003 86.7347   1
  -1   2  -9-57.0446 87.9322  21
  -1  -1   9-12.6240 69.7827  12
   2  -2   0 3752.97 185.368   5
   2  -2   0 4317.52 214.910  16
   2   0   0 3283.10 160.146  19
  -2   0   0 3463.38 149.048  13
   0  -2   0 3192.93 157.892  11
  -2   2   0 3390.22 150.019  13
   0   2   0 3297.25 136.034   2
   0  -2   0 2428.59 241.349   6
   0  -2   0 3513.11 150.444  12
  -2   2   0 3344.20 152.202  22
  -2   2   0 3125.87 148.309   2
  -2   2   0 3233.97 140.000  15
   2   0   0 4098.14 211.818  17
   2  -2   0 3964.77 208.633  19
   2   0   0 3467.03 190.867   8
   0  -2   0 3958.23 196.734  23
  -2   2   0 3058.13 146.603   3
   0  -2   0 3455.08 147.658  18
   0   2   0 4156.47 196.094   9
  -2   2   0 3181.91 139.067  20
   0  -2   0 4138.83 273.671  16
   0  -2   0 3839.60 144.386   4
  -2   0   0 3280.78 136.300   3
   2  -2   0 3224.33 149.183  12
  -2   0   0 3273.72 146.600  15
   2   0   0 3097.42 140.750  14
   2  -2  -1 32004.5 1072.92   5
   2  -2   1 35232.2 1137.52  16
   2  -2   1 30658.8 1027.46   4
   0   2  -1 30593.7 1006.42   2
  -2   2  -1 29729.1 1014.21  13
  -2   0   1 31713.8 1012.48  13
   0  -2  -1 33743.9 1166.30  16
  -2   0   1 31386.7 1026.31  20
  -2   2   1 31260.1 1025.35  13
   2  -2  -1 30899.7 1026.45  12
   2   0  -1 36064.4 1167.57  17
   0  -2   1 29113.9 1112.73   6
  -2   0  -1 30597.2 1039.42   6
  -2   2   1 31244.5 1019.91  20
   2  -2   1 29763.5 1013.79  12
  -2   0   1 31779.8 996.893  22
   0  -2  -1 30173.3 1022.65  18
  -2   0  -1 31022.3 1008.39   3
   0  -2   1 31259.8 1037.39  11
  -2   0   1 30710.0 1021.15  15
   0  -2  -1 26181.9 1171.39   6
   2  -2   1 33886.9 1061.86   5
  -2   2  -1 29146.5 1021.03   3
  -2   0  -1 29067.7 1151.68  18
   0  -2  -1 30389.8 1016.53  21
  -2   0  -1 29513.8 1008.39  11
   2  -2   1 28695.2 1072.58  10
   2   0   1 30573.1 1040.87  19
   2  -2  -1 30551.8 1009.31  21
   0  -2  -1 29970.5 1000.05   1
   2   0   1 33095.1 1052.48  17
   2  -2  -1 30597.5 1020.34   1
   2   0  -1 30719.4 1051.43   9
   0   2  -1 34022.9 1107.22   9
   0  -2  -1 33638.6 1166.78   5
   0  -2  -1 32795.8 1071.04  23
  -2   0   1 30280.9 1002.75   3
   2  -2  -1 34070.0 1072.52  16
  -2   2  -1 30241.4 1021.04  15
   2   0  -1 31331.1 1021.24  14
   0  -2  -1 30820.6 1010.75  12
   0  -2   1 32093.9 1203.24  16
   0  -2   1 26838.3 1018.79  12
  -2   0  -1 30372.7 1025.41  13
   0  -2   1 32740.1 1086.30  23
   0  -2   1 37304.4 1083.68   4
  -2   2  -1 30377.8 1024.53   2
   2   0  -1 35227.8 1105.41   8
  -2   2   1 31100.2 1027.62  22
  -2   0  -1 29169.3 1012.84  15
   2   0   1 32920.8 1063.72   8
  -2   2   1 29713.5 999.923  15
   0  -2  -1 30828.1 1032.65  11
   2  -2   1 31378.9 1198.74  19
   2  -2  -1 29806.4 1011.30  14
  -2   2   1 30106.4 1020.50   3
  -2   0  -2 54944.6 1798.68  23
   0   2  -2 54933.1 1801.43   2
   0  -2  -2 56234.0 1828.09  18
   0  -2   2 60034.4 1831.49  11
  -2   2   2 55817.7 1798.49   7
   0  -2  -2 56672.2 1789.44   1
  -2   2  -2 53719.9 1796.57  13
  -2   0   2 54049.0 1787.27  13
  -2   2  -2 57099.1 1829.74  15
   2  -2  -2 52875.7 1786.87  21
  -2   0  -2 56385.2 1805.82   3
   2   0   2 57102.0 1833.24   8
   0  -2   2 51077.6 1857.20  23
  -2   2  -2 56156.3 1813.12   3
   0  -2  -2 54788.5 1785.96  12
   0  -2  -2 58896.6 1849.86  23
  -2   0  -2 59664.7 1948.27  18
  -2   0  -2 57993.2 1826.03  21
   0  -2  -2 56202.9 1957.65   6
   2   0  -2 53923.0 1874.39   8
   2  -2   2 54010.5 1792.50  12
  -2   0   2 52766.6 1807.00   7
   2  -2   2 56722.0 1941.86  19
   0  -2   2 55676.9 1821.12  12
   0  -2   2 52559.6 1885.33   4
  -2   0  -2 57135.5 1828.57   6
  -2   0   2 54210.5 1805.15  20
   0  -2  -2 54438.4 1803.69  21
   2  -2   2 57791.4 1827.05   4
   2  -2  -2 56193.2 1860.86   5
   0  -2  -2 58214.1 1820.43  11
  -2   2   2 56159.6 1814.59  13
   0  -2  -2 52836.9 1894.38  16
   0  -2   2 59177.4 1904.53  16
   0  -2   2 53400.7 1778.00   7
   2   0  -2 49154.9 1925.68  17
  -2   2   2 55349.5 1816.95  20
  -2   2  -2 56435.4 1813.39   2
   2   0  -2 54423.1 1807.31  14
   2  -2  -2 56254.3 1829.04  16
   2  -2  -2 53256.9 1791.08  14
   0   2  -2 55700.3 1903.92   9
   2  -2   2 64352.1 1927.36  10
   0  -2  -2 55149.0 1974.76   5
   0   2  -2 60662.5 1899.90  14
  -2   0  -2 54842.2 1799.46  15
   2   0  -2 60766.3 1898.15   9
   2   0   2 55583.4 1830.64  19
   2  -2  -2 54135.1 1803.36   1
   2  -2   3 22554.2 804.189   4
   0  -2   3 23573.5 799.587  11
  -2   0   3 20216.8 776.713   7
   2   0   3 22165.0 746.763   4
   0  -2  -3 22405.5 780.336  21
  -2   2   3 23497.6 801.678   7
  -2   0   3 20538.9 743.669  13
   0  -2   3 22934.4 811.037  12
   0  -2  -3 21846.8 795.785  23
   2  -2   3 22189.6 759.385  12
   0  -2  -3 22610.0 766.065   1
  -2   2  -3 23206.1 790.999   3
  -2   0  -3 23247.4 794.870   6
   2  -2  -3 21848.2 753.026  21
   2   0  -3 23077.4 790.162  14
  -2   2   3 22889.7 792.399  13
  -2   2   3 24054.6 814.541  20
   2  -2   3 21074.6 805.927  16
   2   0   3 21358.2 777.729  10
   2  -2   3 21970.7 854.909  19
  -2   0   3 21651.8 768.617  20
   2   0   3 21971.5 800.205  19
   2  -2  -3 22906.2 837.228   5
   0  -2  -3 23155.0 826.469  18
   0   2  -3 20719.7 868.675   9
   0   2  -3 22975.3 849.248  14
  -2   0  -3 23065.5 868.767  18
   2   0  -3 21201.8 839.772  17
   0  -2  -3 23928.3 881.581   6
   0  -2  -3 19168.5 812.271  16
   2  -2  -3 21471.9 754.780  14
   2   0  -3 16989.9 791.651   8
   2   0  -3 19006.6 844.590   9
  -2   0  -3 21501.5 767.247  15
   0  -2   3 18065.1 812.293   4
   2   0   3 21695.9 781.635   8
  -2   2  -3 21754.7 815.719  15
   0   2  -3 23716.9 801.946   2
   0  -2  -3 24340.7 879.168   5
  -2   0  -3 18561.6 804.034  21
   2  -2  -3 23728.2 776.723  16
   2  -2  -3 21942.9 774.674   1
  -2   2  -3 22688.1 789.558   2
   2  -2   3 23961.0 846.386  10
  -2   0  -4 1268.53 116.514   1
  -2   0  -4 1138.62 110.588   6
  -2   2   4 1037.01 119.293   7
   2  -2  -4 1111.16 124.838   5
  -2   2   4 1199.83 127.939  13
  -2   0  -4 1014.61 104.255  15
   2   0   4 1229.93 118.522  10
   0  -2   4 1032.96 127.570  12
  -2   2  -4 1194.61 107.640   9
   2   0  -4 1309.27 127.838  14
   0  -2  -4 1368.01 125.030  21
   2  -2  -4 1436.86 109.646  21
   0  -2  -4 1333.51 117.857   1
  -2   2   4 1231.50 136.565  20
  -2   0   4 1244.52 113.105  20
   0   2  -4 864.982 130.611   9
   2  -2   4 1227.04 125.085  19
   0  -2   4 1050.16 114.222   4
  -2   0   4 1170.29 116.737   7
   0  -2  -4 1090.90 107.183  23
  -2   0  -4 1144.01 130.353  18
   2   0  -4 1353.59 121.783  17
   0   2  -4 994.329 120.194  17
   2  -2   4 1182.32 117.414  10
   2  -2  -4 1448.51 111.602  14
   0   2  -4 1187.17 127.238   2
   0   2  -4 936.255 116.409  14
   0  -2  -4 1056.80 125.734  18
   2   0  -4 950.839 123.363   9
  -2   0  -4 1044.50 114.494  21
  -2   2  -4 1332.63 129.553   2
   2  -2  -4 1062.08 112.472   1
   2  -2   4 1153.33 120.402   4
   2   0   4 1019.25 115.362  19
   2  -2  -5 12247.0 480.993  14
  -2   0   5 12231.0 530.787   7
   0   2  -5 11257.8 479.495  14
  -2   2   5 8261.62 448.563   7
  -2   0  -5 11249.8 482.134  18
   0   2   5 11299.1 519.277   7
  -2   0   5 12402.7 511.002  20
   0  -2  -5 10650.6 490.619   1
   2  -2  -5 12388.5 520.885   1
   2   0  -5 9951.08 466.492   9
   2   0   5 8925.09 464.265  19
   0  -2  -5 10975.1 508.034  21
  -2   2   5 8623.27 479.503  20
   0  -2   5 12257.5 554.131  10
   2  -2   5 10091.5 450.234  10
   2  -2  -5 8915.69 464.744   5
  -2   0  -5 11310.8 452.885   1
   0  -2  -5 9648.09 482.263  18
  -2   0  -5 10590.9 455.646  21
   0   2  -5 9689.33 494.417   9
   0   2  -5 9515.08 487.475   2
   0  -2   5 9242.07 511.262  12
   2   0   5 11028.6 507.454  10
  -2   2  -5 12647.9 545.851   2
   2  -2   5 9223.03 474.484   4
   0  -2   5 10104.7 456.824   4
   2   0  -5 10925.1 512.080  14
   2   0  -6 12061.5 594.446  14
   0   2  -6 13421.2 553.166  14
   0   2   6 12738.4 559.550   7
  -2   2   6 11743.0 538.433   7
  -2   0  -6 13457.8 544.624  18
  -2   0   6 14186.9 652.917   7
   0  -2   6 13635.0 618.812  12
   2  -2  -6 12865.8 610.893   1
   0  -2  -6 11286.2 589.930  21
   0  -2  -6 12475.3 587.058   1
   2   0   6 12077.2 604.575  10
  -2   2   6 10598.7 546.822  20
   0  -2   6 12397.1 593.308  10
  -2   0  -6 12750.6 528.032  21
   0  -2   6 12720.4 536.995   4
   2  -2   6 11486.1 515.047  10
   0  -2  -6 13396.9 554.677  18
   2   0  -6 12250.7 530.724   9
   0   2  -6 13650.2 576.665   9
  -2   0   6 13157.9 607.906  20
   2  -2   6 13293.1 588.411   4
  -2   2  -6 12856.5 657.693   2
   0  -2   7 4202.49 251.838   4
   0   2  -7 4390.81 261.287  14
  -2   0   7 4349.76 308.105   7
  -2   2  -7 4413.60 299.017  14
  -2   2   7 3980.07 257.249   7
   0   2   7 3987.56 253.675   7
   0   2  -7 4812.72 272.086   1
   2   0   7 4629.83 311.889  10
   0  -2  -7 4419.90 293.945  21
  -2   2   7 3963.24 271.354  13
   0  -2   7 4400.03 289.033  12
   2  -2   7 4472.25 281.655   4
  -2   0  -7 4037.74 246.339  18
  -2   0  -7 3780.26 236.535  21
  -2   2   7 3652.56 261.971  20
   2  -2   7 3792.33 238.793  10
   0   2  -7 3966.19 260.886   9
   0  -2  -7 4409.77 281.109   1
   2   0  -7 4329.50 290.627  14
   0  -2  -7 4330.27 252.237  18
   2  -2  -7 4456.64 316.003   1
   2   0   7 4853.94 319.297   7
   2  -2  -8 173.113 101.508   1
   2   0  -8 259.607 102.373  14
   0   2  -8 253.920 82.3221  14
  -2   2  -8 300.403 104.087  14
   0  -2  -8 148.727 85.8219   1
  -2   2   8 217.757 82.3499   7
   0   2   8 299.385 86.1383   7
   2   0   8 289.508 96.3753   7
  -2   2   8 265.204 85.2875  13
   2  -2   8 168.527 69.4784  10
   0  -2  -8 197.697 94.1847  21
  -2   2   8 266.616 86.8815  20
   0  -2   8 253.340 94.4935  12
  -2   0   8 222.463 95.1859   7
  -2   0  -8 273.794 84.2276  21
  -2   2  -8 202.218 99.0656  21
   0  -2   8 249.653 73.1438   4
   0   2   8 174.616 75.4419  20
  -2   2  -8 229.465 116.751   1
   2   0   8 170.477 82.8586  10
  -2   0  -8 199.290 80.2785  18
   2   0  -9 1768.76 168.255  14
  -2   0   9 1359.55 165.469   7
  -2   2  -9 1705.17 163.992  14
  -2   2   9 1540.10 157.004   7
  -2   2   9 1797.23 161.060  20
   0   2  -9 1421.38 142.520  14
   0   2   9 1254.92 136.453   7
  -2   2  -9 1590.00 176.844   1
  -2   2   9 1595.45 156.143  13
   2  -2  -9 1783.72 175.399   1
  -2   2  -9 1555.92 162.495  21
   2  -2   9 1262.63 131.587  10
   0  -2  -9 1524.28 165.499  21
   2   0   9 1325.50 145.960  10
  -2   0  -9 1495.19 142.513  21
   2   0   9 1553.25 146.559   7
   0  -2   9 1445.71 137.859   4
   3  -2   0 1769.96 187.342   8
  -3   1   0 1573.73 108.168  20
  -3   1   0 1635.58 109.031  13
  -3   2   0 1771.25 112.743  13
  -2   3   0 1508.48 90.0283  13
   1  -3   0 1851.84 128.970  11
  -1  -2   0 1716.32 95.2064  12
  -2  -1   0 1832.24 143.314   6
   1  -3   0 1648.44 160.540  23
   1  -3   0 1604.70 107.484  12
  -3   2   0 1654.13 102.240   2
  -1  -2   0 1670.90 134.067  23
   2  -3   0 1940.65 116.385  12
   3  -2   0 1094.32 159.505  19
  -2   3   0 1603.54 101.853  22
  -2   3   0 1571.55 105.963   2
   2  -3   0 1908.56 209.926   5
  -3   2   0 1539.81 101.076  20
   1   2   0 1802.66 209.872  17
  -2  -1   0 1636.59 133.918  23
  -1  -2   0 1686.46 113.854  11
   1  -3   0 1667.98 182.810   5
   2  -3   0 1816.63 117.088   4
   3  -1   0 1846.94 145.085  17
  -1   3   0 1550.94 98.7851   2
   3  -1   0 1852.19 136.913  19
  -2   3   0 1624.91 100.286   3
  -2  -1   0 1633.55 109.191  11
  -1  -2   0 1675.15 170.815   6
   2   1   0 2115.34 182.142  17
   1  -3   0 2020.15 194.037  16
   2  -3   0 1935.73 168.827  16
   3  -1   0 1760.68 157.527   8
  -3   2   0 1475.55 97.1359  15
   2   1   0 1921.90 145.508   8
  -3   1   0 1461.20 101.085  15
  -2  -1   0 1518.70 93.0631  15
  -3   1   0 1607.33 100.368   3
  -3   2   0 1533.89 103.904   3
   2   1  -1 24777.3 972.447  17
   1  -3  -1 22058.3 772.076  12
  -3   1   1 21581.8 778.739  20
  -3   1  -1 22122.1 780.206  13
  -1  -2  -1 22376.1 810.974  23
  -3   2  -1 21189.9 773.066  13
  -3   1   1 22027.9 772.399  13
  -3   2   1 21655.6 778.198  13
  -2   3   1 21588.5 758.977  13
  -2   3  -1 20944.7 770.975   2
   2  -3   1 25361.6 934.599  16
  -1  -2   1 21121.6 759.659  12
  -2  -1   1 24710.8 836.025   6
   1  -3   1 20995.9 773.724  12
  -2  -1  -1 25644.1 847.847   6
   2  -3   1 21079.5 769.999  12
  -2  -1   1 23874.5 862.560  23
  -3   1   1 22838.4 760.349  22
   3  -2   1 21866.6 952.506  19
   1  -3  -1 23780.1 888.184  23
  -1  -2  -1 22355.6 777.730  11
   1  -3  -1 21382.3 1000.75   5
   2  -3  -1 22354.2 778.669  12
   3  -1  -1 22668.2 807.628  19
  -3   2   1 22401.5 776.102  22
   1  -3   1 20793.8 878.507  23
   1  -3   1 24115.3 810.723  11
  -2   3  -1 21476.7 763.653   3
  -3   1  -1 21826.4 764.702   3
  -3   1  -1 20396.7 764.120  15
   3  -1  -1 23465.9 877.984  17
  -3   2  -1 20645.0 768.438   3
  -2  -1  -1 22080.4 765.308  11
  -1  -2   1 21411.8 792.500  11
   1  -3  -1 21117.6 767.369  21
  -2  -1   1 22437.5 799.050  11
   2   1   1 21587.5 782.337  19
  -3   2   1 22459.9 775.145  20
  -3   2   1 22102.4 772.829   3
   2   1   1 26051.3 845.059  17
   2  -3  -1 23134.6 950.282   5
  -3   1   1 21652.3 761.190   3
  -2  -1  -1 24926.3 816.538  18
   3  -1  -1 24316.9 892.702   8
   3  -1   1 22811.1 834.898  19
  -1  -2  -1 22050.7 765.418  18
  -1   3  -1 21604.8 763.587   2
   2   1  -1 25073.3 850.837   9
   3  -1   1 23142.9 809.261  17
   1   2  -1 20197.6 934.481   9
   1   2   1 24225.2 899.804  17
   1   2  -1 22077.2 1035.41  17
  -3   2  -1 21213.6 763.682   2
   1  -3  -1 24631.6 909.858  16
   1  -3   1 23841.7 972.277  16
   2  -3  -1 24901.0 865.348  16
   3  -2   1 23627.7 929.811   8
  -1  -2  -1 23799.3 921.338   6
   3  -2  -1 20075.6 913.747   8
   3  -1   1 23996.1 861.030   8
  -2  -1  -1 22365.4 800.100  23
  -2   3   1 22268.6 771.219  22
  -3   2  -1 21473.4 769.302  15
   1  -3   1 21958.3 901.849   4
   2   1   1 22368.3 810.041   8
  -2  -1  -1 20244.2 744.296  15
  -3   2   1 22022.8 760.361  15
   2   1  -1 26176.6 882.811   8
  -3   1   1 22065.6 770.466  15
  -2  -1   1 22025.0 762.085  15
   1   2   1 23318.0 806.291   8
  -1  -2  -1 22336.8 749.182  21
   3  -2  -1 20986.4 765.721  14
   2  -3   1 25692.9 826.243   4
   3  -1  -1 21515.1 769.301  14
  -1  -2   1 24807.6 866.204  23
  -2   3   1 21480.6 759.783   3
   3  -1  -2 34334.5 1361.88  17
  -3   1   2 36409.9 1220.57  22
  -1   3  -2 36637.1 1237.11   2
  -3   2  -2 35873.0 1237.04   2
   3  -2   2 37072.3 1248.45   4
  -3   2  -2 36446.6 1241.67  13
  -2   3  -2 33564.6 1236.73   2
  -3   1   2 36652.9 1236.37  13
  -2   3   2 37039.3 1241.07  13
   2   1  -2 38723.1 1233.82  14
  -1  -2   2 36708.1 1250.51  12
   1  -3   2 37600.1 1256.48  12
   1   2  -2 38425.4 1435.80  17
   2  -3   2 36266.3 1242.56  12
   2  -3  -2 37000.1 1247.89  12
  -3   1  -2 36976.7 1238.98   3
  -3   2   2 35688.5 1222.39   7
  -1  -2  -2 37824.3 1242.92  11
   2  -3  -2 35356.0 1230.40  21
  -2   3   2 36224.9 1227.90   3
  -2  -1  -2 36840.6 1251.78  23
   3  -2   2 38606.3 1260.61  10
  -1  -2   2 39852.0 1289.62  11
  -3   1   2 36450.1 1239.29   7
  -2  -1   2 40387.4 1308.62  11
   3  -2  -2 37203.0 1277.76   5
  -3   1   2 35989.1 1247.05  20
   1  -3  -2 36249.0 1232.41  12
   1  -3  -2 39085.1 1427.70   5
   1   2   2 36605.0 1236.18  19
   1  -3   2 40572.0 1280.98  11
   3  -1  -2 32559.7 1325.79   8
  -1  -2  -2 38383.3 1273.01  23
   2  -3  -2 36469.7 1388.81   5
   2  -3  -2 37785.3 1299.70  16
  -3   2  -2 34873.7 1241.11   3
  -3   2   2 37158.1 1241.33  22
  -3   2   2 35721.6 1239.74   3
   3  -2  -2 38685.1 1271.80  16
   1  -3  -2 37537.8 1255.31  18
  -2  -1  -2 39248.9 1349.96  18
   2   1  -2 36338.2 1364.22   9
  -2  -1   2 38954.5 1368.39  23
  -2   3  -2 35741.3 1236.90   3
   3  -2   2 38662.7 1442.03  19
   2   1  -2 35996.9 1434.73  17
  -3   2   2 35913.2 1243.49  20
   2   1   2 37043.2 1254.66  19
  -1   3  -2 38509.2 1304.36   9
   1  -3  -2 35452.1 1235.88  21
  -3   2   2 36106.2 1247.56  13
   1  -3  -2 37881.5 1338.98  16
  -1  -2   2 37326.0 1346.20  23
  -3   2   2 36476.8 1222.91  15
   1  -3   2 37979.5 1370.32  16
  -2  -1  -2 38131.1 1312.49   6
   2  -3   2 32632.3 1351.48  16
   1  -3  -2 38536.2 1347.21  23
   3  -2  -2 38181.6 1347.37   8
   3  -1  -2 36546.1 1242.26  14
   3  -1   2 37162.2 1318.48  19
   3  -1   2 38635.1 1319.75   8
  -1  -2  -2 36326.5 1223.02  21
   2  -3  -2 37337.9 1238.85   1
   3  -2  -2 37034.6 1227.71   1
  -3   1   2 36903.1 1230.18   3
  -3   2  -2 38279.0 1253.06  15
   1  -3  -2 36481.6 1225.90   1
   2   1   2 36267.8 1258.18   8
   1  -3   2 40888.2 1397.16   4
  -3   1  -2 36120.1 1240.19  15
  -2  -1  -2 35373.4 1213.77  15
  -1  -2  -2 39017.8 1394.77   6
  -1  -2  -2 40133.5 1281.12  18
   1   2   2 38715.5 1251.03   8
  -2  -1   2 36087.6 1225.17  20
   2   1  -2 38899.3 1361.89   8
  -3   1   2 36298.9 1235.84  15
  -2  -1   2 35919.4 1233.40  15
   2  -3   2 39419.0 1316.30   4
   1   2  -2 34693.9 1391.06   9
   3  -2  -2 34184.5 1230.42  14
   3  -2  -3 15012.6 584.696  14
   3  -1  -3 15333.1 594.796  14
  -2  -1   3 14983.5 586.817   7
  -2   3  -3 15717.7 602.273   2
   2   1  -3 16384.0 599.934  14
  -3   1   3 15057.2 589.783   7
  -3   2   3 16094.5 588.931   7
   3  -1   3 15734.4 580.412   4
  -3   1   3 15818.8 586.230  13
  -3   2   3 15805.8 598.305  13
  -2   3   3 16854.2 616.663  13
  -3   1   3 15016.5 566.554  22
   3  -2   3 16506.8 608.411   4
  -1  -2   3 16707.3 639.534  12
  -1  -2  -3 15092.9 701.037   6
  -3   1  -3 16754.6 600.011   6
   1  -3   3 16569.9 621.775  12
  -2  -1  -3 15088.0 689.454  18
  -1  -2  -3 17062.2 613.045  23
  -2   3  -3 15956.4 604.688   3
   2  -3   3 16407.7 602.933  12
  -3   1  -3 17454.0 613.940   3
  -3   2  -3 16237.3 606.434   3
   2   1  -3 14053.6 682.544   9
  -2  -1  -3 16028.3 649.864   6
  -1  -2  -3 16589.8 588.909  11
   2  -3  -3 14517.5 577.075  21
  -3   2  -3 15801.4 612.806  15
   1  -3  -3 15742.4 592.376  21
  -1  -2  -3 15555.8 589.152  21
  -3   2   3 16161.1 610.406  20
  -3   1   3 15067.3 598.867  20
  -2   3   3 17649.9 637.401  20
   1  -3  -3 15859.6 691.052   5
   1   2  -3 16232.9 712.141   9
   1  -3  -3 17508.4 630.543  18
   2  -3  -3 12211.6 660.553   5
   3  -2   3 17526.4 752.179  19
   3  -1   3 14921.0 658.951  19
   1   2  -3 16920.5 720.122  17
   2   1   3 16002.0 607.550  19
   3  -2   3 14600.1 625.637  10
   1   2   3 15346.3 575.983  19
   3  -1   3 17148.8 614.260  10
   1  -3  -3 15862.2 582.746   1
   3  -2  -3 15829.1 624.647   5
  -1  -2   3 17052.5 654.585  11
  -1  -2  -3 16863.6 668.570  18
  -2  -1   3 16966.2 677.561  11
  -2  -1   3 12761.3 671.018  23
   3  -1  -3 14795.7 686.707  17
  -1   3  -3 16119.0 656.881   9
  -1  -2   3 18906.8 687.546   4
   1  -3  -3 14736.0 640.588  16
   2  -3  -3 15376.7 619.554  16
  -1  -2   3 12790.6 654.644  23
   3  -1   3 16129.5 651.151   8
   1  -3   3 19116.4 725.445   4
  -3   1  -3 15492.9 599.394  15
   2   1  -3 12806.0 646.430   8
  -3   2   3 15553.7 572.035  15
   2  -3   3 15071.6 657.622   4
  -3   1   3 15773.4 590.292  15
  -2   3  -3 16405.0 620.817   9
   2  -3  -3 15896.2 592.159   1
  -1   3  -3 16690.4 604.594   2
  -3   2  -3 16699.1 605.629   2
   2   1  -3 15853.7 691.758  17
   3  -2  -3 15226.7 579.174   1
   3  -1   4 593.693 77.6462   4
   3  -2  -4 613.749 86.6196  14
   3  -1  -4 650.448 93.3548  14
   2  -3  -4 730.801 96.4390   1
  -2  -1   4 600.679 86.3729   7
   2   1  -4 832.825 107.325  14
   3  -2  -4 683.653 89.4336   1
  -3   1   4 684.099 95.0764   7
  -3   2   4 698.494 96.7481   7
   1  -3  -4 759.706 95.7310   1
   1   2  -4 668.667 107.840  14
  -1  -2   4 581.080 102.072   4
  -1   3  -4 711.281 113.258  14
   1  -3   4 635.574 106.757   4
  -1   3  -4 766.235 123.030   9
  -3   1   4 668.693 82.7360  13
  -3   2   4 668.617 92.9950  13
   2  -3   4 446.084 102.017   4
  -1  -2  -4 444.253 102.446  18
  -2   3   4 588.117 100.346  13
  -3   2  -4 688.326 103.388   3
   1  -3   4 742.909 110.902  12
   2  -3   4 655.346 94.9090  12
   3  -1   4 378.500 95.3134  19
   3  -1   4 573.209 96.4432   8
  -1  -2  -4 657.588 93.7704  21
  -2  -1  -4 600.589 117.466   6
  -2  -1  -4 628.311 95.9625  21
  -1  -2  -4 460.093 112.531   6
  -3   2   4 662.152 101.394  20
  -1  -2   4 678.842 108.600  11
  -2  -1   4 522.209 107.338  11
  -1   3  -4 705.313 100.699   2
  -2   3   4 591.766 102.073  20
  -1   3   4 361.545 77.5705  20
   2   1   4 697.985 92.0671  19
   3  -1   4 739.192 105.535  10
   3  -2   4 585.411 108.245  19
  -2   3  -4 713.615 98.4107   2
   1   2   4 809.817 90.0516  10
   2  -3  -4 621.159 93.9903  18
   3  -2   4 379.603 93.5014  10
   3  -1  -4 682.972 86.2802   5
   2   1   4 499.776 78.7343  10
   1  -3  -4 704.629 106.494  18
   1  -3  -4 658.552 110.140   5
  -2  -1  -4 593.040 104.848  18
   2  -3  -4 493.024 104.924   5
   3  -1  -4 627.981 93.9416  17
  -1  -2   4 444.130 102.237  12
   3  -2  -4 578.872 95.3623   5
  -2   3  -4 888.429 112.329   9
   2   1  -4 649.517 102.476  17
   2   1  -4 562.047 101.543   9
   1   2  -4 672.113 114.164  17
   1   2  -4 731.223 119.418   9
   1  -3  -4 690.326 96.1320  21
   2  -3  -4 623.310 86.7355  21
   1  -3  -4 487.024 87.6151  16
  -3   1  -4 865.095 102.049  15
  -3   2  -4 880.810 111.172   2
  -3   2  -4 554.554 96.9670  15
  -3   1   4 540.275 88.2121  20
  -3   1   4 565.797 85.1690  15
   3  -2   4 593.741 88.8885   4
   3  -2  -5 9465.43 424.681  14
   3  -1  -5 9217.07 439.031  14
   2   1  -5 8621.13 449.563  14
  -2  -1   5 8725.15 416.239   7
   1   2  -5 7180.50 420.999  14
  -3   1   5 9108.70 450.413   7
  -3   2   5 9684.42 467.457   7
  -1   3  -5 9076.94 420.904  14
   2  -3  -5 9480.42 438.958   1
   3  -2  -5 9592.57 429.456   1
   1  -3  -5 9557.05 435.293   1
   3  -2   5 7824.43 405.780   4
  -3   1   5 9601.20 418.455  13
  -3   2   5 10039.2 456.507  13
  -2   3   5 7811.69 436.846  13
  -1  -2  -5 8281.22 435.239   6
  -1  -2   5 6196.26 432.754  12
   1  -3   5 8295.35 445.720  12
   2  -3  -5 8620.69 419.438  18
  -2  -1  -5 7584.15 427.319   6
   1  -3  -5 9708.09 443.951  21
   2  -3  -5 9374.71 422.641  21
   2   1   5 8615.92 420.774  10
  -2  -1   5 7883.07 426.524  11
   1  -3  -5 7648.19 425.951  18
  -3   1   5 9852.00 460.285  20
   1  -3  -5 7650.13 399.097   5
   1   2  -5 8106.49 426.111   9
   1  -3   5 8885.09 456.234  10
  -2   3   5 5669.01 383.753  20
  -1   3   5 6773.27 374.692  20
  -2  -1  -5 7422.25 414.329  21
   2  -3  -5 6795.57 400.996   5
   3  -2   5 8749.30 429.507  19
   3  -1   5 7174.72 431.580  19
  -1   3  -5 7189.13 444.011   9
   3  -2  -5 9061.82 433.492   5
  -2  -1  -5 8137.79 403.447  18
  -3   1  -5 7328.50 426.767  18
   2   1  -5 7379.33 403.810   9
  -1  -2  -5 7151.07 411.780  18
   2   1  -5 7708.24 383.879  17
  -1  -2  -5 8910.08 440.057  21
  -2   3  -5 8650.29 436.903   9
  -3   2   5 10064.4 485.371  20
  -1  -2   5 7023.74 401.583   4
   1  -3   5 8470.72 415.813   4
   1   2  -5 7953.69 405.889  17
  -1   3  -5 8323.99 448.837   2
  -3   2  -5 9001.94 462.628   2
   3  -2   5 8254.64 433.688  10
  -3   1  -5 8659.00 428.788  15
  -2   3  -5 10243.6 475.012   2
   3  -1   5 7798.69 434.728  10
   2  -3   5 7815.92 438.604   4
   3  -2  -6 10786.0 508.930  14
   3  -1  -6 10330.9 519.243  14
   2   1  -6 9582.85 518.635  14
  -2  -1   6 11638.5 545.755   7
   1   2  -6 10161.4 486.527  14
  -3   1   6 12115.3 578.611   7
  -1   3  -6 10309.5 462.232  14
  -3   2   6 9646.37 510.606   7
   2  -3  -6 10912.3 538.658   1
   1   2   6 8865.64 516.637   7
  -3   2   6 9913.43 513.102  13
   3  -2  -6 10431.5 512.313   1
  -2   3   6 8123.76 479.438  13
   1  -3  -6 9735.58 510.077   1
   1  -3  -6 10615.4 531.576  21
  -1  -2   6 9842.14 528.011  12
   1  -3   6 8145.58 501.539  12
   1   2  -6 9615.24 467.074   9
   2  -3  -6 11685.6 524.905  21
  -1  -2  -6 9541.11 514.146  21
  -2  -1  -6 10562.3 491.714  21
  -3   1  -6 9571.11 426.664  21
   1  -3  -6 10071.4 457.307   5
  -3   1   6 11216.9 556.303  20
  -2   3   6 8286.11 453.518  20
   1  -3   6 9020.79 487.692  10
   2  -3  -6 9414.46 464.206   5
  -1   3   6 8612.16 435.819  20
   3  -2   6 10204.2 465.026  19
   3  -1   6 10169.5 502.734  19
   3  -2   6 9953.79 464.837  10
   3  -1   6 9579.25 527.810  10
   1  -3  -6 9117.10 482.451  18
  -2  -1  -6 9579.08 447.305  18
   2   1  -6 9647.99 458.446   9
  -3   2  -6 8961.14 513.820  18
  -1   3  -6 8914.54 507.919   9
  -3   2   6 8819.34 513.691  20
  -1   3  -6 8703.50 530.182   2
  -3   2  -6 10809.9 570.820   2
  -2   3  -6 11495.1 582.799   2
  -1  -2  -6 9021.83 456.193  18
  -1  -2   6 8522.31 451.473   4
   1  -3   6 10278.9 459.193   4
  -3   1  -6 10549.4 496.550  18
   2  -3   6 11085.2 507.423   4
   3  -2   6 9777.65 487.709   4
   2   1   6 9041.49 497.905  10
   3  -2  -7 3085.27 259.230  14
   3  -1  -7 3470.96 277.002  14
   2   1  -7 3302.27 264.863  14
   1   2  -7 3567.82 245.642  14
  -2  -1   7 3317.77 284.274   7
  -3   1   7 3471.65 289.051   7
  -1   3  -7 3449.99 229.646  14
  -3   2   7 3254.24 258.111   7
  -2   3  -7 3390.87 249.505  14
   2  -3  -7 3153.42 283.648   1
   1   2   7 3330.07 277.244   7
   2   1   7 3562.34 307.308   7
  -2   3  -7 3685.31 329.076   2
  -3   2   7 3079.71 256.962  13
  -2   3   7 3267.46 252.191  13
   3  -2  -7 3060.24 270.263   1
   1  -3  -7 3586.71 294.507   1
  -1  -2   7 3012.46 251.728  12
   3  -1   7 3872.02 282.456  10
   1  -3   7 3338.96 277.215  12
   1   2  -7 2992.14 225.717   9
   1  -3  -7 3222.12 286.185  21
  -1  -2  -7 3645.52 276.869  21
  -2  -1  -7 3598.79 243.894  21
  -3   1  -7 3009.41 201.619  21
  -3   2  -7 3388.03 230.309  21
  -2   3   7 3104.44 234.417  20
  -1   3   7 2903.29 211.834  20
   3  -2   7 3290.15 219.998  10
   2   1   7 3307.76 283.119  10
  -1  -2  -7 3363.74 229.976  18
  -2  -1  -7 3298.35 221.160  18
  -3   1  -7 3611.85 247.887  18
   2   1  -7 3296.27 223.521   9
  -3   2  -7 3735.51 280.592  18
  -3   2   7 3325.98 267.781  20
   1  -3   7 3024.01 213.211   4
   2  -3   7 3491.71 246.166   4
  -1   3  -7 3501.58 269.231   9
  -3   1   7 3115.39 266.233  20
  -3   1   8 180.176 93.4074  20
   3  -1  -8 280.740 103.411  14
   2   1  -8 157.193 98.7912  14
   1   2  -8 244.450 102.737  14
  -1   3  -8 208.244 84.2137  14
  -2   3  -8 152.461 93.4454  14
  -3   2  -8 201.509 116.047  14
  -1  -2  -8 184.114 84.6562  18
   1  -3   8 156.370 80.0662   4
   2  -3   8 130.788 75.7695   4
  -2  -1   8 169.260 105.697   7
  -3   1   8 307.212 118.608   7
  -3   2   8 249.568 103.808   7
  -3   2   8 156.898 88.2400  13
   1   2   8 133.066 89.9514   7
  -2   3   8 136.843 85.1690  13
   2   1   8 265.568 106.135   7
   2   1   8 187.228 95.6390  10
  -3   2  -8 252.746 112.878   1
  -1  -2   8 233.297 97.0140  12
  -3   1  -8 345.067 102.153  18
   1  -3  -8 332.947 113.641  21
  -1  -2  -8 215.507 108.292  21
  -2  -1  -8 162.444 92.1114  21
  -3   1  -8 254.358 78.5198  21
  -3   2  -8 89.7376 80.0268  21
   1   2  -8 210.921 88.5237   9
  -3   2   8 269.823 97.7151  20
  -2   3   8 146.713 88.2085  20
  -1   3   8 161.380 72.7061  20
  -1   3  -8 221.255 112.789   1
   3  -2   8 197.811 76.8672  10
   3  -1   8 261.271 90.1286  10
  -2  -1  -8 170.267 82.2453  18
   2   1  -8 176.683 72.6110   9
   2  -3  -8 196.596 112.180   1
   3  -2  -8 249.168 104.447   1
   1  -3  -8 190.042 100.666   1
  -3   0   0 62974.1 2120.35  13
  -3   3   0 64092.8 2126.01  13
   3  -3   0 63051.4 2128.61  12
  -3   0   0 67066.2 2171.70   6
   0  -3   0 70470.3 2241.50  23
   0  -3   0 68936.5 2127.78  12
   0  -3   0 54308.7 2310.69   6
   0  -3   0 64481.3 2155.96  11
  -3   0   0 61737.9 2130.79  11
  -3   3   0 66936.2 2135.92   3
   3   0   0 66426.0 2162.89  19
   3  -3   0 63447.5 2214.88   5
   3   0   0 70372.8 2230.37  17
   3  -3   0 62028.1 2122.74   4
   0  -3   0 60262.8 2381.46  16
   3  -3   0 62699.8 2242.94  16
  -3   3   0 63855.6 2135.08   2
   3   0   0 69425.3 2226.43   8
  -3   0   0 68470.6 2131.33  15
   3   0   0 66839.9 2116.68  14
   3   0  -1-3.48590 31.6507  14
  -3   0   1 15.9467 27.6821  13
  -3   3  -1 13.4781 30.3293  13
   0  -3  -1-15.0457 86.0221   6
  -3   3   1 19.9102 36.1551  13
   3  -3   1 4.28819 33.9119   4
  -3   3   1-8.55348 31.4311  22
   3  -3   1-10.8452 59.2495  16
  -3   0   1-4.13914 34.1886  20
  -3   3  -1-12.1274 31.9688   2
   0  -3   1 85.7215 41.8075  12
  -3   0  -1-21.8726 44.6923   6
   3   0   1-16.2891 43.9034  19
   3   0  -1-9.96224 34.6272  19
   3  -3   1 3.70314 34.1977  12
   0  -3  -1 3.67696 34.5172  18
  -3   3  -1 98.9308 39.4718   3
  -3   0  -1 15.6318 43.9254  23
  -3   3   1 15.9709 31.5756   3
   3  -3  -1 7.76620 59.2841   5
   3  -3   1 55.4157 53.3887   5
   3   0   1 72.9374 45.3658  17
  -3   3   1 4.13481 32.6990   2
   0  -3   1-9.05620 52.8922  23
   0   3  -1-20.9729 78.0722   9
   0  -3  -1 18.6203 34.5102  12
   0  -3  -1 27.4763 78.5467  16
   0  -3   1-31.8510 65.7689  16
   3  -3  -1-4.14933 39.5744  12
   0  -3  -1 6.80833 37.4169  21
   3  -3  -1-14.2513 47.2986  16
   3   0  -1 52.8365 62.9900  17
   0  -3  -1 153.209 59.8863  23
   0  -3   1 26.5849 41.0805  11
  -3   0  -1 23.8087 30.0730  15
   3   0   1 40.4030 45.4130   8
  -3   0   1-7.64031 28.0759  15
   0  -3  -1-14.7534 38.4460  11
   3   0  -1 8.84208 53.7502   8
   3   0  -2 2098.19 134.953  14
   3  -3   2 2301.12 155.022   4
  -3   3  -2 1930.18 123.000  13
  -3   3  -2 2115.88 137.830   2
  -3   3   2 2052.06 139.209  13
   0  -3   2 2204.80 145.972  12
  -3   0   2 2025.86 135.585  20
  -3   0  -2 2289.98 162.566   6
   0  -3  -2 2693.38 243.947   6
   0  -3  -2 2158.60 150.778  11
  -3   3  -2 1929.82 133.263   3
  -3   3   2 2448.75 148.418  22
   0  -3   2 2209.07 160.660  11
  -3   3   2 2076.04 133.609  20
   0  -3   2 1830.90 184.675  23
   3   0   2 2287.81 161.176  19
   0  -3  -2 2118.31 171.086  23
   3   0  -2 2349.58 155.544  19
  -3   3   2 2146.23 137.397   3
   3  -3  -2 1863.30 171.618   5
   0  -3  -2 2242.05 148.843  18
   3  -3   2 2130.70 213.008  16
  -3   0  -2 2626.13 224.575  18
   3   0  -2 2102.10 211.130  17
   0   3  -2 2136.97 215.937   9
   3   0  -2 2141.15 192.143   8
   0  -3  -2 1896.18 198.802  16
   0  -3   2 2648.35 185.507   4
   0  -3  -2 1940.62 128.575  21
   3  -3  -2 2058.69 135.273   1
   3  -3  -2 2363.17 166.897  16
   3   0   2 2252.39 165.565   8
  -3   3  -2 2125.73 148.578  15
  -3   0  -2 1883.47 124.457  15
  -3   0   2 2193.13 137.597  15
   3  -3  -2 2020.29 123.000  14
   3   0  -3-15.0025 43.4051  14
   0  -3   3-46.3772 61.5688   4
   3  -3   3 54.7600 49.6396   4
  -3   3   3-5.45772 38.4958  13
   0  -3   3-14.2920 45.8796  11
  -3   3   3 32.3580 46.3648  22
  -3   0  -3 33.0424 62.5341   6
  -3   0   3 14.4807 39.8707  20
  -3   3   3 16.2595 47.0414  20
   3  -3  -3 19.0757 43.6722   1
   0  -3  -3-7.38443 55.6796  23
  -3   3  -3 10.5149 41.5781   2
   3   0   3-7.13988 51.7778  19
  -3   3  -3 15.9716 40.6428   3
   0  -3  -3 67.7617 65.1306  18
  -3   0  -3-9.79156 64.9946  18
   3  -3  -3 94.3637 72.0342   5
   3   0  -3 10.7841 57.4972  17
   0   3  -3 26.5861 70.8730  17
   0  -3   3-12.7019 52.4578  12
   0   3  -3 12.9877 77.4182   9
   0  -3  -3-19.7502 63.3995  16
   3  -3  -3 11.5123 47.5455  16
   3  -3   3 8.70809 51.9092  16
   0  -3  -3 70.9484 45.4638  21
  -3   3  -3 50.0855 55.2825  15
  -3   0  -3 200.946 49.6815  15
   3   0   3 39.0988 47.2573   8
  -3   0   3-4.95661 40.0801  15
   3   0  -3-9.09880 52.0235   8
   3   0  -4 39998.9 1318.01  14
  -3   0   4 36153.8 1293.86   7
  -3   3   4 38794.7 1330.32  13
  -3   3  -4 38801.8 1296.11   9
   0  -3   4 37343.2 1355.99  12
  -3   3  -4 37800.1 1322.52   3
   0  -3  -4 38907.9 1372.36  18
   0  -3  -4 35857.5 1320.30  23
   3   0   4 36632.3 1342.92  19
   3  -3  -4 33875.7 1358.11   5
   3   0   4 37083.5 1308.17  10
  -3   0  -4 37365.1 1356.01  18
   3   0  -4 32302.2 1316.94  17
   0   3  -4 27637.2 1367.36   9
  -3   3   4 41094.9 1352.54  20
   0   3  -4 31705.3 1367.20  17
  -3   0   4 37019.6 1290.86  20
   0  -3   4 29667.3 1308.94   4
  -3   0  -4 39690.4 1331.63   6
  -3   0  -4 36763.6 1282.29  15
   0  -3  -4 39315.4 1307.14  21
  -3   0   4 38076.5 1302.99  15
  -3   3  -4 38881.4 1319.44   2
   3  -3  -4 37670.3 1295.43   1
   3  -3   4 37362.5 1342.17   4
   3   0  -5-57.7336 81.9208  14
   0  -3   5 8.28940 60.1112   4
  -3   0   5 36.0401 66.2139   7
   3  -3   5-10.1431 69.4637   4
  -3   3   5-21.6684 67.1134  13
   0  -3   5-36.2164 105.758  12
   0  -3  -5 63.7743 86.8898  21
  -3   3  -5-59.6927 80.4416   2
  -3   3   5-33.7518 87.9512  20
   3   0   5-30.4692 71.6318  19
   3   0   5-75.4548 86.3683  10
   0  -3  -5 11.1208 80.6433  18
  -3   0  -5 16.7257 71.8933  18
   3  -3  -5-84.7624 84.7327   5
   3  -3  -5-8.56477 69.9997   1
   3   0  -5 69.3099 57.8395  17
   0   3  -5 19.3028 66.0964  17
   0   3  -5 81.7138 89.1088   9
  -3   0  -5 15.6827 59.8570  15
   3   0  -6 520.241 134.675  14
   0  -3   6 638.884 111.727   4
  -3   0   6 662.830 138.498   7
   3  -3   6 410.016 112.242   4
  -3   3   6 537.763 127.155  13
   0   3   6 626.995 117.725   7
   0  -3   6 420.112 133.435  12
   0  -3  -6 465.394 135.871  21
  -3   3  -6 564.711 155.373   2
  -3   3   6 346.027 111.296  20
   3   0   6 339.619 115.840  10
   0  -3  -6 403.242 115.089  18
  -3   0  -6 647.544 115.738  18
   3  -3  -6 580.807 135.315   1
   0   3  -6 424.808 120.469   9
   3   0  -7-24.3920 99.6778  14
   0  -3   7-7.55241 63.6653   4
   3  -3   7-32.8868 99.5283   4
  -3   0   7-57.0630 124.975   7
   0   3   7-15.4076 69.9441   7
  -3   3   7 80.7306 78.9822  13
   0  -3  -7 26.1605 108.036  21
  -3   3  -7-32.0695 137.846   2
  -3   3   7-10.7807 76.0351  20
   3   0   7-56.2227 103.294  10
   0  -3  -7 8.54943 84.0473  18
  -3   0  -7 21.9914 79.1352  18
   0   3  -7-18.9995 94.0737   9
   3  -3  -7 13.1124 112.724   1
   0  -3   7 49.7065 103.701  12
   3   0  -8 7798.41 423.803  14
   3  -3  -8 8305.55 449.974   1
  -3   0   8 7502.81 444.492   7
  -3   3  -8 7848.27 430.910  14
   0   3   8 7000.41 357.845   7
   3   0   8 8378.93 443.056   7
   0   3  -8 7529.24 390.612   9
  -3   3   8 7436.34 414.158  13
   0  -3   8 7172.27 404.139  12
   0  -3  -8 7995.56 430.252  21
  -3   3   8 7556.20 409.752  20
   0   3   8 6732.42 355.397  20
   3   0   8 7507.58 430.046  10
   0  -3  -8 6920.27 368.654  18
  -3   0  -8 7126.86 362.281  18
   0  -3   8 7019.64 361.901   4
   3  -3   8 7864.18 406.032   4
  -4   2   0 49363.0 1659.39  13
  -2   4   0 50496.2 1648.07   2
   2  -4   0 47909.9 1654.55  12
  -2  -2   0 49161.0 1721.93  23
  -2  -2   0 46102.8 1648.01  11
   2   2   0 55553.8 1866.57  17
  -4   2   0 52130.2 1651.89   3
   2  -4   0 48127.6 1826.10  16
   4  -2   0 46062.6 1826.72   8
  -2  -2   0 47237.2 1779.44   6
  -4   2   0 46482.2 1635.27  15
   2   2   0 49705.0 1722.20   8
  -4   2   0 50415.0 1651.61  20
   2   2  -1 212.130 83.4327   8
  -4   2  -1 4.69026 42.2152   3
  -4   2  -1 5.24341 44.2011  13
  -4   2   1 30.8510 44.6263  13
  -2  -2   1-49.4857 68.7990  23
   2  -4  -1-25.2764 48.9610  12
  -2  -2  -1-33.1014 85.2475   6
   2   2  -1-17.1465 81.7653  17
  -2  -2  -1 4.65701 40.7980  11
  -2  -2   1 11.9912 46.8707  11
  -4   2   1 30.4867 44.5134  20
   4  -2   1 171.288 90.2345  19
   2   2   1 5.35011 43.7266  19
  -2   4  -1 13.8448 37.3147   2
   2  -4  -1 18.5284 96.2825   5
  -2   4   1 4.69207 39.5534   2
  -4   2   1-9.48702 40.3850   3
  -2  -2  -1-20.1761 51.3382  23
   2  -4  -1 11.0722 71.0826  16
   2  -4   1-16.5227 81.2153  16
   2  -4   1-5.10692 44.3232  12
   4  -2   1-12.7858 66.4410   8
  -4   2  -1 28.7894 40.0419  15
  -4   2   1 4.48658 38.1976  15
   2   2   1-20.2502 52.1515   8
  -4   2  -2 1736.74 131.141   3
   4  -2   2 1801.62 134.549   4
  -2   4  -2 1785.11 134.616   2
  -4   2  -2 1918.69 146.071  13
  -4   2   2 1645.96 132.885  13
   2  -4   2 1934.81 146.011  12
  -4   2   2 1894.15 131.653  22
  -2  -2   2 1988.75 206.631  23
   2  -4  -2 1698.08 135.882  12
  -2  -2   2 1831.72 163.277  11
   2  -4  -2 1790.44 220.073   5
   2   2   2 2127.44 149.489  19
   4  -2   2 1877.92 211.796  19
  -4   2   2 1825.00 132.883   3
   4  -2  -2 1941.49 157.049   5
   2   2  -2 1670.71 219.105  17
  -2   4  -2 2008.99 164.849   9
  -2   4   2 1708.62 125.849  22
   2  -4  -2 1831.23 177.690  16
   2  -4   2 1298.75 177.850  16
   4  -2   2 1826.49 197.435   8
  -2  -2  -2 1881.55 151.556  23
  -4   2  -2 1847.75 139.838  15
   2   2   2 1872.91 149.677   8
  -4   2   2 1688.68 136.773  20
  -4   2   2 1838.05 131.849  15
  -2  -2  -2 1711.26 191.336   6
   2   2  -2 1919.16 205.067   8
  -2  -2   2 1850.99 122.126  15
   4  -2  -2 1865.91 137.557  14
   2   2  -3-37.2799 71.0500   8
   4  -2  -3-16.8623 49.6982  14
   2  -4   3 19.9614 57.7515  12
   2  -4   3-11.8438 73.3702   4
  -4   2   3 5.81248 49.9720  13
   4  -2   3 102.398 56.7446   4
  -2  -2   3-26.8902 84.8176  23
  -2  -2   3 6.97655 63.3441  12
  -2   4   3 5.39306 46.3666  22
   2  -4  -3 5.18136 51.3133   1
  -2  -2  -3 12.0779 87.5862   6
  -4   2   3 486.052 79.6675  20
  -2   4  -3 35.2117 54.1963   2
  -4   2   3-19.4971 41.9073  22
   4  -2   3-13.3992 84.5280  19
   2   2   3-11.5081 54.8811  19
  -4   2  -3 59.5981 55.4951   3
  -2  -2  -3 26.5352 73.8151  18
   2  -4  -3 61.1350 81.1605   5
  -2  -2   3-19.5178 62.6544  11
  -4   2   3 5.33478 43.6052   3
   4  -2  -3 7.06722 55.8897   5
   2   2  -3 75.5487 90.0675  17
   2   2  -3 11.8044 70.3659   9
   2  -4  -3 48.3502 53.9690  21
  -2   4  -3 8.53529 65.1569   9
   2  -4  -3 98.7734 72.6061  16
   4  -2   3-23.4097 81.3672   8
  -4   2  -3 12.8525 49.6530  15
  -4   2   3 30.7168 43.5896  15
   4  -2  -4 27657.0 1015.53  14
   4  -2   4 28596.7 1012.97   4
  -4   2   4 27905.5 1002.73   7
  -4   2   4 29151.3 1023.29  13
  -2  -2   4 26389.8 1070.80  12
  -4   2  -4 29314.2 1045.11   3
   2  -4   4 30658.4 1060.52  12
  -2  -2  -4 24740.6 1100.51   6
  -4   2   4 28779.9 1040.02  20
   2  -4  -4 27537.2 1004.62  21
  -2  -2   4 27369.2 1109.32  11
   2  -4  -4 23049.8 1057.46   5
   2   2   4 26963.0 990.452  10
   4  -2  -4 28484.0 1036.13   5
   2   2  -4 25425.9 1066.26   9
  -2  -2  -4 22851.2 1056.92  18
   2   2  -4 26793.7 1078.48  17
  -2   4  -4 29124.2 1088.58   9
   4  -2   4 25562.5 1119.62  19
  -4   2  -4 28733.8 1042.78  15
   2  -4  -4 28411.4 1005.96   1
   2  -4   4 29735.7 1111.42   4
   2   2  -4 23018.5 1028.67   8
  -2   4  -4 28874.3 1034.35   2
   4  -2  -5 36.0437 76.7164  14
   2  -4   5 10.1749 83.1592   4
  -4   2   5 44.8329 74.8270   7
   4  -2   5 8.10960 62.6554   4
  -4   2   5-27.7923 84.1104  13
  -2   4   5 11.3198 85.3496  13
  -2   4  -5-31.1032 84.7355   2
  -2  -2   5-40.9936 110.486  12
  -2  -2  -5 64.2751 99.3185   6
  -2  -2   5 23.3554 79.9737  11
  -4   2   5 21.7994 89.0835  20
   4  -2   5 69.6715 81.8976  19
   2  -4   5 10.6159 79.0355  12
   2  -4  -5 76.7533 76.7583   1
   4  -2   5-22.4847 84.7659  10
   2   2   5-8.19481 64.0630  10
   2  -4  -5-31.4850 77.1273  18
   2  -4  -5 115.650 87.5007   5
  -2  -2  -5-49.9388 96.7327  18
   2   2  -5-8.96825 72.5138  17
   2   2  -5 19.1122 72.0517   9
  -2   4  -5-24.0462 102.361   9
  -4   2  -5-20.5185 78.3144  15
   2  -4  -5 34.3950 74.6288  21
   4  -2  -6 505.976 123.739  14
   2  -4   6 404.537 100.553   4
  -4   2   6 624.019 142.699   7
  -4   2   6 489.268 148.859  20
  -4   2   6 579.042 134.952  13
  -2   4   6 408.328 117.249  13
  -2  -2   6 405.892 135.985  12
   2  -4  -6 524.101 131.087  21
  -2  -2  -6 360.786 121.124   6
  -2   4  -6 378.772 141.366   2
   4  -2   6 571.719 123.415  19
   4  -2   6 465.639 122.747  10
   2  -4  -6 584.658 130.104   1
   2  -4  -6 361.676 126.544  18
   2  -4  -6 466.754 108.552   5
  -2  -2  -6 379.992 107.519  18
  -4   2  -6 401.788 145.175  18
   2   2  -6 628.455 117.735   9
  -2   4  -6 489.299 147.932   9
   4  -2  -7-36.6204 117.329  14
   2  -4   7 92.3629 73.4140   4
  -4   2   7 76.5096 106.418   7
  -2   4   7-22.0440 81.0061  13
   2   2   7-73.0698 148.857   7
  -2  -2   7 253.659 100.805  12
  -2   4  -7 15.3286 133.041   2
   2  -4  -7-37.2427 117.473  21
  -4   2   7 146.509 104.126  20
   4  -2   7 258.811 97.0313  19
   4  -2   7-17.7288 70.8975  10
  -2  -2  -7 38.1392 82.8523  18
  -4   2  -7 21.3370 106.415  18
   2  -4  -7-64.4518 119.039   1
   2   2  -7-7.85436 78.3479   9
  -4   1   0 512.808 73.7047  13
  -4   3   0 394.443 70.6295  13
   1  -4   0 514.622 77.6505  12
   3  -4   0 393.034 73.7659  12
  -1  -3   0 306.557 90.3069  23
  -3  -1   0 516.470 108.327   6
   1  -4   0 386.840 85.2179  11
  -3  -1   0 376.677 67.7697  11
  -1  -3   0 363.155 70.7850  11
   4  -1   0 603.516 102.316  19
   1  -4   0 404.528 115.117  23
   3   1   0 358.262 75.4033  19
  -4   3   0 458.586 70.6067   2
  -3   4   0 425.950 67.3503   3
  -4   3   0 404.202 72.7239   3
  -3   4   0 456.374 75.5926   2
   3  -4   0 296.769 123.864   5
   4  -1   0 460.016 95.2958  17
   3   1   0 615.731 112.941  17
   4  -3   0 458.151 95.8439   5
   1   3   0 523.204 151.691  17
   1  -4   0 479.457 141.076  16
   3  -4   0 522.864 109.030  16
   4  -3   0 628.469 121.933  16
  -3  -1   0 409.744 91.0825  23
  -4   1   0 386.667 65.8564  15
   4  -1   0 381.351 108.447   8
  -3  -1   0 425.442 63.9046  15
   3   1   0 434.261 94.8781   8
   4  -3   1 11561.1 490.651   4
  -4   1  -1 11967.0 497.770  13
  -4   3  -1 11932.3 493.373  13
  -4   1   1 11973.8 488.135  13
  -4   3   1 12830.3 504.142  13
  -4   3  -1 12199.1 487.955   2
  -3   4  -1 11644.2 492.372   2
  -3  -1   1 14047.9 590.444   6
   1  -4   1 11691.3 492.333  12
  -3  -1  -1 13067.3 571.133   6
  -3  -1   1 13170.3 596.073  23
   3  -4   1 12966.1 501.757  12
   1  -4  -1 12416.6 492.620  12
   1  -4   1 11076.8 617.843  23
   1  -4  -1 14490.9 644.690  23
  -4   3   1 12586.2 492.200   2
  -3   4   1 12648.7 497.301  22
  -1  -3  -1 12003.3 701.113   6
  -3   4  -1 12143.6 484.691   3
  -4   3  -1 11192.8 488.269   3
  -1  -3   1 12313.4 522.084  11
  -3  -1   1 12564.6 518.854  11
  -4   1   1 11928.8 503.660  20
  -4   3   1 12523.0 486.983  20
   1  -4  -1 13440.1 679.675   5
   1  -4   1 13668.2 557.374  11
  -3   4   1 11944.4 481.795   3
  -4   3   1 12189.4 500.660   3
  -3   4   1 12114.8 500.460   2
   3  -4  -1 12532.5 660.444   5
   4  -1   1 13248.5 572.645  19
   3   1   1 12207.7 515.150  19
   3   1  -1 12019.5 515.242  19
   4  -3  -1 12774.8 557.540   5
   4  -3   1 13015.0 572.276   5
   4  -1   1 13326.8 541.200  17
   4  -1  -1 13758.4 620.922  17
   3   1  -1 13390.4 654.205  17
   1   3  -1 12497.2 764.813  17
  -1   4  -1 14149.7 597.370   9
  -1  -3  -1 11711.6 500.555  11
   1  -4  -1 12574.5 649.404  16
   1  -4   1 11736.1 707.346  16
   3  -4  -1 12856.0 580.415  16
   3  -4   1 13412.4 663.738  16
   4  -3  -1 13185.1 570.083  16
  -3  -1  -1 12488.4 526.250  23
   4  -1   1 13648.9 605.821   8
   4  -1  -1 13198.8 638.704   8
   3   1   1 12528.5 544.293   8
  -4   3  -1 11841.1 484.913  15
   3   1  -1 13034.2 598.179   8
  -4   1  -1 11007.1 479.487  15
  -3  -1  -1 11553.9 463.356  15
   3  -4  -1 11802.0 495.336  12
  -1  -3  -1 11898.4 549.566  23
  -4   1   1 12270.7 494.470  15
  -1  -3   1 13134.0 602.262  23
  -3  -1   1 12537.2 482.395  15
   1   3   1 13171.8 534.764   8
   4  -1  -1 12301.5 491.117  14
   4  -3   2 18510.5 716.100   4
  -4   3  -2 18239.9 697.857   2
  -4   3  -2 17362.2 693.547  13
  -3   4  -2 17586.2 699.333   2
  -4   1   2 18576.6 696.105  13
  -4   3   2 18390.0 710.046  13
  -3   4   2 19014.8 697.378  13
  -4   1  -2 20635.3 737.683   6
  -1  -3   2 18305.9 697.914  12
  -1  -3  -2 19824.9 722.207  11
   1  -4   2 18756.4 714.324  12
   3  -4   2 18660.8 707.591  12
  -3  -1  -2 19653.2 721.759  23
  -1  -3   2 16852.6 812.836  23
   1   3   2 18856.8 699.882  19
   1  -4  -2 18872.2 692.337  12
  -3   4  -2 18539.7 698.823   3
  -4   1   2 19391.2 717.795  20
  -1  -3  -2 17386.9 893.757   6
  -4   3   2 18191.3 706.222  22
  -3   4   2 18814.0 707.336  22
  -4   3  -2 17005.7 698.143   3
   1  -4  -2 18650.6 700.332  21
   1  -4   2 20376.5 775.575  11
  -1  -3   2 19727.3 759.751  11
  -3  -1   2 21559.8 783.519  11
  -4   3   2 18622.6 700.129  20
   1  -4  -2 19945.2 937.047   5
  -3   4   2 18090.6 690.973   3
  -4   3   2 18323.6 708.200   3
   4  -3   2 20384.7 881.495  19
   3  -4  -2 16939.1 834.072   5
   4  -1   2 19274.3 793.990  19
   3   1   2 19180.4 737.073  19
  -1  -3  -2 19582.7 710.910  18
   4  -3  -2 19373.5 769.542   5
   4  -1  -2 18670.7 853.318  17
   1   3  -2 19717.6 881.928   9
   3   1  -2 17262.2 863.492  17
   1   3  -2 20166.2 937.361  17
  -1   4  -2 20473.8 822.050   9
   1  -4  -2 18221.7 824.067  16
   3  -4  -2 17669.7 758.295  16
   3  -4   2 17877.7 858.673  16
   4  -3  -2 19248.5 747.963  16
   4  -1   2 19917.8 800.014   8
   4  -1  -2 16060.9 806.931   8
   3   1   2 20087.1 748.002   8
  -1  -3  -2 19928.2 764.416  23
  -4   3  -2 18635.4 715.555  15
  -3  -1   2 19535.7 853.973  23
  -4   1  -2 18560.3 701.780  15
   3   1  -2 18547.7 827.004   8
  -4   1   2 17864.5 698.445  15
  -3  -1   2 18555.6 692.746  15
   1  -4  -2 20300.2 831.285  23
  -3  -1  -2 20002.6 785.753   6
   3  -4   2 20821.0 784.040   4
   4  -1  -2 18675.5 702.096  14
   4  -1  -3 8103.10 384.246  14
   4  -3   3 8161.58 408.825   4
  -3   4  -3 8057.96 386.175   2
   4  -1   3 8385.41 367.728   4
  -4   3   3 8468.38 394.975  13
  -3   4   3 8678.08 391.028  13
  -1  -3   3 8719.05 408.238  12
  -4   1  -3 9546.26 417.704   6
   1  -4   3 8854.39 415.594  12
   3  -4   3 9524.99 407.726  12
  -3   4  -3 8764.90 395.964   3
  -3  -1  -3 9109.76 455.562   6
  -4   3  -3 8521.89 394.428   3
  -1  -3  -3 9957.31 440.813  23
  -4   3   3 8441.93 389.210  22
  -1  -3  -3 8614.18 517.921   6
  -3   4   3 8516.99 394.151  22
   3   1   3 8870.71 416.982  19
   1  -4  -3 8657.56 387.165  21
  -1  -3  -3 9071.28 375.317  21
  -1  -3   3 9232.42 454.196  11
  -3  -1   3 10180.0 494.107  11
  -4   1   3 8408.91 395.366  20
  -4   3   3 8185.52 387.747  20
   1  -4  -3 9044.05 506.023   5
   4  -3   3 9427.78 494.995  19
   3  -4  -3 6691.86 450.691   5
   4  -1   3 8398.77 460.422  19
  -3   4   3 8344.18 377.304   3
  -4   3   3 8603.86 392.954   3
  -3  -1   3 7675.88 500.258  23
   4  -1   3 8608.47 396.559  10
   4  -3  -3 9072.49 447.575   5
   1  -4  -3 9211.40 419.349  18
  -1  -3  -3 9849.47 436.454  18
  -3  -1  -3 7557.23 449.853  18
   3   1  -3 8274.78 464.672   9
  -4   1  -3 8644.32 487.099  18
   1   3  -3 9285.06 509.550   9
   4  -1  -3 8171.31 491.076  17
   3   1  -3 7850.38 476.332  17
  -1   4  -3 8788.96 484.159   9
   1   3  -3 10461.8 552.409  17
   1  -4  -3 8200.28 458.657  16
   4  -3  -3 9004.89 380.270   1
   3  -4  -3 8513.62 386.077   1
   3  -4  -3 8350.94 419.101  16
   4  -1   3 8885.82 454.529   8
  -4   3  -3 9368.69 422.157  15
  -4   1  -3 8407.60 387.331  15
   3   1  -3 6774.08 443.050   8
  -4   1   3 9245.03 394.786  15
  -3  -1   3 8855.19 385.297  15
   3  -4   3 7799.64 439.804   4
   4  -3  -3 8395.29 378.007  14
  -1  -3  -3 10093.8 412.722  11
  -4   3  -3 9158.94 401.798   2
   4  -3  -4 255.215 72.6412  14
   4  -1  -4 375.213 89.4042  14
   1  -4   4 228.927 81.2934   4
   3  -4   4 122.951 88.7817   4
  -4   3   4 278.885 88.4866  13
   4  -3   4 318.034 91.4600   4
  -3   4   4 245.126 78.3726  13
  -1  -3   4 299.194 103.250  12
  -3  -1   4 246.892 103.354  23
  -3   4   4 314.603 82.1660  22
  -3  -1  -4 142.785 99.1291   6
   1  -4  -4 637.614 98.8483  21
  -1  -3  -4 254.909 78.6623  21
  -1  -3  -4 176.414 104.411   6
   3  -4  -4 231.700 79.4053   1
   4  -3  -4 270.456 75.5501   1
  -1  -3   4 198.617 91.5184  11
  -3  -1   4 220.944 101.824  11
  -4   1   4 262.161 84.1599  20
  -4   3   4 216.571 79.2941  20
  -4   3  -4 363.021 91.1119   2
  -3   4  -4 269.755 82.7799   2
   1  -4   4 499.830 109.899  12
   4  -3   4 205.547 88.7449  19
   4  -1   4 258.978 94.5100  19
   3   1   4 208.588 85.9711  19
  -3   4  -4 168.158 80.3039   3
   4  -1   4 370.293 88.4325  10
  -4   3  -4 347.580 90.1371   3
   3   1   4 192.324 68.0638  10
   1  -4  -4 368.685 99.6464   5
   1  -4  -4 286.160 101.538  18
  -1  -3  -4 199.806 105.966  18
  -3  -1  -4 185.524 87.5094  18
  -4   1  -4 243.936 106.898  18
   3  -4  -4 73.6472 85.7320   5
   4  -3  -4 234.039 95.5233   5
  -4   3   4 212.621 76.1542   3
   4  -1  -4 226.555 86.6954  17
  -3   4   4 264.621 72.7630   3
   3   1  -4 298.890 95.5396  17
   3   1  -4 199.829 91.1991   9
   1   3  -4 195.373 92.4447  17
   1   3  -4 322.839 106.997   9
  -1   4  -4 210.684 103.276   9
  -3   4  -4 241.252 88.1575   9
   1  -4  -4 222.093 91.2440  16
  -4   3  -4 833.858 127.625  15
  -4   1  -4 234.739 72.9331  15
  -4   1   4 267.704 75.1126  15
  -3  -1   4 142.370 68.9257  15
   4  -1  -5 5725.64 333.813  14
   3   1  -5 6079.30 345.461  14
  -4   1   5 5806.72 338.833   7
  -4   3   5 5613.97 349.380  13
  -3   4   5 5978.59 363.306  13
  -1  -3   5 4603.67 351.765  12
   1  -4   5 5642.42 367.539  12
  -3  -1  -5 5075.13 352.180   6
  -4   3   5 5893.53 335.906  22
  -1  -3  -5 6041.95 332.378  21
  -3  -1   5 4195.79 330.825  11
  -4   1   5 5964.61 349.487  20
  -4   3   5 5977.63 364.675  20
   3  -4  -5 3878.88 311.195   5
   4  -3   5 4548.20 304.048  19
   4  -1   5 4187.69 336.928  19
   4  -3  -5 5459.15 352.328   5
   4  -1   5 5344.76 346.812  10
   3   1   5 4628.31 301.204  10
   1  -4  -5 5249.75 358.294  18
  -1  -3  -5 3861.10 322.589  18
  -3  -1  -5 4774.97 304.812  18
   3   1  -5 4313.39 312.650   9
  -4   1  -5 5367.60 338.470  18
   1   3  -5 4660.25 327.080   9
   3   1  -5 4796.18 304.327  17
  -1   4  -5 4353.74 363.868   9
   1   3  -5 5231.95 331.982  17
  -3   4  -5 5548.42 340.407   9
  -1   4  -5 4196.87 326.462  17
   1  -4   5 4674.35 292.585   4
  -4   3  -5 5329.70 343.515   2
  -4   1  -5 5161.78 318.325  15
   3  -4  -5 5956.40 331.515   1
   3  -4   5 4055.07 321.695   4
   4  -3  -5 5731.34 311.021   1
  -3   4  -5 5606.32 340.440   2
  -4   1   5 5624.30 326.489  15
  -3  -1   5 6112.64 346.066  15
   4  -3   5 5305.38 335.511   4
   1  -4  -5 5629.83 330.914  21
   4  -1  -6 6690.72 403.991  14
   3   1  -6 7302.16 424.060  14
  -4   1   6 8399.90 455.957   7
  -4   3   6 6480.72 407.400  13
   1   3   6 5688.45 402.167   7
  -3   4   6 5627.07 388.310  13
  -1  -3   6 4157.98 371.071  12
   1  -4   6 5491.46 414.354  12
  -4   3   6 6968.84 413.228  22
   1  -4  -6 7463.22 421.057  21
  -1  -3  -6 6789.39 399.388  21
  -3  -1   6 5990.54 353.769  11
  -4   1   6 7592.53 440.815  20
  -4   3   6 6755.92 424.365  20
   3  -4  -6 5663.45 361.159   5
   4  -1   6 6360.71 415.388  19
   4  -1   6 5375.71 389.074  10
   3   1   6 6519.15 387.837  10
   1  -4  -6 5558.18 391.693  18
  -1  -3  -6 5560.06 359.739  18
  -3  -1  -6 5516.27 327.983  18
   3   1  -6 5447.97 339.057   9
  -4   1  -6 6077.05 356.983  18
   1   3  -6 6232.11 363.426   9
  -1   4  -6 5680.25 398.450   9
   1  -4   6 5640.34 329.531   4
  -4   3  -6 6185.57 416.684   2
  -3   4  -6 6660.70 425.775   2
  -4   1  -6 6513.78 388.208  15
   3  -4   6 6277.67 388.248   4
   3  -4  -6 7098.36 413.986   1
   4  -3   6 5302.37 363.507   4
  -4   1   6 6907.08 397.367  15
   4  -1  -7 1744.23 216.623  14
   3   1  -7 2318.50 249.012  14
  -4   1   7 2036.40 239.192   7
  -3   4  -7 2126.35 212.258  14
   1   3   7 2011.15 218.526   7
  -4   3   7 1961.70 221.678  13
  -3   4   7 1817.82 214.847  13
  -1  -3   7 2142.53 238.111  12
   1  -4   7 1899.29 233.126  12
   1  -4  -7 1939.95 231.288  21
  -1  -3  -7 1701.47 221.334  21
  -4   1   7 1997.87 233.238  20
  -4   3   7 1591.13 205.826  20
  -3   4   7 1902.66 203.080  20
   4  -1   7 2687.70 265.173  10
   3   1   7 1698.26 217.474  10
   1  -4  -7 2383.41 222.663  18
  -1  -3  -7 2443.30 206.859  18
  -3  -1  -7 2197.93 180.895  18
  -4   1  -7 2199.38 199.672  18
  -4   3  -7 2157.19 245.085  18
   1   3  -7 1993.95 188.619   9
  -1   4  -7 2178.17 222.842   9
  -4   3  -7 1701.69 232.409   2
  -3   4  -7 1783.76 252.032   2
   1  -4   7 1939.61 173.554   4
   3  -4   7 2405.91 217.245   4
   4  -3   7 2046.06 215.207   4
   3  -4  -7 2079.96 238.997   1
  -4   4   0 201.729 64.3564  13
   0  -4   0 239.460 68.2103  12
   4  -4   0 177.027 70.8199  12
  -4   0   0 328.769 100.282   6
   0  -4   0 311.148 82.2692  11
   4   0   0 249.639 83.4786  19
  -4   4   0 220.998 69.8335   2
  -4   4   0 238.541 65.5901   3
   4  -4   0 265.175 114.891   5
   4   0   0 237.299 89.3084  17
   0  -4   0 334.830 123.050  23
   0   4   0 25.4446 113.747  17
   0  -4   0 72.4378 115.387  16
   4  -4   0 244.493 99.1280  16
  -4   0   0 309.098 94.7812  23
  -4   0   0 311.222 67.2068  15
   4   0   0 246.888 95.8364   8
   4  -4   1 9898.55 432.193   4
   0  -4  -1 9153.18 439.956  11
  -4   4   1 8969.46 404.512  13
  -4   4  -1 9217.76 413.559   2
  -4   0   1 10425.8 486.208   6
  -4   0  -1 9528.95 459.369   6
   0  -4   1 9087.21 401.330  12
  -4   0   1 10752.2 532.191  23
  -4   0  -1 9774.26 444.104  23
   0  -4   1 9756.93 549.474  23
   0  -4  -1 9082.70 501.312  23
   0  -4   1 9769.17 458.374  11
  -4   4  -1 9403.91 416.018   3
  -4   0   1 9345.95 430.598  11
  -4   4   1 9652.14 420.361   3
  -4   4   1 9470.49 422.177   2
   4   0   1 9304.69 451.203  19
   4   0  -1 10258.9 464.683  19
   4  -4  -1 8822.26 502.618   5
   4   0  -1 9943.23 530.564  17
   0   4  -1 8979.93 645.317  17
   0  -4  -1 9971.81 621.879  16
   0  -4   1 8293.26 594.320  16
   4  -4  -1 9200.19 482.059  16
   4  -4   1 9812.96 556.873  16
   4   0   1 9663.78 483.114   8
   4   0  -1 9721.33 523.250   8
  -4   0  -1 9060.12 396.395  15
  -4   0   1 9230.45 409.464  15
   4  -4   2 15426.2 607.881   4
  -4   4  -2 13286.3 561.197   2
  -4   4   2 13657.1 562.967  13
  -4   4   2 14294.8 579.704  22
  -4   0   2 15161.0 654.916   6
   0  -4   2 13934.0 566.050  12
  -4   0  -2 16142.4 640.349   6
   0  -4   2 12084.8 687.771  23
   0  -4  -2 15035.4 666.502  23
  -4   4  -2 13466.4 562.390   3
  -4   4   2 14007.9 573.141   2
   0  -4   2 14822.2 632.961  11
  -4   0   2 14948.3 632.576  11
  -4   4   2 13485.0 564.799   3
   4   0   2 14442.4 622.021  19
   4  -4  -2 14765.8 695.400   5
   0  -4  -2 13652.5 561.087  18
   4   0  -2 13413.4 701.703  17
   0   4  -2 14877.4 777.079   9
   0   4  -2 14612.9 802.832  17
   0  -4  -2 11968.0 694.853  16
   4  -4  -2 14869.4 623.578  16
   4  -4   2 11782.2 687.033  16
   4   0   2 15013.8 638.117   8
   4   0  -2 12825.1 669.529   8
  -4   0  -2 13055.4 543.793  15
  -4   0   2 13948.5 561.972  15
   4   0  -2 14671.9 558.753  14
  -4   4  -3 6990.87 347.427   2
  -4   4   3 6735.91 347.119  13
   0  -4   3 7737.14 374.445  12
  -4   0  -3 8175.49 408.258   6
  -4   4  -3 6158.17 337.111   3
   0  -4  -3 7664.82 417.158  23
  -4   4   3 7026.29 356.295  22
   0  -4  -3 7333.76 341.327  21
   0  -4   3 7426.17 408.672  11
  -4   0   3 6832.91 343.047  20
  -4   0   3 6888.13 424.942  11
  -4   4   3 6468.91 338.881   3
   4   0   3 7225.00 398.001  19
   4  -4  -3 6897.08 431.877   5
   0  -4  -3 8180.93 384.722  18
   4   0  -3 6818.44 444.362  17
   0   4  -3 6147.78 461.206   9
   0   4  -3 6697.83 476.279  17
   4  -4   3 6560.11 406.799  16
   4   0   3 6769.83 379.978   8
  -4   0  -3 6586.50 324.611  15
  -4   0   3 7157.67 345.386  15
   4  -4   3 7600.56 392.304   4
   4   0  -3 6925.88 336.387  14
   4   0  -4 134.938 78.1076  14
   4  -4   4 234.306 106.372   4
  -4   4   4 217.211 89.2739  13
   0  -4   4 140.322 91.1687  12
  -4   4   4 210.135 86.3772  22
   4  -4  -4 257.930 89.3342   1
  -4   0  -4 214.843 107.477   6
   0  -4  -4 209.547 84.1431  21
  -4   0   4 15.2795 101.570  11
  -4   0   4 236.448 83.5219  20
  -4   4  -4 216.600 83.5580   2
   4   0   4 111.269 102.040  19
  -4   4  -4 166.575 85.5929   3
   4   0   4 152.173 80.0764  10
   0  -4  -4 175.816 103.303  23
   0  -4  -4 222.849 109.700  18
  -4   0  -4 161.777 100.348  18
   4  -4  -4 127.895 106.872   5
  -4   4   4 156.658 76.0637   3
   4   0  -4 86.7367 79.8695  17
   0   4  -4 128.487 111.742  17
   0   4  -4 281.744 127.598   9
  -4   0  -4 205.869 69.6913  15
  -4   0   4 199.672 83.5925  15
   4   0  -5 4809.67 299.689  14
  -4   4   5 4125.16 303.679  13
   0  -4   5 4009.55 317.636  12
  -4   4   5 4504.44 304.998  22
   0  -4  -5 4502.24 287.736  21
  -4   0   5 3670.92 298.956  11
   4  -4  -5 2771.77 273.631   5
   4   0   5 3445.84 289.669  19
   4   0   5 4062.62 287.551  10
  -4   4   5 4507.07 294.493   3
   0  -4  -5 3774.00 315.862  18
  -4   0  -5 3866.74 264.505  18
   0   4  -5 3306.41 297.255   9
   4   0  -5 3225.63 249.453  17
   0   4  -5 3513.62 294.702  17
   4  -4  -5 4631.31 288.735   1
  -4   4  -5 4311.39 295.698   2
  -4   0   5 4366.04 289.885  15
   4  -4   5 3161.75 280.194   4
   4   0  -6 6346.39 387.556  14
  -4   4   6 5424.08 376.128  13
   0  -4   6 4383.45 375.180  12
  -4   4   6 5914.55 394.302  22
   0  -4  -6 5517.64 357.958  21
  -4   0   6 4851.03 318.386  11
  -4   4   6 5094.79 360.931  20
   4  -4  -6 4340.35 329.288   5
   4   0   6 4000.96 333.572  19
   4   0   6 5029.47 351.508  10
  -4   4   6 6461.35 396.025   3
   0  -4  -6 4677.48 366.452  18
  -4   0  -6 4947.12 298.433  18
   0   4  -6 4985.35 341.130   9
   0  -4   6 4557.28 299.218   4
   4  -4  -6 5878.95 362.621   1
  -4   4  -6 5171.70 372.498   2
   4  -4   6 3886.72 325.732   4
  -4   0   6 5792.23 367.376  15
   2   3   0 151.014 85.8760   8
  -5   2   0 149.106 71.0986  13
  -5   3   0 70.2894 60.6584  13
  -3  -2   0 166.970 96.5122  23
  -2  -3   0 277.101 105.844  23
   2  -5   0 200.799 79.1702  12
   3  -5   0 107.920 72.5639  12
  -3  -2   0 114.703 109.577   6
  -2  -3   0 231.907 74.6526  11
  -3  -2   0 89.8609 59.0150  11
   3   2   0 212.164 81.4723  19
  -3   5   0 139.800 66.1373   2
  -5   3   0 189.341 74.0755   3
   3   2   0 87.5581 84.5205  17
   5  -3   0 223.638 94.7984   5
   2  -5   0 116.042 113.078  16
   3  -5   0 556.834 145.292  16
   5  -2   0 230.370 128.613   8
  -5   3   0 176.989 61.5435  15
  -5   2   0 190.423 68.5101  15
   3   2   0 485.132 115.354   8
   5  -3   1 7067.52 349.927   4
  -5   2  -1 7277.64 364.321  13
  -5   3  -1 7455.99 363.639  13
  -5   2   1 7148.07 355.099  13
  -5   3   1 7333.11 364.407  13
  -3   5  -1 7123.28 351.096   2
  -3   5   1 7242.07 356.284   2
   2  -5   1 7187.64 358.027  12
   3  -5   1 7047.47 359.559  12
  -3  -2   1 7975.55 457.283  23
   2  -5  -1 7179.54 355.834  12
  -2  -3   1 7639.94 453.444  23
  -3  -2  -1 7325.62 386.215  23
   3  -5  -1 7180.73 358.408  12
  -2  -3  -1 7937.80 413.426  23
  -2  -3  -1 6429.82 495.615   6
  -3  -2  -1 7673.82 464.856   6
  -5   3  -1 7797.36 362.055   3
  -2  -3  -1 7027.88 352.552  11
  -2  -3   1 7528.16 377.990  11
  -3  -2   1 7146.25 369.474  11
  -5   3   1 7463.21 361.006   3
  -5   3   1 7245.28 348.905  20
   3   2   1 6731.69 362.632  19
   2   3   1 7029.01 359.519  19
   3   2  -1 6775.87 370.935  19
   5  -3  -1 6507.52 387.168   5
   3   2  -1 7508.59 495.867  17
   2   3  -1 7388.57 532.128  17
  -2   5  -1 8200.79 432.602   9
   2  -5  -1 6820.56 471.859  16
   2  -5   1 6024.81 515.252  16
   3  -5  -1 6538.78 427.678  16
   3  -5   1 6724.72 499.731  16
   5  -2   1 7996.30 496.822   8
   5  -2  -1 6981.68 501.371   8
   5  -3  -1 8448.38 434.937  16
  -5   3  -1 7222.23 350.572  15
   3   2   1 7917.58 403.041   8
  -5   2  -1 7130.04 352.559  15
   3   2  -1 7757.06 452.008   8
  -5   2   1 6936.97 343.793  15
   2   3   1 7175.99 380.832   8
   2   3  -1 8077.09 456.658   8
   5  -3   2 10724.7 477.637   4
  -3   5  -2 10080.3 463.400   2
   5  -2   2 10879.3 465.688   4
  -5   3  -2 10504.9 475.857  13
  -5   2   2 10665.8 469.970  13
  -5   3   2 9993.59 469.054  13
  -5   2  -2 11429.1 487.436   6
  -2  -3   2 9693.07 577.422  23
   2  -5   2 11107.1 487.092  12
  -3  -2   2 11052.5 607.176  23
  -3  -2  -2 10820.9 487.214  23
  -3  -2  -2 10072.2 564.817   6
   2  -5  -2 10994.9 472.309  12
  -2  -3  -2 11833.8 522.849  23
   3  -5  -2 10827.5 480.272  12
  -5   3  -2 10174.7 466.214   3
  -2  -3   2 11283.8 524.705  11
  -3  -2   2 11765.5 532.799  11
  -5   2   2 10490.6 477.357  20
  -5   3   2 10553.6 466.832  20
   2  -5  -2 10933.0 647.994   5
  -5   3   2 10753.6 472.042   3
   3  -5  -2 9793.77 599.531   5
   5  -3   2 12512.2 659.344  19
   5  -2   2 10073.8 590.231  19
   3   2   2 10556.8 487.412  19
   2   3   2 10466.7 473.146  19
   5  -3  -2 10302.1 515.185   5
   3   2  -2 8830.99 600.917  17
   2   3  -2 10175.4 642.942  17
  -2   5  -2 12022.8 567.910   9
   2  -5  -2 9829.41 559.367  16
  -3   5   2 10601.0 472.247   2
   3  -5  -2 9953.83 532.140  16
   3  -5   2 11535.6 492.517  12
   3  -5   2 8875.38 562.224  16
   5  -2   2 10882.0 591.616   8
   5  -3  -2 11273.2 510.048  16
   3   2   2 10530.7 491.760   8
  -5   3  -2 10498.5 475.968  15
  -5   2  -2 9800.36 466.203  15
   3   2  -2 10977.7 596.773   8
  -5   2   2 10399.7 462.585  15
   2   3  -2 10804.7 603.295   8
  -2  -3  -2 10382.7 632.641   6
  -3   5  -3 5257.56 300.022   2
   5  -3   3 5753.39 314.543   4
   5  -2   3 5452.09 291.544   4
  -5   2   3 5812.71 306.803  13
  -5   3   3 5428.46 303.384  13
   2  -5   3 5488.43 322.702  12
   3  -5   3 5992.17 326.176  12
  -5   3  -3 5437.94 303.718   3
  -3  -2   3 3941.18 365.460  23
  -2  -3   3 3699.66 344.467  23
  -3  -2  -3 5287.02 384.075   6
  -2  -3  -3 5664.66 429.666   6
  -5   3   3 5437.91 292.422  22
  -3   5   3 5211.54 296.724   2
  -2  -3   3 5677.44 360.926  11
  -3  -2   3 5749.79 372.734  11
  -5   2   3 5264.19 306.710  20
  -5   3   3 5122.73 295.966  20
   2  -5  -3 5631.92 393.521   5
   3  -5  -3 5013.16 371.832   5
  -5   3   3 5475.91 296.976   3
   5  -3   3 5396.26 387.430  19
   5  -2   3 4910.89 382.635  19
   3   2   3 5347.91 314.677  19
   5  -3  -3 5437.17 335.163   5
   5  -2  -3 5767.16 325.479   5
   3   2  -3 4862.78 376.011  17
   2   3  -3 5516.17 400.759  17
  -2   5  -3 5518.09 370.874   9
  -3   5  -3 5594.83 349.214   9
   2  -5  -3 4752.26 343.519  16
   3  -5  -3 5029.96 337.736  16
   5  -2   3 4777.33 367.313   8
  -5   3  -3 5477.94 320.142  15
  -5   2  -3 5337.77 308.275  15
   3   2  -3 4634.77 369.238   8
  -5   2   3 5756.03 304.039  15
   2   3  -3 4608.71 377.098   8
   5  -3  -3 5338.75 294.802  14
   5  -2  -3 5173.56 293.001  14
   2   3  -4 164.329 98.0368   8
   5  -3  -4 185.289 86.5313  14
   5  -2  -4 223.211 88.2444  14
  -3   5   4 106.191 80.9925  22
  -5   3   4 149.885 87.4044  13
   5  -3   4 115.977 83.8425   4
   5  -2   4 109.014 73.6292   4
   2  -5   4 196.681 105.517  12
   3  -5   4 127.790 90.1056  12
  -3  -2  -4 253.487 136.452   6
  -2  -3  -4 103.374 110.021   6
  -2  -3   4 94.3144 95.1133  11
  -3  -2   4 144.915 103.736  11
  -5   2   4 146.627 87.4952  20
  -5   3   4 186.377 87.3428  20
  -3   5  -4 86.0950 80.2657   2
   5  -3   4 71.5194 94.3479  19
   5  -2   4 195.881 129.597  19
   3   2   4 178.726 87.3743  19
  -5   3  -4 62.1194 80.6724   3
   3   2   4 172.222 75.6625  10
   2  -5  -4 71.6306 101.721   5
   3  -5  -4 120.338 96.3219   5
  -5   2  -4-12.7765 128.407  18
  -5   3   4 120.869 77.5544   3
   5  -3  -4 154.755 105.165   5
   5  -2  -4 79.3838 83.5610   5
   3   2  -4 166.779 102.491  17
   2   3  -4 139.654 106.025  17
   2   3  -4 197.113 111.517   9
  -2   5  -4 68.0574 114.814   9
  -3   5  -4 126.979 109.305   9
   2  -5  -4 132.208 92.0299  16
  -5   3  -4 121.263 91.0429  15
  -5   2  -4 150.561 87.7980  15
  -5   2   4 171.286 88.6808  15
  -3  -2   4 142.746 70.7955  15
   3   2  -4 42.2017 78.6524   8
  -5   3   5 3750.42 280.443  13
   2  -5   5 3407.90 294.545  12
  -3  -2  -5 2957.50 296.254   6
  -3   5   5 3169.18 258.591  22
  -2  -3  -5 3019.31 285.190   6
   2  -5  -5 3303.15 258.813  21
  -2  -3   5 2879.74 264.772  11
  -3  -2   5 2916.16 279.310  11
   2  -5  -5 3282.42 264.116   5
  -5   3   5 3533.58 280.831  20
   3  -5  -5 2935.38 256.165   5
   5  -3   5 2818.77 247.157  19
   5  -2   5 3021.71 284.085  19
  -5   3   5 3310.46 257.483   3
   5  -3  -5 3525.54 280.959   5
   3   2   5 3437.97 245.516  10
  -2  -3  -5 2931.28 268.271  18
   3   2  -5 2728.95 242.888   9
  -5   2  -5 2920.65 268.161  18
   2   3  -5 2900.16 251.913   9
   3   2  -5 2971.09 245.598  17
  -2   5  -5 3011.67 300.820   9
   2   3  -5 3255.02 262.863  17
  -3   5  -5 3245.61 294.156   9
   3  -5  -5 3594.96 262.871   1
  -5   3  -5 3068.14 274.905  15
  -5   2  -5 3286.11 264.023  15
   3  -5   5 3642.30 272.477   4
  -3   5  -5 3526.32 275.469   2
  -5   2   5 3445.82 278.030  20
  -3  -2   5 3636.19 255.946  15
   5  -3   5 3222.98 254.836   4
   5  -3  -5 3661.02 261.248  14
   5  -2  -5 3531.12 265.542  14
  -5   3   6 4454.83 332.613  13
  -2  -3   6 2712.10 293.330  12
   2  -5   6 3605.65 321.112  12
  -3  -2  -6 3624.55 317.714   6
  -3   5   6 5173.73 357.041  22
   2  -5  -6 5005.32 335.336  21
  -3  -2   6 3707.32 279.427  11
  -5   2   6 5293.63 370.090  20
  -5   3   6 4635.83 352.005  20
   3  -5  -6 3979.63 284.401   5
   5  -2   6 4067.11 305.319  19
  -5   3   6 4652.30 329.562   3
  -2  -3  -6 3548.23 280.943  18
  -3  -2  -6 3955.85 276.641  18
   3   2  -6 3786.21 270.438   9
  -5   2  -6 4143.06 300.851  18
   2   3  -6 3961.99 273.880   9
  -5   3  -6 4236.81 341.157  18
  -2   5  -6 3363.72 328.008   9
  -3   5  -6 3732.30 329.513   9
   3  -5  -6 4708.64 324.591   1
  -3   5  -6 4516.34 343.147   2
   3  -5   6 3962.31 276.475   4
  -5   2  -6 3590.01 297.551  15
  -3  -2   6 4522.50 324.325  15
   5  -3   6 4283.87 301.129   4
   5  -3  -6 4590.63 314.311  14
   5  -2  -6 4342.31 316.916  14
   5  -4   0 20864.6 822.589   4
  -5   4   0 21953.3 836.965  13
  -5   4   0 21935.0 828.751   2
  -4   5   0 23049.0 851.117   2
  -5   1   0 21621.9 877.496   6
  -4  -1   0 23760.6 966.973   6
   1  -5   0 23192.5 833.616  12
  -4  -1   0 21763.8 904.284  23
   4  -5   0 20550.9 826.650  12
  -1  -4   0 22831.3 969.801  23
   1  -5   0 20747.3 1014.36  23
  -1  -4   0 22156.7 865.753  11
  -5   4   0 21983.4 843.572   3
   4   1   0 21082.2 867.418  19
   5  -4   0 22200.1 949.215   5
   5  -1   0 22178.8 914.532  17
   4   1   0 21929.8 916.320  17
   1  -5   0 19146.9 1079.75  16
   4  -5   0 20329.4 961.382  16
   5  -4   0 22303.1 966.725  16
   5  -1   0 22651.9 999.720   8
   4   1   0 22250.8 931.147   8
  -5   1   0 20715.3 821.698  15
   1   4   0 22340.9 911.341   8
   1   4  -1 53.7347 98.7238   8
  -5   4  -1 20.0963 60.2940  13
  -5   4   1 21.5164 62.8327  13
   5  -4   1 71.8356 66.3368   4
  -4  -1   1 79.1570 99.4725  23
  -4  -1  -1 8.71092 77.7133  23
   1  -5   1-19.9625 73.9932  12
  -1  -4  -1-12.1592 98.3144  23
   1  -5   1-18.7970 112.045  23
   1  -5  -1-48.5749 132.335  23
   1  -5  -1 12.2983 72.2005  12
   4  -5   1-14.0250 71.9162  12
  -5   1  -1 17.7180 90.8523   6
  -4  -1  -1-36.6227 102.908   6
  -1  -4  -1 199.330 83.9490  11
  -1  -4   1 18.4684 81.6427  11
  -4  -1   1-7.68045 60.7370  11
   5  -1   1-49.0699 101.324  19
  -5   4  -1 13.1199 62.0743   2
   4   1   1 17.7735 80.6853  19
   4   1  -1 144.039 90.4323  19
  -4   5  -1 7.17392 67.3428   2
  -5   4  -1 57.6045 73.3441   3
  -5   4   1 13.4217 68.8228   2
  -5   4   1 22.4870 63.1880   3
  -4   5   1 22.7591 68.8788   2
   5  -4  -1-12.2795 92.5863   5
   5  -1  -1 13.9340 90.9851  17
   4   1  -1-14.6409 93.9941  17
   1   4  -1 25.6714 101.503  17
  -1  -4   1 30.5895 116.753  23
   1  -5  -1-19.2720 117.151  16
   1  -5   1 22.1654 112.111  16
   4  -5  -1-25.0542 95.6262  16
   4  -5   1-17.5709 100.460  16
   5  -4  -1-56.6766 85.4673  16
   5  -4   1-16.5748 104.559  16
   5  -1   1 27.7810 87.6259   8
  -5   1  -1-13.5963 57.8784  15
   5  -1  -1 33.7097 92.0809   8
  -5   1   1 26.9587 61.7170  15
  -4  -1   1 5.97234 55.6099  15
   4   1   1-31.5858 85.1306   8
   4   1  -1 27.5432 91.4114   8
   5  -4   2 1129.07 136.932   4
  -5   4  -2 1194.76 130.547   2
  -4   5  -2 1002.42 124.235   2
  -5   4  -2 957.168 120.798  13
  -5   4   2 1055.51 126.812  13
  -5   1  -2 1213.43 154.754   6
   1  -5   2 1128.76 134.899  12
  -5   4   2 1092.43 128.595   2
  -4   5   2 1306.96 146.320   2
  -1  -4  -2 1194.02 169.420  23
  -5   4  -2 958.191 121.960   3
  -4  -1   2 1118.95 203.617  23
  -1  -4   2 837.926 178.407  23
   1  -5  -2 1156.71 194.838  23
  -4   5   2 946.479 126.847  22
  -1  -4  -2 1131.55 142.850  11
  -1  -4   2 1165.51 158.201  11
  -4  -1  -2 1197.42 183.999   6
  -4  -1   2 1160.51 150.131  11
  -1  -4  -2 1315.46 228.448   6
  -5   4   2 945.847 126.455   3
   4   1   2 1225.17 150.442  19
   5  -1   2 1152.12 171.963  19
   4  -5  -2 895.816 181.009   5
   5  -4  -2 1029.85 169.742   5
   5  -1  -2 1097.94 182.979  17
   4   1  -2 860.142 171.702  17
   1   4  -2 938.247 209.106  17
   1  -5  -2 849.594 179.267  16
   4  -5  -2 757.901 142.318  16
   4  -5   2 1085.52 196.749  16
   5  -4  -2 977.658 147.343  16
   5  -4   2 862.853 183.593  16
  -5   1  -2 1067.41 124.099  15
  -5   1   2 1195.23 133.262  15
  -4  -1   2 959.520 114.020  15
   5  -1   2 1127.48 171.242   8
   5  -1  -2 1156.85 188.229   8
   4   1   2 893.184 139.455   8
   5  -1  -2 1115.26 125.251  14
   4   1  -2 986.778 176.063   8
   5  -1  -3 7.17591 65.7127  14
  -5   4   3 15.9245 62.9668  13
   5  -4   3 27.6889 77.8057   4
  -4  -1   3 36.5191 117.226  23
   1  -5   3 8.59369 87.5348  12
  -5   4   3-15.8120 61.0843  22
  -4   5   3 15.8950 72.1585  22
  -5   1  -3 28.5078 88.4806   6
  -4  -1  -3 11.8867 109.767   6
  -1  -4   3 12.1185 89.0593  11
  -4  -1   3 138.751 100.876  11
  -5   1   3-8.02729 63.4809  20
  -5   4  -3 46.4610 73.2742   2
  -4   5  -3-7.72472 73.0965   2
   5  -1   3 13.2143 104.498  19
   4   1   3 39.5763 83.4066  19
   5  -1   3 62.6734 71.1298  10
  -5   4  -3 23.4086 68.9891   3
   4  -5  -3-30.8834 111.978   5
   5  -4  -3 12.0143 93.9229   5
  -5   4   3-15.8538 68.7995   3
  -5   4   3-42.9583 72.9292   2
  -1  -4  -3 10.7142 95.5855  23
   5  -1  -3 48.2769 89.9848  17
  -4   5   3 65.8275 81.4860   2
   4   1  -3 14.9889 91.1161  17
   1   4  -3 17.4297 99.6533  17
  -1   5  -3 68.6228 113.874   9
   1  -5  -3 55.2417 107.964  16
   4  -5  -3 38.6749 83.1213  16
   5  -4   3 69.2494 103.114  16
   5  -1   3 12.2125 89.7504   8
  -5   1  -3 21.7900 64.8003  15
  -5   1   3 37.8435 65.6909  15
  -4  -1   3 6.74418 58.5353  15
   4   1  -3-13.7893 83.8243   8
  -5   4   4 13956.1 603.714  13
  -5   4  -4 12897.6 594.061   3
  -1  -4   4 14512.3 623.024  12
   1  -5   4 13123.1 620.207  12
  -4  -1   4 11771.1 659.829  23
  -4  -1  -4 12830.2 642.948   6
  -5   4   4 13751.1 595.410  22
  -4   5   4 13818.6 601.217  22
  -4  -1   4 13316.8 695.464  11
  -5   1   4 13762.0 601.792  20
  -5   4   4 13641.6 593.928   3
   4  -5  -4 9651.05 608.591   5
   5  -1   4 11340.9 638.377  19
   4   1   4 14032.8 635.380  19
   5  -4  -4 12193.0 644.713   5
   5  -1   4 14406.6 618.896  10
   4   1   4 12931.8 572.238  10
  -1  -4  -4 14215.2 634.163  18
   5  -1  -4 11896.7 621.981  17
   4   1  -4 11761.0 614.308  17
  -1   5  -4 11053.5 679.652   9
   1   4  -4 14204.7 693.582  17
  -1   5  -4 11433.9 672.175  17
  -4   5  -4 14787.3 630.922   9
  -5   1  -4 13005.4 574.719  15
   4  -5   4 10963.5 614.347   4
  -5   1   4 13115.0 582.453  15
  -5   4  -4 13813.2 607.399   2
  -4  -1   4 13193.0 571.628  15
  -4   5  -4 13725.1 591.966   2
   5  -4   4 14296.4 632.229   4
   5  -1  -4 13356.4 579.497  14
   1   4  -5 29.8497 81.3211   8
   5  -1  -5-49.7570 99.2585  14
   4  -5   5 76.4919 107.469   4
   5  -4   5 35.4995 91.4241   4
  -5   4   5 46.1262 98.1765  13
  -4   5   5-45.1960 110.258  13
  -1  -4   5 100.790 107.263  12
   1  -5   5-64.2162 135.224  12
  -5   4   5 42.1264 85.1548  22
  -4   5   5 44.9632 97.5595  22
   1  -5  -5 119.487 104.839  21
  -4  -1  -5-26.4578 115.892   6
  -4  -1   5 58.2426 112.497  11
  -5   1   5 33.4055 91.9714  20
  -4   5  -5 10.4988 92.8227   2
   5  -1   5-14.2592 111.472  19
   4   1   5-34.7091 115.400  19
   5  -1   5-11.6720 98.3934  10
   4   1   5 48.3413 92.9266  10
  -1  -4  -5-50.8483 115.416  18
   4  -5  -5-36.3816 111.988   5
   5  -4  -5-12.9572 110.314   5
  -5   4   5 21.2714 91.4329   3
   4   1  -5-19.0564 84.2417  17
   1   4  -5 69.2231 99.1827  17
  -1   5  -5 52.8710 97.1370  17
   1   4  -5-33.2945 101.628   9
  -1   5  -5 14.9974 113.079   9
  -4   5  -5-11.0859 100.652   9
  -5   1  -5-9.21988 80.0203  15
  -5   1   5 30.8028 87.4159  15
  -4  -1   5 59.4438 81.8300  15
  -5   0   0 64.9384 95.7483  23
   0  -5   0 121.720 129.501  23
  -5   0   0 36.2114 109.641   6
   0  -5   0 84.0946 91.2941  11
   5   0   0 88.7747 98.1674  19
  -5   5   0 140.433 76.7712   2
  -5   5   0 53.8029 68.6523   3
   5   0   0 101.818 104.524  17
   5  -5   0 531.950 148.471  16
  -5   0   0 129.629 72.3708  15
   5   0   0 73.4717 105.161   8
  -5   5  -1 4352.67 276.469   2
  -5   5   1 5053.35 294.393   2
  -5   0   1 5166.45 365.365   6
  -5   0  -1 4729.42 339.380   6
  -5   0   1 4797.88 357.446  23
   0  -5   1 4544.27 406.817  23
   0  -5  -1 5084.73 390.216  23
   0  -5   1 5099.56 338.563  11
  -5   5  -1 4555.03 279.080   3
  -5   5   1 4602.50 282.960   3
   5   0   1 5051.23 335.631  19
   5  -5  -1 4760.68 397.599   5
   5   0  -1 4910.56 365.890  17
   0   5  -1 3856.00 440.095  17
   5  -5  -1 4554.27 340.538  16
   5  -5   1 4861.94 398.670  16
   5   0   1 4565.22 346.929   8
   5   0  -1 4195.59 361.784   8
  -5   0  -1 4697.45 269.869  15
  -5   0   1 4686.36 272.307  15
  -5   5  -2 6817.60 357.655   2
  -5   5   2 6741.68 347.254  13
  -5   5   2 7400.03 372.507   2
  -5   0  -2 7244.42 421.366   6
  -5   5  -2 6311.05 350.346   3
   0  -5  -2 6591.47 442.403  23
   0  -5   2 7504.39 433.676  11
  -5   5   2 6782.69 360.742   3
   5   0   2 6695.04 407.203  19
   5  -5  -2 6204.27 454.436   5
   5   0  -2 6331.23 449.945  17
   0   5  -2 7121.01 545.636  17
   5  -5  -2 6818.95 399.185  16
   5  -5   2 5376.12 435.293  16
   5   0   2 6502.49 409.201   8
   5   0  -2 5620.83 429.753   8
  -5   0   2 6780.98 475.941  23
  -5   0  -2 7036.76 344.386  15
  -5   0   2 6680.79 346.214  15
  -5   5  -3 2976.79 236.834   2
  -5   5   3 3634.52 245.534  13
   0  -5   3 3691.15 252.280  12
  -5   5  -3 3375.41 246.062   3
  -5   0   3 2482.05 313.164  23
  -5   0  -3 3578.82 290.237   6
   0  -5  -3 3512.27 300.567  23
  -5   5   3 3913.46 258.860   2
  -5   0   3 3613.83 298.472  11
  -5   5   3 3551.77 245.323   3
   5  -5  -3 3074.17 304.172   5
   5   0   3 3115.20 275.666  19
   5   0  -3 2880.03 299.765  17
   0   5  -3 3555.54 358.993  17
   5   0   3 3461.62 278.612   8
  -5   0   3 3107.28 229.212  15
   5  -5   3 3648.10 276.387   4
   5  -5   4 46.8953 92.7452   4
  -5   5   4 47.1870 87.1856  13
  -5   0   4 14.8495 98.5982  23
   0  -5   4-20.2405 111.262  12
  -5   5   4 118.962 89.2633  22
  -5   0  -4 138.135 124.294   6
  -5   0   4 63.6738 113.892  11
  -5   5  -4 121.962 100.069   2
   5   0   4 38.9415 115.830  19
  -5   5  -4 105.947 93.3174   3
   5   0   4 142.308 95.3355  10
   5  -5  -4 42.6435 112.435   5
  -5   5   4 149.193 94.3594   3
  -5   5   4 114.973 102.831   2
   5   0  -4 133.178 101.067  17
   0   5  -4 186.424 117.162  17
  -5   0   4 26.6299 82.0099  15
  -6   3   0 13235.0 585.141  13
   3  -6   0 13618.5 590.313  12
  -3  -3   0 13528.8 662.660  23
  -3  -3   0 13416.2 583.206  11
   3   3   0 13048.7 596.854  19
   6  -3   0 14466.2 663.334   5
   3  -6   0 12324.0 737.609  16
   3   3   0 13362.4 643.358   8
  -6   3   0 13139.8 571.685  15
  -6   3  -1-17.1155 78.3643  13
  -6   3   1-24.3487 77.4065  13
   6  -3   1 38.0635 69.1172   4
  -3  -3   1 14.6893 117.474  23
  -3  -3  -1 10.8289 98.3173  23
   3  -6   1 25.1101 91.4534  12
   3  -6  -1-63.7049 93.9784  12
  -3  -3   1 18.2313 86.2561  11
   3   3   1-17.5301 91.0948  19
   3   3  -1-19.1411 87.6386  19
   6  -3  -1 11.0998 100.777   5
   3   3  -1-34.9091 108.124  17
  -3   6  -1 24.2846 100.289   9
   3  -6  -1 16.2171 104.113  16
   3  -6   1 245.744 152.996  16
   6  -3  -1-23.3117 103.052  16
  -6   3  -1 39.3222 69.5316  15
   3   3   1 19.7359 88.0345   8
   3   3  -1 55.8393 106.562   8
  -6   3   2 756.963 124.040  13
   6  -3   2 721.005 121.251   4
  -3  -3   2 620.124 175.539  23
  -3  -3  -2 812.995 142.043  23
   3  -6   2 1037.29 152.485  12
  -3  -3  -2 753.214 208.907   6
  -3  -3   2 702.270 138.034  11
   3   3   2 649.424 126.555  19
   6  -3  -2 597.924 138.808   5
   3   3  -2 485.420 174.581  17
  -3   6  -2 814.995 161.072   9
   3  -6  -2 623.128 146.481  16
  -6   3  -2 590.655 117.929  15
   3   3  -2 546.920 153.756   8
  -6   3   3 8.75909 80.8863  13
   6  -3   3 25.6193 81.4471   4
  -3  -3   3-49.7739 106.516  23
   3  -6   3 20.1566 93.8405  12
  -3  -3  -3 102.032 144.778   6
  -3  -3   3 12.7904 106.738  11
  -6   3   3 50.9059 78.3489  20
   3  -6  -3-42.3922 115.491   5
   6  -3  -3 73.5026 108.411   5
   3   3  -3 78.2034 111.877  17
  -3   6  -3-13.1846 119.706   9
   3  -6  -3 48.7143 90.6708  16
  -6   3  -3-9.58165 79.1410  15
   3   3  -3-16.0592 109.981   8
  -6   3   4 9124.75 460.766  13
   3  -6   4 9857.00 498.317  12
   6  -3   4 8533.37 485.825  19
   6  -3  -4 8953.81 473.727   5
   2   4   0 80.1830 95.6113   8
  -6   2   0 47.2822 75.7681  13
  -6   4   0 74.0782 82.7057  13
   6  -4   0 7.74993 73.3603   4
  -4  -2   0 70.4094 110.174  23
  -2  -4   0-14.3211 117.063  23
   2  -6   0 115.241 91.6119  12
   4  -6   0 40.6981 90.5318  12
  -6   2   0 59.4415 106.314   6
  -2  -4   0 44.6972 82.5744  11
   4   2   0 105.799 93.8768  19
  -4   6   0 56.1935 76.5875   2
  -6   4   0 123.704 81.6921   3
   6  -4   0 150.288 127.227   5
   2  -6   0 115.410 145.621  16
   4  -6   0 118.366 124.282  16
   6  -4   0 146.376 115.769  16
   6  -2   0 20.4038 124.047   8
  -6   2   0 15.6872 77.1344  15
   4   2   0 62.0691 109.772   8
   6  -4   1 3824.61 254.482   4
   6  -4  -1 3614.58 244.424   4
  -6   4  -1 3916.38 255.902  13
  -4   6  -1 3576.36 248.604   2
  -6   4   1 3658.39 253.184  13
  -4   6   1 3699.38 252.269   2
  -6   2  -1 3607.69 268.500   6
   2  -6   1 3928.85 258.989  12
  -4  -2   1 4211.62 341.541  23
  -4  -2  -1 3336.21 267.594  23
   4  -6   1 3853.96 260.423  12
   2  -6  -1 3690.90 250.712  12
  -4  -2  -1 3639.99 349.711   6
  -2  -4   1 3371.52 333.396  23
  -2  -4  -1 3813.44 309.001  23
  -6   4  -1 3921.53 259.113   3
  -2  -4  -1 3515.48 253.085  11
  -2  -4   1 3877.35 281.820  11
  -4  -2   1 3440.31 250.078  11
  -6   4   1 3917.19 257.375   3
   4   2   1 3694.41 271.373  19
   4   2  -1 3727.17 274.372  19
   2   4   1 4052.10 262.561  19
   6  -4  -1 3766.53 308.906   5
   4   2  -1 3489.82 327.691  17
   2  -6  -1 3319.36 352.802  16
   2  -6   1 2797.47 347.689  16
   4  -6  -1 2895.93 292.272  16
   4  -6   1 3128.97 346.887  16
   6  -2   1 3559.73 345.804   8
   6  -4  -1 3836.99 302.479  16
   6  -2  -1 3152.16 357.674   8
   6  -4   1 3927.27 360.955  16
   4   2   1 3564.09 278.037   8
   4   2  -1 3707.24 324.395   8
  -6   2  -1 4010.45 256.687  15
  -6   2   1 3763.69 242.754  15
   2   4  -1 3793.39 317.855   8
   6  -4   2 5706.75 328.021   4
  -4   6  -2 5117.83 309.635   2
   6  -2   2 5667.64 307.891   4
  -6   4   2 4844.21 309.774  13
  -4   6   2 5871.05 329.963   2
  -6   2  -2 5670.09 339.961   6
   2  -6   2 5475.59 324.313  12
  -4  -2   2 4984.16 411.539  23
   4  -6   2 5828.42 338.441  12
  -6   4  -2 5523.65 323.291   3
  -2  -4   2 4087.45 389.620  23
  -2  -4  -2 5533.88 364.396  23
  -4  -2  -2 5443.67 428.298   6
  -2  -4   2 5465.25 359.711  11
  -4  -2   2 5615.54 349.974  11
  -6   4   2 6013.84 329.502   3
   4   2   2 5937.76 349.653  19
   4   2  -2 5199.58 346.216  19
   6  -4  -2 5338.29 368.360   5
   6  -2  -2 5456.91 335.873   5
   4   2  -2 4072.32 379.081  17
   2   4  -2 5207.52 445.926  17
  -4   6  -2 6080.78 363.345   9
   2  -6  -2 4416.79 382.710  16
   4  -6  -2 5259.03 370.602  16
   6  -2   2 4968.65 399.651   8
   6  -4   2 4725.92 417.257  16
   4   2  -2 4745.41 387.529   8
  -6   2  -2 5268.68 316.280  15
  -6   2   2 5400.04 307.837  15
   2   4  -2 5943.36 437.579   8
   6  -4   3 2869.77 235.392   4
  -6   4   3 2908.41 228.329  13
  -4   6   3 2946.12 230.098   2
  -6   4  -3 3184.33 237.896   3
   2  -6   3 3046.50 244.421  12
  -4  -2   3 1934.98 273.658  23
  -4  -2  -3 2599.32 289.103   6
  -2  -4  -3 2598.74 287.090   6
  -2  -4   3 2920.13 269.870  11
  -4  -2   3 2934.14 267.989  11
  -6   4   3 3172.45 234.080   3
   4  -6  -3 2412.22 264.435   5
   6  -2   3 2035.64 263.772  19
   4   2   3 3200.51 250.955  19
   6  -4  -3 2673.12 254.389   5
   6  -2  -3 2732.97 227.579   5
   4   2  -3 2361.26 265.870  17
   2   4  -3 2869.38 297.702  17
  -2   6  -3 2825.24 301.723   9
  -4   6  -3 2506.64 242.470   9
   2  -6  -3 2223.27 251.692  16
   4  -6  -3 2263.33 233.917  16
   6  -2   3 2313.72 266.299   8
   6  -4   3 2848.42 284.344  16
  -6   2  -3 2641.20 222.419  15
   4   2  -3 1937.88 240.575   8
  -6   2   3 2876.02 217.320  15
   2   4  -3 2516.63 284.914   8
  -4   6  -3 2687.66 219.308   2
  -6   5   0 53.8032 83.4929  13
  -5  -1   0 207.468 118.212  23
  -1  -5   0-16.8521 131.749  23
   1  -6   0-20.2412 146.788  23
  -6   1   0 23.4795 112.846   6
  -5  -1   0 78.2755 143.363   6
  -1  -5   0 41.8895 91.7552  11
   5   1   0 129.136 105.022  19
  -5   6   0 76.3979 84.6810   2
  -6   5   0 144.626 88.4296   3
   1  -6   0-26.2430 156.435  16
   5  -6   0-63.7805 107.541  16
   6  -5   0 74.5480 120.562  16
   6  -1   0-35.1936 112.980   8
  -6   1   0 31.6272 77.1702  15
   5   1   0 27.6248 102.844   8
  -5   6  -1 3341.40 237.043   2
  -6   5   1 2995.91 221.308  13
  -5   6   1 3249.66 240.018   2
  -6   1   1 2748.24 272.022   6
  -6   1  -1 3068.08 265.967   6
  -6   1   1 2902.72 283.115  23
  -5  -1  -1 3242.98 310.096   6
  -5  -1   1 3182.43 301.909  23
  -1  -5   1 2797.35 322.947  23
  -1  -5  -1 3026.23 305.518  23
  -6   5  -1 2773.85 221.659   3
  -1  -5  -1 3081.24 247.046  11
  -1  -5   1 3339.29 275.125  11
  -6   5   1 3202.33 235.183   3
   5   1   1 2909.62 252.627  19
   6  -5  -1 2946.93 306.938   5
   5   1  -1 2654.19 270.302  17
  -1   6  -1 2625.90 365.490  17
   5  -6  -1 3136.95 290.118  16
   5  -6   1 2750.82 309.762  16
   6  -5  -1 2379.32 250.820  16
   6  -5   1 2361.12 287.756  16
   6  -1   1 2682.48 289.308   8
   6  -1  -1 2906.42 323.848   8
   5   1   1 3168.02 272.373   8
   5   1  -1 2702.38 293.049   8
  -6   1  -1 3168.44 224.230  15
  -6   1   1 2992.27 216.740  15
   1   5  -1 3321.15 298.917   8
   6  -5   2 4658.78 300.481   4
  -6   5   2 4562.22 282.455  13
  -6   1  -2 4770.70 332.160   6
  -6   1   2 4087.83 374.225  23
   1  -6   2 4485.87 280.253  12
  -5  -1   2 4433.30 381.193  23
  -5  -1  -2 4367.99 347.760   6
  -6   5  -2 4347.48 284.503   3
  -1  -5  -2 4691.01 350.993  23
  -1  -5   2 4522.59 339.644  11
   6  -1   2 3969.32 339.839  19
   6  -5  -2 4210.32 357.198   5
   5   1  -2 4296.61 360.418  17
   1   5  -2 3829.68 400.512  17
  -1   6  -2 4634.87 435.786  17
   5  -6  -2 3650.90 300.773  16
   5  -6   2 3458.27 338.897  16
   6  -5   2 3597.29 350.757  16
   6  -1   2 4586.34 357.450   8
   5   1   2 4617.79 322.874   8
   5   1  -2 3829.15 345.142   8
  -6   1  -2 4443.76 277.177  15
   1   5  -2 4402.80 377.668   8
   0   0   0    0.00    0.00   0
TITL NiSe26 in P6(3)/mmc
REM P6(3)/mmc (#194 in standard setting)
CELL 0.71073   3.661475   3.661475   5.357661  90.0000  90.0000 120.0000
ZERR    2.00   0.000100   0.000100   0.000160   0.0000   0.0000   0.0000
LATT  1
SYMM -y, x-y, z
SYMM -x+y,-x, z
SYMM -x,-y, z+1/2
SYMM  y,-x+y, z+1/2
SYMM  x-y, x, z+1/2
SYMM  y, x,-z
SYMM  x-y,-y,-z
SYMM -x,-x+y,-z
SYMM -y,-x,-z+1/2
SYMM -x+y, y,-z+1/2
SYMM  x, x-y,-z+1/2
SFAC Ni Se
UNIT 2.00 2.00
TREF
HKLF 4
END
;
_shelx_hkl_checksum              82777
_shelx_res_file
;
TITL NiSe26 in P63/mmc #194
    shelx.res
    created by SHELXL-2018/3 at 17:15:07 on 14-Sep-2020
REM reset to P63/mmc #194
CELL 0.71073 3.661475 3.661475 5.357661 90 90 120
ZERR 2 0.0001 0.0001 0.00016 0 0 0
LATT 1
SYMM -Y+X,+X,0.5+Z
SYMM -Y,+X-Y,+Z
SYMM -X,-Y,0.5+Z
SYMM +Y-X,-X,+Z
SYMM +Y,-X+Y,0.5+Z
SYMM -Y+X,-Y,-Z
SYMM -X,-X+Y,-Z
SYMM +Y,+X,-Z
SYMM -Y,-X,0.5-Z
SYMM +Y-X,+Y,0.5-Z
SYMM +X,+X-Y,0.5-Z
SFAC Ni Se
UNIT 2 2
L.S. 4
PLAN  5
fmap 2
acta
OMIT 0 0 2
OMIT -1 2 0
OMIT -1 2 2
REM <olex2.extras>
REM <HklSrc "%.\\NiSe26.hkl">
REM </olex2.extras>
WGHT    0.027800
FVAR       4.85414
SE1   2    0.333333    0.666667    0.250000    10.08333    0.00730    0.00730 =
         0.01331    0.00000    0.00000    0.00365
NI2   1    0.000000    0.000000    0.000000    10.08333    0.01180    0.01180 =
         0.01241    0.00000    0.00000    0.00590
HKLF 4
REM  NiSe26 in P63/mmc #194
REM wR2 = 0.0429, GooF = S = 1.238, Restrained GooF = 1.238 for all data
REM R1 = 0.0176 for 85 Fo > 4sig(Fo) and 0.0193 for all 91 data
REM 5 parameters refined using 0 restraints
END
WGHT      0.0278      0.0000
REM Highest difference peak  1.228,  deepest hole -1.735,  1-sigma level  0.233
Q1    1   0.0000  0.0000  0.2500  10.08333  0.05    1.23
Q2    1  -0.2514  0.2514  0.0568  10.50000  0.05    0.67
Q3    1  -0.0703 -0.1405  0.1039  10.50000  0.05    0.42
Q4    1   0.1391  0.2782  0.1820  10.50000  0.05    0.40
Q5    1   0.1887  0.3774  0.0689  10.50000  0.05    0.32
;
_shelx_res_checksum              71509
loop_
_symmetry_equiv_pos_as_xyz
'x, y, z'
'x-y, x, z+1/2'
'-y, x-y, z'
'-x, -y, z+1/2'
'-x+y, -x, z'
'y, -x+y, z+1/2'
'x-y, -y, -z'
'-x, -x+y, -z'
'y, x, -z'
'-y, -x, -z+1/2'
'-x+y, y, -z+1/2'
'x, x-y, -z+1/2'
'-x, -y, -z'
'-x+y, -x, -z-1/2'
'y, -x+y, -z'
'x, y, -z-1/2'
'x-y, x, -z'
'-y, x-y, -z-1/2'
'-x+y, y, z'
'x, x-y, z'
'-y, -x, z'
'y, x, z-1/2'
'x-y, -y, z-1/2'
'-x, -x+y, z-1/2'
loop_
_atom_site_type_symbol
_atom_site_label
_atom_site_fract_x
_atom_site_fract_y
_atom_site_fract_z
_atom_site_U_iso_or_equiv
_atom_site_adp_type
_atom_site_calc_flag
_atom_site_occupancy
_atom_site_disorder_assembly
_atom_site_disorder_group
Se Se1 0.333333 0.666667 0.250000 0.00930(13) Uani d 1 . .
Ni Ni2 0.000000 0.000000 0.000000 0.01201(15) Uani d 1 . .
loop_
_atom_site_aniso_label
_atom_site_aniso_U_11
_atom_site_aniso_U_22
_atom_site_aniso_U_33
_atom_site_aniso_U_12
_atom_site_aniso_U_13
_atom_site_aniso_U_23
Se1 0.00730(14) 0.00730(14) 0.01331(18) 0.00365(7) 0.000 0.000
Ni2 0.01180(17) 0.01180(17) 0.0124(2) 0.00590(9) 0.000 0.000
loop_
_atom_type_symbol
_atom_type_description
_atom_type_scat_dispersion_real
_atom_type_scat_dispersion_imag
_atom_type_scat_source
Ni Ni 0.3393 1.1124 'International Tables Vol C Tables 4.2.6.8 and 6.1.1.4'
Se Se -0.0929 2.2259 'International Tables Vol C Tables 4.2.6.8 and 6.1.1.4'
loop_
_geom_angle_atom_site_label_1
_geom_angle_atom_site_label_2
_geom_angle_atom_site_label_3
_geom_angle_site_symmetry_1
_geom_angle_site_symmetry_3
_geom_angle
_geom_angle_publ_flag
Ni2 Se1 Ni2 2_565 1_565 64.717(2) ?
Ni2 Se1 Ni2 2_565 2_665 94.0320(10) ?
Ni2 Se1 Ni2 1_565 2_665 130.0330(10) ?
Ni2 Se1 Ni2 2_565 . 130.0330(10) ?
Ni2 Se1 Ni2 1_565 . 94.0320(10) ?
Ni2 Se1 Ni2 2_665 . 130.0330(10) ?
Ni2 Se1 Ni2 2_565 1_665 130.0330(10) ?
Ni2 Se1 Ni2 1_565 1_665 94.0320(10) ?
Ni2 Se1 Ni2 2_665 1_665 64.717(2) ?
Ni2 Se1 Ni2 . 1_665 94.0320(10) ?
Ni2 Se1 Ni2 2_565 2 94.0320(10) ?
Ni2 Se1 Ni2 1_565 2 130.0330(10) ?
Ni2 Se1 Ni2 2_665 2 94.0320(10) ?
Ni2 Se1 Ni2 . 2 64.717(2) ?
Ni2 Se1 Ni2 1_665 2 130.0330(10) ?
Se1 Ni2 Se1 13_565 1_545 180.0 ?
Se1 Ni2 Se1 13_565 . 85.9680(10) ?
Se1 Ni2 Se1 1_545 . 94.0320(10) ?
Se1 Ni2 Se1 13_565 13 94.0320(10) ?
Se1 Ni2 Se1 1_545 13 85.9680(10) ?
Se1 Ni2 Se1 . 13 180.0 ?
Se1 Ni2 Se1 13_565 13_665 94.0320(10) ?
Se1 Ni2 Se1 1_545 13_665 85.9680(10) ?
Se1 Ni2 Se1 . 13_665 85.9680(10) ?
Se1 Ni2 Se1 13 13_665 94.0320(10) ?
Se1 Ni2 Se1 13_565 1_445 85.9680(10) ?
Se1 Ni2 Se1 1_545 1_445 94.0320(10) ?
Se1 Ni2 Se1 . 1_445 94.0320(10) ?
Se1 Ni2 Se1 13 1_445 85.9680(10) ?
Se1 Ni2 Se1 13_665 1_445 180.0 ?
Se1 Ni2 Ni2 13_565 2 122.3590(10) ?
Se1 Ni2 Ni2 1_545 2 57.6410(10) ?
Se1 Ni2 Ni2 . 2 57.6410(10) ?
Se1 Ni2 Ni2 13 2 122.3590(10) ?
Se1 Ni2 Ni2 13_665 2 122.3590(10) ?
Se1 Ni2 Ni2 1_445 2 57.6410(10) ?
Se1 Ni2 Ni2 13_565 2_554 57.6410(10) ?
Se1 Ni2 Ni2 1_545 2_554 122.3590(10) ?
Se1 Ni2 Ni2 . 2_554 122.3590(10) ?
Se1 Ni2 Ni2 13 2_554 57.6410(10) ?
Se1 Ni2 Ni2 13_665 2_554 57.6410(10) ?
Se1 Ni2 Ni2 1_445 2_554 122.3590(10) ?
Ni2 Ni2 Ni2 2 2_554 180.0 ?
loop_
_geom_bond_atom_site_label_1
_geom_bond_atom_site_label_2
_geom_bond_site_symmetry_2
_geom_bond_distance
_geom_bond_publ_flag
Se1 Ni2 2_565 2.50257(5) ?
Se1 Ni2 1_565 2.50257(5) ?
Se1 Ni2 2_665 2.50257(5) ?
Se1 Ni2 . 2.50257(5) ?
Se1 Ni2 1_665 2.50257(5) ?
Se1 Ni2 2 2.50257(5) ?
Ni2 Ni2 2 2.67883(8) ?
Ni2 Ni2 2_554 2.67883(8) ?
