#------------------------------------------------------------------------------
#$Date: 2020-04-10 08:22:27 +0300 (Fri, 10 Apr 2020) $
#$Revision: 250629 $
#$URL: file:///home/coder/svn-repositories/cod/cif/2/02/20/2022050.cif $
#------------------------------------------------------------------------------
#
# This file is available in the Crystallography Open Database (COD),
# http://www.crystallography.net/. The original data for this entry
# were provided by IUCr Journals, http://journals.iucr.org/.
#
# The file may be used within the scientific community so long as
# proper attribution is given to the journal article from which the
# data were obtained.
#
data_2022050
loop_
_publ_author_name
'Jha, Kunal Kumar'
'Gruza, Barbara'
'Kumar, Prashant'
'Chodkiewicz, Michal Leszek'
'Dominiak, Paulina Maria'
_publ_section_title
;
 TAAM: a reliable and user friendly tool for hydrogen-atom location using
 routine X-ray diffraction data
;
_journal_issue                   3
_journal_name_full
'Acta Crystallographica Section B Structural Science, Crystal Engineering and Materials'
_journal_paper_doi               10.1107/S2052520620002917
_journal_volume                  76
_journal_year                    2020
_chemical_formula_moiety         'C8 H8 N2 O2'
_chemical_formula_sum            'C8 H8 N2 O2'
_chemical_formula_weight         164.16
_space_group_crystal_system      triclinic
_space_group_IT_number           2
_space_group_name_Hall           '-P 1'
_space_group_name_H-M_alt        'P -1'
_symmetry_Int_Tables_number      2
_audit_creation_date             2019-09-23
_audit_creation_method
;
Olex2 1.2
(compiled 2018.05.29 svn.r3508 for OlexSys, GUI svn.r5506)
;
_cell_angle_alpha                116.823(8)
_cell_angle_beta                 104.589(9)
_cell_angle_gamma                91.602(5)
_cell_formula_units_Z            2
_cell_length_a                   5.7913(3)
_cell_length_b                   8.2458(6)
_cell_length_c                   8.9223(10)
_cell_measurement_temperature    90.00(10)
_cell_volume                     362.99(6)
_computing_molecular_graphics    'Olex2 (Dolomanov et al., 2009)'
_computing_publication_material  'Olex2 (Dolomanov et al., 2009)'
_computing_structure_refinement  'olex2.refine (Bourhis et al., 2015)'
_diffrn_ambient_temperature      90.00(10)
_diffrn_measured_fraction_theta_full 0.6214
_diffrn_measured_fraction_theta_max 0.6214
_diffrn_measurement_device_type  'Oxford Diffraction Xcalibur System'
_diffrn_radiation_type           'Mo K\a'
_diffrn_radiation_wavelength     0.71073
_diffrn_reflns_av_R_equivalents  0.0000
_diffrn_reflns_av_unetI/netI     0.0175
_diffrn_reflns_limit_h_max       13
_diffrn_reflns_limit_h_min       -14
_diffrn_reflns_limit_k_max       18
_diffrn_reflns_limit_k_min       -21
_diffrn_reflns_limit_l_max       23
_diffrn_reflns_limit_l_min       0
_diffrn_reflns_number            8768
_diffrn_reflns_theta_full        70.1931
_diffrn_reflns_theta_max         70.19
_diffrn_reflns_theta_min         2.81
_exptl_absorpt_coefficient_mu    0.111
_exptl_crystal_density_diffrn    1.5019
_exptl_crystal_F_000             172.0904
_refine_diff_density_max         0.4856
_refine_diff_density_min         -0.3581
_refine_diff_density_rms         0.0460
_refine_ls_d_res_high            0.3777
_refine_ls_d_res_low             7.2590
_refine_ls_goodness_of_fit_ref   1.3413
_refine_ls_hydrogen_treatment    refall
_refine_ls_matrix_type           full
_refine_ls_number_constraints    0
_refine_ls_number_parameters     141
_refine_ls_number_reflns         8768
_refine_ls_number_restraints     0
_refine_ls_restrained_S_all      1.3413
_refine_ls_R_factor_all          0.0287
_refine_ls_R_factor_gt           0.0249
_refine_ls_shift/su_max          0.0002
_refine_ls_shift/su_mean         0.0001
_refine_ls_structure_factor_coef Fsqd
_refine_ls_weighting_details
'w=1/[\s^2^(Fo^2^)+(0.0229P)^2^] where P=(Fo^2^+2Fc^2^)/3'
_refine_ls_weighting_scheme      calc
_refine_ls_wR_factor_gt          0.0569
_refine_ls_wR_factor_ref         0.0579
_reflns_Friedel_coverage         0.0
_reflns_limit_h_max              14
_reflns_limit_h_min              -14
_reflns_limit_k_max              18
_reflns_limit_k_min              -21
_reflns_limit_l_max              23
_reflns_limit_l_min              0
_reflns_number_gt                7933
_reflns_number_total             8768
_reflns_threshold_expression     I>=2u(I)
_iucr_refine_instructions_details
;
TITL 1-nitroindoline
CELL 0.71073 5.7913 8.2458 8.9223 116.823 104.589 91.602
ZERR 2 0 0 0 0 0 0
LATT 1
SFAC C H N O
UNIT 16 16 4 4

ACTA 
BOND $H
WGHT 0.02295 0
FVAR 1.007727
REM <olex2.extras>
REM <HklSrc "%.\\dcc61582fe90e4b00bacc9389b6f5967.hkl">
REM </olex2.extras>

O1    4     0.78210  1.08676  0.27352  11.00000  0.01918  0.01616  0.02088 =
 0.00596  0.01027  0.00690 
O2    4     1.11906  1.13966  0.48228  11.00000  0.02558  0.01316  0.01225 =
 0.00172  0.00741  0.00031 
N1    3     1.06733  0.90146  0.22098  11.00000  0.01348  0.01290  0.01004 =
 0.00277  0.00353  0.00316 
N2    3     0.98492  1.05042  0.33010  11.00000  0.01704  0.01074  0.01267 =
 0.00346  0.00730  0.00204 
C1    1     0.96752  0.79787  0.03615  11.00000  0.01043  0.01058  0.01010 =
 0.00417  0.00293  0.00189 
C2    1     1.12756  0.67053 -0.02715  11.00000  0.01045  0.01094  0.00955 =
 0.00364  0.00296  0.00183 
C3    1     1.07494  0.54986 -0.20614  11.00000  0.01411  0.01427  0.01015 =
 0.00283  0.00387  0.00211 
H3    2     1.19387  0.45063 -0.25921  11.00000  0.03428 
C4    1     0.86132  0.55760 -0.32111  11.00000  0.01564  0.01802  0.00990 =
 0.00463  0.00190 -0.00021 
H4    2     0.82037  0.46227 -0.45985  11.00000  0.03758 
C5    1     0.70386  0.68537 -0.25614  11.00000  0.01345  0.01835  0.01297 =
 0.00816  0.00055  0.00071 
H5    2     0.53739  0.69241 -0.34223  11.00000  0.03146 
C6    1     0.75368  0.80815 -0.07581  11.00000  0.01182  0.01485  0.01407 =
 0.00713  0.00260  0.00334 
H6    2     0.63228  0.90354 -0.02513  11.00000  0.02818 
C8    1     1.34205  0.68716  0.12125  11.00000  0.01065  0.01391  0.01226 =
 0.00542  0.00277  0.00260 
H8a   2     1.34104  0.56527  0.13751  11.00000  0.02762 
H8b   2     1.51222  0.70315  0.09840  11.00000  0.03366 
C7    1     1.30983  0.85643  0.28537  11.00000  0.01311  0.01427  0.01054 =
 0.00390  0.00133  0.00098 
H7a   2     1.43862  0.97404  0.33162  11.00000  0.03496 
H7b   2     1.30831  0.82529  0.39128  11.00000  0.03533 
HKLF 4

END
Q1 1 0.875 1.066667 0.3 11 0.05 0.49
Q2 1 1.025 1 0.283333 11 0.05 0.32
Q3 1 0.925 0.683333 -0.133333 11 0.05 0.2
Q4 1 0.825 0.6 -0.3 11 0.05 0.2
Q5 1 1.025 1.116667 0.45 11 0.05 0.18
Q6 1 1.1 0.866667 0.166667 11 0.05 0.17
Q7 1 1.05 0.75 0 11 0.05 0.17
Q8 1 1.025 0.583333 -0.216667 11 0.05 0.17
Q9 1 0.75 1.166667 0.166667 11 0.05 0.16
Q10 1 1.3 0.766667 0.183333 11 0.05 0.15
Q11 1 1.2 1.083333 0.5 11 0.05 0.15
Q12 1 1.175 0.65 -0.033333 11 0.05 0.15
Q13 1 1.5 0.75 0.116667 11 0.05 0.15
Q14 1 1.1 0.516667 0.066667 11 0.05 0.15
Q15 1 0.875 0.8 0.016667 11 0.05 0.15
Q16 1 1.45 0.666667 -0.1 11 0.05 0.14
Q17 1 0.7 0.733333 -0.216667 11 0.05 0.14
Q18 1 0.725 0.85 -0.033333 11 0.05 0.14
Q19 1 0.675 1.016667 -0.05 11 0.05 0.14
Q20 1 0.55 0.9 -0.25 11 0.05 0.14

  REM The information below was added by Olex2.
  REM
  REM R1 = 0.0249 for 7933 Fo > 4sig(Fo) and 0.0287 for all 8768 data
  REM 141 parameters refined using 0 restraints
  REM Highest difference peak 0.4856, deepest hole -0.3581
  REM Mean Shift 0.0001, Max Shift 0.0002.

  REM +++ Tabular Listing of Refinement Information +++
  REM R1_all = 0.0287
  REM R1_gt = 0.0249
  REM wR_ref = 0.0579
  REM GOOF = 1.3413
  REM Shift_max = 0.0002
  REM Shift_mean = 0.0001
  REM Reflections_all = 8768
  REM Reflections_gt = 7933
  REM Parameters = 141
  REM Hole = -0.3581
  REM Peak = 0.4856
  REM Flack = n/a

  
;
_cod_data_source_file            2_TAAM_iso_max.cif
_cod_data_source_block           2_TAAM_iso_max
_cod_original_cell_volume        362.990(50)
_cod_database_code               2022050
_olex2_refinement_description
;
;
_iucr_refine_fcf_details
;
data_1-nitroindoline
_computing_structure_refinement   'olex2.refine (Bourhis et al., 2015)'
_shelx_refln_list_code            4
loop_
  _space_group_symop_id
  _space_group_symop_operation_xyz
  1  x,y,z
  2  -x,-y,-z

_space_group_crystal_system       triclinic
_space_group_IT_number            2
_space_group_name_H-M_alt         'P -1'
_space_group_name_Hall            '-P 1'
_symmetry_space_group_name_H-M    'P -1'
_symmetry_space_group_name_Hall   '-P 1'
_symmetry_Int_Tables_number       2
_cell_length_a                    5.7913
_cell_length_b                    8.2458
_cell_length_c                    8.9223
_cell_angle_alpha                 116.823
_cell_angle_beta                  104.589
_cell_angle_gamma                 91.602
_cell_volume                      362.990666
loop_
  _refln_index_h
  _refln_index_k
  _refln_index_l
  _refln_F_squared_calc
  _refln_F_squared_meas
  _refln_F_squared_sigma
  _refln_F_squared_weight
  _refln_observed_status
-14 -6 9 3.082 3.397 0.345 36.435 o
-14 -6 12 0.769 0.699 0.108 376.094 o
-14 -4 11 0.616 0.453 0.098 458.583 o
-14 -4 12 0.707 0.679 0.325 42.727 o
-14 -4 13 0.618 0.354 0.089 565.192 o
-14 -3 10 0.944 0.935 0.354 35.857 o
-14 -3 12 0.512 0.335 0.305 48.480 o
-14 -3 14 0.507 0.581 0.256 68.842 o
-14 -2 8 1.428 1.142 0.187 125.842 o
-14 -2 13 2.131 1.891 0.295 50.543 o
-14 -1 12 1.880 1.398 0.295 50.917 o
-14 0 5 2.399 2.806 0.354 35.046 o
-14 0 6 0.290 0.581 0.118 322.092 o
-14 0 9 1.667 1.743 0.286 54.455 o
-14 0 10 0.123 0.542 0.305 48.517 o
-14 1 6 1.564 1.664 0.118 295.476 o
-14 1 7 0.719 0.807 0.148 204.538 o
-14 1 9 0.675 0.867 0.108 376.268 o
-14 2 2 0.610 0.699 0.325 42.744 o
-14 2 4 0.842 0.945 0.345 37.947 o
-14 2 5 0.231 0.630 0.325 42.803 o
-14 2 7 4.321 4.599 0.354 33.274 o
-14 3 2 1.198 0.985 0.305 48.190 o
-14 3 4 0.176 0.256 0.108 384.771 o
-14 3 5 2.103 2.255 0.345 37.309 o
-14 3 6 2.206 2.442 0.335 39.383 o
-14 3 7 0.571 0.807 0.315 45.448 o
-14 3 9 0.534 0.374 0.148 206.153 o
-14 3 10 0.293 0.325 0.276 59.456 o
-14 4 4 1.326 1.132 0.158 176.247 o
-14 4 6 1.125 1.260 0.098 434.128 o
-14 4 7 1.020 0.975 0.315 45.307 o
-14 5 4 0.969 0.660 0.295 51.592 o
-14 5 5 0.368 0.384 0.315 45.516 o
-14 6 1 0.564 0.571 0.276 59.362 o
-14 6 3 0.732 0.817 0.286 55.255 o
-13 -10 12 0.410 0.463 0.276 59.418 o
-13 -9 10 0.883 0.473 0.295 51.652 o
-13 -9 13 0.617 0.729 0.335 40.268 o
-13 -9 14 1.449 1.585 0.315 45.017 o
-13 -9 15 0.304 0.394 0.158 181.770 o
-13 -8 7 0.648 0.443 0.325 42.760 o
-13 -8 10 0.759 0.857 0.374 32.225 o
-13 -8 11 2.326 2.314 0.384 30.087 o
-13 -8 15 2.450 2.472 0.315 44.136 o
-13 -7 8 1.203 1.113 0.118 307.924 o
-13 -7 10 1.280 1.241 0.187 126.160 o
-13 -7 12 0.432 0.414 0.108 382.365 o
-13 -7 13 0.966 0.906 0.108 370.602 o
-13 -7 14 0.965 1.014 0.098 443.252 o
-13 -6 10 0.867 0.827 0.226 87.517 o
-13 -6 11 1.044 1.063 0.384 30.546 o
-13 -6 13 1.105 0.926 0.089 536.538 o
-13 -6 15 1.111 0.916 0.315 45.287 o
-13 -5 11 0.448 0.345 0.128 274.485 o
-13 -5 14 0.512 0.640 0.295 51.730 o
-13 -5 15 2.134 2.235 0.098 371.577 o
-13 -4 6 4.424 4.037 0.423 23.929 o
-13 -4 8 0.929 0.611 0.423 25.176 o
-13 -4 10 1.675 1.546 0.246 72.941 o
-13 -4 11 0.523 0.492 0.167 160.602 o
-13 -4 12 0.495 0.443 0.345 38.038 o
-13 -4 14 1.299 1.083 0.118 306.505 o
-13 -4 15 0.255 0.295 0.089 573.072 o
-13 -4 16 0.125 0.098 0.079 727.965 o
-13 -3 12 5.797 5.751 0.433 22.027 o
-13 -3 14 2.286 1.792 0.108 320.700 o
-13 -2 5 3.078 3.230 0.423 24.521 o
-13 -2 6 7.424 8.478 0.463 18.383 o
-13 -2 7 0.056 0.453 0.148 207.125 o
-13 -2 8 3.414 3.466 0.414 25.517 o
-13 -2 9 3.903 3.722 0.315 42.241 o
-13 -2 10 0.371 1.024 0.394 29.118 o
-13 -2 11 2.688 3.122 0.394 28.379 o
-13 -2 13 0.841 0.857 0.345 37.955 o
-13 -1 5 1.352 1.320 0.404 27.587 o
-13 -1 8 2.752 2.797 0.148 174.962 o
-13 -1 10 1.073 1.044 0.138 230.748 o
-13 -1 11 0.326 0.374 0.384 30.653 o
-13 -1 12 1.338 1.270 0.315 45.136 o
-13 -1 14 0.758 0.689 0.098 453.130 o
-13 -1 15 0.471 0.364 0.246 74.506 o
-13 0 4 1.611 1.684 0.404 27.510 o
-13 0 5 0.575 0.581 0.423 25.201 o
-13 0 6 1.537 1.585 0.148 195.900 o
-13 0 7 1.905 2.147 0.148 189.292 o
-13 0 10 0.548 0.473 0.128 273.593 o
-13 0 11 2.224 2.255 0.128 237.832 o
-13 0 12 2.803 2.659 0.364 33.075 o
-13 0 14 2.501 2.413 0.266 61.197 o
-13 1 6 3.230 3.456 0.414 25.581 o
-13 1 8 0.320 0.433 0.177 143.652 o
-13 1 10 4.988 5.229 0.394 26.814 o
-13 1 14 1.016 0.945 0.266 63.516 o
-13 2 3 4.214 3.840 0.414 25.147 o
-13 2 4 1.576 1.664 0.423 25.037 o
-13 2 6 3.042 3.141 0.148 168.777 o
-13 2 7 3.862 4.195 0.158 136.492 o
-13 2 9 0.233 0.443 0.128 275.181 o
-13 2 10 0.461 0.354 0.354 35.963 o
-13 2 12 1.814 1.901 0.315 44.744 o
-13 3 4 1.865 1.418 0.148 193.546 o
-13 3 5 2.300 1.969 0.197 109.480 o
-13 3 7 0.349 0.473 0.167 160.934 o
-13 3 8 3.365 3.299 0.148 163.263 o
-13 3 10 0.875 1.004 0.345 37.934 o
-13 3 11 4.316 4.146 0.335 37.179 o
-13 4 1 0.615 0.620 0.404 27.713 o
-13 4 2 1.299 1.073 0.138 228.496 o
-13 4 5 2.986 2.708 0.404 27.016 o
-13 4 6 14.339 15.194 0.217 28.344 o
-13 4 7 2.313 2.275 0.384 30.097 o
-13 4 8 0.324 0.660 0.345 38.044 o
-13 4 9 0.338 0.325 0.108 383.563 o
-13 4 10 1.835 1.950 0.315 44.718 o
-13 4 11 0.432 0.492 0.286 55.388 o
-13 5 2 0.783 0.551 0.138 234.737 o
-13 5 3 1.429 1.073 0.108 357.904 o
-13 5 4 4.094 3.959 0.226 75.468 o
-13 5 5 1.223 1.231 0.128 263.285 o
-13 5 7 1.009 1.014 0.118 311.893 o
-13 5 8 0.491 0.542 0.335 40.300 o
-13 6 2 2.010 1.625 0.148 190.976 o
-13 6 3 0.821 0.748 0.374 32.224 o
-13 6 4 0.849 0.729 0.098 450.424 o
-13 6 5 3.263 3.279 0.108 260.532 o
-13 6 8 2.510 2.157 0.295 50.096 o
-13 6 9 3.096 3.555 0.305 45.803 o
-13 7 2 1.182 0.896 0.197 114.767 o
-13 7 3 1.111 0.985 0.108 366.684 o
-13 7 7 0.339 0.177 0.118 322.919 o
-13 8 1 0.574 0.384 0.089 565.952 o
-13 8 3 1.066 0.660 0.325 42.647 o
-13 8 7 1.746 1.792 0.266 62.536 o
-13 9 5 0.888 0.591 0.256 68.655 o
-12 -12 7 0.274 0.295 0.266 63.945 o
-12 -12 12 0.212 0.089 0.098 465.693 o
-12 -12 13 1.023 1.034 0.286 55.086 o
-12 -12 15 0.409 0.571 0.286 55.385 o
-12 -11 5 0.531 0.414 0.266 63.867 o
-12 -11 9 0.335 0.384 0.325 42.805 o
-12 -11 11 0.550 0.709 0.108 379.296 o
-12 -11 12 0.524 0.581 0.108 380.443 o
-12 -11 13 0.501 0.758 0.295 51.718 o
-12 -11 14 0.459 0.709 0.295 51.734 o
-12 -10 5 4.077 4.156 0.315 41.815 o
-12 -10 6 2.616 2.718 0.345 36.926 o
-12 -10 9 0.343 0.345 0.345 38.056 o
-12 -10 10 0.018 0.118 0.118 323.878 o
-12 -10 11 0.752 0.591 0.404 27.704 o
-12 -10 16 0.812 0.857 0.089 550.599 o
-12 -9 7 2.432 2.117 0.364 33.355 o
-12 -9 9 0.337 0.246 0.128 275.164 o
-12 -9 10 0.421 0.571 0.345 38.039 o
-12 -9 11 0.003 0.128 0.128 275.977 o
-12 -9 12 0.401 0.453 0.158 181.526 o
-12 -9 16 0.356 0.463 0.325 42.798 o
-12 -8 5 2.221 1.566 0.394 28.761 o
-12 -8 7 1.074 1.093 0.138 230.516 o
-12 -8 8 0.139 0.246 0.138 237.773 o
-12 -8 9 0.250 0.226 0.138 237.588 o
-12 -8 10 0.222 0.148 0.138 237.719 o
-12 -8 11 3.507 3.634 0.443 22.281 o
-12 -8 13 0.547 0.345 0.148 206.158 o
-12 -8 14 1.052 0.995 0.335 40.148 o
-12 -8 15 1.366 1.310 0.118 303.157 o
-12 -8 17 2.160 1.802 0.138 213.356 o
-12 -7 6 2.562 2.324 0.394 28.554 o
-12 -7 7 1.439 1.142 0.433 23.972 o
-12 -7 8 1.964 1.940 0.226 84.839 o
-12 -7 11 0.905 0.699 0.138 233.450 o
-12 -7 12 3.203 3.250 0.148 165.827 o
-12 -7 14 0.637 0.335 0.128 273.465 o
-12 -7 17 0.836 0.423 0.286 55.287 o
-12 -6 8 3.456 3.378 0.158 145.810 o
-12 -6 9 1.782 1.438 0.158 172.054 o
-12 -6 10 8.907 9.069 0.187 58.512 o
-12 -6 11 0.726 0.532 0.187 128.361 o
-12 -6 12 0.378 0.158 0.148 206.841 o
-12 -6 13 4.472 4.530 0.158 127.589 o
-12 -6 14 2.296 1.989 0.177 133.216 o
-12 -6 15 0.866 0.955 0.325 42.660 o
-12 -6 17 0.452 0.601 0.286 55.372 o
-12 -6 18 0.948 1.093 0.345 37.909 o
-12 -5 6 2.138 1.576 0.453 21.830 o
-12 -5 7 0.222 0.246 0.177 143.833 o
-12 -5 8 3.939 3.762 0.138 167.924 o
-12 -5 10 0.708 0.305 0.286 55.344 o
-12 -5 11 2.392 2.088 0.148 183.995 o
-12 -5 12 2.960 2.915 0.217 87.823 o
-12 -5 13 0.709 0.788 0.246 74.280 o
-12 -5 15 2.247 2.019 0.098 371.367 o
-12 -5 17 0.405 0.335 0.098 462.775 o
-12 -4 8 1.019 0.660 0.167 158.979 o
-12 -4 9 3.673 3.102 0.128 198.574 o
-12 -4 11 0.691 0.601 0.177 142.913 o
-12 -4 12 4.047 3.998 0.158 135.500 o
-12 -4 13 4.417 4.500 0.246 63.693 o
-12 -4 15 0.515 0.207 0.079 718.433 o
-12 -4 16 0.719 0.561 0.079 702.348 o
-12 -3 5 3.830 3.811 0.473 19.570 o
-12 -3 6 5.123 5.219 0.473 19.051 o
-12 -3 9 0.480 0.660 0.118 320.389 o
-12 -3 10 0.202 0.148 0.108 384.898 o
-12 -3 11 0.426 0.581 0.108 381.571 o
-12 -3 12 1.242 1.270 0.098 429.856 o
-12 -3 13 2.122 2.058 0.236 77.742 o
-12 -3 14 3.535 3.683 0.158 143.172 o
-12 -3 16 0.304 0.177 0.089 573.204 o
-12 -3 18 1.019 0.926 0.079 673.071 o
-12 -2 5 19.351 20.088 0.463 10.860 o
-12 -2 6 6.698 7.041 0.414 23.136 o
-12 -2 7 0.702 0.384 0.138 235.655 o
-12 -2 8 2.006 1.832 0.138 215.330 o
-12 -2 9 2.466 2.186 0.197 108.326 o
-12 -2 10 0.380 0.345 0.108 383.145 o
-12 -2 12 3.983 3.978 0.118 202.694 o
-12 -2 13 0.162 0.138 0.108 385.071 o
-12 -2 17 0.685 0.483 0.256 68.788 o
-12 -1 4 1.693 1.950 0.177 136.709 o
-12 -1 5 0.936 0.857 0.207 104.700 o
-12 -1 6 0.215 0.256 0.177 143.835 o
-12 -1 9 0.084 0.404 0.167 161.285 o
-12 -1 10 9.038 9.079 0.266 39.730 o
-12 -1 11 4.460 4.441 0.148 140.174 o
-12 -1 12 3.975 4.096 0.345 35.535 o
-12 -1 13 1.098 0.916 0.089 537.094 o
-12 0 3 2.030 1.566 0.177 135.945 o
-12 0 4 20.780 21.477 0.266 14.916 o
-12 0 5 0.598 0.483 0.305 48.450 o
-12 0 6 2.376 2.117 0.138 207.789 o
-12 0 7 11.203 11.738 0.226 37.842 o
-12 0 8 0.233 0.305 0.177 143.801 o
-12 0 9 7.186 7.277 0.158 86.555 o
-12 0 11 0.439 0.286 0.118 322.085 o
-12 0 12 1.494 1.231 0.098 421.196 o
-12 0 13 0.605 0.423 0.148 205.830 o
-12 0 15 1.278 1.142 0.364 33.867 o
-12 1 3 0.936 0.463 0.177 142.513 o
-12 1 4 2.051 1.448 0.345 37.507 o
-12 1 5 0.683 0.581 0.167 160.127 o
-12 1 6 4.633 4.480 0.443 21.805 o
-12 1 7 2.381 2.285 0.158 163.111 o
-12 1 8 0.803 0.729 0.138 234.047 o
-12 1 9 3.414 3.102 0.167 133.833 o
-12 1 10 1.417 1.428 0.158 174.716 o
-12 1 12 0.800 0.640 0.098 452.720 o
-12 1 13 2.597 2.353 0.118 261.471 o
-12 1 14 0.244 0.118 0.098 465.397 o
-12 2 2 2.824 2.777 0.443 22.556 o
-12 2 3 1.450 1.044 0.217 94.537 o
-12 2 4 0.702 0.620 0.266 63.766 o
-12 2 5 5.091 5.189 0.148 126.880 o
-12 2 7 0.174 0.187 0.177 143.884 o
-12 2 8 0.880 0.620 0.404 27.691 o
-12 2 9 0.851 0.620 0.414 26.393 o
-12 2 10 7.695 7.966 0.374 26.304 o
-12 2 12 2.112 2.009 0.128 242.378 o
-12 3 3 1.547 1.201 0.158 174.606 o
-12 3 4 4.036 3.594 0.148 151.864 o
-12 3 5 1.132 0.886 0.138 230.917 o
-12 3 6 0.998 0.709 0.138 232.729 o
-12 3 7 0.405 0.266 0.177 143.651 o
-12 3 8 9.446 9.552 0.207 50.192 o
-12 3 11 0.573 0.423 0.384 30.636 o
-12 3 12 1.840 1.546 0.315 44.828 o
-12 4 1 5.514 5.633 0.354 31.871 o
-12 4 2 4.723 4.963 0.177 103.808 o
-12 4 4 2.500 2.324 0.197 107.877 o
-12 4 5 5.858 6.056 0.217 69.138 o
-12 4 6 0.619 0.453 0.128 273.207 o
-12 4 7 0.470 0.788 0.414 26.415 o
-12 4 8 0.854 0.847 0.118 315.292 o
-12 4 10 1.084 0.758 0.364 33.943 o
-12 4 11 6.598 6.893 0.384 26.433 o
-12 5 1 0.000 0.443 0.414 26.440 o
-12 5 2 1.164 1.300 0.158 176.716 o
-12 5 3 5.482 5.239 0.433 22.270 o
-12 5 6 4.634 4.825 0.167 114.075 o
-12 5 7 1.908 1.989 0.394 28.786 o
-12 5 9 7.910 8.134 0.246 48.021 o
-12 6 1 0.276 0.670 0.197 116.346 o
-12 6 2 0.288 0.295 0.158 181.874 o
-12 6 3 1.110 0.965 0.118 310.696 o
-12 6 4 17.128 18.700 0.226 20.997 o
-12 6 5 9.501 10.271 0.483 15.984 o
-12 6 7 1.528 1.546 0.187 124.786 o
-12 6 8 0.939 0.758 0.364 33.967 o
-12 6 10 0.569 0.414 0.108 380.907 o
-12 7 1 0.316 0.315 0.118 322.698 o
-12 7 2 5.372 5.751 0.167 102.916 o
-12 7 3 2.715 2.866 0.108 286.968 o
-12 7 5 1.175 1.004 0.394 29.029 o
-12 7 6 0.763 0.739 0.354 35.904 o
-12 7 7 1.860 2.127 0.364 33.565 o
-12 8 1 1.915 1.969 0.118 283.904 o
-12 8 3 5.673 6.145 0.118 141.939 o
-12 8 4 1.049 1.083 0.128 266.367 o
-12 8 6 1.116 1.251 0.325 42.545 o
-12 8 7 7.237 8.075 0.394 24.461 o
-12 9 1 2.132 2.235 0.364 33.448 o
-12 9 2 0.381 0.295 0.098 463.302 o
-12 9 4 0.338 0.423 0.305 48.499 o
-12 9 5 0.618 0.414 0.108 380.320 o
-12 9 7 0.830 0.975 0.098 447.665 o
-12 10 1 0.681 0.423 0.325 42.756 o
-12 10 2 0.638 0.660 0.207 105.227 o
-12 10 4 0.677 0.739 0.305 48.403 o
-12 10 5 1.208 1.329 0.286 54.909 o
-12 10 6 1.720 1.861 0.345 37.556 o
-12 11 1 0.682 0.758 0.098 454.098 o
-12 11 2 0.332 0.354 0.108 383.497 o
-12 11 3 1.713 1.940 0.108 337.088 o
-12 11 4 0.316 0.443 0.345 38.054 o
-11 -14 11 0.993 1.260 0.286 55.045 o
-11 -14 12 0.127 0.335 0.295 51.814 o
-11 -13 8 0.815 0.867 0.315 45.383 o
-11 -13 9 1.265 1.152 0.167 156.950 o
-11 -13 11 0.808 0.660 0.098 452.291 o
-11 -13 12 2.796 3.141 0.345 36.697 o
-11 -13 15 0.552 0.551 0.089 564.307 o
-11 -12 5 1.063 1.004 0.305 48.239 o
-11 -12 8 0.564 0.630 0.315 45.467 o
-11 -12 12 0.295 0.414 0.118 322.550 o
-11 -12 13 0.432 0.601 0.158 181.283 o
-11 -12 14 0.092 0.354 0.108 384.925 o
-11 -12 15 0.142 0.414 0.364 34.064 o
-11 -12 16 1.092 1.034 0.325 42.587 o
-11 -11 4 0.217 0.473 0.354 35.976 o
-11 -11 5 0.510 0.453 0.335 40.303 o
-11 -11 7 1.182 1.270 0.374 32.124 o
-11 -11 10 9.858 10.842 0.492 15.225 o
-11 -11 11 3.494 4.284 0.167 127.551 o
-11 -11 13 1.508 1.585 0.354 35.639 o
-11 -11 14 0.883 0.807 0.118 315.160 o
-11 -11 15 1.015 1.251 0.374 32.157 o
-11 -11 18 0.633 0.561 0.276 59.341 o
-11 -10 2 1.299 1.093 0.108 360.953 o
-11 -10 9 0.118 0.148 0.148 207.221 o
-11 -10 10 0.006 0.197 0.148 207.278 o
-11 -10 11 4.475 5.229 0.167 113.674 o
-11 -10 12 0.000 0.217 0.207 105.760 o
-11 -10 13 2.132 2.048 0.423 24.902 o
-11 -10 15 3.498 3.309 0.364 32.547 o
-11 -9 1 0.745 0.709 0.345 37.986 o
-11 -9 2 3.344 2.974 0.364 32.724 o
-11 -9 7 0.066 0.236 0.158 182.142 o
-11 -9 8 0.253 0.256 0.158 181.950 o
-11 -9 9 1.200 1.339 0.453 21.956 o
-11 -9 10 1.813 2.038 0.463 20.932 o
-11 -9 11 1.720 1.694 0.167 152.973 o
-11 -9 12 1.275 1.014 0.148 200.470 o
-11 -9 14 0.453 0.414 0.128 274.291 o
-11 -9 16 3.054 2.708 0.354 34.733 o
-11 -9 17 0.841 0.699 0.118 316.390 o
-11 -8 4 10.031 10.113 0.473 16.346 o
-11 -8 5 0.605 0.433 0.433 24.072 o
-11 -8 6 1.459 1.034 0.463 21.025 o
-11 -8 7 0.515 0.502 0.138 236.266 o
-11 -8 9 1.830 1.713 0.217 93.020 o
-11 -8 11 0.633 0.601 0.177 143.032 o
-11 -8 13 0.621 0.414 0.226 87.898 o
-11 -8 14 1.332 1.369 0.118 303.239 o
-11 -8 17 1.117 0.453 0.364 33.963 o
-11 -8 18 0.466 0.571 0.295 51.747 o
-11 -8 19 1.767 1.644 0.266 62.593 o
-11 -7 5 8.207 7.701 0.463 18.220 o
-11 -7 7 0.524 0.345 0.148 206.231 o
-11 -7 8 1.500 1.448 0.118 299.116 o
-11 -7 10 1.396 1.270 0.217 94.427 o
-11 -7 12 0.228 0.217 0.118 323.297 o
-11 -7 13 0.559 0.522 0.118 320.299 o
-11 -7 14 0.983 0.699 0.118 314.551 o
-11 -7 15 0.122 0.167 0.108 385.157 o
-11 -7 16 1.067 0.847 0.118 312.284 o
-11 -7 17 2.547 2.363 0.364 33.256 o
-11 -7 18 1.212 1.182 0.394 29.010 o
-11 -7 20 1.874 1.901 0.325 42.087 o
-11 -6 6 1.147 1.083 0.187 126.786 o
-11 -6 7 0.735 0.305 0.197 116.056 o
-11 -6 9 7.590 7.366 0.286 40.638 o
-11 -6 10 1.284 1.103 0.167 156.976 o
-11 -6 11 1.217 1.034 0.118 308.364 o
-11 -6 12 0.287 0.374 0.118 322.696 o
-11 -6 13 4.770 4.953 0.098 205.693 o
-11 -6 15 4.716 4.549 0.148 135.993 o
-11 -6 16 1.435 1.132 0.394 28.977 o
-11 -6 17 0.614 0.739 0.089 559.725 o
-11 -6 19 2.956 2.787 0.098 320.207 o
-11 -5 6 2.168 1.625 0.226 84.737 o
-11 -5 7 0.480 0.148 0.128 274.791 o
-11 -5 9 1.581 1.398 0.148 196.350 o
-11 -5 10 4.877 4.707 0.138 144.763 o
-11 -5 11 4.549 4.421 0.148 139.103 o
-11 -5 12 4.027 3.643 0.128 185.411 o
-11 -5 13 0.824 0.532 0.167 159.809 o
-11 -5 14 0.774 0.571 0.098 454.132 o
-11 -5 15 2.741 2.363 0.118 257.483 o
-11 -5 18 1.203 1.349 0.295 51.340 o
-11 -4 5 0.443 0.305 0.187 128.900 o
-11 -4 6 7.872 7.878 0.207 59.973 o
-11 -4 7 0.077 0.256 0.187 129.169 o
-11 -4 8 17.268 17.646 0.246 20.562 o
-11 -4 9 7.517 7.356 0.118 104.452 o
-11 -4 10 2.230 1.999 0.187 120.783 o
-11 -4 11 3.608 3.811 0.148 156.313 o
-11 -4 12 7.150 7.041 0.187 73.357 o
-11 -4 13 4.038 3.535 0.148 152.250 o
-11 -4 16 1.762 1.713 0.217 93.183 o
-11 -4 17 3.024 2.954 0.187 113.788 o
-11 -3 5 4.497 4.412 0.197 91.737 o
-11 -3 6 6.780 6.558 0.217 64.046 o
-11 -3 7 1.938 1.684 0.187 122.856 o
-11 -3 8 0.686 0.611 0.098 455.623 o
-11 -3 9 5.041 4.668 0.187 94.745 o
-11 -3 10 6.050 5.948 0.148 110.643 o
-11 -3 11 5.252 5.061 0.128 147.965 o
-11 -3 12 0.057 0.128 0.118 323.832 o
-11 -3 13 3.926 3.752 0.118 207.057 o
-11 -3 15 0.511 0.305 0.128 274.269 o
-11 -3 16 0.350 0.305 0.118 322.543 o
-11 -3 18 1.343 1.369 0.276 58.750 o
-11 -2 4 1.527 1.152 0.512 17.182 o
-11 -2 5 0.581 0.335 0.158 181.241 o
-11 -2 6 0.409 0.473 0.128 274.364 o
-11 -2 7 8.241 8.085 0.158 75.200 o
-11 -2 8 1.229 0.876 0.187 126.847 o
-11 -2 10 5.849 6.066 0.158 104.476 o
-11 -2 11 12.962 12.772 0.256 29.526 o
-11 -2 12 0.729 0.611 0.108 377.425 o
-11 -2 13 2.717 2.698 0.108 289.884 o
-11 -2 14 1.008 0.729 0.138 232.577 o
-11 -2 15 1.846 1.644 0.394 28.842 o
-11 -2 18 0.136 0.177 0.079 727.419 o
-11 -1 3 17.605 17.971 0.561 9.412 o
-11 -1 4 2.867 3.013 0.236 74.968 o
-11 -1 5 3.270 2.875 0.207 94.322 o
-11 -1 8 1.223 1.123 0.177 140.625 o
-11 -1 9 1.178 0.955 0.108 365.489 o
-11 -1 10 1.038 1.231 0.108 365.536 o
-11 -1 11 1.084 0.788 0.138 231.738 o
-11 -1 12 7.460 7.740 0.177 73.580 o
-11 -1 13 1.698 1.457 0.148 194.987 o
-11 -1 16 2.286 2.344 0.108 311.222 o
-11 0 2 5.532 5.741 0.197 81.768 o
-11 0 3 26.927 27.503 0.345 8.936 o
-11 0 4 26.553 27.434 0.276 9.927 o
-11 0 5 0.798 0.384 0.148 205.146 o
-11 0 6 0.899 0.620 0.187 127.955 o
-11 0 7 6.103 5.938 0.187 83.341 o
-11 0 9 1.481 1.615 0.138 223.549 o
-11 0 10 8.117 8.232 0.148 79.563 o
-11 0 12 0.559 0.354 0.128 273.874 o
-11 0 13 0.454 0.187 0.148 206.638 o
-11 0 15 1.006 0.807 0.118 313.471 o
-11 0 17 2.717 2.422 0.266 60.872 o
-11 1 1 4.488 4.047 0.453 21.026 o
-11 1 3 1.916 1.881 0.295 50.716 o
-11 1 7 0.922 0.857 0.177 142.031 o
-11 1 8 7.777 7.494 0.246 49.327 o
-11 1 9 19.127 20.019 0.295 15.814 o
-11 1 10 2.592 3.013 0.217 88.921 o
-11 1 11 5.216 5.012 0.148 126.419 o
-11 1 14 2.010 1.664 0.118 285.291 o
-11 2 2 37.361 39.192 0.670 3.745 o
-11 2 3 5.815 5.623 0.374 28.727 o
-11 2 4 0.614 0.325 0.128 273.637 o
-11 2 5 17.579 17.804 0.276 18.831 o
-11 2 6 6.383 6.401 0.148 104.415 o
-11 2 7 10.870 11.216 0.453 16.830 o
-11 2 8 0.462 0.492 0.177 143.425 o
-11 2 10 2.895 2.767 0.118 247.854 o
-11 2 11 1.439 1.201 0.256 67.989 o
-11 2 12 0.473 0.473 0.138 236.510 o
-11 2 13 1.638 1.182 0.335 39.934 o
-11 2 14 1.324 1.182 0.315 45.160 o
-11 3 1 0.254 0.226 0.177 143.815 o
-11 3 2 1.430 1.290 0.128 260.004 o
-11 3 3 4.423 4.500 0.138 153.678 o
-11 3 4 3.566 3.269 0.108 250.367 o
-11 3 5 8.047 8.075 0.158 76.645 o
-11 3 7 10.374 10.783 0.187 48.534 o
-11 3 8 0.191 0.295 0.177 143.837 o
-11 3 9 0.569 0.611 0.138 235.755 o
-11 3 11 6.005 6.283 0.158 101.851 o
-11 3 13 2.445 2.235 0.315 44.227 o
-11 4 1 2.178 1.940 0.177 134.063 o
-11 4 2 0.008 0.266 0.118 323.802 o
-11 4 3 7.660 8.262 0.158 78.840 o
-11 4 4 1.802 1.664 0.108 338.616 o
-11 4 6 0.435 0.256 0.098 462.894 o
-11 4 8 12.577 13.461 0.246 30.588 o
-11 4 9 1.027 0.798 0.128 268.207 o
-11 4 10 1.394 1.083 0.423 25.103 o
-11 4 11 6.912 6.923 0.384 26.193 o
-11 4 12 3.444 3.378 0.325 40.468 o
-11 4 14 2.980 2.984 0.286 52.451 o
-11 4 15 1.021 0.827 0.236 80.285 o
-11 5 1 4.305 4.333 0.167 119.570 o
-11 5 2 1.893 1.901 0.158 169.295 o
-11 5 3 5.217 5.386 0.197 84.645 o
-11 5 4 0.731 0.414 0.118 319.200 o
-11 5 6 11.590 11.905 0.158 46.693 o
-11 5 7 1.792 1.851 0.098 395.844 o
-11 5 9 1.841 1.713 0.158 170.498 o
-11 5 13 2.704 2.393 0.276 56.831 o
-11 6 2 1.636 1.388 0.158 173.328 o
-11 6 3 6.557 6.932 0.158 93.562 o
-11 6 4 2.186 2.186 0.226 84.048 o
-11 6 5 0.494 0.601 0.158 181.121 o
-11 6 6 1.274 1.192 0.108 360.346 o
-11 6 9 8.451 8.341 0.995 4.406 o
-11 6 11 0.729 0.423 0.414 26.410 o
-11 7 1 8.603 8.892 0.266 40.913 o
-11 7 2 0.272 0.256 0.108 384.252 o
-11 7 3 0.557 0.443 0.108 380.876 o
-11 7 4 3.323 3.545 0.138 180.317 o
-11 7 5 5.825 6.027 0.325 36.509 o
-11 7 7 8.908 9.808 0.187 56.775 o
-11 7 8 2.881 2.866 0.138 193.610 o
-11 7 9 0.683 1.073 0.364 33.982 o
-11 8 2 13.048 14.023 0.266 27.431 o
-11 8 3 18.350 20.029 0.611 8.061 o
-11 8 4 1.936 1.960 0.158 168.679 o
-11 8 5 1.878 1.664 0.128 249.790 o
-11 8 7 5.558 5.790 0.226 66.490 o
-11 9 1 4.955 5.426 0.167 108.238 o
-11 9 3 0.787 0.847 0.226 87.587 o
-11 9 4 0.951 0.837 0.138 232.606 o
-11 9 8 2.473 2.245 0.404 27.241 o
-11 10 1 5.714 6.292 0.167 97.472 o
-11 10 2 3.660 3.919 0.118 211.790 o
-11 10 5 9.434 10.172 0.177 55.998 o
-11 10 6 0.165 0.128 0.089 574.940 o
-11 10 7 2.293 2.797 0.305 46.929 o
-11 11 2 0.305 0.384 0.335 40.328 o
-11 11 3 0.947 1.024 0.118 312.753 o
-11 11 5 1.354 1.467 0.305 48.011 o
-11 12 2 0.917 0.906 0.098 446.201 o
-11 12 3 0.390 0.295 0.108 383.270 o
-11 12 4 2.492 2.678 0.108 298.165 o
-11 13 1 1.797 1.763 0.207 101.771 o
-11 13 2 0.037 0.098 0.098 466.348 o
-10 -16 11 0.911 0.876 0.276 59.162 o
-10 -15 8 1.149 1.300 0.089 525.211 o
-10 -15 12 2.111 2.216 0.305 47.305 o
-10 -15 14 1.011 0.955 0.295 51.519 o
-10 -15 15 1.046 0.512 0.325 42.671 o
-10 -14 6 0.628 0.689 0.256 68.766 o
-10 -14 9 0.639 0.561 0.148 205.439 o
-10 -14 11 0.784 0.689 0.167 159.694 o
-10 -14 12 0.900 0.876 0.108 372.183 o
-10 -14 14 0.757 0.660 0.187 128.194 o
-10 -14 17 2.070 1.664 0.315 44.663 o
-10 -13 4 2.417 2.531 0.325 41.581 o
-10 -13 6 0.172 0.187 0.118 323.527 o
-10 -13 9 2.159 2.294 0.108 316.479 o
-10 -13 10 0.334 0.433 0.108 383.160 o
-10 -13 11 1.531 1.546 0.138 223.374 o
-10 -13 12 0.163 0.295 0.177 143.857 o
-10 -13 13 1.155 1.182 0.118 308.160 o
-10 -13 14 0.455 0.423 0.128 274.256 o
-10 -13 16 0.377 0.335 0.325 42.803 o
-10 -13 17 1.536 1.349 0.098 417.234 o
-10 -12 5 0.261 0.345 0.315 45.530 o
-10 -12 7 0.501 0.453 0.138 236.433 o
-10 -12 8 1.523 1.339 0.325 42.380 o
-10 -12 9 2.598 2.797 0.305 46.664 o
-10 -12 10 0.015 0.286 0.118 323.776 o
-10 -12 11 0.672 0.867 0.098 453.078 o
-10 -12 14 0.487 0.384 0.167 160.776 o
-10 -12 15 0.143 0.158 0.128 275.802 o
-10 -12 16 0.307 0.473 0.217 96.228 o
-10 -11 1 0.000 0.354 0.354 35.988 o
-10 -11 3 2.539 2.629 0.138 201.173 o
-10 -11 6 1.381 1.290 0.148 198.560 o
-10 -11 7 3.934 3.614 0.286 50.667 o
-10 -11 8 1.388 1.398 0.128 259.823 o
-10 -11 9 0.345 0.522 0.473 20.237 o
-10 -11 10 8.790 9.266 0.236 46.136 o
-10 -11 11 0.348 0.315 0.148 206.736 o
-10 -11 13 0.927 0.709 0.118 315.233 o
-10 -11 14 0.513 0.601 0.197 116.144 o
-10 -11 16 6.127 6.509 0.404 24.634 o
-10 -11 20 0.545 0.414 0.325 42.778 o
-10 -10 2 0.130 0.177 0.138 237.835 o
-10 -10 3 2.941 2.905 0.148 171.742 o
-10 -10 4 0.409 0.551 0.414 26.425 o
-10 -10 6 1.003 0.817 0.148 202.966 o
-10 -10 8 0.005 0.266 0.158 182.167 o
-10 -10 9 0.306 0.286 0.148 206.856 o
-10 -10 10 0.104 0.374 0.138 237.727 o
-10 -10 11 2.759 2.787 0.148 174.939 o
-10 -10 13 0.992 1.113 0.138 231.147 o
-10 -10 14 1.242 1.300 0.158 176.252 o
-10 -10 15 3.749 3.900 0.404 26.511 o
-10 -10 16 0.902 0.463 0.197 115.711 o
-10 -9 2 0.446 0.335 0.148 206.470 o
-10 -9 3 1.162 1.073 0.138 229.809 o
-10 -9 5 1.959 1.743 0.177 135.851 o
-10 -9 6 1.753 1.635 0.433 23.896 o
-10 -9 7 0.678 0.709 0.128 271.856 o
-10 -9 8 15.818 17.124 0.335 18.003 o
-10 -9 9 16.067 17.459 0.236 22.639 o
-10 -9 10 2.099 1.901 0.158 167.510 o
-10 -9 11 2.564 2.442 0.148 179.679 o
-10 -9 12 4.471 4.530 0.177 107.587 o
-10 -9 13 1.908 1.615 0.187 123.133 o
-10 -9 14 0.082 0.305 0.128 275.778 o
-10 -9 15 1.781 1.723 0.433 23.884 o
-10 -9 16 1.068 0.827 0.138 231.712 o
-10 -9 17 0.793 0.512 0.167 159.924 o
-10 -9 20 0.673 0.532 0.345 38.010 o
-10 -8 1 0.233 0.561 0.453 22.036 o
-10 -8 2 0.863 0.896 0.167 159.109 o
-10 -8 3 1.543 1.083 0.177 139.444 o
-10 -8 7 0.613 0.551 0.128 272.915 o
-10 -8 8 1.303 1.182 0.138 227.911 o
-10 -8 9 10.323 10.497 0.236 40.162 o
-10 -8 10 2.041 1.851 0.138 214.708 o
-10 -8 11 5.490 5.416 0.177 95.928 o
-10 -8 12 2.230 2.216 0.187 120.245 o
-10 -8 13 10.947 11.137 0.167 49.228 o
-10 -8 20 2.311 2.216 0.384 30.108 o
-10 -7 4 6.165 5.918 0.453 20.131 o
-10 -7 6 1.630 1.635 0.148 194.784 o
-10 -7 7 1.256 1.339 0.128 262.111 o
-10 -7 8 4.367 4.175 0.197 93.176 o
-10 -7 9 6.392 6.214 0.167 92.034 o
-10 -7 10 2.886 2.767 0.177 126.744 o
-10 -7 11 1.941 2.088 0.148 189.221 o
-10 -7 12 0.692 0.561 0.177 142.952 o
-10 -7 13 1.784 1.379 0.108 343.537 o
-10 -7 14 5.129 5.298 0.108 174.668 o
-10 -7 15 3.572 3.387 0.128 197.697 o
-10 -7 16 1.260 1.004 0.138 229.204 o
-10 -7 18 1.843 1.664 0.207 101.781 o
-10 -7 19 0.353 0.354 0.128 274.893 o
-10 -6 4 4.221 4.156 0.414 25.080 o
-10 -6 7 2.441 2.393 0.423 24.798 o
-10 -6 8 1.389 1.251 0.443 22.923 o
-10 -6 9 0.962 0.768 0.177 142.043 o
-10 -6 10 0.922 0.522 0.167 159.529 o
-10 -6 11 1.468 1.152 0.108 355.826 o
-10 -6 12 0.835 0.630 0.108 375.568 o
-10 -6 13 0.608 0.473 0.098 458.547 o
-10 -6 15 2.855 2.738 0.128 219.953 o
-10 -6 17 6.271 6.667 0.404 24.502 o
-10 -6 18 0.126 0.148 0.098 465.982 o
-10 -6 19 6.609 6.440 0.354 30.501 o
-10 -5 4 3.326 3.082 0.404 26.834 o
-10 -5 5 0.281 0.197 0.167 161.201 o
-10 -5 6 4.727 4.402 0.177 106.040 o
-10 -5 8 3.072 2.482 0.423 24.628 o
-10 -5 10 0.708 0.453 0.158 180.712 o
-10 -5 11 2.710 2.708 0.138 197.741 o
-10 -5 12 2.190 2.196 0.138 210.006 o
-10 -5 14 0.743 0.473 0.128 272.265 o
-10 -5 15 6.673 6.558 0.148 100.502 o
-10 -5 16 3.627 3.358 0.138 176.700 o
-10 -5 18 4.076 3.840 0.118 202.093 o
-10 -5 19 1.375 1.723 0.423 25.062 o
-10 -4 4 3.173 2.816 0.423 24.553 o
-10 -4 5 1.969 1.487 0.167 152.050 o
-10 -4 6 1.543 0.679 0.423 25.110 o
-10 -4 7 11.280 10.733 0.837 5.909 o
-10 -4 8 5.475 5.386 0.217 72.308 o
-10 -4 9 0.749 0.591 0.522 16.589 o
-10 -4 10 0.402 0.295 0.167 160.989 o
-10 -4 11 10.485 10.349 0.148 57.089 o
-10 -4 13 7.466 7.523 0.207 62.582 o
-10 -4 14 6.296 6.194 0.148 106.494 o
-10 -4 16 2.741 2.541 0.148 176.788 o
-10 -4 17 6.424 6.371 0.217 65.982 o
-10 -4 18 0.000 0.305 0.197 116.591 o
-10 -4 19 1.321 1.004 0.138 228.614 o
-10 -3 5 2.380 2.225 0.414 26.008 o
-10 -3 6 0.193 0.128 0.128 275.735 o
-10 -3 7 3.666 3.643 0.167 128.954 o
-10 -3 8 6.114 6.253 0.217 67.585 o
-10 -3 9 7.477 7.395 0.187 70.408 o
-10 -3 10 13.179 12.900 0.236 30.969 o
-10 -3 12 7.173 6.795 0.148 94.284 o
-10 -3 13 4.304 4.077 0.128 175.276 o
-10 -3 14 2.127 2.078 0.148 187.173 o
-10 -3 15 0.275 0.246 0.148 206.951 o
-10 -3 16 0.620 0.739 0.364 34.012 o
-10 -3 17 6.340 6.332 0.433 21.653 o
-10 -3 18 0.158 0.266 0.118 323.450 o
-10 -2 3 0.945 0.551 0.414 26.388 o
-10 -2 4 11.091 10.615 0.217 41.161 o
-10 -2 5 2.457 2.413 0.167 145.130 o
-10 -2 6 18.969 18.877 0.522 9.805 o
-10 -2 7 30.657 30.940 0.354 7.251 o
-10 -2 8 2.221 2.314 0.167 147.349 o
-10 -2 9 0.328 0.207 0.167 161.144 o
-10 -2 10 11.828 12.270 0.197 39.563 o
-10 -2 11 13.858 13.304 0.236 29.308 o
-10 -2 12 0.385 0.276 0.148 206.696 o
-10 -2 14 2.353 2.038 0.158 164.557 o
-10 -2 15 6.674 6.637 0.177 82.545 o
-10 -2 18 0.445 0.148 0.108 383.419 o
-10 -1 2 0.762 0.453 0.414 26.406 o
-10 -1 3 16.226 16.652 0.542 10.411 o
-10 -1 4 5.395 5.111 0.256 56.291 o
-10 -1 5 7.547 7.188 0.286 40.891 o
-10 -1 7 9.540 9.581 0.177 56.897 o
-10 -1 8 8.441 8.124 0.158 73.643 o
-10 -1 9 19.215 19.291 0.295 16.024 o
-10 -1 11 4.320 4.146 0.128 174.261 o
-10 -1 12 1.173 0.916 0.276 59.010 o
-10 -1 14 1.215 1.349 0.148 199.651 o
-10 -1 16 3.056 3.062 0.345 36.560 o
-10 -1 19 1.303 1.004 0.226 86.880 o
-10 0 1 13.980 12.910 0.502 12.924 o
-10 0 2 6.792 6.864 0.197 71.503 o
-10 0 3 1.298 0.817 0.167 157.560 o
-10 0 5 10.954 10.714 0.217 41.415 o
-10 0 6 7.872 7.277 0.591 11.899 o
-10 0 7 0.354 0.226 0.197 116.454 o
-10 0 8 3.920 3.850 0.207 89.102 o
-10 0 9 24.498 24.470 0.276 11.542 o
-10 0 10 9.064 8.991 0.226 47.946 o
-10 0 11 7.024 6.804 0.158 89.974 o
-10 0 13 4.130 4.037 0.138 162.360 o
-10 0 14 0.925 0.798 0.148 203.479 o
-10 0 16 1.125 0.945 0.305 48.227 o
-10 0 17 2.870 2.728 0.315 43.703 o
-10 1 1 32.431 33.047 0.699 4.308 o
-10 1 4 1.089 0.807 0.158 178.450 o
-10 1 6 2.160 1.487 0.207 101.103 o
-10 1 7 0.873 0.729 0.246 74.191 o
-10 1 10 10.258 10.566 0.167 53.486 o
-10 1 11 5.452 5.436 0.266 52.400 o
-10 1 13 0.299 0.167 0.158 181.949 o
-10 1 14 3.741 3.890 0.374 30.645 o
-10 1 17 1.676 1.438 0.276 58.461 o
-10 2 1 23.156 23.505 0.650 6.391 o
-10 2 2 62.643 63.515 0.591 1.857 o
-10 2 5 8.355 7.907 0.295 36.850 o
-10 2 6 1.895 1.822 0.266 62.357 o
-10 2 7 4.784 4.352 0.345 34.758 o
-10 2 8 10.610 10.527 0.226 41.013 o
-10 2 9 1.250 1.241 0.118 305.970 o
-10 2 10 0.852 0.857 0.226 87.517 o
-10 2 11 0.931 0.463 0.177 142.526 o
-10 2 16 0.719 0.542 0.276 59.315 o
-10 2 17 1.241 1.034 0.256 68.246 o
-10 3 1 1.266 1.605 0.217 94.357 o
-10 3 5 2.363 2.157 0.167 146.867 o
-10 3 6 2.457 2.019 0.167 146.676 o
-10 3 7 40.700 40.167 0.778 3.077 o
-10 3 8 0.009 0.138 0.118 323.878 o
-10 3 9 9.725 10.546 0.167 56.057 o
-10 3 10 1.534 1.467 0.108 349.618 o
-10 3 13 0.885 0.837 0.345 37.949 o
-10 3 14 0.703 0.571 0.335 40.267 o
-10 3 15 3.527 3.240 0.305 45.508 o
-10 4 1 25.425 25.987 0.345 9.741 o
-10 4 3 15.256 15.283 0.335 19.261 o
-10 4 4 23.974 23.663 0.315 11.324 o
-10 4 5 7.340 7.592 0.197 66.691 o
-10 4 6 4.648 5.081 0.187 96.020 o
-10 4 7 0.752 0.798 0.118 316.881 o
-10 4 8 3.038 3.043 0.108 272.470 o
-10 4 9 3.286 3.220 0.148 164.888 o
-10 4 11 1.037 1.103 0.384 30.544 o
-10 4 12 2.874 2.787 0.364 33.011 o
-10 4 13 3.050 2.777 0.345 36.653 o
-10 4 14 6.602 6.736 0.364 28.990 o
-10 5 1 8.767 9.020 0.217 51.280 o
-10 5 2 0.339 0.404 0.246 74.545 o
-10 5 3 13.969 13.934 0.246 27.712 o
-10 5 4 3.964 4.136 0.187 103.920 o
-10 5 5 15.498 16.317 0.177 27.846 o
-10 5 6 1.316 1.201 0.098 428.419 o
-10 5 7 0.812 0.857 0.128 270.058 o
-10 5 9 6.958 7.110 0.374 27.264 o
-10 5 10 2.903 2.816 0.522 16.344 o
-10 5 11 1.445 1.388 0.374 32.056 o
-10 5 12 9.358 8.400 0.492 15.845 o
-10 6 1 7.233 7.779 0.276 43.081 o
-10 6 2 5.462 5.426 0.197 83.096 o
-10 6 5 1.580 1.497 0.108 347.862 o
-10 6 6 12.159 12.762 0.177 40.427 o
-10 6 7 4.098 4.402 0.187 102.111 o
-10 6 8 1.365 1.034 0.167 156.755 o
-10 6 9 4.893 4.865 0.148 131.566 o
-10 6 10 9.074 8.695 0.542 13.481 o
-10 6 11 0.052 0.226 0.138 237.895 o
-10 6 12 2.458 2.452 0.423 24.787 o
-10 7 1 9.450 9.739 0.187 54.488 o
-10 7 3 1.648 1.487 0.118 295.575 o
-10 7 4 7.980 7.740 0.138 87.186 o
-10 7 5 6.248 6.775 0.138 111.017 o
-10 7 6 0.205 0.207 0.148 207.092 o
-10 7 7 2.819 2.836 0.138 194.877 o
-10 7 8 0.539 0.276 0.138 236.639 o
-10 7 9 8.465 8.557 0.542 13.650 o
-10 7 10 0.007 0.532 0.483 19.425 o
-10 8 1 5.992 5.938 0.167 96.603 o
-10 8 2 3.828 3.959 0.108 230.445 o
-10 8 3 0.321 0.207 0.128 275.287 o
-10 8 4 1.447 1.192 0.118 302.742 o
-10 8 7 7.286 7.632 0.148 89.260 o
-10 8 8 11.636 12.161 0.571 11.316 o
-10 8 12 0.361 0.463 0.335 40.319 o
-10 9 1 1.186 0.837 0.108 366.646 o
-10 9 2 0.640 0.709 0.138 235.114 o
-10 9 3 10.706 11.098 0.167 50.325 o
-10 9 5 5.928 6.243 0.433 21.860 o
-10 9 6 7.686 8.193 0.148 83.269 o
-10 9 8 1.082 0.916 0.453 21.984 o
-10 10 1 20.605 22.068 0.394 11.613 o
-10 10 2 7.927 8.045 0.158 77.647 o
-10 10 3 0.334 0.295 0.158 181.802 o
-10 10 4 1.785 1.674 0.177 136.944 o
-10 10 5 5.450 5.780 0.404 25.227 o
-10 10 6 1.165 1.103 0.266 63.364 o
-10 10 7 1.054 0.965 0.335 40.151 o
-10 11 2 0.844 0.679 0.138 233.937 o
-10 11 3 2.754 2.925 0.118 249.538 o
-10 11 4 0.719 0.916 0.128 270.637 o
-10 11 5 0.168 0.226 0.138 237.744 o
-10 11 6 1.196 0.916 0.335 40.119 o
-10 12 1 0.660 0.394 0.354 35.941 o
-10 12 2 0.204 0.187 0.128 275.646 o
-10 12 3 7.079 7.730 0.394 24.690 o
-10 12 4 2.153 2.216 0.108 318.007 o
-10 12 5 1.420 1.526 0.305 47.962 o
-10 12 6 1.027 1.093 0.108 367.333 o
-10 13 1 0.910 0.945 0.335 40.188 o
-10 13 2 0.787 0.758 0.148 204.323 o
-10 13 3 1.470 1.388 0.315 45.052 o
-10 14 2 2.511 2.787 0.286 53.136 o
-9 -16 8 0.640 1.162 0.286 55.225 o
-9 -16 9 0.745 0.719 0.089 555.637 o
-9 -16 11 0.438 0.217 0.079 720.672 o
-9 -16 15 0.053 0.138 0.108 385.366 o
-9 -16 17 0.984 0.975 0.266 63.527 o
-9 -15 4 0.772 0.847 0.286 55.235 o
-9 -15 5 0.400 0.542 0.089 568.231 o
-9 -15 6 0.302 0.512 0.335 40.322 o
-9 -15 7 6.336 6.371 0.364 29.375 o
-9 -15 8 2.796 2.895 0.167 140.289 o
-9 -15 10 0.325 0.384 0.246 74.552 o
-9 -15 12 0.325 0.148 0.098 464.646 o
-9 -15 17 0.209 0.108 0.079 726.905 o
-9 -14 3 1.798 1.999 0.315 44.725 o
-9 -14 6 0.875 0.699 0.364 33.981 o
-9 -14 7 0.527 0.581 0.384 30.634 o
-9 -14 9 1.649 1.704 0.384 30.365 o
-9 -14 10 0.485 0.197 0.118 322.070 o
-9 -14 13 0.422 0.315 0.128 274.679 o
-9 -14 14 1.141 1.201 0.158 177.130 o
-9 -14 17 0.479 0.315 0.187 128.857 o
-9 -13 1 0.620 0.433 0.315 45.475 o
-9 -13 2 0.914 0.571 0.325 42.695 o
-9 -13 6 2.782 3.003 0.148 173.205 o
-9 -13 7 3.225 3.417 0.414 25.589 o
-9 -13 8 1.262 1.132 0.148 200.129 o
-9 -13 9 0.244 0.148 0.118 323.362 o
-9 -13 10 5.078 5.386 0.118 160.961 o
-9 -13 11 1.432 1.457 0.128 258.742 o
-9 -13 12 1.255 1.516 0.158 175.494 o
-9 -13 13 4.290 4.530 0.187 100.369 o
-9 -13 17 1.385 1.113 0.374 32.099 o
-9 -12 2 0.602 0.719 0.354 35.928 o
-9 -12 4 1.521 1.369 0.148 197.019 o
-9 -12 6 0.516 0.502 0.158 181.195 o
-9 -12 7 0.395 0.207 0.158 181.773 o
-9 -12 8 2.199 2.068 0.128 240.147 o
-9 -12 9 2.425 2.482 0.158 161.711 o
-9 -12 10 1.152 1.280 0.138 228.916 o
-9 -12 11 1.101 0.867 0.138 231.269 o
-9 -12 12 1.141 0.975 0.118 310.117 o
-9 -12 13 2.403 2.216 0.148 183.091 o
-9 -12 14 0.334 0.187 0.108 384.082 o
-9 -12 15 4.607 4.618 0.453 20.902 o
-9 -12 16 1.637 1.684 0.404 27.505 o
-9 -11 2 4.670 4.953 0.433 22.650 o
-9 -11 3 1.298 1.123 0.148 199.888 o
-9 -11 4 0.821 0.837 0.118 315.779 o
-9 -11 7 5.552 5.593 0.138 128.052 o
-9 -11 8 0.054 0.098 0.098 466.310 o
-9 -11 9 7.978 8.291 0.128 89.040 o
-9 -11 11 2.455 2.314 0.098 354.732 o
-9 -11 12 2.009 1.960 0.118 281.720 o
-9 -11 13 0.624 0.492 0.108 379.749 o
-9 -11 14 0.880 0.847 0.167 159.136 o
-9 -11 15 1.649 1.566 0.128 254.495 o
-9 -11 16 9.672 9.808 0.148 63.211 o
-9 -10 1 0.315 0.551 0.423 25.215 o
-9 -10 3 0.680 0.571 0.138 235.274 o
-9 -10 6 6.810 6.893 0.187 75.847 o
-9 -10 7 3.176 2.994 0.118 237.128 o
-9 -10 8 1.670 1.438 0.108 346.070 o
-9 -10 9 1.142 1.093 0.118 309.138 o
-9 -10 10 1.745 1.615 0.118 292.013 o
-9 -10 11 1.000 0.817 0.128 268.384 o
-9 -10 14 1.105 1.152 0.128 265.285 o
-9 -10 15 2.831 3.072 0.138 192.709 o
-9 -10 16 1.139 1.260 0.542 15.381 o
-9 -10 17 0.104 0.236 0.148 207.193 o
-9 -10 18 0.374 0.571 0.463 21.105 o
-9 -9 1 5.542 5.711 0.148 118.014 o
-9 -9 2 2.867 2.797 0.148 173.448 o
-9 -9 3 1.461 1.310 0.148 197.801 o
-9 -9 4 1.226 0.985 0.128 264.820 o
-9 -9 5 8.212 8.085 0.167 71.589 o
-9 -9 6 8.703 8.597 0.148 73.679 o
-9 -9 8 16.253 17.105 0.226 23.154 o
-9 -9 9 4.133 4.461 0.148 144.512 o
-9 -9 11 0.466 0.463 0.158 181.368 o
-9 -9 12 3.587 3.348 0.148 159.835 o
-9 -9 13 1.691 1.546 0.167 153.605 o
-9 -9 14 8.909 9.296 0.236 45.742 o
-9 -9 15 8.160 8.350 0.217 54.787 o
-9 -9 18 1.392 1.595 0.473 20.143 o
-9 -8 1 4.899 4.530 0.148 133.692 o
-9 -8 2 3.025 2.846 0.158 153.552 o
-9 -8 4 0.842 0.532 0.167 159.757 o
-9 -8 5 1.445 1.142 0.138 226.633 o
-9 -8 7 1.030 1.300 0.177 140.995 o
-9 -8 8 0.901 0.916 0.158 179.079 o
-9 -8 9 9.391 9.059 0.197 53.746 o
-9 -8 11 3.182 3.338 0.335 38.459 o
-9 -8 12 0.172 0.295 0.108 384.697 o
-9 -8 13 14.170 14.603 0.207 30.016 o
-9 -8 14 0.873 0.778 0.098 449.151 o
-9 -8 15 1.030 1.004 0.138 231.287 o
-9 -8 16 0.796 0.542 0.108 376.926 o
-9 -8 18 1.318 1.073 0.532 15.950 o
-9 -7 1 2.180 2.245 0.187 120.423 o
-9 -7 2 0.486 0.512 0.177 143.372 o
-9 -7 3 1.758 1.172 0.177 138.299 o
-9 -7 4 7.167 6.962 0.443 20.291 o
-9 -7 5 1.579 1.536 0.167 154.293 o
-9 -7 6 14.657 15.450 0.236 26.125 o
-9 -7 7 46.543 47.572 0.561 3.071 o
-9 -7 8 10.406 10.487 0.217 43.379 o
-9 -7 9 4.292 3.978 0.197 94.183 o
-9 -7 10 12.482 12.339 0.276 28.725 o
-9 -7 11 1.188 0.876 0.158 177.767 o
-9 -7 12 0.899 0.896 0.158 179.134 o
-9 -7 13 7.505 7.336 0.256 47.723 o
-9 -7 14 0.374 0.374 0.098 462.919 o
-9 -7 15 3.709 3.614 0.148 156.284 o
-9 -7 16 0.246 0.207 0.128 275.514 o
-9 -7 17 0.961 0.620 0.138 233.332 o
-9 -7 18 1.637 1.339 0.325 42.332 o
-9 -7 19 0.420 0.335 0.138 236.970 o
-9 -6 1 1.794 1.664 0.423 25.001 o
-9 -6 5 4.185 3.978 0.207 87.508 o
-9 -6 6 9.337 9.227 0.473 16.816 o
-9 -6 7 9.798 9.808 0.217 46.374 o
-9 -6 8 17.913 18.030 0.473 11.504 o
-9 -6 9 5.129 4.549 0.177 102.216 o
-9 -6 10 21.016 20.994 0.699 6.271 o
-9 -6 11 18.184 17.646 0.266 18.734 o
-9 -6 12 5.591 5.160 0.177 96.138 o
-9 -6 15 0.391 0.167 0.167 161.092 o
-9 -6 18 3.520 3.417 0.217 84.805 o
-9 -5 3 6.239 6.371 0.404 24.608 o
-9 -5 4 2.781 3.013 0.364 33.001 o
-9 -5 5 0.474 0.266 0.158 181.569 o
-9 -5 6 5.738 5.839 0.374 28.704 o
-9 -5 7 20.827 20.748 0.286 14.616 o
-9 -5 8 6.779 5.849 0.187 79.283 o
-9 -5 9 5.837 6.017 0.256 53.931 o
-9 -5 10 0.585 0.384 0.286 55.366 o
-9 -5 11 8.946 8.616 0.197 56.599 o
-9 -5 12 4.432 4.264 0.246 63.981 o
-9 -5 13 9.093 9.040 0.197 55.044 o
-9 -5 14 6.886 6.529 0.177 81.439 o
-9 -5 16 2.413 2.442 0.217 90.413 o
-9 -5 17 1.058 0.867 0.118 312.261 o
-9 -5 18 4.842 4.461 0.158 123.802 o
-9 -5 19 0.458 0.256 0.108 382.857 o
-9 -5 20 0.764 0.542 0.108 377.422 o
-9 -4 3 0.385 0.492 0.364 34.047 o
-9 -4 5 1.450 1.014 0.226 86.657 o
-9 -4 6 6.518 6.086 0.217 66.192 o
-9 -4 8 4.323 4.293 0.167 119.585 o
-9 -4 9 0.657 0.689 0.305 48.414 o
-9 -4 11 3.147 2.698 0.167 138.078 o
-9 -4 12 1.832 1.556 0.197 112.004 o
-9 -4 13 3.718 3.584 0.394 27.875 o
-9 -4 14 0.476 0.207 0.167 160.944 o
-9 -4 15 10.600 10.891 0.483 15.432 o
-9 -4 16 3.093 2.915 0.158 152.433 o
-9 -4 17 15.964 16.957 0.561 9.943 o
-9 -3 4 11.558 11.245 0.404 19.487 o
-9 -3 5 0.560 0.483 0.236 80.760 o
-9 -3 6 3.148 3.062 0.138 187.428 o
-9 -3 7 2.690 2.708 0.236 75.782 o
-9 -3 8 0.987 0.965 0.138 231.807 o
-9 -3 9 10.071 9.798 0.167 56.199 o
-9 -3 10 2.863 2.895 0.187 114.927 o
-9 -3 13 13.646 13.875 0.207 31.865 o
-9 -3 14 10.045 10.054 0.177 53.465 o
-9 -3 16 5.519 5.731 0.286 46.149 o
-9 -3 17 7.651 7.356 0.167 77.891 o
-9 -3 18 0.172 0.483 0.473 20.241 o
-9 -2 3 4.196 4.018 0.315 41.760 o
-9 -2 4 8.286 8.144 0.335 30.593 o
-9 -2 5 11.483 11.502 0.167 46.366 o
-9 -2 6 11.882 11.698 0.197 40.244 o
-9 -2 8 4.301 3.870 0.138 160.906 o
-9 -2 9 14.942 14.623 0.226 27.047 o
-9 -2 11 8.496 8.282 0.187 62.482 o
-9 -2 12 17.026 17.016 0.601 8.809 o
-9 -2 14 13.005 13.215 0.197 35.108 o
-9 -2 15 5.883 6.233 0.148 110.917 o
-9 -2 16 2.018 1.960 0.148 189.074 o
-9 -2 17 2.079 1.989 0.345 37.380 o
-9 -2 18 1.235 0.679 0.325 42.597 o
-9 -1 2 2.525 2.422 0.236 76.502 o
-9 -1 3 5.096 5.121 0.177 100.201 o
-9 -1 5 8.718 8.606 0.207 54.855 o
-9 -1 6 8.269 7.750 0.158 76.214 o
-9 -1 7 8.147 8.213 0.207 58.054 o
-9 -1 8 23.100 22.284 0.276 12.904 o
-9 -1 9 9.129 9.040 0.187 57.531 o
-9 -1 10 21.397 20.935 0.246 15.163 o
-9 -1 11 1.844 1.979 0.128 247.591 o
-9 -1 12 9.318 8.656 0.443 18.849 o
-9 -1 15 17.554 18.060 0.226 20.869 o
-9 0 1 0.974 1.388 0.354 35.804 o
-9 0 2 10.748 9.759 0.453 17.240 o
-9 0 3 13.817 14.278 0.236 28.507 o
-9 0 4 9.580 9.345 0.207 50.079 o
-9 0 5 65.932 66.233 0.660 1.656 o
-9 0 7 1.689 1.467 0.128 254.654 o
-9 0 8 8.653 8.390 0.187 61.413 o
-9 0 9 29.041 29.128 0.354 7.924 o
-9 0 10 6.166 5.898 0.148 109.597 o
-9 0 12 1.919 1.457 0.138 219.066 o
-9 0 13 9.793 9.552 0.335 27.957 o
-9 0 14 4.172 4.018 0.325 39.487 o
-9 0 15 0.727 0.601 0.433 24.061 o
-9 1 1 25.457 26.272 0.364 9.395 o
-9 1 2 0.500 0.207 0.187 128.892 o
-9 1 3 15.965 16.189 0.207 25.371 o
-9 1 4 0.783 0.345 0.128 272.446 o
-9 1 5 15.423 15.499 0.354 17.993 o
-9 1 6 8.725 8.193 0.286 37.681 o
-9 1 7 41.027 40.078 0.601 3.666 o
-9 1 8 2.108 2.068 0.226 84.371 o
-9 1 9 3.601 3.506 0.236 72.294 o
-9 1 10 2.877 3.072 0.226 80.976 o
-9 1 12 2.386 2.216 0.187 119.453 o
-9 1 14 3.515 3.368 0.384 29.405 o
-9 1 16 3.878 3.338 0.345 35.899 o
-9 2 1 1.342 1.438 0.158 175.183 o
-9 2 2 1.293 1.408 0.118 303.607 o
-9 2 3 7.548 7.513 0.286 40.577 o
-9 2 4 24.347 24.155 0.571 7.103 o
-9 2 5 0.368 0.286 0.256 68.934 o
-9 2 6 0.564 0.345 0.158 181.273 o
-9 2 7 26.043 25.327 0.354 9.494 o
-9 2 8 39.021 39.153 0.492 4.323 o
-9 2 9 7.909 7.740 0.167 74.756 o
-9 2 10 0.275 0.167 0.138 237.598 o
-9 2 11 5.877 5.967 0.177 90.829 o
-9 2 12 4.566 4.687 0.167 115.377 o
-9 2 13 0.497 0.532 0.158 181.205 o
-9 2 14 3.880 4.037 0.384 29.061 o
-9 2 15 3.062 2.797 0.345 36.640 o
-9 2 16 1.905 1.930 0.315 44.682 o
-9 3 1 8.949 9.768 0.374 24.472 o
-9 3 2 7.880 8.016 0.217 56.526 o
-9 3 3 0.630 0.601 0.217 95.956 o
-9 3 4 0.897 0.719 0.217 95.617 o
-9 3 6 0.447 0.286 0.148 206.533 o
-9 3 8 11.074 10.714 0.354 23.947 o
-9 3 9 8.350 8.744 0.187 62.048 o
-9 3 10 2.821 2.285 0.148 177.401 o
-9 3 12 4.016 4.303 0.394 27.570 o
-9 3 14 2.548 2.393 0.354 35.074 o
-9 3 15 0.691 0.729 0.325 42.726 o
-9 3 16 4.422 4.658 0.315 41.131 o
-9 4 1 7.370 7.681 0.256 47.625 o
-9 4 2 0.446 0.305 0.148 206.508 o
-9 4 3 5.938 5.682 0.167 98.187 o
-9 4 4 9.016 9.030 0.542 13.454 o
-9 4 5 7.050 6.420 0.197 71.306 o
-9 4 6 7.834 7.435 0.354 28.825 o
-9 4 7 6.674 6.292 0.354 30.510 o
-9 4 8 0.746 0.433 0.423 25.196 o
-9 4 9 1.658 1.467 0.167 154.036 o
-9 4 11 1.450 1.063 0.187 125.899 o
-9 4 13 2.007 2.206 0.354 35.353 o
-9 4 14 4.793 4.894 0.354 32.789 o
-9 4 15 1.492 1.457 0.295 51.149 o
-9 5 1 1.543 1.408 0.148 196.648 o
-9 5 3 3.154 2.797 0.187 113.481 o
-9 5 5 52.677 51.718 0.581 2.539 o
-9 5 6 4.437 4.077 0.335 37.100 o
-9 5 7 8.194 8.557 0.443 19.430 o
-9 5 8 9.672 10.093 0.177 55.069 o
-9 5 9 2.868 2.639 0.463 20.718 o
-9 5 11 0.654 0.532 0.167 160.263 o
-9 5 12 2.559 2.058 0.187 118.963 o
-9 5 13 3.129 3.555 0.354 34.445 o
-9 5 14 2.228 1.871 0.414 26.084 o
-9 5 15 1.033 1.172 0.266 63.432 o
-9 6 1 6.953 6.864 0.158 90.335 o
-9 6 2 41.509 41.900 0.522 3.815 o
-9 6 3 0.411 0.266 0.207 105.596 o
-9 6 4 14.090 13.796 0.325 21.671 o
-9 6 5 1.639 1.822 0.374 31.954 o
-9 6 6 1.307 1.211 0.394 28.992 o
-9 6 7 5.190 5.160 0.187 92.044 o
-9 6 8 2.007 1.950 0.177 135.017 o
-9 6 10 4.418 4.028 0.384 28.777 o
-9 6 11 2.643 2.304 0.158 160.410 o
-9 7 1 12.216 12.447 0.217 35.747 o
-9 7 2 17.792 17.774 0.374 14.750 o
-9 7 3 10.640 11.196 0.364 23.257 o
-9 7 4 9.372 9.621 0.463 17.310 o
-9 7 6 1.362 1.192 0.128 261.664 o
-9 7 7 3.641 3.998 0.158 140.153 o
-9 7 8 8.594 8.370 0.226 50.522 o
-9 7 10 11.254 10.724 0.581 11.246 o
-9 7 11 1.793 1.960 0.187 122.885 o
-9 7 12 1.568 1.507 0.118 297.069 o
-9 7 13 0.134 0.158 0.108 385.133 o
-9 8 1 1.919 1.822 0.167 151.273 o
-9 8 3 3.319 3.693 0.148 161.170 o
-9 8 4 6.431 6.509 0.167 90.492 o
-9 8 5 7.871 8.410 0.167 72.763 o
-9 8 6 2.707 2.472 0.138 199.733 o
-9 8 7 2.214 1.782 0.167 149.368 o
-9 8 8 11.995 13.176 0.542 12.088 o
-9 8 10 2.000 1.979 0.483 19.253 o
-9 8 11 2.057 2.097 0.148 187.857 o
-9 8 12 1.864 1.290 0.374 31.965 o
-9 9 1 2.054 2.166 0.286 53.938 o
-9 9 2 2.032 1.979 0.148 188.802 o
-9 9 3 11.570 12.565 0.256 32.270 o
-9 9 4 0.297 0.167 0.167 161.200 o
-9 9 5 2.370 2.767 0.177 130.287 o
-9 9 7 9.288 9.601 0.236 44.206 o
-9 9 8 2.645 2.570 0.492 18.383 o
-9 9 9 10.379 10.645 0.542 12.884 o
-9 9 11 0.355 0.571 0.384 30.646 o
-9 10 1 0.112 0.246 0.138 237.813 o
-9 10 2 1.076 0.827 0.138 231.641 o
-9 10 4 0.780 0.778 0.138 234.039 o
-9 10 5 4.148 3.968 0.167 122.815 o
-9 10 6 14.752 15.687 0.236 25.790 o
-9 10 7 0.804 0.709 0.483 19.400 o
-9 10 8 0.266 0.601 0.453 22.035 o
-9 10 9 2.720 2.678 0.433 23.607 o
-9 11 1 11.698 12.486 0.187 40.983 o
-9 11 3 2.101 2.147 0.158 166.386 o
-9 11 4 10.886 11.698 0.207 41.754 o
-9 11 5 0.288 0.158 0.148 207.004 o
-9 11 6 3.652 3.535 0.483 18.869 o
-9 11 9 3.387 3.240 0.384 29.493 o
-9 12 1 0.844 0.748 0.158 179.687 o
-9 12 2 4.132 4.520 0.404 26.209 o
-9 12 3 2.190 2.550 0.374 31.666 o
-9 12 4 3.642 3.447 0.364 32.425 o
-9 12 6 1.351 1.704 0.423 25.067 o
-9 12 7 1.736 1.576 0.394 28.874 o
-9 13 1 1.913 1.871 0.138 216.352 o
-9 13 5 4.120 4.047 0.305 44.333 o
-9 14 2 4.437 4.559 0.128 167.834 o
-9 15 1 0.833 0.601 0.295 51.648 o
-8 -18 14 0.952 0.748 0.374 32.207 o
-8 -18 15 0.737 0.719 0.256 68.704 o
-8 -17 11 1.475 1.684 0.325 42.328 o
-8 -17 14 1.175 0.867 0.108 366.563 o
-8 -17 16 1.134 1.142 0.286 55.002 o
-8 -17 17 0.434 0.207 0.207 105.600 o
-8 -17 18 0.382 0.433 0.246 74.526 o
-8 -16 11 0.428 0.404 0.128 274.442 o
-8 -16 12 0.107 0.118 0.118 323.760 o
-8 -16 13 3.936 4.077 0.364 32.054 o
-8 -16 14 3.324 3.515 0.148 162.331 o
-8 -15 3 3.335 3.880 0.325 40.343 o
-8 -15 4 0.657 0.798 0.335 40.255 o
-8 -15 6 0.960 0.876 0.305 48.299 o
-8 -15 7 4.610 4.815 0.246 62.701 o
-8 -15 8 0.425 0.502 0.108 381.999 o
-8 -15 10 0.537 0.354 0.148 206.175 o
-8 -15 13 1.484 1.516 0.108 350.352 o
-8 -14 2 0.403 0.630 0.108 381.552 o
-8 -14 3 1.948 2.324 0.354 35.353 o
-8 -14 6 1.414 1.635 0.414 26.263 o
-8 -14 7 3.535 3.900 0.295 47.956 o
-8 -14 9 1.156 0.896 0.187 127.021 o
-8 -14 12 0.676 0.483 0.108 379.118 o
-8 -14 15 2.491 2.432 0.167 144.778 o
-8 -13 1 0.185 0.266 0.217 96.322 o
-8 -13 2 4.098 4.697 0.414 25.019 o
-8 -13 3 0.567 0.492 0.138 236.052 o
-8 -13 5 10.593 11.226 0.177 48.688 o
-8 -13 6 15.859 17.666 0.492 11.744 o
-8 -13 8 0.414 0.335 0.128 274.667 o
-8 -13 10 1.456 1.438 0.118 300.115 o
-8 -13 11 0.318 0.345 0.108 383.642 o
-8 -13 14 0.263 0.246 0.158 181.943 o
-8 -13 15 0.489 0.453 0.148 206.170 o
-8 -13 16 0.338 0.551 0.394 29.135 o
-8 -13 20 0.516 0.295 0.305 48.482 o
-8 -12 1 3.488 3.929 0.148 157.168 o
-8 -12 2 0.845 0.807 0.236 80.451 o
-8 -12 4 1.331 1.172 0.197 114.078 o
-8 -12 5 3.958 3.840 0.226 76.162 o
-8 -12 7 1.018 0.916 0.148 202.572 o
-8 -12 8 3.913 3.939 0.118 204.997 o
-8 -12 11 0.800 0.748 0.098 451.413 o
-8 -12 12 2.993 3.200 0.118 239.285 o
-8 -12 15 2.341 2.058 0.158 164.577 o
-8 -12 16 1.731 1.438 0.394 28.890 o
-8 -12 18 2.276 1.763 0.364 33.483 o
-8 -12 19 0.473 0.167 0.118 322.237 o
-8 -12 21 4.399 4.284 0.276 52.569 o
-8 -11 2 0.451 0.394 0.118 321.649 o
-8 -11 3 0.729 0.679 0.118 317.826 o
-8 -11 4 3.670 3.525 0.158 142.532 o
-8 -11 5 10.380 11.157 0.226 40.778 o
-8 -11 6 6.659 6.755 0.158 93.441 o
-8 -11 7 1.160 1.103 0.108 364.196 o
-8 -11 8 7.382 7.622 0.138 93.576 o
-8 -11 9 8.847 9.040 0.148 71.067 o
-8 -11 10 0.424 0.364 0.108 382.676 o
-8 -11 11 10.346 10.783 0.138 58.754 o
-8 -11 12 1.448 1.359 0.098 420.474 o
-8 -11 13 0.316 0.138 0.098 464.765 o
-8 -11 15 1.357 1.260 0.138 226.938 o
-8 -11 16 6.416 6.056 0.433 21.681 o
-8 -11 19 1.281 0.945 0.433 24.000 o
-8 -11 20 1.105 0.719 0.118 312.677 o
-8 -10 1 0.024 0.138 0.148 207.283 o
-8 -10 2 2.669 2.501 0.128 226.323 o
-8 -10 3 0.864 0.709 0.138 233.703 o
-8 -10 6 9.521 9.759 0.177 56.566 o
-8 -10 7 3.365 3.289 0.236 73.271 o
-8 -10 8 0.620 0.581 0.167 160.285 o
-8 -10 9 4.207 4.234 0.138 159.444 o
-8 -10 10 0.300 0.276 0.128 275.242 o
-8 -10 11 12.440 12.782 0.305 25.669 o
-8 -10 12 0.686 0.660 0.138 234.990 o
-8 -10 13 5.636 5.820 0.128 135.085 o
-8 -10 14 7.975 8.439 0.118 92.733 o
-8 -10 15 1.261 1.014 0.433 23.999 o
-8 -9 1 7.867 7.789 0.236 51.259 o
-8 -9 2 2.120 1.910 0.148 188.205 o
-8 -9 4 3.172 2.797 0.187 113.369 o
-8 -9 5 7.178 7.405 0.197 68.015 o
-8 -9 6 6.523 6.361 0.197 74.355 o
-8 -9 7 22.740 23.358 0.335 11.615 o
-8 -9 8 2.937 2.708 0.138 193.977 o
-8 -9 9 3.035 2.984 0.138 190.020 o
-8 -9 10 7.146 6.942 0.345 31.155 o
-8 -9 11 1.114 0.896 0.128 266.704 o
-8 -9 12 2.877 2.570 0.167 140.996 o
-8 -9 13 0.446 0.305 0.197 116.356 o
-8 -9 14 24.265 25.022 0.246 11.991 o
-8 -9 15 3.198 2.797 0.148 168.995 o
-8 -9 20 2.201 1.398 0.443 22.805 o
-8 -9 22 1.216 1.270 0.325 42.508 o
-8 -8 1 0.702 0.719 0.423 25.189 o
-8 -8 2 1.033 0.935 0.335 40.160 o
-8 -8 4 16.541 16.927 0.256 21.344 o
-8 -8 5 0.836 0.640 0.128 270.824 o
-8 -8 6 9.160 9.414 0.217 49.191 o
-8 -8 7 0.472 0.443 0.128 274.113 o
-8 -8 8 7.161 7.248 0.177 77.123 o
-8 -8 9 0.886 0.699 0.128 270.101 o
-8 -8 11 1.314 1.329 0.158 175.712 o
-8 -8 12 1.516 1.398 0.236 79.345 o
-8 -8 13 8.785 9.256 0.266 40.095 o
-8 -8 14 6.719 6.598 0.453 19.778 o
-8 -8 16 1.404 1.093 0.167 156.426 o
-8 -8 17 0.602 0.571 0.197 116.056 o
-8 -8 19 3.732 2.915 0.492 18.184 o
-8 -7 1 5.782 5.869 0.187 85.676 o
-8 -7 3 9.427 9.178 0.443 18.663 o
-8 -7 4 36.075 36.543 0.581 4.396 o
-8 -7 5 0.218 0.197 0.148 207.081 o
-8 -7 6 15.831 15.903 0.226 24.621 o
-8 -7 7 17.513 17.922 0.325 16.772 o
-8 -7 8 1.145 0.620 0.148 202.701 o
-8 -7 10 10.822 10.665 0.197 45.284 o
-8 -7 11 2.352 2.432 0.246 71.132 o
-8 -7 12 6.017 6.411 0.177 88.118 o
-8 -7 13 26.415 26.528 0.295 9.922 o
-8 -7 14 2.019 1.940 0.384 30.237 o
-8 -7 15 1.613 1.408 0.128 256.338 o
-8 -7 16 1.348 1.339 0.138 226.609 o
-8 -7 18 0.352 0.739 0.522 16.598 o
-8 -6 3 3.892 3.771 0.256 61.650 o
-8 -6 4 0.727 0.394 0.118 319.340 o
-8 -6 5 0.468 0.551 0.158 181.256 o
-8 -6 6 13.105 13.057 0.226 31.955 o
-8 -6 7 15.881 15.588 0.246 23.580 o
-8 -6 8 4.735 4.372 0.167 115.267 o
-8 -6 9 4.553 4.421 0.394 27.270 o
-8 -6 10 2.580 2.570 0.197 106.963 o
-8 -6 11 34.619 35.145 0.394 5.705 o
-8 -6 13 2.304 2.225 0.256 66.237 o
-8 -6 14 2.582 2.097 0.364 33.297 o
-8 -6 16 4.251 4.372 0.148 143.510 o
-8 -6 17 0.493 0.286 0.128 274.410 o
-8 -6 20 1.057 1.034 0.443 22.966 o
-8 -5 1 0.560 0.295 0.158 181.343 o
-8 -5 2 15.445 14.741 0.354 18.273 o
-8 -5 3 0.424 0.286 0.158 181.649 o
-8 -5 4 6.053 5.642 0.177 90.722 o
-8 -5 5 87.432 89.295 0.857 0.939 o
-8 -5 6 37.169 37.006 0.394 5.136 o
-8 -5 7 10.292 10.054 0.167 54.519 o
-8 -5 8 22.847 22.284 0.345 11.621 o
-8 -5 10 9.169 8.794 0.187 57.921 o
-8 -5 11 15.413 15.253 0.414 15.316 o
-8 -5 12 0.659 0.414 0.148 205.648 o
-8 -5 13 6.916 7.011 0.295 40.134 o
-8 -5 14 0.909 0.463 0.384 30.603 o
-8 -5 15 5.960 5.357 0.187 86.195 o
-8 -5 16 1.850 1.625 0.138 218.865 o
-8 -5 17 0.619 0.611 0.128 272.666 o
-8 -5 18 5.242 4.244 0.591 12.502 o
-8 -5 19 1.004 0.945 0.354 35.844 o
-8 -4 2 0.712 0.827 0.335 40.242 o
-8 -4 3 17.383 17.233 0.295 18.423 o
-8 -4 4 20.550 19.882 0.266 15.687 o
-8 -4 5 0.316 0.148 0.158 181.939 o
-8 -4 6 56.388 56.582 0.492 2.354 o
-8 -4 7 0.039 0.158 0.108 385.375 o
-8 -4 8 74.616 74.465 0.650 1.350 o
-8 -4 9 10.242 9.946 0.167 55.015 o
-8 -4 10 31.344 31.117 0.315 7.363 o
-8 -4 13 0.625 0.502 0.197 116.070 o
-8 -4 16 2.452 2.353 0.138 204.758 o
-8 -4 17 6.135 5.820 0.167 95.879 o
-8 -4 18 0.755 0.670 0.512 17.231 o
-8 -3 4 2.256 2.216 0.138 208.867 o
-8 -3 5 49.401 49.866 0.522 2.888 o
-8 -3 6 19.265 18.946 0.226 18.489 o
-8 -3 7 14.200 14.269 0.187 31.953 o
-8 -3 9 22.811 22.491 0.246 13.619 o
-8 -3 10 0.610 0.611 0.128 272.734 o
-8 -3 11 13.695 13.855 0.315 22.745 o
-8 -3 12 24.305 23.653 0.453 8.855 o
-8 -3 14 1.265 1.251 0.374 32.110 o
-8 -3 15 1.792 1.605 0.138 219.752 o
-8 -3 16 10.861 11.019 0.177 48.036 o
-8 -3 17 1.733 1.349 0.177 138.002 o
-8 -3 18 1.015 0.886 0.364 33.944 o
-8 -3 19 1.466 1.123 0.335 40.005 o
-8 -2 2 0.686 0.788 0.325 42.721 o
-8 -2 4 13.663 13.087 0.177 35.614 o
-8 -2 5 0.761 0.788 0.118 316.829 o
-8 -2 6 7.170 7.060 0.167 82.496 o
-8 -2 7 1.100 1.054 0.187 126.959 o
-8 -2 8 3.003 2.767 0.138 192.389 o
-8 -2 9 7.367 7.346 0.158 84.767 o
-8 -2 10 3.937 4.303 0.167 123.236 o
-8 -2 11 2.089 2.058 0.167 149.271 o
-8 -2 12 2.798 2.235 0.345 36.959 o
-8 -2 13 7.354 7.070 0.463 18.693 o
-8 -2 14 24.676 24.411 0.620 6.431 o
-8 -2 15 18.960 19.714 0.236 18.074 o
-8 -2 16 3.921 3.703 0.167 126.251 o
-8 -2 18 0.000 0.187 0.138 237.949 o
-8 -1 1 5.489 5.485 0.345 33.590 o
-8 -1 2 18.216 18.050 0.276 18.111 o
-8 -1 4 0.703 0.384 0.108 379.415 o
-8 -1 5 9.139 8.734 0.315 31.851 o
-8 -1 7 25.015 24.145 0.246 11.822 o
-8 -1 8 0.608 0.364 0.138 236.159 o
-8 -1 9 1.543 1.438 0.118 298.323 o
-8 -1 10 2.060 2.147 0.128 242.057 o
-8 -1 11 19.369 19.044 0.916 4.374 o
-8 -1 12 24.400 23.358 1.123 2.890 o
-8 -1 14 3.249 3.230 0.217 86.197 o
-8 -1 15 25.322 26.233 0.325 10.018 o
-8 0 1 5.480 5.564 0.246 59.058 o
-8 0 2 23.768 23.456 0.286 12.013 o
-8 0 3 7.961 7.238 0.197 64.452 o
-8 0 4 16.211 15.687 0.256 22.502 o
-8 0 5 4.039 4.047 0.128 180.987 o
-8 0 6 9.190 8.853 0.167 63.326 o
-8 0 7 13.964 13.589 0.197 32.384 o
-8 0 8 0.309 0.286 0.187 129.029 o
-8 0 9 6.271 6.223 0.148 106.606 o
-8 0 10 31.619 31.363 0.620 4.978 o
-8 0 11 7.114 6.598 0.640 10.396 o
-8 0 12 26.279 25.967 0.857 4.131 o
-8 0 13 0.519 0.364 0.167 160.736 o
-8 0 14 9.454 9.798 0.207 49.707 o
-8 0 15 1.016 1.073 0.414 26.355 o
-8 0 16 4.229 4.037 0.374 30.323 o
-8 0 17 0.580 0.354 0.345 38.033 o
-8 0 18 2.851 2.688 0.305 46.481 o
-8 1 1 5.147 5.406 0.286 47.125 o
-8 1 3 15.998 16.012 0.197 26.044 o
-8 1 4 13.492 12.998 0.414 17.093 o
-8 1 5 8.150 8.193 0.197 61.206 o
-8 1 6 21.064 20.423 0.236 15.880 o
-8 1 7 50.810 50.428 0.453 2.903 o
-8 1 8 27.718 27.050 0.354 8.634 o
-8 1 9 0.869 0.522 0.118 317.126 o
-8 1 10 19.036 19.212 0.226 18.587 o
-8 1 11 3.121 3.013 0.374 31.185 o
-8 1 12 5.256 4.894 0.404 25.568 o
-8 1 13 27.276 28.281 0.502 6.918 o
-8 1 14 3.336 3.200 0.384 29.524 o
-8 1 17 0.546 0.404 0.325 42.778 o
-8 2 1 31.367 32.673 0.374 6.723 o
-8 2 2 0.410 0.374 0.167 160.915 o
-8 2 3 80.784 81.427 0.709 1.143 o
-8 2 4 14.753 14.416 0.226 27.546 o
-8 2 5 5.209 5.022 0.167 107.750 o
-8 2 6 1.208 1.014 0.118 308.683 o
-8 2 7 31.999 31.452 0.414 6.423 o
-8 2 8 30.644 30.822 0.364 7.188 o
-8 2 10 0.669 0.660 0.197 115.910 o
-8 2 11 8.646 7.868 0.433 20.122 o
-8 2 12 14.451 13.845 0.256 26.220 o
-8 2 15 7.503 7.435 0.414 22.556 o
-8 2 17 0.135 0.473 0.295 51.806 o
-8 3 1 18.055 18.503 0.276 18.050 o
-8 3 2 7.691 7.947 0.217 57.410 o
-8 3 3 19.206 19.438 0.286 16.304 o
-8 3 4 8.366 8.213 0.246 46.618 o
-8 3 5 54.464 52.781 0.542 2.480 o
-8 3 6 14.722 14.239 0.226 27.754 o
-8 3 7 3.647 3.732 0.138 173.148 o
-8 3 8 4.044 4.382 0.128 177.457 o
-8 3 9 1.129 1.093 0.148 201.241 o
-8 3 10 2.384 2.462 0.207 98.707 o
-8 3 12 1.608 1.487 0.158 173.168 o
-8 3 13 1.706 1.438 0.158 172.627 o
-8 3 14 6.169 6.588 0.433 21.672 o
-8 3 16 4.771 4.786 0.335 36.443 o
-8 4 1 1.348 1.300 0.118 303.593 o
-8 4 2 43.689 43.643 0.404 3.874 o
-8 4 3 0.269 0.345 0.138 237.404 o
-8 4 5 11.601 11.137 0.236 36.223 o
-8 4 6 86.244 86.321 1.369 0.781 o
-8 4 7 1.446 1.497 0.158 174.283 o
-8 4 8 4.321 4.106 0.187 101.603 o
-8 4 9 4.109 3.850 0.217 81.560 o
-8 4 10 12.520 13.294 0.483 14.186 o
-8 4 11 0.653 0.502 0.158 180.807 o
-8 4 12 7.049 7.622 0.187 72.234 o
-8 4 13 0.846 0.876 0.423 25.172 o
-8 4 14 6.532 6.627 0.394 25.432 o
-8 4 17 8.435 8.606 0.325 31.500 o
-8 5 2 0.159 0.177 0.108 385.011 o
-8 5 3 0.654 0.758 0.167 159.968 o
-8 5 4 1.419 1.113 0.542 15.371 o
-8 5 5 0.308 0.315 0.148 206.822 o
-8 5 6 12.665 12.861 0.335 22.906 o
-8 5 7 7.026 7.228 0.236 54.920 o
-8 5 8 9.025 8.715 0.207 53.407 o
-8 5 10 2.010 1.891 0.187 122.078 o
-8 5 11 20.276 21.073 0.276 15.164 o
-8 5 12 1.915 1.763 0.167 151.499 o
-8 5 15 3.902 3.693 0.394 27.768 o
-8 5 16 2.179 2.324 0.266 61.702 o
-8 6 1 1.585 1.320 0.118 298.673 o
-8 6 2 17.203 17.213 0.207 22.763 o
-8 6 3 4.642 4.352 0.473 19.304 o
-8 6 4 2.282 2.029 0.197 109.431 o
-8 6 5 16.171 15.923 0.345 17.729 o
-8 6 6 0.138 0.305 0.207 105.718 o
-8 6 7 2.295 2.344 0.217 90.918 o
-8 6 9 1.119 0.670 0.207 104.557 o
-8 6 13 0.268 0.394 0.148 206.822 o
-8 6 14 2.359 2.422 0.315 44.221 o
-8 6 15 2.184 2.393 0.098 365.573 o
-8 7 1 2.315 2.265 0.128 235.946 o
-8 7 2 5.280 5.849 0.226 67.452 o
-8 7 3 44.206 43.111 1.073 2.090 o
-8 7 4 16.972 16.740 0.305 18.572 o
-8 7 5 2.211 1.851 0.276 57.745 o
-8 7 6 18.799 19.537 0.542 9.338 o
-8 7 10 4.096 3.447 0.542 15.014 o
-8 7 11 1.075 0.876 0.394 29.052 o
-8 7 12 4.210 4.057 0.148 146.243 o
-8 7 13 1.621 1.694 0.295 50.993 o
-8 7 14 0.247 0.305 0.098 464.638 o
-8 8 1 4.949 5.002 0.167 110.267 o
-8 8 2 20.667 20.975 0.335 13.330 o
-8 8 3 0.790 0.867 0.335 40.223 o
-8 8 5 4.659 4.559 0.404 25.953 o
-8 8 6 5.271 5.199 0.187 91.362 o
-8 8 9 1.901 1.920 0.394 28.796 o
-8 8 10 15.320 16.356 0.807 5.789 o
-8 8 11 0.657 0.246 0.108 380.853 o
-8 8 14 2.197 2.216 0.315 44.406 o
-8 9 1 1.308 0.896 0.207 104.010 o
-8 9 2 19.451 19.970 0.561 8.733 o
-8 9 3 0.598 0.502 0.374 32.263 o
-8 9 4 1.507 1.260 0.148 197.622 o
-8 9 5 0.335 0.591 0.453 22.033 o
-8 9 6 11.754 12.732 0.226 35.292 o
-8 9 7 1.170 0.798 0.187 127.113 o
-8 9 8 7.495 7.740 0.571 12.689 o
-8 9 9 7.099 6.371 0.542 14.219 o
-8 9 10 2.040 1.782 0.108 329.069 o
-8 10 1 2.782 3.062 0.443 22.534 o
-8 10 2 1.349 1.054 0.148 199.761 o
-8 10 3 8.281 8.892 0.364 26.501 o
-8 10 4 5.429 5.465 0.158 111.909 o
-8 10 6 9.119 9.700 0.226 46.641 o
-8 10 7 1.941 1.763 0.532 15.891 o
-8 10 9 2.297 2.225 0.374 31.685 o
-8 10 10 1.583 1.418 0.158 173.600 o
-8 10 11 1.735 1.359 0.364 33.724 o
-8 11 1 12.401 13.117 0.463 15.160 o
-8 11 3 1.081 0.827 0.167 158.439 o
-8 11 4 0.613 0.414 0.158 181.052 o
-8 11 5 5.518 5.711 0.197 81.934 o
-8 11 7 7.309 7.957 0.542 13.996 o
-8 11 8 0.653 0.502 0.128 272.810 o
-8 12 1 1.815 1.841 0.167 151.899 o
-8 12 2 1.010 0.886 0.167 158.599 o
-8 12 3 1.444 0.916 0.217 94.663 o
-8 12 4 12.694 13.313 0.660 8.649 o
-8 12 5 3.800 3.811 0.512 16.762 o
-8 12 8 0.783 0.739 0.295 51.642 o
-8 13 2 9.280 9.828 0.670 9.127 o
-8 13 3 2.577 2.590 0.364 33.193 o
-8 13 5 0.275 0.463 0.443 23.027 o
-8 14 2 4.329 3.693 0.453 21.124 o
-8 14 3 0.500 0.207 0.128 274.567 o
-8 14 4 1.755 1.615 0.315 44.855 o
-8 14 5 0.815 0.650 0.364 33.993 o
-8 15 3 1.965 2.029 0.295 50.621 o
-7 -18 10 2.238 2.176 0.305 47.224 o
-7 -18 13 0.069 0.364 0.325 42.825 o
-7 -18 16 0.468 0.591 0.286 55.369 o
-7 -17 9 0.380 0.384 0.108 382.977 o
-7 -17 10 0.005 0.197 0.118 323.852 o
-7 -17 14 0.228 0.207 0.089 573.961 o
-7 -17 16 0.447 0.148 0.108 383.406 o
-7 -17 17 1.374 0.926 0.325 42.513 o
-7 -16 2 0.491 0.345 0.286 55.392 o
-7 -16 5 0.859 0.581 0.345 37.977 o
-7 -16 6 0.718 0.837 0.118 317.044 o
-7 -16 8 0.765 0.502 0.217 95.876 o
-7 -16 9 0.793 0.581 0.108 376.652 o
-7 -16 10 0.490 0.473 0.197 116.238 o
-7 -16 11 1.514 1.526 0.305 47.912 o
-7 -16 12 2.052 2.206 0.266 61.941 o
-7 -16 13 3.407 3.535 0.138 178.959 o
-7 -16 14 1.418 1.526 0.177 139.034 o
-7 -16 17 1.608 1.802 0.325 42.242 o
-7 -15 1 0.892 0.551 0.305 48.370 o
-7 -15 3 0.765 0.620 0.354 35.913 o
-7 -15 8 0.832 1.073 0.128 268.801 o
-7 -15 9 3.526 3.703 0.236 72.225 o
-7 -15 11 0.540 0.433 0.128 273.759 o
-7 -15 12 1.852 1.901 0.197 111.330 o
-7 -15 13 3.006 3.191 0.158 151.876 o
-7 -15 14 2.968 2.797 0.236 74.985 o
-7 -15 19 0.479 0.630 0.295 51.738 o
-7 -14 3 1.129 1.093 0.256 68.314 o
-7 -14 6 0.303 0.443 0.118 322.426 o
-7 -14 7 1.501 1.162 0.177 139.454 o
-7 -14 9 1.661 1.398 0.118 296.238 o
-7 -14 11 7.986 8.557 0.167 71.525 o
-7 -14 12 14.495 15.825 0.217 27.500 o
-7 -14 13 3.534 3.525 0.286 51.328 o
-7 -14 14 1.183 1.004 0.128 265.240 o
-7 -14 15 4.137 3.978 0.335 37.416 o
-7 -14 16 0.913 0.689 0.276 59.206 o
-7 -14 17 0.428 0.817 0.364 34.029 o
-7 -14 18 1.485 1.290 0.335 39.970 o
-7 -13 1 4.116 4.392 0.345 35.304 o
-7 -13 2 4.935 5.298 0.167 109.020 o
-7 -13 3 0.232 0.217 0.167 161.239 o
-7 -13 4 0.207 0.217 0.177 143.853 o
-7 -13 5 10.914 11.492 0.236 37.433 o
-7 -13 7 1.737 1.359 0.108 345.243 o
-7 -13 8 1.175 0.955 0.108 365.556 o
-7 -13 11 2.575 2.777 0.148 177.403 o
-7 -13 12 1.459 1.172 0.433 23.968 o
-7 -13 13 0.626 0.532 0.177 143.113 o
-7 -13 14 0.615 0.335 0.276 59.382 o
-7 -13 15 0.169 0.276 0.158 182.038 o
-7 -13 21 0.296 0.286 0.098 464.269 o
-7 -12 1 4.031 4.510 0.197 94.154 o
-7 -12 2 0.152 0.443 0.217 96.303 o
-7 -12 4 1.913 2.009 0.128 246.071 o
-7 -12 5 12.818 13.579 0.207 34.069 o
-7 -12 7 1.755 1.369 0.404 27.512 o
-7 -12 10 1.781 1.467 0.276 58.357 o
-7 -12 11 2.809 2.541 0.128 222.993 o
-7 -12 13 3.468 3.575 0.148 159.922 o
-7 -12 14 4.436 4.500 0.148 140.102 o
-7 -12 16 0.146 0.167 0.167 161.324 o
-7 -12 17 3.534 3.900 0.404 26.599 o
-7 -12 21 6.587 7.031 0.345 31.700 o
-7 -11 2 1.533 1.201 0.128 259.137 o
-7 -11 3 8.071 7.927 0.158 77.014 o
-7 -11 4 53.404 55.558 0.581 2.405 o
-7 -11 5 2.078 1.940 0.404 27.382 o
-7 -11 6 0.378 0.236 0.148 206.756 o
-7 -11 8 5.219 4.835 0.187 92.955 o
-7 -11 9 0.725 0.709 0.177 142.722 o
-7 -11 11 0.305 0.463 0.167 161.008 o
-7 -11 12 0.385 0.197 0.138 237.291 o
-7 -11 14 1.221 1.201 0.187 126.400 o
-7 -11 16 3.199 2.866 0.433 23.465 o
-7 -11 17 1.286 1.585 0.177 139.470 o
-7 -11 18 1.200 0.886 0.502 17.888 o
-7 -10 1 0.791 0.709 0.108 375.645 o
-7 -10 2 0.373 0.473 0.394 29.136 o
-7 -10 3 13.270 12.762 0.217 32.935 o
-7 -10 4 0.851 0.827 0.167 159.266 o
-7 -10 6 12.283 12.270 0.187 39.531 o
-7 -10 7 0.385 0.384 0.128 274.688 o
-7 -10 8 0.753 0.630 0.118 317.829 o
-7 -10 9 1.708 1.654 0.128 252.785 o
-7 -10 10 5.103 5.298 0.197 85.571 o
-7 -10 11 3.072 2.984 0.158 152.285 o
-7 -10 12 2.023 1.822 0.158 168.523 o
-7 -10 13 6.246 6.125 0.167 93.628 o
-7 -10 14 2.359 2.166 0.167 146.860 o
-7 -10 15 1.421 1.280 0.286 54.794 o
-7 -10 16 3.583 3.437 0.158 144.031 o
-7 -10 17 5.225 5.199 0.158 115.510 o
-7 -10 18 2.944 2.816 0.167 139.349 o
-7 -10 19 5.897 6.292 0.404 24.831 o
-7 -9 1 2.240 2.206 0.138 209.183 o
-7 -9 2 1.542 1.172 0.148 197.701 o
-7 -9 3 22.911 24.126 0.315 11.729 o
-7 -9 4 27.118 27.159 0.295 9.522 o
-7 -9 5 1.418 1.073 0.148 199.142 o
-7 -9 6 4.614 4.540 0.217 77.949 o
-7 -9 7 29.503 29.877 0.354 7.692 o
-7 -9 8 0.484 0.315 0.118 321.694 o
-7 -9 9 14.434 14.298 0.266 25.165 o
-7 -9 10 8.871 8.587 0.236 46.909 o
-7 -9 11 1.663 1.438 0.177 138.120 o
-7 -9 12 0.051 0.591 0.207 105.697 o
-7 -9 14 20.266 20.591 0.286 15.067 o
-7 -9 15 3.107 2.669 0.423 24.593 o
-7 -9 17 0.936 1.576 0.542 15.383 o
-7 -9 18 5.601 5.396 0.561 13.657 o
-7 -8 1 1.973 1.576 0.148 191.634 o
-7 -8 2 0.298 0.187 0.158 181.937 o
-7 -8 3 2.292 2.038 0.158 165.132 o
-7 -8 4 20.067 20.098 0.286 15.391 o
-7 -8 5 1.509 1.664 0.118 296.660 o
-7 -8 6 0.038 0.177 0.118 323.823 o
-7 -8 7 8.360 8.488 0.236 48.612 o
-7 -8 8 1.350 1.211 0.138 227.275 o
-7 -8 9 33.986 34.367 0.335 6.238 o
-7 -8 11 3.322 3.230 0.138 183.026 o
-7 -8 12 20.390 20.945 0.266 15.402 o
-7 -8 13 8.931 8.882 0.167 64.723 o
-7 -8 14 0.338 0.256 0.207 105.641 o
-7 -7 1 1.973 1.654 0.207 101.415 o
-7 -7 2 8.672 8.301 0.433 19.993 o
-7 -7 3 1.676 1.379 0.158 173.071 o
-7 -7 4 42.814 43.722 0.473 3.761 o
-7 -7 5 34.426 34.869 0.335 6.098 o
-7 -7 6 22.523 22.481 0.266 13.399 o
-7 -7 7 0.749 0.463 0.138 235.191 o
-7 -7 8 19.844 19.813 0.226 17.498 o
-7 -7 9 1.597 1.320 0.118 298.433 o
-7 -7 10 10.451 10.280 0.158 55.342 o
-7 -7 11 0.210 0.118 0.118 323.518 o
-7 -7 12 36.522 36.474 0.374 5.372 o
-7 -7 13 18.691 17.991 0.492 10.721 o
-7 -7 14 0.367 0.433 0.207 105.570 o
-7 -7 15 0.581 0.463 0.394 29.123 o
-7 -7 16 9.684 9.325 0.512 14.572 o
-7 -7 18 4.901 4.352 0.561 13.841 o
-7 -7 19 0.200 0.591 0.512 17.246 o
-7 -7 20 3.342 3.417 0.148 162.758 o
-7 -6 1 2.256 1.772 0.148 187.444 o
-7 -6 2 24.846 24.569 0.512 7.732 o
-7 -6 3 1.720 1.713 0.187 123.711 o
-7 -6 4 23.227 23.535 0.246 13.024 o
-7 -6 6 14.201 13.855 0.187 32.421 o
-7 -6 8 5.561 5.061 0.177 96.761 o
-7 -6 9 4.275 3.900 0.246 64.914 o
-7 -6 10 0.459 0.236 0.138 237.004 o
-7 -6 11 15.571 15.401 0.335 18.934 o
-7 -6 12 33.336 33.028 0.453 5.748 o
-7 -6 14 2.162 1.940 0.207 100.378 o
-7 -6 15 2.451 1.910 0.384 30.112 o
-7 -6 17 11.565 11.019 0.483 15.023 o
-7 -5 1 3.460 3.200 0.158 146.758 o
-7 -5 2 91.526 92.318 0.857 0.875 o
-7 -5 3 0.838 0.670 0.108 375.193 o
-7 -5 4 5.523 5.406 0.138 129.796 o
-7 -5 5 36.151 36.425 0.335 5.626 o
-7 -5 6 12.824 12.664 0.207 35.153 o
-7 -5 7 2.513 2.353 0.118 263.708 o
-7 -5 8 15.126 15.677 0.335 19.202 o
-7 -5 10 0.605 0.453 0.158 181.021 o
-7 -5 11 48.050 47.414 0.601 2.888 o
-7 -5 12 17.055 17.036 0.256 20.687 o
-7 -5 13 1.171 1.063 0.197 114.602 o
-7 -5 15 1.046 0.916 0.384 30.556 o
-7 -5 17 3.915 3.240 0.167 128.507 o
-7 -5 18 5.001 4.993 0.325 38.085 o
-7 -5 19 2.185 2.275 0.295 50.335 o
-7 -5 20 1.489 1.300 0.128 259.060 o
-7 -4 1 6.273 5.997 0.158 100.628 o
-7 -4 2 1.251 0.935 0.177 140.861 o
-7 -4 3 1.341 1.123 0.128 262.435 o
-7 -4 4 48.129 48.399 0.463 3.143 o
-7 -4 5 9.035 8.833 0.197 55.739 o
-7 -4 6 22.423 22.708 0.226 14.207 o
-7 -4 7 0.751 0.640 0.108 376.857 o
-7 -4 8 25.286 25.938 0.266 10.944 o
-7 -4 9 53.100 53.145 0.463 2.660 o
-7 -4 10 2.088 1.782 0.207 100.865 o
-7 -4 11 4.276 3.860 0.197 94.615 o
-7 -4 12 5.624 4.874 0.207 78.013 o
-7 -4 13 0.767 0.689 0.187 128.147 o
-7 -4 14 11.243 11.472 0.335 25.186 o
-7 -4 17 0.696 0.453 0.276 59.338 o
-7 -4 19 0.768 0.788 0.148 204.341 o
-7 -4 21 1.255 1.132 0.286 54.939 o
-7 -3 1 1.484 1.398 0.286 54.713 o
-7 -3 2 0.370 0.256 0.128 275.019 o
-7 -3 3 114.144 115.478 1.054 0.564 o
-7 -3 4 83.975 85.572 0.837 1.014 o
-7 -3 5 32.749 32.959 0.295 6.910 o
-7 -3 6 31.541 31.895 0.305 7.282 o
-7 -3 7 9.421 9.375 0.167 60.612 o
-7 -3 8 30.279 30.280 0.335 7.602 o
-7 -3 9 17.464 17.656 0.207 22.108 o
-7 -3 10 8.721 8.813 0.197 57.157 o
-7 -3 11 3.839 4.126 0.158 137.152 o
-7 -3 12 12.695 12.053 0.650 8.966 o
-7 -3 13 12.031 11.748 0.404 19.000 o
-7 -3 14 0.535 0.532 0.207 105.397 o
-7 -3 16 9.387 9.473 0.453 17.956 o
-7 -3 17 2.258 2.097 0.217 91.386 o
-7 -3 18 1.950 1.694 0.167 151.494 o
-7 -3 19 0.862 0.788 0.354 35.885 o
-7 -3 20 0.759 0.926 0.305 48.355 o
-7 -3 21 1.096 1.152 0.256 68.317 o
-7 -2 2 14.069 12.939 0.483 13.641 o
-7 -2 3 21.165 21.201 0.295 13.982 o
-7 -2 4 85.141 85.454 0.719 1.041 o
-7 -2 5 29.621 31.048 0.286 8.096 o
-7 -2 6 135.368 134.533 1.172 0.412 o
-7 -2 7 1.666 1.763 0.108 341.291 o
-7 -2 8 87.847 85.829 0.729 0.998 o
-7 -2 9 3.068 2.816 0.118 242.462 o
-7 -2 10 0.083 0.256 0.108 385.138 o
-7 -2 11 0.723 0.601 0.305 48.409 o
-7 -2 12 0.425 0.502 0.266 63.886 o
-7 -2 15 15.772 15.569 0.354 17.698 o
-7 -2 16 0.399 0.246 0.217 96.239 o
-7 -2 20 2.693 2.934 0.286 52.836 o
-7 -1 1 0.538 0.640 0.354 35.941 o
-7 -1 3 72.205 73.204 0.650 1.416 o
-7 -1 4 59.176 57.626 0.611 2.070 o
-7 -1 5 36.440 36.848 0.335 5.538 o
-7 -1 6 0.973 0.768 0.098 446.577 o
-7 -1 7 34.139 33.687 0.453 5.559 o
-7 -1 8 3.195 2.787 0.128 212.189 o
-7 -1 9 11.270 10.950 0.158 49.999 o
-7 -1 10 53.415 52.909 0.473 2.635 o
-7 -1 11 2.639 2.570 0.276 56.801 o
-7 -1 13 1.183 1.034 0.354 35.797 o
-7 -1 14 18.136 18.424 0.542 9.656 o
-7 -1 15 7.144 7.159 0.148 92.803 o
-7 -1 20 0.722 0.640 0.266 63.753 o
-7 0 1 0.836 0.581 0.158 180.045 o
-7 0 2 16.521 15.903 0.207 24.721 o
-7 0 3 7.432 7.415 0.256 47.812 o
-7 0 4 2.972 2.501 0.177 127.075 o
-7 0 5 17.263 16.780 0.226 22.027 o
-7 0 6 9.720 10.015 0.148 62.305 o
-7 0 7 10.220 10.438 0.148 58.275 o
-7 0 8 4.060 4.254 0.148 146.944 o
-7 0 10 3.413 3.683 0.266 58.622 o
-7 0 11 0.481 0.453 0.305 48.475 o
-7 0 12 62.728 62.756 0.965 1.505 o
-7 0 13 7.290 7.573 0.443 20.095 o
-7 0 14 14.110 13.954 0.315 22.238 o
-7 0 16 0.418 0.276 0.128 274.781 o
-7 1 1 2.615 2.580 0.108 295.555 o
-7 1 2 0.791 0.650 0.118 317.291 o
-7 1 3 14.945 14.662 0.354 18.703 o
-7 1 4 2.084 1.930 0.187 121.645 o
-7 1 5 34.878 33.599 0.286 6.400 o
-7 1 6 4.361 4.146 0.158 131.049 o
-7 1 7 9.915 9.995 0.217 45.690 o
-7 1 8 8.168 8.469 0.148 78.216 o
-7 1 9 16.335 16.504 0.266 21.314 o
-7 1 10 47.178 47.277 0.443 3.301 o
-7 1 11 4.584 4.274 0.266 55.657 o
-7 1 13 52.338 54.248 1.901 0.889 o
-7 1 14 1.425 1.270 0.128 260.218 o
-7 1 17 5.855 5.672 0.364 30.067 o
-7 2 1 2.002 1.546 0.128 248.650 o
-7 2 2 17.488 17.577 0.305 17.749 o
-7 2 3 13.121 13.825 0.197 34.074 o
-7 2 4 8.740 8.951 0.295 35.293 o
-7 2 5 9.353 8.843 0.226 47.257 o
-7 2 6 0.639 0.542 0.108 379.215 o
-7 2 7 1.637 1.566 0.118 294.947 o
-7 2 8 42.333 42.471 0.374 4.165 o
-7 2 9 28.917 28.774 0.374 7.812 o
-7 2 10 25.710 25.928 0.492 7.633 o
-7 2 11 5.719 5.820 0.207 75.138 o
-7 2 12 16.137 15.913 0.236 23.589 o
-7 2 16 5.241 5.436 0.374 29.208 o
-7 2 18 1.064 0.670 0.276 59.137 o
-7 3 1 19.064 18.552 0.236 18.547 o
-7 3 2 23.339 23.417 0.236 13.171 o
-7 3 3 11.324 11.758 0.246 34.823 o
-7 3 4 6.952 6.568 0.276 44.981 o
-7 3 5 117.851 117.635 1.556 0.465 o
-7 3 6 11.094 11.029 0.197 43.759 o
-7 3 7 16.718 16.317 0.207 24.106 o
-7 3 8 17.522 18.257 0.236 20.363 o
-7 3 9 23.183 22.718 0.423 9.863 o
-7 3 10 14.176 14.032 0.266 25.724 o
-7 3 11 20.748 21.644 0.295 14.109 o
-7 3 12 18.620 19.104 0.226 19.077 o
-7 3 14 0.606 0.670 0.138 235.411 o
-7 3 15 1.062 0.965 0.148 202.128 o
-7 3 17 0.319 0.414 0.295 51.787 o
-7 4 1 55.175 55.745 0.492 2.436 o
-7 4 2 55.376 55.962 0.532 2.369 o
-7 4 3 2.186 2.166 0.108 317.738 o
-7 4 4 0.639 0.423 0.128 273.172 o
-7 4 5 12.050 12.102 0.187 40.490 o
-7 4 6 73.224 73.313 0.630 1.403 o
-7 4 7 1.297 0.857 0.158 177.223 o
-7 4 9 3.003 2.482 0.453 21.599 o
-7 4 10 28.963 28.606 0.532 6.273 o
-7 4 13 10.992 11.580 0.207 41.612 o
-7 4 14 1.185 0.807 0.364 33.920 o
-7 4 16 2.390 2.413 0.305 47.009 o
-7 4 17 1.802 1.792 0.325 42.151 o
-7 5 1 15.601 16.376 0.286 21.132 o
-7 5 2 10.507 10.409 0.236 39.802 o
-7 5 3 47.437 46.203 0.512 3.170 o
-7 5 4 41.261 39.901 0.394 4.382 o
-7 5 5 6.171 6.263 0.158 100.333 o
-7 5 6 4.376 4.490 0.167 118.130 o
-7 5 7 2.601 2.472 0.177 129.730 o
-7 5 8 0.750 1.014 0.847 6.303 o
-7 5 11 5.741 5.603 0.286 45.856 o
-7 5 12 5.488 5.308 0.197 83.285 o
-7 5 13 0.758 0.955 0.158 179.612 o
-7 5 14 3.198 3.141 0.354 34.528 o
-7 5 17 3.948 4.402 0.246 65.120 o
-7 6 1 6.271 6.332 0.148 106.010 o
-7 6 2 0.417 0.414 0.108 382.508 o
-7 6 4 105.725 103.061 1.073 0.652 o
-7 6 5 4.204 3.880 0.207 87.656 o
-7 6 6 9.060 9.384 0.896 5.338 o
-7 6 8 21.022 21.113 0.689 6.383 o
-7 6 10 6.940 6.548 0.404 24.132 o
-7 6 11 0.607 0.443 0.118 320.223 o
-7 6 12 11.521 11.964 0.817 6.114 o
-7 6 13 1.062 1.014 0.148 201.969 o
-7 6 14 2.473 2.806 0.443 22.628 o
-7 6 15 4.761 5.150 0.315 40.422 o
-7 6 16 7.958 8.419 0.305 35.379 o
-7 7 1 1.205 1.349 0.118 305.795 o
-7 7 2 1.112 1.063 0.187 126.913 o
-7 7 4 18.028 17.784 0.305 17.209 o
-7 7 5 4.171 4.412 0.374 30.245 o
-7 7 6 12.681 12.732 0.384 19.460 o
-7 7 7 2.323 2.541 0.935 5.150 o
-7 7 9 31.971 32.328 0.611 4.942 o
-7 7 11 0.610 0.532 0.158 180.890 o
-7 7 12 2.631 2.600 0.167 142.948 o
-7 7 13 9.005 9.660 0.404 21.765 o
-7 7 15 0.222 0.335 0.236 80.926 o
-7 8 1 0.543 0.226 0.226 87.999 o
-7 8 3 23.229 23.230 0.354 11.035 o
-7 8 4 0.308 0.384 0.207 105.622 o
-7 8 5 2.038 2.029 0.197 110.401 o
-7 8 8 0.705 0.502 0.158 180.644 o
-7 8 9 2.014 1.881 0.148 189.555 o
-7 8 10 12.338 12.417 0.325 24.301 o
-7 8 11 0.651 0.345 0.187 128.623 o
-7 8 12 3.374 3.102 0.345 36.339 o
-7 8 14 14.425 15.765 0.463 13.677 o
-7 9 1 22.930 21.910 0.345 11.670 o
-7 9 2 26.950 26.223 0.611 6.043 o
-7 9 4 17.333 17.351 0.443 12.751 o
-7 9 5 1.310 1.211 0.394 28.991 o
-7 9 8 2.768 2.304 0.187 117.165 o
-7 9 10 5.553 4.766 0.522 15.752 o
-7 9 11 2.229 1.881 0.335 39.520 o
-7 9 12 0.639 0.748 0.404 27.706 o
-7 10 2 0.350 0.384 0.207 105.597 o
-7 10 3 1.809 1.822 0.384 30.310 o
-7 10 4 9.059 9.296 0.207 52.140 o
-7 10 6 3.148 2.531 0.197 104.341 o
-7 10 7 1.085 0.916 0.177 141.450 o
-7 10 8 14.490 14.367 0.236 27.276 o
-7 10 9 2.754 2.787 0.118 251.409 o
-7 10 12 2.475 2.787 0.246 70.551 o
-7 11 1 3.755 3.447 0.394 27.889 o
-7 11 2 0.286 0.226 0.148 206.949 o
-7 11 3 0.436 0.433 0.187 128.838 o
-7 11 4 8.860 9.010 0.502 15.382 o
-7 11 5 4.047 4.136 0.197 95.136 o
-7 11 6 1.678 1.704 0.414 26.212 o
-7 11 7 12.824 13.018 0.611 9.827 o
-7 11 8 1.207 1.093 0.473 20.179 o
-7 11 10 0.078 0.108 0.098 466.236 o
-7 12 1 5.058 5.229 0.177 100.070 o
-7 12 2 7.050 7.110 0.295 39.815 o
-7 12 3 1.427 1.063 0.187 125.973 o
-7 12 4 4.368 4.254 0.177 109.532 o
-7 12 5 3.135 2.964 0.167 136.998 o
-7 12 6 2.210 1.979 0.394 28.709 o
-7 12 7 2.991 2.767 0.325 41.088 o
-7 13 1 0.238 0.226 0.167 161.228 o
-7 13 2 1.019 0.729 0.148 203.131 o
-7 13 3 1.431 0.995 0.532 15.947 o
-7 13 4 14.808 15.549 0.236 25.811 o
-7 13 5 1.913 2.078 0.364 33.555 o
-7 13 6 2.206 2.413 0.325 41.753 o
-7 13 8 0.268 0.463 0.345 38.057 o
-7 14 3 6.636 6.578 0.374 27.734 o
-7 15 1 4.918 5.111 0.276 50.764 o
-7 15 2 1.808 1.694 0.335 39.763 o
-7 15 3 0.456 0.433 0.305 48.481 o
-7 16 1 2.097 1.841 0.315 44.592 o
-6 -19 11 0.321 0.364 0.315 45.523 o
-6 -19 13 0.694 0.660 0.305 48.408 o
-6 -19 15 0.839 0.542 0.286 55.266 o
-6 -18 10 0.870 1.172 0.335 40.171 o
-6 -18 11 1.415 1.654 0.118 298.737 o
-6 -18 14 0.218 0.167 0.089 574.282 o
-6 -18 15 0.022 0.158 0.108 385.402 o
-6 -18 16 1.967 1.881 0.108 329.855 o
-6 -17 5 0.456 0.414 0.108 382.127 o
-6 -17 8 2.759 2.629 0.158 157.547 o
-6 -17 10 1.868 1.802 0.197 111.449 o
-6 -17 11 0.535 0.384 0.217 96.117 o
-6 -17 12 0.934 0.847 0.138 232.691 o
-6 -17 18 1.873 1.920 0.295 50.733 o
-6 -16 2 0.314 0.414 0.325 42.805 o
-6 -16 3 0.813 0.630 0.345 37.981 o
-6 -16 4 0.575 0.837 0.354 35.924 o
-6 -16 6 0.491 0.473 0.167 160.684 o
-6 -16 7 1.361 1.192 0.197 113.973 o
-6 -16 8 5.090 5.170 0.236 64.946 o
-6 -16 9 0.888 0.709 0.256 68.620 o
-6 -16 10 0.282 0.433 0.128 275.020 o
-6 -16 12 1.004 0.867 0.128 268.087 o
-6 -16 13 0.285 0.423 0.187 128.992 o
-6 -16 14 0.325 0.266 0.148 206.838 o
-6 -16 16 0.203 0.148 0.138 237.750 o
-6 -16 17 1.197 1.231 0.345 37.831 o
-6 -16 18 2.770 2.905 0.325 41.202 o
-6 -15 2 3.255 3.417 0.138 182.569 o
-6 -15 4 0.312 0.286 0.187 129.027 o
-6 -15 5 0.894 1.172 0.354 35.844 o
-6 -15 6 0.282 0.217 0.108 384.313 o
-6 -15 7 1.689 1.723 0.128 252.522 o
-6 -15 8 0.211 0.197 0.118 323.390 o
-6 -15 9 2.048 1.881 0.246 72.141 o
-6 -15 13 0.601 0.266 0.138 236.408 o
-6 -15 14 2.387 2.265 0.335 39.332 o
-6 -15 15 2.382 2.176 0.384 30.091 o
-6 -15 17 2.298 2.472 0.364 33.337 o
-6 -14 1 0.097 0.276 0.118 323.613 o
-6 -14 2 0.259 0.374 0.236 80.910 o
-6 -14 3 0.923 0.837 0.187 127.669 o
-6 -14 4 3.130 3.062 0.325 40.863 o
-6 -14 5 1.735 1.625 0.148 193.806 o
-6 -14 6 0.226 0.118 0.118 323.469 o
-6 -14 7 3.318 3.131 0.108 261.196 o
-6 -14 8 1.360 1.132 0.098 428.073 o
-6 -14 9 3.638 3.279 0.158 144.294 o
-6 -14 10 2.427 2.491 0.207 98.495 o
-6 -14 11 11.297 11.669 0.187 43.613 o
-6 -14 12 5.728 5.495 0.158 108.622 o
-6 -14 13 0.169 0.197 0.167 161.299 o
-6 -14 14 2.218 1.989 0.276 57.661 o
-6 -14 15 3.439 3.200 0.207 92.861 o
-6 -14 16 1.171 0.945 0.158 177.674 o
-6 -14 17 0.506 0.394 0.384 30.642 o
-6 -14 19 1.029 0.975 0.335 40.156 o
-6 -13 1 0.948 0.965 0.118 313.168 o
-6 -13 4 2.217 2.137 0.128 239.132 o
-6 -13 6 3.200 3.131 0.118 234.580 o
-6 -13 7 4.836 5.071 0.177 102.471 o
-6 -13 8 1.455 1.300 0.158 174.892 o
-6 -13 9 2.967 2.885 0.167 138.843 o
-6 -13 10 0.877 0.581 0.414 26.392 o
-6 -13 11 12.227 13.461 0.512 13.059 o
-6 -13 12 2.912 2.639 0.148 173.890 o
-6 -13 13 1.676 1.408 0.167 154.105 o
-6 -13 14 8.092 7.957 0.167 72.799 o
-6 -13 15 0.080 0.226 0.167 161.345 o
-6 -13 17 0.855 1.054 0.473 20.204 o
-6 -13 19 1.866 2.058 0.207 101.127 o
-6 -13 21 0.645 0.916 0.384 30.607 o
-6 -12 1 3.495 3.525 0.138 177.527 o
-6 -12 2 0.453 0.236 0.118 322.148 o
-6 -12 4 0.063 0.197 0.167 161.360 o
-6 -12 5 3.426 3.200 0.207 92.915 o
-6 -12 7 6.941 6.952 0.246 52.589 o
-6 -12 8 0.864 0.551 0.148 204.452 o
-6 -12 9 7.452 7.248 0.207 63.273 o
-6 -12 10 44.640 45.218 0.551 3.319 o
-6 -12 11 25.452 26.676 0.384 9.051 o
-6 -12 12 4.760 4.589 0.561 13.844 o
-6 -12 13 4.256 4.500 0.414 24.994 o
-6 -12 14 7.555 7.641 0.177 73.290 o
-6 -12 16 4.469 4.618 0.177 107.244 o
-6 -12 21 1.558 1.526 0.335 39.900 o
-6 -11 3 13.073 12.861 0.374 19.745 o
-6 -11 4 5.282 4.737 0.345 34.138 o
-6 -11 5 6.438 6.489 0.187 79.416 o
-6 -11 6 1.133 1.142 0.197 114.600 o
-6 -11 9 1.786 1.861 0.246 72.561 o
-6 -11 10 8.680 9.276 0.453 18.333 o
-6 -11 11 1.685 1.546 0.148 194.682 o
-6 -11 12 1.132 1.014 0.197 114.748 o
-6 -11 13 0.504 0.561 0.236 80.769 o
-6 -11 14 0.879 0.748 0.404 27.685 o
-6 -11 16 0.969 1.014 0.167 158.508 o
-6 -11 17 0.751 0.679 0.148 204.692 o
-6 -11 18 1.728 1.270 0.315 44.958 o
-6 -11 20 0.519 0.551 0.177 143.286 o
-6 -10 1 0.582 0.423 0.128 273.531 o
-6 -10 2 0.876 0.906 0.128 269.201 o
-6 -10 3 33.564 33.422 0.364 6.243 o
-6 -10 4 0.694 0.423 0.197 116.034 o
-6 -10 5 1.015 0.916 0.207 104.526 o
-6 -10 6 1.458 1.388 0.128 258.869 o
-6 -10 7 0.914 0.798 0.118 314.816 o
-6 -10 8 2.270 2.422 0.128 235.258 o
-6 -10 9 10.941 11.009 0.167 49.521 o
-6 -10 10 0.128 0.167 0.128 275.818 o
-6 -10 11 1.548 1.654 0.118 295.930 o
-6 -10 12 18.408 18.444 0.246 18.900 o
-6 -10 13 0.636 0.473 0.158 180.902 o
-6 -10 14 1.636 1.418 0.394 28.912 o
-6 -10 15 4.542 5.042 0.414 24.752 o
-6 -10 16 16.634 18.070 0.542 10.105 o
-6 -10 17 2.115 1.999 0.197 110.161 o
-6 -10 18 2.570 2.422 0.187 117.929 o
-6 -10 19 12.601 13.924 0.689 8.009 o
-6 -10 21 0.030 0.236 0.118 323.791 o
-6 -9 1 0.602 0.443 0.128 273.349 o
-6 -9 2 109.762 109.826 1.044 0.608 o
-6 -9 3 19.544 19.655 0.443 11.355 o
-6 -9 4 1.197 1.221 0.118 307.096 o
-6 -9 5 0.678 0.492 0.118 319.342 o
-6 -9 6 12.531 12.358 0.226 33.945 o
-6 -9 7 0.620 0.423 0.128 273.294 o
-6 -9 10 0.810 0.650 0.118 317.063 o
-6 -9 11 4.584 4.471 0.167 116.239 o
-6 -9 12 1.624 1.576 0.246 72.989 o
-6 -9 13 0.517 0.394 0.138 236.493 o
-6 -9 14 7.379 7.326 0.384 25.694 o
-6 -9 15 4.375 4.559 0.679 9.582 o
-6 -9 16 1.742 1.704 0.295 50.907 o
-6 -9 17 0.303 0.236 0.148 206.909 o
-6 -9 18 0.288 0.246 0.177 143.779 o
-6 -9 19 0.227 0.217 0.128 275.552 o
-6 -8 1 20.231 20.049 0.266 15.871 o
-6 -8 2 19.935 19.123 0.512 9.708 o
-6 -8 3 3.471 3.486 0.138 178.283 o
-6 -8 4 19.193 19.271 0.335 14.750 o
-6 -8 5 4.310 4.323 0.128 172.690 o
-6 -8 6 4.705 4.451 0.128 163.696 o
-6 -8 7 4.072 3.988 0.187 103.693 o
-6 -8 8 5.857 5.820 0.187 85.340 o
-6 -8 9 15.639 15.431 0.236 24.644 o
-6 -8 10 5.749 5.780 0.138 123.992 o
-6 -8 11 10.491 10.546 0.158 54.496 o
-6 -8 12 1.610 1.576 0.158 172.831 o
-6 -8 13 7.065 6.952 0.256 49.398 o
-6 -8 14 2.034 1.881 0.187 121.987 o
-6 -8 15 24.321 24.815 0.807 4.673 o
-6 -8 16 5.208 5.534 0.404 25.425 o
-6 -8 17 2.497 2.738 0.158 159.695 o
-6 -8 18 25.638 27.129 0.433 8.261 o
-6 -8 19 4.407 4.185 0.158 130.298 o
-6 -8 20 1.145 1.152 0.384 30.523 o
-6 -8 21 0.406 0.591 0.118 321.265 o
-6 -8 22 0.521 0.512 0.128 273.634 o
-6 -7 1 30.822 31.147 0.305 7.575 o
-6 -7 2 76.197 76.710 0.729 1.255 o
-6 -7 3 0.215 0.217 0.108 384.678 o
-6 -7 5 63.649 64.184 0.542 1.854 o
-6 -7 6 8.961 9.237 0.167 63.533 o
-6 -7 7 9.558 9.414 0.187 54.730 o
-6 -7 8 26.251 26.371 0.256 10.528 o
-6 -7 9 7.479 7.573 0.167 78.342 o
-6 -7 10 0.776 0.630 0.128 271.379 o
-6 -7 11 10.015 9.719 0.158 59.035 o
-6 -7 12 35.623 36.346 0.364 5.582 o
-6 -7 13 18.366 18.434 0.236 19.333 o
-6 -7 16 18.649 20.039 0.532 9.519 o
-6 -7 17 0.435 0.729 0.158 181.110 o
-6 -7 18 0.197 0.295 0.187 129.103 o
-6 -7 21 0.366 0.512 0.423 25.213 o
-6 -7 22 1.869 1.822 0.364 33.613 o
-6 -6 1 5.731 5.465 0.138 126.425 o
-6 -6 2 24.917 24.845 0.286 11.088 o
-6 -6 3 0.066 0.118 0.118 323.826 o
-6 -6 5 9.986 9.906 0.148 61.069 o
-6 -6 6 16.044 16.100 0.187 26.465 o
-6 -6 7 50.672 51.727 0.453 2.869 o
-6 -6 8 8.680 8.400 0.217 52.735 o
-6 -6 9 0.785 0.433 0.098 455.399 o
-6 -6 10 31.398 31.728 0.305 7.341 o
-6 -6 11 30.085 31.048 0.305 7.796 o
-6 -6 12 0.527 0.325 0.187 128.796 o
-6 -6 15 0.505 0.463 0.158 181.272 o
-6 -6 16 1.781 1.477 0.404 27.497 o
-6 -6 17 1.039 1.103 0.236 80.129 o
-6 -6 18 3.931 3.831 0.561 14.001 o
-6 -6 22 0.711 0.601 0.354 35.922 o
-6 -5 1 7.408 7.740 0.167 78.257 o
-6 -5 2 122.885 125.887 1.132 0.483 o
-6 -5 3 20.139 20.423 0.246 16.373 o
-6 -5 4 77.948 81.348 1.034 1.037 o
-6 -5 5 4.031 3.929 0.138 164.952 o
-6 -5 6 44.331 46.243 0.492 3.459 o
-6 -5 7 1.630 1.526 0.158 172.864 o
-6 -5 8 29.839 30.290 0.335 7.721 o
-6 -5 9 1.322 0.975 0.118 307.053 o
-6 -5 10 29.558 29.857 0.295 8.215 o
-6 -5 11 53.196 53.687 0.689 2.290 o
-6 -5 12 9.348 9.079 0.226 46.895 o
-6 -5 13 3.955 3.752 0.207 89.173 o
-6 -5 14 11.178 11.167 0.256 34.443 o
-6 -5 15 2.854 2.629 0.158 156.549 o
-6 -5 16 7.268 7.651 0.404 23.580 o
-6 -5 17 4.189 3.762 0.286 50.157 o
-6 -5 18 4.851 4.924 0.148 131.721 o
-6 -5 19 4.033 4.077 0.551 14.463 o
-6 -5 20 1.757 2.058 0.345 37.502 o
-6 -5 21 0.214 0.404 0.108 384.153 o
-6 -5 22 4.144 3.909 0.276 53.380 o
-6 -4 1 23.699 23.811 0.305 11.599 o
-6 -4 2 42.352 45.553 0.689 3.081 o
-6 -4 3 4.242 4.165 0.354 33.494 o
-6 -4 4 15.595 15.037 0.384 16.595 o
-6 -4 5 11.701 12.033 0.246 33.731 o
-6 -4 6 24.776 25.465 0.364 9.788 o
-6 -4 7 4.755 4.914 0.128 158.355 o
-6 -4 9 11.050 10.901 0.197 44.117 o
-6 -4 10 110.742 110.486 1.054 0.598 o
-6 -4 12 1.197 1.132 0.177 140.703 o
-6 -4 13 4.906 4.904 0.158 120.618 o
-6 -4 14 5.101 5.278 0.256 56.839 o
-6 -4 15 24.771 25.672 0.561 7.000 o
-6 -4 18 0.811 0.689 0.138 234.126 o
-6 -4 20 2.312 2.501 0.325 41.659 o
-6 -4 22 0.927 0.965 0.236 80.309 o
-6 -3 1 27.336 28.291 0.423 7.770 o
-6 -3 3 33.269 32.279 0.453 5.824 o
-6 -3 4 54.725 57.783 0.935 1.801 o
-6 -3 5 3.319 2.767 0.197 102.878 o
-6 -3 6 7.103 6.588 0.236 55.730 o
-6 -3 7 5.083 4.973 0.236 65.297 o
-6 -3 8 1.477 1.516 0.098 416.235 o
-6 -3 9 52.042 51.993 0.512 2.680 o
-6 -3 10 51.306 52.466 1.004 1.872 o
-6 -3 11 1.466 1.497 0.187 125.102 o
-6 -3 12 2.103 1.960 0.226 84.508 o
-6 -3 13 1.951 1.901 0.138 215.620 o
-6 -3 14 0.166 0.167 0.148 207.165 o
-6 -3 15 17.006 17.124 0.246 21.171 o
-6 -3 16 3.669 3.427 0.138 175.398 o
-6 -3 17 7.631 7.336 0.679 9.201 o
-6 -3 18 0.232 0.197 0.197 116.531 o
-6 -2 1 16.218 16.130 0.384 15.841 o
-6 -2 2 83.549 83.790 0.867 1.020 o
-6 -2 3 0.575 0.325 0.276 59.394 o
-6 -2 4 38.706 37.065 0.571 4.138 o
-6 -2 5 9.598 9.887 0.335 27.989 o
-6 -2 6 72.024 73.687 0.758 1.350 o
-6 -2 7 42.243 41.388 0.512 3.803 o
-6 -2 8 19.855 20.029 0.295 15.274 o
-6 -2 9 5.940 5.987 0.148 111.672 o
-6 -2 10 10.718 10.320 0.512 14.080 o
-6 -2 11 1.312 1.182 0.187 126.152 o
-6 -2 12 22.422 23.230 0.611 7.024 o
-6 -2 16 9.100 9.178 0.187 57.344 o
-6 -2 17 3.271 3.230 0.394 28.139 o
-6 -2 19 0.776 0.689 0.345 37.982 o
-6 -2 20 2.214 2.373 0.295 50.267 o
-6 -1 1 122.595 124.311 1.329 0.464 o
-6 -1 2 121.944 126.950 1.398 0.452 o
-6 -1 3 96.250 98.472 1.822 0.547 o
-6 -1 4 39.077 40.157 0.601 3.833 o
-6 -1 5 44.931 45.337 0.965 2.260 o
-6 -1 6 63.721 65.474 0.699 1.696 o
-6 -1 7 8.228 7.484 0.246 48.042 o
-6 -1 8 24.167 23.574 0.246 12.453 o
-6 -1 9 0.651 0.689 0.148 205.121 o
-6 -1 10 38.200 36.819 0.551 4.290 o
-6 -1 11 9.431 9.601 0.167 59.957 o
-6 -1 12 0.121 0.128 0.128 275.860 o
-6 -1 14 12.769 12.989 0.217 33.804 o
-6 -1 15 4.609 4.776 0.177 105.483 o
-6 -1 16 5.191 5.426 0.187 91.134 o
-6 -1 17 0.754 0.670 0.128 271.396 o
-6 -1 20 5.204 5.790 0.315 39.449 o
-6 0 1 109.110 108.773 1.507 0.530 o
-6 0 2 53.923 52.210 0.847 2.041 o
-6 0 3 147.414 150.357 1.497 0.327 o
-6 0 4 120.411 117.231 1.103 0.519 o
-6 0 5 86.061 87.286 0.847 0.972 o
-6 0 6 135.666 133.479 1.192 0.411 o
-6 0 7 21.613 20.896 0.207 15.960 o
-6 0 9 0.204 0.315 0.118 323.203 o
-6 0 10 3.588 3.309 0.128 198.189 o
-6 0 11 2.036 1.822 0.138 214.977 o
-6 0 12 1.097 1.152 0.138 230.045 o
-6 0 13 23.708 23.850 0.374 10.344 o
-6 0 16 0.880 0.807 0.158 179.411 o
-6 1 1 51.329 52.141 0.699 2.392 o
-6 1 2 134.466 132.603 1.300 0.407 o
-6 1 3 104.681 103.819 1.054 0.660 o
-6 1 4 4.415 4.421 0.236 68.393 o
-6 1 5 23.555 22.225 0.325 11.689 o
-6 1 6 27.377 26.499 0.295 9.549 o
-6 1 7 3.175 3.328 0.089 339.155 o
-6 1 8 73.813 73.254 0.640 1.385 o
-6 1 9 22.225 23.003 0.315 12.372 o
-6 1 12 18.008 17.823 0.256 19.231 o
-6 1 13 23.423 24.027 0.345 10.958 o
-6 1 14 0.323 0.236 0.128 275.229 o
-6 1 15 7.110 6.873 0.177 78.717 o
-6 1 16 2.763 2.590 0.236 75.750 o
-6 2 1 13.765 13.776 0.364 19.445 o
-6 2 2 1.232 0.995 0.217 94.954 o
-6 2 3 53.709 52.880 0.561 2.487 o
-6 2 4 10.857 10.743 0.187 46.794 o
-6 2 5 7.886 8.331 0.187 65.545 o
-6 2 6 2.168 2.157 0.108 318.526 o
-6 2 7 0.170 0.177 0.108 384.966 o
-6 2 8 0.673 0.640 0.138 235.122 o
-6 2 9 3.323 2.787 0.236 74.071 o
-6 2 10 79.659 81.318 1.388 0.851 o
-6 2 11 0.602 0.473 0.167 160.452 o
-6 2 12 20.107 21.014 0.640 7.190 o
-6 2 13 6.265 6.627 0.394 25.607 o
-6 2 14 0.476 0.551 0.128 273.784 o
-6 2 15 1.207 1.241 0.158 176.640 o
-6 3 1 9.851 9.079 0.354 25.971 o
-6 3 2 11.275 10.458 0.394 20.661 o
-6 3 3 21.018 20.462 0.364 12.517 o
-6 3 4 38.386 37.508 0.640 3.853 o
-6 3 5 20.232 20.689 0.266 15.621 o
-6 3 6 11.340 11.758 0.148 49.582 o
-6 3 7 6.243 6.824 0.138 110.783 o
-6 3 8 63.708 65.642 0.847 1.560 o
-6 3 9 23.444 22.747 0.394 10.305 o
-6 3 10 4.466 4.392 0.286 49.194 o
-6 3 11 66.526 67.729 1.782 0.817 o
-6 3 12 11.675 12.388 0.453 16.157 o
-6 3 15 9.466 9.700 0.374 24.059 o
-6 3 16 0.248 0.315 0.138 237.494 o
-6 3 17 3.579 3.230 0.394 28.012 o
-6 4 1 19.089 18.690 0.315 15.674 o
-6 4 2 4.278 4.480 0.128 171.757 o
-6 4 3 6.091 5.751 0.158 103.630 o
-6 4 4 2.173 2.157 0.128 239.788 o
-6 4 5 0.507 0.335 0.108 382.019 o
-6 4 6 41.589 42.491 0.611 3.487 o
-6 4 7 57.465 57.675 0.827 1.863 o
-6 4 8 8.894 8.567 0.354 27.194 o
-6 4 9 32.856 33.077 0.502 5.493 o
-6 4 10 12.505 11.826 0.335 23.617 o
-6 4 11 1.569 1.379 0.315 45.009 o
-6 4 12 2.660 2.363 0.128 227.936 o
-6 4 13 4.494 4.500 0.187 99.075 o
-6 4 14 5.502 5.761 0.167 101.699 o
-6 4 15 2.145 2.019 0.148 187.306 o
-6 4 16 3.723 3.624 0.433 23.206 o
-6 4 17 0.970 1.014 0.345 37.913 o
-6 5 1 23.251 24.362 0.305 11.685 o
-6 5 3 144.307 145.946 1.526 0.338 o
-6 5 4 1.014 1.054 0.187 127.187 o
-6 5 5 41.830 42.136 0.463 3.966 o
-6 5 6 4.102 4.461 0.197 93.885 o
-6 5 7 62.608 62.924 0.935 1.535 o
-6 5 8 11.657 11.698 0.315 26.444 o
-6 5 9 4.018 4.146 0.305 44.398 o
-6 5 10 42.484 43.308 2.058 0.870 o
-6 5 11 2.809 2.452 0.158 157.949 o
-6 5 12 1.528 1.408 0.187 125.039 o
-6 5 13 0.506 0.512 0.118 320.786 o
-6 5 17 2.511 2.610 0.305 46.823 o
-6 6 1 0.425 0.276 0.098 462.889 o
-6 6 2 1.374 1.467 0.108 354.111 o
-6 6 4 89.812 88.714 1.162 0.813 o
-6 6 5 15.170 14.771 0.374 17.455 o
-6 6 8 37.310 36.612 1.408 1.671 o
-6 6 9 0.718 0.660 0.315 45.432 o
-6 6 10 0.727 0.620 0.197 115.856 o
-6 6 11 10.020 9.680 0.325 28.755 o
-6 6 12 3.774 3.850 0.266 57.770 o
-6 6 14 4.209 4.244 0.236 69.332 o
-6 6 15 0.838 0.807 0.108 373.982 o
-6 6 16 0.003 0.551 0.335 40.342 o
-6 7 1 29.307 28.390 0.384 7.660 o
-6 7 2 67.076 64.558 0.670 1.639 o
-6 7 3 12.671 12.526 0.256 30.261 o
-6 7 4 5.227 5.396 0.226 68.531 o
-6 7 5 2.473 2.403 0.138 204.045 o
-6 7 7 0.903 0.601 0.295 51.625 o
-6 7 8 1.348 1.329 0.315 45.119 o
-6 7 9 7.616 7.395 0.335 31.839 o
-6 7 10 3.006 2.678 0.207 95.857 o
-6 7 11 1.593 1.428 0.167 154.524 o
-6 7 12 0.572 0.551 0.148 205.715 o
-6 7 13 5.688 5.770 0.374 28.766 o
-6 7 14 1.764 1.871 0.295 50.832 o
-6 7 15 3.003 3.269 0.286 52.237 o
-6 8 1 4.089 4.116 0.197 94.954 o
-6 8 2 69.539 68.852 1.113 1.200 o
-6 8 3 31.009 31.344 0.335 7.269 o
-6 8 4 5.924 5.898 0.266 50.751 o
-6 8 5 1.366 0.945 0.158 176.573 o
-6 8 6 20.774 21.053 0.384 12.002 o
-6 8 8 3.369 3.309 0.158 147.175 o
-6 8 9 7.262 7.031 0.236 54.463 o
-6 8 10 10.657 11.206 0.187 46.676 o
-6 8 11 5.258 5.189 0.197 84.979 o
-6 8 12 2.522 2.767 0.345 36.965 o
-6 8 13 0.418 0.384 0.305 48.491 o
-6 8 14 13.433 14.357 0.384 18.316 o
-6 9 2 24.130 24.057 0.354 10.476 o
-6 9 3 3.542 3.220 0.256 63.024 o
-6 9 4 9.628 9.591 0.207 49.450 o
-6 9 5 4.944 4.668 0.158 121.509 o
-6 9 6 2.784 2.610 0.384 29.873 o
-6 9 7 31.607 32.663 0.689 4.464 o
-6 9 8 1.601 1.585 0.148 195.295 o
-6 9 9 1.535 1.192 0.187 125.397 o
-6 9 10 0.569 0.364 0.167 160.638 o
-6 9 11 11.605 12.230 0.384 20.466 o
-6 9 12 0.158 0.207 0.108 384.958 o
-6 10 1 20.858 20.275 0.325 13.685 o
-6 10 2 2.434 2.068 0.404 27.276 o
-6 10 3 0.845 0.965 0.158 179.222 o
-6 10 4 0.645 0.453 0.167 160.377 o
-6 10 6 2.994 2.659 0.443 22.532 o
-6 10 7 5.993 5.446 0.197 79.951 o
-6 10 8 6.445 6.883 0.620 11.092 o
-6 10 9 4.213 4.106 0.158 132.966 o
-6 10 10 1.309 1.536 0.158 175.078 o
-6 11 1 2.254 2.245 0.364 33.399 o
-6 11 2 7.893 8.016 0.354 28.477 o
-6 11 3 5.293 4.904 0.414 24.436 o
-6 11 5 0.705 0.502 0.158 180.643 o
-6 11 6 0.276 0.374 0.187 129.020 o
-6 11 7 1.630 1.507 0.414 26.238 o
-6 11 8 4.614 4.274 0.522 15.979 o
-6 11 9 2.738 2.747 0.345 36.848 o
-6 11 10 1.152 1.054 0.305 48.195 o
-6 11 11 0.292 0.256 0.246 74.578 o
-6 12 2 9.278 9.601 0.414 20.800 o
-6 12 4 1.650 1.428 0.148 195.579 o
-6 12 5 0.507 0.453 0.177 143.386 o
-6 12 6 9.553 9.729 0.443 18.459 o
-6 12 7 5.479 5.741 0.522 15.666 o
-6 12 10 1.467 1.585 0.079 611.055 o
-6 13 1 1.485 1.448 0.167 155.074 o
-6 13 2 3.749 3.752 0.148 154.768 o
-6 13 3 4.606 4.284 0.207 84.662 o
-6 13 4 0.128 0.226 0.177 143.898 o
-6 13 5 12.953 13.816 0.473 14.324 o
-6 14 1 2.582 2.275 0.138 203.329 o
-6 14 3 2.644 2.708 0.394 28.465 o
-6 14 4 1.791 1.093 0.374 32.009 o
-6 14 5 4.133 4.116 0.345 35.402 o
-6 17 1 1.774 1.487 0.266 62.667 o
-5 -18 8 4.515 4.303 0.384 28.645 o
-5 -18 11 1.022 1.044 0.128 266.907 o
-5 -18 12 0.865 0.778 0.384 30.590 o
-5 -18 14 0.254 0.256 0.226 88.114 o
-5 -18 16 0.499 0.305 0.108 382.247 o
-5 -18 17 0.391 0.256 0.098 463.420 o
-5 -18 19 0.647 0.532 0.256 68.794 o
-5 -17 1 0.598 0.581 0.276 59.350 o
-5 -17 8 1.936 2.225 0.158 167.515 o
-5 -17 11 1.983 1.950 0.108 328.206 o
-5 -17 12 1.216 1.162 0.354 35.775 o
-5 -17 13 1.490 1.310 0.187 125.348 o
-5 -17 14 0.453 0.955 0.414 26.410 o
-5 -16 3 2.191 2.078 0.148 186.433 o
-5 -16 7 7.880 7.966 0.158 78.296 o
-5 -16 8 1.590 1.310 0.138 224.066 o
-5 -16 9 1.065 0.945 0.207 104.416 o
-5 -16 10 6.849 7.041 0.236 55.821 o
-5 -16 11 1.978 1.635 0.118 286.398 o
-5 -16 12 0.794 0.571 0.167 159.838 o
-5 -16 14 4.168 4.205 0.305 44.173 o
-5 -16 15 1.260 0.975 0.148 200.727 o
-5 -16 21 0.665 0.591 0.256 68.772 o
-5 -15 2 0.535 0.620 0.148 205.725 o
-5 -15 3 2.353 2.029 0.217 91.212 o
-5 -15 5 0.641 0.512 0.148 205.527 o
-5 -15 6 5.343 5.446 0.325 37.433 o
-5 -15 7 2.777 2.383 0.167 142.629 o
-5 -15 8 7.651 7.809 0.167 76.298 o
-5 -15 9 0.292 0.354 0.128 275.129 o
-5 -15 10 3.747 3.821 0.128 189.412 o
-5 -15 11 0.047 0.197 0.177 143.938 o
-5 -15 12 2.337 1.999 0.404 27.311 o
-5 -15 14 0.432 0.364 0.138 236.874 o
-5 -15 16 4.656 4.953 0.423 23.655 o
-5 -15 17 2.865 2.767 0.374 31.355 o
-5 -15 20 0.435 0.345 0.158 181.568 o
-5 -14 1 2.402 2.225 0.158 163.190 o
-5 -14 2 0.670 0.709 0.118 318.309 o
-5 -14 3 3.265 2.629 0.187 113.315 o
-5 -14 4 1.412 1.063 0.276 58.810 o
-5 -14 5 6.309 6.243 0.138 113.567 o
-5 -14 6 6.271 6.145 0.118 131.478 o
-5 -14 7 7.630 7.553 0.158 81.817 o
-5 -14 8 0.376 0.295 0.187 128.969 o
-5 -14 9 0.817 0.729 0.414 26.391 o
-5 -14 10 1.907 1.674 0.177 136.315 o
-5 -14 13 3.130 2.826 0.158 152.513 o
-5 -14 14 0.678 0.423 0.138 235.677 o
-5 -14 15 1.554 1.674 0.443 22.878 o
-5 -14 16 4.900 5.052 0.384 28.198 o
-5 -14 17 6.924 7.474 0.335 32.609 o
-5 -14 21 2.380 2.235 0.177 131.935 o
-5 -13 2 0.261 0.217 0.108 384.435 o
-5 -13 3 1.189 1.034 0.128 264.980 o
-5 -13 4 3.086 2.984 0.148 169.250 o
-5 -13 5 5.306 5.022 0.177 98.922 o
-5 -13 6 0.897 0.768 0.148 203.717 o
-5 -13 7 3.441 3.279 0.187 110.183 o
-5 -13 9 0.451 0.542 0.207 105.466 o
-5 -13 11 4.178 3.722 0.246 65.415 o
-5 -13 12 5.326 5.081 0.423 23.340 o
-5 -13 13 1.312 0.975 0.414 26.325 o
-5 -13 14 3.292 3.082 0.177 122.618 o
-5 -13 15 3.707 3.890 0.492 18.099 o
-5 -13 16 6.217 6.686 0.591 12.208 o
-5 -13 17 0.185 0.315 0.158 181.998 o
-5 -13 18 0.966 1.063 0.148 202.429 o
-5 -13 19 1.021 0.935 0.118 312.313 o
-5 -13 22 0.574 0.423 0.345 38.030 o
-5 -12 2 9.023 8.833 0.335 29.298 o
-5 -12 3 5.472 5.278 0.207 77.763 o
-5 -12 4 0.628 0.266 0.158 181.210 o
-5 -12 5 8.217 8.045 0.335 30.734 o
-5 -12 6 3.486 3.407 0.315 42.831 o
-5 -12 7 11.221 11.187 0.197 43.088 o
-5 -12 8 1.284 0.975 0.148 200.548 o
-5 -12 9 24.366 24.618 0.679 5.825 o
-5 -12 10 19.487 19.054 0.551 9.025 o
-5 -12 11 3.797 3.624 0.217 83.299 o
-5 -12 12 10.011 10.103 0.463 16.920 o
-5 -12 13 4.503 4.540 0.226 72.909 o
-5 -12 14 3.492 3.328 0.404 26.727 o
-5 -12 15 2.216 2.206 0.197 109.338 o
-5 -12 16 0.321 0.483 0.167 160.970 o
-5 -12 17 3.107 3.240 0.128 209.227 o
-5 -12 19 0.960 1.073 0.118 312.195 o
-5 -12 21 0.246 0.325 0.128 275.339 o
-5 -12 22 0.799 0.807 0.295 51.625 o
-5 -11 2 4.504 4.431 0.138 152.926 o
-5 -11 3 1.074 1.221 0.207 104.149 o
-5 -11 4 7.353 7.041 0.325 33.936 o
-5 -11 5 2.443 2.393 0.138 204.592 o
-5 -11 6 10.881 10.783 0.217 41.526 o
-5 -11 7 5.924 5.574 0.177 91.970 o
-5 -11 8 0.290 0.167 0.148 206.992 o
-5 -11 9 24.748 25.682 0.414 9.013 o
-5 -11 11 15.464 15.697 0.492 12.236 o
-5 -11 12 14.430 14.141 0.788 6.206 o
-5 -11 13 2.455 2.275 0.345 37.132 o
-5 -11 14 0.893 1.044 0.266 63.561 o
-5 -11 16 2.856 2.649 0.236 75.452 o
-5 -11 17 5.355 5.623 0.197 83.145 o
-5 -11 19 1.328 0.965 0.276 58.900 o
-5 -11 22 1.390 1.408 0.148 197.992 o
-5 -10 3 5.856 5.731 0.187 85.640 o
-5 -10 4 0.830 0.945 0.226 87.495 o
-5 -10 5 20.611 20.275 0.384 12.263 o
-5 -10 7 0.663 0.798 0.118 317.908 o
-5 -10 8 87.455 86.862 0.807 0.970 o
-5 -10 9 122.912 122.696 1.152 0.488 o
-5 -10 10 5.329 5.219 0.138 133.984 o
-5 -10 11 0.075 0.158 0.148 207.250 o
-5 -10 12 28.787 28.399 0.502 6.605 o
-5 -10 13 0.790 0.512 0.167 159.933 o
-5 -10 14 9.154 9.276 0.739 7.666 o
-5 -10 15 1.924 1.792 0.148 191.007 o
-5 -10 18 0.279 0.118 0.128 275.545 o
-5 -10 19 3.771 3.900 0.207 89.698 o
-5 -10 20 0.668 0.630 0.128 272.239 o
-5 -10 21 0.860 0.660 0.423 25.180 o
-5 -10 22 0.916 0.650 0.098 449.719 o
-5 -9 1 5.445 5.406 0.138 130.920 o
-5 -9 2 25.417 24.805 0.256 11.297 o
-5 -9 3 9.868 9.867 0.276 35.528 o
-5 -9 4 0.345 0.207 0.128 275.203 o
-5 -9 5 0.913 0.926 0.118 313.945 o
-5 -9 6 0.626 0.561 0.108 379.260 o
-5 -9 8 24.377 25.002 0.404 9.396 o
-5 -9 9 1.968 1.841 0.138 215.791 o
-5 -9 10 1.918 1.743 0.177 136.071 o
-5 -9 11 1.478 1.201 0.128 259.954 o
-5 -9 12 1.104 0.935 0.138 230.944 o
-5 -9 14 5.539 5.278 0.611 11.645 o
-5 -9 15 0.854 0.748 0.177 142.361 o
-5 -9 16 1.299 1.063 0.394 29.005 o
-5 -9 18 0.224 0.158 0.128 275.634 o
-5 -9 19 3.108 3.220 0.404 26.888 o
-5 -9 20 0.579 0.374 0.226 87.937 o
-5 -8 1 57.610 57.656 0.502 2.260 o
-5 -8 2 12.726 12.250 0.177 39.467 o
-5 -8 4 8.163 8.085 0.187 64.724 o
-5 -8 5 3.504 3.437 0.118 222.273 o
-5 -8 6 0.798 0.916 0.098 449.318 o
-5 -8 7 23.890 24.175 0.276 11.933 o
-5 -8 8 8.468 8.291 0.138 80.407 o
-5 -8 10 45.972 46.479 0.473 3.363 o
-5 -8 11 4.479 4.451 0.108 203.224 o
-5 -8 12 7.151 6.529 0.305 38.142 o
-5 -8 13 3.479 3.338 0.177 120.221 o
-5 -8 14 28.747 28.143 0.473 6.931 o
-5 -8 15 21.379 21.762 0.345 12.480 o
-5 -8 16 10.234 10.251 0.601 10.871 o
-5 -8 17 11.781 13.057 0.295 27.288 o
-5 -8 18 17.215 18.227 0.433 12.923 o
-5 -8 19 0.557 0.433 0.118 320.689 o
-5 -8 22 0.136 0.207 0.138 237.808 o
-5 -7 1 78.294 79.664 0.729 1.191 o
-5 -7 2 9.632 9.581 0.217 47.299 o
-5 -7 3 5.374 5.189 0.118 156.894 o
-5 -7 4 16.424 16.888 0.187 25.159 o
-5 -7 6 0.770 0.689 0.098 452.840 o
-5 -7 8 3.312 3.269 0.108 259.026 o
-5 -7 9 9.038 9.276 0.128 75.166 o
-5 -7 10 0.005 0.108 0.089 575.781 o
-5 -7 11 10.048 9.995 0.187 51.401 o
-5 -7 12 11.381 11.610 0.207 40.419 o
-5 -7 13 12.063 12.536 0.433 16.979 o
-5 -7 14 1.121 1.260 0.167 157.362 o
-5 -7 15 3.264 2.915 0.177 123.453 o
-5 -7 16 1.122 0.709 0.571 13.844 o
-5 -7 17 2.346 2.413 0.148 182.587 o
-5 -7 18 1.157 0.926 0.128 266.022 o
-5 -7 19 0.951 0.867 0.167 158.853 o
-5 -7 20 0.682 0.286 0.197 116.132 o
-5 -7 22 2.404 2.353 0.118 266.605 o
-5 -6 1 5.059 4.766 0.138 141.466 o
-5 -6 2 13.820 14.072 0.177 33.946 o
-5 -6 3 12.567 12.476 0.561 11.369 o
-5 -6 4 26.354 26.519 0.374 8.915 o
-5 -6 5 8.860 9.138 0.236 46.118 o
-5 -6 6 4.869 4.461 0.325 38.527 o
-5 -6 7 43.827 44.972 0.522 3.474 o
-5 -6 8 8.118 7.602 0.197 62.782 o
-5 -6 9 13.907 14.603 0.158 34.760 o
-5 -6 10 0.216 0.148 0.098 465.485 o
-5 -6 11 19.048 19.054 0.226 18.656 o
-5 -6 13 61.994 63.849 0.581 1.883 o
-5 -6 14 1.433 1.516 0.158 174.311 o
-5 -6 15 0.515 0.571 0.177 143.275 o
-5 -6 16 46.504 47.611 0.561 3.072 o
-5 -6 17 25.045 26.105 0.315 10.301 o
-5 -6 18 0.716 0.650 0.148 204.921 o
-5 -6 21 0.545 0.502 0.463 21.100 o
-5 -5 1 25.366 26.755 0.709 5.296 o
-5 -5 2 9.777 9.965 0.335 27.732 o
-5 -5 3 90.628 94.100 1.113 0.797 o
-5 -5 4 33.155 34.091 0.788 3.736 o
-5 -5 6 50.050 52.889 0.561 2.684 o
-5 -5 7 18.318 18.729 0.492 10.723 o
-5 -5 8 20.454 20.581 0.354 13.037 o
-5 -5 9 55.374 57.045 0.571 2.291 o
-5 -5 10 27.307 27.405 0.374 8.475 o
-5 -5 11 62.624 64.844 0.847 1.597 o
-5 -5 12 3.618 3.752 0.138 173.485 o
-5 -5 13 8.243 8.055 0.167 71.487 o
-5 -5 14 38.358 39.103 0.384 4.850 o
-5 -5 19 2.376 2.442 0.384 30.049 o
-5 -5 20 2.453 2.639 0.138 202.477 o
-5 -5 21 0.255 0.335 0.305 48.514 o
-5 -5 22 0.225 0.374 0.256 68.957 o
-5 -4 1 5.587 4.973 0.305 41.706 o
-5 -4 3 10.269 10.143 0.305 30.504 o
-5 -4 4 46.063 47.995 0.502 3.228 o
-5 -4 5 32.764 33.333 0.394 6.220 o
-5 -4 6 64.472 67.788 0.679 1.659 o
-5 -4 7 0.754 0.926 0.148 204.063 o
-5 -4 8 34.413 35.972 0.463 5.278 o
-5 -4 9 48.749 48.389 0.689 2.629 o
-5 -4 10 16.802 16.918 0.364 16.032 o
-5 -4 11 1.712 1.359 0.128 255.149 o
-5 -4 12 0.490 0.354 0.118 321.513 o
-5 -4 13 2.738 2.836 0.138 196.229 o
-5 -4 14 3.472 3.407 0.148 161.029 o
-5 -4 15 1.020 1.113 0.286 55.069 o
-5 -4 16 12.791 13.530 0.473 14.453 o
-5 -4 20 2.534 2.196 0.335 39.267 o
-5 -3 1 0.126 0.207 0.197 116.571 o
-5 -3 2 165.322 177.644 1.644 0.254 o
-5 -3 3 57.880 61.801 0.650 1.995 o
-5 -3 4 84.218 89.127 0.896 0.965 o
-5 -3 5 3.195 3.151 0.167 135.613 o
-5 -3 6 65.293 69.197 0.640 1.647 o
-5 -3 7 0.260 0.276 0.128 275.374 o
-5 -3 8 8.746 8.951 0.246 44.550 o
-5 -3 9 83.188 85.612 0.916 0.993 o
-5 -3 10 50.307 49.492 0.561 2.769 o
-5 -3 11 4.406 4.323 0.167 118.645 o
-5 -3 12 4.562 4.323 0.138 152.864 o
-5 -3 13 10.136 9.818 0.177 53.587 o
-5 -3 14 7.672 8.065 0.187 67.431 o
-5 -3 15 16.986 16.858 0.305 18.507 o
-5 -3 17 11.610 12.299 0.473 15.216 o
-5 -3 18 0.347 0.167 0.158 181.882 o
-5 -3 19 0.886 0.660 0.374 32.222 o
-5 -3 20 8.557 8.833 0.384 24.201 o
-5 -2 1 16.188 17.174 0.217 23.728 o
-5 -2 2 9.971 10.940 0.295 31.610 o
-5 -2 3 72.779 78.443 0.768 1.283 o
-5 -2 4 52.163 55.223 0.719 2.254 o
-5 -2 5 1.861 1.566 0.236 78.673 o
-5 -2 8 238.594 239.258 2.600 0.123 o
-5 -2 9 15.456 15.569 0.177 28.654 o
-5 -2 11 3.294 3.328 0.177 121.671 o
-5 -2 12 26.674 26.834 0.483 7.426 o
-5 -2 13 32.678 33.540 0.345 6.544 o
-5 -2 14 1.720 1.556 0.138 220.988 o
-5 -2 15 0.595 0.364 0.148 205.967 o
-5 -2 16 1.407 1.497 0.158 174.553 o
-5 -2 17 3.312 3.259 0.414 25.587 o
-5 -2 21 0.511 0.404 0.256 68.874 o
-5 -1 1 7.024 5.298 0.148 103.445 o
-5 -1 2 109.795 118.482 1.024 0.585 o
-5 -1 3 0.489 0.640 0.167 160.516 o
-5 -1 4 1.271 1.093 0.226 86.863 o
-5 -1 5 40.377 40.827 0.561 3.833 o
-5 -1 6 5.498 5.111 0.217 72.816 o
-5 -1 7 40.163 41.073 0.414 4.376 o
-5 -1 8 75.693 75.341 0.837 1.219 o
-5 -1 9 35.076 35.263 0.335 5.932 o
-5 -1 10 7.254 7.120 0.167 81.646 o
-5 -1 11 1.016 0.876 0.108 369.885 o
-5 -1 12 0.402 0.384 0.118 322.005 o
-5 -1 13 41.785 42.146 0.404 4.157 o
-5 -1 15 13.223 13.648 0.217 32.075 o
-5 -1 16 2.011 2.206 0.158 166.933 o
-5 -1 17 17.734 18.739 0.542 9.721 o
-5 -1 19 10.870 11.994 0.414 19.032 o
-5 0 1 42.618 40.935 0.463 3.947 o
-5 0 2 22.180 20.660 0.443 10.192 o
-5 0 3 75.216 78.896 0.719 1.258 o
-5 0 4 92.160 91.757 0.906 0.856 o
-5 0 5 6.346 6.046 0.197 76.226 o
-5 0 6 67.408 66.242 0.660 1.615 o
-5 0 7 3.548 3.447 0.128 197.583 o
-5 0 8 19.611 18.257 0.286 16.453 o
-5 0 9 2.489 2.669 0.128 228.325 o
-5 0 10 30.776 31.590 0.325 7.375 o
-5 0 11 7.200 7.120 0.177 77.288 o
-5 0 12 4.221 3.968 0.187 102.752 o
-5 0 13 1.880 1.802 0.187 122.852 o
-5 0 14 11.409 11.452 0.187 43.599 o
-5 0 15 10.140 10.546 0.167 54.077 o
-5 0 16 0.239 0.236 0.128 275.494 o
-5 0 19 0.515 0.384 0.315 45.496 o
-5 1 1 188.163 190.987 1.713 0.208 o
-5 1 2 55.588 54.327 0.571 2.344 o
-5 1 3 139.748 140.550 1.241 0.381 o
-5 1 4 97.294 97.754 0.827 0.795 o
-5 1 6 30.783 29.118 0.295 7.955 o
-5 1 7 24.658 24.480 0.295 11.141 o
-5 1 8 48.670 46.587 0.571 2.940 o
-5 1 9 1.227 1.014 0.128 264.630 o
-5 1 10 1.118 0.906 0.187 127.107 o
-5 1 11 1.583 1.743 0.177 137.776 o
-5 1 12 10.040 10.084 0.207 47.110 o
-5 1 13 9.116 9.187 0.611 10.853 o
-5 1 14 8.699 9.384 0.414 21.231 o
-5 1 17 0.639 0.660 0.374 32.251 o
-5 1 19 3.841 4.116 0.305 44.635 o
-5 2 1 303.800 299.336 2.777 0.081 o
-5 2 2 15.130 11.748 0.374 18.590 o
-5 2 3 341.781 336.815 2.866 0.065 o
-5 2 4 112.460 109.531 0.935 0.609 o
-5 2 5 65.952 63.721 0.591 1.747 o
-5 2 6 2.314 2.767 0.138 203.680 o
-5 2 7 0.566 0.601 0.148 205.646 o
-5 2 8 14.877 14.210 0.236 26.768 o
-5 2 9 8.029 7.632 0.305 35.887 o
-5 2 10 3.854 3.584 0.276 54.176 o
-5 2 11 22.134 23.308 0.670 6.320 o
-5 2 12 1.311 1.231 0.158 176.038 o
-5 2 14 2.628 2.787 0.197 106.237 o
-5 2 16 13.555 13.491 0.217 31.539 o
-5 2 19 0.872 1.192 0.256 68.472 o
-5 3 1 235.909 229.706 2.097 0.136 o
-5 3 2 0.744 0.423 0.118 319.027 o
-5 3 3 0.211 0.394 0.128 275.341 o
-5 3 4 70.638 67.729 0.620 1.538 o
-5 3 5 1.428 1.231 0.148 198.412 o
-5 3 6 60.297 59.428 0.660 1.940 o
-5 3 7 68.849 70.477 0.876 1.369 o
-5 3 9 0.415 0.414 0.226 88.017 o
-5 3 10 6.736 6.489 0.315 36.887 o
-5 3 11 51.758 52.230 1.034 1.817 o
-5 3 12 0.439 0.512 0.167 160.746 o
-5 3 13 8.936 8.941 0.197 55.932 o
-5 3 14 4.863 4.707 0.177 103.715 o
-5 3 15 1.136 0.689 0.217 95.327 o
-5 4 1 78.276 76.336 0.748 1.211 o
-5 4 2 1.462 1.251 0.128 259.828 o
-5 4 3 2.282 2.866 0.138 203.409 o
-5 4 4 1.108 1.063 0.148 201.489 o
-5 4 5 0.482 0.522 0.158 181.257 o
-5 4 6 0.985 0.758 0.098 446.379 o
-5 4 7 10.393 9.975 0.266 35.877 o
-5 4 8 51.495 52.269 0.660 2.450 o
-5 4 9 20.580 20.492 0.384 12.226 o
-5 4 10 11.974 12.260 0.335 23.954 o
-5 4 11 14.862 13.461 0.345 19.844 o
-5 4 16 0.867 0.739 0.128 270.094 o
-5 4 17 3.718 3.742 0.374 30.698 o
-5 5 1 1.192 0.906 0.187 126.910 o
-5 5 2 89.904 88.665 1.132 0.822 o
-5 5 3 16.837 18.434 0.345 16.288 o
-5 5 4 6.574 7.129 0.148 98.583 o
-5 5 5 0.431 0.453 0.118 321.578 o
-5 5 6 53.763 55.381 1.103 1.633 o
-5 5 7 66.332 65.149 0.768 1.570 o
-5 5 8 12.248 12.447 0.630 9.481 o
-5 5 9 47.520 48.695 1.329 1.520 o
-5 5 10 34.676 34.337 1.201 2.182 o
-5 5 12 0.622 0.443 0.167 160.442 o
-5 5 13 10.713 10.960 0.325 27.087 o
-5 5 14 0.596 0.423 0.364 34.032 o
-5 5 15 5.032 4.894 0.364 31.012 o
-5 5 17 2.938 2.974 0.315 43.541 o
-5 6 1 2.364 2.048 0.197 109.051 o
-5 6 2 8.855 8.823 0.286 36.847 o
-5 6 3 6.960 6.923 0.167 84.628 o
-5 6 4 28.118 29.148 0.414 7.567 o
-5 6 5 70.459 69.600 0.679 1.480 o
-5 6 7 61.281 59.546 0.660 1.903 o
-5 6 8 3.131 3.122 0.276 55.718 o
-5 6 9 2.324 1.802 0.876 5.870 o
-5 6 11 9.942 9.670 0.187 52.519 o
-5 6 12 2.920 2.934 0.177 125.906 o
-5 6 13 1.674 1.388 0.394 28.907 o
-5 6 14 7.628 7.661 0.512 15.440 o
-5 6 15 0.574 0.364 0.295 51.746 o
-5 7 1 92.734 92.259 0.867 0.859 o
-5 7 2 34.349 34.514 0.325 6.204 o
-5 7 3 41.237 41.575 0.404 4.253 o
-5 7 4 2.018 1.507 0.118 286.971 o
-5 7 5 85.193 86.685 1.211 0.848 o
-5 7 6 0.528 0.601 0.158 181.027 o
-5 7 7 1.530 1.349 0.167 155.096 o
-5 7 8 51.172 51.915 1.290 1.480 o
-5 7 10 0.854 0.719 0.148 204.079 o
-5 7 12 1.699 1.477 0.158 172.533 o
-5 7 15 3.342 3.486 0.295 48.464 o
-5 8 1 15.120 14.968 0.236 25.778 o
-5 8 2 53.046 53.175 0.502 2.604 o
-5 8 3 41.722 40.433 0.542 3.796 o
-5 8 4 3.275 2.728 0.138 188.122 o
-5 8 5 4.198 4.018 0.315 41.757 o
-5 8 6 29.936 29.187 0.404 7.211 o
-5 8 7 3.677 3.112 0.384 29.389 o
-5 8 9 5.206 5.268 0.374 29.291 o
-5 8 10 6.445 6.470 0.374 27.927 o
-5 8 11 1.603 1.310 0.414 26.259 o
-5 8 12 4.001 4.146 0.364 31.990 o
-5 9 1 20.926 20.669 0.236 15.891 o
-5 9 2 8.500 8.941 0.197 57.862 o
-5 9 3 1.278 1.132 0.138 228.411 o
-5 9 4 2.458 2.147 0.148 182.836 o
-5 9 5 2.282 2.304 0.207 99.353 o
-5 9 6 3.511 3.506 0.955 4.922 o
-5 9 8 1.168 1.132 0.246 73.772 o
-5 9 9 1.242 0.867 0.217 95.040 o
-5 9 11 7.264 7.415 0.374 26.890 o
-5 9 12 1.089 1.162 0.148 201.283 o
-5 9 13 1.603 1.516 0.384 30.397 o
-5 9 14 1.141 1.369 0.217 94.795 o
-5 10 1 56.384 56.966 0.679 2.106 o
-5 10 3 5.369 5.406 0.167 104.510 o
-5 10 4 10.522 10.320 0.443 17.812 o
-5 10 5 3.903 3.653 0.374 30.621 o
-5 10 6 0.506 0.502 0.138 236.308 o
-5 10 7 15.438 15.933 0.709 7.169 o
-5 10 8 4.413 4.362 0.354 33.294 o
-5 10 9 9.894 10.330 0.374 23.422 o
-5 10 10 0.397 0.335 0.108 383.044 o
-5 10 13 0.569 0.473 0.305 48.457 o
-5 11 1 5.978 5.800 0.217 69.175 o
-5 11 2 4.658 4.274 0.246 63.336 o
-5 11 3 4.539 4.451 0.384 28.590 o
-5 11 4 9.791 8.931 0.443 18.541 o
-5 11 5 17.667 17.764 0.266 19.190 o
-5 11 6 8.011 7.858 0.207 59.407 o
-5 11 7 1.361 1.132 0.148 199.358 o
-5 11 10 0.305 0.197 0.118 323.028 o
-5 11 11 0.141 0.276 0.148 207.130 o
-5 12 2 1.305 1.172 0.167 156.715 o
-5 12 3 0.186 0.226 0.177 143.864 o
-5 12 4 5.368 4.904 0.167 106.831 o
-5 12 5 6.124 6.086 0.433 21.808 o
-5 12 6 0.785 0.502 0.167 159.960 o
-5 12 7 6.373 6.509 0.394 25.575 o
-5 13 1 5.900 6.007 0.148 112.024 o
-5 13 2 1.382 1.162 0.138 227.191 o
-5 13 4 0.637 0.423 0.158 180.969 o
-5 13 6 2.103 2.078 0.354 35.340 o
-5 13 7 2.703 2.176 0.325 41.509 o
-5 14 1 0.406 0.384 0.118 321.980 o
-5 14 2 0.813 0.807 0.167 159.424 o
-5 14 5 6.730 6.539 0.374 27.675 o
-5 14 6 0.626 0.620 0.315 45.456 o
-5 15 1 2.494 2.344 0.384 30.026 o
-5 15 2 2.231 1.881 0.364 33.477 o
-5 16 1 1.568 1.969 0.335 39.807 o
-5 16 2 0.813 0.965 0.315 45.370 o
-5 16 5 1.313 1.241 0.246 73.567 o
-5 17 1 1.325 1.566 0.295 51.215 o
-5 17 2 1.494 1.871 0.286 54.538 o
-4 -19 10 0.696 0.512 0.374 32.252 o
-4 -19 14 3.853 4.116 0.384 29.055 o
-4 -18 2 0.506 0.443 0.286 55.377 o
-4 -18 8 1.635 1.251 0.394 28.929 o
-4 -18 12 0.237 0.601 0.414 26.431 o
-4 -18 14 0.518 0.660 0.374 32.263 o
-4 -18 15 0.614 0.876 0.384 30.612 o
-4 -17 2 4.342 4.372 0.187 100.551 o
-4 -17 3 1.524 1.024 0.345 37.767 o
-4 -17 7 0.238 0.512 0.443 23.027 o
-4 -17 8 0.316 0.670 0.433 24.080 o
-4 -17 10 1.584 0.650 0.443 22.934 o
-4 -17 12 0.594 0.926 0.433 24.059 o
-4 -17 16 0.967 1.339 0.414 26.345 o
-4 -16 7 17.544 18.276 0.581 8.970 o
-4 -16 9 1.117 0.798 0.384 30.555 o
-4 -16 10 2.095 1.585 0.187 122.381 o
-4 -16 12 1.238 0.935 0.217 94.992 o
-4 -16 14 2.018 1.536 0.138 217.206 o
-4 -16 15 0.908 0.807 0.325 42.668 o
-4 -16 17 1.514 1.644 0.138 222.981 o
-4 -16 18 0.644 0.817 0.354 35.916 o
-4 -16 19 1.051 0.739 0.315 45.334 o
-4 -16 20 1.747 1.635 0.295 50.927 o
-4 -15 1 0.532 0.473 0.423 25.207 o
-4 -15 2 2.813 2.422 0.167 142.164 o
-4 -15 4 0.683 0.758 0.246 74.305 o
-4 -15 6 6.320 6.283 0.473 18.509 o
-4 -15 8 0.892 0.729 0.167 159.294 o
-4 -15 9 4.090 3.998 0.197 95.285 o
-4 -15 10 5.376 4.924 0.187 91.584 o
-4 -15 11 0.941 0.798 0.158 179.166 o
-4 -15 12 2.767 2.294 0.187 117.199 o
-4 -15 13 0.433 0.315 0.148 206.529 o
-4 -15 14 1.288 1.113 0.177 140.404 o
-4 -15 17 0.299 0.295 0.177 143.747 o
-4 -15 20 0.654 0.788 0.315 45.432 o
-4 -15 21 0.251 0.226 0.089 573.569 o
-4 -14 1 4.372 4.756 0.443 21.847 o
-4 -14 5 22.836 23.870 0.305 12.023 o
-4 -14 8 12.591 13.382 0.492 13.728 o
-4 -14 9 13.070 13.264 0.276 27.100 o
-4 -14 10 1.036 0.837 0.414 26.365 o
-4 -14 11 0.998 0.857 0.404 27.666 o
-4 -14 12 5.146 5.278 0.433 22.399 o
-4 -14 13 7.045 7.021 0.236 55.202 o
-4 -14 15 0.334 0.394 0.118 322.388 o
-4 -14 16 9.220 10.192 0.148 64.802 o
-4 -14 17 0.674 0.660 0.148 205.086 o
-4 -14 19 1.483 1.625 0.108 348.823 o
-4 -14 20 1.177 1.221 0.118 307.444 o
-4 -13 1 6.256 6.470 0.197 75.542 o
-4 -13 3 2.422 2.097 0.177 132.104 o
-4 -13 4 4.804 4.569 0.187 96.707 o
-4 -13 5 22.767 23.742 0.246 13.246 o
-4 -13 6 17.357 18.070 0.414 13.537 o
-4 -13 8 9.369 9.217 0.246 42.534 o
-4 -13 9 3.655 3.043 0.384 29.415 o
-4 -13 10 7.880 7.632 0.236 51.468 o
-4 -13 12 1.870 2.009 0.207 101.191 o
-4 -13 14 7.038 7.582 0.187 72.416 o
-4 -13 15 10.670 11.187 0.158 52.145 o
-4 -13 16 3.158 3.230 0.118 234.393 o
-4 -13 17 1.464 1.418 0.118 300.160 o
-4 -13 18 0.660 0.561 0.226 87.817 o
-4 -13 19 0.250 0.148 0.148 207.069 o
-4 -13 21 0.479 0.325 0.108 382.345 o
-4 -12 1 3.448 3.230 0.138 180.870 o
-4 -12 2 3.222 2.866 0.158 151.294 o
-4 -12 3 17.339 17.686 0.276 19.125 o
-4 -12 4 2.255 2.127 0.138 209.546 o
-4 -12 5 29.325 29.768 0.315 8.123 o
-4 -12 7 3.994 3.693 0.177 114.791 o
-4 -12 8 0.931 0.965 0.187 127.502 o
-4 -12 9 0.330 0.335 0.187 128.992 o
-4 -12 10 3.226 3.062 0.207 94.110 o
-4 -12 11 6.013 5.889 0.226 64.539 o
-4 -12 12 2.703 2.639 0.374 31.451 o
-4 -12 13 2.912 2.915 0.167 139.194 o
-4 -12 14 3.644 3.909 0.167 127.906 o
-4 -12 15 24.576 26.666 1.162 2.682 o
-4 -12 16 2.933 2.678 0.148 173.358 o
-4 -12 18 0.192 0.295 0.108 384.594 o
-4 -12 19 7.460 8.232 0.532 14.398 o
-4 -12 20 0.498 0.551 0.138 236.232 o
-4 -12 23 0.528 0.453 0.246 74.465 o
-4 -11 1 0.472 0.364 0.128 274.316 o
-4 -11 2 13.019 12.752 0.325 23.355 o
-4 -11 3 11.082 10.921 0.217 40.752 o
-4 -11 4 1.033 0.817 0.118 313.009 o
-4 -11 5 1.886 1.763 0.167 151.694 o
-4 -11 6 1.775 1.644 0.197 112.046 o
-4 -11 8 3.315 3.131 0.187 111.449 o
-4 -11 9 10.498 10.369 0.364 23.765 o
-4 -11 10 3.879 3.653 0.315 42.303 o
-4 -11 11 0.267 0.207 0.187 129.087 o
-4 -11 12 11.882 11.561 0.433 17.345 o
-4 -11 13 2.053 2.048 0.158 167.265 o
-4 -11 14 21.172 21.565 1.231 2.578 o
-4 -11 15 0.529 0.453 0.177 143.350 o
-4 -11 16 0.229 0.226 0.167 161.237 o
-4 -11 17 4.117 4.215 0.226 74.925 o
-4 -11 19 0.299 0.414 0.187 128.985 o
-4 -11 20 0.679 0.679 0.108 377.664 o
-4 -11 21 3.744 3.634 0.207 90.457 o
-4 -11 23 1.722 1.753 0.197 112.043 o
-4 -10 1 13.365 12.851 0.177 36.743 o
-4 -10 2 10.499 10.172 0.276 34.037 o
-4 -10 3 13.509 13.491 0.246 28.874 o
-4 -10 4 5.934 5.386 0.207 75.149 o
-4 -10 5 36.291 36.484 0.345 5.550 o
-4 -10 6 0.428 0.276 0.128 274.739 o
-4 -10 7 31.761 31.678 0.581 5.211 o
-4 -10 8 47.265 46.735 0.778 2.551 o
-4 -10 9 28.273 27.789 0.364 8.239 o
-4 -10 10 25.632 25.288 0.384 9.222 o
-4 -10 11 2.009 1.851 0.138 215.157 o
-4 -10 12 8.320 8.094 0.384 24.676 o
-4 -10 13 6.158 6.292 0.443 20.879 o
-4 -10 14 1.187 1.024 0.177 140.929 o
-4 -10 15 8.629 8.193 0.207 56.067 o
-4 -10 17 1.069 0.827 0.128 267.595 o
-4 -10 18 1.507 1.241 0.148 197.699 o
-4 -10 19 0.236 0.315 0.226 88.110 o
-4 -10 20 1.595 1.733 0.364 33.711 o
-4 -9 1 6.315 6.184 0.138 113.864 o
-4 -9 2 11.393 11.354 0.158 48.616 o
-4 -9 3 0.273 0.197 0.108 384.422 o
-4 -9 4 35.465 36.484 0.335 5.745 o
-4 -9 5 4.829 4.540 0.128 160.481 o
-4 -9 6 6.912 6.883 0.148 96.414 o
-4 -9 7 22.410 23.092 0.266 13.280 o
-4 -9 8 13.790 14.013 0.217 30.525 o
-4 -9 9 49.679 49.797 0.492 2.929 o
-4 -9 10 13.379 13.067 0.207 33.359 o
-4 -9 11 12.012 12.083 0.276 29.694 o
-4 -9 13 1.271 1.063 0.158 176.785 o
-4 -9 14 13.036 13.185 0.335 22.359 o
-4 -9 15 7.731 7.257 0.315 34.925 o
-4 -9 16 1.487 1.241 0.246 73.371 o
-4 -9 17 2.953 2.816 0.158 154.496 o
-4 -9 18 0.427 0.286 0.138 237.029 o
-4 -9 20 4.575 4.953 0.138 147.592 o
-4 -9 21 0.000 0.483 0.433 24.091 o
-4 -9 23 0.502 0.315 0.079 717.025 o
-4 -8 1 8.033 7.730 0.138 86.738 o
-4 -8 2 4.243 4.156 0.118 193.985 o
-4 -8 3 36.994 37.597 0.354 5.294 o
-4 -8 4 3.443 3.299 0.148 162.184 o
-4 -8 5 8.094 8.075 0.167 72.395 o
-4 -8 6 94.113 94.730 0.916 0.819 o
-4 -8 7 406.281 417.158 4.697 0.041 o
-4 -8 8 1.278 1.201 0.108 360.125 o
-4 -8 9 17.680 17.302 0.226 21.176 o
-4 -8 10 61.204 62.097 0.689 1.833 o
-4 -8 11 13.552 13.245 0.197 33.738 o
-4 -8 12 11.442 11.580 0.276 31.078 o
-4 -8 13 8.736 8.902 0.423 20.558 o
-4 -8 16 3.923 4.146 0.246 65.529 o
-4 -8 17 5.193 5.337 0.138 135.113 o
-4 -8 18 1.902 2.176 0.148 189.160 o
-4 -8 19 2.239 2.255 0.207 99.588 o
-4 -8 20 1.369 1.428 0.138 225.901 o
-4 -8 21 1.193 0.985 0.098 436.492 o
-4 -8 22 0.571 0.551 0.286 55.348 o
-4 -8 23 3.143 2.954 0.256 64.112 o
-4 -7 1 6.892 6.716 0.148 97.453 o
-4 -7 2 0.256 0.404 0.207 105.645 o
-4 -7 3 9.437 9.532 0.345 27.245 o
-4 -7 4 2.926 3.072 0.187 114.026 o
-4 -7 5 1.073 0.798 0.197 115.103 o
-4 -7 6 40.950 43.505 0.512 3.825 o
-4 -7 7 1.803 1.851 0.158 170.250 o
-4 -7 8 4.463 4.579 0.197 91.443 o
-4 -7 9 2.515 2.373 0.148 180.738 o
-4 -7 10 0.212 0.295 0.158 181.977 o
-4 -7 12 14.928 14.771 0.226 26.946 o
-4 -7 14 0.276 0.217 0.158 181.946 o
-4 -7 15 0.583 0.522 0.158 180.984 o
-4 -7 17 3.483 3.821 0.128 194.980 o
-4 -7 18 4.461 4.510 0.246 63.555 o
-4 -7 23 2.317 2.048 0.236 77.358 o
-4 -6 1 2.171 1.704 0.315 44.590 o
-4 -6 2 23.291 24.539 0.492 8.400 o
-4 -6 3 6.397 6.676 0.226 61.552 o
-4 -6 5 29.534 32.171 0.394 7.042 o
-4 -6 6 72.269 76.444 0.758 1.318 o
-4 -6 7 10.140 10.015 0.167 55.338 o
-4 -6 8 77.432 80.905 0.985 1.071 o
-4 -6 9 18.103 18.375 0.236 19.648 o
-4 -6 10 23.680 24.490 0.295 11.615 o
-4 -6 11 1.414 1.379 0.128 259.584 o
-4 -6 12 27.293 27.385 0.364 8.599 o
-4 -6 13 85.665 87.837 0.886 0.959 o
-4 -6 14 11.947 12.211 0.256 31.888 o
-4 -6 15 2.473 2.393 0.177 130.837 o
-4 -6 16 36.236 37.154 0.443 5.027 o
-4 -6 17 8.848 9.148 0.207 53.253 o
-4 -6 18 1.482 1.280 0.561 14.308 o
-4 -6 19 5.095 5.475 0.138 135.550 o
-4 -6 20 0.913 0.679 0.276 59.208 o
-4 -6 21 1.415 1.083 0.098 426.979 o
-4 -6 22 1.990 2.088 0.266 62.090 o
-4 -5 1 7.114 7.868 0.266 45.566 o
-4 -5 2 7.043 6.657 0.167 85.007 o
-4 -5 3 11.090 10.989 0.246 36.185 o
-4 -5 4 3.448 2.806 0.197 102.106 o
-4 -5 5 0.070 0.286 0.167 161.334 o
-4 -5 6 9.267 9.365 0.167 61.474 o
-4 -5 7 5.589 5.790 0.158 108.530 o
-4 -5 8 15.700 16.474 0.236 23.807 o
-4 -5 9 41.209 44.529 0.502 3.784 o
-4 -5 10 8.180 8.035 0.226 52.517 o
-4 -5 11 25.543 26.450 0.276 10.571 o
-4 -5 13 15.198 15.509 0.266 23.312 o
-4 -5 14 3.996 3.998 0.167 124.130 o
-4 -5 15 8.351 8.675 0.207 56.217 o
-4 -5 16 0.452 0.473 0.167 160.758 o
-4 -5 17 2.355 2.275 0.128 235.037 o
-4 -5 18 2.561 2.511 0.118 260.342 o
-4 -4 1 10.942 9.828 0.286 32.214 o
-4 -4 2 104.717 107.611 0.995 0.658 o
-4 -4 3 17.938 19.488 0.295 16.962 o
-4 -4 4 3.910 3.594 0.226 76.762 o
-4 -4 5 84.535 87.709 0.758 1.020 o
-4 -4 6 7.943 8.173 0.167 73.067 o
-4 -4 7 13.758 14.338 0.207 31.133 o
-4 -4 8 1.762 1.438 0.148 194.462 o
-4 -4 9 38.811 39.842 0.679 3.564 o
-4 -4 10 10.533 10.497 0.207 44.751 o
-4 -4 11 95.990 97.803 1.251 0.698 o
-4 -4 12 5.652 5.396 0.128 138.279 o
-4 -4 13 13.750 13.540 0.217 31.086 o
-4 -4 14 47.956 49.088 0.857 2.302 o
-4 -4 15 71.932 73.608 0.975 1.216 o
-4 -4 16 1.320 1.497 0.945 5.055 o
-4 -4 17 2.526 2.590 0.217 89.829 o
-4 -4 19 0.931 0.837 0.374 32.203 o
-4 -4 20 2.737 2.678 0.345 36.869 o
-4 -3 1 86.688 89.472 0.817 0.960 o
-4 -3 2 58.929 62.038 0.788 1.799 o
-4 -3 3 36.025 39.625 0.601 4.147 o
-4 -3 4 68.354 68.862 0.748 1.491 o
-4 -3 5 23.778 25.406 0.256 11.994 o
-4 -3 6 119.623 126.882 1.329 0.471 o
-4 -3 7 127.840 135.380 1.398 0.415 o
-4 -3 8 1.618 1.388 0.138 223.278 o
-4 -3 9 124.662 129.324 1.221 0.458 o
-4 -3 10 44.682 46.449 0.551 3.269 o
-4 -3 11 37.986 38.404 0.414 4.829 o
-4 -3 12 41.818 42.412 0.571 3.601 o
-4 -3 13 7.332 7.120 0.148 91.206 o
-4 -3 14 1.912 2.294 0.187 121.596 o
-4 -3 17 4.981 5.436 0.404 25.571 o
-4 -3 18 0.820 0.630 0.414 26.395 o
-4 -3 19 1.966 2.422 0.364 33.475 o
-4 -3 21 0.626 0.414 0.276 59.367 o
-4 -2 1 20.997 20.462 0.217 16.434 o
-4 -2 2 64.929 70.693 0.611 1.659 o
-4 -2 4 230.429 235.260 2.186 0.136 o
-4 -2 5 13.922 14.899 0.236 27.786 o
-4 -2 6 49.230 52.929 0.670 2.527 o
-4 -2 7 27.644 25.278 0.236 10.380 o
-4 -2 8 77.326 80.619 0.660 1.231 o
-4 -2 9 1.396 1.073 0.138 227.507 o
-4 -2 10 1.797 1.644 0.108 339.078 o
-4 -2 11 9.146 8.734 0.197 55.474 o
-4 -2 12 6.024 5.879 0.226 64.518 o
-4 -2 13 0.409 0.512 0.118 321.529 o
-4 -2 14 28.728 29.611 0.433 7.164 o
-4 -2 16 0.249 0.404 0.384 30.656 o
-4 -2 18 5.563 6.066 0.167 99.794 o
-4 -2 19 0.851 0.817 0.354 35.884 o
-4 -2 20 0.836 0.857 0.305 48.342 o
-4 -1 1 332.673 352.944 2.757 0.066 o
-4 -1 2 113.213 122.116 1.132 0.539 o
-4 -1 3 17.133 17.321 0.246 20.906 o
-4 -1 4 119.968 120.707 1.152 0.506 o
-4 -1 5 7.001 6.194 0.226 60.172 o
-4 -1 6 0.460 0.542 0.108 381.421 o
-4 -1 7 77.919 80.334 0.660 1.223 o
-4 -1 8 119.773 118.393 1.014 0.530 o
-4 -1 10 0.200 0.246 0.118 323.343 o
-4 -1 11 21.552 21.231 0.266 14.454 o
-4 -1 12 6.701 7.051 0.207 67.261 o
-4 -1 13 36.954 36.671 0.473 4.817 o
-4 -1 15 16.111 16.809 0.345 17.431 o
-4 -1 16 2.099 2.442 0.384 30.139 o
-4 0 1 238.895 255.733 2.097 0.126 o
-4 0 2 66.680 69.689 0.601 1.631 o
-4 0 3 1.177 1.615 0.138 226.964 o
-4 0 4 4.707 4.914 0.118 174.116 o
-4 0 5 21.803 24.648 0.374 10.960 o
-4 0 6 314.727 314.629 2.708 0.076 o
-4 0 7 106.173 109.432 0.886 0.661 o
-4 0 8 0.879 0.788 0.158 179.458 o
-4 0 10 61.655 61.526 0.611 1.907 o
-4 0 11 20.538 20.561 0.423 11.261 o
-4 0 12 14.010 13.806 0.286 24.591 o
-4 0 13 3.174 3.122 0.207 94.206 o
-4 0 14 0.869 0.788 0.276 59.203 o
-4 0 15 8.956 9.207 0.423 20.343 o
-4 0 16 3.914 4.293 0.423 24.072 o
-4 0 17 1.100 1.310 0.423 25.125 o
-4 0 19 0.903 0.935 0.305 48.308 o
-4 1 1 75.337 81.703 0.847 1.167 o
-4 1 2 36.612 34.130 0.384 5.503 o
-4 1 3 79.092 76.740 1.211 0.963 o
-4 1 4 5.635 5.958 0.138 124.340 o
-4 1 5 30.859 32.959 0.414 6.502 o
-4 1 6 48.552 44.588 0.404 3.380 o
-4 1 7 140.711 141.229 1.369 0.367 o
-4 1 8 3.041 2.659 0.158 154.391 o
-4 1 10 7.990 8.567 0.414 21.922 o
-4 1 11 64.265 64.253 0.670 1.724 o
-4 1 12 5.559 5.495 0.167 102.386 o
-4 1 13 11.745 11.433 0.345 23.785 o
-4 1 14 15.425 16.041 0.483 12.512 o
-4 1 15 23.951 24.293 0.670 6.003 o
-4 1 16 0.850 0.857 0.138 233.280 o
-4 2 1 167.198 170.761 1.536 0.262 o
-4 2 2 60.128 56.208 0.611 2.060 o
-4 2 3 16.767 15.943 0.197 24.845 o
-4 2 4 108.875 105.050 0.876 0.659 o
-4 2 5 0.339 0.660 0.108 382.066 o
-4 2 6 22.421 19.823 0.226 15.280 o
-4 2 7 6.648 6.479 0.187 78.125 o
-4 2 8 24.986 26.253 0.305 10.441 o
-4 2 9 37.692 36.307 0.522 4.512 o
-4 2 10 11.645 11.492 0.295 28.613 o
-4 2 11 4.859 4.737 0.167 112.367 o
-4 2 12 7.055 6.962 0.207 65.789 o
-4 2 13 18.834 19.202 0.473 10.960 o
-4 2 14 4.794 4.993 0.158 121.371 o
-4 2 15 3.816 3.978 0.148 152.252 o
-4 2 16 13.282 13.363 0.226 31.281 o
-4 2 18 0.129 0.522 0.384 30.659 o
-4 3 1 314.934 303.767 2.619 0.078 o
-4 3 2 70.163 64.824 0.542 1.641 o
-4 3 3 18.527 15.628 0.305 17.694 o
-4 3 4 21.979 20.413 0.266 14.442 o
-4 3 5 61.801 59.044 0.611 1.945 o
-4 3 6 23.444 21.349 0.246 13.578 o
-4 3 7 2.050 2.462 0.167 148.081 o
-4 3 8 0.369 0.630 0.187 128.803 o
-4 3 9 4.355 4.677 0.236 68.175 o
-4 3 10 1.726 1.743 0.315 44.837 o
-4 3 11 14.854 14.869 0.345 19.240 o
-4 3 12 10.548 11.098 0.226 40.401 o
-4 3 13 1.339 1.388 0.364 33.824 o
-4 3 14 2.108 2.314 0.187 120.605 o
-4 3 16 4.721 4.884 0.483 18.474 o
-4 4 1 542.994 521.736 4.549 0.026 o
-4 4 2 30.195 27.730 0.276 8.526 o
-4 4 3 111.113 103.681 0.886 0.646 o
-4 4 4 14.830 16.730 0.226 25.518 o
-4 4 5 5.862 5.130 0.167 101.302 o
-4 4 6 29.206 27.681 0.315 8.485 o
-4 4 7 11.907 11.649 0.276 30.228 o
-4 4 8 3.318 3.653 0.581 13.158 o
-4 4 9 13.003 13.353 1.231 2.817 o
-4 4 10 3.628 3.850 0.266 58.053 o
-4 4 11 0.778 0.315 0.295 51.704 o
-4 4 12 4.513 5.002 0.374 29.847 o
-4 4 14 13.125 13.668 0.217 32.264 o
-4 4 15 0.725 0.532 0.295 51.690 o
-4 4 16 0.121 0.305 0.246 74.607 o
-4 4 18 0.309 0.364 0.236 80.896 o
-4 5 1 22.424 19.783 0.236 15.061 o
-4 5 2 78.403 77.222 0.709 1.220 o
-4 5 3 20.273 19.173 0.246 16.794 o
-4 5 4 20.309 19.064 0.335 14.110 o
-4 5 5 112.374 112.761 0.985 0.592 o
-4 5 6 2.659 2.836 0.138 197.536 o
-4 5 9 72.449 72.830 1.320 1.002 o
-4 5 10 2.400 2.462 0.295 50.055 o
-4 5 12 6.462 6.164 0.187 80.296 o
-4 5 13 4.051 3.722 0.276 53.712 o
-4 5 14 2.927 2.895 0.502 17.620 o
-4 5 15 15.158 15.933 0.473 12.975 o
-4 5 17 3.228 3.259 0.335 38.453 o
-4 6 1 0.392 0.512 0.148 206.374 o
-4 6 2 0.425 0.246 0.128 274.814 o
-4 6 3 0.522 0.414 0.128 273.917 o
-4 6 4 5.011 4.284 0.138 145.982 o
-4 6 5 5.844 5.150 0.167 101.376 o
-4 6 6 13.752 14.544 0.226 29.224 o
-4 6 7 45.744 44.411 0.532 3.317 o
-4 6 8 1.528 1.763 0.266 62.776 o
-4 6 9 14.079 14.160 0.354 19.624 o
-4 6 10 5.502 5.229 0.335 35.469 o
-4 6 11 0.203 0.345 0.187 129.084 o
-4 6 14 3.060 2.895 0.364 32.893 o
-4 6 15 3.921 4.352 0.394 27.604 o
-4 7 1 1.914 2.019 0.197 110.889 o
-4 7 2 1.353 1.329 0.108 356.533 o
-4 7 3 0.399 0.414 0.098 462.334 o
-4 7 4 25.955 27.750 0.345 9.228 o
-4 7 5 111.197 110.240 1.123 0.585 o
-4 7 6 8.173 8.262 0.197 60.935 o
-4 7 7 14.869 15.007 0.502 12.245 o
-4 7 8 54.656 55.597 0.965 1.793 o
-4 7 9 6.817 6.716 0.325 34.837 o
-4 7 10 1.038 0.778 0.414 26.368 o
-4 7 11 8.107 8.311 0.167 71.537 o
-4 7 12 1.459 1.113 0.108 356.592 o
-4 7 13 3.802 3.762 0.158 139.666 o
-4 7 14 1.855 1.763 0.305 47.640 o
-4 7 15 3.256 3.742 0.374 30.942 o
-4 8 1 11.489 11.492 0.256 33.483 o
-4 8 2 9.969 10.241 0.187 51.219 o
-4 8 3 57.591 58.030 0.502 2.252 o
-4 8 4 15.456 14.790 0.236 25.397 o
-4 8 5 61.307 60.472 1.103 1.423 o
-4 8 7 0.485 0.689 0.207 105.370 o
-4 8 8 1.962 2.432 0.650 10.648 o
-4 8 9 8.988 8.518 0.226 48.961 o
-4 8 10 0.541 0.492 0.148 205.933 o
-4 8 11 0.487 0.492 0.148 206.113 o
-4 8 12 10.226 10.694 0.601 10.831 o
-4 9 1 14.129 14.190 0.384 17.882 o
-4 9 2 18.201 17.508 0.286 17.974 o
-4 9 3 58.723 60.482 0.758 1.863 o
-4 9 4 9.614 8.636 0.256 40.751 o
-4 9 5 11.745 11.472 0.335 24.630 o
-4 9 6 34.274 34.495 0.739 3.876 o
-4 9 9 2.065 1.536 0.158 169.376 o
-4 9 10 2.780 2.639 0.148 175.630 o
-4 9 12 2.189 2.078 0.354 35.305 o
-4 10 1 51.989 52.427 0.807 2.171 o
-4 10 2 15.154 14.938 0.345 18.956 o
-4 10 3 7.433 7.523 0.217 59.301 o
-4 10 4 12.574 12.545 0.276 28.415 o
-4 10 5 8.082 7.533 0.276 41.537 o
-4 10 6 1.424 1.142 0.384 30.474 o
-4 10 7 1.180 1.132 0.197 114.500 o
-4 10 8 6.596 6.607 0.177 83.206 o
-4 10 9 3.404 3.712 0.197 99.922 o
-4 10 10 1.657 1.467 0.167 154.039 o
-4 11 1 0.570 0.276 0.187 128.774 o
-4 11 2 5.458 5.337 0.197 83.376 o
-4 11 3 2.197 2.097 0.354 35.298 o
-4 11 4 3.618 3.397 0.374 30.844 o
-4 11 5 2.189 1.920 0.158 166.619 o
-4 11 6 0.427 0.286 0.138 237.028 o
-4 11 7 0.543 0.374 0.177 143.391 o
-4 11 8 1.012 0.945 0.138 231.684 o
-4 11 9 5.294 5.692 0.197 83.296 o
-4 11 11 0.575 0.630 0.295 51.716 o
-4 11 12 1.135 1.290 0.226 86.916 o
-4 12 1 4.396 4.303 0.177 109.110 o
-4 12 2 1.463 1.123 0.364 33.826 o
-4 12 3 8.376 8.193 0.197 60.141 o
-4 12 5 16.128 16.839 0.256 21.892 o
-4 12 6 0.248 0.187 0.167 161.238 o
-4 12 7 9.370 10.359 0.276 36.017 o
-4 12 8 0.677 0.561 0.118 319.004 o
-4 12 9 4.257 4.717 0.433 22.846 o
-4 12 10 8.361 9.552 0.128 79.651 o
-4 13 1 2.007 1.733 0.138 216.005 o
-4 13 2 12.761 12.782 0.492 13.777 o
-4 13 3 3.723 3.604 0.177 117.284 o
-4 13 5 0.423 0.473 0.414 26.426 o
-4 13 6 0.323 0.345 0.128 275.030 o
-4 13 7 4.848 5.357 0.354 32.555 o
-4 13 8 1.725 1.664 0.305 47.752 o
-4 14 1 0.482 0.443 0.138 236.534 o
-4 14 2 5.343 5.258 0.177 97.693 o
-4 14 3 2.670 2.895 0.384 29.862 o
-4 14 5 4.244 3.978 0.364 31.886 o
-4 14 7 6.412 6.627 0.138 109.925 o
-4 15 1 0.418 0.433 0.394 29.134 o
-4 15 2 2.464 2.245 0.364 33.315 o
-4 15 3 1.967 1.841 0.364 33.577 o
-4 15 5 1.873 1.684 0.315 44.772 o
-4 16 2 0.842 1.083 0.325 42.650 o
-4 16 3 5.486 5.377 0.345 33.646 o
-4 16 4 1.054 0.867 0.286 55.112 o
-4 17 1 2.027 1.822 0.305 47.506 o
-4 17 2 0.919 0.935 0.286 55.157 o
-4 18 1 3.670 3.328 0.266 58.474 o
-3 -20 16 0.297 0.473 0.286 55.416 o
-3 -19 10 1.018 0.985 0.374 32.179 o
-3 -19 13 9.464 9.956 0.453 17.806 o
-3 -19 14 2.294 2.422 0.384 30.080 o
-3 -18 7 1.248 1.093 0.394 29.011 o
-3 -18 11 0.709 0.483 0.433 24.065 o
-3 -18 12 0.649 0.532 0.414 26.412 o
-3 -18 13 0.503 0.748 0.423 25.201 o
-3 -18 14 1.817 2.048 0.148 190.777 o
-3 -18 15 0.624 0.670 0.404 27.711 o
-3 -18 16 0.217 0.187 0.128 275.616 o
-3 -17 6 4.487 3.900 0.433 22.909 o
-3 -17 10 0.083 0.827 0.443 23.027 o
-3 -17 11 0.616 1.162 0.443 22.994 o
-3 -17 12 14.149 14.978 0.571 10.378 o
-3 -17 13 0.921 1.014 0.158 178.763 o
-3 -17 14 1.204 1.162 0.158 176.883 o
-3 -17 15 1.459 1.536 0.394 28.935 o
-3 -17 16 2.188 2.344 0.384 30.127 o
-3 -16 4 9.050 9.581 0.502 15.226 o
-3 -16 5 1.297 1.024 0.502 17.878 o
-3 -16 6 2.536 2.206 0.502 17.715 o
-3 -16 7 1.575 1.418 0.463 20.995 o
-3 -16 8 0.246 0.640 0.473 20.238 o
-3 -16 13 3.515 3.634 0.197 99.531 o
-3 -16 15 0.145 0.138 0.108 385.128 o
-3 -16 19 0.705 0.867 0.325 42.708 o
-3 -16 20 1.045 0.739 0.305 48.293 o
-3 -15 3 7.827 7.976 0.502 15.876 o
-3 -15 4 13.557 13.914 0.542 11.543 o
-3 -15 5 3.878 4.382 0.473 19.492 o
-3 -15 6 0.949 0.906 0.305 48.298 o
-3 -15 10 0.696 0.689 0.423 25.191 o
-3 -15 12 0.707 0.384 0.148 205.519 o
-3 -15 13 0.210 0.158 0.148 207.117 o
-3 -15 14 1.054 0.955 0.138 231.294 o
-3 -15 15 6.876 7.336 0.138 100.434 o
-3 -15 16 1.169 1.044 0.118 309.101 o
-3 -15 17 3.240 3.506 0.158 147.522 o
-3 -15 18 1.494 1.497 0.374 32.032 o
-3 -15 20 1.281 1.142 0.158 176.491 o
-3 -15 22 1.279 1.142 0.079 645.454 o
-3 -14 2 1.305 1.132 0.187 126.249 o
-3 -14 3 1.489 1.654 0.433 23.932 o
-3 -14 4 1.573 1.733 0.453 21.894 o
-3 -14 5 48.991 50.635 1.182 1.682 o
-3 -14 6 4.670 4.284 0.207 84.342 o
-3 -14 7 1.202 1.083 0.305 48.168 o
-3 -14 8 1.940 1.477 0.207 101.771 o
-3 -14 9 4.380 4.215 0.394 27.412 o
-3 -14 10 2.896 2.659 0.630 11.269 o
-3 -14 12 5.603 5.633 0.217 71.198 o
-3 -14 13 0.978 0.995 0.167 158.512 o
-3 -14 14 1.043 0.867 0.138 231.753 o
-3 -14 15 1.909 2.078 0.118 282.734 o
-3 -14 16 4.517 4.510 0.315 41.106 o
-3 -14 17 3.504 3.653 0.197 99.537 o
-3 -14 18 1.275 1.438 0.148 198.819 o
-3 -14 19 3.825 3.840 0.167 126.515 o
-3 -14 20 0.432 0.266 0.158 181.652 o
-3 -14 21 0.977 0.758 0.286 55.170 o
-3 -14 22 0.919 1.044 0.256 68.491 o
-3 -13 3 1.445 1.359 0.158 174.761 o
-3 -13 4 14.867 14.820 0.276 23.533 o
-3 -13 5 1.529 1.310 0.148 197.214 o
-3 -13 6 5.688 5.396 0.158 109.545 o
-3 -13 7 5.477 5.485 0.295 43.874 o
-3 -13 8 14.394 13.569 0.266 25.745 o
-3 -13 10 7.955 8.045 0.226 53.285 o
-3 -13 11 1.428 1.192 0.197 113.795 o
-3 -13 12 6.961 6.726 0.226 59.321 o
-3 -13 13 0.650 0.305 0.207 105.395 o
-3 -13 15 1.102 0.985 0.148 201.796 o
-3 -13 16 0.489 0.335 0.167 160.816 o
-3 -13 17 2.594 2.560 0.118 258.804 o
-3 -13 18 1.312 1.260 0.167 156.463 o
-3 -13 19 0.499 0.286 0.148 206.392 o
-3 -13 20 3.043 3.062 0.128 212.489 o
-3 -13 21 2.441 2.235 0.325 41.661 o
-3 -13 23 0.144 0.138 0.079 727.559 o
-3 -12 2 4.340 4.549 0.217 79.108 o
-3 -12 3 36.592 37.114 0.384 5.263 o
-3 -12 4 2.086 2.245 0.108 319.811 o
-3 -12 5 0.103 0.167 0.128 275.857 o
-3 -12 6 13.164 12.742 0.354 21.037 o
-3 -12 7 42.188 42.934 0.630 3.361 o
-3 -12 9 1.234 1.182 0.158 176.653 o
-3 -12 10 2.669 2.718 0.197 106.207 o
-3 -12 11 22.353 23.259 0.581 7.440 o
-3 -12 12 1.266 1.270 0.138 227.832 o
-3 -12 14 13.008 13.757 0.226 31.438 o
-3 -12 15 7.909 8.400 0.423 21.173 o
-3 -12 16 0.410 0.414 0.128 274.504 o
-3 -12 17 1.953 2.127 0.177 134.819 o
-3 -12 18 2.984 3.033 0.158 152.985 o
-3 -12 19 1.619 1.457 0.158 173.197 o
-3 -11 1 3.456 3.072 0.187 110.747 o
-3 -11 3 85.500 86.705 0.729 1.024 o
-3 -11 4 17.711 18.030 0.236 20.277 o
-3 -11 5 11.412 11.177 0.266 32.693 o
-3 -11 6 12.369 12.014 0.226 34.701 o
-3 -11 7 28.617 28.833 0.335 8.290 o
-3 -11 8 15.729 16.081 0.483 12.389 o
-3 -11 10 5.723 5.623 0.197 81.004 o
-3 -11 11 0.256 0.276 0.128 275.384 o
-3 -11 12 5.825 5.623 0.335 34.911 o
-3 -11 13 24.253 24.579 0.798 4.767 o
-3 -11 14 19.833 20.364 0.581 8.247 o
-3 -11 15 1.990 1.891 0.315 44.643 o
-3 -11 18 0.423 0.384 0.167 160.887 o
-3 -11 19 1.186 1.349 0.128 262.996 o
-3 -11 20 0.375 0.315 0.108 383.313 o
-3 -11 21 0.845 0.719 0.118 316.217 o
-3 -11 22 0.549 0.591 0.098 458.530 o
-3 -10 1 32.065 31.698 0.305 7.173 o
-3 -10 2 1.740 1.802 0.148 192.872 o
-3 -10 3 69.445 70.250 0.581 1.561 o
-3 -10 4 2.769 2.777 0.108 286.650 o
-3 -10 5 6.957 6.834 0.187 75.134 o
-3 -10 6 0.841 0.807 0.108 373.916 o
-3 -10 7 5.313 5.524 0.177 96.891 o
-3 -10 8 15.619 16.297 0.414 14.913 o
-3 -10 9 5.995 5.849 0.217 68.991 o
-3 -10 10 7.255 7.248 0.335 32.353 o
-3 -10 11 10.503 10.694 0.423 18.995 o
-3 -10 12 0.198 0.236 0.148 207.080 o
-3 -10 13 48.973 51.107 0.522 2.876 o
-3 -10 14 18.453 19.084 0.679 7.011 o
-3 -10 15 0.690 0.433 0.167 160.294 o
-3 -10 16 4.109 4.028 0.374 30.396 o
-3 -10 17 14.669 15.224 0.226 27.002 o
-3 -10 18 4.586 4.549 0.128 165.028 o
-3 -10 20 0.948 0.926 0.108 370.766 o
-3 -10 21 1.177 1.044 0.098 436.058 o
-3 -10 22 0.284 0.295 0.098 464.340 o
-3 -9 1 13.471 13.540 0.177 35.523 o
-3 -9 3 0.190 0.167 0.089 574.557 o
-3 -9 4 6.642 6.440 0.148 101.440 o
-3 -9 5 1.031 0.926 0.128 267.467 o
-3 -9 6 14.955 14.928 0.286 22.704 o
-3 -9 7 8.373 8.370 0.187 62.885 o
-3 -9 8 0.166 0.128 0.128 275.787 o
-3 -9 9 9.760 9.788 0.167 57.770 o
-3 -9 10 19.203 19.488 0.305 15.632 o
-3 -9 12 37.478 38.837 0.748 3.432 o
-3 -9 13 15.691 15.953 0.414 14.968 o
-3 -9 15 9.109 9.434 0.276 37.451 o
-3 -9 17 1.383 1.142 0.148 199.144 o
-3 -9 18 0.319 0.207 0.118 322.947 o
-3 -9 19 6.808 7.179 0.158 90.225 o
-3 -9 20 4.996 5.446 0.167 107.765 o
-3 -9 21 4.594 4.697 0.453 20.894 o
-3 -8 1 14.434 14.741 0.167 32.465 o
-3 -8 2 5.680 5.258 0.158 110.356 o
-3 -8 3 90.749 93.362 1.182 0.777 o
-3 -8 4 2.006 1.635 0.158 169.461 o
-3 -8 5 25.686 26.489 0.374 9.141 o
-3 -8 6 72.381 75.164 0.935 1.221 o
-3 -8 7 126.031 131.175 1.920 0.368 o
-3 -8 8 34.987 34.849 0.364 5.830 o
-3 -8 9 1.144 1.024 0.148 201.378 o
-3 -8 10 15.049 15.224 0.197 28.447 o
-3 -8 11 12.949 13.225 0.256 29.157 o
-3 -8 12 3.498 3.594 0.148 159.359 o
-3 -8 13 21.262 21.546 0.286 14.056 o
-3 -8 16 7.718 7.543 0.197 64.901 o
-3 -8 18 2.441 2.541 0.118 263.150 o
-3 -8 19 0.557 0.542 0.236 80.746 o
-3 -8 20 0.011 0.217 0.167 161.376 o
-3 -7 1 17.641 17.252 0.246 20.362 o
-3 -7 2 68.112 71.432 0.679 1.515 o
-3 -7 3 1.444 1.605 0.138 224.046 o
-3 -7 4 14.797 15.125 0.246 25.461 o
-3 -7 5 2.755 2.905 0.128 220.284 o
-3 -7 6 92.431 96.296 0.867 0.841 o
-3 -7 7 96.752 101.161 1.014 0.740 o
-3 -7 8 4.487 4.284 0.138 154.417 o
-3 -7 9 27.014 26.991 0.325 9.235 o
-3 -7 10 3.737 3.781 0.217 83.222 o
-3 -7 11 13.413 13.707 0.207 32.560 o
-3 -7 12 25.236 25.406 0.414 8.903 o
-3 -7 13 4.437 4.441 0.167 117.789 o
-3 -7 14 5.059 5.052 0.217 74.885 o
-3 -7 15 7.579 6.401 0.374 27.047 o
-3 -7 16 1.026 0.817 0.177 141.785 o
-3 -7 17 0.962 0.847 0.177 141.931 o
-3 -7 18 8.241 8.498 0.187 63.236 o
-3 -7 19 1.100 0.935 0.128 266.636 o
-3 -7 21 0.517 0.414 0.108 381.495 o
-3 -7 22 2.221 2.294 0.286 53.712 o
-3 -6 1 39.626 42.274 0.463 4.194 o
-3 -6 2 70.191 74.475 0.788 1.361 o
-3 -6 3 52.215 56.661 0.512 2.540 o
-3 -6 4 32.499 34.219 0.325 6.635 o
-3 -6 5 968.292 1014.760 11.039 0.007 o
-3 -6 6 142.865 150.131 1.221 0.359 o
-3 -6 7 125.095 130.102 1.063 0.471 o
-3 -6 8 73.190 74.652 0.670 1.367 o
-3 -6 9 68.882 70.792 0.620 1.543 o
-3 -6 10 4.014 3.722 0.148 151.282 o
-3 -6 11 30.585 30.654 0.384 7.057 o
-3 -6 12 0.239 0.276 0.138 237.559 o
-3 -6 13 4.706 4.618 0.158 124.452 o
-3 -6 14 11.545 11.255 0.217 39.001 o
-3 -6 15 3.128 2.915 0.167 137.284 o
-3 -6 16 3.320 3.250 0.295 48.636 o
-3 -6 17 6.114 5.967 0.246 56.551 o
-3 -6 18 1.454 1.310 0.148 197.864 o
-3 -6 19 4.580 4.638 0.128 164.288 o
-3 -6 20 1.818 1.782 0.128 249.799 o
-3 -6 21 2.826 2.856 0.305 46.425 o
-3 -6 22 3.162 3.250 0.266 59.470 o
-3 -5 1 42.118 44.312 0.827 2.739 o
-3 -5 2 0.769 0.601 0.118 317.816 o
-3 -5 3 0.807 0.315 0.138 235.281 o
-3 -5 4 44.979 50.083 0.650 2.881 o
-3 -5 5 7.862 8.725 0.217 55.214 o
-3 -5 6 11.437 12.102 0.177 43.908 o
-3 -5 7 0.228 0.473 0.167 161.105 o
-3 -5 8 1.133 1.024 0.128 265.718 o
-3 -5 10 22.382 22.668 0.404 10.540 o
-3 -5 11 6.580 6.351 0.187 78.955 o
-3 -5 13 0.743 0.817 0.167 159.626 o
-3 -5 16 15.427 15.145 0.394 16.212 o
-3 -5 17 0.149 0.167 0.138 237.817 o
-3 -5 21 6.391 7.159 0.354 30.367 o
-3 -4 1 10.197 10.802 0.197 47.241 o
-3 -4 2 2.129 2.747 0.158 163.303 o
-3 -4 3 20.789 22.432 0.345 12.614 o
-3 -4 4 408.847 447.340 4.195 0.041 o
-3 -4 5 45.025 46.912 0.807 2.585 o
-3 -4 6 105.507 111.677 1.034 0.631 o
-3 -4 7 41.957 42.885 0.404 4.097 o
-3 -4 8 65.330 67.522 0.827 1.516 o
-3 -4 10 9.490 8.597 0.197 54.304 o
-3 -4 11 182.593 183.247 2.117 0.205 o
-3 -4 12 0.912 0.945 0.138 232.482 o
-3 -4 13 2.006 1.881 0.187 122.116 o
-3 -4 14 39.158 38.650 0.423 4.615 o
-3 -4 15 36.965 36.789 0.729 3.623 o
-3 -4 16 0.495 0.236 0.167 160.890 o
-3 -4 17 2.827 2.934 0.305 46.387 o
-3 -4 18 3.075 3.062 0.138 188.678 o
-3 -4 19 1.284 0.906 0.404 27.628 o
-3 -4 20 5.347 5.702 0.364 30.461 o
-3 -3 1 68.914 73.707 0.827 1.369 o
-3 -3 2 1.599 1.083 0.108 353.189 o
-3 -3 4 6.057 6.253 0.138 116.731 o
-3 -3 5 6.491 6.066 0.207 70.675 o
-3 -3 6 155.947 165.926 1.310 0.300 o
-3 -3 7 74.586 78.955 0.817 1.218 o
-3 -3 9 36.902 39.497 0.374 5.075 o
-3 -3 10 10.286 10.783 0.177 50.848 o
-3 -3 11 48.559 49.876 0.561 2.863 o
-3 -3 12 8.980 9.109 0.177 60.874 o
-3 -3 13 13.423 13.176 0.217 32.152 o
-3 -3 14 0.642 0.876 0.158 180.217 o
-3 -3 15 3.183 3.417 0.177 122.176 o
-3 -3 16 9.084 9.266 0.414 21.027 o
-3 -3 17 1.415 1.260 0.384 30.464 o
-3 -3 18 7.950 8.301 0.374 25.949 o
-3 -3 19 0.332 0.611 0.364 34.047 o
-3 -2 1 2.890 3.447 0.089 352.344 o
-3 -2 2 17.401 17.971 0.226 21.107 o
-3 -2 3 149.505 154.651 1.211 0.335 o
-3 -2 4 1.809 2.097 0.187 122.515 o
-3 -2 5 3.180 3.762 0.197 100.997 o
-3 -2 6 30.750 33.313 0.364 6.865 o
-3 -2 7 73.751 78.660 0.768 1.262 o
-3 -2 8 50.481 51.462 0.483 2.840 o
-3 -2 9 91.716 93.125 0.798 0.885 o
-3 -2 10 69.073 69.728 0.699 1.499 o
-3 -2 11 35.043 35.617 0.414 5.483 o
-3 -2 12 25.274 25.307 0.325 10.225 o
-3 -2 13 114.958 112.061 1.172 0.550 o
-3 -2 14 27.415 27.326 0.591 6.078 o
-3 -2 15 7.176 7.228 0.384 25.884 o
-3 -2 16 3.131 2.895 0.374 31.208 o
-3 -2 18 6.926 7.494 0.414 22.875 o
-3 -1 1 213.482 228.702 1.694 0.161 o
-3 -1 2 79.927 81.683 0.758 1.134 o
-3 -1 3 12.788 12.211 0.256 30.333 o
-3 -1 4 502.349 532.164 4.638 0.028 o
-3 -1 5 166.366 169.392 1.398 0.271 o
-3 -1 6 43.730 46.124 0.394 3.771 o
-3 -1 7 136.187 140.638 1.073 0.406 o
-3 -1 8 212.374 216.344 1.733 0.167 o
-3 -1 9 62.659 63.721 0.660 1.790 o
-3 -1 10 13.120 13.501 0.197 34.470 o
-3 -1 11 41.467 42.619 0.483 3.915 o
-3 -1 12 3.370 3.181 0.148 164.005 o
-3 -1 13 4.055 4.205 0.335 37.389 o
-3 -1 14 2.044 1.950 0.325 41.983 o
-3 -1 15 3.337 3.476 0.345 36.237 o
-3 -1 16 0.547 0.394 0.226 87.950 o
-3 -1 17 5.101 5.455 0.404 25.503 o
-3 -1 18 0.514 0.571 0.374 32.267 o
-3 -1 19 1.755 1.644 0.325 42.210 o
-3 0 1 132.175 136.059 1.142 0.423 o
-3 0 2 462.411 465.666 3.594 0.036 o
-3 0 3 53.198 51.127 0.699 2.330 o
-3 0 4 175.197 182.499 1.733 0.230 o
-3 0 5 1.561 0.985 0.108 355.561 o
-3 0 6 149.380 150.476 1.349 0.332 o
-3 0 7 0.755 1.290 0.089 544.075 o
-3 0 8 8.793 8.636 0.217 51.884 o
-3 0 9 24.169 23.850 0.286 11.702 o
-3 0 10 7.437 7.799 0.148 87.144 o
-3 0 11 0.042 0.276 0.128 275.867 o
-3 0 12 42.687 42.540 0.443 3.920 o
-3 0 13 4.388 4.303 0.246 64.049 o
-3 0 15 1.414 1.467 0.217 94.202 o
-3 0 16 7.650 7.769 0.512 15.418 o
-3 1 1 66.332 69.797 0.709 1.559 o
-3 1 2 84.578 82.717 0.837 1.025 o
-3 1 3 128.795 124.617 1.310 0.441 o
-3 1 4 12.510 14.357 0.207 33.877 o
-3 1 5 47.843 53.362 0.443 3.022 o
-3 1 6 171.819 165.453 1.763 0.247 o
-3 1 7 35.004 33.993 0.404 5.682 o
-3 1 8 12.608 11.698 0.217 35.703 o
-3 1 9 27.635 27.060 0.374 8.427 o
-3 1 10 4.862 4.628 0.217 76.677 o
-3 1 11 55.633 55.410 0.542 2.357 o
-3 1 12 1.460 1.300 0.148 197.849 o
-3 1 13 9.725 9.483 0.207 49.293 o
-3 1 14 16.901 17.282 0.502 11.169 o
-3 1 15 10.165 9.965 0.256 37.923 o
-3 1 16 6.462 6.578 0.187 78.985 o
-3 1 17 1.466 1.320 0.483 19.339 o
-3 1 19 0.653 0.601 0.276 59.328 o
-3 2 1 42.817 42.648 0.404 4.017 o
-3 2 2 29.940 31.777 0.453 6.491 o
-3 2 3 84.109 89.718 0.857 0.977 o
-3 2 4 203.210 197.723 1.576 0.190 o
-3 2 5 267.217 275.329 2.294 0.104 o
-3 2 6 19.331 18.188 0.207 19.504 o
-3 2 7 4.235 4.303 0.177 110.408 o
-3 2 8 72.028 72.092 0.758 1.367 o
-3 2 9 0.679 0.906 0.177 142.600 o
-3 2 10 40.814 40.521 0.522 3.948 o
-3 2 11 4.786 4.480 0.167 114.273 o
-3 2 12 0.005 0.236 0.177 143.944 o
-3 2 13 14.236 14.259 0.404 16.760 o
-3 2 14 0.406 0.581 0.177 143.442 o
-3 2 15 9.505 9.729 0.177 56.713 o
-3 2 16 9.086 9.197 0.423 20.270 o
-3 2 17 1.766 1.841 0.453 21.863 o
-3 3 1 57.319 54.022 0.758 2.019 o
-3 3 2 3.886 4.254 0.158 135.872 o
-3 3 3 32.877 37.104 0.315 6.295 o
-3 3 4 3.163 2.422 0.138 192.593 o
-3 3 5 241.531 232.306 2.797 0.120 o
-3 3 6 5.147 6.263 0.177 95.295 o
-3 3 8 30.073 30.339 0.384 7.218 o
-3 3 9 56.936 55.489 1.546 1.112 o
-3 3 10 31.963 32.338 0.473 5.907 o
-3 3 11 3.668 3.703 0.305 45.086 o
-3 3 12 35.255 36.415 0.689 3.953 o
-3 3 13 14.700 15.234 0.492 12.598 o
-3 3 14 1.964 1.999 0.158 168.261 o
-3 3 15 15.364 16.130 0.325 19.321 o
-3 3 16 14.075 15.283 0.571 10.359 o
-3 4 1 105.170 98.856 1.014 0.683 o
-3 4 2 96.050 97.369 0.758 0.826 o
-3 4 4 13.437 11.315 0.167 39.896 o
-3 4 5 16.887 15.431 0.266 21.297 o
-3 4 6 9.238 9.995 0.345 27.209 o
-3 4 7 87.039 85.572 0.916 0.945 o
-3 4 8 13.443 13.392 0.463 14.630 o
-3 4 9 4.161 4.313 0.246 64.661 o
-3 4 10 1.305 1.457 0.256 67.995 o
-3 4 11 18.836 19.232 0.384 13.422 o
-3 4 12 22.864 23.948 0.571 7.411 o
-3 4 13 9.901 10.359 0.463 16.912 o
-3 4 14 9.436 9.828 0.266 38.041 o
-3 4 15 2.070 2.176 0.483 19.234 o
-3 5 1 45.888 40.354 0.335 3.989 o
-3 5 2 8.094 7.868 0.158 77.066 o
-3 5 3 64.456 58.483 0.492 1.969 o
-3 5 5 7.310 7.159 0.197 67.968 o
-3 5 6 0.374 0.423 0.128 274.650 o
-3 5 7 1.790 1.841 0.148 192.150 o
-3 5 8 2.366 1.979 0.246 71.519 o
-3 5 9 16.053 16.691 0.354 17.067 o
-3 5 10 10.142 10.605 0.601 10.855 o
-3 5 11 6.305 5.682 0.886 5.618 o
-3 5 12 2.810 2.846 0.177 127.002 o
-3 5 13 0.025 0.207 0.118 323.821 o
-3 5 15 21.487 23.594 0.630 6.889 o
-3 6 1 91.271 83.524 0.660 0.988 o
-3 6 2 49.535 50.516 0.423 3.038 o
-3 6 3 9.778 8.193 0.236 44.817 o
-3 6 4 30.879 29.630 0.295 7.852 o
-3 6 5 6.888 6.332 0.148 99.454 o
-3 6 6 0.386 0.492 0.167 160.858 o
-3 6 7 4.756 4.815 0.167 112.966 o
-3 6 8 4.810 4.609 0.266 54.798 o
-3 6 9 2.083 1.408 0.433 23.861 o
-3 6 10 4.114 5.111 0.630 11.097 o
-3 6 12 7.438 7.582 0.207 62.574 o
-3 6 13 4.647 5.061 0.128 158.996 o
-3 6 14 0.135 0.207 0.138 237.808 o
-3 6 16 0.427 0.325 0.266 63.909 o
-3 7 1 33.691 31.688 0.305 6.775 o
-3 7 2 0.028 0.167 0.128 275.946 o
-3 7 3 111.577 113.125 0.975 0.598 o
-3 7 4 10.211 11.009 0.246 38.194 o
-3 7 5 1.071 0.896 0.148 202.297 o
-3 7 6 8.687 9.020 0.207 54.144 o
-3 7 7 60.187 59.724 0.719 1.873 o
-3 7 8 8.709 8.498 0.315 32.633 o
-3 7 9 6.995 6.706 0.699 8.801 o
-3 7 10 5.800 5.574 0.167 99.876 o
-3 7 11 9.921 9.759 0.177 54.695 o
-3 7 12 5.901 6.115 0.128 128.587 o
-3 7 13 9.459 9.788 0.266 38.035 o
-3 7 14 3.608 3.978 0.128 190.662 o
-3 7 15 2.699 2.462 0.364 33.168 o
-3 8 1 0.687 0.719 0.118 318.074 o
-3 8 2 3.860 3.575 0.158 140.078 o
-3 8 4 0.466 0.679 0.148 205.869 o
-3 8 5 45.938 45.474 0.611 3.063 o
-3 8 6 0.710 0.404 0.167 160.281 o
-3 8 7 3.850 3.447 0.315 42.442 o
-3 8 8 16.013 15.726 0.374 16.539 o
-3 8 11 1.590 1.644 0.128 254.818 o
-3 8 12 5.119 5.199 0.167 107.761 o
-3 9 1 1.120 1.182 0.118 308.766 o
-3 9 2 5.577 6.391 0.354 31.478 o
-3 9 3 115.089 119.063 1.132 0.537 o
-3 9 5 0.373 0.335 0.177 143.648 o
-3 9 6 51.728 52.417 0.601 2.537 o
-3 9 7 16.310 16.189 0.384 15.764 o
-3 9 8 0.223 0.246 0.158 181.995 o
-3 9 9 3.751 3.791 0.197 97.790 o
-3 9 10 2.989 2.698 0.158 154.738 o
-3 9 11 1.315 0.935 0.226 86.912 o
-3 9 12 6.393 6.972 0.364 29.069 o
-3 9 13 1.552 1.881 0.374 31.969 o
-3 10 1 30.566 30.211 0.374 7.198 o
-3 10 2 36.403 35.381 0.650 4.084 o
-3 10 3 36.310 36.829 0.699 3.801 o
-3 10 4 2.862 2.462 0.187 116.189 o
-3 10 7 3.614 3.437 0.177 118.796 o
-3 10 10 8.658 8.892 0.187 60.141 o
-3 10 11 0.301 0.276 0.138 237.411 o
-3 11 1 17.543 18.060 0.679 7.214 o
-3 11 2 35.825 35.312 0.689 3.951 o
-3 11 3 12.530 12.683 0.463 15.199 o
-3 11 5 28.203 29.916 0.315 8.448 o
-3 11 6 5.077 4.924 0.177 101.130 o
-3 11 7 3.825 4.096 0.167 125.294 o
-3 11 8 2.110 1.901 0.167 149.688 o
-3 12 1 3.620 3.890 0.364 32.307 o
-3 12 2 1.381 1.103 0.354 35.741 o
-3 12 3 10.350 9.709 0.453 17.443 o
-3 12 4 0.964 0.768 0.177 142.037 o
-3 12 6 4.395 4.402 0.158 129.194 o
-3 12 7 3.695 4.096 0.384 29.141 o
-3 12 9 1.998 1.881 0.138 215.096 o
-3 12 10 0.374 0.354 0.305 48.499 o
-3 13 1 1.006 0.847 0.384 30.567 o
-3 13 2 2.158 2.038 0.177 133.888 o
-3 13 6 1.141 0.935 0.138 230.623 o
-3 13 7 2.377 2.452 0.305 47.003 o
-3 14 1 8.599 8.528 0.236 47.820 o
-3 14 3 10.202 10.645 0.197 47.506 o
-3 14 4 0.617 0.463 0.404 27.719 o
-3 14 6 3.888 3.860 0.335 37.685 o
-3 14 7 4.320 4.215 0.315 41.507 o
-3 14 8 2.793 3.023 0.079 428.998 o
-3 15 2 12.354 13.569 0.483 14.198 o
-3 15 4 0.459 0.532 0.354 35.955 o
-3 15 6 2.813 2.728 0.276 56.461 o
-3 16 2 1.907 1.477 0.354 35.527 o
-3 16 3 1.177 1.270 0.335 40.074 o
-2 -20 8 0.579 0.748 0.295 51.700 o
-2 -20 9 0.133 0.335 0.305 48.525 o
-2 -20 10 0.001 0.414 0.325 42.827 o
-2 -19 7 0.024 0.394 0.364 34.068 o
-2 -19 13 1.644 1.329 0.354 35.636 o
-2 -19 16 0.798 1.044 0.305 48.324 o
-2 -18 7 0.915 0.709 0.414 26.384 o
-2 -18 10 0.897 0.916 0.423 25.166 o
-2 -18 13 1.207 1.162 0.423 25.121 o
-2 -18 14 0.456 0.522 0.177 143.411 o
-2 -17 6 0.412 0.236 0.177 143.659 o
-2 -17 8 4.257 4.412 0.345 35.181 o
-2 -17 11 16.853 18.424 0.620 8.316 o
-2 -17 12 16.563 19.291 0.384 14.671 o
-2 -17 13 1.022 1.113 0.138 230.893 o
-2 -17 14 0.327 0.384 0.158 181.737 o
-2 -16 4 1.417 1.211 0.492 18.584 o
-2 -16 5 2.357 2.747 0.473 19.953 o
-2 -16 7 2.033 1.969 0.187 121.788 o
-2 -16 9 2.377 2.610 0.483 19.165 o
-2 -16 10 2.898 3.033 0.197 104.335 o
-2 -16 11 2.630 2.767 0.148 176.752 o
-2 -16 12 1.638 1.664 0.148 194.570 o
-2 -16 13 4.947 5.505 0.325 37.857 o
-2 -16 14 0.373 0.335 0.167 161.002 o
-2 -16 15 0.670 0.492 0.158 180.770 o
-2 -16 16 1.261 1.192 0.404 27.611 o
-2 -16 19 0.061 0.167 0.108 385.320 o
-2 -15 1 1.388 0.581 0.492 18.607 o
-2 -15 3 2.570 2.669 0.453 21.666 o
-2 -15 4 9.417 9.650 0.512 14.605 o
-2 -15 6 2.933 2.767 0.443 22.533 o
-2 -15 10 33.017 37.646 0.729 3.899 o
-2 -15 11 7.355 8.085 0.423 21.568 o
-2 -15 12 3.001 2.531 0.236 75.238 o
-2 -15 13 2.313 2.235 0.226 83.678 o
-2 -15 14 7.024 7.110 0.443 20.322 o
-2 -15 15 0.273 0.286 0.138 237.470 o
-2 -15 17 4.449 4.579 0.384 28.605 o
-2 -15 18 0.800 0.699 0.128 270.884 o
-2 -15 21 0.962 0.886 0.138 232.323 o
-2 -14 2 13.700 13.904 0.551 11.197 o
-2 -14 3 5.439 5.524 0.453 20.472 o
-2 -14 4 2.137 2.078 0.197 109.917 o
-2 -14 5 7.662 7.760 0.236 51.963 o
-2 -14 6 0.786 0.561 0.305 48.398 o
-2 -14 8 1.080 0.955 0.187 127.143 o
-2 -14 9 0.002 0.217 0.197 116.599 o
-2 -14 10 0.879 0.778 0.148 203.785 o
-2 -14 11 11.390 11.935 0.197 41.374 o
-2 -14 15 0.009 0.187 0.177 143.949 o
-2 -14 17 3.993 4.352 0.167 122.466 o
-2 -14 18 1.562 1.536 0.128 256.132 o
-2 -14 20 0.803 0.571 0.187 128.190 o
-2 -13 1 23.973 23.614 0.354 10.633 o
-2 -13 2 9.544 9.286 0.246 41.986 o
-2 -13 3 17.223 17.607 0.620 8.323 o
-2 -13 4 5.174 5.022 0.404 25.578 o
-2 -13 6 8.696 8.922 0.207 54.306 o
-2 -13 7 0.522 0.315 0.167 160.776 o
-2 -13 9 0.570 0.522 0.148 205.778 o
-2 -13 10 2.758 2.708 0.167 141.422 o
-2 -13 13 19.635 20.778 0.423 11.588 o
-2 -13 14 7.910 8.892 0.197 60.688 o
-2 -13 15 3.190 3.378 0.167 134.629 o
-2 -13 16 7.153 7.218 0.158 87.084 o
-2 -13 18 2.232 2.137 0.483 19.216 o
-2 -13 19 3.037 3.141 0.118 238.888 o
-2 -13 20 4.451 4.431 0.138 153.790 o
-2 -13 21 0.773 0.729 0.108 375.783 o
-2 -12 1 8.662 8.705 0.423 20.658 o
-2 -12 2 0.608 0.532 0.167 160.372 o
-2 -12 3 80.532 83.189 0.748 1.116 o
-2 -12 4 30.349 31.068 0.611 5.225 o
-2 -12 5 3.955 4.254 0.167 123.293 o
-2 -12 7 16.641 16.977 0.256 21.197 o
-2 -12 8 2.642 2.442 0.128 227.497 o
-2 -12 10 11.209 11.669 0.315 27.036 o
-2 -12 12 4.832 4.668 0.167 112.948 o
-2 -12 13 0.745 0.561 0.187 128.302 o
-2 -12 14 16.215 16.465 0.620 8.619 o
-2 -12 15 4.888 5.081 0.394 26.911 o
-2 -12 16 0.043 0.158 0.128 275.936 o
-2 -12 17 12.508 13.185 0.207 35.288 o
-2 -12 19 5.077 5.672 0.512 16.336 o
-2 -12 20 0.487 0.492 0.108 381.389 o
-2 -12 21 1.249 1.132 0.315 45.199 o
-2 -12 23 0.286 0.364 0.295 51.795 o
-2 -11 1 1.497 1.664 0.197 112.912 o
-2 -11 2 21.368 20.807 0.423 10.883 o
-2 -11 3 22.423 22.855 0.266 13.345 o
-2 -11 4 14.379 14.170 0.207 30.030 o
-2 -11 5 3.597 3.437 0.118 219.797 o
-2 -11 6 25.186 25.425 0.354 9.792 o
-2 -11 7 8.915 9.197 0.305 33.272 o
-2 -11 8 13.748 13.904 0.187 33.426 o
-2 -11 9 2.073 1.802 0.118 282.073 o
-2 -11 10 29.897 30.477 0.384 7.244 o
-2 -11 11 1.239 0.778 0.148 201.572 o
-2 -11 12 0.211 0.217 0.177 143.851 o
-2 -11 13 1.855 1.989 0.158 169.243 o
-2 -11 14 5.544 5.564 0.217 71.609 o
-2 -11 15 8.512 8.232 0.276 39.900 o
-2 -11 16 1.154 1.359 0.374 32.121 o
-2 -11 17 1.524 1.536 0.246 73.145 o
-2 -11 18 4.401 4.500 0.128 169.123 o
-2 -11 19 6.219 6.214 0.158 100.099 o
-2 -11 20 4.162 4.165 0.354 33.553 o
-2 -10 1 29.221 28.872 0.374 7.716 o
-2 -10 2 22.467 23.742 0.226 13.818 o
-2 -10 4 8.144 7.720 0.158 77.244 o
-2 -10 5 79.034 82.638 0.945 1.056 o
-2 -10 6 7.551 7.809 0.138 90.956 o
-2 -10 7 0.638 0.620 0.098 456.516 o
-2 -10 9 46.068 46.607 0.709 2.776 o
-2 -10 10 7.579 7.287 0.226 55.990 o
-2 -10 12 7.340 7.523 0.325 33.640 o
-2 -10 13 31.740 32.594 0.620 4.889 o
-2 -10 14 0.333 0.197 0.177 143.761 o
-2 -10 15 1.664 1.576 0.177 137.790 o
-2 -10 16 4.597 4.943 0.374 29.811 o
-2 -10 17 6.776 7.159 0.138 102.546 o
-2 -10 19 0.092 0.187 0.128 275.859 o
-2 -10 20 0.160 0.167 0.108 385.023 o
-2 -10 22 0.650 0.453 0.217 96.003 o
-2 -9 1 187.596 190.042 1.595 0.213 o
-2 -9 2 1.401 1.221 0.108 356.692 o
-2 -9 3 52.072 52.653 0.542 2.611 o
-2 -9 4 2.680 2.669 0.167 142.248 o
-2 -9 5 113.276 115.734 1.182 0.548 o
-2 -9 6 15.973 15.805 0.325 18.922 o
-2 -9 7 0.728 0.611 0.138 234.885 o
-2 -9 8 11.094 10.812 0.226 39.321 o
-2 -9 9 0.580 0.404 0.108 380.832 o
-2 -9 10 2.361 2.127 0.118 270.686 o
-2 -9 11 32.470 32.890 0.591 4.975 o
-2 -9 12 67.874 69.236 0.798 1.461 o
-2 -9 14 1.042 0.876 0.158 178.510 o
-2 -9 16 1.601 1.300 0.177 138.725 o
-2 -9 17 1.712 1.526 0.217 93.514 o
-2 -9 18 2.190 2.304 0.118 272.812 o
-2 -9 19 0.794 0.945 0.177 142.261 o
-2 -9 21 5.556 5.938 0.158 108.107 o
-2 -9 22 0.136 0.128 0.108 385.173 o
-2 -9 23 0.327 0.384 0.236 80.886 o
-2 -8 1 119.425 123.977 1.192 0.496 o
-2 -8 2 16.171 16.602 0.286 20.398 o
-2 -8 3 4.242 4.372 0.305 43.971 o
-2 -8 4 16.645 16.898 0.335 17.429 o
-2 -8 5 21.762 22.353 0.551 8.105 o
-2 -8 6 42.923 43.397 0.601 3.379 o
-2 -8 7 2.015 2.068 0.226 84.583 o
-2 -8 8 9.559 9.365 0.177 57.328 o
-2 -8 9 41.312 42.156 0.620 3.490 o
-2 -8 10 2.003 1.930 0.108 327.848 o
-2 -8 11 53.810 55.765 0.788 2.072 o
-2 -8 12 60.036 60.679 0.591 2.000 o
-2 -8 13 11.451 10.950 0.207 41.182 o
-2 -8 14 17.695 17.518 0.256 19.718 o
-2 -8 15 14.259 14.820 0.246 26.524 o
-2 -8 16 20.846 20.866 0.305 14.037 o
-2 -8 17 0.026 0.758 0.561 14.354 o
-2 -8 18 2.673 2.708 0.118 254.674 o
-2 -8 19 1.781 1.772 0.167 152.340 o
-2 -8 21 1.881 1.950 0.118 284.939 o
-2 -8 22 0.898 0.926 0.286 55.168 o
-2 -7 1 11.612 11.570 0.197 41.254 o
-2 -7 2 8.783 8.282 0.236 47.633 o
-2 -7 3 21.237 22.422 0.354 12.154 o
-2 -7 4 20.607 21.575 0.354 12.691 o
-2 -7 5 0.790 0.778 0.098 451.290 o
-2 -7 6 25.266 27.011 0.354 9.471 o
-2 -7 7 39.643 42.579 0.453 4.210 o
-2 -7 8 15.282 15.234 0.207 27.327 o
-2 -7 9 4.822 4.756 0.148 133.204 o
-2 -7 10 26.775 26.095 0.433 8.092 o
-2 -7 11 85.219 87.089 0.788 1.005 o
-2 -7 13 13.709 13.392 0.217 31.322 o
-2 -7 15 3.935 3.683 0.177 115.293 o
-2 -7 17 6.920 6.962 0.246 52.634 o
-2 -7 18 22.188 22.796 0.492 8.930 o
-2 -7 19 5.289 5.386 0.128 144.484 o
-2 -7 20 0.810 0.778 0.128 270.444 o
-2 -7 21 1.734 1.704 0.364 33.674 o
-2 -7 22 0.993 0.817 0.266 63.569 o
-2 -6 1 156.144 159.761 1.408 0.301 o
-2 -6 2 17.429 17.193 0.217 22.010 o
-2 -6 3 21.744 23.111 0.354 11.740 o
-2 -6 4 60.387 62.185 0.512 2.036 o
-2 -6 5 412.020 430.718 3.634 0.043 o
-2 -6 6 5.306 5.180 0.177 98.300 o
-2 -6 7 36.697 38.916 0.345 5.278 o
-2 -6 8 16.163 16.593 0.266 21.463 o
-2 -6 9 23.768 25.248 0.384 9.886 o
-2 -6 10 7.047 6.854 0.197 70.160 o
-2 -6 11 39.130 38.936 0.374 4.792 o
-2 -6 12 2.773 2.708 0.138 196.716 o
-2 -6 13 3.584 3.555 0.148 158.432 o
-2 -6 14 19.367 19.044 0.266 17.000 o
-2 -6 15 0.844 1.044 0.158 179.049 o
-2 -6 16 2.594 2.393 0.217 89.925 o
-2 -6 17 2.029 2.147 0.167 149.383 o
-2 -6 18 0.281 0.148 0.158 181.984 o
-2 -6 19 0.530 0.571 0.226 87.906 o
-2 -6 21 5.536 5.987 0.177 93.352 o
-2 -6 22 2.688 2.610 0.256 65.283 o
-2 -5 1 0.442 0.532 0.138 236.515 o
-2 -5 2 6.768 6.755 0.354 30.199 o
-2 -5 3 28.864 32.082 0.414 7.033 o
-2 -5 4 347.599 364.032 3.082 0.060 o
-2 -5 5 114.281 122.263 0.965 0.556 o
-2 -5 6 1.990 2.245 0.118 278.643 o
-2 -5 7 39.823 41.083 0.364 4.588 o
-2 -5 8 40.204 42.205 0.384 4.403 o
-2 -5 9 43.028 44.618 0.483 3.671 o
-2 -5 10 21.844 21.713 0.295 13.398 o
-2 -5 11 0.121 0.138 0.118 323.714 o
-2 -5 12 7.177 7.267 0.167 81.666 o
-2 -5 13 16.362 16.337 0.236 22.992 o
-2 -5 14 3.382 3.181 0.158 147.755 o
-2 -5 15 3.107 3.043 0.266 59.745 o
-2 -5 16 7.938 7.484 0.286 39.855 o
-2 -5 17 7.861 7.937 0.148 82.878 o
-2 -5 20 3.419 3.378 0.128 201.064 o
-2 -5 21 2.198 1.999 0.295 50.442 o
-2 -4 1 86.279 91.589 1.172 0.829 o
-2 -4 2 20.549 21.693 0.217 16.288 o
-2 -4 3 1876.920 1938.720 24.342 0.002 o
-2 -4 4 1531.620 1587.580 16.770 0.003 o
-2 -4 5 387.148 401.166 3.584 0.048 o
-2 -4 6 29.586 30.133 0.286 8.249 o
-2 -4 7 208.256 211.509 1.832 0.171 o
-2 -4 8 15.426 16.721 0.305 20.045 o
-2 -4 9 89.777 91.983 0.886 0.887 o
-2 -4 10 3.661 4.116 0.177 115.749 o
-2 -4 11 16.084 16.209 0.207 25.166 o
-2 -4 12 13.891 13.333 0.266 26.665 o
-2 -4 13 0.189 0.315 0.148 207.036 o
-2 -4 14 2.382 2.166 0.158 163.668 o
-2 -4 15 14.327 14.810 0.266 24.954 o
-2 -4 16 1.411 1.694 0.699 9.230 o
-2 -4 17 10.198 10.290 0.384 22.324 o
-2 -4 18 1.948 2.176 0.158 167.631 o
-2 -4 19 0.730 0.798 0.404 27.697 o
-2 -4 20 6.986 7.080 0.394 24.977 o
-2 -3 1 1.216 1.349 0.089 520.421 o
-2 -3 2 75.499 82.914 0.640 1.252 o
-2 -3 3 40.319 39.832 0.620 3.665 o
-2 -3 4 5.663 5.780 0.128 134.965 o
-2 -3 5 17.684 19.399 0.217 20.331 o
-2 -3 6 12.958 13.796 0.217 32.487 o
-2 -3 8 16.475 17.164 0.197 24.348 o
-2 -3 9 37.154 37.518 0.443 4.873 o
-2 -3 10 0.039 0.315 0.158 182.134 o
-2 -3 11 1.056 1.054 0.128 266.457 o
-2 -3 13 2.231 1.891 0.187 121.039 o
-2 -3 14 27.555 27.897 0.532 6.593 o
-2 -3 15 2.029 1.536 0.187 122.781 o
-2 -3 17 1.403 1.359 0.167 155.754 o
-2 -3 18 3.326 3.368 0.246 68.033 o
-2 -3 19 10.067 11.383 0.177 50.505 o
-2 -3 20 2.409 2.482 0.315 44.163 o
-2 -3 21 0.348 0.492 0.266 63.908 o
-2 -2 1 21.844 22.540 0.295 13.150 o
-2 -2 2 1789.510 1859.070 13.835 0.002 o
-2 -2 3 21.476 19.901 0.187 16.991 o
-2 -2 4 96.275 96.473 0.778 0.823 o
-2 -2 5 106.569 111.618 0.886 0.650 o
-2 -2 6 180.041 184.291 1.635 0.226 o
-2 -2 7 2.503 2.806 0.098 340.888 o
-2 -2 8 0.014 0.207 0.089 575.606 o
-2 -2 9 222.551 222.902 1.832 0.153 o
-2 -2 10 17.650 18.326 0.217 21.014 o
-2 -2 11 13.489 13.215 0.305 24.093 o
-2 -2 12 17.784 17.144 0.226 21.145 o
-2 -2 13 70.046 68.999 0.729 1.464 o
-2 -2 14 3.014 3.122 0.177 124.537 o
-2 -2 15 0.468 0.325 0.148 206.422 o
-2 -2 17 0.796 0.807 0.167 159.477 o
-2 -2 18 9.896 10.527 0.453 17.465 o
-2 -1 1 0.154 0.394 0.089 573.734 o
-2 -1 2 0.296 0.315 0.059 1277.990 o
-2 -1 3 206.996 207.353 1.536 0.181 o
-2 -1 4 505.230 519.875 3.959 0.030 o
-2 -1 5 71.126 75.144 0.867 1.286 o
-2 -1 6 11.574 12.043 0.236 35.245 o
-2 -1 7 24.916 26.459 0.256 11.135 o
-2 -1 8 77.004 81.318 0.670 1.226 o
-2 -1 9 100.783 102.135 0.985 0.710 o
-2 -1 10 8.376 8.134 0.128 85.937 o
-2 -1 11 9.100 8.853 0.148 69.966 o
-2 -1 12 8.842 8.813 0.374 24.973 o
-2 -1 13 1.033 0.965 0.177 141.537 o
-2 -1 14 23.082 23.013 0.325 11.728 o
-2 -1 15 2.273 1.960 0.197 109.607 o
-2 -1 16 5.584 5.524 0.246 58.805 o
-2 -1 17 3.202 3.062 0.177 123.365 o
-2 -1 18 0.437 0.512 0.384 30.643 o
-2 -1 19 0.498 0.404 0.345 38.039 o
-2 0 1 310.438 313.802 2.206 0.081 o
-2 0 2 21.587 18.424 0.187 17.595 o
-2 0 3 0.549 0.473 0.108 380.801 o
-2 0 4 228.143 243.975 1.871 0.140 o
-2 0 5 144.240 146.793 1.320 0.353 o
-2 0 6 141.646 139.151 1.182 0.382 o
-2 0 7 30.612 29.433 0.345 7.541 o
-2 0 8 220.853 220.479 1.930 0.154 o
-2 0 9 34.930 35.352 0.354 5.848 o
-2 0 10 4.920 4.776 0.118 170.889 o
-2 0 11 103.979 104.371 1.004 0.673 o
-2 0 12 103.296 106.636 1.891 0.485 o
-2 0 13 4.645 4.461 0.305 43.384 o
-2 0 14 1.246 1.034 0.187 126.573 o
-2 0 16 12.571 13.107 0.473 14.636 o
-2 1 1 6.879 7.100 0.128 108.085 o
-2 1 2 1516.080 1497.830 10.733 0.003 o
-2 1 3 14.624 14.397 0.177 31.652 o
-2 1 4 370.163 375.406 2.974 0.055 o
-2 1 5 51.099 52.525 0.620 2.533 o
-2 1 6 479.167 465.695 4.313 0.033 o
-2 1 7 30.823 30.950 0.286 7.754 o
-2 1 8 4.764 4.717 0.158 123.238 o
-2 1 9 94.710 96.198 1.162 0.739 o
-2 1 10 0.305 0.414 0.128 274.966 o
-2 1 11 14.461 15.194 0.256 25.204 o
-2 1 12 0.855 0.640 0.148 204.277 o
-2 1 14 7.408 7.582 0.404 23.512 o
-2 1 15 6.203 6.706 0.404 24.531 o
-2 1 16 0.924 0.916 0.522 16.578 o
-2 2 1 37.660 37.094 0.384 5.099 o
-2 2 2 473.263 483.105 3.594 0.034 o
-2 2 3 0.412 0.335 0.118 322.097 o
-2 2 4 124.804 120.766 1.211 0.476 o
-2 2 5 19.588 22.895 0.276 15.001 o
-2 2 6 45.252 43.889 0.650 3.057 o
-2 2 7 43.156 43.072 0.542 3.553 o
-2 2 8 3.878 4.244 0.266 57.167 o
-2 2 10 39.996 39.704 0.522 4.072 o
-2 2 11 16.896 16.671 0.256 21.078 o
-2 2 12 2.217 2.245 0.167 147.643 o
-2 2 13 2.741 2.728 0.423 24.683 o
-2 2 14 5.623 5.367 0.158 110.386 o
-2 2 15 1.167 1.260 0.148 200.358 o
-2 2 18 1.491 1.260 0.374 32.060 o
-2 3 1 377.608 361.098 2.787 0.056 o
-2 3 2 11.989 14.229 0.226 33.080 o
-2 3 3 12.759 15.677 0.236 29.148 o
-2 3 4 137.833 128.250 1.004 0.428 o
-2 3 5 169.351 157.418 1.349 0.279 o
-2 3 6 27.862 27.159 0.581 6.116 o
-2 3 7 21.289 20.778 0.414 11.141 o
-2 3 8 2.152 2.107 0.177 133.722 o
-2 3 9 62.821 62.087 0.709 1.763 o
-2 3 10 6.158 5.524 0.492 17.326 o
-2 3 11 1.025 1.310 0.236 80.031 o
-2 3 12 35.797 36.494 0.414 5.291 o
-2 3 13 6.088 6.450 0.384 26.955 o
-2 3 14 2.087 1.822 0.226 84.698 o
-2 3 15 1.932 1.467 0.187 123.343 o
-2 4 1 50.327 51.777 0.483 2.840 o
-2 4 2 34.150 30.930 0.315 6.695 o
-2 4 3 351.782 367.804 3.003 0.059 o
-2 4 4 86.415 84.578 0.709 1.033 o
-2 4 5 4.216 4.254 0.167 120.797 o
-2 4 6 33.526 33.884 0.384 6.081 o
-2 4 7 17.688 17.203 0.315 17.323 o
-2 4 8 58.804 57.153 0.886 1.758 o
-2 4 9 2.098 2.088 0.236 77.761 o
-2 4 10 1.903 1.595 0.276 58.187 o
-2 4 11 11.312 11.088 0.512 13.759 o
-2 4 12 3.288 3.584 0.364 32.588 o
-2 4 13 22.802 23.476 0.542 7.899 o
-2 4 14 6.279 6.351 0.423 22.590 o
-2 4 15 3.061 3.191 0.463 20.626 o
-2 5 1 44.253 48.084 0.414 3.581 o
-2 5 2 1.788 1.576 0.148 193.526 o
-2 5 3 172.381 161.682 1.379 0.267 o
-2 5 4 46.020 48.271 0.443 3.354 o
-2 5 5 4.241 4.146 0.207 86.820 o
-2 5 6 51.555 53.401 0.492 2.699 o
-2 5 7 20.241 20.177 0.354 13.264 o
-2 5 8 70.007 70.674 1.034 1.233 o
-2 5 10 41.255 42.057 0.591 3.598 o
-2 5 11 1.884 1.763 0.305 47.621 o
-2 5 12 10.374 10.665 0.443 17.799 o
-2 5 13 8.711 8.971 0.197 56.854 o
-2 5 14 15.405 15.943 0.581 9.717 o
-2 5 15 3.209 2.974 0.433 23.448 o
-2 6 1 2.871 1.772 0.098 347.872 o
-2 6 2 5.747 5.702 0.128 134.244 o
-2 6 3 33.980 31.432 0.305 6.737 o
-2 6 4 0.619 1.132 0.167 159.525 o
-2 6 5 119.695 121.141 1.073 0.516 o
-2 6 6 5.318 5.101 0.295 44.445 o
-2 6 7 0.847 0.778 0.158 179.612 o
-2 6 9 8.665 7.976 0.305 34.615 o
-2 6 10 49.835 51.875 1.694 1.074 o
-2 6 11 7.696 7.238 0.167 77.987 o
-2 6 12 1.572 0.995 0.532 15.939 o
-2 6 13 6.050 5.682 0.492 17.334 o
-2 6 14 1.154 1.231 0.138 229.141 o
-2 6 16 1.795 1.812 0.335 39.743 o
-2 7 1 35.153 32.319 0.315 6.320 o
-2 7 2 9.842 10.458 0.148 60.316 o
-2 7 3 3.612 2.944 0.108 254.318 o
-2 7 4 0.704 0.926 0.128 270.733 o
-2 7 5 1.173 1.073 0.138 229.709 o
-2 7 6 14.338 14.347 0.305 22.445 o
-2 7 7 9.075 8.843 0.197 55.547 o
-2 7 8 8.108 8.370 0.305 35.181 o
-2 7 9 12.593 12.171 0.443 16.268 o
-2 7 10 2.335 2.009 0.217 91.293 o
-2 7 12 0.557 0.502 0.187 128.644 o
-2 7 13 21.744 24.254 0.660 6.426 o
-2 8 1 3.541 2.826 0.118 229.481 o
-2 8 2 17.994 17.804 0.187 22.134 o
-2 8 3 0.374 0.404 0.118 322.117 o
-2 8 4 0.732 0.502 0.148 205.175 o
-2 8 5 1.085 1.044 0.158 177.866 o
-2 8 6 4.685 4.697 0.177 105.184 o
-2 8 7 2.496 2.403 0.620 11.655 o
-2 8 8 1.621 1.507 0.325 42.302 o
-2 8 9 1.560 1.231 0.217 94.147 o
-2 8 10 2.330 1.960 0.148 185.503 o
-2 8 11 8.579 8.922 0.246 45.044 o
-2 8 13 1.149 1.221 0.187 126.586 o
-2 9 1 68.164 68.596 0.709 1.528 o
-2 9 2 15.746 16.268 0.325 18.917 o
-2 9 3 7.738 7.661 0.187 68.183 o
-2 9 4 15.584 16.268 0.266 22.350 o
-2 9 5 26.352 26.657 0.364 9.022 o
-2 9 6 15.911 15.903 0.256 22.745 o
-2 9 7 6.792 6.036 0.345 32.006 o
-2 9 8 3.629 3.220 0.217 84.766 o
-2 9 9 14.827 15.401 0.217 27.291 o
-2 9 10 4.194 4.116 0.345 35.353 o
-2 9 11 1.681 1.497 0.118 294.745 o
-2 9 12 9.397 10.704 0.483 15.940 o
-2 10 1 2.965 2.757 0.138 193.101 o
-2 10 2 0.638 0.463 0.158 180.911 o
-2 10 3 28.469 29.699 0.414 7.411 o
-2 10 4 2.870 2.472 0.187 116.116 o
-2 10 6 18.167 18.493 0.551 9.422 o
-2 10 7 0.238 0.226 0.158 181.988 o
-2 10 9 4.372 4.224 0.423 23.913 o
-2 10 10 4.864 4.520 0.128 160.011 o
-2 10 11 1.072 1.359 0.118 308.060 o
-2 10 12 1.436 1.152 0.266 63.136 o
-2 11 1 73.322 76.257 1.123 1.085 o
-2 11 2 6.922 6.243 0.207 68.138 o
-2 11 3 2.017 2.048 0.207 100.669 o
-2 11 4 30.439 31.826 0.414 6.711 o
-2 11 5 21.237 22.343 0.591 7.602 o
-2 11 7 0.937 0.847 0.443 22.983 o
-2 11 8 4.570 4.559 0.138 150.818 o
-2 11 10 8.629 8.922 0.384 24.110 o
-2 12 2 4.810 4.471 0.384 28.427 o
-2 12 3 1.753 1.635 0.177 137.208 o
-2 12 4 0.784 0.945 0.148 203.848 o
-2 12 5 0.496 0.679 0.423 25.203 o
-2 12 8 3.943 4.008 0.374 30.498 o
-2 12 9 1.701 1.408 0.335 39.867 o
-2 13 1 4.103 3.781 0.236 70.381 o
-2 13 2 1.719 1.625 0.148 193.966 o
-2 13 3 17.498 18.700 0.276 18.479 o
-2 13 4 12.599 13.294 0.394 18.701 o
-2 13 5 2.355 2.166 0.158 163.929 o
-2 13 6 0.816 0.532 0.354 35.912 o
-2 13 8 3.150 3.082 0.305 45.993 o
-2 14 1 8.356 8.626 0.197 59.231 o
-2 14 2 0.595 0.453 0.148 205.814 o
-2 14 3 0.170 0.246 0.167 161.279 o
-2 14 4 2.107 1.694 0.374 31.837 o
-2 14 5 2.233 2.462 0.138 207.342 o
-2 14 7 2.398 2.422 0.098 354.832 o
-2 15 3 0.264 0.414 0.394 29.142 o
-2 15 4 0.659 0.591 0.325 42.745 o
-2 16 2 1.825 1.960 0.364 33.605 o
-1 -21 9 0.514 0.433 0.256 68.867 o
-1 -21 12 0.122 0.138 0.079 727.794 o
-1 -20 8 0.761 0.847 0.315 45.400 o
-1 -20 11 2.098 2.314 0.167 148.269 o
-1 -20 13 0.032 0.473 0.315 45.542 o
-1 -20 15 0.507 0.453 0.286 55.376 o
-1 -19 7 1.836 2.088 0.354 35.443 o
-1 -19 9 2.104 2.206 0.384 30.174 o
-1 -19 12 3.268 3.269 0.492 18.234 o
-1 -19 14 0.216 0.374 0.374 32.293 o
-1 -19 15 0.953 0.788 0.315 45.356 o
-1 -18 5 0.658 0.935 0.404 27.697 o
-1 -18 6 3.479 3.909 0.148 157.427 o
-1 -18 9 1.204 1.073 0.414 26.332 o
-1 -18 11 0.218 0.463 0.433 24.087 o
-1 -18 12 0.485 0.581 0.414 26.420 o
-1 -18 17 3.568 4.136 0.325 40.014 o
-1 -17 7 0.803 0.571 0.128 271.402 o
-1 -17 8 0.731 0.542 0.167 160.054 o
-1 -17 9 1.494 1.605 0.177 138.516 o
-1 -17 11 2.453 2.304 0.138 205.138 o
-1 -17 12 0.130 0.207 0.167 161.322 o
-1 -17 13 1.143 1.024 0.354 35.807 o
-1 -17 15 2.424 2.639 0.384 29.999 o
-1 -17 18 3.613 3.614 0.325 40.213 o
-1 -17 20 0.344 0.335 0.266 63.927 o
-1 -16 5 2.686 2.491 0.148 177.808 o
-1 -16 6 0.230 0.187 0.128 275.583 o
-1 -16 8 2.400 2.373 0.217 90.559 o
-1 -16 9 0.396 0.236 0.148 206.716 o
-1 -16 10 1.048 1.014 0.414 26.354 o
-1 -16 11 3.564 3.545 0.226 78.032 o
-1 -16 12 0.302 0.295 0.138 237.383 o
-1 -16 13 0.671 0.532 0.167 160.219 o
-1 -16 14 0.251 0.217 0.167 161.221 o
-1 -16 15 0.344 0.256 0.158 181.817 o
-1 -16 17 1.347 1.507 0.364 33.808 o
-1 -16 20 1.072 0.916 0.286 55.091 o
-1 -16 21 0.478 0.443 0.079 715.602 o
-1 -15 1 1.062 0.542 0.492 18.625 o
-1 -15 3 5.265 5.022 0.473 19.038 o
-1 -15 4 1.754 1.635 0.217 93.293 o
-1 -15 7 0.946 0.679 0.207 104.819 o
-1 -15 8 0.546 0.443 0.207 105.427 o
-1 -15 9 15.998 17.361 0.522 10.900 o
-1 -15 10 63.821 71.412 1.073 1.303 o
-1 -15 13 5.049 5.209 0.276 50.403 o
-1 -15 15 1.901 1.950 0.404 27.422 o
-1 -15 16 3.043 3.348 0.158 150.597 o
-1 -15 19 0.545 0.601 0.108 380.065 o
-1 -14 2 2.488 2.078 0.433 23.724 o
-1 -14 3 3.451 3.141 0.167 133.310 o
-1 -14 5 3.594 3.220 0.177 119.791 o
-1 -14 6 2.648 2.521 0.177 129.250 o
-1 -14 7 4.286 3.890 0.177 111.658 o
-1 -14 8 12.610 13.087 0.236 31.911 o
-1 -14 9 5.892 6.726 0.374 28.255 o
-1 -14 11 19.967 20.413 0.325 14.191 o
-1 -14 13 3.671 3.850 0.384 29.214 o
-1 -14 14 1.037 0.935 0.138 231.522 o
-1 -14 15 2.743 2.984 0.167 140.369 o
-1 -14 17 0.470 0.325 0.138 236.808 o
-1 -14 18 0.531 0.315 0.148 206.253 o
-1 -14 20 0.860 0.896 0.118 314.878 o
-1 -13 1 12.381 11.817 0.266 30.357 o
-1 -13 2 9.724 9.729 0.226 44.731 o
-1 -13 3 0.363 0.404 0.167 160.966 o
-1 -13 4 6.382 6.322 0.305 39.500 o
-1 -13 5 1.285 1.123 0.167 156.927 o
-1 -13 6 0.245 0.394 0.187 129.037 o
-1 -13 7 3.964 3.919 0.364 32.085 o
-1 -13 8 49.332 52.968 0.542 2.760 o
-1 -13 9 30.735 31.787 0.433 6.492 o
-1 -13 10 10.037 10.074 0.207 47.137 o
-1 -13 11 3.356 3.289 0.148 163.455 o
-1 -13 12 14.625 15.066 0.217 27.942 o
-1 -13 13 2.333 2.275 0.207 99.224 o
-1 -13 15 5.514 5.702 0.177 94.624 o
-1 -13 16 4.981 4.933 0.167 110.290 o
-1 -13 18 0.207 0.404 0.384 30.658 o
-1 -13 20 1.519 1.467 0.128 257.346 o
-1 -12 1 19.337 19.625 0.364 13.637 o
-1 -12 2 0.521 0.443 0.118 320.946 o
-1 -12 3 21.461 21.792 0.601 7.465 o
-1 -12 4 0.715 0.620 0.158 180.411 o
-1 -12 5 1.186 1.221 0.187 126.474 o
-1 -12 6 0.578 0.522 0.167 160.451 o
-1 -12 7 1.972 1.989 0.148 189.413 o
-1 -12 8 11.413 11.915 0.305 27.608 o
-1 -12 9 20.009 20.778 0.256 16.047 o
-1 -12 10 2.304 2.068 0.138 209.264 o
-1 -12 11 0.385 0.226 0.158 181.774 o
-1 -12 14 0.801 0.798 0.236 80.492 o
-1 -12 15 11.004 11.698 0.453 16.648 o
-1 -12 16 0.457 0.542 0.148 206.130 o
-1 -12 17 1.193 1.044 0.177 140.873 o
-1 -12 18 1.208 1.132 0.118 307.669 o
-1 -12 20 4.605 4.845 0.148 135.506 o
-1 -11 1 36.139 35.844 0.394 5.389 o
-1 -11 2 22.007 22.068 0.266 13.864 o
-1 -11 4 7.073 6.932 0.266 46.776 o
-1 -11 5 6.276 6.223 0.167 92.957 o
-1 -11 7 1.085 1.014 0.138 230.773 o
-1 -11 8 7.556 7.425 0.158 82.914 o
-1 -11 9 0.978 0.975 0.108 369.644 o
-1 -11 10 3.566 3.417 0.158 144.337 o
-1 -11 11 34.857 35.105 0.384 5.722 o
-1 -11 12 30.926 30.861 0.423 6.629 o
-1 -11 13 0.313 0.414 0.158 181.737 o
-1 -11 14 21.796 21.733 0.404 10.958 o
-1 -11 16 4.351 4.106 0.384 28.792 o
-1 -11 17 3.330 3.378 0.148 163.194 o
-1 -11 18 9.344 9.690 0.207 50.315 o
-1 -11 19 3.525 3.437 0.128 198.161 o
-1 -11 20 0.959 0.778 0.138 232.767 o
-1 -11 22 1.529 1.694 0.266 62.809 o
-1 -10 1 72.318 74.465 0.867 1.270 o
-1 -10 2 96.501 98.394 0.837 0.798 o
-1 -10 3 25.120 25.248 0.256 11.334 o
-1 -10 4 3.445 3.269 0.128 201.670 o
-1 -10 5 28.230 29.187 0.404 7.636 o
-1 -10 8 17.701 18.198 0.276 18.525 o
-1 -10 9 0.915 0.729 0.118 315.260 o
-1 -10 10 12.144 12.299 0.177 41.208 o
-1 -10 12 34.070 35.352 0.384 5.841 o
-1 -10 13 1.297 1.280 0.256 68.087 o
-1 -10 14 8.015 8.035 0.197 62.230 o
-1 -10 15 21.783 22.068 0.295 13.327 o
-1 -10 16 2.834 2.777 0.364 33.032 o
-1 -10 17 11.328 11.511 0.187 43.774 o
-1 -10 18 0.579 0.778 0.138 235.260 o
-1 -10 19 4.975 4.993 0.158 119.372 o
-1 -10 21 0.267 0.305 0.315 45.531 o
-1 -10 22 0.543 0.404 0.079 713.848 o
-1 -9 1 93.672 94.297 0.876 0.836 o
-1 -9 2 15.151 15.007 0.207 27.764 o
-1 -9 3 0.401 0.404 0.128 274.569 o
-1 -9 4 25.101 24.500 0.295 10.929 o
-1 -9 5 53.635 54.790 0.532 2.485 o
-1 -9 6 14.413 14.830 0.197 30.087 o
-1 -9 7 0.258 0.207 0.128 275.481 o
-1 -9 8 90.378 94.642 1.172 0.778 o
-1 -9 9 0.053 0.177 0.098 466.207 o
-1 -9 10 6.481 6.263 0.207 70.239 o
-1 -9 11 0.197 0.276 0.197 116.529 o
-1 -9 12 27.098 26.686 0.335 9.138 o
-1 -9 13 14.289 14.131 0.256 26.251 o
-1 -9 15 4.892 4.707 0.177 103.481 o
-1 -9 17 9.755 9.709 0.197 50.962 o
-1 -9 18 15.397 15.716 0.217 26.064 o
-1 -9 21 1.751 1.753 0.108 338.818 o
-1 -9 22 0.328 0.345 0.089 571.569 o
-1 -8 1 1.385 1.172 0.118 304.098 o
-1 -8 2 5.278 4.825 0.167 108.023 o
-1 -8 3 87.017 90.663 0.926 0.912 o
-1 -8 4 71.493 74.287 0.660 1.414 o
-1 -8 5 0.297 0.118 0.118 323.223 o
-1 -8 6 5.642 5.396 0.158 110.027 o
-1 -8 7 71.992 74.169 0.689 1.387 o
-1 -8 8 21.315 21.664 0.236 15.190 o
-1 -8 9 1.146 0.827 0.138 231.056 o
-1 -8 11 65.714 66.774 1.004 1.367 o
-1 -8 12 0.145 0.187 0.138 237.809 o
-1 -8 13 1.675 1.664 0.187 123.992 o
-1 -8 14 3.487 3.437 0.187 109.388 o
-1 -8 15 19.594 19.547 0.295 15.642 o
-1 -8 16 0.253 0.226 0.177 143.817 o
-1 -8 18 0.264 0.236 0.118 323.118 o
-1 -8 19 0.309 0.197 0.128 275.341 o
-1 -8 20 1.211 1.280 0.364 33.866 o
-1 -7 1 107.193 110.840 0.906 0.645 o
-1 -7 2 18.697 18.779 0.226 19.168 o
-1 -7 3 262.086 271.547 2.294 0.107 o
-1 -7 4 1.342 1.408 0.138 226.309 o
-1 -7 5 7.623 7.888 0.197 64.514 o
-1 -7 6 16.021 16.780 0.177 26.464 o
-1 -7 7 11.446 11.492 0.177 44.958 o
-1 -7 8 0.194 0.158 0.108 384.910 o
-1 -7 9 25.679 25.711 0.286 10.539 o
-1 -7 10 135.017 134.208 1.172 0.414 o
-1 -7 11 18.503 18.444 0.276 17.671 o
-1 -7 12 8.202 8.016 0.187 64.700 o
-1 -7 13 0.624 0.719 0.148 205.175 o
-1 -7 14 3.189 3.801 0.266 58.928 o
-1 -7 15 1.558 1.487 0.167 154.556 o
-1 -7 16 5.234 5.189 0.187 91.643 o
-1 -7 17 0.014 0.158 0.128 275.961 o
-1 -7 18 1.984 2.038 0.138 214.187 o
-1 -7 19 10.105 10.389 0.236 40.878 o
-1 -6 2 66.730 71.264 0.758 1.494 o
-1 -6 3 66.205 70.418 0.630 1.613 o
-1 -6 4 99.107 100.264 0.827 0.767 o
-1 -6 6 1.235 1.083 0.098 433.410 o
-1 -6 7 120.102 123.386 1.024 0.515 o
-1 -6 8 3.757 3.417 0.128 193.441 o
-1 -6 9 28.038 28.951 0.394 7.822 o
-1 -6 10 110.753 112.908 1.142 0.576 o
-1 -6 11 69.692 69.108 0.630 1.538 o
-1 -6 12 29.786 29.030 0.325 8.005 o
-1 -6 13 2.160 2.235 0.197 109.508 o
-1 -6 14 54.815 54.258 0.551 2.411 o
-1 -6 15 2.774 2.659 0.167 141.490 o
-1 -6 16 5.035 4.993 0.197 86.874 o
-1 -6 17 1.543 1.329 0.128 258.023 o
-1 -6 18 0.332 0.266 0.128 275.145 o
-1 -6 19 3.998 4.500 0.414 25.101 o
-1 -6 20 0.978 0.512 0.354 35.888 o
-1 -6 21 1.015 0.837 0.138 232.098 o
-1 -5 1 74.243 78.758 0.689 1.293 o
-1 -5 3 110.858 115.035 0.985 0.595 o
-1 -5 4 157.768 159.446 1.300 0.304 o
-1 -5 5 114.366 120.658 1.132 0.537 o
-1 -5 6 4.105 3.703 0.148 150.143 o
-1 -5 7 7.182 7.779 0.236 53.494 o
-1 -5 8 0.702 0.463 0.138 235.448 o
-1 -5 9 212.507 213.419 1.960 0.163 o
-1 -5 10 6.489 6.607 0.197 73.858 o
-1 -5 11 20.864 20.206 0.286 14.779 o
-1 -5 12 1.203 1.201 0.128 263.734 o
-1 -5 13 7.231 7.031 0.177 77.378 o
-1 -5 14 1.734 1.477 0.158 172.267 o
-1 -5 15 2.688 2.472 0.315 43.955 o
-1 -5 16 52.015 51.668 0.857 2.101 o
-1 -5 17 1.083 0.935 0.138 231.126 o
-1 -5 18 6.102 6.657 0.177 86.588 o
-1 -5 19 0.971 0.640 0.138 233.190 o
-1 -5 20 3.738 3.486 0.128 193.120 o
-1 -4 1 38.427 38.138 0.325 5.143 o
-1 -4 2 23.543 25.051 0.246 12.387 o
-1 -4 3 1018.920 1045.490 8.252 0.007 o
-1 -4 4 120.117 123.021 1.004 0.518 o
-1 -4 5 188.537 193.793 1.497 0.212 o
-1 -4 6 4.631 4.697 0.217 77.532 o
-1 -4 7 38.916 42.274 0.374 4.595 o
-1 -4 8 15.783 16.908 0.226 23.955 o
-1 -4 9 43.160 42.255 0.423 3.944 o
-1 -4 10 32.337 32.703 0.502 5.604 o
-1 -4 11 22.385 21.762 0.286 13.279 o
-1 -4 12 27.134 27.149 0.305 9.401 o
-1 -4 13 7.246 7.395 0.187 71.745 o
-1 -4 14 1.077 0.827 0.158 178.462 o
-1 -4 15 6.227 6.361 0.256 52.428 o
-1 -4 16 1.980 2.176 0.374 31.801 o
-1 -4 17 2.343 2.245 0.138 207.306 o
-1 -4 18 1.226 1.418 0.404 27.599 o
-1 -4 19 3.693 3.978 0.167 127.115 o
-1 -4 20 5.948 5.702 0.325 36.557 o
-1 -3 1 273.372 279.789 2.048 0.102 o
-1 -3 2 743.789 770.497 5.416 0.014 o
-1 -3 3 72.111 78.423 0.620 1.376 o
-1 -3 4 69.615 72.544 0.581 1.527 o
-1 -3 5 40.703 41.910 0.473 4.062 o
-1 -3 6 189.480 196.846 1.605 0.206 o
-1 -3 7 61.938 63.987 0.532 1.926 o
-1 -3 8 3.342 3.447 0.118 226.502 o
-1 -3 9 2.083 2.147 0.128 241.618 o
-1 -3 10 4.929 5.751 0.158 115.729 o
-1 -3 11 20.883 20.876 0.276 14.797 o
-1 -3 12 12.510 12.368 0.335 23.326 o
-1 -3 13 5.492 5.642 0.158 110.311 o
-1 -3 14 3.164 3.013 0.148 167.990 o
-1 -3 15 22.459 22.954 0.325 12.055 o
-1 -3 16 0.526 0.551 0.167 160.533 o
-1 -3 17 0.015 0.207 0.158 182.176 o
-1 -3 18 2.054 2.255 0.148 186.991 o
-1 -3 19 8.775 9.375 0.187 58.410 o
-1 -2 1 2354.450 2319.490 14.131 0.001 o
-1 -2 2 11560.600 10647.300 75.706 0.000 o
-1 -2 3 462.411 469.506 3.250 0.036 o
-1 -2 4 37.208 39.310 0.601 4.047 o
-1 -2 5 366.759 365.923 2.964 0.057 o
-1 -2 6 257.440 262.202 2.275 0.112 o
-1 -2 7 189.038 196.935 1.595 0.207 o
-1 -2 8 8.996 9.512 0.128 74.564 o
-1 -2 9 20.200 18.848 0.236 17.311 o
-1 -2 10 6.641 6.105 0.177 84.677 o
-1 -2 11 0.980 0.876 0.098 444.820 o
-1 -2 13 23.891 24.884 0.611 6.634 o
-1 -2 14 2.285 2.088 0.148 185.270 o
-1 -2 15 13.637 13.048 0.207 32.796 o
-1 -2 16 0.310 0.276 0.138 237.388 o
-1 -2 17 0.181 0.315 0.256 68.971 o
-1 -2 18 8.401 8.774 0.167 68.211 o
-1 -1 1 1.186 2.029 0.059 978.013 o
-1 -1 2 60.607 56.769 0.512 2.137 o
-1 -1 3 201.144 210.445 1.507 0.187 o
-1 -1 4 55.614 59.192 0.463 2.363 o
-1 -1 5 8.670 10.497 0.158 64.453 o
-1 -1 6 1.332 1.428 0.148 198.389 o
-1 -1 7 108.163 112.386 0.896 0.635 o
-1 -1 8 0.002 0.158 0.098 466.359 o
-1 -1 9 5.893 5.524 0.128 133.319 o
-1 -1 10 5.816 5.002 0.167 102.287 o
-1 -1 11 13.396 13.294 0.207 33.063 o
-1 -1 12 26.942 27.700 0.286 9.601 o
-1 -1 13 8.062 7.779 0.187 66.080 o
-1 -1 15 8.257 8.272 0.197 60.517 o
-1 -1 16 8.260 8.410 0.276 40.242 o
-1 -1 17 7.657 7.868 0.286 40.026 o
-1 -1 18 9.686 10.074 0.394 21.967 o
-1 0 1 466.785 466.670 3.043 0.036 o
-1 0 2 15.701 17.292 0.197 25.474 o
-1 0 3 254.335 254.787 1.871 0.120 o
-1 0 4 610.435 608.451 4.549 0.021 o
-1 0 5 33.701 32.496 0.305 6.679 o
-1 0 6 4.302 4.254 0.187 101.224 o
-1 0 7 146.361 141.318 1.093 0.370 o
-1 0 8 113.716 116.099 0.926 0.583 o
-1 0 9 12.191 12.102 0.276 29.384 o
-1 0 10 1.154 0.906 0.108 366.597 o
-1 0 11 61.824 62.166 0.591 1.909 o
-1 0 12 30.245 31.570 0.364 7.194 o
-1 0 14 7.520 7.543 0.187 69.743 o
-1 0 16 13.973 14.072 0.542 11.403 o
-1 0 19 3.582 3.959 0.354 34.030 o
-1 1 1 781.625 802.411 5.140 0.013 o
-1 1 2 590.719 611.218 4.008 0.022 o
-1 1 3 39.468 41.880 0.354 4.616 o
-1 1 4 21.829 21.004 0.217 15.510 o
-1 1 5 0.022 0.246 0.148 207.256 o
-1 1 6 223.956 226.112 2.127 0.145 o
-1 1 7 93.702 91.431 0.807 0.869 o
-1 1 9 1.138 1.024 0.138 230.258 o
-1 1 10 22.449 22.166 0.266 13.546 o
-1 1 11 1.149 1.270 0.148 200.456 o
-1 1 12 35.894 36.169 0.473 4.995 o
-1 1 14 0.796 0.788 0.167 159.510 o
-1 1 15 9.787 10.044 0.354 25.552 o
-1 1 17 1.198 0.768 0.453 21.980 o
-1 2 1 32.376 32.309 0.305 7.018 o
-1 2 2 601.992 618.061 4.569 0.021 o
-1 2 3 126.604 127.955 1.270 0.447 o
-1 2 4 228.516 223.079 1.910 0.147 o
-1 2 5 5.344 5.613 0.276 49.391 o
-1 2 6 346.681 338.666 2.925 0.064 o
-1 2 7 10.065 9.818 0.217 45.494 o
-1 2 9 49.043 50.004 0.483 2.983 o
-1 2 10 184.748 180.923 1.920 0.211 o
-1 2 12 0.475 0.542 0.148 206.074 o
-1 2 13 0.097 0.266 0.158 182.109 o
-1 2 14 15.082 15.312 0.443 14.250 o
-1 2 15 2.625 2.511 0.148 178.468 o
-1 2 16 1.767 1.782 0.453 21.867 o
-1 2 17 2.784 2.550 0.423 24.695 o
-1 3 1 213.599 210.613 1.556 0.172 o
-1 3 2 589.021 593.709 5.022 0.022 o
-1 3 3 4.991 4.047 0.158 124.449 o
-1 3 4 535.976 521.037 4.372 0.027 o
-1 3 5 3.933 3.732 0.118 207.134 o
-1 3 6 69.665 68.478 0.670 1.520 o
-1 3 7 103.776 105.424 1.201 0.630 o
-1 3 8 4.595 4.756 0.197 90.154 o
-1 3 9 19.731 19.350 0.404 12.377 o
-1 3 10 1.838 1.595 0.256 67.329 o
-1 3 11 6.009 6.007 0.423 22.808 o
-1 3 12 15.078 14.988 0.660 8.156 o
-1 3 13 3.289 3.358 0.148 163.905 o
-1 3 14 1.134 1.201 0.148 200.822 o
-1 3 15 5.967 5.652 0.197 79.506 o
-1 4 1 9.390 9.847 0.207 49.852 o
-1 4 2 48.491 44.066 0.670 2.805 o
-1 4 3 23.377 26.302 0.335 10.656 o
-1 4 4 103.567 101.850 0.906 0.706 o
-1 4 5 30.720 31.531 0.394 6.843 o
-1 4 6 0.004 0.325 0.167 161.357 o
-1 4 7 0.453 0.453 0.177 143.467 o
-1 4 8 23.159 24.076 0.571 7.340 o
-1 4 9 32.338 32.033 0.463 5.939 o
-1 4 10 7.098 6.696 0.542 14.184 o
-1 4 11 1.979 2.088 0.315 44.589 o
-1 4 12 1.096 1.192 0.167 157.629 o
-1 4 13 5.463 5.721 0.315 39.155 o
-1 4 16 2.747 2.866 0.404 27.068 o
-1 5 1 0.352 0.492 0.118 321.978 o
-1 5 2 23.207 23.358 0.315 11.773 o
-1 5 3 275.673 262.498 2.117 0.105 o
-1 5 4 11.021 10.556 0.167 50.137 o
-1 5 5 9.471 9.700 0.217 47.638 o
-1 5 6 0.596 0.551 0.128 273.032 o
-1 5 7 55.243 54.573 0.640 2.257 o
-1 5 8 9.732 10.113 0.286 34.071 o
-1 5 9 1.305 1.113 0.266 63.257 o
-1 5 10 36.669 36.435 1.408 1.683 o
-1 5 11 0.504 0.975 0.374 32.248 o
-1 5 13 1.357 1.379 0.148 198.394 o
-1 5 14 0.629 0.512 0.463 21.097 o
-1 5 15 0.982 0.758 0.414 26.375 o
-1 6 1 284.519 293.664 2.314 0.092 o
-1 6 2 168.162 171.716 1.349 0.267 o
-1 6 3 0.387 0.335 0.128 274.788 o
-1 6 4 1.318 1.477 0.138 226.196 o
-1 6 5 56.766 57.793 0.532 2.261 o
-1 6 6 44.593 45.100 0.571 3.274 o
-1 6 7 0.000 0.394 0.246 74.618 o
-1 6 8 4.518 4.274 0.463 20.140 o
-1 6 9 2.364 2.097 0.286 53.667 o
-1 6 10 18.242 18.089 0.876 4.799 o
-1 6 11 25.904 25.957 0.335 9.706 o
-1 6 12 1.246 1.241 0.167 156.832 o
-1 6 13 3.762 3.811 0.158 139.844 o
-1 6 14 3.538 3.781 0.453 21.326 o
-1 7 1 55.342 52.102 0.443 2.589 o
-1 7 2 71.192 72.249 0.620 1.468 o
-1 7 3 22.030 22.570 0.286 13.250 o
-1 7 4 42.845 44.844 0.394 3.925 o
-1 7 6 85.389 86.862 0.886 0.968 o
-1 7 7 9.956 9.680 0.295 32.652 o
-1 7 8 25.696 25.435 0.443 8.348 o
-1 7 9 1.811 1.477 0.335 39.808 o
-1 7 10 15.110 15.086 0.305 21.204 o
-1 7 11 3.053 2.856 0.128 214.473 o
-1 7 12 9.962 10.980 0.551 12.564 o
-1 8 1 45.299 44.273 0.404 3.685 o
-1 8 2 0.209 0.236 0.118 323.330 o
-1 8 3 102.077 104.824 0.867 0.714 o
-1 8 5 0.135 0.187 0.167 161.325 o
-1 8 6 0.884 0.660 0.167 159.432 o
-1 8 7 0.769 0.758 0.305 48.376 o
-1 8 8 59.739 61.791 1.320 1.234 o
-1 8 9 0.604 0.581 0.158 180.834 o
-1 8 10 0.633 0.532 0.138 235.629 o
-1 8 11 6.535 6.647 0.325 35.239 o
-1 8 12 3.132 3.309 0.148 166.398 o
-1 8 14 0.873 0.630 0.335 40.230 o
-1 9 3 12.391 12.378 0.266 29.854 o
-1 9 4 16.965 17.075 0.345 16.688 o
-1 9 5 1.336 1.192 0.167 156.515 o
-1 9 6 4.625 4.274 0.187 98.948 o
-1 9 8 1.388 1.369 0.158 175.107 o
-1 9 10 2.950 2.678 0.167 139.896 o
-1 9 11 12.282 12.900 0.453 15.741 o
-1 9 12 4.864 4.894 0.325 38.293 o
-1 9 13 0.307 0.256 0.246 74.575 o
-1 10 1 1.162 1.103 0.167 157.531 o
-1 10 2 2.832 2.580 0.236 75.595 o
-1 10 4 4.046 3.673 0.177 114.449 o
-1 10 5 1.586 1.310 0.384 30.424 o
-1 10 7 4.045 4.412 0.423 24.002 o
-1 10 8 0.347 0.217 0.167 161.116 o
-1 10 11 1.597 1.772 0.305 47.796 o
-1 11 1 14.532 14.968 0.256 25.266 o
-1 11 2 8.708 8.449 0.167 67.331 o
-1 11 3 4.014 3.653 0.158 137.849 o
-1 11 4 16.205 15.756 0.226 24.178 o
-1 11 5 7.167 7.179 0.207 64.753 o
-1 11 6 1.977 1.871 0.177 135.404 o
-1 11 7 13.421 13.274 0.217 32.052 o
-1 11 8 0.567 0.532 0.148 205.772 o
-1 11 10 10.055 10.113 0.384 22.509 o
-1 12 1 13.305 13.885 0.374 19.166 o
-1 12 2 1.922 1.585 0.158 170.361 o
-1 12 3 4.027 3.929 0.414 25.203 o
-1 12 4 9.317 9.227 0.158 64.383 o
-1 12 5 1.529 0.916 0.197 113.895 o
-1 12 6 0.360 0.404 0.158 181.659 o
-1 12 7 6.131 5.761 0.404 24.849 o
-1 12 8 2.341 2.107 0.354 35.234 o
-1 12 10 1.453 1.448 0.256 67.850 o
-1 13 1 3.180 3.643 0.443 22.367 o
-1 13 2 11.049 11.255 0.187 45.179 o
-1 13 3 16.609 17.105 0.256 21.159 o
-1 13 4 3.074 2.698 0.167 138.724 o
-1 13 6 5.146 5.219 0.148 125.990 o
-1 14 1 1.735 1.605 0.177 137.371 o
-1 14 3 0.007 0.217 0.158 182.177 o
-1 15 1 6.481 6.411 0.502 16.496 o
-1 15 2 13.714 14.968 0.492 13.011 o
-1 15 3 0.292 0.404 0.364 34.056 o
0 -20 7 1.915 1.802 0.315 44.714 o
0 -20 8 0.615 0.522 0.325 42.758 o
0 -20 11 2.045 2.206 0.345 37.347 o
0 -19 6 1.262 1.201 0.345 37.817 o
0 -19 7 0.856 0.896 0.118 314.931 o
0 -19 9 3.550 3.722 0.394 27.919 o
0 -19 10 0.907 0.689 0.138 233.472 o
0 -19 12 0.410 0.660 0.364 34.038 o
0 -18 3 1.240 0.945 0.384 30.524 o
0 -18 4 1.480 1.280 0.384 30.449 o
0 -18 6 5.850 6.647 0.433 21.805 o
0 -18 7 0.487 0.561 0.305 48.464 o
0 -18 8 1.948 2.029 0.404 27.402 o
0 -18 9 3.583 3.565 0.443 22.269 o
0 -18 10 0.574 0.433 0.325 42.772 o
0 -18 14 0.485 0.483 0.148 206.136 o
0 -17 4 12.053 13.156 0.226 34.122 o
0 -17 5 3.052 3.348 0.138 186.629 o
0 -17 7 4.852 4.865 0.295 45.369 o
0 -17 8 2.984 3.092 0.148 169.896 o
0 -17 9 0.533 0.266 0.138 236.681 o
0 -17 10 7.290 7.454 0.670 9.486 o
0 -17 11 1.115 0.778 0.187 127.279 o
0 -17 13 2.066 2.107 0.354 35.349 o
0 -17 14 1.140 0.886 0.384 30.545 o
0 -17 16 0.838 1.123 0.335 40.184 o
0 -17 20 0.867 0.679 0.256 68.642 o
0 -16 1 0.668 0.207 0.177 143.326 o
0 -16 2 2.803 2.531 0.148 176.041 o
0 -16 4 11.858 12.870 0.226 34.890 o
0 -16 6 0.619 0.620 0.148 205.398 o
0 -16 7 0.956 0.857 0.148 203.128 o
0 -16 8 1.953 1.546 0.197 111.602 o
0 -16 9 1.166 0.886 0.295 51.468 o
0 -16 10 1.475 0.906 0.148 199.351 o
0 -16 11 0.545 0.335 0.197 116.252 o
0 -16 12 0.920 0.679 0.492 18.629 o
0 -16 14 1.081 1.024 0.158 177.942 o
0 -16 15 6.081 6.598 0.167 93.026 o
0 -16 16 6.052 6.696 0.394 25.723 o
0 -16 20 0.471 0.551 0.276 59.392 o
0 -15 1 1.085 0.916 0.148 202.142 o
0 -15 3 6.372 6.755 0.158 96.075 o
0 -15 5 0.817 0.876 0.394 29.083 o
0 -15 6 1.323 0.867 0.384 30.517 o
0 -15 7 4.945 4.973 0.217 75.557 o
0 -15 9 1.018 0.975 0.374 32.179 o
0 -15 10 2.637 2.846 0.374 31.435 o
0 -15 11 3.067 2.767 0.374 31.266 o
0 -15 13 5.076 5.249 0.177 99.846 o
0 -15 14 1.356 1.172 0.167 156.466 o
0 -15 15 1.956 1.960 0.256 66.938 o
0 -15 16 10.960 11.334 0.197 43.700 o
0 -15 18 0.569 0.532 0.354 35.943 o
0 -15 19 0.808 0.630 0.315 45.415 o
0 -14 1 5.730 5.790 0.187 86.282 o
0 -14 2 0.228 0.502 0.167 161.085 o
0 -14 3 5.500 5.505 0.197 82.640 o
0 -14 6 3.488 3.220 0.177 120.606 o
0 -14 7 1.322 1.103 0.187 126.244 o
0 -14 8 4.024 3.575 0.177 115.015 o
0 -14 9 7.141 7.001 0.197 69.267 o
0 -14 11 1.522 1.113 0.177 139.472 o
0 -14 12 0.793 0.611 0.364 33.999 o
0 -14 15 3.803 3.929 0.236 71.069 o
0 -14 16 0.726 0.945 0.177 142.435 o
0 -14 18 2.271 2.324 0.374 31.677 o
0 -14 19 2.349 2.383 0.138 206.148 o
0 -14 21 2.302 2.176 0.266 61.637 o
0 -13 1 12.258 12.299 0.256 31.220 o
0 -13 2 5.502 5.150 0.187 89.958 o
0 -13 3 4.447 4.480 0.177 107.981 o
0 -13 4 20.669 20.679 0.354 12.895 o
0 -13 5 6.177 6.351 0.601 11.862 o
0 -13 6 0.668 0.896 0.177 142.636 o
0 -13 7 4.338 4.421 0.276 52.553 o
0 -13 8 148.604 155.773 1.556 0.313 o
0 -13 9 6.141 6.105 0.177 88.331 o
0 -13 10 1.457 1.359 0.167 155.466 o
0 -13 11 3.624 3.378 0.177 118.945 o
0 -13 12 9.066 9.690 0.414 20.905 o
0 -13 13 4.683 4.599 0.167 114.691 o
0 -13 14 3.225 3.348 0.167 134.445 o
0 -13 15 1.816 1.635 0.197 111.924 o
0 -13 16 0.483 0.266 0.158 181.551 o
0 -13 17 0.817 0.512 0.167 159.858 o
0 -13 18 1.601 1.260 0.463 21.001 o
0 -13 19 0.618 0.502 0.108 379.761 o
0 -12 1 3.295 3.102 0.167 134.929 o
0 -12 2 0.865 0.778 0.158 179.537 o
0 -12 3 2.290 2.147 0.158 164.634 o
0 -12 4 18.326 18.316 0.305 16.751 o
0 -12 5 2.068 2.225 0.148 187.007 o
0 -12 6 39.610 40.068 0.453 4.358 o
0 -12 7 3.116 3.023 0.217 87.070 o
0 -12 8 17.554 17.361 0.256 19.955 o
0 -12 9 43.672 44.874 0.463 3.656 o
0 -12 10 3.858 3.791 0.167 126.436 o
0 -12 11 9.519 9.394 0.394 22.340 o
0 -12 13 11.109 10.980 0.394 20.592 o
0 -12 14 0.361 0.374 0.364 34.053 o
0 -12 15 1.340 1.142 0.374 32.105 o
0 -12 16 0.381 0.295 0.158 181.721 o
0 -12 17 1.144 0.955 0.108 366.267 o
0 -12 18 2.870 2.964 0.108 279.779 o
0 -12 21 1.135 0.995 0.286 55.041 o
0 -11 1 0.433 0.492 0.138 236.633 o
0 -11 2 13.197 12.664 0.207 34.255 o
0 -11 3 2.818 2.718 0.217 88.656 o
0 -11 4 1.321 1.457 0.138 226.272 o
0 -11 5 13.405 13.954 0.217 31.370 o
0 -11 6 47.302 49.502 0.483 3.123 o
0 -11 7 77.712 80.088 0.748 1.188 o
0 -11 8 31.504 31.354 0.433 6.381 o
0 -11 9 7.790 7.326 0.286 40.291 o
0 -11 10 20.369 20.876 0.276 15.168 o
0 -11 11 8.698 8.429 0.207 55.294 o
0 -11 12 1.742 1.585 0.148 193.939 o
0 -11 13 2.916 2.678 0.167 140.190 o
0 -11 14 14.450 14.170 0.325 21.119 o
0 -11 15 0.927 0.788 0.364 33.966 o
0 -11 16 0.539 0.492 0.128 273.584 o
0 -11 18 4.611 4.746 0.217 77.510 o
0 -11 19 0.663 0.571 0.207 105.249 o
0 -11 21 0.251 0.443 0.364 34.057 o
0 -11 22 2.376 2.413 0.079 491.061 o
0 -10 1 38.027 38.059 0.483 4.546 o
0 -10 2 0.045 0.118 0.118 323.852 o
0 -10 3 3.624 3.604 0.128 194.280 o
0 -10 4 0.509 0.463 0.118 320.960 o
0 -10 5 17.640 17.469 0.226 21.122 o
0 -10 6 38.488 39.635 0.463 4.478 o
0 -10 7 16.238 16.681 0.217 24.013 o
0 -10 8 13.697 13.737 0.276 25.841 o
0 -10 9 2.356 2.009 0.108 314.614 o
0 -10 10 3.132 2.964 0.118 238.715 o
0 -10 11 0.995 0.817 0.148 203.010 o
0 -10 12 3.158 2.954 0.187 112.973 o
0 -10 13 16.264 15.923 0.364 16.744 o
0 -10 14 1.271 1.093 0.167 157.063 o
0 -10 15 3.635 3.161 0.217 84.856 o
0 -10 17 3.600 3.200 0.128 199.089 o
0 -10 18 4.903 5.121 0.128 153.699 o
0 -10 19 1.712 1.467 0.325 42.271 o
0 -10 21 1.456 1.536 0.295 51.147 o
0 -9 1 6.784 5.918 0.246 54.608 o
0 -9 2 1.794 1.664 0.138 219.344 o
0 -9 3 23.083 22.432 0.295 12.471 o
0 -9 5 0.903 1.054 0.158 178.755 o
0 -9 6 7.709 7.297 0.177 73.406 o
0 -9 7 21.113 21.693 0.315 13.366 o
0 -9 8 20.652 21.241 0.207 16.647 o
0 -9 9 34.512 35.007 0.374 5.848 o
0 -9 10 77.210 79.063 1.004 1.077 o
0 -9 11 7.579 7.681 0.246 49.631 o
0 -9 12 45.413 46.036 0.473 3.427 o
0 -9 13 1.122 0.985 0.158 177.828 o
0 -9 14 8.664 8.626 0.197 57.830 o
0 -9 15 3.707 3.122 0.167 131.026 o
0 -9 16 12.207 12.506 0.463 15.386 o
0 -9 17 9.196 8.941 0.217 49.892 o
0 -9 18 5.934 5.898 0.295 42.772 o
0 -9 19 1.395 1.073 0.158 176.008 o
0 -9 20 1.012 0.876 0.118 312.872 o
0 -9 21 3.425 3.959 0.374 30.798 o
0 -8 1 116.450 118.344 1.113 0.535 o
0 -8 2 10.504 11.807 0.177 47.893 o
0 -8 3 21.115 22.855 0.266 14.197 o
0 -8 4 6.178 6.509 0.158 99.071 o
0 -8 6 23.004 22.983 0.226 13.712 o
0 -8 7 13.086 13.934 0.246 29.230 o
0 -8 8 25.148 26.115 0.335 9.967 o
0 -8 9 6.148 6.174 0.226 63.469 o
0 -8 10 43.920 45.504 0.591 3.255 o
0 -8 11 3.439 3.831 0.167 130.214 o
0 -8 12 36.021 35.588 0.414 5.327 o
0 -8 13 18.781 18.779 0.295 16.566 o
0 -8 14 17.111 17.095 0.256 20.590 o
0 -8 15 10.247 9.936 0.207 46.651 o
0 -8 16 12.671 13.284 0.463 15.001 o
0 -8 17 8.411 8.124 0.364 26.736 o
0 -8 20 0.615 0.857 0.128 271.772 o
0 -7 1 0.107 0.138 0.108 385.241 o
0 -7 2 5.454 4.766 0.187 91.590 o
0 -7 3 182.019 184.212 1.516 0.227 o
0 -7 4 4.589 4.490 0.138 151.063 o
0 -7 5 6.100 5.514 0.167 97.504 o
0 -7 6 183.834 187.186 1.477 0.224 o
0 -7 7 24.036 24.332 0.236 12.472 o
0 -7 8 19.736 20.088 0.236 17.167 o
0 -7 9 8.630 8.272 0.167 68.350 o
0 -7 10 71.635 71.757 0.640 1.452 o
0 -7 11 7.749 7.848 0.158 79.741 o
0 -7 12 7.805 7.710 0.177 71.515 o
0 -7 13 10.349 10.113 0.473 16.213 o
0 -7 14 8.619 8.774 0.197 57.700 o
0 -7 15 9.624 9.473 0.315 30.649 o
0 -7 16 33.170 33.126 0.670 4.402 o
0 -7 17 3.335 3.171 0.148 164.553 o
0 -7 18 1.330 1.625 0.197 113.465 o
0 -7 19 2.206 2.186 0.118 273.935 o
0 -6 1 44.439 46.784 0.394 3.671 o
0 -6 2 296.069 300.439 2.521 0.085 o
0 -6 3 4.057 3.575 0.108 229.248 o
0 -6 4 25.214 27.484 0.315 9.950 o
0 -6 5 107.090 110.240 0.995 0.633 o
0 -6 6 31.694 31.619 0.433 6.317 o
0 -6 7 28.409 28.764 0.315 8.567 o
0 -6 8 4.880 4.786 0.138 144.101 o
0 -6 9 88.484 92.160 0.876 0.903 o
0 -6 10 2.515 2.501 0.177 130.205 o
0 -6 11 3.661 3.693 0.236 71.844 o
0 -6 12 0.768 0.827 0.138 233.954 o
0 -6 13 36.345 36.031 0.492 4.842 o
0 -6 17 0.693 0.492 0.148 205.358 o
0 -6 18 1.629 1.585 0.158 172.649 o
0 -5 1 383.389 394.894 3.200 0.051 o
0 -5 2 82.141 79.625 0.886 1.060 o
0 -5 3 32.244 35.450 0.394 6.115 o
0 -5 4 18.404 18.552 0.226 19.610 o
0 -5 5 84.110 85.691 0.699 1.061 o
0 -5 6 0.301 0.423 0.098 463.485 o
0 -5 7 15.815 15.017 0.217 25.953 o
0 -5 8 145.939 144.508 1.162 0.362 o
0 -5 9 136.211 138.196 1.231 0.397 o
0 -5 10 12.896 13.520 0.236 30.917 o
0 -5 11 0.202 0.286 0.177 143.833 o
0 -5 12 4.826 4.441 0.148 135.253 o
0 -5 13 1.286 1.369 0.148 199.017 o
0 -5 14 5.716 5.308 0.177 94.585 o
0 -5 15 4.757 4.658 0.177 104.769 o
0 -5 16 6.785 6.903 0.394 25.172 o
0 -5 17 9.676 9.532 0.197 51.623 o
0 -5 18 2.248 2.294 0.404 27.296 o
0 -5 20 0.903 1.142 0.315 45.318 o
0 -4 1 118.554 124.006 1.162 0.504 o
0 -4 2 186.479 174.857 1.536 0.227 o
0 -4 3 18.667 19.330 0.217 19.260 o
0 -4 4 6.404 6.578 0.108 134.105 o
0 -4 5 286.455 283.521 2.196 0.095 o
0 -4 6 1.429 1.871 0.138 222.649 o
0 -4 7 2.256 2.944 0.138 203.190 o
0 -4 8 115.074 118.403 1.083 0.546 o
0 -4 9 208.448 208.446 1.940 0.170 o
0 -4 10 13.146 12.565 0.226 32.386 o
0 -4 11 9.120 8.656 0.246 43.939 o
0 -4 12 85.951 84.529 0.788 1.012 o
0 -4 13 17.571 17.804 0.266 19.268 o
0 -4 14 5.307 5.121 0.177 98.526 o
0 -4 15 0.214 0.394 0.187 129.059 o
0 -4 16 3.738 3.250 0.246 67.168 o
0 -4 17 7.230 6.558 0.463 18.841 o
0 -4 18 1.069 1.024 0.384 30.545 o
0 -4 19 1.630 1.871 0.345 37.589 o
0 -3 1 639.198 651.109 4.451 0.019 o
0 -3 2 346.283 338.764 2.373 0.067 o
0 -3 3 97.419 100.491 0.906 0.763 o
0 -3 6 38.116 42.018 0.423 4.534 o
0 -3 7 314.942 320.301 2.816 0.074 o
0 -3 8 56.349 57.498 0.522 2.299 o
0 -3 9 48.442 45.730 0.453 3.241 o
0 -3 10 5.387 4.865 0.177 98.905 o
0 -3 11 6.095 6.214 0.128 124.916 o
0 -3 12 8.265 8.094 0.187 64.162 o
0 -3 14 72.747 72.820 1.359 0.976 o
0 -3 15 2.937 2.895 0.187 114.486 o
0 -3 16 13.162 12.949 0.236 30.954 o
0 -3 18 6.471 6.903 0.433 21.458 o
0 -2 1 1644.880 1611.980 13.589 0.003 o
0 -2 2 1098.090 1101.150 6.676 0.007 o
0 -2 3 589.975 605.339 4.126 0.022 o
0 -2 4 0.208 0.709 0.128 274.751 o
0 -2 5 20.062 22.078 0.423 11.148 o
0 -2 6 76.512 86.153 0.857 1.108 o
0 -2 7 30.791 28.183 0.266 8.341 o
0 -2 8 131.817 135.104 1.221 0.419 o
0 -2 9 48.450 47.483 0.561 2.946 o
0 -2 10 17.922 16.927 0.295 18.074 o
0 -2 11 20.650 21.053 0.226 16.221 o
0 -2 12 0.285 0.305 0.128 275.241 o
0 -2 13 14.953 15.283 0.217 27.174 o
0 -2 14 6.008 5.987 0.158 103.286 o
0 -2 15 3.634 3.102 0.167 131.799 o
0 -2 16 0.668 0.492 0.473 20.227 o
0 -2 17 0.791 0.748 0.118 316.707 o
0 -2 18 6.918 7.474 0.423 21.970 o
0 -1 1 57.766 58.138 0.679 2.031 o
0 -1 2 274.089 284.181 1.999 0.102 o
0 -1 3 12.207 11.866 0.138 47.097 o
0 -1 4 377.794 391.427 2.875 0.053 o
0 -1 5 2.443 3.062 0.158 158.583 o
0 -1 6 3.011 3.250 0.138 188.170 o
0 -1 7 3.129 4.293 0.108 247.834 o
0 -1 8 2.831 3.328 0.118 241.938 o
0 -1 9 11.512 12.742 0.315 25.970 o
0 -1 10 35.519 34.180 0.335 5.951 o
0 -1 11 8.528 9.187 0.158 69.448 o
0 -1 13 38.087 39.586 0.985 2.579 o
0 -1 14 3.280 3.013 0.158 149.823 o
0 -1 17 17.035 17.262 1.044 3.637 o
0 -1 19 0.558 0.650 0.364 34.024 o
0 0 2 590.765 598.751 3.614 0.023 o
0 0 3 244.688 228.219 1.664 0.137 o
0 0 4 771.304 775.184 6.125 0.013 o
0 0 5 207.523 219.061 1.733 0.170 o
0 0 6 4.405 3.781 0.197 94.100 o
0 0 7 9.969 8.488 0.158 62.719 o
0 0 8 0.767 0.571 0.118 318.003 o
0 0 9 3.323 3.131 0.167 134.540 o
0 0 10 3.150 3.230 0.118 234.601 o
0 0 11 23.140 24.254 0.325 11.400 o
0 0 12 6.458 6.607 0.492 17.085 o
0 0 13 11.430 11.187 0.286 30.276 o
0 0 14 0.887 0.630 0.423 25.179 o
0 0 15 2.230 2.196 0.197 109.303 o
0 0 16 5.506 4.953 0.483 18.257 o
0 0 17 7.108 7.937 0.266 45.498 o
0 1 0 538.380 532.390 5.406 0.025 o
0 1 1 538.887 551.986 3.840 0.027 o
0 1 2 40.484 43.160 0.542 3.785 o
0 1 3 58.758 59.861 0.473 2.191 o
0 1 4 25.345 26.873 0.246 10.960 o
0 1 5 206.596 221.937 1.822 0.168 o
0 1 6 0.007 0.226 0.148 207.271 o
0 1 7 26.591 24.854 0.325 9.790 o
0 1 8 16.335 15.470 0.207 25.355 o
0 1 9 18.668 18.237 0.207 20.236 o
0 1 10 13.230 13.835 0.345 21.154 o
0 1 11 14.494 14.111 0.315 21.745 o
0 1 12 2.456 2.166 0.138 206.173 o
0 1 13 20.002 20.384 0.995 3.761 o
0 1 14 7.669 8.154 0.522 14.845 o
0 1 15 1.307 1.428 0.197 113.802 o
0 1 16 19.406 20.916 0.640 7.313 o
0 1 17 1.498 1.152 0.354 35.704 o
0 1 18 5.989 6.036 0.404 24.852 o
0 2 0 3.950 4.224 0.128 180.989 o
0 2 1 136.838 136.906 1.004 0.416 o
0 2 2 682.332 665.692 4.914 0.017 o
0 2 3 161.932 156.305 1.260 0.300 o
0 2 4 4.226 2.915 0.148 153.943 o
0 2 5 34.360 31.728 0.335 6.438 o
0 2 6 232.071 232.710 2.019 0.139 o
0 2 7 0.587 0.532 0.118 320.006 o
0 2 8 0.677 1.024 0.138 233.899 o
0 2 9 19.218 19.882 0.286 16.120 o
0 2 10 72.780 72.810 0.689 1.385 o
0 2 11 1.023 0.788 0.167 158.733 o
0 2 12 8.378 7.848 0.256 44.792 o
0 2 14 15.365 15.677 0.591 9.519 o
0 2 15 5.737 5.662 0.502 16.789 o
0 2 16 0.425 0.591 0.453 22.030 o
0 2 17 5.687 5.869 0.433 22.049 o
0 3 0 180.984 186.566 1.359 0.232 o
0 3 1 12.218 12.772 0.167 41.478 o
0 3 2 8.079 8.094 0.148 80.419 o
0 3 3 29.130 28.360 0.463 6.923 o
0 3 4 222.427 219.859 1.792 0.156 o
0 3 5 30.439 28.941 0.286 8.169 o
0 3 6 9.009 9.867 0.305 32.611 o
0 3 7 1.074 1.034 0.128 266.366 o
0 3 8 25.436 24.165 0.394 9.332 o
0 3 9 12.826 13.176 0.305 24.932 o
0 3 10 29.831 30.064 0.345 7.667 o
0 3 11 2.004 2.137 0.148 188.239 o
0 3 12 1.008 0.640 0.217 95.529 o
0 3 13 15.311 15.559 0.561 10.283 o
0 3 15 2.145 2.147 0.463 20.879 o
0 4 0 297.144 302.093 3.043 0.080 o
0 4 1 14.310 15.519 0.207 28.849 o
0 4 2 159.599 159.633 1.516 0.288 o
0 4 3 86.638 84.903 0.758 1.011 o
0 4 4 330.506 323.610 2.836 0.070 o
0 4 5 1.382 1.516 0.217 94.218 o
0 4 7 8.798 8.616 0.236 47.082 o
0 4 8 181.232 183.887 4.018 0.135 o
0 4 9 15.261 14.574 0.325 20.136 o
0 4 10 1.627 1.723 0.148 194.381 o
0 4 11 1.567 1.526 0.217 93.828 o
0 4 12 10.026 10.034 0.542 13.060 o
0 4 13 6.630 7.661 0.532 14.667 o
0 4 14 3.433 3.417 0.433 23.324 o
0 4 15 0.836 0.739 0.433 24.049 o
0 4 16 1.609 1.487 0.384 30.399 o
0 5 0 216.288 221.976 2.196 0.151 o
0 5 1 92.644 90.929 0.788 0.889 o
0 5 2 264.202 266.899 2.255 0.107 o
0 5 3 132.654 130.131 1.103 0.436 o
0 5 4 116.675 115.715 1.024 0.553 o
0 5 5 51.008 52.407 0.483 2.778 o
0 5 6 20.287 21.132 0.305 14.312 o
0 5 7 10.794 10.812 0.286 31.633 o
0 5 8 19.829 20.768 0.374 12.787 o
0 5 9 15.412 15.086 0.345 18.680 o
0 5 10 12.175 12.368 0.532 12.506 o
0 5 11 0.398 0.581 0.443 23.021 o
0 5 12 0.652 0.758 0.532 15.982 o
0 5 13 7.697 7.031 0.502 16.059 o
0 6 0 12.417 10.615 0.138 48.873 o
0 6 1 8.139 8.794 0.167 69.789 o
0 6 2 96.588 99.526 0.867 0.785 o
0 6 3 2.693 2.954 0.138 195.988 o
0 6 4 6.213 6.292 0.197 76.283 o
0 6 5 2.504 2.344 0.108 303.645 o
0 6 6 9.547 9.896 0.226 45.014 o
0 6 7 36.825 37.419 0.827 3.216 o
0 6 8 13.645 13.648 0.325 22.206 o
0 6 10 0.524 0.620 0.423 25.203 o
0 6 11 9.181 9.463 0.276 37.277 o
0 6 12 0.281 0.354 0.138 237.360 o
0 6 14 2.628 2.619 0.414 25.892 o
0 6 15 0.734 0.522 0.354 35.924 o
0 7 0 2.008 1.605 0.118 286.028 o
0 7 1 207.215 203.788 1.674 0.180 o
0 7 2 0.496 0.591 0.138 236.152 o
0 7 3 2.850 2.767 0.158 155.853 o
0 7 5 37.948 39.025 0.502 4.412 o
0 7 6 11.000 10.891 0.177 47.745 o
0 7 7 5.424 4.805 0.591 12.445 o
0 7 8 19.961 20.078 0.414 11.848 o
0 7 9 1.165 1.329 0.433 23.992 o
0 7 11 0.817 0.748 0.256 68.651 o
0 7 13 0.259 0.138 0.128 275.573 o
0 8 0 173.211 178.127 1.585 0.243 o
0 8 1 25.801 25.770 0.374 9.223 o
0 8 2 4.937 4.412 0.118 174.584 o
0 8 3 59.719 60.757 0.679 1.915 o
0 8 4 15.792 16.405 0.207 25.475 o
0 8 5 1.525 1.152 0.187 125.502 o
0 8 6 3.316 3.092 0.187 111.571 o
0 8 7 0.699 0.551 0.305 48.420 o
0 8 8 28.965 29.276 0.670 5.062 o
0 8 9 14.248 14.564 0.551 10.962 o
0 8 10 0.253 0.364 0.187 129.042 o
0 8 11 2.804 2.905 0.473 19.867 o
0 8 12 4.200 4.402 0.453 21.059 o
0 9 0 53.259 53.510 0.473 2.626 o
0 9 1 40.083 41.240 0.404 4.410 o
0 9 2 11.155 11.669 0.295 29.210 o
0 9 3 17.986 18.227 0.236 19.858 o
0 9 4 59.623 59.970 0.650 1.965 o
0 9 5 23.968 24.008 0.364 10.382 o
0 9 6 6.611 6.548 0.679 9.334 o
0 9 8 12.029 12.073 0.197 39.266 o
0 9 9 0.711 0.620 0.167 160.001 o
0 9 10 3.594 3.683 0.384 29.293 o
0 9 11 9.795 10.290 0.473 16.407 o
0 9 12 0.060 0.158 0.148 207.260 o
0 10 1 53.501 54.229 0.492 2.564 o
0 10 2 6.697 6.440 0.226 60.858 o
0 10 3 0.975 0.601 0.167 159.231 o
0 10 4 0.715 0.719 0.158 180.237 o
0 10 5 0.744 0.542 0.217 95.877 o
0 10 6 41.060 41.910 0.807 2.914 o
0 10 7 3.133 2.885 0.867 5.984 o
0 10 10 4.284 4.234 0.364 31.775 o
0 11 0 3.889 3.663 0.158 139.229 o
0 11 1 19.845 19.635 0.404 12.258 o
0 11 2 6.823 6.607 0.167 86.932 o
0 11 3 0.347 0.266 0.158 181.804 o
0 11 5 15.804 15.825 0.256 22.934 o
0 11 7 0.286 0.384 0.384 30.655 o
0 11 8 2.869 2.767 0.374 31.353 o
0 11 9 3.219 3.358 0.345 36.357 o
0 11 10 5.978 5.869 0.325 36.419 o
0 12 0 3.330 3.191 0.217 85.968 o
0 12 2 3.186 2.915 0.217 87.012 o
0 12 3 0.605 0.689 0.443 23.009 o
0 12 5 5.123 4.845 0.177 101.079 o
0 13 0 0.947 0.837 0.158 179.050 o
0 13 2 9.427 9.030 0.207 51.243 o
0 13 3 6.537 6.243 0.276 46.218 o
0 13 4 1.428 0.985 0.138 227.632 o
0 13 5 7.412 7.868 0.433 20.760 o
0 13 7 2.200 1.713 0.325 41.962 o
0 13 8 5.597 5.642 0.335 35.147 o
0 14 0 0.593 0.551 0.148 205.638 o
0 14 1 4.796 4.500 0.197 89.723 o
0 14 2 1.698 1.487 0.177 137.836 o
0 14 3 1.914 1.457 0.354 35.528 o
0 15 0 2.522 2.688 0.246 70.555 o
0 15 4 4.338 4.382 0.128 171.541 o
0 15 6 2.918 2.767 0.266 60.288 o
1 -21 9 0.284 0.266 0.266 63.946 o
1 -21 11 1.174 1.192 0.079 651.788 o
1 -20 7 0.685 0.591 0.295 51.692 o
1 -20 8 0.613 0.532 0.305 48.442 o
1 -20 11 0.793 0.601 0.315 45.422 o
1 -20 15 0.554 0.404 0.266 63.862 o
1 -19 4 0.417 0.551 0.325 42.786 o
1 -19 6 2.470 2.314 0.345 37.114 o
1 -19 7 3.783 3.890 0.138 169.483 o
1 -19 9 0.265 0.374 0.364 34.059 o
1 -19 10 0.295 0.167 0.118 323.132 o
1 -19 12 0.389 0.276 0.118 322.410 o
1 -18 1 1.201 1.054 0.325 42.550 o
1 -18 3 1.501 1.595 0.354 35.639 o
1 -18 4 1.160 0.886 0.138 230.674 o
1 -18 5 1.992 1.861 0.138 215.319 o
1 -18 6 3.390 3.683 0.335 38.168 o
1 -18 7 0.160 0.236 0.148 207.131 o
1 -18 8 0.608 0.709 0.148 205.263 o
1 -18 9 3.929 4.087 0.423 24.104 o
1 -18 10 0.550 0.640 0.414 26.414 o
1 -18 11 0.280 0.364 0.158 181.834 o
1 -18 15 1.982 1.960 0.325 42.014 o
1 -18 19 0.620 0.689 0.246 74.362 o
1 -17 4 2.598 2.659 0.177 129.121 o
1 -17 5 0.982 0.965 0.158 178.589 o
1 -17 6 7.574 8.055 0.187 68.000 o
1 -17 7 7.760 8.094 0.286 39.610 o
1 -17 8 4.020 3.998 0.295 47.236 o
1 -17 9 0.162 0.167 0.138 237.798 o
1 -17 10 1.564 1.142 0.138 225.326 o
1 -17 11 1.535 1.713 0.217 93.697 o
1 -17 12 0.214 0.394 0.128 275.331 o
1 -17 15 1.300 0.906 0.364 33.887 o
1 -17 16 0.277 0.364 0.345 38.060 o
1 -16 1 4.205 4.185 0.502 17.296 o
1 -16 2 1.970 1.772 0.177 135.709 o
1 -16 3 2.127 1.910 0.128 243.010 o
1 -16 4 18.542 20.512 0.404 12.664 o
1 -16 5 0.345 0.433 0.236 80.871 o
1 -16 6 6.407 6.351 0.217 66.097 o
1 -16 7 2.052 1.861 0.148 189.245 o
1 -16 8 4.493 4.520 0.158 127.408 o
1 -16 10 0.408 0.217 0.138 237.195 o
1 -16 11 3.045 2.895 0.207 95.245 o
1 -16 12 2.549 2.304 0.167 144.823 o
1 -16 15 6.921 7.553 0.414 22.861 o
1 -16 17 0.718 0.384 0.364 34.021 o
1 -16 19 0.434 0.374 0.128 274.482 o
1 -15 2 29.887 32.821 0.374 7.047 o
1 -15 3 1.544 1.822 0.256 67.545 o
1 -15 4 3.086 2.698 0.394 28.312 o
1 -15 5 6.721 6.607 0.414 23.245 o
1 -15 6 13.752 14.781 0.492 13.032 o
1 -15 7 1.610 1.290 0.384 30.421 o
1 -15 8 9.679 9.956 0.443 18.337 o
1 -15 9 7.525 7.445 0.423 21.651 o
1 -15 11 3.073 2.738 0.148 171.089 o
1 -15 12 2.735 2.511 0.167 142.450 o
1 -15 13 4.635 4.500 0.384 28.520 o
1 -15 15 3.551 3.427 0.236 72.551 o
1 -15 18 1.322 1.290 0.128 261.544 o
1 -14 0 4.261 4.116 0.453 21.083 o
1 -14 1 1.762 1.891 0.384 30.314 o
1 -14 2 26.157 27.878 0.542 6.754 o
1 -14 3 1.608 1.526 0.197 112.781 o
1 -14 4 0.904 0.985 0.177 141.899 o
1 -14 6 8.360 8.518 0.236 48.566 o
1 -14 7 2.444 2.235 0.177 131.530 o
1 -14 8 2.431 2.038 0.177 132.230 o
1 -14 10 1.861 1.369 0.187 123.842 o
1 -14 11 2.301 2.029 0.197 109.354 o
1 -14 12 4.387 3.712 0.374 30.325 o
1 -14 13 4.312 4.284 0.433 22.903 o
1 -14 14 18.328 19.251 0.236 18.942 o
1 -14 15 8.072 8.833 0.512 15.142 o
1 -14 16 2.307 2.147 0.138 208.614 o
1 -14 18 1.671 1.408 0.138 222.514 o
1 -14 19 0.084 0.138 0.118 323.784 o
1 -14 20 1.911 1.694 0.374 31.896 o
1 -13 0 20.153 20.748 0.266 15.659 o
1 -13 1 28.833 30.743 0.650 5.141 o
1 -13 3 0.698 0.689 0.167 159.943 o
1 -13 4 1.221 1.004 0.167 157.487 o
1 -13 5 10.504 10.556 0.207 44.751 o
1 -13 6 0.613 0.542 0.158 180.868 o
1 -13 7 0.504 0.463 0.217 96.111 o
1 -13 8 8.773 8.547 0.197 57.521 o
1 -13 9 3.081 2.944 0.207 94.987 o
1 -13 10 0.713 0.404 0.167 160.275 o
1 -13 11 5.112 4.746 0.207 80.942 o
1 -13 12 7.094 6.657 0.177 79.562 o
1 -13 13 0.907 1.014 0.354 35.857 o
1 -13 14 21.289 22.028 0.345 12.458 o
1 -13 15 3.100 2.747 0.236 74.712 o
1 -13 16 1.226 1.083 0.167 157.289 o
1 -13 17 1.339 1.172 0.138 227.584 o
1 -13 18 0.508 0.502 0.148 206.029 o
1 -13 19 0.233 0.197 0.128 275.562 o
1 -13 20 1.433 1.438 0.295 51.190 o
1 -12 0 0.856 0.650 0.187 128.012 o
1 -12 1 6.659 5.997 0.305 39.323 o
1 -12 3 1.026 0.748 0.158 178.893 o
1 -12 4 2.464 2.304 0.158 162.203 o
1 -12 5 2.463 2.186 0.158 162.792 o
1 -12 6 12.001 11.807 0.217 37.080 o
1 -12 7 7.814 7.139 0.217 58.538 o
1 -12 8 3.571 3.368 0.187 109.068 o
1 -12 9 2.463 2.078 0.158 163.314 o
1 -12 10 1.438 1.132 0.158 175.552 o
1 -12 13 7.306 7.336 0.207 63.745 o
1 -12 14 6.356 6.243 0.384 26.840 o
1 -12 15 1.036 0.798 0.167 158.667 o
1 -12 16 2.621 2.511 0.374 31.510 o
1 -12 17 7.383 7.720 0.256 47.540 o
1 -12 19 5.498 5.564 0.118 150.699 o
1 -12 20 1.007 0.965 0.098 442.710 o
1 -11 0 11.966 12.033 0.236 34.381 o
1 -11 1 24.748 24.323 0.325 10.655 o
1 -11 2 21.698 21.693 0.276 13.962 o
1 -11 3 18.519 17.528 0.266 18.465 o
1 -11 5 1.560 1.595 0.148 195.632 o
1 -11 6 220.057 219.997 2.157 0.150 o
1 -11 7 54.801 54.849 0.699 2.183 o
1 -11 8 1.169 0.995 0.167 157.739 o
1 -11 10 24.970 24.835 0.354 9.987 o
1 -11 11 4.155 4.018 0.167 122.512 o
1 -11 12 1.054 0.817 0.187 127.383 o
1 -11 13 5.810 5.672 0.492 17.401 o
1 -11 14 1.618 1.359 0.148 196.189 o
1 -11 15 0.911 0.670 0.492 18.629 o
1 -11 16 4.197 3.919 0.177 112.258 o
1 -11 17 0.173 0.266 0.138 237.701 o
1 -11 18 0.369 0.532 0.463 21.106 o
1 -11 19 0.019 0.108 0.108 385.440 o
1 -11 20 0.457 0.532 0.158 181.307 o
1 -10 0 5.554 5.406 0.217 71.914 o
1 -10 2 49.977 49.295 0.463 2.980 o
1 -10 3 1.098 0.867 0.118 311.663 o
1 -10 4 75.537 74.199 0.679 1.318 o
1 -10 5 5.126 5.160 0.177 99.802 o
1 -10 6 100.487 99.910 0.876 0.746 o
1 -10 7 42.484 43.397 0.591 3.444 o
1 -10 8 31.681 32.004 0.325 7.091 o
1 -10 9 10.122 9.611 0.167 56.404 o
1 -10 10 9.252 8.872 0.207 52.215 o
1 -10 11 27.143 27.533 0.748 4.752 o
1 -10 12 0.295 0.187 0.187 129.075 o
1 -10 13 1.688 1.536 0.226 85.811 o
1 -10 15 1.352 0.857 0.374 32.131 o
1 -10 16 7.972 8.370 0.187 64.981 o
1 -10 17 0.413 0.315 0.148 206.581 o
1 -10 19 2.738 2.629 0.148 176.251 o
1 -9 0 19.195 18.916 0.256 17.549 o
1 -9 1 10.043 9.591 0.148 61.656 o
1 -9 2 1.203 1.004 0.158 177.335 o
1 -9 3 25.352 24.746 0.561 6.978 o
1 -9 4 27.855 28.065 0.335 8.651 o
1 -9 5 134.573 138.068 1.280 0.399 o
1 -9 6 73.310 73.874 0.670 1.373 o
1 -9 7 29.170 29.532 0.433 7.071 o
1 -9 8 22.924 22.668 0.246 13.488 o
1 -9 9 18.937 18.729 0.345 14.767 o
1 -9 10 3.816 3.506 0.158 140.978 o
1 -9 12 25.324 25.386 0.335 10.042 o
1 -9 13 5.459 5.229 0.315 39.483 o
1 -9 15 2.942 2.698 0.187 115.039 o
1 -9 16 6.397 6.588 0.177 84.699 o
1 -9 17 3.185 3.072 0.187 112.448 o
1 -9 20 5.200 5.199 0.354 32.327 o
1 -9 21 0.638 0.492 0.266 63.817 o
1 -8 0 0.895 1.024 0.226 87.383 o
1 -8 1 5.964 5.711 0.138 121.533 o
1 -8 2 12.682 12.851 0.266 28.965 o
1 -8 3 60.146 60.275 0.561 2.034 o
1 -8 4 65.380 67.010 0.689 1.636 o
1 -8 5 2.233 2.216 0.138 209.213 o
1 -8 6 36.588 36.622 0.404 5.208 o
1 -8 7 14.586 14.347 0.197 30.229 o
1 -8 8 8.233 7.799 0.138 84.596 o
1 -8 9 0.992 0.857 0.108 370.570 o
1 -8 10 5.150 4.884 0.128 151.358 o
1 -8 11 11.249 10.861 0.177 46.847 o
1 -8 12 14.544 14.219 0.226 28.083 o
1 -8 13 3.019 2.610 0.158 154.894 o
1 -8 14 0.417 0.256 0.246 74.544 o
1 -8 15 6.843 6.558 0.768 7.367 o
1 -8 16 1.344 1.260 0.167 156.305 o
1 -8 17 6.408 5.869 0.473 18.548 o
1 -8 19 2.229 2.196 0.315 44.391 o
1 -8 21 2.478 2.915 0.276 56.786 o
1 -7 0 0.106 0.098 0.108 385.296 o
1 -7 1 42.296 42.648 0.512 3.739 o
1 -7 2 0.067 0.985 0.561 14.353 o
1 -7 3 3.750 4.343 0.128 183.892 o
1 -7 5 113.020 112.967 0.916 0.598 o
1 -7 6 38.445 39.635 0.335 4.988 o
1 -7 7 12.103 11.679 0.177 42.358 o
1 -7 8 122.633 124.676 1.093 0.491 o
1 -7 9 72.920 72.889 0.660 1.398 o
1 -7 10 61.779 60.738 0.670 1.857 o
1 -7 11 5.214 5.278 0.138 135.244 o
1 -7 12 15.067 15.125 0.226 26.422 o
1 -7 13 6.369 5.751 0.226 63.433 o
1 -7 14 10.819 10.517 0.207 43.795 o
1 -7 15 13.314 12.989 0.226 31.597 o
1 -7 16 21.213 21.506 0.286 14.101 o
1 -7 17 1.006 0.739 0.286 55.162 o
1 -7 19 6.927 7.120 0.414 22.983 o
1 -7 20 2.690 2.452 0.335 39.096 o
1 -6 0 1.663 2.196 0.108 334.593 o
1 -6 1 0.153 0.335 0.118 323.354 o
1 -6 2 48.478 49.916 0.453 3.082 o
1 -6 3 0.250 0.394 0.128 275.209 o
1 -6 4 18.073 18.188 0.256 18.979 o
1 -6 5 72.556 77.074 0.611 1.387 o
1 -6 6 42.581 43.515 0.354 4.132 o
1 -6 7 30.599 31.127 0.295 7.717 o
1 -6 8 33.338 34.702 0.335 6.338 o
1 -6 9 43.997 45.770 0.443 3.637 o
1 -6 10 72.879 72.456 0.965 1.216 o
1 -6 11 4.855 4.727 0.148 132.970 o
1 -6 12 36.681 36.642 0.384 5.286 o
1 -6 13 0.913 0.581 0.256 68.644 o
1 -6 14 44.884 44.618 0.473 3.533 o
1 -6 15 4.650 4.638 0.423 23.722 o
1 -6 16 1.632 1.329 0.177 138.516 o
1 -6 17 0.593 0.433 0.414 26.418 o
1 -6 19 2.814 2.718 0.364 33.056 o
1 -5 0 2.393 3.338 0.197 106.045 o
1 -5 1 356.994 355.751 3.003 0.060 o
1 -5 2 0.118 0.276 0.128 275.738 o
1 -5 3 53.466 53.648 0.502 2.568 o
1 -5 4 237.731 233.251 1.851 0.138 o
1 -5 5 207.750 208.958 1.625 0.178 o
1 -5 6 21.197 22.678 0.246 14.665 o
1 -5 7 86.072 84.322 0.679 1.049 o
1 -5 8 96.364 96.798 0.886 0.795 o
1 -5 9 2.346 2.413 0.128 233.844 o
1 -5 10 42.261 42.609 0.502 3.775 o
1 -5 11 10.903 10.881 0.305 29.047 o
1 -5 12 17.050 16.888 0.384 15.095 o
1 -5 13 7.270 7.435 0.276 43.371 o
1 -5 14 40.348 40.187 0.433 4.337 o
1 -5 15 26.700 25.780 0.867 4.046 o
1 -5 16 3.081 2.826 0.620 11.609 o
1 -5 18 3.108 3.259 0.394 28.197 o
1 -5 19 1.603 1.772 0.335 39.833 o
1 -5 20 0.416 0.473 0.286 55.394 o
1 -4 0 550.988 554.448 4.244 0.025 o
1 -4 1 22.477 19.655 0.217 15.530 o
1 -4 2 102.108 105.996 0.847 0.712 o
1 -4 3 249.615 244.201 1.960 0.125 o
1 -4 4 24.208 22.206 0.246 12.832 o
1 -4 5 92.786 91.195 0.788 0.886 o
1 -4 6 13.714 13.264 0.167 36.203 o
1 -4 7 95.627 96.759 0.985 0.777 o
1 -4 8 4.371 4.796 0.138 152.126 o
1 -4 9 10.077 10.271 0.177 52.842 o
1 -4 11 41.920 43.023 0.463 3.912 o
1 -4 12 3.237 2.974 0.118 235.718 o
1 -4 14 1.243 1.556 0.197 113.802 o
1 -4 15 0.966 0.473 0.443 22.994 o
1 -4 17 0.911 0.620 0.276 59.222 o
1 -4 18 0.319 0.502 0.374 32.284 o
1 -4 19 0.591 0.542 0.335 40.286 o
1 -4 20 0.964 1.044 0.286 55.112 o
1 -3 0 979.916 951.558 6.765 0.008 o
1 -3 1 57.963 61.850 0.492 2.162 o
1 -3 2 1.094 0.798 0.079 672.287 o
1 -3 3 437.839 430.157 3.191 0.041 o
1 -3 4 15.314 12.723 0.207 29.611 o
1 -3 5 13.175 12.378 0.197 35.736 o
1 -3 6 71.446 68.941 0.817 1.373 o
1 -3 7 396.017 397.119 3.486 0.048 o
1 -3 8 4.283 4.805 0.158 128.170 o
1 -3 9 0.214 0.591 0.158 181.755 o
1 -3 10 8.268 7.533 0.158 77.017 o
1 -3 11 1.833 1.950 0.108 333.076 o
1 -3 12 2.553 2.344 0.187 118.238 o
1 -3 13 20.347 20.157 0.542 8.868 o
1 -3 14 6.813 6.460 0.217 64.114 o
1 -3 15 4.241 4.018 0.423 24.002 o
1 -3 16 5.485 4.796 0.187 91.278 o
1 -3 18 1.343 1.507 0.354 35.698 o
1 -3 19 0.047 0.374 0.305 48.529 o
1 -2 0 151.674 140.874 1.251 0.345 o
1 -2 1 209.865 212.769 1.497 0.176 o
1 -2 2 25.131 29.325 0.354 9.112 o
1 -2 3 562.780 548.904 4.008 0.025 o
1 -2 4 96.521 98.984 0.758 0.813 o
1 -2 5 1.313 0.729 0.158 177.488 o
1 -2 6 60.755 63.672 0.689 1.822 o
1 -2 7 294.094 290.828 2.639 0.087 o
1 -2 8 6.307 7.031 0.226 61.220 o
1 -2 9 63.332 61.683 0.926 1.542 o
1 -2 10 76.180 75.430 0.630 1.317 o
1 -2 11 50.919 52.151 0.679 2.446 o
1 -2 12 1.213 0.867 0.187 126.906 o
1 -2 13 1.259 1.516 0.197 113.813 o
1 -2 14 12.501 12.112 0.266 29.893 o
1 -2 15 8.894 8.715 0.177 62.367 o
1 -2 16 1.792 1.438 0.177 137.500 o
1 -2 17 1.730 1.507 0.167 153.487 o
1 -2 18 0.514 0.483 0.394 29.127 o
1 -2 19 0.423 0.404 0.098 462.073 o
1 -1 0 91.447 89.393 0.739 0.926 o
1 -1 2 8.612 9.956 0.118 79.080 o
1 -1 3 60.647 61.663 0.483 2.064 o
1 -1 4 176.231 189.648 1.723 0.224 o
1 -1 5 249.038 255.240 2.107 0.120 o
1 -1 6 194.666 203.788 1.615 0.195 o
1 -1 7 128.552 121.682 1.034 0.478 o
1 -1 8 5.804 5.455 0.138 125.474 o
1 -1 9 0.221 0.187 0.138 237.686 o
1 -1 10 17.089 15.746 0.246 21.907 o
1 -1 11 6.500 6.607 0.207 69.302 o
1 -1 12 61.283 60.295 0.660 1.891 o
1 -1 13 25.852 25.948 0.798 4.573 o
1 -1 14 13.079 12.339 0.512 12.962 o
1 -1 15 2.568 2.403 0.158 160.675 o
1 -1 16 4.921 4.549 0.276 51.312 o
1 -1 17 1.918 1.664 0.158 170.068 o
1 -1 19 1.801 1.516 0.295 50.931 o
1 0 0 2836.100 2728.830 23.495 0.001 o
1 0 1 592.687 610.321 4.205 0.022 o
1 0 2 3.358 3.968 0.148 158.705 o
1 0 3 5.870 7.563 0.286 43.761 o
1 0 4 175.166 195.369 1.802 0.219 o
1 0 5 19.609 17.341 0.207 19.667 o
1 0 6 279.183 274.954 2.245 0.099 o
1 0 7 39.203 36.139 0.364 5.022 o
1 0 8 1.937 1.546 0.226 85.314 o
1 0 9 27.548 26.735 0.266 9.778 o
1 0 10 9.111 9.552 0.276 37.328 o
1 0 11 24.677 24.697 0.443 8.744 o
1 0 12 8.337 7.878 0.236 49.632 o
1 0 13 1.351 1.034 0.207 103.784 o
1 0 16 3.677 3.506 0.433 23.238 o
1 1 0 260.814 262.350 1.832 0.115 o
1 1 1 0.381 0.955 0.079 709.063 o
1 1 2 190.437 206.408 1.792 0.193 o
1 1 3 51.225 50.329 0.817 2.224 o
1 1 4 12.651 14.702 0.226 31.203 o
1 1 5 0.745 1.487 0.108 369.162 o
1 1 6 6.697 6.706 0.197 72.445 o
1 1 7 0.127 0.286 0.118 323.517 o
1 1 8 59.576 58.483 0.512 2.145 o
1 1 9 13.886 13.993 0.187 32.994 o
1 1 10 4.648 4.796 0.207 83.165 o
1 1 11 44.017 44.234 1.192 1.851 o
1 1 12 8.435 8.410 0.433 20.090 o
1 1 13 1.986 1.891 0.423 24.946 o
1 1 14 1.473 1.142 0.158 175.290 o
1 1 15 17.691 18.119 0.325 16.561 o
1 1 16 2.911 2.856 0.167 139.461 o
1 1 18 1.236 1.152 0.295 51.373 o
1 2 0 461.552 465.567 3.171 0.037 o
1 2 1 0.012 0.463 0.187 129.154 o
1 2 2 929.015 943.424 8.134 0.009 o
1 2 3 46.581 48.882 0.414 3.346 o
1 2 4 0.842 1.704 0.226 87.033 o
1 2 5 0.759 0.325 0.108 379.059 o
1 2 6 1.237 1.192 0.118 306.651 o
1 2 7 2.679 2.117 0.128 230.074 o
1 2 8 9.376 9.719 0.187 54.860 o
1 2 9 8.944 9.266 0.197 55.199 o
1 2 10 15.403 15.834 0.492 12.233 o
1 2 11 6.477 6.046 0.217 66.453 o
1 2 12 5.801 5.268 0.236 62.377 o
1 2 13 3.307 2.974 0.187 111.991 o
1 2 14 1.868 1.418 0.207 102.055 o
1 2 15 6.905 6.962 0.512 15.734 o
1 3 0 0.526 0.551 0.108 380.602 o
1 3 1 6.572 7.563 0.158 90.611 o
1 3 2 95.928 100.225 0.867 0.787 o
1 3 3 198.232 211.075 1.694 0.185 o
1 3 4 0.854 0.886 0.128 269.517 o
1 3 5 39.645 37.085 0.492 4.370 o
1 3 6 16.753 16.396 0.217 23.476 o
1 3 7 9.192 9.158 0.197 54.376 o
1 3 8 2.233 2.688 0.118 266.707 o
1 3 9 12.918 12.506 0.187 37.368 o
1 3 10 10.980 10.714 0.345 24.952 o
1 3 11 23.698 23.476 0.729 5.483 o
1 3 13 0.957 1.211 0.187 127.129 o
1 3 14 21.211 22.727 0.670 6.491 o
1 3 15 8.452 8.587 0.502 15.583 o
1 4 0 136.461 140.146 1.694 0.352 o
1 4 1 213.613 210.632 1.861 0.166 o
1 4 2 3.044 2.816 0.138 191.277 o
1 4 4 215.159 211.706 1.832 0.165 o
1 4 5 6.006 6.164 0.207 72.838 o
1 4 6 0.035 0.177 0.148 207.269 o
1 4 8 81.259 81.683 0.689 1.141 o
1 4 9 7.461 7.110 0.158 84.966 o
1 4 10 11.160 11.098 0.226 38.773 o
1 4 11 1.047 1.182 0.423 25.138 o
1 4 12 12.074 11.777 0.492 14.225 o
1 4 13 7.515 6.972 0.502 16.122 o
1 4 14 2.488 2.797 0.463 20.772 o
1 4 15 4.941 5.219 0.443 21.568 o
1 5 0 1.047 0.709 0.098 445.327 o
1 5 1 38.342 39.349 0.443 4.595 o
1 5 2 85.979 87.778 0.729 1.010 o
1 5 3 1.370 1.123 0.138 227.518 o
1 5 4 35.546 36.287 0.581 4.468 o
1 5 5 4.380 3.801 0.148 145.663 o
1 5 6 15.962 15.224 0.217 25.549 o
1 5 7 25.188 25.494 0.276 10.954 o
1 5 8 9.564 9.227 0.217 48.125 o
1 5 9 13.917 14.249 0.236 28.358 o
1 5 10 5.357 4.786 0.433 22.414 o
1 5 11 13.438 13.944 0.748 6.878 o
1 5 12 0.468 0.433 0.187 128.801 o
1 5 13 2.188 1.979 0.463 20.885 o
1 6 0 55.989 58.660 0.492 2.324 o
1 6 1 145.053 147.679 1.211 0.357 o
1 6 2 175.019 177.191 1.497 0.244 o
1 6 3 24.790 23.988 0.295 11.195 o
1 6 4 0.686 0.404 0.128 272.920 o
1 6 6 100.142 101.062 0.955 0.726 o
1 6 7 39.708 39.359 0.384 4.648 o
1 6 8 7.565 7.769 0.246 49.544 o
1 6 9 1.716 1.280 0.197 112.829 o
1 6 10 2.178 1.871 0.158 166.943 o
1 6 11 10.504 10.399 0.522 13.701 o
1 6 12 4.564 4.687 0.492 17.835 o
1 6 14 2.107 2.186 0.394 28.708 o
1 7 0 36.571 38.010 0.354 5.329 o
1 7 1 245.431 249.342 2.255 0.122 o
1 7 2 66.555 68.684 1.320 1.097 o
1 7 3 7.153 6.982 0.167 82.919 o
1 7 4 27.641 28.626 0.325 8.738 o
1 7 5 0.658 0.601 0.158 180.634 o
1 7 6 43.208 43.357 0.581 3.418 o
1 7 7 11.817 11.649 0.187 41.932 o
1 7 8 3.895 3.565 0.217 83.024 o
1 7 10 0.065 0.217 0.148 207.236 o
1 7 11 7.123 7.120 0.295 39.679 o
1 7 14 0.725 0.719 0.325 42.720 o
1 8 0 60.322 63.091 0.611 1.926 o
1 8 1 6.459 6.194 0.138 112.006 o
1 8 2 15.148 15.362 0.246 24.769 o
1 8 3 3.327 3.062 0.187 111.594 o
1 8 4 3.289 3.368 0.187 110.869 o
1 8 5 28.280 28.705 0.384 7.894 o
1 8 6 15.395 15.184 0.502 12.032 o
1 8 7 3.183 2.866 0.423 24.543 o
1 8 8 3.913 3.191 0.463 20.437 o
1 8 9 7.788 7.730 0.217 57.455 o
1 8 11 0.575 0.207 0.148 206.284 o
1 8 12 1.432 1.388 0.394 28.954 o
1 9 0 13.666 13.373 0.177 35.230 o
1 9 1 1.375 1.211 0.118 303.933 o
1 9 3 17.616 17.597 0.295 18.048 o
1 9 4 11.002 10.822 0.246 36.572 o
1 9 5 5.610 5.495 0.364 30.335 o
1 9 6 5.091 5.475 0.719 8.516 o
1 9 7 4.210 3.437 0.187 104.615 o
1 10 0 6.687 6.598 0.148 100.155 o
1 10 1 31.216 31.275 0.394 6.760 o
1 10 2 1.093 0.995 0.217 95.169 o
1 10 3 2.405 2.097 0.207 99.283 o
1 10 4 0.708 0.443 0.217 95.957 o
1 10 5 6.286 6.194 0.443 20.846 o
1 10 6 21.907 22.629 0.305 12.866 o
1 10 7 2.611 2.206 0.433 23.685 o
1 10 8 2.434 2.117 0.394 28.625 o
1 10 9 1.063 1.063 0.364 33.919 o
1 10 10 3.639 3.584 0.335 38.008 o
1 11 0 0.277 0.286 0.128 275.302 o
1 11 1 33.330 33.087 0.640 4.560 o
1 11 2 21.839 21.556 0.335 12.524 o
1 11 3 27.391 27.109 0.394 8.259 o
1 11 5 13.834 14.367 0.246 27.577 o
1 11 6 6.127 6.007 0.158 102.013 o
1 12 0 13.760 13.717 0.276 25.766 o
1 12 1 0.790 0.551 0.394 29.102 o
1 12 3 2.630 1.684 0.187 119.568 o
1 12 5 12.351 12.476 0.512 13.183 o
1 12 6 3.518 2.866 0.236 73.435 o
1 12 7 0.567 0.542 0.335 40.290 o
1 12 8 3.071 2.806 0.325 41.011 o
1 13 1 1.931 1.733 0.433 23.860 o
1 13 3 10.762 10.753 0.217 41.916 o
1 13 5 0.165 0.512 0.374 32.292 o
1 14 0 1.969 1.576 0.443 22.827 o
1 14 2 1.049 0.965 0.226 87.239 o
1 14 5 3.754 3.663 0.138 171.911 o
1 15 2 1.482 1.103 0.394 28.971 o
1 15 4 2.407 2.314 0.108 307.556 o
1 15 5 2.250 2.029 0.276 57.604 o
1 16 1 0.918 0.650 0.354 35.887 o
1 16 3 2.039 1.654 0.098 389.240 o
1 17 2 2.811 2.885 0.295 49.427 o
2 -20 5 0.274 0.158 0.089 573.716 o
2 -20 11 1.728 1.743 0.315 44.836 o
2 -19 3 2.420 2.294 0.295 50.115 o
2 -19 7 0.659 0.492 0.335 40.280 o
2 -19 8 0.849 0.788 0.354 35.887 o
2 -19 9 2.502 2.590 0.374 31.541 o
2 -19 12 0.516 0.473 0.364 34.037 o
2 -19 13 2.355 2.206 0.315 44.301 o
2 -18 0 1.924 1.753 0.295 50.758 o
2 -18 5 1.153 1.113 0.138 229.706 o
2 -18 9 2.093 2.029 0.364 33.501 o
2 -18 11 2.711 2.649 0.138 198.214 o
2 -18 12 2.353 2.718 0.354 35.090 o
2 -18 14 1.351 1.270 0.335 40.019 o
2 -18 18 0.316 0.345 0.246 74.560 o
2 -17 2 2.944 2.511 0.384 29.831 o
2 -17 4 2.589 2.393 0.167 144.142 o
2 -17 5 8.740 9.276 0.187 58.815 o
2 -17 6 0.435 0.571 0.433 24.077 o
2 -17 8 1.005 0.857 0.128 268.129 o
2 -17 10 1.106 0.827 0.128 267.187 o
2 -17 12 4.408 4.343 0.187 100.200 o
2 -17 14 0.671 0.739 0.374 32.243 o
2 -17 16 1.862 1.763 0.325 42.128 o
2 -16 1 4.810 4.983 0.187 95.251 o
2 -16 2 1.627 1.477 0.118 296.129 o
2 -16 3 0.415 0.266 0.158 181.686 o
2 -16 4 8.321 8.636 0.256 43.935 o
2 -16 5 4.020 4.106 0.187 103.642 o
2 -16 6 2.496 2.413 0.138 203.595 o
2 -16 7 3.387 3.191 0.167 133.674 o
2 -16 8 3.276 3.437 0.148 163.538 o
2 -16 9 1.269 0.945 0.256 68.260 o
2 -16 10 0.347 0.305 0.197 116.432 o
2 -16 11 1.255 1.083 0.167 157.156 o
2 -16 12 0.361 0.453 0.167 160.931 o
2 -16 13 5.583 5.790 0.404 25.151 o
2 -16 17 0.475 0.542 0.335 40.302 o
2 -16 18 2.875 2.915 0.295 49.342 o
2 -15 0 0.770 0.630 0.148 204.716 o
2 -15 2 4.435 4.106 0.167 119.407 o
2 -15 3 0.728 0.778 0.187 128.137 o
2 -15 4 12.588 13.225 0.384 19.346 o
2 -15 5 14.516 14.338 0.502 12.484 o
2 -15 6 12.562 12.880 0.473 14.687 o
2 -15 7 0.327 0.404 0.384 30.652 o
2 -15 8 4.257 4.096 0.364 31.839 o
2 -15 9 2.446 2.225 0.374 31.631 o
2 -15 10 0.586 0.581 0.138 235.746 o
2 -15 13 3.840 3.900 0.167 126.093 o
2 -15 14 0.560 0.492 0.158 181.089 o
2 -15 16 0.357 0.295 0.148 206.738 o
2 -15 18 0.540 0.414 0.118 320.909 o
2 -14 2 31.688 32.860 0.689 4.447 o
2 -14 3 9.258 8.912 0.325 30.229 o
2 -14 4 7.269 7.001 0.197 68.591 o
2 -14 5 0.122 0.433 0.305 48.522 o
2 -14 6 12.318 12.782 0.394 19.077 o
2 -14 7 1.569 1.448 0.177 138.533 o
2 -14 8 2.760 2.619 0.177 128.146 o
2 -14 9 4.226 3.732 0.177 112.775 o
2 -14 10 7.301 7.021 0.335 32.431 o
2 -14 12 0.762 0.542 0.384 30.614 o
2 -14 13 12.751 12.348 0.364 20.882 o
2 -14 14 1.190 1.024 0.167 157.580 o
2 -14 15 1.138 0.945 0.118 310.404 o
2 -14 16 0.813 0.571 0.158 180.150 o
2 -14 18 0.129 0.158 0.128 275.824 o
2 -14 19 1.288 1.093 0.374 32.120 o
2 -13 0 44.702 45.100 0.817 2.619 o
2 -13 1 0.625 0.571 0.167 160.286 o
2 -13 2 13.413 13.569 0.591 10.174 o
2 -13 3 3.566 3.279 0.197 100.219 o
2 -13 4 40.700 41.565 0.542 3.839 o
2 -13 5 0.973 0.896 0.158 178.796 o
2 -13 6 5.864 5.849 0.177 91.374 o
2 -13 7 24.602 24.342 0.315 10.876 o
2 -13 8 1.049 0.876 0.167 158.466 o
2 -13 9 2.716 2.304 0.167 143.467 o
2 -13 10 5.020 5.121 0.207 80.461 o
2 -13 11 9.146 9.030 0.433 19.544 o
2 -13 12 3.659 3.319 0.197 99.605 o
2 -13 13 2.858 2.363 0.266 60.702 o
2 -13 14 6.617 6.450 0.404 24.359 o
2 -13 16 1.248 0.945 0.118 308.588 o
2 -13 17 3.152 3.181 0.512 16.910 o
2 -13 20 1.283 1.162 0.345 37.817 o
2 -12 0 38.871 40.354 0.473 4.351 o
2 -12 1 10.161 10.084 0.305 30.707 o
2 -12 3 1.798 1.763 0.158 170.646 o
2 -12 4 17.823 17.183 0.364 15.276 o
2 -12 5 2.428 2.334 0.226 83.262 o
2 -12 6 2.598 2.363 0.158 160.570 o
2 -12 7 0.468 0.276 0.148 206.490 o
2 -12 8 1.251 1.123 0.158 176.729 o
2 -12 9 12.883 12.762 0.384 19.299 o
2 -12 10 4.928 4.441 0.158 122.952 o
2 -12 11 0.187 0.286 0.148 207.062 o
2 -12 12 30.485 31.196 0.404 6.852 o
2 -12 13 35.992 36.297 0.483 4.922 o
2 -12 14 1.008 1.004 0.246 73.978 o
2 -12 15 3.216 3.358 0.197 101.873 o
2 -12 16 2.904 2.688 0.128 219.438 o
2 -12 17 1.445 1.576 0.207 102.957 o
2 -12 19 0.637 0.394 0.404 27.720 o
2 -12 20 0.948 1.063 0.354 35.844 o
2 -11 0 0.187 0.236 0.177 143.861 o
2 -11 1 0.839 0.975 0.148 203.462 o
2 -11 2 0.537 0.414 0.148 206.079 o
2 -11 3 11.728 11.009 0.374 21.585 o
2 -11 4 12.355 12.358 0.226 34.339 o
2 -11 5 9.304 9.089 0.187 56.607 o
2 -11 6 10.454 10.005 0.187 49.743 o
2 -11 7 0.652 0.640 0.138 235.240 o
2 -11 8 3.467 3.043 0.148 163.612 o
2 -11 9 0.748 0.719 0.128 271.246 o
2 -11 10 22.374 21.713 0.522 8.520 o
2 -11 11 0.636 0.591 0.138 235.462 o
2 -11 12 26.756 27.247 0.551 6.595 o
2 -11 13 10.218 9.522 0.197 49.532 o
2 -11 14 3.672 3.565 0.177 117.838 o
2 -11 15 1.792 2.157 0.207 101.203 o
2 -11 16 1.777 1.556 0.187 123.803 o
2 -11 18 2.263 2.373 0.453 21.748 o
2 -11 20 0.770 0.640 0.374 32.237 o
2 -10 0 0.922 0.886 0.138 232.637 o
2 -10 1 1.000 0.916 0.128 267.862 o
2 -10 2 0.809 0.926 0.118 315.361 o
2 -10 3 1.742 1.615 0.128 252.545 o
2 -10 4 22.110 21.625 0.276 13.716 o
2 -10 5 1.512 1.566 0.158 173.579 o
2 -10 6 21.042 20.285 0.295 14.362 o
2 -10 7 2.027 1.950 0.108 326.731 o
2 -10 8 1.918 1.792 0.118 285.943 o
2 -10 9 0.765 0.729 0.118 317.124 o
2 -10 11 7.595 7.632 0.187 69.068 o
2 -10 12 29.184 29.187 0.542 6.096 o
2 -10 13 1.808 1.644 0.148 192.982 o
2 -10 14 0.897 0.857 0.187 127.706 o
2 -10 15 14.952 15.854 0.611 9.132 o
2 -10 16 3.014 2.984 0.226 80.697 o
2 -10 17 9.270 10.044 0.207 49.932 o
2 -10 18 2.806 2.629 0.404 27.087 o
2 -10 19 0.927 0.995 0.128 268.218 o
2 -9 0 9.767 9.562 0.167 58.312 o
2 -9 1 30.585 29.099 0.354 7.506 o
2 -9 2 12.264 12.043 0.177 41.236 o
2 -9 3 20.453 20.266 0.384 12.342 o
2 -9 4 205.397 207.757 2.078 0.169 o
2 -9 5 182.962 181.494 1.664 0.223 o
2 -9 6 1.440 1.201 0.118 302.782 o
2 -9 7 5.743 5.317 0.128 137.424 o
2 -9 8 33.299 32.466 0.305 6.776 o
2 -9 9 0.285 0.404 0.118 322.628 o
2 -9 11 9.577 9.040 0.158 63.394 o
2 -9 12 5.053 4.894 0.148 129.278 o
2 -9 13 1.621 1.674 0.325 42.265 o
2 -9 14 5.919 5.869 0.295 42.822 o
2 -9 16 1.370 1.763 0.177 138.722 o
2 -9 17 0.184 0.276 0.187 129.116 o
2 -9 19 1.027 0.729 0.177 141.913 o
2 -8 0 73.025 72.938 0.611 1.423 o
2 -8 1 27.333 25.652 0.276 9.972 o
2 -8 2 67.178 64.874 0.650 1.648 o
2 -8 3 105.638 102.588 0.906 0.687 o
2 -8 4 224.183 224.999 2.127 0.146 o
2 -8 5 4.007 4.490 0.187 102.432 o
2 -8 6 91.018 91.382 0.778 0.908 o
2 -8 7 0.330 0.246 0.138 237.374 o
2 -8 8 53.836 53.983 0.581 2.423 o
2 -8 9 38.403 38.247 0.581 4.067 o
2 -8 10 0.234 0.394 0.364 34.060 o
2 -8 11 0.668 0.551 0.197 115.984 o
2 -8 12 0.539 0.542 0.158 181.081 o
2 -8 13 0.402 0.601 0.128 274.064 o
2 -8 14 16.810 16.612 0.266 20.713 o
2 -8 15 2.070 2.265 0.414 26.076 o
2 -8 17 3.840 4.126 0.177 114.285 o
2 -8 18 0.392 0.443 0.394 29.135 o
2 -8 19 0.501 0.315 0.128 274.297 o
2 -8 20 2.305 2.019 0.295 50.342 o
2 -7 0 1.229 1.497 0.108 357.575 o
2 -7 1 40.753 38.355 0.473 4.250 o
2 -7 2 6.623 6.066 0.187 79.582 o
2 -7 3 198.769 199.091 1.674 0.191 o
2 -7 4 106.750 103.494 0.886 0.678 o
2 -7 5 94.355 95.321 0.788 0.847 o
2 -7 6 28.046 27.159 0.276 9.391 o
2 -7 7 32.124 31.935 0.315 7.059 o
2 -7 8 2.585 2.265 0.177 130.518 o
2 -7 9 6.915 6.588 0.187 76.141 o
2 -7 10 28.435 28.498 0.295 8.804 o
2 -7 11 12.936 13.067 0.256 29.315 o
2 -7 12 2.788 2.541 0.236 75.750 o
2 -7 13 11.672 10.891 0.295 29.019 o
2 -7 14 3.040 2.875 0.256 64.388 o
2 -7 15 7.834 7.582 0.463 18.398 o
2 -7 16 2.505 2.570 0.158 160.463 o
2 -7 17 0.965 1.014 0.404 27.661 o
2 -7 18 6.852 6.854 0.177 80.550 o
2 -7 19 2.861 2.738 0.354 34.829 o
2 -6 0 49.938 54.219 0.591 2.601 o
2 -6 1 120.640 116.532 0.935 0.541 o
2 -6 2 42.605 43.082 0.394 4.044 o
2 -6 3 17.963 18.040 0.226 20.397 o
2 -6 4 48.480 48.054 0.443 3.169 o
2 -6 5 49.108 46.430 0.404 3.260 o
2 -6 6 7.620 6.548 0.118 108.340 o
2 -6 8 3.511 3.407 0.236 72.692 o
2 -6 9 1.569 1.516 0.138 223.094 o
2 -6 10 37.385 36.750 0.433 4.940 o
2 -6 12 2.670 2.363 0.286 53.197 o
2 -6 13 3.614 3.082 0.542 15.099 o
2 -6 14 0.639 0.502 0.305 48.440 o
2 -6 15 10.845 10.389 0.473 15.946 o
2 -6 17 2.766 2.718 0.414 25.840 o
2 -6 18 0.735 0.847 0.364 33.990 o
2 -6 19 2.076 1.960 0.325 41.963 o
2 -6 20 3.928 4.106 0.305 44.534 o
2 -5 0 0.240 0.591 0.138 237.137 o
2 -5 1 24.591 23.929 0.246 12.112 o
2 -5 2 20.836 17.981 0.315 14.707 o
2 -5 3 293.692 281.286 2.442 0.090 o
2 -5 4 15.447 16.337 0.226 24.872 o
2 -5 6 98.011 98.994 0.906 0.765 o
2 -5 7 230.421 230.721 1.920 0.143 o
2 -5 8 44.314 43.594 0.404 3.813 o
2 -5 9 16.088 16.120 0.266 21.829 o
2 -5 10 20.059 20.187 0.246 16.541 o
2 -5 11 14.235 13.855 0.217 29.800 o
2 -5 12 8.129 7.957 0.187 65.245 o
2 -5 13 10.243 10.172 0.256 37.517 o
2 -5 14 43.731 44.283 0.630 3.201 o
2 -5 15 0.343 0.305 0.187 128.993 o
2 -5 16 2.372 2.275 0.453 21.738 o
2 -5 17 8.351 8.203 0.453 18.730 o
2 -4 0 85.893 87.522 0.857 0.969 o
2 -4 1 28.917 26.657 0.345 8.430 o
2 -4 2 0.491 0.483 0.079 714.355 o
2 -4 3 214.222 219.800 1.871 0.161 o
2 -4 4 57.948 57.813 0.502 2.241 o
2 -4 5 64.582 65.563 0.551 1.793 o
2 -4 6 7.694 7.454 0.138 91.296 o
2 -4 7 157.304 159.486 1.320 0.304 o
2 -4 8 80.468 79.260 0.679 1.178 o
2 -4 9 1.475 1.379 0.138 224.995 o
2 -4 10 35.123 35.647 0.315 5.986 o
2 -4 11 7.587 7.809 0.177 72.562 o
2 -4 12 69.967 70.575 0.739 1.441 o
2 -4 13 0.049 0.256 0.207 105.749 o
2 -4 14 2.886 2.639 0.670 9.995 o
2 -4 15 2.252 2.038 0.473 20.020 o
2 -4 17 3.936 3.742 0.217 82.494 o
2 -4 19 0.190 0.325 0.325 42.819 o
2 -3 0 6.244 7.602 0.138 106.110 o
2 -3 1 110.944 114.307 0.995 0.595 o
2 -3 2 98.945 92.219 0.758 0.822 o
2 -3 3 810.262 802.687 7.208 0.011 o
2 -3 4 3.886 4.786 0.148 145.687 o
2 -3 5 270.550 262.399 2.442 0.103 o
2 -3 6 35.523 33.678 0.354 5.893 o
2 -3 7 69.345 67.394 0.719 1.507 o
2 -3 8 77.791 78.256 0.709 1.222 o
2 -3 9 3.233 2.974 0.128 209.377 o
2 -3 10 30.824 31.747 0.305 7.493 o
2 -3 11 8.213 7.858 0.187 65.060 o
2 -3 12 23.995 23.643 0.374 10.272 o
2 -3 13 77.326 76.877 0.837 1.179 o
2 -3 14 0.838 0.542 0.423 25.186 o
2 -3 16 3.013 2.698 0.148 172.160 o
2 -3 17 5.964 6.351 0.177 88.730 o
2 -3 19 0.272 0.236 0.226 88.111 o
2 -2 0 391.449 365.096 2.629 0.054 o
2 -2 1 422.762 421.530 3.062 0.044 o
2 -2 2 42.504 37.685 0.423 4.266 o
2 -2 3 72.297 70.201 0.748 1.387 o
2 -2 4 11.610 10.537 0.266 32.923 o
2 -2 5 89.174 88.093 0.748 0.959 o
2 -2 6 2.133 2.777 0.236 76.976 o
2 -2 7 17.240 17.922 0.236 20.886 o
2 -2 8 0.487 0.522 0.148 206.066 o
2 -2 9 29.628 31.482 0.335 7.615 o
2 -2 10 13.492 12.939 0.187 35.257 o
2 -2 12 2.721 2.580 0.197 106.290 o
2 -2 15 2.955 2.521 0.197 105.314 o
2 -2 16 0.413 0.433 0.148 206.426 o
2 -2 18 1.457 1.152 0.148 198.503 o
2 -2 19 0.859 0.709 0.325 42.692 o
2 -1 0 78.434 73.913 0.561 1.318 o
2 -1 1 568.312 583.576 4.106 0.024 o
2 -1 2 167.387 153.755 1.152 0.296 o
2 -1 3 25.262 25.750 0.256 11.139 o
2 -1 4 1.866 1.201 0.148 194.596 o
2 -1 5 631.223 626.510 6.056 0.018 o
2 -1 6 3.911 3.880 0.226 76.257 o
2 -1 7 0.865 1.694 0.128 264.904 o
2 -1 8 16.058 15.066 0.394 15.846 o
2 -1 9 2.747 3.230 0.286 52.590 o
2 -1 10 0.305 0.177 0.138 237.521 o
2 -1 11 34.112 33.609 0.414 5.814 o
2 -1 12 1.046 0.788 0.187 127.438 o
2 -1 14 5.642 5.426 0.167 101.946 o
2 -1 15 2.309 2.294 0.236 77.117 o
2 -1 16 0.702 0.611 0.167 160.038 o
2 -1 18 2.940 2.619 0.335 38.882 o
2 0 0 57.704 61.988 0.463 2.200 o
2 0 1 204.276 200.765 1.448 0.190 o
2 0 2 332.670 336.687 2.501 0.070 o
2 0 3 1.224 1.103 0.089 526.412 o
2 0 4 19.766 24.273 0.473 9.797 o
2 0 5 187.811 181.573 1.566 0.219 o
2 0 6 120.385 121.731 1.123 0.505 o
2 0 7 101.876 95.961 1.014 0.720 o
2 0 8 27.357 26.745 0.276 9.740 o
2 0 9 80.772 82.067 0.906 1.053 o
2 0 10 2.512 3.112 0.187 116.334 o
2 0 11 8.746 8.528 0.295 35.644 o
2 0 12 21.079 20.157 0.512 9.241 o
2 0 13 5.710 5.583 0.433 22.101 o
2 0 14 3.712 3.437 0.158 142.553 o
2 0 15 1.625 1.487 0.187 124.535 o
2 0 16 0.392 0.286 0.158 181.710 o
2 0 17 1.488 1.300 0.108 353.254 o
2 0 18 1.681 1.635 0.246 72.872 o
2 1 0 6.920 7.188 0.089 134.085 o
2 1 1 147.799 154.513 1.310 0.333 o
2 1 2 111.213 123.268 1.142 0.545 o
2 1 3 47.325 48.281 0.463 3.208 o
2 1 4 243.518 255.624 2.186 0.122 o
2 1 5 233.474 225.886 1.832 0.144 o
2 1 7 6.969 5.810 0.217 64.839 o
2 1 8 18.884 17.764 0.197 20.627 o
2 1 9 20.098 20.157 0.345 13.625 o
2 1 10 26.597 26.154 0.364 9.024 o
2 1 11 60.068 59.802 0.876 1.698 o
2 1 12 5.600 5.002 0.226 67.850 o
2 1 13 6.223 6.145 0.207 71.806 o
2 1 14 0.819 0.689 0.187 128.046 o
2 1 15 5.416 5.239 0.177 97.202 o
2 1 17 2.109 1.930 0.266 62.040 o
2 2 0 5.698 6.706 0.118 136.471 o
2 2 1 21.936 24.401 0.256 13.368 o
2 2 2 104.724 122.529 1.260 0.563 o
2 2 3 0.507 0.433 0.158 181.306 o
2 2 4 321.134 316.884 2.816 0.073 o
2 2 5 4.151 3.082 0.138 170.102 o
2 2 6 2.911 2.984 0.128 216.134 o
2 2 7 19.063 18.601 0.197 19.915 o
2 2 8 30.027 30.585 0.345 7.543 o
2 2 9 23.409 23.377 0.295 12.041 o
2 2 10 4.253 4.008 0.197 94.321 o
2 2 12 2.043 2.097 0.414 26.100 o
2 2 14 0.450 0.433 0.256 68.889 o
2 2 15 13.898 14.377 0.414 16.439 o
2 2 16 2.284 2.688 0.404 27.233 o
2 3 0 21.900 22.905 0.266 13.661 o
2 3 1 74.292 78.532 1.014 1.117 o
2 3 2 19.613 23.180 0.266 15.146 o
2 3 3 0.477 0.739 0.128 273.202 o
2 3 4 29.403 28.754 0.423 7.202 o
2 3 5 6.183 4.687 0.197 81.044 o
2 3 6 46.219 45.819 0.384 3.572 o
2 3 7 20.253 20.059 0.207 17.570 o
2 3 8 17.689 18.493 0.217 20.865 o
2 3 9 35.680 36.395 0.345 5.666 o
2 3 10 12.350 12.732 0.256 30.653 o
2 3 11 7.411 7.307 0.236 53.518 o
2 3 12 3.323 3.387 0.207 92.959 o
2 3 13 9.371 9.325 0.512 14.670 o
2 3 14 7.446 7.622 0.512 15.497 o
2 3 16 2.190 2.107 0.118 275.332 o
2 4 0 409.165 422.889 3.939 0.043 o
2 4 1 8.194 8.656 0.167 69.874 o
2 4 2 10.069 11.787 0.256 36.126 o
2 4 3 2.664 3.200 0.138 194.435 o
2 4 4 6.061 5.554 0.246 57.332 o
2 4 6 8.245 8.764 0.128 84.211 o
2 4 8 22.725 23.889 0.246 13.226 o
2 4 9 2.818 2.422 0.197 106.200 o
2 4 10 10.377 10.546 0.492 15.089 o
2 4 11 2.045 1.960 0.492 18.494 o
2 4 12 0.346 0.266 0.177 143.715 o
2 4 13 2.974 2.984 0.177 125.337 o
2 5 0 92.717 97.891 0.886 0.825 o
2 5 1 85.279 89.629 0.788 0.987 o
2 5 2 8.525 9.040 0.295 35.583 o
2 5 3 32.563 30.901 0.335 6.940 o
2 5 4 6.058 6.007 0.138 118.323 o
2 5 5 0.679 0.748 0.098 454.268 o
2 5 7 5.964 5.830 0.118 139.529 o
2 5 8 16.931 16.701 0.354 16.429 o
2 5 9 12.931 12.910 0.207 34.595 o
2 5 10 1.634 1.743 0.177 137.527 o
2 5 11 5.820 5.958 0.512 16.134 o
2 5 12 12.198 12.063 0.226 35.038 o
2 6 0 3.748 3.643 0.118 213.083 o
2 6 1 7.047 7.326 0.246 51.715 o
2 6 2 123.395 124.656 1.595 0.426 o
2 6 3 19.060 19.438 0.266 17.095 o
2 6 4 3.854 3.437 0.138 172.142 o
2 6 5 7.929 8.075 0.158 77.522 o
2 6 6 44.706 46.144 0.433 3.581 o
2 6 7 16.824 16.799 0.305 18.680 o
2 6 8 17.182 17.686 0.217 22.011 o
2 6 9 1.513 1.280 0.187 125.322 o
2 6 10 5.594 4.786 0.276 49.726 o
2 6 11 8.221 8.469 0.650 9.860 o
2 6 12 4.315 4.727 0.473 19.341 o
2 7 0 13.162 13.067 0.226 31.828 o
2 7 1 5.067 5.268 0.305 42.243 o
2 7 2 46.312 45.543 0.522 3.255 o
2 7 3 2.827 2.462 0.128 223.443 o
2 7 4 5.580 5.396 0.217 71.822 o
2 7 5 23.707 23.702 0.276 12.158 o
2 7 7 24.860 25.091 0.364 9.827 o
2 7 8 5.884 5.918 0.433 21.952 o
2 7 9 6.599 6.204 0.295 41.380 o
2 7 10 1.823 1.940 0.512 17.130 o
2 7 11 0.987 0.955 0.473 20.199 o
2 8 0 40.904 41.339 0.364 4.433 o
2 8 1 40.080 39.113 0.404 4.543 o
2 8 2 3.735 3.269 0.138 175.618 o
2 8 4 32.621 32.860 0.414 6.160 o
2 8 5 41.997 41.004 0.492 3.910 o
2 8 6 16.579 16.514 0.522 10.852 o
2 8 9 10.149 9.887 0.197 49.104 o
2 8 10 4.940 4.727 0.158 121.225 o
2 8 12 1.584 1.576 0.384 30.395 o
2 9 0 11.990 11.935 0.217 36.946 o
2 9 1 0.416 0.226 0.138 237.157 o
2 9 2 17.378 17.016 0.286 18.971 o
2 9 3 2.834 2.678 0.305 46.501 o
2 9 4 42.572 43.013 0.522 3.667 o
2 9 5 2.198 2.383 0.217 91.147 o
2 9 7 0.459 0.374 0.158 181.485 o
2 10 0 13.114 13.107 0.207 33.928 o
2 10 1 1.642 1.182 0.217 94.032 o
2 10 2 1.299 0.876 0.197 114.523 o
2 10 4 10.279 10.330 0.256 37.261 o
2 10 5 11.273 10.152 0.502 14.368 o
2 10 6 4.207 3.870 0.217 81.107 o
2 10 7 3.377 3.112 0.148 164.386 o
2 10 9 0.938 0.975 0.325 42.639 o
2 11 1 4.728 4.343 0.217 77.879 o
2 11 2 9.343 9.197 0.335 28.699 o
2 11 3 3.211 2.659 0.414 25.716 o
2 11 5 4.485 4.323 0.148 140.649 o
2 11 7 1.322 1.014 0.148 200.123 o
2 12 1 1.090 1.014 0.207 104.310 o
2 12 3 8.277 7.937 0.492 16.297 o
2 12 4 7.876 8.104 0.197 62.737 o
2 12 6 3.007 2.659 0.187 114.775 o
2 13 0 2.616 2.393 0.414 25.926 o
2 13 1 18.370 18.523 0.453 11.781 o
2 13 2 2.947 2.600 0.177 126.907 o
2 13 3 9.751 10.379 0.483 15.866 o
2 13 4 2.007 1.704 0.404 27.425 o
2 13 7 3.196 3.122 0.305 45.925 o
2 14 1 2.132 1.832 0.177 134.640 o
2 14 3 14.682 15.253 0.512 11.943 o
2 14 4 1.064 0.896 0.335 40.157 o
2 14 6 1.108 1.103 0.256 68.327 o
2 15 0 0.684 0.384 0.325 42.758 o
2 15 1 4.888 5.239 0.404 25.669 o
2 16 3 1.730 1.841 0.286 54.365 o
2 17 0 1.480 1.054 0.315 45.121 o
2 17 1 0.501 0.345 0.177 143.476 o
2 17 2 2.770 2.413 0.246 70.334 o
2 18 0 1.007 1.014 0.276 59.077 o
3 -20 10 1.427 1.329 0.295 51.225 o
3 -20 11 0.918 1.004 0.286 55.142 o
3 -19 6 1.814 1.467 0.345 37.595 o
3 -19 7 0.978 0.689 0.118 314.682 o
3 -19 8 0.706 0.817 0.335 40.244 o
3 -19 9 5.439 5.564 0.138 129.878 o
3 -19 12 1.091 0.837 0.118 311.996 o
3 -18 4 0.209 0.236 0.118 323.329 o
3 -18 5 0.338 0.325 0.148 206.747 o
3 -18 8 1.248 1.398 0.374 32.098 o
3 -18 9 4.788 5.416 0.423 23.502 o
3 -18 10 0.897 0.748 0.138 233.334 o
3 -18 11 5.236 5.534 0.374 29.177 o
3 -18 12 4.640 4.618 0.354 33.020 o
3 -18 15 0.920 0.768 0.295 51.590 o
3 -17 0 2.244 2.078 0.335 39.461 o
3 -17 2 1.125 0.906 0.404 27.648 o
3 -17 3 1.014 0.807 0.315 45.335 o
3 -17 5 1.370 1.457 0.138 225.724 o
3 -17 6 3.812 3.929 0.138 168.654 o
3 -17 7 2.978 2.944 0.404 26.980 o
3 -17 8 0.619 0.817 0.167 159.983 o
3 -17 9 1.284 0.975 0.158 176.965 o
3 -17 11 4.637 4.609 0.158 125.276 o
3 -16 1 0.475 0.246 0.158 181.587 o
3 -16 2 0.697 0.601 0.138 235.096 o
3 -16 3 1.145 1.014 0.423 25.137 o
3 -16 4 3.321 3.259 0.148 164.145 o
3 -16 5 1.320 1.152 0.217 94.672 o
3 -16 6 0.491 0.384 0.167 160.768 o
3 -16 7 4.199 3.840 0.167 122.945 o
3 -16 8 0.093 0.148 0.148 207.241 o
3 -16 9 3.197 3.043 0.148 167.330 o
3 -16 10 6.597 6.578 0.315 37.020 o
3 -16 12 1.603 1.329 0.158 173.770 o
3 -16 13 7.266 7.070 0.394 24.789 o
3 -16 14 0.298 0.611 0.384 30.648 o
3 -15 0 8.516 8.715 0.148 74.624 o
3 -15 2 2.101 1.979 0.138 212.925 o
3 -15 3 12.337 12.457 0.512 13.191 o
3 -15 4 4.114 3.988 0.197 95.176 o
3 -15 6 1.457 1.044 0.187 125.909 o
3 -15 8 1.206 1.152 0.138 229.013 o
3 -15 9 3.400 3.171 0.453 21.435 o
3 -15 10 6.880 6.440 0.158 92.868 o
3 -15 11 5.493 5.514 0.177 95.517 o
3 -15 13 3.240 3.102 0.167 135.433 o
3 -15 14 2.712 2.432 0.404 27.146 o
3 -15 15 0.732 0.601 0.148 204.961 o
3 -14 0 0.289 0.335 0.167 161.115 o
3 -14 1 0.625 0.473 0.177 143.169 o
3 -14 2 9.609 9.700 0.443 18.439 o
3 -14 3 20.323 19.714 0.551 8.743 o
3 -14 4 2.071 1.881 0.177 134.849 o
3 -14 5 0.361 0.315 0.315 45.521 o
3 -14 6 8.322 7.671 0.226 52.657 o
3 -14 7 4.725 4.352 0.256 58.970 o
3 -14 9 3.607 3.387 0.374 30.852 o
3 -14 11 9.947 10.320 0.345 26.263 o
3 -14 12 1.693 1.339 0.207 102.632 o
3 -14 13 0.394 0.266 0.177 143.663 o
3 -14 14 4.106 3.742 0.187 104.291 o
3 -14 16 6.007 5.830 0.473 18.686 o
3 -14 19 5.884 5.849 0.364 29.970 o
3 -13 0 5.987 5.170 0.207 75.427 o
3 -13 1 0.465 0.335 0.197 116.327 o
3 -13 2 15.102 15.175 0.276 23.014 o
3 -13 3 21.971 21.605 0.305 13.124 o
3 -13 4 29.643 30.369 0.364 7.499 o
3 -13 5 1.001 0.955 0.187 127.344 o
3 -13 6 8.700 8.488 0.197 57.980 o
3 -13 7 2.544 2.698 0.305 46.756 o
3 -13 8 2.257 1.910 0.177 133.682 o
3 -13 11 9.444 9.473 0.266 38.407 o
3 -13 13 0.729 0.571 0.158 180.447 o
3 -13 14 0.747 0.847 0.226 87.624 o
3 -13 15 0.809 0.542 0.187 128.206 o
3 -13 16 0.864 0.512 0.473 20.218 o
3 -13 17 0.658 0.679 0.423 25.193 o
3 -13 19 0.422 0.542 0.354 35.958 o
3 -13 20 0.886 0.443 0.295 51.656 o
3 -12 0 30.146 29.148 0.660 5.006 o
3 -12 1 33.250 33.156 0.384 6.207 o
3 -12 2 0.616 0.463 0.158 180.973 o
3 -12 3 8.365 8.439 0.256 44.073 o
3 -12 4 15.684 15.243 0.236 24.715 o
3 -12 5 5.916 5.711 0.187 85.309 o
3 -12 6 11.195 11.009 0.246 35.929 o
3 -12 7 3.882 3.831 0.187 105.495 o
3 -12 8 13.508 13.117 0.354 20.565 o
3 -12 9 4.142 3.643 0.148 150.052 o
3 -12 10 4.155 3.525 0.305 44.612 o
3 -12 11 13.417 13.451 0.266 27.302 o
3 -12 12 6.508 5.967 0.226 62.483 o
3 -12 14 3.678 3.742 0.187 107.144 o
3 -12 15 1.039 1.044 0.187 127.134 o
3 -12 17 1.588 1.359 0.433 23.939 o
3 -12 18 2.595 2.462 0.423 24.753 o
3 -12 19 2.506 2.580 0.374 31.541 o
3 -11 0 24.188 23.663 0.374 10.193 o
3 -11 1 0.148 0.158 0.148 207.189 o
3 -11 2 74.902 74.691 0.748 1.289 o
3 -11 3 1.352 1.438 0.148 198.186 o
3 -11 4 0.359 0.335 0.158 181.725 o
3 -11 5 46.921 46.341 0.620 2.947 o
3 -11 6 6.737 5.987 0.167 90.123 o
3 -11 7 0.921 0.601 0.177 142.378 o
3 -11 8 6.696 6.726 0.148 99.398 o
3 -11 9 13.690 13.176 0.217 31.587 o
3 -11 10 11.241 10.980 0.532 12.986 o
3 -11 11 0.792 0.660 0.197 115.729 o
3 -11 12 12.555 12.033 0.276 28.852 o
3 -11 14 0.894 0.739 0.286 55.209 o
3 -11 15 4.304 3.959 0.315 41.672 o
3 -11 16 1.937 1.999 0.177 135.269 o
3 -11 17 0.879 1.034 0.453 21.994 o
3 -10 0 0.960 0.729 0.138 232.943 o
3 -10 1 7.774 7.957 0.177 70.946 o
3 -10 2 22.276 21.615 0.345 12.061 o
3 -10 3 0.990 1.241 0.286 55.052 o
3 -10 4 1.925 1.841 0.128 247.388 o
3 -10 5 3.415 2.974 0.138 183.629 o
3 -10 6 0.001 0.148 0.138 237.959 o
3 -10 7 28.561 28.193 0.286 8.912 o
3 -10 8 0.270 0.158 0.118 323.251 o
3 -10 9 3.192 2.934 0.177 123.917 o
3 -10 10 26.134 25.406 0.286 10.406 o
3 -10 11 89.804 91.008 2.757 0.380 o
3 -10 12 2.479 2.649 0.611 12.025 o
3 -10 13 13.890 13.560 0.286 24.910 o
3 -10 14 1.572 1.477 0.512 17.168 o
3 -10 15 6.079 6.076 0.404 24.788 o
3 -10 16 1.790 1.930 0.492 18.521 o
3 -10 17 3.047 2.816 0.463 20.667 o
3 -10 18 1.333 1.359 0.433 23.971 o
3 -9 0 0.251 0.374 0.118 322.873 o
3 -9 1 3.563 2.826 0.128 203.892 o
3 -9 2 53.645 54.071 0.670 2.293 o
3 -9 3 19.513 19.035 0.226 18.195 o
3 -9 4 2.896 2.866 0.118 246.494 o
3 -9 6 2.971 2.934 0.108 276.718 o
3 -9 7 3.612 3.102 0.108 251.663 o
3 -9 8 38.403 36.464 0.374 5.077 o
3 -9 9 3.178 2.787 0.167 137.411 o
3 -9 10 24.062 24.047 0.335 10.848 o
3 -9 11 17.812 18.079 0.719 6.598 o
3 -9 12 10.252 9.700 0.502 14.800 o
3 -9 13 2.890 2.452 0.226 81.844 o
3 -9 14 3.383 2.974 0.414 25.610 o
3 -9 15 0.700 0.374 0.187 128.529 o
3 -9 16 2.062 2.186 0.286 53.921 o
3 -9 17 2.899 2.826 0.463 20.694 o
3 -9 18 0.673 0.650 0.453 22.018 o
3 -9 19 0.855 0.679 0.118 316.340 o
3 -8 1 0.496 0.611 0.138 236.108 o
3 -8 2 19.588 19.281 0.315 15.112 o
3 -8 3 7.258 6.736 0.276 44.147 o
3 -8 4 51.152 51.757 0.571 2.637 o
3 -8 5 0.040 0.158 0.158 182.175 o
3 -8 6 1.302 1.103 0.158 176.485 o
3 -8 7 3.551 3.082 0.158 146.402 o
3 -8 8 0.536 0.561 0.118 320.325 o
3 -8 9 2.056 1.753 0.187 122.181 o
3 -8 10 78.148 80.058 0.896 1.111 o
3 -8 13 18.141 18.050 0.492 10.894 o
3 -8 14 16.919 16.829 0.551 9.955 o
3 -8 15 10.130 11.344 0.551 12.475 o
3 -8 16 5.808 5.800 0.207 74.740 o
3 -8 17 2.932 3.358 0.404 26.925 o
3 -7 0 44.508 44.352 0.453 3.630 o
3 -7 1 38.775 36.661 0.335 5.166 o
3 -7 2 102.345 104.322 0.876 0.712 o
3 -7 3 336.320 330.414 3.102 0.066 o
3 -7 4 35.861 33.737 0.453 5.283 o
3 -7 5 16.293 13.973 0.384 16.486 o
3 -7 6 18.847 18.089 0.276 17.522 o
3 -7 7 3.885 3.378 0.128 191.167 o
3 -7 8 1.351 1.290 0.108 357.106 o
3 -7 9 9.513 9.404 0.177 57.458 o
3 -7 10 8.553 8.439 0.345 28.813 o
3 -7 11 5.422 5.446 0.187 89.502 o
3 -7 12 5.523 5.485 0.167 102.754 o
3 -7 13 2.842 2.659 0.177 127.435 o
3 -7 14 2.457 2.245 0.414 25.986 o
3 -7 15 0.318 0.177 0.138 237.492 o
3 -7 16 0.015 0.286 0.177 143.934 o
3 -7 17 0.850 0.571 0.512 17.230 o
3 -7 18 1.590 1.753 0.345 37.625 o
3 -7 19 0.282 0.414 0.295 51.792 o
3 -6 0 6.794 7.060 0.128 109.409 o
3 -6 1 372.938 356.942 3.397 0.055 o
3 -6 2 234.904 235.782 1.979 0.137 o
3 -6 3 45.231 41.378 0.571 3.367 o
3 -6 4 125.602 123.819 1.142 0.474 o
3 -6 5 28.864 26.006 0.335 8.657 o
3 -6 6 118.182 113.992 1.034 0.548 o
3 -6 7 23.515 23.377 0.305 11.800 o
3 -6 8 6.303 6.086 0.148 107.011 o
3 -6 10 1.425 1.398 0.098 420.598 o
3 -6 11 0.442 0.335 0.108 382.644 o
3 -6 12 23.590 23.564 0.246 12.795 o
3 -6 13 8.320 7.917 0.325 32.102 o
3 -6 14 0.505 0.207 0.177 143.565 o
3 -6 15 3.100 2.728 0.207 95.366 o
3 -6 16 3.193 3.151 0.226 79.883 o
3 -6 17 0.653 0.551 0.394 29.114 o
3 -6 18 0.792 0.896 0.354 35.887 o
3 -5 0 5.636 5.081 0.118 152.732 o
3 -5 1 317.012 306.387 2.521 0.078 o
3 -5 2 91.850 87.286 0.768 0.925 o
3 -5 3 182.692 183.562 1.576 0.225 o
3 -5 4 45.567 44.056 0.394 3.693 o
3 -5 5 47.125 45.100 0.453 3.371 o
3 -5 7 29.958 29.108 0.374 7.490 o
3 -5 8 17.948 17.774 0.217 20.987 o
3 -5 9 16.470 16.317 0.167 26.604 o
3 -5 10 16.307 16.711 0.177 26.023 o
3 -5 11 15.711 15.953 0.197 26.585 o
3 -5 13 9.312 9.138 0.345 27.597 o
3 -5 14 10.095 10.369 0.473 16.266 o
3 -5 15 2.547 2.472 0.492 18.403 o
3 -5 16 4.248 3.624 0.453 21.157 o
3 -5 17 8.247 8.291 0.404 22.733 o
3 -4 0 1.237 0.798 0.138 230.381 o
3 -4 1 137.508 133.794 1.841 0.343 o
3 -4 2 17.555 18.365 0.325 16.570 o
3 -4 3 102.365 89.049 0.837 0.786 o
3 -4 4 2.141 1.536 0.128 246.237 o
3 -4 5 5.001 4.077 0.138 147.773 o
3 -4 7 2.012 1.576 0.118 286.284 o
3 -4 8 48.673 48.813 0.453 3.108 o
3 -4 9 5.587 5.977 0.108 156.238 o
3 -4 10 1.382 1.172 0.098 426.550 o
3 -4 12 6.246 6.046 0.158 100.651 o
3 -4 13 8.915 8.469 0.236 46.953 o
3 -4 14 0.386 0.453 0.433 24.081 o
3 -4 15 3.409 2.885 0.197 102.104 o
3 -4 16 1.391 1.300 0.138 226.361 o
3 -4 17 0.726 0.532 0.276 59.314 o
3 -4 18 8.481 8.439 0.404 22.529 o
3 -3 0 48.062 46.065 0.620 2.884 o
3 -3 1 307.756 305.087 2.619 0.080 o
3 -3 2 8.256 8.951 0.187 62.002 o
3 -3 3 1.211 2.216 0.128 256.304 o
3 -3 4 25.174 27.228 0.453 8.115 o
3 -3 5 350.578 350.561 3.161 0.061 o
3 -3 6 3.446 3.319 0.167 132.535 o
3 -3 7 35.419 35.952 0.384 5.550 o
3 -3 8 19.915 20.354 0.256 16.297 o
3 -3 9 27.020 27.178 0.246 10.127 o
3 -3 10 7.778 7.307 0.177 72.944 o
3 -3 11 3.566 3.240 0.148 160.884 o
3 -3 12 51.422 51.639 0.561 2.642 o
3 -3 13 12.678 12.841 0.709 7.691 o
3 -3 14 7.513 7.464 0.226 55.908 o
3 -3 15 4.893 4.490 0.158 123.068 o
3 -3 16 13.700 13.944 0.236 29.013 o
3 -3 17 0.735 0.935 0.394 29.088 o
3 -2 0 29.549 29.424 0.305 8.197 o
3 -2 1 345.793 357.642 2.846 0.062 o
3 -2 2 42.453 39.931 0.611 3.520 o
3 -2 3 69.022 71.481 1.014 1.257 o
3 -2 4 6.721 6.391 0.246 54.086 o
3 -2 5 264.011 263.561 2.225 0.109 o
3 -2 6 34.852 32.978 0.345 6.147 o
3 -2 7 19.168 19.734 0.325 14.930 o
3 -2 8 11.564 11.689 0.148 48.759 o
3 -2 9 35.630 36.031 0.354 5.658 o
3 -2 10 54.448 54.691 0.561 2.404 o
3 -2 11 10.068 9.936 0.276 35.076 o
3 -2 12 0.894 0.670 0.197 115.556 o
3 -2 13 5.065 5.022 0.433 22.483 o
3 -2 15 3.348 3.023 0.295 48.738 o
3 -2 18 0.408 0.611 0.167 160.711 o
3 -1 0 16.447 19.340 0.207 22.343 o
3 -1 1 995.446 1010.880 8.370 0.008 o
3 -1 2 51.427 47.602 0.473 2.921 o
3 -1 3 297.282 302.477 2.531 0.085 o
3 -1 4 7.963 8.410 0.187 64.927 o
3 -1 5 183.255 179.525 1.467 0.231 o
3 -1 6 60.736 60.501 0.542 2.027 o
3 -1 7 0.972 1.211 0.148 201.913 o
3 -1 8 35.266 36.198 0.335 5.808 o
3 -1 9 18.917 19.271 0.295 16.263 o
3 -1 10 4.211 3.880 0.148 147.452 o
3 -1 11 116.591 117.093 1.359 0.501 o
3 -1 12 2.641 2.373 0.207 97.914 o
3 -1 13 1.427 1.418 0.414 26.278 o
3 -1 14 0.696 0.394 0.148 205.543 o
3 -1 15 11.966 12.329 0.404 18.849 o
3 -1 18 1.360 1.566 0.108 353.124 o
3 0 0 74.437 74.780 0.581 1.385 o
3 0 1 42.345 38.906 0.345 4.466 o
3 0 2 1.983 1.713 0.177 135.801 o
3 0 3 67.281 67.463 0.640 1.616 o
3 0 4 2.753 3.210 0.187 114.647 o
3 0 5 6.910 7.435 0.177 78.176 o
3 0 6 5.643 5.859 0.197 80.779 o
3 0 7 11.893 13.589 0.158 42.438 o
3 0 8 24.539 24.480 0.266 11.677 o
3 0 9 0.033 0.118 0.118 323.864 o
3 0 10 3.036 2.816 0.148 171.053 o
3 0 11 0.470 0.611 0.197 116.186 o
3 0 12 0.912 0.807 0.414 26.379 o
3 0 13 4.621 4.224 0.158 127.634 o
3 0 14 0.240 0.266 0.148 206.994 o
3 0 16 1.449 1.349 0.108 353.656 o
3 0 17 1.246 0.995 0.325 42.545 o
3 0 18 0.764 0.689 0.108 376.247 o
3 1 0 113.965 118.108 0.906 0.578 o
3 1 1 60.697 60.176 0.502 2.073 o
3 1 2 27.885 30.329 0.394 7.679 o
3 1 3 478.716 488.866 5.711 0.029 o
3 1 4 68.548 68.743 0.995 1.304 o
3 1 6 22.539 22.787 0.345 11.647 o
3 1 7 2.182 2.442 0.108 313.139 o
3 1 9 29.044 29.355 0.354 7.891 o
3 1 10 1.909 2.127 0.128 245.064 o
3 1 12 2.962 2.255 0.423 24.687 o
3 1 13 3.817 3.486 0.187 107.071 o
3 1 16 1.961 1.861 0.177 135.520 o
3 1 17 1.877 1.861 0.335 39.696 o
3 2 0 279.413 282.281 2.216 0.098 o
3 2 1 0.486 0.423 0.118 321.288 o
3 2 2 3.561 4.796 0.187 104.413 o
3 2 3 53.413 52.181 0.522 2.582 o
3 2 4 267.960 272.571 2.580 0.101 o
3 2 5 51.678 48.862 1.103 1.758 o
3 2 6 0.483 0.423 0.118 321.314 o
3 2 7 66.958 67.050 0.748 1.547 o
3 2 8 22.955 24.155 0.276 12.449 o
3 2 9 15.712 15.874 0.207 26.041 o
3 2 10 18.755 18.444 0.226 19.286 o
3 2 11 0.816 0.926 0.433 24.044 o
3 2 12 5.834 5.603 0.197 80.416 o
3 2 13 1.896 1.723 0.256 67.175 o
3 2 15 2.764 2.482 0.364 33.134 o
3 2 16 1.508 1.497 0.305 47.923 o
3 3 0 3.857 5.219 0.167 119.613 o
3 3 2 126.756 134.966 1.152 0.445 o
3 3 3 250.139 252.759 2.353 0.117 o
3 3 4 27.181 25.652 0.345 9.166 o
3 3 5 25.587 24.510 0.286 10.852 o
3 3 6 10.355 9.808 0.177 52.638 o
3 3 7 28.817 28.705 0.305 8.543 o
3 3 8 2.045 1.881 0.118 281.806 o
3 3 9 74.791 76.277 0.798 1.249 o
3 3 11 5.420 5.465 0.226 67.651 o
3 3 12 0.479 0.581 0.148 205.993 o
3 3 13 6.266 6.381 0.177 86.396 o
3 4 0 48.645 53.244 0.542 2.793 o
3 4 1 4.596 4.057 0.305 43.716 o
3 4 2 201.553 201.917 1.772 0.184 o
3 4 3 12.430 12.595 0.246 31.694 o
3 4 4 10.841 10.901 0.217 41.472 o
3 4 5 5.381 4.845 0.118 160.292 o
3 4 6 42.918 44.155 0.443 3.816 o
3 4 7 9.732 9.572 0.187 53.626 o
3 4 9 5.716 5.721 0.148 115.866 o
3 4 10 3.270 2.816 0.443 22.448 o
3 4 13 7.413 7.425 0.689 8.972 o
3 4 14 7.343 8.016 0.187 69.404 o
3 5 0 5.756 6.105 0.266 50.902 o
3 5 1 2.176 2.068 0.177 133.694 o
3 5 2 55.750 54.898 0.650 2.214 o
3 5 3 5.891 5.386 0.177 92.938 o
3 5 4 14.668 14.800 0.197 29.602 o
3 5 5 20.950 20.512 0.217 16.454 o
3 5 6 32.447 33.510 0.315 6.791 o
3 5 7 19.350 20.039 0.236 17.546 o
3 5 8 12.760 12.929 0.197 36.096 o
3 5 9 12.396 12.713 0.236 32.734 o
3 5 10 1.571 1.398 0.128 257.069 o
3 5 11 1.886 1.369 0.492 18.539 o
3 5 12 8.359 8.449 0.453 18.670 o
3 5 13 2.355 2.265 0.138 206.977 o
3 5 14 1.571 1.841 0.354 35.578 o
3 6 0 10.017 9.552 0.295 32.657 o
3 6 1 8.010 8.134 0.354 28.301 o
3 6 2 4.409 3.978 0.108 212.183 o
3 6 3 0.065 0.197 0.098 466.132 o
3 6 4 2.423 2.413 0.138 204.763 o
3 6 5 4.378 4.274 0.187 100.640 o
3 6 6 20.545 20.709 0.512 9.312 o
3 6 7 1.326 1.211 0.148 199.321 o
3 6 8 10.457 11.127 0.483 15.441 o
3 6 9 0.554 0.414 0.108 381.085 o
3 6 12 6.381 6.814 0.404 24.391 o
3 7 0 12.979 13.441 0.315 23.788 o
3 7 1 19.080 17.784 0.187 20.732 o
3 7 3 0.505 0.364 0.158 181.391 o
3 7 5 1.710 1.576 0.148 194.295 o
3 7 6 12.646 12.959 0.217 34.121 o
3 7 7 1.800 1.359 0.660 10.356 o
3 7 8 10.037 10.113 0.207 47.068 o
3 7 9 6.026 5.839 0.187 84.164 o
3 7 10 2.965 2.757 0.483 19.065 o
3 7 11 18.298 19.872 0.571 8.820 o
3 7 13 4.801 5.337 0.325 38.117 o
3 8 0 47.851 47.326 0.502 3.121 o
3 8 1 21.696 21.526 0.256 14.488 o
3 8 2 13.505 13.225 0.295 24.850 o
3 8 3 8.244 7.976 0.207 58.142 o
3 8 4 10.107 10.034 0.226 43.139 o
3 8 5 16.379 16.110 0.305 19.416 o
3 8 6 22.583 23.328 0.492 8.749 o
3 8 8 0.887 0.670 0.148 204.032 o
3 8 9 7.337 6.952 0.325 34.015 o
3 9 0 31.430 31.176 0.443 6.336 o
3 9 2 1.042 0.876 0.138 231.723 o
3 9 3 12.000 11.590 0.246 33.569 o
3 9 4 6.229 6.381 0.177 86.665 o
3 9 6 2.582 2.166 0.158 161.710 o
3 9 7 1.569 1.024 0.148 198.099 o
3 9 8 2.373 2.235 0.315 44.278 o
3 10 0 4.895 4.540 0.128 159.228 o
3 10 1 1.413 1.182 0.148 198.743 o
3 10 2 6.725 6.214 0.295 41.155 o
3 10 3 24.205 23.998 0.699 5.685 o
3 10 4 18.045 17.912 0.561 9.312 o
3 10 5 2.701 2.216 0.187 117.778 o
3 10 6 2.387 2.088 0.226 83.678 o
3 10 7 5.550 5.042 0.423 23.249 o
3 10 8 4.425 3.998 0.414 25.028 o
3 10 9 2.140 1.792 0.108 325.603 o
3 11 0 4.998 4.924 0.276 50.790 o
3 11 1 7.958 7.376 0.404 23.224 o
3 11 2 21.924 21.753 0.601 7.382 o
3 11 7 1.385 0.965 0.335 40.057 o
3 11 8 0.815 0.847 0.286 55.218 o
3 12 0 0.763 0.551 0.207 105.145 o
3 12 1 8.433 8.341 0.473 17.356 o
3 12 2 4.081 3.811 0.286 50.288 o
3 12 3 14.714 14.810 0.246 25.826 o
3 12 4 1.310 1.093 0.167 156.879 o
3 12 5 0.600 0.325 0.138 236.283 o
3 12 6 0.130 0.128 0.128 275.847 o
3 12 7 0.868 0.670 0.128 270.406 o
3 13 0 6.102 6.243 0.305 39.990 o
3 13 1 1.379 1.280 0.473 20.158 o
3 13 3 2.935 2.639 0.246 69.753 o
3 13 5 1.594 1.388 0.325 42.340 o
3 14 1 4.922 4.756 0.295 45.343 o
3 14 2 0.780 0.709 0.148 204.479 o
3 14 3 1.226 1.103 0.364 33.882 o
3 14 4 1.686 1.802 0.325 42.205 o
3 15 1 3.984 4.274 0.404 26.331 o
3 17 0 0.495 0.177 0.108 382.881 o
4 -20 9 0.506 0.611 0.079 711.161 o
4 -19 2 1.722 1.822 0.256 67.332 o
4 -19 3 0.239 0.236 0.098 465.000 o
4 -19 8 0.033 0.236 0.108 385.305 o
4 -19 9 1.216 1.182 0.108 361.904 o
4 -19 11 0.362 0.463 0.325 42.798 o
4 -18 2 0.552 0.374 0.108 381.321 o
4 -18 4 0.602 0.542 0.138 235.762 o
4 -18 6 0.417 0.167 0.128 275.012 o
4 -18 8 1.625 1.477 0.138 222.657 o
4 -18 9 2.601 3.013 0.404 27.091 o
4 -17 0 3.117 2.964 0.325 40.913 o
4 -17 1 0.619 0.650 0.167 160.203 o
4 -17 4 2.513 2.472 0.394 28.547 o
4 -17 5 3.307 3.082 0.217 86.256 o
4 -17 7 13.310 14.180 0.217 31.332 o
4 -17 9 2.281 2.058 0.158 165.139 o
4 -17 10 0.573 0.325 0.148 206.105 o
4 -16 1 0.778 0.670 0.404 27.698 o
4 -16 2 1.694 1.379 0.128 255.286 o
4 -16 6 0.478 0.630 0.148 205.914 o
4 -16 7 11.847 12.929 0.483 14.529 o
4 -16 8 1.033 0.847 0.138 231.915 o
4 -16 9 7.245 6.864 0.187 73.315 o
4 -16 10 12.909 12.890 0.463 14.982 o
4 -16 11 1.701 1.595 0.414 26.218 o
4 -16 12 0.262 0.433 0.404 27.738 o
4 -16 17 1.307 0.955 0.276 58.916 o
4 -15 0 1.994 1.881 0.138 215.151 o
4 -15 1 3.194 3.161 0.148 166.561 o
4 -15 2 0.008 0.158 0.128 275.965 o
4 -15 3 2.495 2.432 0.148 180.620 o
4 -15 5 1.332 1.418 0.177 139.626 o
4 -15 6 3.979 3.850 0.148 150.881 o
4 -15 7 1.722 1.605 0.177 137.432 o
4 -15 8 0.369 0.226 0.148 206.786 o
4 -15 9 5.021 4.510 0.177 103.241 o
4 -15 10 3.402 3.141 0.177 121.562 o
4 -15 17 0.859 0.601 0.345 37.975 o
4 -14 0 1.317 1.251 0.128 261.880 o
4 -14 1 0.421 0.187 0.148 206.715 o
4 -14 2 4.888 4.756 0.148 132.337 o
4 -14 3 5.021 4.825 0.374 29.570 o
4 -14 4 1.800 2.038 0.384 30.284 o
4 -14 5 5.790 5.327 0.394 26.315 o
4 -14 7 1.845 1.743 0.394 28.831 o
4 -14 8 12.321 12.831 0.473 14.800 o
4 -14 9 13.904 13.481 0.374 18.862 o
4 -14 10 2.034 1.448 0.197 111.492 o
4 -14 11 11.126 11.452 0.512 13.761 o
4 -14 12 3.577 3.752 0.443 22.245 o
4 -14 14 0.793 0.453 0.167 160.006 o
4 -14 15 1.759 1.605 0.266 62.622 o
4 -14 16 1.334 1.162 0.404 27.602 o
4 -14 19 0.977 0.798 0.256 68.535 o
4 -13 0 2.301 2.186 0.384 30.115 o
4 -13 1 10.510 9.995 0.246 38.690 o
4 -13 2 13.484 13.057 0.266 27.504 o
4 -13 3 0.536 0.483 0.177 143.315 o
4 -13 4 1.082 0.689 0.177 141.809 o
4 -13 7 13.046 13.185 0.236 30.949 o
4 -13 8 4.314 3.811 0.187 102.656 o
4 -13 9 15.491 15.578 0.276 22.292 o
4 -13 11 9.840 10.340 0.315 29.748 o
4 -13 12 1.607 1.477 0.148 195.752 o
4 -13 13 2.789 2.275 0.217 89.489 o
4 -12 0 3.579 3.171 0.187 109.652 o
4 -12 1 47.295 47.739 0.689 2.724 o
4 -12 2 0.324 0.394 0.167 161.030 o
4 -12 3 1.786 1.320 0.187 124.236 o
4 -12 4 10.205 9.729 0.276 35.011 o
4 -12 5 11.878 11.413 0.354 22.837 o
4 -12 6 1.336 1.054 0.167 156.848 o
4 -12 7 6.725 6.499 0.187 77.583 o
4 -12 8 0.313 0.286 0.138 237.369 o
4 -12 9 11.330 11.531 0.256 33.762 o
4 -12 10 9.884 9.709 0.256 38.857 o
4 -12 12 5.621 5.702 0.246 58.431 o
4 -12 13 0.971 0.817 0.148 203.152 o
4 -12 14 7.602 7.356 0.207 62.345 o
4 -12 15 6.515 6.371 0.473 18.427 o
4 -12 17 7.435 7.720 0.463 18.531 o
4 -11 0 13.068 13.333 0.542 11.763 o
4 -11 1 25.029 24.204 0.305 10.874 o
4 -11 2 53.591 52.358 0.532 2.552 o
4 -11 3 3.743 3.447 0.158 142.147 o
4 -11 4 12.935 12.811 0.217 33.629 o
4 -11 5 0.912 0.778 0.246 74.145 o
4 -11 6 7.883 8.025 0.295 37.567 o
4 -11 7 0.325 0.246 0.128 275.204 o
4 -11 8 0.847 0.739 0.187 127.939 o
4 -11 9 16.332 16.090 0.295 19.980 o
4 -11 11 4.610 4.008 0.266 55.887 o
4 -11 12 0.994 0.473 0.414 26.387 o
4 -11 13 1.082 0.857 0.197 115.023 o
4 -11 14 0.678 0.433 0.187 128.518 o
4 -11 15 1.873 1.408 0.423 25.009 o
4 -11 17 3.272 3.456 0.443 22.367 o
4 -11 18 0.660 0.571 0.374 32.253 o
4 -11 19 0.969 0.699 0.315 45.364 o
4 -10 0 9.746 9.995 0.177 54.956 o
4 -10 1 21.404 21.782 0.345 12.462 o
4 -10 2 7.683 7.021 0.177 74.453 o
4 -10 3 11.192 11.098 0.325 26.418 o
4 -10 4 32.666 33.116 0.611 4.812 o
4 -10 5 1.334 1.162 0.148 199.457 o
4 -10 6 17.808 18.099 0.217 20.960 o
4 -10 7 17.559 16.730 0.246 20.754 o
4 -10 8 6.071 5.603 0.207 73.913 o
4 -10 9 7.769 7.316 0.423 21.552 o
4 -10 10 13.886 13.245 0.719 7.352 o
4 -10 12 7.157 7.218 0.788 6.983 o
4 -10 14 0.956 0.709 0.345 37.948 o
4 -10 15 1.621 1.221 0.463 21.001 o
4 -10 16 4.122 4.284 0.483 18.689 o
4 -9 0 77.084 77.616 0.679 1.254 o
4 -9 1 27.394 27.552 0.295 9.344 o
4 -9 2 1.736 1.585 0.158 171.840 o
4 -9 3 55.753 55.568 0.571 2.308 o
4 -9 4 19.890 19.310 0.226 17.692 o
4 -9 5 0.185 0.148 0.098 465.680 o
4 -9 6 6.685 6.322 0.167 89.182 o
4 -9 7 13.098 13.402 0.246 29.683 o
4 -9 8 31.044 30.477 0.384 6.970 o
4 -9 10 12.248 11.876 0.256 31.636 o
4 -9 11 3.257 2.866 0.207 94.403 o
4 -9 12 1.069 0.778 0.207 104.549 o
4 -9 13 3.008 2.905 0.414 25.741 o
4 -9 14 7.424 7.661 0.217 59.060 o
4 -8 0 18.346 17.902 0.325 16.152 o
4 -8 2 0.377 0.502 0.138 236.823 o
4 -8 3 8.951 8.744 0.197 56.297 o
4 -8 4 2.562 2.009 0.158 162.682 o
4 -8 5 31.267 29.896 0.305 7.625 o
4 -8 6 7.854 7.720 0.167 75.202 o
4 -8 7 10.483 9.443 0.217 44.758 o
4 -8 8 8.126 7.376 0.217 56.819 o
4 -8 9 129.744 129.540 1.339 0.425 o
4 -8 10 40.014 40.187 0.473 4.230 o
4 -8 11 22.322 22.402 0.443 9.844 o
4 -8 13 11.802 11.541 0.483 14.824 o
4 -8 15 7.627 7.602 0.207 61.675 o
4 -8 16 1.287 0.670 0.492 18.610 o
4 -7 0 101.150 99.575 0.847 0.748 o
4 -7 1 8.321 7.976 0.148 78.951 o
4 -7 2 1.336 0.985 0.128 263.418 o
4 -7 3 0.707 0.286 0.128 273.175 o
4 -7 5 24.042 22.018 0.286 12.252 o
4 -7 6 30.278 29.187 0.315 7.926 o
4 -7 7 14.651 13.382 0.167 33.590 o
4 -7 8 20.600 21.280 0.354 12.772 o
4 -7 9 17.875 17.676 0.207 21.558 o
4 -7 10 19.266 18.848 0.236 18.198 o
4 -7 11 7.076 6.962 0.167 83.586 o
4 -7 12 4.397 4.382 0.138 155.075 o
4 -7 13 0.464 0.650 0.177 143.295 o
4 -7 14 0.843 0.709 0.443 22.994 o
4 -7 15 7.661 7.779 0.512 15.414 o
4 -6 0 4.558 4.156 0.118 186.358 o
4 -6 1 51.027 47.848 0.650 2.603 o
4 -6 2 51.346 52.446 0.630 2.505 o
4 -6 3 2.843 2.097 0.138 200.558 o
4 -6 5 7.151 5.908 0.158 92.819 o
4 -6 6 0.731 1.034 0.108 373.865 o
4 -6 7 1.225 1.182 0.098 432.039 o
4 -6 8 124.628 126.498 1.231 0.463 o
4 -6 9 6.949 6.745 0.138 102.925 o
4 -6 10 3.408 3.131 0.128 203.927 o
4 -6 11 10.552 10.704 0.187 48.007 o
4 -6 12 43.838 44.007 0.414 3.814 o
4 -6 13 5.167 4.904 0.177 100.492 o
4 -6 14 9.600 9.217 0.295 33.621 o
4 -6 15 5.107 4.825 0.226 70.085 o
4 -6 16 0.323 0.197 0.158 181.895 o
4 -5 0 15.567 16.287 0.197 26.544 o
4 -5 1 352.564 340.517 2.856 0.063 o
4 -5 2 123.462 113.174 0.955 0.532 o
4 -5 3 3.956 2.806 0.118 218.632 o
4 -5 4 0.436 0.473 0.118 321.477 o
4 -5 5 18.571 16.405 0.276 18.549 o
4 -5 6 0.887 0.620 0.187 127.979 o
4 -5 7 7.325 7.188 0.148 90.953 o
4 -5 8 5.985 5.839 0.128 129.411 o
4 -5 9 14.949 14.603 0.187 29.972 o
4 -5 10 5.058 4.845 0.138 140.879 o
4 -5 11 6.955 6.775 0.138 102.687 o
4 -5 12 2.752 2.472 0.128 224.912 o
4 -5 16 3.783 3.545 0.167 128.318 o
4 -4 0 64.483 68.044 0.601 1.718 o
4 -4 1 243.536 230.268 1.891 0.134 o
4 -4 2 61.386 62.343 0.542 1.968 o
4 -4 3 134.218 122.135 1.487 0.406 o
4 -4 4 110.600 106.527 1.054 0.612 o
4 -4 5 1.283 1.369 0.177 139.925 o
4 -4 6 20.346 19.734 0.364 13.056 o
4 -4 7 0.862 0.551 0.089 554.451 o
4 -4 8 0.550 0.325 0.098 460.792 o
4 -4 9 4.415 4.234 0.118 188.836 o
4 -4 10 18.215 18.286 0.246 19.180 o
4 -4 11 22.811 23.013 0.286 12.661 o
4 -4 12 0.983 0.729 0.148 203.342 o
4 -4 13 1.262 1.014 0.177 140.680 o
4 -4 14 7.673 7.779 0.276 42.145 o
4 -4 17 7.785 7.838 0.197 63.834 o
4 -3 0 73.681 69.896 0.601 1.448 o
4 -3 1 221.255 221.435 1.881 0.154 o
4 -3 2 88.017 85.769 0.739 0.993 o
4 -3 3 71.913 64.834 0.660 1.516 o
4 -3 4 5.212 4.037 0.266 54.540 o
4 -3 5 49.196 49.591 0.522 2.911 o
4 -3 6 3.976 4.412 0.325 39.486 o
4 -3 7 12.157 11.472 0.158 45.335 o
4 -3 8 32.245 32.043 0.345 6.810 o
4 -3 9 7.915 7.661 0.167 74.984 o
4 -3 10 4.038 4.096 0.158 135.035 o
4 -3 11 4.392 4.037 0.177 110.210 o
4 -3 12 21.665 22.383 0.266 13.985 o
4 -3 13 1.431 1.182 0.138 226.572 o
4 -3 14 0.390 0.374 0.128 274.686 o
4 -3 15 14.069 14.347 0.364 18.973 o
4 -3 16 0.838 0.817 0.118 315.680 o
4 -3 17 1.248 1.497 0.217 94.492 o
4 -3 18 1.585 1.546 0.266 62.826 o
4 -2 0 0.778 0.345 0.138 235.356 o
4 -2 1 117.213 102.776 0.926 0.602 o
4 -2 2 6.454 5.849 0.187 81.356 o
4 -2 3 27.593 23.377 0.325 9.689 o
4 -2 4 2.518 2.422 0.158 161.071 o
4 -2 5 11.842 11.088 0.492 14.442 o
4 -2 6 36.130 36.957 0.433 5.106 o
4 -2 7 16.935 17.242 0.236 21.667 o
4 -2 8 1.101 0.906 0.108 367.768 o
4 -2 9 5.921 6.017 0.207 73.632 o
4 -2 10 7.504 7.228 0.167 79.402 o
4 -2 11 3.336 3.023 0.207 93.712 o
4 -2 12 0.363 0.246 0.158 181.795 o
4 -2 13 4.229 4.116 0.167 121.332 o
4 -2 14 1.774 1.536 0.502 17.826 o
4 -2 16 10.686 11.206 0.276 32.742 o
4 -2 17 0.370 0.345 0.138 237.117 o
4 -1 0 84.993 90.486 0.758 0.995 o
4 -1 1 0.038 0.335 0.128 275.829 o
4 -1 2 0.442 0.492 0.167 160.759 o
4 -1 3 298.864 301.571 3.072 0.080 o
4 -1 4 29.388 30.005 0.414 7.153 o
4 -1 5 38.414 38.365 0.433 4.690 o
4 -1 6 15.938 17.065 0.207 24.724 o
4 -1 7 38.740 38.197 0.345 5.015 o
4 -1 8 11.528 11.324 0.167 46.533 o
4 -1 9 0.506 0.414 0.118 321.172 o
4 -1 10 31.273 30.674 0.591 5.274 o
4 -1 11 45.301 45.918 0.463 3.466 o
4 -1 12 6.932 6.479 0.453 19.716 o
4 -1 13 0.558 0.630 0.148 205.622 o
4 -1 14 16.871 17.587 0.423 13.563 o
4 -1 15 3.891 3.575 0.167 127.148 o
4 -1 17 0.903 1.152 0.276 59.096 o
4 0 0 0.439 0.167 0.098 463.379 o
4 0 1 46.135 49.177 0.443 3.308 o
4 0 2 55.796 58.709 0.551 2.260 o
4 0 3 206.928 209.943 1.930 0.171 o
4 0 4 1.652 0.965 0.217 94.229 o
4 0 5 30.166 30.645 0.650 4.988 o
4 0 7 46.301 48.212 0.423 3.376 o
4 0 8 17.302 17.577 0.207 22.378 o
4 0 9 25.616 25.406 0.266 10.914 o
4 0 10 0.698 0.867 0.158 180.028 o
4 0 11 4.621 4.618 0.177 106.025 o
4 0 12 1.861 1.802 0.138 217.539 o
4 0 13 1.968 1.979 0.128 245.337 o
4 0 14 0.646 0.581 0.177 143.026 o
4 0 16 0.375 0.217 0.108 383.691 o
4 1 0 202.085 208.456 1.625 0.184 o
4 1 1 80.708 84.450 0.709 1.119 o
4 1 2 120.128 123.937 1.546 0.446 o
4 1 3 191.685 196.265 2.147 0.186 o
4 1 4 14.961 13.825 0.374 17.946 o
4 1 5 13.173 13.835 0.246 29.163 o
4 1 6 20.087 20.679 0.217 17.155 o
4 1 7 40.479 41.221 0.492 4.053 o
4 1 8 0.130 0.118 0.118 323.717 o
4 1 9 100.197 99.644 0.876 0.749 o
4 1 10 23.404 23.358 0.266 12.605 o
4 1 11 1.051 1.044 0.167 158.126 o
4 1 12 0.361 0.335 0.128 274.899 o
4 1 13 13.726 14.643 0.305 22.972 o
4 1 14 1.229 1.034 0.128 264.475 o
4 1 16 1.235 0.935 0.295 51.426 o
4 2 1 28.275 29.286 0.335 8.325 o
4 2 2 13.508 14.584 0.354 19.930 o
4 2 4 12.521 12.309 0.364 21.097 o
4 2 5 3.336 4.067 0.128 195.495 o
4 2 6 23.398 23.643 0.266 12.527 o
4 2 7 0.926 0.778 0.108 372.631 o
4 2 8 0.911 0.739 0.158 179.428 o
4 2 9 5.194 5.278 0.148 125.013 o
4 2 10 2.558 2.216 0.128 231.543 o
4 2 11 3.627 3.693 0.138 173.832 o
4 2 14 1.129 0.876 0.236 80.153 o
4 2 15 0.930 0.650 0.118 315.573 o
4 2 16 2.642 2.294 0.286 53.267 o
4 3 0 35.550 39.182 0.581 4.310 o
4 3 1 162.716 166.960 1.585 0.271 o
4 3 2 149.584 157.339 1.526 0.311 o
4 3 3 7.563 6.824 0.246 50.933 o
4 3 4 19.239 20.078 0.246 17.311 o
4 3 5 0.433 0.512 0.108 381.860 o
4 3 7 13.115 13.294 0.207 33.706 o
4 3 8 10.843 11.088 0.177 47.973 o
4 3 9 0.159 0.177 0.128 275.754 o
4 3 10 1.157 0.837 0.138 230.916 o
4 3 11 2.251 2.068 0.138 210.054 o
4 3 12 1.241 1.211 0.207 103.828 o
4 3 14 0.920 0.817 0.128 269.206 o
4 3 15 3.134 3.131 0.305 45.985 o
4 4 0 3.596 3.309 0.276 54.839 o
4 4 1 0.799 0.906 0.276 59.208 o
4 4 2 235.548 240.873 2.255 0.130 o
4 4 3 2.511 1.979 0.108 309.756 o
4 4 4 4.385 4.205 0.118 189.904 o
4 4 5 27.093 26.351 0.276 9.927 o
4 4 6 47.765 48.468 0.542 3.002 o
4 4 7 11.131 10.950 0.246 36.137 o
4 4 8 7.709 7.385 0.167 77.371 o
4 4 9 0.595 0.502 0.148 205.724 o
4 4 10 5.527 5.317 0.167 103.473 o
4 4 11 2.640 2.846 0.148 176.107 o
4 4 13 2.816 2.649 0.148 175.094 o
4 4 14 0.449 0.473 0.138 236.605 o
4 5 0 45.056 45.238 1.083 2.014 o
4 5 1 173.761 178.176 1.763 0.235 o
4 5 2 95.696 94.258 0.985 0.787 o
4 5 3 24.557 23.781 0.236 12.330 o
4 5 4 0.916 0.768 0.108 372.902 o
4 5 5 23.424 22.954 0.502 8.417 o
4 5 6 3.730 3.653 0.158 141.113 o
4 5 7 57.678 58.384 0.532 2.207 o
4 5 8 1.126 0.847 0.138 231.140 o
4 5 9 1.958 1.763 0.118 285.339 o
4 5 10 2.844 3.210 0.158 153.543 o
4 5 11 3.440 3.447 0.246 67.662 o
4 5 13 2.183 2.255 0.364 33.425 o
4 5 14 0.298 0.315 0.089 572.302 o
4 6 0 70.611 72.101 0.955 1.265 o
4 6 1 52.439 52.633 0.463 2.715 o
4 6 2 6.110 5.642 0.207 73.621 o
4 6 4 32.244 32.762 0.345 6.728 o
4 6 5 0.455 0.325 0.148 206.459 o
4 6 6 1.844 1.674 0.167 152.252 o
4 6 7 10.926 11.068 0.374 22.232 o
4 6 8 1.472 1.320 0.148 197.662 o
4 6 9 0.736 0.453 0.118 318.954 o
4 6 11 1.286 0.995 0.226 86.911 o
4 6 12 10.596 11.649 0.453 16.857 o
4 7 0 51.262 51.225 0.463 2.831 o
4 7 2 1.016 1.034 0.118 311.633 o
4 7 3 12.537 12.043 0.177 40.367 o
4 7 4 39.373 39.428 0.404 4.614 o
4 7 5 5.104 4.874 0.177 101.113 o
4 7 6 10.880 11.216 0.433 17.993 o
4 7 7 11.567 12.063 0.236 35.239 o
4 7 11 4.406 4.461 0.354 33.262 o
4 8 0 1.290 1.073 0.108 361.421 o
4 8 3 9.476 9.306 0.207 50.539 o
4 8 4 11.160 11.206 0.207 41.670 o
4 8 5 0.886 0.630 0.256 68.645 o
4 8 6 7.230 7.208 0.207 64.392 o
4 8 8 0.146 0.148 0.138 237.834 o
4 8 10 3.989 4.323 0.197 94.936 o
4 9 0 3.609 3.259 0.128 198.259 o
4 9 1 0.791 0.561 0.118 317.791 o
4 9 3 0.620 0.492 0.207 105.334 o
4 9 4 4.559 4.520 0.177 106.920 o
4 9 5 0.409 0.276 0.128 274.822 o
4 9 6 13.357 13.806 0.266 27.120 o
4 9 7 2.017 1.989 0.138 214.062 o
4 9 8 0.071 0.197 0.148 207.239 o
4 9 9 10.725 10.822 0.423 18.826 o
4 10 0 15.460 15.362 0.207 26.903 o
4 10 1 1.705 1.654 0.128 252.844 o
4 10 2 0.286 0.374 0.158 181.816 o
4 10 3 7.697 7.346 0.197 65.504 o
4 10 4 20.448 20.955 0.325 13.727 o
4 10 5 0.334 0.246 0.108 383.882 o
4 10 7 4.837 4.668 0.148 133.602 o
4 10 8 3.824 3.210 0.118 216.778 o
4 11 1 2.977 2.738 0.177 126.203 o
4 11 2 11.104 11.088 0.197 43.631 o
4 11 3 9.531 10.330 0.177 55.176 o
4 11 6 1.618 1.595 0.374 31.989 o
4 12 0 1.349 1.014 0.177 140.355 o
4 12 1 8.628 8.616 0.207 55.200 o
4 12 2 10.296 10.290 0.177 51.850 o
4 12 3 8.682 8.528 0.197 57.970 o
4 12 4 2.239 1.891 0.394 28.713 o
4 12 7 2.702 2.629 0.276 56.678 o
4 13 0 5.730 5.889 0.236 61.563 o
4 13 1 2.579 2.472 0.177 129.878 o
4 14 0 1.012 0.995 0.423 25.151 o
4 14 1 10.400 10.930 0.197 46.291 o
4 15 0 0.563 0.404 0.394 29.126 o
4 15 1 1.475 1.526 0.118 298.818 o
4 15 3 1.160 1.044 0.089 531.059 o
4 16 1 1.226 1.260 0.305 48.120 o
5 -19 6 1.621 1.635 0.305 47.822 o
5 -18 2 1.090 0.975 0.098 440.001 o
5 -18 4 0.037 0.148 0.108 385.386 o
5 -18 5 1.407 1.576 0.335 39.947 o
5 -18 7 0.554 0.748 0.345 38.011 o
5 -18 8 0.746 0.670 0.207 105.095 o
5 -18 10 0.350 0.404 0.325 42.802 o
5 -17 0 5.947 6.607 0.345 32.582 o
5 -17 2 0.258 0.266 0.118 323.081 o
5 -17 4 0.606 0.571 0.128 272.894 o
5 -17 5 0.600 0.492 0.138 235.897 o
5 -17 7 2.466 2.304 0.197 108.068 o
5 -17 9 0.796 1.182 0.374 32.198 o
5 -16 0 0.753 0.640 0.158 180.245 o
5 -16 1 3.326 3.200 0.335 38.403 o
5 -16 2 2.461 2.541 0.207 98.279 o
5 -16 3 0.376 0.207 0.148 206.792 o
5 -16 4 0.580 0.423 0.128 273.544 o
5 -16 6 1.086 0.955 0.167 158.165 o
5 -16 7 5.529 5.623 0.394 26.383 o
5 -16 8 0.724 0.443 0.433 24.066 o
5 -16 15 2.584 2.235 0.315 44.124 o
5 -16 16 4.194 3.643 0.286 50.243 o
5 -15 0 0.858 0.837 0.158 179.441 o
5 -15 1 1.055 0.995 0.118 311.328 o
5 -15 2 1.742 1.664 0.187 123.723 o
5 -15 3 6.225 5.928 0.276 47.217 o
5 -15 4 2.536 2.009 0.423 24.820 o
5 -15 5 18.740 19.557 0.305 15.950 o
5 -15 6 2.794 2.866 0.246 69.812 o
5 -15 7 4.554 4.609 0.128 165.072 o
5 -15 9 4.204 3.801 0.453 21.144 o
5 -15 14 0.553 0.404 0.128 273.768 o
5 -15 16 0.461 0.364 0.098 461.817 o
5 -15 17 1.948 2.107 0.295 50.603 o
5 -14 0 5.434 5.849 0.148 118.487 o
5 -14 2 0.366 0.217 0.138 237.317 o
5 -14 3 1.214 1.329 0.128 262.743 o
5 -14 4 0.221 0.374 0.118 323.011 o
5 -14 5 22.717 23.545 0.246 13.340 o
5 -14 6 2.257 2.097 0.335 39.449 o
5 -14 7 5.793 5.889 0.463 19.489 o
5 -14 8 24.870 26.706 0.650 5.917 o
5 -14 9 9.197 9.562 0.512 14.688 o
5 -14 10 1.365 1.280 0.443 22.924 o
5 -14 11 2.587 2.462 0.433 23.663 o
5 -14 12 0.425 0.325 0.138 236.967 o
5 -14 13 1.067 0.837 0.158 178.484 o
5 -14 15 3.067 3.279 0.138 186.970 o
5 -13 0 1.407 1.339 0.128 259.981 o
5 -13 1 3.343 3.427 0.167 132.988 o
5 -13 2 18.609 19.468 0.276 17.128 o
5 -13 3 0.078 0.207 0.158 182.143 o
5 -13 4 10.046 9.965 0.217 45.318 o
5 -13 5 0.892 0.414 0.305 48.389 o
5 -13 6 1.951 1.428 0.748 8.051 o
5 -13 7 2.225 2.097 0.404 27.327 o
5 -13 11 1.389 1.526 0.148 197.490 o
5 -13 13 1.889 1.576 0.138 218.671 o
5 -13 14 1.224 1.448 0.286 54.864 o
5 -13 15 1.292 1.044 0.414 26.323 o
5 -13 16 0.628 0.502 0.128 272.982 o
5 -12 0 4.696 4.589 0.158 124.725 o
5 -12 1 12.376 12.437 0.207 36.565 o
5 -12 2 2.842 2.649 0.177 127.472 o
5 -12 3 4.466 4.057 0.197 92.949 o
5 -12 4 3.122 2.915 0.295 49.065 o
5 -12 6 13.749 13.648 0.335 21.418 o
5 -12 7 33.035 34.357 0.512 5.306 o
5 -12 8 4.771 4.244 0.758 7.718 o
5 -12 9 10.202 10.340 0.473 16.227 o
5 -12 10 12.858 13.422 0.246 30.102 o
5 -12 12 1.092 0.847 0.502 17.895 o
5 -12 13 2.498 2.255 0.187 118.768 o
5 -12 14 2.353 2.324 0.177 131.828 o
5 -11 0 22.916 22.924 0.266 13.021 o
5 -11 2 0.569 0.246 0.177 143.448 o
5 -11 4 0.907 0.729 0.167 159.243 o
5 -11 5 21.665 21.565 0.739 5.711 o
5 -11 7 24.611 25.169 0.364 9.905 o
5 -11 8 8.874 8.695 0.246 44.549 o
5 -11 9 15.599 16.366 0.561 10.108 o
5 -11 11 5.223 5.022 0.187 92.293 o
5 -11 12 1.090 1.142 0.207 104.192 o
5 -11 16 1.967 1.891 0.138 215.465 o
5 -10 0 19.120 19.468 0.325 15.051 o
5 -10 1 6.972 6.578 0.276 44.929 o
5 -10 2 5.323 4.549 0.246 61.023 o
5 -10 3 18.565 18.523 0.364 14.404 o
5 -10 4 10.099 10.005 0.276 34.951 o
5 -10 5 8.267 8.154 0.217 54.758 o
5 -10 6 1.886 1.605 0.167 152.208 o
5 -10 7 7.884 8.094 0.226 53.448 o
5 -10 8 26.069 25.504 0.364 9.315 o
5 -10 9 0.488 0.384 0.374 32.276 o
5 -10 10 5.210 5.170 0.226 69.031 o
5 -10 11 4.759 4.638 0.414 24.745 o
5 -10 12 4.905 4.628 0.276 51.268 o
5 -10 13 17.019 17.331 0.236 21.508 o
5 -10 15 5.673 5.455 0.492 17.467 o
5 -10 16 11.056 11.433 0.512 13.787 o
5 -9 0 71.647 70.112 0.620 1.483 o
5 -9 1 12.629 11.984 0.187 38.932 o
5 -9 2 14.934 14.948 0.246 25.389 o
5 -9 3 0.237 0.128 0.118 323.420 o
5 -9 4 18.988 20.039 0.217 18.544 o
5 -9 6 6.690 6.667 0.246 53.765 o
5 -9 7 15.661 15.903 0.896 4.845 o
5 -9 8 7.640 7.169 0.226 55.986 o
5 -9 9 11.764 10.950 0.246 34.746 o
5 -9 10 0.317 0.246 0.197 116.472 o
5 -9 11 2.005 1.733 0.207 101.199 o
5 -9 13 2.111 1.891 0.286 54.014 o
5 -9 14 0.693 0.699 0.148 204.911 o
5 -9 15 8.056 8.025 0.197 62.054 o
5 -9 17 2.410 2.285 0.394 28.607 o
5 -8 0 0.190 0.128 0.118 323.562 o
5 -8 1 7.797 7.769 0.158 79.670 o
5 -8 2 67.361 68.566 0.561 1.655 o
5 -8 3 0.774 0.699 0.118 317.193 o
5 -8 4 17.602 18.286 0.187 22.340 o
5 -8 5 35.479 34.071 0.443 5.372 o
5 -8 6 3.110 3.082 0.167 136.698 o
5 -8 7 2.229 2.393 0.138 207.922 o
5 -8 8 17.333 16.514 0.236 21.625 o
5 -8 9 3.036 2.984 0.167 137.794 o
5 -8 10 6.569 5.997 0.217 66.162 o
5 -8 11 0.284 0.207 0.158 181.943 o
5 -8 12 1.508 1.211 0.167 155.590 o
5 -8 13 1.618 1.320 0.197 113.069 o
5 -8 14 4.962 5.012 0.187 94.106 o
5 -8 15 9.174 8.439 0.453 18.298 o
5 -8 16 3.235 3.161 0.433 23.416 o
5 -7 0 3.761 3.831 0.108 234.630 o
5 -7 1 43.691 44.234 0.374 3.920 o
5 -7 2 33.594 32.230 0.315 6.674 o
5 -7 3 5.360 5.583 0.108 165.745 o
5 -7 4 3.976 3.486 0.108 233.272 o
5 -7 5 6.338 6.578 0.148 103.944 o
5 -7 6 61.693 60.560 0.532 1.999 o
5 -7 8 5.372 5.505 0.138 131.267 o
5 -7 9 6.665 6.598 0.148 100.379 o
5 -7 10 2.894 2.708 0.128 219.437 o
5 -7 11 0.778 0.581 0.148 204.794 o
5 -7 12 13.373 13.894 0.335 21.666 o
5 -7 14 0.012 0.167 0.158 182.184 o
5 -7 15 1.055 0.532 0.158 179.252 o
5 -7 17 1.144 0.758 0.345 37.903 o
5 -6 0 0.612 0.394 0.158 181.081 o
5 -6 1 16.058 16.346 0.207 25.099 o
5 -6 2 8.667 6.932 0.177 68.656 o
5 -6 3 16.851 16.947 0.295 19.052 o
5 -6 4 37.544 37.498 0.345 5.256 o
5 -6 5 7.779 7.208 0.128 96.804 o
5 -6 7 101.686 100.609 0.926 0.722 o
5 -6 8 134.650 135.715 1.270 0.403 o
5 -6 9 10.862 10.379 0.167 51.201 o
5 -6 10 7.943 7.868 0.158 78.192 o
5 -6 11 10.477 10.635 0.226 41.233 o
5 -6 12 3.533 3.850 0.148 157.097 o
5 -6 13 11.181 11.462 0.266 32.859 o
5 -6 14 0.559 0.542 0.128 273.309 o
5 -6 15 1.313 1.113 0.226 86.789 o
5 -6 17 0.561 0.650 0.305 48.441 o
5 -5 0 12.243 11.285 0.236 34.596 o
5 -5 1 0.515 0.256 0.138 236.769 o
5 -5 2 6.940 5.406 0.148 103.770 o
5 -5 3 36.898 34.327 0.571 4.477 o
5 -5 4 5.829 5.574 0.236 61.763 o
5 -5 5 33.120 29.886 0.276 7.333 o
5 -5 6 21.633 22.097 0.226 15.010 o
5 -5 7 12.737 13.156 0.207 34.767 o
5 -5 8 20.326 19.557 0.315 14.522 o
5 -5 9 17.522 17.124 0.207 22.387 o
5 -5 10 5.485 5.505 0.158 111.111 o
5 -5 11 0.118 0.148 0.158 182.136 o
5 -5 13 11.890 12.132 0.266 30.945 o
5 -5 14 0.389 0.394 0.167 160.933 o
5 -5 15 1.834 1.684 0.167 152.289 o
5 -5 16 0.269 0.187 0.128 275.478 o
5 -5 18 3.138 3.062 0.246 68.832 o
5 -4 0 20.906 21.822 0.295 13.949 o
5 -4 1 9.466 8.715 0.236 44.966 o
5 -4 2 5.523 4.707 0.177 98.450 o
5 -4 3 7.934 6.105 0.177 75.795 o
5 -4 4 0.354 0.256 0.187 129.005 o
5 -4 5 13.580 14.377 0.177 34.164 o
5 -4 6 115.543 118.196 1.201 0.527 o
5 -4 7 45.849 45.474 0.404 3.578 o
5 -4 8 3.581 3.476 0.207 91.581 o
5 -4 9 0.858 0.650 0.138 233.940 o
5 -4 10 65.590 65.898 0.719 1.621 o
5 -4 12 12.496 12.033 0.492 14.018 o
5 -4 13 5.844 5.889 0.148 113.361 o
5 -4 14 2.063 1.851 0.128 244.766 o
5 -4 17 1.635 1.792 0.217 93.386 o
5 -3 0 174.429 165.552 1.507 0.255 o
5 -3 1 8.797 9.335 0.197 55.681 o
5 -3 2 8.541 7.838 0.177 66.748 o
5 -3 3 18.915 16.110 0.414 13.251 o
5 -3 5 8.325 8.016 0.177 67.485 o
5 -3 6 1.055 0.807 0.108 369.772 o
5 -3 7 24.303 23.840 0.256 12.135 o
5 -3 8 6.946 6.420 0.158 92.357 o
5 -3 9 10.281 10.182 0.187 50.078 o
5 -3 10 2.506 2.432 0.138 203.279 o
5 -3 11 0.294 0.207 0.148 206.952 o
5 -3 13 0.134 0.138 0.108 385.163 o
5 -3 14 4.631 4.126 0.177 107.928 o
5 -3 17 1.069 1.172 0.295 51.448 o
5 -2 1 185.234 175.803 1.635 0.225 o
5 -2 2 40.248 40.856 0.620 3.628 o
5 -2 3 12.129 9.995 0.325 25.955 o
5 -2 4 30.468 30.034 0.522 5.977 o
5 -2 5 0.558 0.354 0.118 321.005 o
5 -2 7 7.235 7.159 0.158 86.640 o
5 -2 8 4.971 5.061 0.177 101.430 o
5 -2 9 40.669 40.354 0.709 3.303 o
5 -2 10 2.435 2.038 0.158 163.773 o
5 -2 12 9.991 10.212 0.276 34.960 o
5 -2 15 3.229 3.171 0.148 166.019 o
5 -2 16 10.482 10.615 0.414 19.715 o
5 -1 0 123.892 128.280 1.329 0.450 o
5 -1 1 110.719 104.981 1.054 0.616 o
5 -1 2 5.622 5.347 0.276 49.091 o
5 -1 3 35.724 37.439 0.561 4.483 o
5 -1 5 6.411 6.371 0.138 111.498 o
5 -1 6 33.369 33.658 0.305 6.622 o
5 -1 7 0.513 0.305 0.108 382.104 o
5 -1 8 9.216 9.059 0.158 65.497 o
5 -1 9 0.107 0.295 0.187 129.149 o
5 -1 10 24.812 25.179 0.364 9.828 o
5 -1 12 0.925 0.867 0.108 371.791 o
5 -1 13 13.821 13.894 0.207 31.469 o
5 -1 14 4.031 3.870 0.217 81.840 o
5 -1 15 1.707 1.684 0.354 35.560 o
5 0 0 62.130 59.782 0.542 1.988 o
5 0 1 38.518 34.820 0.581 4.228 o
5 0 2 0.969 0.985 0.217 95.354 o
5 0 3 13.556 14.013 0.354 20.134 o
5 0 4 14.450 14.131 0.423 15.723 o
5 0 5 16.506 16.819 0.187 25.082 o
5 0 6 14.778 15.145 0.246 25.474 o
5 0 7 8.724 8.853 0.148 72.598 o
5 0 8 2.299 2.403 0.286 53.578 o
5 0 9 0.488 0.532 0.187 128.717 o
5 0 11 4.088 4.028 0.128 180.170 o
5 0 12 2.218 2.078 0.167 148.258 o
5 0 13 0.192 0.138 0.128 275.727 o
5 0 14 8.569 8.931 0.197 57.572 o
5 1 0 1.763 1.782 0.138 218.970 o
5 1 1 140.451 146.468 1.300 0.365 o
5 1 2 115.356 118.925 1.329 0.507 o
5 1 3 14.777 14.269 0.522 11.755 o
5 1 4 8.692 9.020 0.197 56.830 o
5 1 5 40.606 41.024 0.364 4.491 o
5 1 6 17.307 17.351 0.207 22.526 o
5 1 7 0.374 0.374 0.118 322.208 o
5 1 8 6.891 6.864 0.187 75.446 o
5 1 9 70.740 71.737 0.689 1.442 o
5 1 10 1.026 0.788 0.177 141.829 o
5 1 11 0.558 0.335 0.118 321.076 o
5 1 12 12.537 12.959 0.177 38.966 o
5 1 13 9.985 10.310 0.167 55.371 o
5 1 14 0.808 0.857 0.414 26.387 o
5 1 15 0.803 0.758 0.305 48.366 o
5 2 0 66.576 71.895 0.630 1.583 o
5 2 1 91.181 95.321 0.965 0.831 o
5 2 2 5.974 6.292 0.364 29.713 o
5 2 3 23.115 22.826 0.315 11.954 o
5 2 4 3.472 3.506 0.118 222.203 o
5 2 5 24.653 25.475 0.315 10.603 o
5 2 6 0.414 0.551 0.108 381.859 o
5 2 7 24.248 24.017 0.256 12.117 o
5 2 8 6.385 6.391 0.246 55.095 o
5 2 9 0.638 0.532 0.128 272.812 o
5 2 10 5.019 5.012 0.167 109.572 o
5 2 11 1.264 1.152 0.118 306.509 o
5 2 12 0.934 0.847 0.128 268.917 o
5 3 0 185.274 194.355 2.107 0.196 o
5 3 1 79.628 84.854 0.896 1.054 o
5 3 2 0.400 0.463 0.305 48.488 o
5 3 3 18.676 18.818 0.236 18.807 o
5 3 4 3.844 3.683 0.118 210.073 o
5 3 5 56.346 57.528 0.561 2.249 o
5 3 6 1.016 0.847 0.118 313.032 o
5 3 7 48.216 49.059 0.483 3.073 o
5 3 8 48.887 48.320 0.492 3.032 o
5 3 10 2.860 2.836 0.128 218.793 o
5 3 11 8.492 8.567 0.325 31.452 o
5 4 0 22.777 23.722 0.473 8.969 o
5 4 1 4.152 4.362 0.246 64.618 o
5 4 2 12.253 11.954 0.236 33.841 o
5 4 3 1.882 1.940 0.108 331.675 o
5 4 4 14.629 14.525 0.236 26.917 o
5 4 5 1.522 1.182 0.167 155.595 o
5 4 7 11.146 11.187 0.197 43.331 o
5 4 8 1.569 1.329 0.138 224.202 o
5 4 9 1.272 1.142 0.108 361.017 o
5 4 12 0.745 0.778 0.108 375.844 o
5 4 13 0.357 0.187 0.079 723.261 o
5 4 14 3.869 4.461 0.276 53.380 o
5 5 0 137.917 142.401 1.487 0.363 o
5 5 1 23.169 23.003 0.226 13.595 o
5 5 2 7.843 7.897 0.138 87.728 o
5 5 4 0.813 0.591 0.128 271.234 o
5 5 5 3.191 3.230 0.217 86.416 o
5 5 6 15.401 15.775 0.226 25.373 o
5 5 7 1.313 1.388 0.325 42.452 o
5 5 8 0.979 0.798 0.148 203.167 o
5 5 10 2.771 2.718 0.167 141.266 o
5 6 0 100.516 99.477 0.847 0.754 o
5 6 1 8.567 8.213 0.148 76.121 o
5 6 2 5.397 5.061 0.138 134.143 o
5 6 3 3.503 2.856 0.128 204.842 o
5 6 4 48.262 48.586 0.591 2.860 o
5 6 5 1.987 1.753 0.148 190.541 o
5 6 6 0.789 0.778 0.167 159.546 o
5 6 7 3.163 2.728 0.158 152.690 o
5 6 8 2.831 2.619 0.148 175.098 o
5 6 9 3.095 3.053 0.354 34.613 o
5 6 11 1.563 1.211 0.128 258.620 o
5 7 0 136.979 135.734 1.172 0.404 o
5 7 1 5.655 5.347 0.187 88.262 o
5 7 2 1.196 0.995 0.118 309.049 o
5 7 3 10.258 9.670 0.226 43.230 o
5 7 4 15.267 14.426 0.325 20.201 o
5 7 5 28.212 28.252 0.660 5.291 o
5 7 6 3.500 3.555 0.128 197.440 o
5 7 8 2.982 3.053 0.197 103.865 o
5 7 9 0.769 0.985 0.404 27.684 o
5 7 11 1.956 1.851 0.325 42.057 o
5 8 1 0.874 0.788 0.197 115.488 o
5 8 2 13.177 13.067 0.187 35.909 o
5 8 3 1.714 1.457 0.158 172.495 o
5 8 4 4.721 4.658 0.187 96.977 o
5 8 5 9.301 9.197 0.187 56.371 o
5 8 7 1.083 1.004 0.108 367.084 o
5 8 10 8.427 8.252 0.364 26.662 o
5 9 1 3.095 3.043 0.167 137.009 o
5 9 2 31.987 31.531 0.453 6.120 o
5 9 4 7.768 7.868 0.138 88.577 o
5 9 5 6.747 6.834 0.226 59.922 o
5 9 6 1.202 0.945 0.158 177.506 o
5 9 8 1.426 1.477 0.118 300.315 o
5 9 9 3.693 4.185 0.315 42.219 o
5 10 0 0.380 0.394 0.128 274.687 o
5 10 1 7.597 7.494 0.276 42.609 o
5 10 2 3.572 3.712 0.177 118.047 o
5 10 3 0.624 0.492 0.148 205.632 o
5 10 4 3.676 3.545 0.148 157.228 o
5 10 8 1.276 1.467 0.098 425.005 o
5 11 1 0.697 0.522 0.138 235.314 o
5 11 2 0.556 0.453 0.207 105.414 o
5 11 3 2.404 2.285 0.148 182.660 o
5 11 4 8.466 8.400 0.158 72.510 o
5 11 5 0.036 0.226 0.108 385.310 o
5 12 1 1.628 1.408 0.187 124.673 o
5 12 2 11.460 11.915 0.305 27.544 o
5 12 3 2.686 2.442 0.158 159.275 o
5 12 4 0.472 0.433 0.374 32.276 o
5 12 5 2.094 1.782 0.345 37.419 o
5 12 6 2.574 2.058 0.108 306.193 o
5 13 0 7.962 8.419 0.148 80.057 o
5 13 1 2.034 2.009 0.158 167.610 o
5 13 4 0.652 0.591 0.325 42.746 o
5 13 5 0.440 0.414 0.167 160.833 o
5 14 0 2.936 2.600 0.217 88.454 o
5 14 1 9.873 10.241 0.177 53.816 o
5 14 2 0.476 0.423 0.345 38.041 o
5 14 4 1.417 1.014 0.286 54.878 o
5 16 0 0.594 0.561 0.305 48.443 o
6 -18 1 2.717 2.403 0.256 65.412 o
6 -18 2 0.604 0.414 0.286 55.357 o
6 -18 3 0.857 0.857 0.295 51.597 o
6 -18 5 7.171 7.681 0.364 28.070 o
6 -18 6 1.933 2.314 0.325 41.943 o
6 -18 7 1.607 1.704 0.335 39.846 o
6 -17 4 2.656 2.422 0.364 33.196 o
6 -17 6 1.055 0.975 0.364 33.929 o
6 -17 7 1.340 1.152 0.364 33.852 o
6 -16 0 3.426 3.486 0.128 199.753 o
6 -16 3 2.638 2.245 0.384 29.993 o
6 -16 7 0.534 0.689 0.414 26.414 o
6 -16 8 0.236 0.591 0.404 27.736 o
6 -16 9 3.920 3.742 0.404 26.472 o
6 -16 14 0.443 0.335 0.305 48.491 o
6 -16 15 2.908 2.757 0.276 56.308 o
6 -15 0 0.696 0.591 0.148 205.140 o
6 -15 2 0.490 0.532 0.128 273.761 o
6 -15 3 2.923 3.043 0.167 138.533 o
6 -15 4 0.864 0.827 0.443 22.989 o
6 -15 5 2.194 2.373 0.246 71.475 o
6 -15 6 1.540 1.526 0.167 154.545 o
6 -15 8 1.814 2.157 0.423 24.954 o
6 -15 13 4.229 4.047 0.354 33.547 o
6 -15 16 0.829 0.561 0.276 59.269 o
6 -14 1 1.820 1.536 0.118 291.203 o
6 -14 2 0.386 0.315 0.118 322.315 o
6 -14 5 8.647 9.040 0.207 54.267 o
6 -14 6 2.179 2.472 0.443 22.718 o
6 -14 10 0.577 0.236 0.217 96.138 o
6 -14 11 2.709 2.590 0.128 224.569 o
6 -14 13 2.117 1.802 0.374 31.817 o
6 -14 14 8.769 8.902 0.177 62.530 o
6 -14 15 2.358 2.550 0.128 232.206 o
6 -14 16 0.405 0.354 0.089 570.083 o
6 -13 1 6.739 6.332 0.305 38.940 o
6 -13 2 11.408 11.915 0.226 37.107 o
6 -13 3 13.336 14.406 0.246 28.381 o
6 -13 4 15.226 16.002 0.532 11.057 o
6 -13 5 3.115 2.826 0.177 124.881 o
6 -13 6 3.318 3.466 0.148 162.757 o
6 -13 7 4.067 4.471 0.463 20.237 o
6 -13 9 0.822 0.620 0.148 204.492 o
6 -13 10 0.757 0.542 0.177 142.835 o
6 -13 11 0.289 0.158 0.138 237.580 o
6 -13 12 1.459 1.113 0.128 260.854 o
6 -13 14 0.118 0.158 0.108 385.182 o
6 -13 15 3.447 3.220 0.128 202.141 o
6 -13 16 0.784 0.817 0.295 51.629 o
6 -12 0 0.654 0.729 0.404 27.706 o
6 -12 1 0.699 0.463 0.158 180.724 o
6 -12 2 5.004 5.446 0.414 24.444 o
6 -12 3 29.152 32.112 0.935 3.342 o
6 -12 4 8.018 7.041 0.778 7.108 o
6 -12 5 2.498 2.068 0.187 119.258 o
6 -12 6 30.309 31.048 0.650 4.948 o
6 -12 7 30.526 30.566 0.670 4.814 o
6 -12 8 1.646 1.359 0.197 112.922 o
6 -12 9 0.916 0.886 0.128 268.900 o
6 -12 10 3.003 2.954 0.207 95.295 o
6 -12 11 1.166 0.935 0.158 177.727 o
6 -12 12 0.452 0.325 0.138 236.874 o
6 -12 13 4.844 4.983 0.463 19.942 o
6 -12 14 1.540 1.625 0.148 195.688 o
6 -11 0 26.269 26.519 0.404 8.554 o
6 -11 1 5.805 5.446 0.197 81.039 o
6 -11 2 14.538 14.318 0.551 10.917 o
6 -11 4 2.686 2.580 0.394 28.473 o
6 -11 6 9.809 9.562 0.286 34.426 o
6 -11 8 0.556 0.483 0.394 29.124 o
6 -11 9 2.596 2.797 0.404 27.126 o
6 -11 11 1.710 1.516 0.502 17.832 o
6 -11 12 4.716 4.559 0.187 97.350 o
6 -11 13 0.624 0.512 0.433 24.069 o
6 -11 14 2.071 1.763 0.158 168.361 o
6 -11 17 0.683 0.679 0.197 115.876 o
6 -10 0 1.737 1.585 0.345 37.602 o
6 -10 1 0.911 0.817 0.167 159.079 o
6 -10 2 9.656 9.700 0.177 56.065 o
6 -10 4 7.619 7.563 0.138 91.503 o
6 -10 5 53.889 53.815 0.660 2.304 o
6 -10 6 16.404 15.706 0.345 17.632 o
6 -10 7 5.821 5.564 0.226 65.912 o
6 -10 8 23.928 23.643 0.611 6.731 o
6 -10 9 1.780 1.822 0.364 33.642 o
6 -10 10 0.977 0.906 0.148 202.852 o
6 -10 11 3.510 3.712 0.453 21.342 o
6 -10 12 2.615 2.521 0.167 143.407 o
6 -10 13 1.072 0.758 0.138 231.960 o
6 -10 15 2.511 2.422 0.414 25.950 o
6 -9 0 0.555 0.739 0.187 128.472 o
6 -9 1 0.354 0.512 0.128 274.537 o
6 -9 2 3.545 3.555 0.167 130.507 o
6 -9 3 16.715 16.996 0.325 17.778 o
6 -9 4 6.492 6.942 0.167 88.232 o
6 -9 5 19.284 19.468 0.236 17.880 o
6 -9 6 32.819 33.096 0.364 6.431 o
6 -9 7 10.636 11.117 0.246 37.072 o
6 -9 8 4.778 4.618 0.167 113.689 o
6 -9 9 4.834 4.234 0.236 67.342 o
6 -9 10 3.433 3.200 0.177 121.100 o
6 -9 12 0.148 0.167 0.148 207.184 o
6 -9 13 0.263 0.197 0.148 207.012 o
6 -9 14 2.001 1.871 0.453 21.828 o
6 -8 0 0.386 0.463 0.217 96.187 o
6 -8 1 16.683 16.918 0.226 22.697 o
6 -8 2 29.805 30.743 0.276 8.167 o
6 -8 3 5.566 5.692 0.187 87.705 o
6 -8 4 4.171 4.372 0.226 74.445 o
6 -8 5 2.459 2.393 0.148 181.306 o
6 -8 6 41.415 41.605 0.551 3.737 o
6 -8 8 3.763 3.673 0.167 127.894 o
6 -8 9 9.429 9.512 0.207 50.328 o
6 -8 10 0.742 0.561 0.158 180.421 o
6 -8 11 26.872 27.779 0.354 8.789 o
6 -8 12 1.100 0.995 0.118 310.620 o
6 -8 13 2.725 2.413 0.226 82.362 o
6 -8 14 14.516 15.332 0.453 14.118 o
6 -8 15 4.041 4.087 0.148 148.375 o
6 -7 0 14.200 14.141 0.187 32.098 o
6 -7 1 5.793 5.908 0.128 131.874 o
6 -7 2 27.421 28.606 0.286 9.248 o
6 -7 3 1.658 1.448 0.167 154.094 o
6 -7 4 14.579 14.988 0.335 20.000 o
6 -7 5 4.512 4.697 0.197 90.813 o
6 -7 6 29.415 30.448 0.305 8.082 o
6 -7 7 13.724 13.727 0.335 21.404 o
6 -7 8 0.456 0.601 0.118 320.831 o
6 -7 9 3.173 3.141 0.158 150.306 o
6 -7 10 0.223 0.325 0.128 275.411 o
6 -7 11 0.552 0.335 0.167 160.701 o
6 -7 12 5.657 5.317 0.138 128.514 o
6 -7 13 8.711 9.010 0.335 29.564 o
6 -7 14 3.003 2.816 0.177 125.730 o
6 -7 15 2.484 2.176 0.384 30.057 o
6 -7 16 2.035 2.304 0.345 37.329 o
6 -6 0 84.230 84.351 0.709 1.066 o
6 -6 1 17.254 17.538 0.246 20.641 o
6 -6 2 13.087 13.786 0.167 37.233 o
6 -6 3 44.952 43.210 0.423 3.719 o
6 -6 4 0.084 0.217 0.108 385.196 o
6 -6 5 0.169 0.414 0.108 384.396 o
6 -6 6 15.314 14.603 0.187 29.230 o
6 -6 7 5.940 5.869 0.256 53.852 o
6 -6 8 2.265 2.048 0.118 274.195 o
6 -6 9 2.291 2.275 0.128 236.317 o
6 -6 10 1.214 0.975 0.128 265.034 o
6 -6 11 1.523 1.379 0.138 224.447 o
6 -6 12 5.204 5.101 0.177 99.421 o
6 -6 13 10.353 10.812 0.315 28.730 o
6 -6 14 8.155 8.262 0.187 64.303 o
6 -6 16 0.882 0.630 0.335 40.228 o
6 -5 0 34.100 32.968 0.325 6.419 o
6 -5 1 14.250 14.101 0.167 33.693 o
6 -5 2 1.123 0.729 0.108 369.177 o
6 -5 3 0.349 0.394 0.197 116.398 o
6 -5 4 78.574 78.394 0.650 1.233 o
6 -5 5 3.982 3.496 0.187 105.947 o
6 -5 6 0.540 0.522 0.138 236.108 o
6 -5 7 5.718 5.702 0.138 124.963 o
6 -5 8 7.432 7.297 0.177 75.187 o
6 -5 10 12.478 12.910 0.217 34.567 o
6 -5 11 1.319 1.142 0.167 156.720 o
6 -5 12 0.533 0.571 0.128 273.381 o
6 -5 13 0.336 0.236 0.118 322.794 o
6 -5 14 0.566 0.345 0.335 40.303 o
6 -4 0 15.332 14.072 0.492 12.580 o
6 -4 1 1.700 1.822 0.108 339.342 o
6 -4 2 58.762 57.852 0.502 2.204 o
6 -4 3 0.412 0.335 0.108 382.920 o
6 -4 4 1.684 1.782 0.128 252.119 o
6 -4 5 36.596 35.844 0.335 5.599 o
6 -4 6 213.887 216.875 2.285 0.153 o
6 -4 7 0.437 0.571 0.138 236.456 o
6 -4 8 19.340 19.507 0.236 17.806 o
6 -4 9 2.244 2.265 0.167 147.363 o
6 -4 10 14.483 14.938 0.246 26.082 o
6 -4 11 8.765 9.158 0.404 22.097 o
6 -4 13 2.026 1.901 0.108 327.599 o
6 -4 14 0.652 0.611 0.158 180.639 o
6 -4 16 1.198 0.739 0.315 45.288 o
6 -4 17 0.840 0.768 0.266 63.666 o
6 -3 0 7.685 6.548 0.305 37.286 o
6 -3 1 18.579 18.257 0.276 17.686 o
6 -3 2 1.867 1.595 0.226 85.405 o
6 -3 3 38.965 36.258 0.384 4.967 o
6 -3 4 28.063 28.606 0.295 8.913 o
6 -3 5 9.748 10.290 0.187 52.032 o
6 -3 6 10.092 9.463 0.167 56.917 o
6 -3 7 29.475 28.843 0.295 8.402 o
6 -3 8 8.083 8.173 0.177 68.438 o
6 -3 10 0.692 0.492 0.217 95.949 o
6 -3 11 12.486 12.939 0.167 40.334 o
6 -3 12 2.265 2.334 0.138 207.827 o
6 -3 13 0.699 0.443 0.187 128.478 o
6 -3 14 1.104 1.241 0.118 308.534 o
6 -2 0 12.777 11.492 0.345 22.717 o
6 -2 1 4.404 3.092 0.177 113.912 o
6 -2 3 27.168 29.670 0.276 9.249 o
6 -2 4 55.437 57.134 0.620 2.221 o
6 -2 5 104.216 104.489 0.926 0.687 o
6 -2 7 2.073 1.861 0.158 167.918 o
6 -2 8 57.622 58.729 0.601 2.121 o
6 -2 9 6.384 6.125 0.197 75.793 o
6 -2 10 11.750 11.630 0.226 36.618 o
6 -2 11 5.134 5.160 0.128 149.180 o
6 -2 12 3.796 3.545 0.108 238.138 o
6 -2 13 0.376 0.246 0.138 237.247 o
6 -2 14 0.924 0.955 0.187 127.529 o
6 -2 15 0.225 0.286 0.108 384.446 o
6 -2 16 2.563 2.255 0.295 49.999 o
6 -1 0 10.065 9.345 0.414 20.383 o
6 -1 1 5.615 4.490 0.256 56.527 o
6 -1 3 14.394 14.505 0.276 24.355 o
6 -1 5 20.509 19.350 0.404 12.021 o
6 -1 6 12.532 12.033 0.246 32.045 o
6 -1 7 13.061 13.294 0.177 36.971 o
6 -1 8 2.152 2.157 0.128 240.191 o
6 -1 10 0.289 0.295 0.158 181.873 o
6 -1 11 0.820 0.571 0.177 142.660 o
6 -1 12 2.876 2.629 0.108 285.480 o
6 -1 15 0.205 0.473 0.305 48.512 o
6 -1 16 3.667 3.525 0.286 51.135 o
6 0 0 0.217 0.561 0.276 59.448 o
6 0 1 43.684 42.747 0.630 3.259 o
6 0 2 23.004 23.722 0.463 9.068 o
6 0 4 1.006 0.847 0.138 232.136 o
6 0 5 4.438 4.589 0.128 167.536 o
6 0 7 45.521 45.809 0.423 3.546 o
6 0 8 5.853 5.633 0.167 99.150 o
6 0 9 0.262 0.443 0.167 161.081 o
6 0 10 8.318 8.538 0.138 80.636 o
6 0 11 1.716 1.664 0.197 112.210 o
6 0 12 0.109 0.286 0.226 88.147 o
6 0 14 10.732 11.324 0.167 49.733 o
6 0 15 0.542 0.384 0.108 381.386 o
6 1 0 0.870 0.798 0.177 142.254 o
6 1 1 13.375 12.713 0.512 12.800 o
6 1 2 9.349 9.158 0.197 53.716 o
6 1 3 1.986 1.792 0.108 330.669 o
6 1 4 21.765 22.639 0.246 14.275 o
6 1 5 1.151 1.251 0.118 307.629 o
6 1 6 7.888 8.035 0.158 77.976 o
6 1 7 1.346 1.526 0.148 197.858 o
6 1 8 14.127 14.633 0.345 19.975 o
6 1 9 4.687 4.737 0.256 58.585 o
6 1 10 3.190 3.259 0.118 233.117 o
6 1 11 7.266 7.297 0.226 57.119 o
6 1 12 8.243 9.040 0.197 58.801 o
6 1 13 0.628 0.758 0.364 34.010 o
6 1 14 0.353 0.404 0.315 45.517 o
6 1 15 4.696 4.727 0.286 48.521 o
6 2 1 9.033 8.577 0.384 23.927 o
6 2 2 3.858 3.663 0.148 153.858 o
6 2 3 7.623 7.582 0.148 86.450 o
6 2 4 28.218 29.276 0.295 8.745 o
6 2 5 2.581 2.452 0.118 260.602 o
6 2 8 0.457 0.345 0.167 160.862 o
6 2 9 2.037 1.920 0.128 244.616 o
6 2 10 2.861 2.738 0.108 284.088 o
6 2 11 0.466 0.551 0.128 273.841 o
6 2 12 4.648 4.825 0.158 123.935 o
6 2 13 3.917 4.195 0.217 81.641 o
6 3 0 139.475 147.206 1.743 0.331 o
6 3 1 0.519 0.364 0.128 274.069 o
6 3 2 2.820 2.895 0.148 173.421 o
6 3 3 29.087 29.217 0.335 8.091 o
6 3 4 18.889 18.404 0.384 13.615 o
6 3 5 2.071 1.694 0.118 283.461 o
6 3 7 60.475 62.402 0.571 1.972 o
6 3 8 1.601 1.310 0.108 349.952 o
6 3 9 2.042 2.078 0.108 324.092 o
6 3 10 4.819 4.609 0.118 175.016 o
6 3 11 14.897 15.913 0.433 14.591 o
6 3 12 0.269 0.187 0.128 275.477 o
6 4 0 21.488 21.556 0.246 14.863 o
6 4 1 10.217 9.719 0.148 60.285 o
6 4 2 5.800 5.859 0.138 122.753 o
6 4 3 4.473 4.510 0.167 117.115 o
6 4 4 1.610 1.507 0.158 173.084 o
6 4 5 11.198 11.137 0.197 43.242 o
6 4 6 8.907 8.981 0.364 25.880 o
6 4 7 1.409 1.270 0.128 260.448 o
6 4 8 5.910 6.046 0.167 96.842 o
6 4 9 1.456 1.467 0.128 258.301 o
6 4 10 0.893 1.034 0.108 370.783 o
6 4 11 0.223 0.295 0.108 384.425 o
6 5 0 8.864 8.705 0.226 49.064 o
6 5 1 9.554 9.256 0.207 50.340 o
6 5 3 49.096 50.172 0.463 3.010 o
6 5 5 11.405 11.187 0.354 23.397 o
6 5 6 50.205 50.467 0.867 2.171 o
6 5 7 4.458 4.215 0.187 100.294 o
6 5 8 3.107 3.122 0.177 123.857 o
6 5 9 2.195 1.713 0.414 26.109 o
6 5 10 6.154 7.070 0.167 90.462 o
6 6 0 4.993 4.727 0.138 142.794 o
6 6 1 2.205 2.186 0.118 273.945 o
6 6 2 7.768 7.779 0.197 64.066 o
6 6 3 0.767 0.768 0.167 159.629 o
6 6 4 2.502 2.294 0.266 61.280 o
6 6 5 10.253 9.965 0.522 13.843 o
6 6 6 0.017 0.226 0.128 275.928 o
6 6 9 0.126 0.561 0.414 26.436 o
6 6 10 0.376 0.374 0.354 35.969 o
6 7 0 0.298 0.266 0.138 237.432 o
6 7 1 2.402 2.265 0.138 206.240 o
6 7 2 1.465 1.172 0.207 103.387 o
6 7 3 0.411 0.325 0.128 274.704 o
6 7 4 11.677 12.004 0.325 25.302 o
6 7 5 2.657 2.757 0.207 97.109 o
6 7 6 1.913 1.812 0.256 67.094 o
6 7 8 2.207 2.196 0.601 12.447 o
6 7 9 0.193 0.463 0.187 129.050 o
6 8 0 0.747 0.364 0.148 205.399 o
6 8 2 26.508 26.607 0.286 9.994 o
6 8 5 3.378 3.112 0.236 73.481 o
6 8 6 0.637 0.473 0.138 235.762 o
6 8 7 2.374 2.314 0.394 28.614 o
6 9 0 3.245 2.856 0.138 187.536 o
6 9 1 1.600 1.487 0.226 86.016 o
6 9 2 18.110 18.739 0.217 20.219 o
6 9 3 7.615 7.937 0.207 60.979 o
6 9 4 3.836 3.752 0.128 188.256 o
6 9 6 1.314 1.162 0.158 176.232 o
6 10 0 2.665 2.294 0.177 129.896 o
6 10 1 4.685 4.589 0.148 136.150 o
6 10 2 3.992 3.998 0.148 149.672 o
6 10 3 4.307 4.047 0.187 101.896 o
6 10 4 0.359 0.256 0.128 275.063 o
6 10 6 0.306 0.217 0.128 275.318 o
6 10 7 0.580 0.679 0.325 42.751 o
6 11 0 16.535 17.065 0.266 20.767 o
6 11 1 2.034 1.901 0.335 39.612 o
6 11 2 4.297 4.392 0.256 59.971 o
6 11 3 2.720 2.619 0.433 23.614 o
6 11 4 2.228 2.107 0.148 185.828 o
6 11 6 0.217 0.286 0.098 464.977 o
6 12 0 0.622 0.433 0.167 160.453 o
6 12 1 0.381 0.571 0.256 68.889 o
6 12 2 1.356 1.339 0.148 198.561 o
6 13 1 2.155 2.363 0.404 27.311 o
6 13 2 2.910 2.777 0.128 218.357 o
6 14 0 3.591 3.919 0.138 172.512 o
6 14 1 4.127 3.683 0.345 35.578 o
7 -18 5 3.687 4.274 0.315 42.177 o
7 -18 8 0.591 0.620 0.276 59.345 o
7 -17 6 1.505 1.546 0.315 44.999 o
7 -16 0 2.488 2.491 0.315 44.101 o
7 -16 4 5.797 6.499 0.414 23.778 o
7 -16 5 3.391 3.427 0.384 29.448 o
7 -16 6 0.778 0.837 0.364 33.985 o
7 -16 7 0.247 0.423 0.384 30.656 o
7 -15 2 2.586 2.413 0.384 29.982 o
7 -15 3 2.302 2.196 0.384 30.114 o
7 -15 4 2.197 1.930 0.394 28.719 o
7 -15 5 0.632 0.463 0.404 27.718 o
7 -15 6 4.085 4.333 0.414 25.099 o
7 -15 11 0.615 0.561 0.354 35.936 o
7 -15 12 2.524 2.137 0.315 44.205 o
7 -15 13 0.564 0.345 0.295 51.751 o
7 -14 0 0.517 0.650 0.404 27.719 o
7 -14 1 2.946 2.688 0.167 139.890 o
7 -14 4 3.246 3.545 0.167 133.344 o
7 -14 5 1.440 1.103 0.167 156.220 o
7 -14 7 5.023 5.170 0.443 21.547 o
7 -14 9 5.267 4.884 0.404 25.566 o
7 -14 10 8.695 9.059 0.256 42.472 o
7 -14 11 0.473 0.236 0.187 128.904 o
7 -14 13 4.007 4.057 0.128 181.535 o
7 -14 14 2.458 2.570 0.148 180.210 o
7 -13 1 7.880 8.183 0.197 62.526 o
7 -13 2 0.936 0.886 0.433 24.035 o
7 -13 3 0.398 0.532 0.167 160.803 o
7 -13 4 4.419 4.737 0.187 98.774 o
7 -13 6 4.738 4.973 0.187 95.778 o
7 -13 11 6.313 6.637 0.158 97.184 o
7 -13 12 3.212 3.614 0.148 163.198 o
7 -13 13 0.056 0.226 0.108 385.261 o
7 -13 14 0.715 0.551 0.325 42.738 o
7 -13 15 0.421 0.473 0.187 128.833 o
7 -12 1 1.083 0.729 0.167 158.619 o
7 -12 3 9.321 10.064 0.217 47.531 o
7 -12 4 4.822 5.347 0.197 87.081 o
7 -12 5 0.250 0.207 0.177 143.826 o
7 -12 6 1.335 1.457 0.463 21.017 o
7 -12 9 6.041 6.263 0.167 94.784 o
7 -12 11 0.571 0.404 0.414 26.420 o
7 -12 12 12.411 12.703 0.207 36.134 o
7 -12 13 8.258 8.784 0.226 50.959 o
7 -12 16 0.792 0.611 0.256 68.703 o
7 -11 0 20.456 20.758 0.581 8.075 o
7 -11 2 30.898 31.521 0.689 4.593 o
7 -11 4 8.764 8.725 0.167 66.163 o
7 -11 5 0.687 0.778 0.414 26.400 o
7 -11 6 1.104 1.310 0.394 29.017 o
7 -11 7 1.374 1.221 0.128 261.301 o
7 -11 8 0.506 0.483 0.128 273.811 o
7 -11 10 1.856 1.487 0.128 251.703 o
7 -11 11 0.441 0.266 0.167 160.952 o
7 -11 13 4.021 4.096 0.128 180.849 o
7 -11 14 2.060 1.753 0.354 35.421 o
7 -10 0 15.322 15.687 0.867 5.160 o
7 -10 1 20.835 20.758 0.551 8.499 o
7 -10 2 22.893 23.239 0.286 12.550 o
7 -10 3 0.999 0.483 0.187 127.890 o
7 -10 4 21.384 21.506 0.305 13.503 o
7 -10 5 62.042 62.796 0.778 1.707 o
7 -10 6 0.029 0.197 0.158 182.172 o
7 -10 8 6.734 6.726 0.167 87.164 o
7 -10 10 2.373 2.334 0.148 182.735 o
7 -10 11 4.677 4.540 0.177 105.885 o
7 -10 12 5.066 4.933 0.197 86.864 o
7 -10 16 0.489 0.374 0.335 40.310 o
7 -9 0 12.680 12.664 0.719 7.521 o
7 -9 1 0.692 0.611 0.118 318.603 o
7 -9 2 1.461 1.487 0.207 103.026 o
7 -9 3 1.095 0.935 0.118 311.177 o
7 -9 4 6.453 6.204 0.236 58.569 o
7 -9 5 1.263 1.142 0.148 200.079 o
7 -9 6 2.690 2.245 0.217 89.855 o
7 -9 7 2.357 2.344 0.207 99.016 o
7 -9 9 0.543 0.492 0.138 236.166 o
7 -9 10 8.580 8.902 0.236 47.310 o
7 -9 12 3.305 3.279 0.374 31.033 o
7 -9 13 1.699 1.891 0.443 22.843 o
7 -9 14 0.183 0.305 0.138 237.646 o
7 -9 15 0.350 0.187 0.118 322.847 o
7 -8 0 17.158 17.193 0.414 13.860 o
7 -8 2 1.038 0.847 0.118 312.721 o
7 -8 3 55.304 55.381 0.492 2.438 o
7 -8 4 45.234 44.401 0.473 3.512 o
7 -8 5 3.182 2.964 0.295 48.968 o
7 -8 6 26.587 25.514 0.532 7.011 o
7 -8 7 8.252 7.326 0.236 50.771 o
7 -8 9 5.031 4.914 0.187 93.972 o
7 -8 10 1.984 1.910 0.108 328.815 o
7 -8 11 2.416 2.422 0.295 50.059 o
7 -8 13 1.953 1.782 0.108 331.908 o
7 -8 14 0.305 0.217 0.138 237.477 o
7 -7 0 2.666 2.619 0.118 256.066 o
7 -7 1 4.695 4.589 0.256 58.750 o
7 -7 2 19.026 19.734 0.266 16.997 o
7 -7 3 3.833 3.506 0.138 171.914 o
7 -7 4 54.967 54.967 0.522 2.427 o
7 -7 5 0.493 0.611 0.187 128.657 o
7 -7 6 16.678 16.307 0.295 19.527 o
7 -7 7 1.347 1.260 0.256 68.049 o
7 -7 8 4.964 5.061 0.207 80.891 o
7 -7 9 1.488 1.546 0.266 62.917 o
7 -7 11 0.861 0.709 0.108 374.452 o
7 -7 12 0.428 0.384 0.138 236.855 o
7 -7 13 6.632 7.179 0.187 76.065 o
7 -7 14 1.719 1.723 0.384 30.345 o
7 -7 15 6.033 6.115 0.384 27.110 o
7 -7 16 0.073 0.325 0.286 55.453 o
7 -6 0 47.599 47.966 0.483 3.158 o
7 -6 1 0.735 0.463 0.158 180.608 o
7 -6 2 4.905 5.180 0.187 93.925 o
7 -6 4 43.528 44.539 0.532 3.489 o
7 -6 5 2.852 2.482 0.226 81.910 o
7 -6 6 2.478 2.550 0.148 180.081 o
7 -6 7 11.640 12.112 0.226 36.300 o
7 -6 8 0.583 0.512 0.128 273.248 o
7 -6 9 25.834 26.085 0.295 10.254 o
7 -6 10 5.840 5.544 0.236 61.777 o
7 -6 11 1.220 0.945 0.148 201.118 o
7 -6 12 12.333 12.536 0.256 30.863 o
7 -6 13 8.772 8.695 0.286 37.121 o
7 -6 16 2.316 2.285 0.276 57.381 o
7 -5 0 21.195 21.950 0.345 12.527 o
7 -5 1 9.621 9.877 0.167 58.252 o
7 -5 2 13.138 13.629 0.177 36.298 o
7 -5 3 1.138 1.241 0.118 307.942 o
7 -5 4 48.901 49.640 0.561 2.850 o
7 -5 5 5.283 5.209 0.217 73.550 o
7 -5 6 4.708 4.766 0.167 113.657 o
7 -5 7 2.664 2.275 0.295 49.892 o
7 -5 8 0.848 0.748 0.148 204.033 o
7 -5 10 11.018 11.049 0.177 47.374 o
7 -5 11 3.178 3.122 0.187 112.334 o
7 -5 12 11.047 11.836 0.217 39.567 o
7 -5 13 0.455 0.266 0.148 206.538 o
7 -4 0 3.997 4.234 0.128 179.922 o
7 -4 1 43.916 43.958 0.473 3.648 o
7 -4 2 1.750 1.448 0.108 343.549 o
7 -4 4 11.823 11.748 0.187 41.757 o
7 -4 5 4.725 4.707 0.128 160.858 o
7 -4 7 3.466 3.299 0.226 78.767 o
7 -4 8 0.453 0.354 0.148 206.422 o
7 -4 9 1.048 0.886 0.167 158.450 o
7 -4 10 5.448 5.800 0.236 62.673 o
7 -4 11 8.351 8.025 0.325 31.990 o
7 -4 12 13.401 14.072 0.246 28.558 o
7 -4 13 0.642 0.423 0.207 105.346 o
7 -4 14 0.597 0.601 0.364 34.023 o
7 -4 15 1.058 1.034 0.098 440.093 o
7 -3 1 1.649 1.388 0.108 347.434 o
7 -3 2 58.546 59.517 0.502 2.177 o
7 -3 3 18.591 18.129 0.295 16.983 o
7 -3 5 1.376 1.201 0.118 303.990 o
7 -3 6 11.339 11.255 0.167 47.404 o
7 -3 8 5.797 6.145 0.246 57.238 o
7 -3 9 6.329 6.460 0.197 75.160 o
7 -3 10 0.391 0.187 0.128 275.071 o
7 -3 12 0.689 0.561 0.158 180.600 o
7 -3 14 1.283 1.054 0.167 157.097 o
7 -3 15 0.597 0.443 0.276 59.371 o
7 -2 0 47.103 46.676 0.404 3.415 o
7 -2 1 2.283 2.432 0.138 206.786 o
7 -2 2 0.429 0.295 0.098 462.712 o
7 -2 3 3.308 3.141 0.138 184.023 o
7 -2 4 188.265 193.272 1.812 0.203 o
7 -2 5 28.103 28.626 0.335 8.482 o
7 -2 6 14.783 15.007 0.246 25.571 o
7 -2 7 1.167 1.329 0.167 156.994 o
7 -2 8 20.791 21.654 0.345 12.820 o
7 -2 9 2.360 2.206 0.177 132.151 o
7 -2 10 0.656 0.483 0.148 205.527 o
7 -2 11 2.356 2.009 0.128 237.664 o
7 -2 12 0.810 0.729 0.128 270.665 o
7 -2 14 2.216 2.097 0.108 317.895 o
7 -2 15 0.267 0.345 0.276 59.458 o
7 -1 0 14.414 13.993 0.197 30.958 o
7 -1 1 22.231 21.172 0.256 14.239 o
7 -1 2 32.803 33.461 0.354 6.461 o
7 -1 3 11.697 12.565 0.177 42.234 o
7 -1 4 1.369 1.113 0.266 63.206 o
7 -1 5 30.592 29.630 0.345 7.520 o
7 -1 6 12.335 12.289 0.246 32.180 o
7 -1 7 0.592 0.650 0.207 105.283 o
7 -1 8 2.379 2.176 0.177 132.124 o
7 -1 9 9.219 9.631 0.197 53.276 o
7 -1 10 4.231 3.949 0.118 196.830 o
7 -1 12 1.516 1.477 0.118 298.474 o
7 -1 14 1.777 1.674 0.315 44.828 o
7 0 0 0.527 0.650 0.118 320.016 o
7 0 1 21.789 24.047 0.345 11.705 o
7 0 2 7.885 8.262 0.167 73.157 o
7 0 3 121.019 122.962 1.172 0.493 o
7 0 4 9.917 9.631 0.207 48.339 o
7 0 5 5.711 5.662 0.177 93.262 o
7 0 6 27.449 28.587 0.443 7.485 o
7 0 7 22.378 22.767 0.266 13.401 o
7 0 8 6.526 6.519 0.414 23.378 o
7 0 9 3.917 3.693 0.108 231.832 o
7 0 10 3.698 3.653 0.158 141.482 o
7 0 11 1.649 1.448 0.463 20.986 o
7 0 12 0.439 0.167 0.138 237.177 o
7 0 13 0.368 0.384 0.108 383.083 o
7 0 14 3.246 3.279 0.138 183.915 o
7 1 1 19.231 20.384 0.354 13.775 o
7 1 3 6.952 6.706 0.266 47.337 o
7 1 4 16.485 16.425 0.207 24.375 o
7 1 5 16.988 17.361 0.345 16.566 o
7 1 6 1.360 1.300 0.128 260.932 o
7 1 8 0.505 0.217 0.128 274.521 o
7 1 9 1.076 1.063 0.108 366.586 o
7 1 10 0.732 0.670 0.197 115.812 o
7 1 11 1.051 0.926 0.118 311.923 o
7 1 14 2.191 2.275 0.266 61.718 o
7 2 2 1.685 1.438 0.148 195.199 o
7 2 3 0.422 0.374 0.158 181.564 o
7 2 4 4.784 4.451 0.138 148.252 o
7 2 5 31.027 31.807 0.384 6.821 o
7 2 6 9.843 9.591 0.335 27.875 o
7 2 7 1.449 0.945 0.138 227.625 o
7 2 8 4.602 4.579 0.138 150.147 o
7 2 9 2.584 2.757 0.138 199.412 o
7 2 10 0.939 0.689 0.158 179.412 o
7 2 12 6.028 6.637 0.394 25.757 o
7 2 13 2.387 2.225 0.089 421.851 o
7 3 0 17.942 17.636 0.433 12.728 o
7 3 2 9.252 9.138 0.187 56.735 o
7 3 3 3.552 3.250 0.167 131.875 o
7 3 4 3.761 3.427 0.158 142.055 o
7 3 5 2.511 2.393 0.158 161.296 o
7 3 6 2.994 3.279 0.414 25.687 o
7 3 7 10.429 11.226 0.167 51.244 o
7 3 8 2.291 2.117 0.128 237.873 o
7 3 9 1.595 1.388 0.315 44.994 o
7 3 10 8.782 8.508 0.433 19.880 o
7 3 12 1.860 1.960 0.098 390.440 o
7 4 0 0.438 0.226 0.138 237.088 o
7 4 1 2.199 1.950 0.187 121.052 o
7 4 2 23.759 24.815 0.305 11.325 o
7 4 4 0.979 1.024 0.167 158.453 o
7 4 5 0.447 0.650 0.167 160.595 o
7 4 6 0.849 0.945 0.158 179.245 o
7 4 8 3.007 2.964 0.177 125.167 o
7 4 9 0.552 0.620 0.394 29.119 o
7 4 11 3.901 3.998 0.266 57.369 o
7 5 1 14.967 15.519 0.256 24.256 o
7 5 2 14.162 14.269 0.512 12.278 o
7 5 3 5.721 5.416 0.187 87.592 o
7 5 4 2.208 2.127 0.158 165.496 o
7 5 5 29.506 30.930 0.305 7.982 o
7 5 6 8.588 8.912 0.167 66.656 o
7 5 7 1.183 1.014 0.138 229.884 o
7 5 8 0.573 0.483 0.148 205.837 o
7 5 9 13.721 14.338 0.286 24.621 o
7 6 0 3.485 3.082 0.207 92.918 o
7 6 2 2.043 1.674 0.138 215.911 o
7 6 3 2.867 2.511 0.167 141.327 o
7 6 4 4.496 4.441 0.177 107.748 o
7 6 5 7.079 7.188 0.197 69.100 o
7 6 6 2.695 2.521 0.148 177.510 o
7 6 7 2.026 1.802 0.158 168.581 o
7 6 8 0.852 0.798 0.128 269.961 o
7 6 9 0.291 0.532 0.335 40.323 o
7 7 0 2.195 2.019 0.197 109.803 o
7 7 1 25.712 26.322 0.374 9.160 o
7 7 2 2.275 2.068 0.207 99.786 o
7 7 3 0.875 0.522 0.167 159.674 o
7 7 4 30.466 31.521 0.335 7.386 o
7 7 5 9.890 10.310 0.177 53.587 o
7 7 6 0.835 0.739 0.148 204.128 o
7 7 8 5.226 5.672 0.423 23.253 o
7 7 9 0.607 0.689 0.315 45.453 o
7 8 0 4.293 4.313 0.207 86.152 o
7 8 2 3.871 3.870 0.138 168.166 o
7 8 3 4.183 4.028 0.118 197.047 o
7 8 4 0.934 0.867 0.148 203.229 o
7 9 0 1.055 1.192 0.148 201.417 o
7 9 2 6.065 5.751 0.138 119.920 o
7 9 3 2.429 2.501 0.118 263.998 o
7 9 4 2.993 2.816 0.266 60.126 o
7 9 6 0.781 0.374 0.354 35.927 o
7 9 7 0.370 0.640 0.325 42.786 o
7 10 0 7.568 7.425 0.148 87.643 o
7 10 1 3.158 3.210 0.118 234.673 o
7 10 2 0.491 0.483 0.118 321.024 o
7 10 3 1.677 1.487 0.158 172.659 o
7 10 5 1.056 0.886 0.138 231.564 o
7 11 0 11.383 11.728 0.197 41.718 o
7 11 1 0.524 0.542 0.148 205.908 o
7 11 2 2.539 2.265 0.158 161.647 o
7 12 0 1.721 1.861 0.226 85.431 o
7 12 1 1.117 0.945 0.246 73.907 o
7 12 2 0.747 0.601 0.118 318.064 o
7 13 0 1.598 1.743 0.148 194.576 o
7 13 1 0.865 0.807 0.345 37.956 o
7 13 2 1.656 1.280 0.305 47.902 o
7 14 0 0.329 0.581 0.335 40.316 o
8 -17 2 1.916 1.960 0.266 62.254 o
8 -17 5 0.528 0.315 0.276 59.408 o
8 -16 0 4.380 4.933 0.325 38.800 o
8 -16 6 1.220 1.408 0.315 45.156 o
8 -15 0 2.695 2.797 0.335 38.985 o
8 -15 4 1.332 1.369 0.364 33.828 o
8 -15 5 3.650 3.378 0.374 30.832 o
8 -15 7 0.560 0.719 0.384 30.625 o
8 -14 1 5.511 5.642 0.414 24.147 o
8 -14 2 11.173 12.644 0.492 14.401 o
8 -14 3 7.662 8.508 0.453 18.970 o
8 -14 4 1.232 0.630 0.394 29.047 o
8 -14 8 1.558 1.585 0.374 32.006 o
8 -14 9 3.400 3.348 0.364 32.591 o
8 -13 0 1.234 0.807 0.404 27.641 o
8 -13 1 7.356 7.622 0.187 70.456 o
8 -13 2 1.799 1.881 0.404 27.451 o
8 -13 4 6.027 5.889 0.453 20.189 o
8 -13 6 2.313 2.117 0.433 23.756 o
8 -13 9 0.537 0.315 0.148 206.235 o
8 -13 10 2.670 2.747 0.187 116.471 o
8 -13 11 1.797 1.763 0.128 250.349 o
8 -13 13 0.696 0.670 0.118 318.237 o
8 -12 0 0.376 0.335 0.138 237.113 o
8 -12 2 4.330 4.234 0.246 64.305 o
8 -12 3 2.937 2.856 0.246 69.513 o
8 -12 5 3.873 4.067 0.453 21.199 o
8 -12 6 7.932 8.636 0.305 35.249 o
8 -12 7 2.168 2.029 0.217 91.736 o
8 -12 8 14.306 15.569 0.276 23.773 o
8 -12 9 3.199 3.555 0.246 68.113 o
8 -12 10 0.308 0.404 0.207 105.616 o
8 -12 11 2.811 2.442 0.226 82.081 o
8 -12 12 5.463 5.702 0.246 58.902 o
8 -12 14 0.258 0.286 0.079 724.402 o
8 -11 1 0.375 0.236 0.148 206.764 o
8 -11 2 4.881 4.618 0.226 71.340 o
8 -11 3 2.542 2.669 0.335 39.121 o
8 -11 4 5.663 5.702 0.256 54.810 o
8 -11 5 0.386 0.394 0.118 322.075 o
8 -11 6 0.211 0.384 0.138 237.500 o
8 -11 8 0.776 0.827 0.118 316.400 o
8 -11 9 6.724 6.942 0.158 92.012 o
8 -11 10 6.647 6.795 0.148 99.546 o
8 -11 11 0.783 0.591 0.423 25.188 o
8 -11 12 0.508 0.768 0.364 34.023 o
8 -11 13 0.825 0.847 0.118 315.667 o
8 -10 1 6.153 5.849 0.433 21.848 o
8 -10 2 7.703 8.016 0.236 51.420 o
8 -10 3 1.525 1.221 0.138 225.317 o
8 -10 4 1.996 1.999 0.167 150.143 o
8 -10 5 0.684 0.463 0.197 116.021 o
8 -10 7 8.996 9.463 0.148 68.601 o
8 -10 8 0.495 0.354 0.098 461.393 o
8 -10 10 10.748 11.393 0.187 46.008 o
8 -10 11 18.547 19.182 0.542 9.449 o
8 -10 13 0.329 0.512 0.118 322.063 o
8 -10 14 0.905 0.748 0.354 35.881 o
8 -9 0 32.388 31.964 0.679 4.481 o
8 -9 1 3.750 3.161 0.305 45.303 o
8 -9 2 7.959 7.740 0.158 78.554 o
8 -9 3 1.222 0.995 0.148 200.931 o
8 -9 4 2.228 1.950 0.256 66.561 o
8 -9 5 0.808 0.768 0.354 35.895 o
8 -9 8 1.235 0.867 0.128 265.443 o
8 -9 9 1.775 1.635 0.108 339.907 o
8 -9 11 3.463 3.181 0.148 162.720 o
8 -9 12 3.202 3.259 0.167 135.057 o
8 -9 13 0.906 0.965 0.374 32.198 o
8 -8 0 40.158 40.699 0.601 3.714 o
8 -8 1 1.879 1.585 0.128 250.456 o
8 -8 2 7.474 7.021 0.158 85.225 o
8 -8 3 77.348 78.689 0.758 1.202 o
8 -8 4 4.847 4.825 0.414 24.663 o
8 -8 5 2.821 3.161 0.197 104.402 o
8 -8 6 7.029 6.903 0.443 20.367 o
8 -8 7 0.300 0.177 0.148 206.968 o
8 -8 8 4.421 4.559 0.108 203.336 o
8 -8 9 2.040 2.019 0.138 213.518 o
8 -8 10 10.688 10.999 0.207 43.445 o
8 -8 14 0.778 0.679 0.138 234.370 o
8 -7 1 2.283 1.989 0.128 239.268 o
8 -7 2 1.963 1.940 0.128 245.794 o
8 -7 3 0.476 0.640 0.177 143.284 o
8 -7 4 5.411 5.170 0.295 44.239 o
8 -7 5 0.592 0.276 0.148 206.124 o
8 -7 6 3.379 3.112 0.177 121.854 o
8 -7 8 8.842 9.611 0.276 37.810 o
8 -7 9 1.907 2.029 0.118 283.381 o
8 -7 10 2.551 2.225 0.128 231.582 o
8 -7 11 4.153 4.559 0.177 110.033 o
8 -7 14 1.428 1.477 0.108 352.465 o
8 -6 1 31.541 31.462 0.394 6.668 o
8 -6 2 80.907 78.906 0.817 1.114 o
8 -6 3 4.377 4.106 0.177 110.058 o
8 -6 4 18.796 19.074 0.414 12.600 o
8 -6 5 15.948 16.002 0.502 11.703 o
8 -6 6 0.590 0.522 0.158 180.965 o
8 -6 7 6.001 6.095 0.158 102.814 o
8 -6 8 1.358 1.241 0.118 303.971 o
8 -6 9 2.695 2.521 0.138 199.525 o
8 -6 11 1.191 0.926 0.177 141.085 o
8 -5 0 18.752 18.936 0.246 18.309 o
8 -5 1 1.178 1.132 0.148 200.753 o
8 -5 2 45.081 45.612 0.473 3.473 o
8 -5 3 7.344 6.923 0.374 27.026 o
8 -5 4 21.285 21.969 0.443 10.277 o
8 -5 5 0.286 0.207 0.148 206.966 o
8 -5 6 3.650 3.614 0.148 157.103 o
8 -5 7 4.090 4.244 0.177 111.808 o
8 -5 8 0.522 0.325 0.118 321.386 o
8 -5 9 0.586 0.483 0.118 320.240 o
8 -5 10 0.341 0.384 0.138 237.145 o
8 -5 11 9.531 9.946 0.443 18.415 o
8 -5 13 7.684 7.681 0.414 22.375 o
8 -5 14 1.018 0.935 0.098 442.829 o
8 -4 0 3.552 3.575 0.158 143.596 o
8 -4 1 0.503 0.354 0.128 274.181 o
8 -4 2 32.688 33.953 0.374 6.304 o
8 -4 3 8.672 8.370 0.167 67.791 o
8 -4 4 1.883 1.408 0.187 123.671 o
8 -4 5 10.732 10.901 0.167 50.635 o
8 -4 6 3.840 3.959 0.138 167.938 o
8 -4 7 14.640 15.066 0.295 22.351 o
8 -4 8 12.332 12.220 0.217 35.740 o
8 -4 9 1.188 1.132 0.158 177.062 o
8 -4 10 7.676 7.484 0.167 77.258 o
8 -4 11 10.176 10.409 0.207 46.086 o
8 -4 12 0.789 0.719 0.384 30.602 o
8 -4 14 1.939 1.733 0.305 47.595 o
8 -3 0 3.156 3.328 0.148 165.938 o
8 -3 1 16.171 16.258 0.246 22.747 o
8 -3 2 40.188 41.408 0.433 4.284 o
8 -3 4 8.713 8.587 0.158 70.204 o
8 -3 5 0.633 0.542 0.138 235.603 o
8 -3 6 2.641 2.531 0.217 89.553 o
8 -3 7 2.285 2.363 0.246 71.319 o
8 -3 8 9.030 9.247 0.187 57.512 o
8 -3 10 15.723 16.327 0.364 16.984 o
8 -3 11 0.893 0.886 0.286 55.179 o
8 -3 12 7.096 7.513 0.236 54.214 o
8 -3 14 0.481 0.335 0.286 55.395 o
8 -2 0 6.838 6.578 0.148 98.704 o
8 -2 1 0.561 0.423 0.148 205.984 o
8 -2 2 9.851 10.024 0.207 47.873 o
8 -2 3 2.157 1.812 0.128 243.373 o
8 -2 4 0.293 0.187 0.128 275.407 o
8 -2 5 2.210 1.979 0.197 109.821 o
8 -2 8 5.633 5.524 0.177 94.389 o
8 -2 9 5.495 5.495 0.473 18.899 o
8 -2 10 14.370 15.125 0.256 25.387 o
8 -2 11 2.180 1.891 0.315 44.525 o
8 -2 12 0.467 0.443 0.374 32.276 o
8 -2 13 0.834 0.581 0.335 40.242 o
8 -1 0 22.415 23.259 0.286 12.818 o
8 -1 1 36.586 35.086 0.374 5.476 o
8 -1 4 8.912 9.247 0.423 20.357 o
8 -1 5 1.103 1.054 0.384 30.537 o
8 -1 6 0.983 0.867 0.158 178.818 o
8 -1 7 9.447 9.936 0.187 54.072 o
8 -1 9 0.643 0.611 0.276 59.330 o
8 -1 12 0.885 0.729 0.118 315.649 o
8 -1 13 0.967 0.817 0.098 446.052 o
8 0 0 0.682 0.522 0.345 38.009 o
8 0 1 0.384 0.433 0.335 40.318 o
8 0 2 94.650 98.866 1.270 0.699 o
8 0 3 66.771 68.763 0.670 1.591 o
8 0 4 1.582 1.280 0.167 155.001 o
8 0 5 8.743 8.872 0.443 19.082 o
8 0 6 13.412 13.894 0.345 20.957 o
8 0 8 1.506 1.113 0.246 73.423 o
8 0 9 1.737 1.428 0.138 221.577 o
8 0 10 1.186 0.788 0.148 201.898 o
8 0 12 2.221 1.684 0.325 41.959 o
8 0 13 0.016 0.148 0.089 575.703 o
8 1 3 18.036 17.577 0.256 19.329 o
8 1 4 15.722 16.061 0.256 22.887 o
8 1 5 2.393 2.344 0.217 90.625 o
8 1 6 3.396 3.594 0.177 119.873 o
8 1 7 4.517 4.609 0.236 67.763 o
8 1 8 4.770 4.766 0.177 104.223 o
8 1 10 0.928 0.768 0.404 27.679 o
8 1 12 1.061 0.995 0.098 440.610 o
8 2 2 30.836 32.279 0.640 4.883 o
8 2 3 2.388 2.442 0.394 28.590 o
8 2 4 5.266 5.623 0.187 89.960 o
8 2 5 29.960 30.901 0.867 3.666 o
8 2 6 1.278 1.103 0.158 176.626 o
8 2 7 2.523 2.334 0.148 180.881 o
8 2 8 2.343 2.196 0.197 108.832 o
8 2 9 2.276 1.910 0.433 23.783 o
8 2 11 1.786 1.753 0.286 54.355 o
8 2 12 1.752 1.595 0.276 58.326 o
8 3 2 11.724 11.433 0.443 16.904 o
8 3 3 20.204 20.847 0.325 13.909 o
8 3 5 0.523 0.473 0.128 273.738 o
8 3 6 0.719 0.699 0.148 204.792 o
8 3 7 0.801 0.630 0.118 317.283 o
8 3 8 0.011 0.246 0.158 182.169 o
8 3 9 0.877 0.729 0.374 32.218 o
8 4 0 0.966 0.807 0.364 33.959 o
8 4 2 6.789 6.607 0.187 76.853 o
8 4 3 12.397 13.195 0.502 13.434 o
8 4 4 10.764 10.891 0.226 40.096 o
8 4 5 2.734 2.875 0.414 25.826 o
8 4 6 1.531 1.270 0.128 258.661 o
8 4 7 2.120 1.960 0.158 167.058 o
8 4 10 1.818 1.822 0.108 335.609 o
8 5 0 2.735 2.767 0.384 29.862 o
8 5 1 3.410 3.102 0.177 121.656 o
8 5 2 1.480 1.211 0.433 23.963 o
8 5 3 1.334 1.142 0.177 140.171 o
8 5 5 9.406 9.906 0.197 51.955 o
8 5 6 0.352 0.217 0.118 322.763 o
8 5 8 5.125 5.160 0.414 24.455 o
8 5 9 1.365 1.526 0.108 353.538 o
8 6 0 11.207 11.689 0.473 15.517 o
8 6 1 3.675 3.210 0.177 119.198 o
8 6 2 0.613 0.571 0.148 205.524 o
8 6 3 1.116 0.748 0.197 115.065 o
8 6 4 0.250 0.374 0.128 275.242 o
8 6 5 0.367 0.443 0.167 160.929 o
8 6 6 2.033 1.822 0.148 189.669 o
8 6 7 0.554 0.620 0.374 32.261 o
8 6 8 0.514 0.551 0.108 380.747 o
8 6 9 2.748 3.062 0.305 46.401 o
8 7 0 7.429 7.592 0.197 66.238 o
8 7 1 7.551 7.769 0.167 77.133 o
8 7 2 1.902 1.743 0.177 136.155 o
8 7 3 7.669 7.937 0.197 64.164 o
8 7 4 10.972 11.265 0.217 40.573 o
8 7 7 7.967 8.626 0.207 57.938 o
8 7 8 0.826 0.827 0.148 203.943 o
8 8 0 0.611 0.512 0.148 205.644 o
8 8 1 0.608 0.433 0.118 320.258 o
8 8 2 0.630 0.463 0.217 96.015 o
8 8 3 8.410 8.794 0.226 50.427 o
8 8 5 1.885 2.009 0.374 31.857 o
8 8 6 0.956 1.182 0.148 202.116 o
8 8 7 0.291 0.315 0.295 51.798 o
8 9 0 5.222 5.002 0.236 64.783 o
8 9 2 11.979 13.038 0.364 21.250 o
8 9 3 9.507 9.837 0.463 17.203 o
8 9 6 2.685 3.368 0.325 41.093 o
8 10 0 2.364 2.186 0.177 132.188 o
8 10 1 0.449 0.561 0.197 116.235 o
8 10 2 2.014 1.782 0.118 283.772 o
8 11 0 2.539 2.353 0.148 180.562 o
8 11 1 1.371 1.192 0.138 227.153 o
8 11 2 2.757 2.875 0.128 220.550 o
8 12 1 0.470 0.433 0.345 38.041 o
8 13 0 1.123 1.063 0.325 42.573 o
8 14 0 0.564 0.286 0.276 59.402 o
9 -15 1 0.426 0.630 0.305 48.469 o
9 -15 4 2.669 2.885 0.335 38.973 o
9 -14 0 0.273 0.473 0.325 42.807 o
9 -14 1 2.773 2.708 0.354 34.883 o
9 -14 2 5.679 6.302 0.394 26.083 o
9 -14 4 1.572 1.792 0.354 35.586 o
9 -14 5 1.162 1.438 0.345 37.812 o
9 -13 2 0.684 0.542 0.335 40.272 o
9 -13 3 5.893 5.603 0.423 22.960 o
9 -13 8 0.539 0.354 0.148 206.169 o
9 -12 0 12.833 13.294 0.502 13.262 o
9 -12 1 14.842 16.238 0.542 10.853 o
9 -12 2 2.699 2.600 0.167 142.380 o
9 -12 5 1.343 0.935 0.423 25.119 o
9 -12 7 4.587 4.796 0.158 124.789 o
9 -11 0 0.216 0.236 0.138 237.648 o
9 -11 1 0.594 0.453 0.138 236.017 o
9 -11 2 5.013 5.199 0.187 93.116 o
9 -11 3 4.495 4.599 0.118 182.590 o
9 -11 4 1.657 1.369 0.108 347.474 o
9 -11 6 0.395 0.354 0.118 322.145 o
9 -11 7 0.688 0.778 0.167 159.846 o
9 -11 8 1.995 1.832 0.433 23.841 o
9 -11 9 2.737 2.580 0.138 198.357 o
9 -11 10 0.459 0.414 0.089 568.336 o
9 -11 11 1.070 1.211 0.354 35.803 o
9 -11 13 0.483 0.729 0.276 59.363 o
9 -10 0 4.631 4.874 0.226 71.804 o
9 -10 1 4.639 4.421 0.187 98.351 o
9 -10 2 0.362 0.167 0.138 237.395 o
9 -10 3 1.764 1.832 0.108 337.181 o
9 -10 4 13.195 13.924 0.226 30.892 o
9 -10 6 14.179 15.027 0.295 22.910 o
9 -10 7 10.288 11.531 0.197 45.631 o
9 -10 8 0.377 0.325 0.108 383.251 o
9 -10 9 0.562 0.266 0.108 381.801 o
9 -10 10 7.097 7.701 0.158 85.537 o
9 -10 11 1.496 1.822 0.128 254.900 o
9 -10 12 0.544 0.345 0.325 42.782 o
9 -10 13 0.459 0.325 0.217 96.185 o
9 -9 0 1.844 1.704 0.246 72.592 o
9 -9 1 7.924 8.410 0.187 65.131 o
9 -9 2 2.503 2.541 0.128 229.343 o
9 -9 3 2.774 2.728 0.118 251.666 o
9 -9 4 0.319 0.345 0.148 206.767 o
9 -9 5 0.092 0.305 0.177 143.896 o
9 -9 6 0.413 0.709 0.128 273.693 o
9 -9 7 5.682 5.613 0.158 108.491 o
9 -9 8 8.429 8.606 0.138 79.415 o
9 -9 9 3.186 3.122 0.158 150.274 o
9 -9 10 0.576 0.532 0.148 205.738 o
9 -9 11 0.965 1.044 0.197 115.073 o
9 -8 0 8.286 8.734 0.345 28.944 o
9 -8 1 4.329 4.510 0.148 141.498 o
9 -8 2 1.627 1.723 0.167 153.457 o
9 -8 3 1.626 1.585 0.148 195.063 o
9 -8 4 1.127 1.063 0.128 265.557 o
9 -8 5 7.973 8.360 0.177 68.538 o
9 -8 6 3.452 3.437 0.177 120.046 o
9 -8 7 0.642 0.423 0.148 205.694 o
9 -8 8 4.593 4.530 0.256 59.077 o
9 -8 9 26.980 29.364 0.483 7.077 o
9 -8 10 1.351 1.477 0.148 198.026 o
9 -8 11 1.085 1.073 0.217 95.123 o
9 -8 12 0.563 0.266 0.108 381.788 o
9 -8 13 0.883 0.896 0.305 48.321 o
9 -7 0 1.779 1.644 0.158 171.271 o
9 -7 1 7.049 6.736 0.197 70.466 o
9 -7 2 0.889 0.906 0.522 16.579 o
9 -7 6 0.519 0.148 0.108 382.796 o
9 -7 7 2.548 2.678 0.226 82.486 o
9 -7 8 0.246 0.276 0.118 323.114 o
9 -7 9 2.795 2.659 0.246 70.028 o
9 -7 10 3.243 3.161 0.128 207.148 o
9 -7 11 1.983 2.206 0.197 110.270 o
9 -7 13 0.407 0.286 0.098 463.050 o
9 -6 0 0.910 0.699 0.177 142.278 o
9 -6 1 58.306 58.266 0.640 2.056 o
9 -6 2 23.354 22.471 0.286 12.507 o
9 -6 3 3.994 3.555 0.394 27.757 o
9 -6 4 3.401 2.826 0.404 26.853 o
9 -6 5 2.626 2.422 0.207 97.876 o
9 -6 6 3.816 3.968 0.118 207.097 o
9 -6 7 0.031 0.128 0.118 323.861 o
9 -6 8 14.606 15.401 0.295 22.199 o
9 -6 9 1.162 0.965 0.138 230.300 o
9 -6 14 0.767 0.689 0.256 68.696 o
9 -5 0 0.185 0.315 0.118 323.276 o
9 -5 1 0.063 0.286 0.158 182.127 o
9 -5 2 5.102 5.337 0.414 24.423 o
9 -5 4 4.566 4.362 0.177 107.499 o
9 -5 5 1.291 1.123 0.158 176.488 o
9 -5 6 5.270 5.711 0.118 153.735 o
9 -5 7 5.098 5.278 0.207 79.664 o
9 -5 8 0.725 0.443 0.197 115.980 o
9 -5 9 5.436 5.721 0.335 35.278 o
9 -5 12 1.338 1.300 0.354 35.727 o
9 -4 0 90.573 88.408 0.778 0.931 o
9 -4 1 11.700 11.236 0.266 32.100 o
9 -4 2 9.862 9.562 0.217 46.569 o
9 -4 3 17.101 16.662 0.256 20.847 o
9 -4 4 4.484 4.234 0.148 141.260 o
9 -4 5 4.702 4.746 0.246 62.538 o
9 -4 6 1.247 1.054 0.148 200.535 o
9 -4 7 1.586 1.369 0.148 196.435 o
9 -4 9 0.808 0.483 0.128 271.718 o
9 -4 10 0.382 0.236 0.177 143.693 o
9 -3 0 15.435 15.913 0.217 25.843 o
9 -3 1 27.352 27.887 0.611 5.859 o
9 -3 2 11.182 11.620 0.226 38.045 o
9 -3 3 4.451 4.343 0.177 108.502 o
9 -3 4 0.783 0.542 0.138 234.767 o
9 -3 5 5.381 5.377 0.197 83.712 o
9 -3 6 1.797 1.743 0.453 21.865 o
9 -3 8 2.499 2.462 0.138 203.159 o
9 -3 9 6.451 6.627 0.256 51.471 o
9 -3 10 2.017 2.235 0.148 187.529 o
9 -3 11 5.347 5.317 0.404 25.408 o
9 -3 12 3.265 3.575 0.345 36.253 o
9 -3 13 0.723 0.876 0.276 59.248 o
9 -2 0 17.904 18.710 0.266 18.488 o
9 -2 1 13.238 12.989 0.473 14.379 o
9 -2 2 1.672 1.526 0.374 31.984 o
9 -2 3 8.661 8.744 0.226 49.671 o
9 -2 4 5.947 6.273 0.187 83.268 o
9 -2 5 4.240 4.569 0.177 109.298 o
9 -2 6 14.021 14.515 0.276 24.849 o
9 -2 7 2.064 2.176 0.128 241.699 o
9 -2 8 4.571 4.185 0.325 38.993 o
9 -2 9 7.095 7.218 0.473 18.074 o
9 -2 10 2.566 2.728 0.394 28.488 o
9 -1 0 14.282 15.509 0.236 26.678 o
9 -1 1 4.830 4.865 0.384 28.297 o
9 -1 2 6.582 6.548 0.423 22.387 o
9 -1 4 4.009 4.303 0.276 53.268 o
9 -1 5 2.805 2.757 0.138 195.763 o
9 -1 6 2.805 2.442 0.197 106.215 o
9 -1 7 3.169 3.338 0.187 111.717 o
9 -1 8 10.840 11.610 0.236 37.471 o
9 -1 9 6.215 6.617 0.443 20.786 o
9 -1 10 4.197 3.900 0.394 27.580 o
9 -1 12 0.576 0.364 0.286 55.370 o
9 0 0 7.726 8.951 0.414 21.966 o
9 0 1 1.126 0.581 0.384 30.569 o
9 0 6 4.738 4.480 0.158 124.865 o
9 0 7 3.759 3.771 0.128 189.676 o
9 0 8 10.440 11.078 0.463 16.509 o
9 0 9 3.982 3.703 0.404 26.454 o
9 0 10 0.665 0.689 0.354 35.922 o
9 0 12 0.859 0.857 0.256 68.593 o
9 1 3 3.137 2.610 0.433 23.514 o
9 1 5 7.046 7.346 0.197 68.858 o
9 1 6 0.967 0.985 0.177 141.711 o
9 1 11 1.000 0.640 0.295 51.584 o
9 2 3 9.610 10.054 0.463 17.109 o
9 2 4 3.024 2.521 0.492 18.332 o
9 2 5 2.689 2.353 0.473 19.932 o
9 2 8 1.430 1.152 0.394 28.976 o
9 2 10 1.277 1.113 0.305 48.130 o
9 3 3 5.151 5.347 0.463 19.791 o
9 3 4 2.619 2.885 0.492 18.365 o
9 3 5 1.171 0.926 0.463 21.054 o
9 3 6 3.929 4.205 0.433 23.047 o
9 3 7 0.798 0.709 0.148 204.392 o
9 3 8 0.231 0.148 0.128 275.628 o
9 3 10 0.616 0.689 0.286 55.315 o
9 4 3 21.893 23.220 0.305 12.707 o
9 4 5 1.164 1.063 0.128 265.110 o
9 4 7 1.558 1.674 0.197 112.706 o
9 4 8 0.655 0.679 0.108 378.011 o
9 4 9 1.930 1.910 0.305 47.542 o
9 5 0 3.905 3.338 0.423 24.243 o
9 5 1 17.978 18.848 0.561 9.215 o
9 5 3 1.519 1.221 0.217 94.239 o
9 5 4 0.570 0.453 0.138 236.128 o
9 5 7 0.333 0.483 0.256 68.918 o
9 6 0 3.670 3.663 0.197 98.598 o
9 6 1 2.656 2.797 0.305 46.611 o
9 6 2 7.639 7.474 0.197 65.474 o
9 6 3 3.123 3.082 0.148 168.070 o
9 6 5 1.136 0.926 0.138 230.709 o
9 6 6 1.949 2.038 0.345 37.426 o
9 6 7 0.079 0.098 0.098 466.246 o
9 7 0 0.739 0.591 0.187 128.288 o
9 7 1 0.290 0.266 0.177 143.769 o
9 7 2 0.564 0.492 0.167 160.514 o
9 7 4 0.059 0.167 0.138 237.916 o
9 7 6 1.570 1.329 0.108 350.561 o
9 7 7 2.410 2.225 0.276 57.304 o
9 8 1 0.955 0.620 0.197 115.492 o
9 8 3 1.073 0.867 0.384 30.556 o
9 8 4 0.690 0.650 0.345 37.999 o
9 9 0 0.351 0.689 0.443 23.020 o
9 9 1 0.769 0.955 0.148 203.902 o
9 9 2 7.111 7.208 0.443 20.261 o
9 10 1 4.466 4.707 0.384 28.558 o
9 10 2 0.473 0.384 0.108 382.111 o
9 10 4 0.998 0.719 0.266 63.594 o
9 11 2 0.708 0.591 0.177 142.887 o
10 -15 3 0.947 0.807 0.089 546.141 o
10 -14 0 0.740 0.689 0.295 51.663 o
10 -13 2 2.278 2.078 0.118 273.467 o
10 -13 3 1.412 1.329 0.148 198.136 o
10 -13 7 5.080 5.475 0.345 33.983 o
10 -13 10 0.957 0.679 0.256 68.587 o
10 -12 0 6.051 6.253 0.354 31.110 o
10 -12 1 3.293 3.387 0.148 163.646 o
10 -12 2 1.060 0.689 0.384 30.570 o
10 -12 3 2.089 2.107 0.128 241.881 o
10 -12 5 1.077 1.083 0.354 35.815 o
10 -12 11 0.579 0.443 0.256 68.841 o
10 -11 1 6.501 6.913 0.443 20.599 o
10 -11 2 2.475 2.393 0.128 231.432 o
10 -11 3 0.524 0.679 0.423 25.202 o
10 -11 5 2.298 2.225 0.177 132.475 o
10 -11 8 1.871 2.048 0.335 39.655 o
10 -11 9 0.866 0.758 0.325 42.684 o
10 -10 0 6.668 6.824 0.187 76.935 o
10 -10 3 1.477 1.182 0.158 175.135 o
10 -10 5 4.411 4.510 0.167 117.704 o
10 -10 6 1.248 1.211 0.414 26.318 o
10 -10 11 0.538 0.660 0.089 563.185 o
10 -9 0 2.085 1.851 0.167 150.033 o
10 -9 1 8.358 8.882 0.167 68.147 o
10 -9 2 0.314 0.187 0.148 206.934 o
10 -9 4 0.307 0.256 0.138 237.421 o
10 -9 5 1.111 1.024 0.128 265.985 o
10 -9 6 1.331 1.379 0.158 175.444 o
10 -9 7 2.365 2.314 0.217 90.754 o
10 -9 8 1.834 1.782 0.167 151.969 o
10 -9 9 0.549 0.443 0.276 59.385 o
10 -9 10 0.353 0.286 0.217 96.252 o
10 -9 11 0.635 0.532 0.305 48.437 o
10 -8 0 0.859 0.551 0.098 452.362 o
10 -8 1 0.381 0.571 0.118 321.516 o
10 -8 2 13.561 14.259 0.325 21.976 o
10 -8 3 1.724 1.507 0.138 221.255 o
10 -8 4 7.722 7.917 0.177 71.386 o
10 -8 5 17.747 19.182 0.295 17.248 o
10 -8 8 4.906 5.288 0.414 24.528 o
10 -8 9 4.328 4.559 0.148 141.177 o
10 -8 10 0.327 0.276 0.118 322.743 o
10 -8 12 0.861 0.817 0.266 63.642 o
10 -7 1 5.221 5.150 0.118 160.435 o
10 -7 4 0.142 0.246 0.118 323.530 o
10 -7 5 4.288 4.490 0.128 171.459 o
10 -7 6 7.147 7.159 0.197 68.817 o
10 -7 7 6.230 6.598 0.148 105.008 o
10 -7 8 1.222 0.935 0.148 201.140 o
10 -7 9 0.947 0.798 0.177 142.045 o
10 -6 0 0.504 0.483 0.226 87.949 o
10 -6 1 2.257 2.176 0.148 185.077 o
10 -6 2 2.831 3.023 0.286 52.614 o
10 -6 3 3.536 3.673 0.226 77.909 o
10 -6 4 8.302 8.144 0.177 67.246 o
10 -6 5 0.395 0.217 0.177 143.690 o
10 -6 6 0.374 0.207 0.118 322.679 o
10 -6 7 24.794 26.657 0.394 9.131 o
10 -6 8 6.851 6.736 0.177 80.965 o
10 -6 9 1.187 1.379 0.286 54.907 o
10 -6 11 1.011 0.748 0.305 48.303 o
10 -5 1 0.041 0.315 0.167 161.342 o
10 -5 5 1.829 1.428 0.207 102.150 o
10 -5 6 0.784 0.660 0.177 142.643 o
10 -5 7 2.727 2.275 0.167 143.494 o
10 -5 8 2.534 3.250 0.423 24.669 o
10 -5 9 2.316 2.787 0.394 28.559 o
10 -4 0 40.406 40.216 0.660 3.499 o
10 -4 1 1.305 1.192 0.404 27.604 o
10 -4 2 0.480 0.453 0.197 116.257 o
10 -4 3 4.512 4.028 0.167 119.049 o
10 -4 4 1.250 0.926 0.226 87.008 o
10 -4 5 1.033 0.995 0.286 55.091 o
10 -4 6 12.716 13.520 0.177 37.623 o
10 -4 7 3.443 3.673 0.197 99.816 o
10 -4 9 0.060 0.394 0.374 32.298 o
10 -4 10 0.505 0.473 0.335 40.303 o
10 -4 11 0.189 0.256 0.187 129.118 o
10 -3 0 1.606 1.989 0.207 101.990 o
10 -3 1 2.757 2.472 0.167 142.424 o
10 -3 2 3.248 3.230 0.177 122.397 o
10 -3 3 3.308 3.378 0.167 133.543 o
10 -3 4 1.560 2.265 0.483 19.286 o
10 -3 5 6.226 7.060 0.483 17.730 o
10 -3 7 3.876 4.323 0.167 123.726 o
10 -2 0 5.986 6.155 0.187 83.395 o
10 -2 1 11.662 11.630 0.483 14.862 o
10 -2 2 8.814 8.863 0.463 17.718 o
10 -2 3 1.769 1.920 0.502 17.810 o
10 -2 4 1.529 1.290 0.335 39.955 o
10 -2 5 0.530 0.335 0.177 143.440 o
10 -2 6 0.273 0.276 0.138 237.481 o
10 -2 7 0.673 0.640 0.158 180.521 o
10 -2 8 0.292 0.374 0.138 237.303 o
10 -2 11 1.282 1.231 0.276 58.842 o
10 -1 0 1.026 1.388 0.197 114.561 o
10 -1 1 7.581 8.035 0.197 64.358 o
10 -1 3 3.974 4.028 0.345 35.563 o
10 -1 4 2.519 2.639 0.463 20.780 o
10 -1 5 0.729 0.551 0.197 115.902 o
10 -1 6 3.185 3.309 0.207 93.747 o
10 -1 8 4.883 5.239 0.148 129.246 o
10 -1 9 1.502 1.526 0.345 37.695 o
10 0 5 2.760 2.068 0.453 21.687 o
10 0 6 3.485 3.387 0.453 21.389 o
10 0 7 3.433 3.604 0.404 26.697 o
10 0 8 3.006 2.994 0.138 190.417 o
10 0 10 0.589 0.483 0.089 564.240 o
10 1 5 5.655 5.977 0.187 86.159 o
10 1 7 10.090 10.625 0.453 17.348 o
10 1 8 0.572 0.463 0.354 35.947 o
10 2 5 3.095 3.141 0.433 23.456 o
10 2 6 5.602 5.987 0.433 22.060 o
10 2 7 4.179 4.136 0.384 28.877 o
10 2 8 1.138 1.034 0.315 45.258 o
10 3 7 0.509 0.551 0.335 40.297 o
10 4 6 1.157 1.142 0.354 35.791 o
10 5 4 2.519 2.432 0.433 23.680 o
10 5 5 0.756 0.748 0.364 33.994 o
10 6 1 9.736 10.034 0.483 15.938 o
10 6 2 1.013 0.916 0.443 22.974 o
10 6 5 0.596 0.364 0.325 42.774 o
10 6 6 1.190 1.063 0.286 54.994 o
10 7 0 2.178 2.038 0.443 22.756 o
10 7 1 1.621 1.713 0.433 23.910 o
10 8 0 3.647 3.575 0.423 24.290 o
10 8 1 2.302 2.353 0.394 28.629 o
10 10 1 0.768 0.857 0.305 48.362 o
10 11 0 2.806 2.491 0.305 46.614 o
11 -13 2 0.361 0.315 0.305 48.503 o
11 -13 3 0.152 0.158 0.118 323.622 o
11 -13 6 2.516 2.728 0.266 60.944 o
11 -12 0 0.605 0.551 0.256 68.808 o
11 -12 5 2.634 2.875 0.158 157.568 o
11 -12 6 1.937 2.009 0.098 385.846 o
11 -11 0 1.149 1.044 0.098 436.975 o
11 -11 1 2.369 2.639 0.108 303.183 o
11 -11 4 3.737 3.860 0.354 33.959 o
11 -11 5 8.867 9.985 0.167 61.966 o
11 -11 7 0.703 0.729 0.305 48.397 o
11 -10 0 0.174 0.354 0.098 465.049 o
11 -10 1 2.503 2.521 0.148 179.961 o
11 -10 2 1.172 1.093 0.187 126.702 o
11 -10 3 0.533 0.778 0.394 29.115 o
11 -10 4 0.281 0.276 0.128 275.306 o
11 -10 8 0.020 0.138 0.098 466.343 o
11 -10 9 0.532 0.611 0.098 458.663 o
11 -9 0 4.650 5.022 0.177 104.160 o
11 -9 2 0.474 0.177 0.158 181.658 o
11 -9 3 2.835 3.072 0.158 154.381 o
11 -9 6 1.634 1.654 0.207 102.372 o
11 -9 7 1.664 1.211 0.354 35.648 o
11 -9 10 0.697 0.798 0.256 68.704 o
11 -8 3 3.194 3.062 0.158 150.508 o
11 -8 4 1.478 1.448 0.148 197.053 o
11 -8 8 0.151 0.158 0.138 237.821 o
11 -8 9 0.309 0.266 0.148 206.869 o
11 -7 3 1.492 1.398 0.158 174.308 o
11 -7 4 1.103 1.192 0.394 29.026 o
11 -7 5 1.279 1.201 0.148 199.729 o
11 -7 6 2.665 2.669 0.276 56.702 o
11 -7 8 1.125 1.162 0.118 308.841 o
11 -7 10 0.564 0.551 0.276 59.365 o
11 -6 0 9.540 9.906 0.158 61.124 o
11 -6 1 4.694 4.737 0.246 62.574 o
11 -6 2 1.711 1.536 0.128 253.726 o
11 -6 3 17.659 19.291 0.453 11.912 o
11 -6 4 1.798 1.733 0.158 170.770 o
11 -6 5 0.538 0.414 0.414 26.422 o
11 -6 6 1.307 0.876 0.404 27.626 o
11 -6 7 6.026 6.686 0.276 46.835 o
11 -6 10 0.802 0.778 0.266 63.683 o
11 -5 1 0.265 0.236 0.138 237.546 o
11 -5 3 3.108 3.220 0.177 123.484 o
11 -5 4 4.540 4.293 0.236 68.199 o
11 -5 5 7.094 6.903 0.453 19.561 o
11 -5 6 2.489 2.452 0.414 25.952 o
11 -5 7 1.090 0.916 0.315 45.294 o
11 -4 0 3.535 3.594 0.246 67.243 o
11 -4 1 0.338 0.502 0.148 206.533 o
11 -4 2 10.206 10.576 0.187 49.591 o
11 -4 5 13.457 14.850 0.551 11.135 o
11 -4 6 13.406 13.954 0.522 12.236 o
11 -3 0 0.523 0.177 0.158 181.558 o
11 -3 2 0.453 0.364 0.177 143.529 o
11 -3 3 0.802 0.453 0.148 204.976 o
11 -3 4 0.891 0.768 0.453 22.002 o
11 -3 5 3.023 2.619 0.433 23.541 o
11 -3 6 2.074 1.507 0.404 27.432 o
11 -3 7 1.577 1.822 0.354 35.580 o
11 -3 8 1.058 0.906 0.108 368.697 o
11 -2 1 3.564 3.210 0.374 30.920 o
11 -2 3 2.616 2.393 0.177 129.894 o
11 -2 4 6.733 7.129 0.473 18.220 o
11 -2 5 5.666 5.554 0.443 21.230 o
11 1 6 4.478 4.392 0.354 33.233 o
11 8 0 1.295 1.004 0.374 32.128 o
12 -11 1 0.093 0.177 0.098 466.061 o
12 -11 2 2.277 2.521 0.098 358.202 o
12 -11 3 2.793 3.043 0.315 43.636 o
12 -10 2 1.446 1.694 0.315 44.992 o
12 -10 4 3.407 3.683 0.335 38.154 o
12 -9 0 0.651 0.620 0.187 128.411 o
12 -9 2 1.025 1.221 0.118 310.003 o
12 -9 3 10.077 11.019 0.433 18.491 o
12 -9 4 3.401 3.929 0.345 36.032 o
12 -9 5 0.664 0.404 0.305 48.445 o
12 -9 6 0.929 0.916 0.305 48.303 o
12 -8 0 1.968 2.147 0.148 188.584 o
12 -8 1 0.044 0.207 0.217 96.360 o
12 -8 3 0.110 0.246 0.118 323.616 o
12 -8 8 0.429 0.719 0.256 68.846 o
12 -7 0 1.009 1.251 0.394 29.035 o
12 -7 2 0.316 0.670 0.394 29.133 o
12 -7 3 0.338 0.384 0.374 32.286 o
12 -7 4 0.792 0.896 0.197 115.535 o
12 -7 5 2.353 2.422 0.364 33.324 o
12 -7 6 0.091 0.118 0.108 385.308 o
12 -6 0 1.083 0.867 0.158 178.333 o
12 -6 1 1.730 2.216 0.394 28.802 o
12 -6 2 1.252 1.201 0.138 228.324 o
12 -6 8 0.762 0.532 0.276 59.301 o
12 -5 1 1.322 1.310 0.423 25.098 o
12 -5 2 1.189 1.073 0.384 30.522 o
12 -5 3 0.537 0.591 0.394 29.122 o
12 -5 4 1.969 1.960 0.217 92.364 o
12 -4 2 5.050 5.101 0.423 23.457 o
12 -4 5 4.329 4.884 0.394 27.266 o
12 -3 1 2.007 2.216 0.158 166.923 o
12 -3 2 2.564 2.344 0.414 25.946 o
12 -3 4 3.431 3.663 0.394 27.983 o
12 -3 5 1.514 1.841 0.364 33.718 o
12 -2 0 7.067 7.671 0.453 19.411 o
12 -2 3 3.628 3.919 0.414 25.358 o
13 -9 0 1.483 1.595 0.286 54.645 o
13 -9 1 2.369 2.304 0.158 163.129 o
13 -9 2 2.047 2.383 0.295 50.408 o
13 -9 3 3.157 3.338 0.286 51.986 o
13 -8 0 1.116 1.014 0.138 230.497 o
13 -8 3 0.346 0.611 0.276 59.416 o
13 -7 1 7.167 7.464 0.148 91.141 o
13 -7 2 5.683 5.967 0.345 33.167 o
13 -7 3 0.959 0.640 0.305 48.337 o
13 -5 0 1.069 0.896 0.364 33.933 o
13 -5 4 0.221 0.443 0.286 55.430 o
13 -4 0 0.902 0.502 0.128 270.850 o
13 -4 3 0.012 0.315 0.315 45.547 o
13 -4 4 0.407 0.325 0.305 48.497 o
13 -3 2 0.791 0.955 0.354 35.882 o
13 -2 0 5.708 5.337 0.404 25.207 o
14 -5 0 6.239 6.923 0.325 35.439 o
;
_olex2_submission_special_instructions 'No special instructions were received'
loop_
_space_group_symop_id
_space_group_symop_operation_xyz
1 x,y,z
2 -x,-y,-z
loop_
_atom_site_label
_atom_site_type_symbol
_atom_site_fract_x
_atom_site_fract_y
_atom_site_fract_z
_atom_site_U_iso_or_equiv
_atom_site_adp_type
_atom_site_occupancy
_atom_site_refinement_flags_posn
O1 O 0.78210(3) 1.08676(3) 0.27352(3) 0.01889(3) Uani 1.000000 .
O2 O 1.11906(4) 1.13966(2) 0.48228(2) 0.01841(3) Uani 1.000000 .
N1 N 1.06733(3) 0.90146(2) 0.22098(2) 0.01318(2) Uani 1.000000 .
N2 N 0.98492(3) 1.05042(2) 0.33010(2) 0.01373(2) Uani 1.000000 .
C1 C 0.96752(3) 0.79787(2) 0.03615(2) 0.01069(2) Uani 1.000000 .
C2 C 1.12756(3) 0.67053(2) -0.02715(2) 0.01079(2) Uani 1.000000 .
C3 C 1.07494(4) 0.54986(3) -0.20614(2) 0.01398(3) Uani 1.000000 .
H3 H 1.1939(11) 0.4506(9) -0.2592(8) 0.0343(14) Uiso 1.000000 .
C4 C 0.86132(4) 0.55760(3) -0.32111(3) 0.01577(3) Uani 1.000000 .
H4 H 0.8204(11) 0.4623(9) -0.4598(9) 0.0376(15) Uiso 1.000000 .
C5 C 0.70386(4) 0.68537(3) -0.25614(3) 0.01536(3) Uani 1.000000 .
H5 H 0.5374(11) 0.6924(8) -0.3422(8) 0.0315(14) Uiso 1.000000 .
C6 C 0.75368(3) 0.80815(3) -0.07581(3) 0.01370(3) Uani 1.000000 .
H6 H 0.6323(10) 0.9035(8) -0.0251(7) 0.0282(13) Uiso 1.000000 .
C8 C 1.34205(3) 0.68716(3) 0.12125(2) 0.01270(2) Uani 1.000000 .
H8a H 1.3410(10) 0.5653(8) 0.1375(7) 0.0276(13) Uiso 1.000000 .
H8b H 1.5122(11) 0.7031(8) 0.0984(8) 0.0337(14) Uiso 1.000000 .
C7 C 1.30983(4) 0.85643(3) 0.28537(2) 0.01391(3) Uani 1.000000 .
H7a H 1.4386(11) 0.9740(9) 0.3316(8) 0.0350(15) Uiso 1.000000 .
H7b H 1.3083(10) 0.8253(8) 0.3913(8) 0.0353(15) Uiso 1.000000 .
loop_
_atom_site_aniso_label
_atom_site_aniso_U_11
_atom_site_aniso_U_22
_atom_site_aniso_U_33
_atom_site_aniso_U_12
_atom_site_aniso_U_13
_atom_site_aniso_U_23
O1 0.01918(6) 0.01616(6) 0.02088(7) 0.00690(5) 0.01027(5) 0.00596(5)
O2 0.02558(8) 0.01316(5) 0.01225(5) 0.00031(5) 0.00741(5) 0.00172(4)
N1 0.01348(5) 0.01290(5) 0.01004(4) 0.00316(4) 0.00353(4) 0.00277(4)
N2 0.01704(6) 0.01074(5) 0.01267(5) 0.00204(4) 0.00730(4) 0.00346(4)
C1 0.01043(5) 0.01058(5) 0.01010(5) 0.00189(4) 0.00293(4) 0.00417(4)
C2 0.01045(5) 0.01094(5) 0.00955(5) 0.00183(4) 0.00296(4) 0.00364(4)
C3 0.01411(6) 0.01427(6) 0.01015(5) 0.00211(5) 0.00387(4) 0.00283(5)
C4 0.01564(7) 0.01802(7) 0.00990(5) -0.00021(5) 0.00190(4) 0.00463(5)
C5 0.01345(6) 0.01835(7) 0.01297(6) 0.00071(5) 0.00055(5) 0.00816(6)
C6 0.01182(6) 0.01485(6) 0.01407(6) 0.00334(5) 0.00260(4) 0.00713(5)
C8 0.01065(5) 0.01391(6) 0.01226(5) 0.00260(4) 0.00277(4) 0.00542(5)
C7 0.01311(6) 0.01427(6) 0.01054(5) 0.00098(4) 0.00133(4) 0.00390(5)
loop_
_atom_type_symbol
_atom_type_description
_atom_type_scat_dispersion_real
_atom_type_scat_dispersion_imag
_atom_type_scat_source
_atom_type_scat_dispersion_source
C C 0.00347 0.00161
'Clementi & Roetti, C., At. Data Nucl. Data Tables 1974, 14, (177-478); Clementi & Raimondi, J. Chem. Phys., 1963, 38, (2686-2689)'
'Henke, Gullikson and Davis, At. Data and Nucl. Data Tables, 1993, 54, 2'
H H 0.00000 0.00000
'Clementi & Roetti, C., At. Data Nucl. Data Tables 1974, 14, (177-478); Clementi & Raimondi, J. Chem. Phys., 1963, 38, (2686-2689)'
'Henke, Gullikson and Davis, At. Data and Nucl. Data Tables, 1993, 54, 2'
N N 0.00653 0.00323
'Clementi & Roetti, C., At. Data Nucl. Data Tables 1974, 14, (177-478); Clementi & Raimondi, J. Chem. Phys., 1963, 38, (2686-2689)'
'Henke, Gullikson and Davis, At. Data and Nucl. Data Tables, 1993, 54, 2'
O O 0.01158 0.00611
'Clementi & Roetti, C., At. Data Nucl. Data Tables 1974, 14, (177-478); Clementi & Raimondi, J. Chem. Phys., 1963, 38, (2686-2689)'
'Henke, Gullikson and Davis, At. Data and Nucl. Data Tables, 1993, 54, 2'
loop_
_geom_angle_atom_site_label_1
_geom_angle_atom_site_label_2
_geom_angle_atom_site_label_3
_geom_angle
_geom_angle_site_symmetry_1
_geom_angle_site_symmetry_3
_geom_angle_publ_flag
C1 N1 N2 125.970(17) . . ?
C7 N1 N2 120.756(16) . . ?
C7 N1 C1 112.169(15) . . ?
O2 N2 O1 124.321(18) . . ?
N1 N2 O1 119.866(18) . . ?
N1 N2 O2 115.802(18) . . ?
C2 C1 N1 107.204(14) . . ?
C6 C1 N1 129.794(17) . . ?
C6 C1 C2 123.001(16) . . ?
C3 C2 C1 120.022(16) . . ?
C8 C2 C1 112.109(14) . . ?
C8 C2 C3 127.865(17) . . ?
H3 C3 C2 121.9(3) . . ?
C4 C3 C2 118.010(18) . . ?
C4 C3 H3 120.1(3) . . ?
H4 C4 C3 117.6(3) . . ?
C5 C4 C3 121.329(17) . . ?
C5 C4 H4 121.1(3) . . ?
H5 C5 C4 122.5(3) . . ?
C6 C5 C4 121.510(17) . . ?
C6 C5 H5 116.0(3) . . ?
C5 C6 C1 116.127(18) . . ?
H6 C6 C1 122.0(3) . . ?
H6 C6 C5 121.9(3) . . ?
H8a C8 C2 112.6(3) . . ?
H8b C8 C2 112.9(3) . . ?
H8b C8 H8a 103.9(4) . . ?
C7 C8 C2 102.914(14) . . ?
C7 C8 H8a 111.4(3) . . ?
C7 C8 H8b 113.5(3) . . ?
C8 C7 N1 104.917(14) . . ?
H7a C7 N1 106.8(3) . . ?
H7a C7 C8 112.8(3) . . ?
H7b C7 N1 108.9(3) . . ?
H7b C7 C8 112.5(3) . . ?
H7b C7 H7a 110.6(4) . . ?
loop_
_geom_bond_atom_site_label_1
_geom_bond_atom_site_label_2
_geom_bond_distance
_geom_bond_site_symmetry_2
_geom_bond_publ_flag
O1 N2 1.2577(3) . ?
O2 N2 1.2343(2) . ?
N1 N2 1.3682(2) . ?
N1 C1 1.4157(2) . ?
N1 C7 1.5018(3) . ?
C1 C2 1.4365(2) . ?
C1 C6 1.4135(3) . ?
C2 C3 1.3918(2) . ?
C2 C8 1.5208(2) . ?
C3 H3 1.102(6) . ?
C3 C4 1.4181(3) . ?
C4 H4 1.082(7) . ?
C4 C5 1.4306(3) . ?
C5 H5 1.092(6) . ?
C5 C6 1.4060(3) . ?
C6 H6 1.090(6) . ?
C8 H8a 1.078(6) . ?
C8 H8b 1.072(6) . ?
C8 C7 1.5604(3) . ?
C7 H7a 1.054(6) . ?
C7 H7b 1.087(6) . ?
loop_
_refln_index_h
_refln_index_k
_refln_index_l
_refln_F_squared_meas
_refln_F_squared_sigma
-14 -6 9 3.45 0.35
-14 -6 12 0.71 0.11
-14 -4 11 0.46 0.1
-14 -4 12 0.69 0.33
-14 -4 13 0.36 0.09
-14 -3 10 0.95 0.36
-14 -3 12 0.34 0.31
-14 -3 14 0.59 0.26
-14 -2 8 1.16 0.19
-14 -2 13 1.92 0.3
-14 -1 12 1.42 0.3
-14 0 5 2.85 0.36
-14 0 6 0.59 0.12
-14 0 9 1.77 0.29
-14 0 10 0.55 0.31
-14 1 6 1.69 0.12
-14 1 7 0.82 0.15
-14 1 9 0.88 0.11
-14 2 2 0.71 0.33
-14 2 4 0.96 0.35
-14 2 5 0.64 0.33
-14 2 7 4.67 0.36
-14 3 2 1 0.31
-14 3 4 0.26 0.11
-14 3 5 2.29 0.35
-14 3 6 2.48 0.34
-14 3 7 0.82 0.32
-14 3 9 0.38 0.15
-14 3 10 0.33 0.28
-14 4 4 1.15 0.16
-14 4 6 1.28 0.1
-14 4 7 0.99 0.32
-14 5 0 7.03 0.33
-14 5 4 0.67 0.3
-14 5 5 0.39 0.32
-14 6 1 0.58 0.28
-14 6 3 0.83 0.29
-13 -10 12 0.47 0.28
-13 -9 10 0.48 0.3
-13 -9 13 0.74 0.34
-13 -9 14 1.61 0.32
-13 -9 15 0.4 0.16
-13 -8 7 0.45 0.33
-13 -8 10 0.87 0.38
-13 -8 11 2.35 0.39
-13 -8 15 2.51 0.32
-13 -7 8 1.13 0.12
-13 -7 10 1.26 0.19
-13 -7 12 0.42 0.11
-13 -7 13 0.92 0.11
-13 -7 14 1.03 0.1
-13 -6 10 0.84 0.23
-13 -6 11 1.08 0.39
-13 -6 13 0.94 0.09
-13 -6 15 0.93 0.32
-13 -5 11 0.35 0.13
-13 -5 14 0.65 0.3
-13 -5 15 2.27 0.1
-13 -4 6 4.1 0.43
-13 -4 8 0.62 0.43
-13 -4 10 1.57 0.25
-13 -4 11 0.5 0.17
-13 -4 12 0.45 0.35
-13 -4 14 1.1 0.12
-13 -4 15 0.3 0.09
-13 -4 16 0.1 0.08
-13 -3 12 5.84 0.44
-13 -3 14 1.82 0.11
-13 -2 5 3.28 0.43
-13 -2 6 8.61 0.47
-13 -2 7 0.46 0.15
-13 -2 8 3.52 0.42
-13 -2 9 3.78 0.32
-13 -2 10 1.04 0.4
-13 -2 11 3.17 0.4
-13 -2 13 0.87 0.35
-13 -1 5 1.34 0.41
-13 -1 8 2.84 0.15
-13 -1 10 1.06 0.14
-13 -1 11 0.38 0.39
-13 -1 12 1.29 0.32
-13 -1 14 0.7 0.1
-13 -1 15 0.37 0.25
-13 0 4 1.71 0.41
-13 0 5 0.59 0.43
-13 0 6 1.61 0.15
-13 0 7 2.18 0.15
-13 0 10 0.48 0.13
-13 0 11 2.29 0.13
-13 0 12 2.7 0.37
-13 0 14 2.45 0.27
-13 1 6 3.51 0.42
-13 1 8 0.44 0.18
-13 1 10 5.31 0.4
-13 1 14 0.96 0.27
-13 2 0 5.42 0.41
-13 2 3 3.9 0.42
-13 2 4 1.69 0.43
-13 2 6 3.19 0.15
-13 2 7 4.26 0.16
-13 2 9 0.45 0.13
-13 2 10 0.36 0.36
-13 2 12 1.93 0.32
-13 3 4 1.44 0.15
-13 3 5 2 0.2
-13 3 7 0.48 0.17
-13 3 8 3.35 0.15
-13 3 10 1.02 0.35
-13 3 11 4.21 0.34
-13 4 0 0.51 0.13
-13 4 1 0.63 0.41
-13 4 2 1.09 0.14
-13 4 5 2.75 0.41
-13 4 6 15.43 0.22
-13 4 7 2.31 0.39
-13 4 8 0.67 0.35
-13 4 9 0.33 0.11
-13 4 10 1.98 0.32
-13 4 11 0.5 0.29
-13 5 0 0.91 0.37
-13 5 2 0.56 0.14
-13 5 3 1.09 0.11
-13 5 4 4.02 0.23
-13 5 5 1.25 0.13
-13 5 7 1.03 0.12
-13 5 8 0.55 0.34
-13 6 2 1.65 0.15
-13 6 3 0.76 0.38
-13 6 4 0.74 0.1
-13 6 5 3.33 0.11
-13 6 8 2.19 0.3
-13 6 9 3.61 0.31
-13 7 2 0.91 0.2
-13 7 3 1 0.11
-13 7 7 0.18 0.12
-13 8 0 1.03 0.14
-13 8 1 0.39 0.09
-13 8 3 0.67 0.33
-13 8 7 1.82 0.27
-13 9 0 1.62 0.29
-13 9 5 0.6 0.26
-12 -12 7 0.3 0.27
-12 -12 12 0.09 0.1
-12 -12 13 1.05 0.29
-12 -12 15 0.58 0.29
-12 -11 5 0.42 0.27
-12 -11 9 0.39 0.33
-12 -11 11 0.72 0.11
-12 -11 12 0.59 0.11
-12 -11 13 0.77 0.3
-12 -11 14 0.72 0.3
-12 -10 5 4.22 0.32
-12 -10 6 2.76 0.35
-12 -10 9 0.35 0.35
-12 -10 10 0.12 0.12
-12 -10 11 0.6 0.41
-12 -10 16 0.87 0.09
-12 -9 7 2.15 0.37
-12 -9 9 0.25 0.13
-12 -9 10 0.58 0.35
-12 -9 11 0.13 0.13
-12 -9 12 0.46 0.16
-12 -9 16 0.47 0.33
-12 -8 5 1.59 0.4
-12 -8 7 1.11 0.14
-12 -8 8 0.25 0.14
-12 -8 9 0.23 0.14
-12 -8 10 0.15 0.14
-12 -8 11 3.69 0.45
-12 -8 13 0.35 0.15
-12 -8 14 1.01 0.34
-12 -8 15 1.33 0.12
-12 -8 17 1.83 0.14
-12 -7 6 2.36 0.4
-12 -7 7 1.16 0.44
-12 -7 8 1.97 0.23
-12 -7 11 0.71 0.14
-12 -7 12 3.3 0.15
-12 -7 14 0.34 0.13
-12 -7 17 0.43 0.29
-12 -6 8 3.43 0.16
-12 -6 9 1.46 0.16
-12 -6 10 9.21 0.19
-12 -6 11 0.54 0.19
-12 -6 12 0.16 0.15
-12 -6 13 4.6 0.16
-12 -6 14 2.02 0.18
-12 -6 15 0.97 0.33
-12 -6 17 0.61 0.29
-12 -6 18 1.11 0.35
-12 -5 6 1.6 0.46
-12 -5 7 0.25 0.18
-12 -5 8 3.82 0.14
-12 -5 10 0.31 0.29
-12 -5 11 2.12 0.15
-12 -5 12 2.96 0.22
-12 -5 13 0.8 0.25
-12 -5 15 2.05 0.1
-12 -5 17 0.34 0.1
-12 -4 8 0.67 0.17
-12 -4 9 3.15 0.13
-12 -4 11 0.61 0.18
-12 -4 12 4.06 0.16
-12 -4 13 4.57 0.25
-12 -4 15 0.21 0.08
-12 -4 16 0.57 0.08
-12 -3 5 3.87 0.48
-12 -3 6 5.3 0.48
-12 -3 9 0.67 0.12
-12 -3 10 0.15 0.11
-12 -3 11 0.59 0.11
-12 -3 12 1.29 0.1
-12 -3 13 2.09 0.24
-12 -3 14 3.74 0.16
-12 -3 16 0.18 0.09
-12 -3 18 0.94 0.08
-12 -2 5 20.4 0.47
-12 -2 6 7.15 0.42
-12 -2 7 0.39 0.14
-12 -2 8 1.86 0.14
-12 -2 9 2.22 0.2
-12 -2 10 0.35 0.11
-12 -2 12 4.04 0.12
-12 -2 13 0.14 0.11
-12 -2 17 0.49 0.26
-12 -1 4 1.98 0.18
-12 -1 5 0.87 0.21
-12 -1 6 0.26 0.18
-12 -1 9 0.41 0.17
-12 -1 10 9.22 0.27
-12 -1 11 4.51 0.15
-12 -1 12 4.16 0.35
-12 -1 13 0.93 0.09
-12 0 3 1.59 0.18
-12 0 4 21.81 0.27
-12 0 5 0.49 0.31
-12 0 6 2.15 0.14
-12 0 7 11.92 0.23
-12 0 8 0.31 0.18
-12 0 9 7.39 0.16
-12 0 11 0.29 0.12
-12 0 12 1.25 0.1
-12 0 13 0.43 0.15
-12 0 15 1.16 0.37
-12 1 3 0.47 0.18
-12 1 4 1.47 0.35
-12 1 5 0.59 0.17
-12 1 6 4.55 0.45
-12 1 7 2.32 0.16
-12 1 8 0.74 0.14
-12 1 9 3.15 0.17
-12 1 10 1.45 0.16
-12 1 12 0.65 0.1
-12 1 13 2.39 0.12
-12 1 14 0.12 0.1
-12 2 0 7.79 0.46
-12 2 2 2.82 0.45
-12 2 3 1.06 0.22
-12 2 4 0.63 0.27
-12 2 5 5.27 0.15
-12 2 7 0.19 0.18
-12 2 8 0.63 0.41
-12 2 9 0.63 0.42
-12 2 10 8.09 0.38
-12 2 12 2.04 0.13
-12 3 3 1.22 0.16
-12 3 4 3.65 0.15
-12 3 5 0.9 0.14
-12 3 6 0.72 0.14
-12 3 7 0.27 0.18
-12 3 8 9.7 0.21
-12 3 11 0.43 0.39
-12 3 12 1.57 0.32
-12 4 1 5.72 0.36
-12 4 2 5.04 0.18
-12 4 4 2.36 0.2
-12 4 5 6.15 0.22
-12 4 6 0.46 0.13
-12 4 7 0.8 0.42
-12 4 8 0.86 0.12
-12 4 10 0.77 0.37
-12 4 11 7 0.39
-12 5 1 0.45 0.42
-12 5 2 1.32 0.16
-12 5 3 5.32 0.44
-12 5 6 4.9 0.17
-12 5 7 2.02 0.4
-12 5 9 8.26 0.25
-12 6 0 0.88 0.16
-12 6 1 0.68 0.2
-12 6 2 0.3 0.16
-12 6 3 0.98 0.12
-12 6 4 18.99 0.23
-12 6 5 10.43 0.49
-12 6 7 1.57 0.19
-12 6 8 0.77 0.37
-12 6 10 0.42 0.11
-12 7 0 1.27 0.4
-12 7 1 0.32 0.12
-12 7 2 5.84 0.17
-12 7 3 2.91 0.11
-12 7 5 1.02 0.4
-12 7 6 0.75 0.36
-12 7 7 2.16 0.37
-12 8 0 2.18 0.15
-12 8 1 2 0.12
-12 8 3 6.24 0.12
-12 8 4 1.1 0.13
-12 8 6 1.27 0.33
-12 8 7 8.2 0.4
-12 9 0 0.63 0.19
-12 9 1 2.27 0.37
-12 9 2 0.3 0.1
-12 9 4 0.43 0.31
-12 9 5 0.42 0.11
-12 9 7 0.99 0.1
-12 10 1 0.43 0.33
-12 10 2 0.67 0.21
-12 10 4 0.75 0.31
-12 10 5 1.35 0.29
-12 10 6 1.89 0.35
-12 11 1 0.77 0.1
-12 11 2 0.36 0.11
-12 11 3 1.97 0.11
-12 11 4 0.45 0.35
-11 -14 11 1.28 0.29
-11 -14 12 0.34 0.3
-11 -13 8 0.88 0.32
-11 -13 9 1.17 0.17
-11 -13 11 0.67 0.1
-11 -13 12 3.19 0.35
-11 -13 15 0.56 0.09
-11 -12 5 1.02 0.31
-11 -12 8 0.64 0.32
-11 -12 12 0.42 0.12
-11 -12 13 0.61 0.16
-11 -12 14 0.36 0.11
-11 -12 15 0.42 0.37
-11 -12 16 1.05 0.33
-11 -11 4 0.48 0.36
-11 -11 5 0.46 0.34
-11 -11 7 1.29 0.38
-11 -11 10 11.01 0.5
-11 -11 11 4.35 0.17
-11 -11 13 1.61 0.36
-11 -11 14 0.82 0.12
-11 -11 15 1.27 0.38
-11 -11 18 0.57 0.28
-11 -10 2 1.11 0.11
-11 -10 9 0.15 0.15
-11 -10 10 0.2 0.15
-11 -10 11 5.31 0.17
-11 -10 12 0.22 0.21
-11 -10 13 2.08 0.43
-11 -10 15 3.36 0.37
-11 -9 1 0.72 0.35
-11 -9 2 3.02 0.37
-11 -9 7 0.24 0.16
-11 -9 8 0.26 0.16
-11 -9 9 1.36 0.46
-11 -9 10 2.07 0.47
-11 -9 11 1.72 0.17
-11 -9 12 1.03 0.15
-11 -9 14 0.42 0.13
-11 -9 16 2.75 0.36
-11 -9 17 0.71 0.12
-11 -8 4 10.27 0.48
-11 -8 5 0.44 0.44
-11 -8 6 1.05 0.47
-11 -8 7 0.51 0.14
-11 -8 9 1.74 0.22
-11 -8 11 0.61 0.18
-11 -8 13 0.42 0.23
-11 -8 14 1.39 0.12
-11 -8 17 0.46 0.37
-11 -8 18 0.58 0.3
-11 -8 19 1.67 0.27
-11 -7 5 7.82 0.47
-11 -7 7 0.35 0.15
-11 -7 8 1.47 0.12
-11 -7 10 1.29 0.22
-11 -7 12 0.22 0.12
-11 -7 13 0.53 0.12
-11 -7 14 0.71 0.12
-11 -7 15 0.17 0.11
-11 -7 16 0.86 0.12
-11 -7 17 2.4 0.37
-11 -7 18 1.2 0.4
-11 -7 20 1.93 0.33
-11 -6 6 1.1 0.19
-11 -6 7 0.31 0.2
-11 -6 9 7.48 0.29
-11 -6 10 1.12 0.17
-11 -6 11 1.05 0.12
-11 -6 12 0.38 0.12
-11 -6 13 5.03 0.1
-11 -6 15 4.62 0.15
-11 -6 16 1.15 0.4
-11 -6 17 0.75 0.09
-11 -6 19 2.83 0.1
-11 -5 6 1.65 0.23
-11 -5 7 0.15 0.13
-11 -5 9 1.42 0.15
-11 -5 10 4.78 0.14
-11 -5 11 4.49 0.15
-11 -5 12 3.7 0.13
-11 -5 13 0.54 0.17
-11 -5 14 0.58 0.1
-11 -5 15 2.4 0.12
-11 -5 18 1.37 0.3
-11 -4 5 0.31 0.19
-11 -4 6 8 0.21
-11 -4 7 0.26 0.19
-11 -4 8 17.92 0.25
-11 -4 9 7.47 0.12
-11 -4 10 2.03 0.19
-11 -4 11 3.87 0.15
-11 -4 12 7.15 0.19
-11 -4 13 3.59 0.15
-11 -4 16 1.74 0.22
-11 -4 17 3 0.19
-11 -3 5 4.48 0.2
-11 -3 6 6.66 0.22
-11 -3 7 1.71 0.19
-11 -3 8 0.62 0.1
-11 -3 9 4.74 0.19
-11 -3 10 6.04 0.15
-11 -3 11 5.14 0.13
-11 -3 12 0.13 0.12
-11 -3 13 3.81 0.12
-11 -3 15 0.31 0.13
-11 -3 16 0.31 0.12
-11 -3 18 1.39 0.28
-11 -2 4 1.17 0.52
-11 -2 5 0.34 0.16
-11 -2 6 0.48 0.13
-11 -2 7 8.21 0.16
-11 -2 8 0.89 0.19
-11 -2 10 6.16 0.16
-11 -2 11 12.97 0.26
-11 -2 12 0.62 0.11
-11 -2 13 2.74 0.11
-11 -2 14 0.74 0.14
-11 -2 15 1.67 0.4
-11 -2 18 0.18 0.08
-11 -1 3 18.25 0.57
-11 -1 4 3.06 0.24
-11 -1 5 2.92 0.21
-11 -1 8 1.14 0.18
-11 -1 9 0.97 0.11
-11 -1 10 1.25 0.11
-11 -1 11 0.8 0.14
-11 -1 12 7.86 0.18
-11 -1 13 1.48 0.15
-11 -1 16 2.38 0.11
-11 0 2 5.83 0.2
-11 0 3 27.93 0.35
-11 0 4 27.86 0.28
-11 0 5 0.39 0.15
-11 0 6 0.63 0.19
-11 0 7 6.03 0.19
-11 0 9 1.64 0.14
-11 0 10 8.36 0.15
-11 0 12 0.36 0.13
-11 0 13 0.19 0.15
-11 0 15 0.82 0.12
-11 0 17 2.46 0.27
-11 1 1 4.11 0.46
-11 1 3 1.91 0.3
-11 1 7 0.87 0.18
-11 1 8 7.61 0.25
-11 1 9 20.33 0.3
-11 1 10 3.06 0.22
-11 1 11 5.09 0.15
-11 1 14 1.69 0.12
-11 2 2 39.8 0.68
-11 2 3 5.71 0.38
-11 2 4 0.33 0.13
-11 2 5 18.08 0.28
-11 2 6 6.5 0.15
-11 2 7 11.39 0.46
-11 2 8 0.5 0.18
-11 2 10 2.81 0.12
-11 2 11 1.22 0.26
-11 2 12 0.48 0.14
-11 2 13 1.2 0.34
-11 2 14 1.2 0.32
-11 3 0 0.18 0.16
-11 3 1 0.23 0.18
-11 3 2 1.31 0.13
-11 3 3 4.57 0.14
-11 3 4 3.32 0.11
-11 3 5 8.2 0.16
-11 3 7 10.95 0.19
-11 3 8 0.3 0.18
-11 3 9 0.62 0.14
-11 3 11 6.38 0.16
-11 3 13 2.27 0.32
-11 4 0 3.65 0.25
-11 4 1 1.97 0.18
-11 4 2 0.27 0.12
-11 4 3 8.39 0.16
-11 4 4 1.69 0.11
-11 4 6 0.26 0.1
-11 4 8 13.67 0.25
-11 4 9 0.81 0.13
-11 4 10 1.1 0.43
-11 4 11 7.03 0.39
-11 4 12 3.43 0.33
-11 4 14 3.03 0.29
-11 4 15 0.84 0.24
-11 5 1 4.4 0.17
-11 5 2 1.93 0.16
-11 5 3 5.47 0.2
-11 5 4 0.42 0.12
-11 5 6 12.09 0.16
-11 5 7 1.88 0.1
-11 5 9 1.74 0.16
-11 5 13 2.43 0.28
-11 6 0 10.06 0.16
-11 6 2 1.41 0.16
-11 6 3 7.04 0.16
-11 6 4 2.22 0.23
-11 6 5 0.61 0.16
-11 6 6 1.21 0.11
-11 6 9 8.47 1.01
-11 6 11 0.43 0.42
-11 7 1 9.03 0.27
-11 7 2 0.26 0.11
-11 7 3 0.45 0.11
-11 7 4 3.6 0.14
-11 7 5 6.12 0.33
-11 7 7 9.96 0.19
-11 7 8 2.91 0.14
-11 7 9 1.09 0.37
-11 8 2 14.24 0.27
-11 8 3 20.34 0.62
-11 8 4 1.99 0.16
-11 8 5 1.69 0.13
-11 8 7 5.88 0.23
-11 9 0 5.1 0.18
-11 9 1 5.51 0.17
-11 9 3 0.86 0.23
-11 9 4 0.85 0.14
-11 9 8 2.28 0.41
-11 10 0 0.36 0.1
-11 10 1 6.39 0.17
-11 10 2 3.98 0.12
-11 10 5 10.33 0.18
-11 10 6 0.13 0.09
-11 10 7 2.84 0.31
-11 11 0 1.06 0.1
-11 11 2 0.39 0.34
-11 11 3 1.04 0.12
-11 11 5 1.49 0.31
-11 12 0 0.56 0.26
-11 12 2 0.92 0.1
-11 12 3 0.3 0.11
-11 12 4 2.72 0.11
-11 13 1 1.79 0.21
-11 13 2 0.1 0.1
-10 -16 11 0.89 0.28
-10 -15 8 1.32 0.09
-10 -15 12 2.25 0.31
-10 -15 14 0.97 0.3
-10 -15 15 0.52 0.33
-10 -14 6 0.7 0.26
-10 -14 9 0.57 0.15
-10 -14 11 0.7 0.17
-10 -14 12 0.89 0.11
-10 -14 14 0.67 0.19
-10 -14 17 1.69 0.32
-10 -13 4 2.57 0.33
-10 -13 6 0.19 0.12
-10 -13 9 2.33 0.11
-10 -13 10 0.44 0.11
-10 -13 11 1.57 0.14
-10 -13 12 0.3 0.18
-10 -13 13 1.2 0.12
-10 -13 14 0.43 0.13
-10 -13 16 0.34 0.33
-10 -13 17 1.37 0.1
-10 -12 5 0.35 0.32
-10 -12 7 0.46 0.14
-10 -12 8 1.36 0.33
-10 -12 9 2.84 0.31
-10 -12 10 0.29 0.12
-10 -12 11 0.88 0.1
-10 -12 14 0.39 0.17
-10 -12 15 0.16 0.13
-10 -12 16 0.48 0.22
-10 -11 1 0.36 0.36
-10 -11 3 2.67 0.14
-10 -11 6 1.31 0.15
-10 -11 7 3.67 0.29
-10 -11 8 1.42 0.13
-10 -11 9 0.53 0.48
-10 -11 10 9.41 0.24
-10 -11 11 0.32 0.15
-10 -11 13 0.72 0.12
-10 -11 14 0.61 0.2
-10 -11 16 6.61 0.41
-10 -11 20 0.42 0.33
-10 -10 2 0.18 0.14
-10 -10 3 2.95 0.15
-10 -10 4 0.56 0.42
-10 -10 6 0.83 0.15
-10 -10 8 0.27 0.16
-10 -10 9 0.29 0.15
-10 -10 10 0.38 0.14
-10 -10 11 2.83 0.15
-10 -10 13 1.13 0.14
-10 -10 14 1.32 0.16
-10 -10 15 3.96 0.41
-10 -10 16 0.47 0.2
-10 -9 2 0.34 0.15
-10 -9 3 1.09 0.14
-10 -9 5 1.77 0.18
-10 -9 6 1.66 0.44
-10 -9 7 0.72 0.13
-10 -9 8 17.39 0.34
-10 -9 9 17.73 0.24
-10 -9 10 1.93 0.16
-10 -9 11 2.48 0.15
-10 -9 12 4.6 0.18
-10 -9 13 1.64 0.19
-10 -9 14 0.31 0.13
-10 -9 15 1.75 0.44
-10 -9 16 0.84 0.14
-10 -9 17 0.52 0.17
-10 -9 20 0.54 0.35
-10 -8 1 0.57 0.46
-10 -8 2 0.91 0.17
-10 -8 3 1.1 0.18
-10 -8 7 0.56 0.13
-10 -8 8 1.2 0.14
-10 -8 9 10.66 0.24
-10 -8 10 1.88 0.14
-10 -8 11 5.5 0.18
-10 -8 12 2.25 0.19
-10 -8 13 11.31 0.17
-10 -8 20 2.25 0.39
-10 -7 4 6.01 0.46
-10 -7 6 1.66 0.15
-10 -7 7 1.36 0.13
-10 -7 8 4.24 0.2
-10 -7 9 6.31 0.17
-10 -7 10 2.81 0.18
-10 -7 11 2.12 0.15
-10 -7 12 0.57 0.18
-10 -7 13 1.4 0.11
-10 -7 14 5.38 0.11
-10 -7 15 3.44 0.13
-10 -7 16 1.02 0.14
-10 -7 18 1.69 0.21
-10 -7 19 0.36 0.13
-10 -6 4 4.22 0.42
-10 -6 7 2.43 0.43
-10 -6 8 1.27 0.45
-10 -6 9 0.78 0.18
-10 -6 10 0.53 0.17
-10 -6 11 1.17 0.11
-10 -6 12 0.64 0.11
-10 -6 13 0.48 0.1
-10 -6 15 2.78 0.13
-10 -6 17 6.77 0.41
-10 -6 18 0.15 0.1
-10 -6 19 6.54 0.36
-10 -5 4 3.13 0.41
-10 -5 5 0.2 0.17
-10 -5 6 4.47 0.18
-10 -5 8 2.52 0.43
-10 -5 10 0.46 0.16
-10 -5 11 2.75 0.14
-10 -5 12 2.23 0.14
-10 -5 14 0.48 0.13
-10 -5 15 6.66 0.15
-10 -5 16 3.41 0.14
-10 -5 18 3.9 0.12
-10 -5 19 1.75 0.43
-10 -4 4 2.86 0.43
-10 -4 5 1.51 0.17
-10 -4 6 0.69 0.43
-10 -4 7 10.9 0.85
-10 -4 8 5.47 0.22
-10 -4 9 0.6 0.53
-10 -4 10 0.3 0.17
-10 -4 11 10.51 0.15
-10 -4 13 7.64 0.21
-10 -4 14 6.29 0.15
-10 -4 16 2.58 0.15
-10 -4 17 6.47 0.22
-10 -4 18 0.31 0.2
-10 -4 19 1.02 0.14
-10 -3 5 2.26 0.42
-10 -3 6 0.13 0.13
-10 -3 7 3.7 0.17
-10 -3 8 6.35 0.22
-10 -3 9 7.51 0.19
-10 -3 10 13.1 0.24
-10 -3 12 6.9 0.15
-10 -3 13 4.14 0.13
-10 -3 14 2.11 0.15
-10 -3 15 0.25 0.15
-10 -3 16 0.75 0.37
-10 -3 17 6.43 0.44
-10 -3 18 0.27 0.12
-10 -2 3 0.56 0.42
-10 -2 4 10.78 0.22
-10 -2 5 2.45 0.17
-10 -2 6 19.17 0.53
-10 -2 7 31.42 0.36
-10 -2 8 2.35 0.17
-10 -2 9 0.21 0.17
-10 -2 10 12.46 0.2
-10 -2 11 13.51 0.24
-10 -2 12 0.28 0.15
-10 -2 14 2.07 0.16
-10 -2 15 6.74 0.18
-10 -2 18 0.15 0.11
-10 -1 2 0.46 0.42
-10 -1 3 16.91 0.55
-10 -1 4 5.19 0.26
-10 -1 5 7.3 0.29
-10 -1 7 9.73 0.18
-10 -1 8 8.25 0.16
-10 -1 9 19.59 0.3
-10 -1 11 4.21 0.13
-10 -1 12 0.93 0.28
-10 -1 14 1.37 0.15
-10 -1 16 3.11 0.35
-10 -1 19 1.02 0.23
-10 0 1 13.11 0.51
-10 0 2 6.97 0.2
-10 0 3 0.83 0.17
-10 0 5 10.88 0.22
-10 0 6 7.39 0.6
-10 0 7 0.23 0.2
-10 0 8 3.91 0.21
-10 0 9 24.85 0.28
-10 0 10 9.13 0.23
-10 0 11 6.91 0.16
-10 0 13 4.1 0.14
-10 0 14 0.81 0.15
-10 0 16 0.96 0.31
-10 0 17 2.77 0.32
-10 1 0 1.41 0.2
-10 1 1 33.56 0.71
-10 1 4 0.82 0.16
-10 1 6 1.51 0.21
-10 1 7 0.74 0.25
-10 1 10 10.73 0.17
-10 1 11 5.52 0.27
-10 1 13 0.17 0.16
-10 1 14 3.95 0.38
-10 1 17 1.46 0.28
-10 2 0 6.25 0.19
-10 2 1 23.87 0.66
-10 2 2 64.5 0.6
-10 2 5 8.03 0.3
-10 2 6 1.85 0.27
-10 2 7 4.42 0.35
-10 2 8 10.69 0.23
-10 2 9 1.26 0.12
-10 2 10 0.87 0.23
-10 2 11 0.47 0.18
-10 2 16 0.55 0.28
-10 2 17 1.05 0.26
-10 3 0 2.02 0.21
-10 3 1 1.63 0.22
-10 3 5 2.19 0.17
-10 3 6 2.05 0.17
-10 3 7 40.79 0.79
-10 3 8 0.14 0.12
-10 3 9 10.71 0.17
-10 3 10 1.49 0.11
-10 3 13 0.85 0.35
-10 3 14 0.58 0.34
-10 3 15 3.29 0.31
-10 4 0 40.84 0.67
-10 4 1 26.39 0.35
-10 4 3 15.52 0.34
-10 4 4 24.03 0.32
-10 4 5 7.71 0.2
-10 4 6 5.16 0.19
-10 4 7 0.81 0.12
-10 4 8 3.09 0.11
-10 4 9 3.27 0.15
-10 4 11 1.12 0.39
-10 4 12 2.83 0.37
-10 4 13 2.82 0.35
-10 4 14 6.84 0.37
-10 5 1 9.16 0.22
-10 5 2 0.41 0.25
-10 5 3 14.15 0.25
-10 5 4 4.2 0.19
-10 5 5 16.57 0.18
-10 5 6 1.22 0.1
-10 5 7 0.87 0.13
-10 5 9 7.22 0.38
-10 5 10 2.86 0.53
-10 5 11 1.41 0.38
-10 5 12 8.53 0.5
-10 6 0 0.49 0.23
-10 6 1 7.9 0.28
-10 6 2 5.51 0.2
-10 6 5 1.52 0.11
-10 6 6 12.96 0.18
-10 6 7 4.47 0.19
-10 6 8 1.05 0.17
-10 6 9 4.94 0.15
-10 6 10 8.83 0.55
-10 6 11 0.23 0.14
-10 6 12 2.49 0.43
-10 7 1 9.89 0.19
-10 7 3 1.51 0.12
-10 7 4 7.86 0.14
-10 7 5 6.88 0.14
-10 7 6 0.21 0.15
-10 7 7 2.88 0.14
-10 7 8 0.28 0.14
-10 7 9 8.69 0.55
-10 7 10 0.54 0.49
-10 8 0 0.56 0.1
-10 8 1 6.03 0.17
-10 8 2 4.02 0.11
-10 8 3 0.21 0.13
-10 8 4 1.21 0.12
-10 8 7 7.75 0.15
-10 8 8 12.35 0.58
-10 8 12 0.47 0.34
-10 9 0 1.88 0.17
-10 9 1 0.85 0.11
-10 9 2 0.72 0.14
-10 9 3 11.27 0.17
-10 9 5 6.34 0.44
-10 9 6 8.32 0.15
-10 9 8 0.93 0.46
-10 10 0 6.93 0.19
-10 10 1 22.41 0.4
-10 10 2 8.17 0.16
-10 10 3 0.3 0.16
-10 10 4 1.7 0.18
-10 10 5 5.87 0.41
-10 10 6 1.12 0.27
-10 10 7 0.98 0.34
-10 11 2 0.69 0.14
-10 11 3 2.97 0.12
-10 11 4 0.93 0.13
-10 11 5 0.23 0.14
-10 11 6 0.93 0.34
-10 12 0 6.35 0.36
-10 12 1 0.4 0.36
-10 12 2 0.19 0.13
-10 12 3 7.85 0.4
-10 12 4 2.25 0.11
-10 12 5 1.55 0.31
-10 12 6 1.11 0.11
-10 13 1 0.96 0.34
-10 13 2 0.77 0.15
-10 13 3 1.41 0.32
-10 14 0 0.7 0.3
-10 14 2 2.83 0.29
-9 -16 8 1.18 0.29
-9 -16 9 0.73 0.09
-9 -16 11 0.22 0.08
-9 -16 15 0.14 0.11
-9 -16 17 0.99 0.27
-9 -15 4 0.86 0.29
-9 -15 5 0.55 0.09
-9 -15 6 0.52 0.34
-9 -15 7 6.47 0.37
-9 -15 8 2.94 0.17
-9 -15 10 0.39 0.25
-9 -15 12 0.15 0.1
-9 -15 17 0.11 0.08
-9 -14 3 2.03 0.32
-9 -14 6 0.71 0.37
-9 -14 7 0.59 0.39
-9 -14 9 1.73 0.39
-9 -14 10 0.2 0.12
-9 -14 13 0.32 0.13
-9 -14 14 1.22 0.16
-9 -14 17 0.32 0.19
-9 -13 1 0.44 0.32
-9 -13 2 0.58 0.33
-9 -13 6 3.05 0.15
-9 -13 7 3.47 0.42
-9 -13 8 1.15 0.15
-9 -13 9 0.15 0.12
-9 -13 10 5.47 0.12
-9 -13 11 1.48 0.13
-9 -13 12 1.54 0.16
-9 -13 13 4.6 0.19
-9 -13 17 1.13 0.38
-9 -12 2 0.73 0.36
-9 -12 4 1.39 0.15
-9 -12 6 0.51 0.16
-9 -12 7 0.21 0.16
-9 -12 8 2.1 0.13
-9 -12 9 2.52 0.16
-9 -12 10 1.3 0.14
-9 -12 11 0.88 0.14
-9 -12 12 0.99 0.12
-9 -12 13 2.25 0.15
-9 -12 14 0.19 0.11
-9 -12 15 4.69 0.46
-9 -12 16 1.71 0.41
-9 -11 2 5.03 0.44
-9 -11 3 1.14 0.15
-9 -11 4 0.85 0.12
-9 -11 7 5.68 0.14
-9 -11 8 0.1 0.1
-9 -11 9 8.42 0.13
-9 -11 11 2.35 0.1
-9 -11 12 1.99 0.12
-9 -11 13 0.5 0.11
-9 -11 14 0.86 0.17
-9 -11 15 1.59 0.13
-9 -11 16 9.96 0.15
-9 -10 1 0.56 0.43
-9 -10 3 0.58 0.14
-9 -10 6 7 0.19
-9 -10 7 3.04 0.12
-9 -10 8 1.46 0.11
-9 -10 9 1.11 0.12
-9 -10 10 1.64 0.12
-9 -10 11 0.83 0.13
-9 -10 14 1.17 0.13
-9 -10 15 3.12 0.14
-9 -10 16 1.28 0.55
-9 -10 17 0.24 0.15
-9 -10 18 0.58 0.47
-9 -9 1 5.8 0.15
-9 -9 2 2.84 0.15
-9 -9 3 1.33 0.15
-9 -9 4 1 0.13
-9 -9 5 8.21 0.17
-9 -9 6 8.73 0.15
-9 -9 8 17.37 0.23
-9 -9 9 4.53 0.15
-9 -9 11 0.47 0.16
-9 -9 12 3.4 0.15
-9 -9 13 1.57 0.17
-9 -9 14 9.44 0.24
-9 -9 15 8.48 0.22
-9 -9 18 1.62 0.48
-9 -8 1 4.6 0.15
-9 -8 2 2.89 0.16
-9 -8 4 0.54 0.17
-9 -8 5 1.16 0.14
-9 -8 7 1.32 0.18
-9 -8 8 0.93 0.16
-9 -8 9 9.2 0.2
-9 -8 11 3.39 0.34
-9 -8 12 0.3 0.11
-9 -8 13 14.83 0.21
-9 -8 14 0.79 0.1
-9 -8 15 1.02 0.14
-9 -8 16 0.55 0.11
-9 -8 18 1.09 0.54
-9 -7 1 2.28 0.19
-9 -7 2 0.52 0.18
-9 -7 3 1.19 0.18
-9 -7 4 7.07 0.45
-9 -7 5 1.56 0.17
-9 -7 6 15.69 0.24
-9 -7 7 48.31 0.57
-9 -7 8 10.65 0.22
-9 -7 9 4.04 0.2
-9 -7 10 12.53 0.28
-9 -7 11 0.89 0.16
-9 -7 12 0.91 0.16
-9 -7 13 7.45 0.26
-9 -7 14 0.38 0.1
-9 -7 15 3.67 0.15
-9 -7 16 0.21 0.13
-9 -7 17 0.63 0.14
-9 -7 18 1.36 0.33
-9 -7 19 0.34 0.14
-9 -6 1 1.69 0.43
-9 -6 5 4.04 0.21
-9 -6 6 9.37 0.48
-9 -6 7 9.96 0.22
-9 -6 8 18.31 0.48
-9 -6 9 4.62 0.18
-9 -6 10 21.32 0.71
-9 -6 11 17.92 0.27
-9 -6 12 5.24 0.18
-9 -6 15 0.17 0.17
-9 -6 18 3.47 0.22
-9 -5 3 6.47 0.41
-9 -5 4 3.06 0.37
-9 -5 5 0.27 0.16
-9 -5 6 5.93 0.38
-9 -5 7 21.07 0.29
-9 -5 8 5.94 0.19
-9 -5 9 6.11 0.26
-9 -5 10 0.39 0.29
-9 -5 11 8.75 0.2
-9 -5 12 4.33 0.25
-9 -5 13 9.18 0.2
-9 -5 14 6.63 0.18
-9 -5 16 2.48 0.22
-9 -5 17 0.88 0.12
-9 -5 18 4.53 0.16
-9 -5 19 0.26 0.11
-9 -5 20 0.55 0.11
-9 -4 3 0.5 0.37
-9 -4 5 1.03 0.23
-9 -4 6 6.18 0.22
-9 -4 8 4.36 0.17
-9 -4 9 0.7 0.31
-9 -4 11 2.74 0.17
-9 -4 12 1.58 0.2
-9 -4 13 3.64 0.4
-9 -4 14 0.21 0.17
-9 -4 15 11.06 0.49
-9 -4 16 2.96 0.16
-9 -4 17 17.22 0.57
-9 -3 4 11.42 0.41
-9 -3 5 0.49 0.24
-9 -3 6 3.11 0.14
-9 -3 7 2.75 0.24
-9 -3 8 0.98 0.14
-9 -3 9 9.95 0.17
-9 -3 10 2.94 0.19
-9 -3 13 14.09 0.21
-9 -3 14 10.21 0.18
-9 -3 16 5.82 0.29
-9 -3 17 7.47 0.17
-9 -3 18 0.49 0.48
-9 -2 3 4.08 0.32
-9 -2 4 8.27 0.34
-9 -2 5 11.68 0.17
-9 -2 6 11.88 0.2
-9 -2 8 3.93 0.14
-9 -2 9 14.85 0.23
-9 -2 11 8.41 0.19
-9 -2 12 17.28 0.61
-9 -2 14 13.42 0.2
-9 -2 15 6.33 0.15
-9 -2 16 1.99 0.15
-9 -2 17 2.02 0.35
-9 -2 18 0.69 0.33
-9 -1 2 2.46 0.24
-9 -1 3 5.2 0.18
-9 -1 5 8.74 0.21
-9 -1 6 7.87 0.16
-9 -1 7 8.34 0.21
-9 -1 8 22.63 0.28
-9 -1 9 9.18 0.19
-9 -1 10 21.26 0.25
-9 -1 11 2.01 0.13
-9 -1 12 8.79 0.45
-9 -1 15 18.34 0.23
-9 0 1 1.41 0.36
-9 0 2 9.91 0.46
-9 0 3 14.5 0.24
-9 0 4 9.49 0.21
-9 0 5 67.26 0.67
-9 0 7 1.49 0.13
-9 0 8 8.52 0.19
-9 0 9 29.58 0.36
-9 0 10 5.99 0.15
-9 0 12 1.48 0.14
-9 0 13 9.7 0.34
-9 0 14 4.08 0.33
-9 0 15 0.61 0.44
-9 1 0 15.75 0.24
-9 1 1 26.68 0.37
-9 1 2 0.21 0.19
-9 1 3 16.44 0.21
-9 1 4 0.35 0.13
-9 1 5 15.74 0.36
-9 1 6 8.32 0.29
-9 1 7 40.7 0.61
-9 1 8 2.1 0.23
-9 1 9 3.56 0.24
-9 1 10 3.12 0.23
-9 1 12 2.25 0.19
-9 1 14 3.42 0.39
-9 1 16 3.39 0.35
-9 2 0 19 0.27
-9 2 1 1.46 0.16
-9 2 2 1.43 0.12
-9 2 3 7.63 0.29
-9 2 4 24.53 0.58
-9 2 5 0.29 0.26
-9 2 6 0.35 0.16
-9 2 7 25.72 0.36
-9 2 8 39.76 0.5
-9 2 9 7.86 0.17
-9 2 10 0.17 0.14
-9 2 11 6.06 0.18
-9 2 12 4.76 0.17
-9 2 13 0.54 0.16
-9 2 14 4.1 0.39
-9 2 15 2.84 0.35
-9 2 16 1.96 0.32
-9 3 0 16.16 0.22
-9 3 1 9.92 0.38
-9 3 2 8.14 0.22
-9 3 3 0.61 0.22
-9 3 4 0.73 0.22
-9 3 6 0.29 0.15
-9 3 8 10.88 0.36
-9 3 9 8.88 0.19
-9 3 10 2.32 0.15
-9 3 12 4.37 0.4
-9 3 14 2.43 0.36
-9 3 15 0.74 0.33
-9 3 16 4.73 0.32
-9 4 0 89.78 0.79
-9 4 1 7.8 0.26
-9 4 2 0.31 0.15
-9 4 3 5.77 0.17
-9 4 4 9.17 0.55
-9 4 5 6.52 0.2
-9 4 6 7.55 0.36
-9 4 7 6.39 0.36
-9 4 8 0.44 0.43
-9 4 9 1.49 0.17
-9 4 11 1.08 0.19
-9 4 13 2.24 0.36
-9 4 14 4.97 0.36
-9 4 15 1.48 0.3
-9 5 0 0.32 0.12
-9 5 1 1.43 0.15
-9 5 3 2.84 0.19
-9 5 5 52.52 0.59
-9 5 6 4.14 0.34
-9 5 7 8.69 0.45
-9 5 8 10.25 0.18
-9 5 9 2.68 0.47
-9 5 11 0.54 0.17
-9 5 12 2.09 0.19
-9 5 13 3.61 0.36
-9 5 14 1.9 0.42
-9 5 15 1.19 0.27
-9 6 0 0.71 0.18
-9 6 1 6.97 0.16
-9 6 2 42.55 0.53
-9 6 3 0.27 0.21
-9 6 4 14.01 0.33
-9 6 5 1.85 0.38
-9 6 6 1.23 0.4
-9 6 7 5.24 0.19
-9 6 8 1.98 0.18
-9 6 10 4.09 0.39
-9 6 11 2.34 0.16
-9 7 0 1.67 0.16
-9 7 1 12.64 0.22
-9 7 2 18.05 0.38
-9 7 3 11.37 0.37
-9 7 4 9.77 0.47
-9 7 6 1.21 0.13
-9 7 7 4.06 0.16
-9 7 8 8.5 0.23
-9 7 10 10.89 0.59
-9 7 11 1.99 0.19
-9 7 12 1.53 0.12
-9 7 13 0.16 0.11
-9 8 0 8.87 0.35
-9 8 1 1.85 0.17
-9 8 3 3.75 0.15
-9 8 4 6.61 0.17
-9 8 5 8.54 0.17
-9 8 6 2.51 0.14
-9 8 7 1.81 0.17
-9 8 8 13.38 0.55
-9 8 10 2.01 0.49
-9 8 11 2.13 0.15
-9 8 12 1.31 0.38
-9 9 0 1.73 0.25
-9 9 1 2.2 0.29
-9 9 2 2.01 0.15
-9 9 3 12.76 0.26
-9 9 4 0.17 0.17
-9 9 5 2.81 0.18
-9 9 7 9.75 0.24
-9 9 8 2.61 0.5
-9 9 9 10.81 0.55
-9 9 11 0.58 0.39
-9 10 0 4.95 0.23
-9 10 1 0.25 0.14
-9 10 2 0.84 0.14
-9 10 4 0.79 0.14
-9 10 5 4.03 0.17
-9 10 6 15.93 0.24
-9 10 7 0.72 0.49
-9 10 8 0.61 0.46
-9 10 9 2.72 0.44
-9 11 0 0.24 0.14
-9 11 1 12.68 0.19
-9 11 3 2.18 0.16
-9 11 4 11.88 0.21
-9 11 5 0.16 0.15
-9 11 6 3.59 0.49
-9 11 9 3.29 0.39
-9 12 0 13.5 0.51
-9 12 1 0.76 0.16
-9 12 2 4.59 0.41
-9 12 3 2.59 0.38
-9 12 4 3.5 0.37
-9 12 6 1.73 0.43
-9 12 7 1.6 0.4
-9 13 1 1.9 0.14
-9 13 5 4.11 0.31
-9 14 0 0.48 0.33
-9 14 2 4.63 0.13
-9 15 1 0.61 0.3
-8 -18 14 0.76 0.38
-8 -18 15 0.73 0.26
-8 -17 11 1.71 0.33
-8 -17 14 0.88 0.11
-8 -17 16 1.16 0.29
-8 -17 17 0.21 0.21
-8 -17 18 0.44 0.25
-8 -16 11 0.41 0.13
-8 -16 12 0.12 0.12
-8 -16 13 4.14 0.37
-8 -16 14 3.57 0.15
-8 -15 3 3.94 0.33
-8 -15 4 0.81 0.34
-8 -15 6 0.89 0.31
-8 -15 7 4.89 0.25
-8 -15 8 0.51 0.11
-8 -15 10 0.36 0.15
-8 -15 13 1.54 0.11
-8 -14 2 0.64 0.11
-8 -14 3 2.36 0.36
-8 -14 6 1.66 0.42
-8 -14 7 3.96 0.3
-8 -14 9 0.91 0.19
-8 -14 12 0.49 0.11
-8 -14 15 2.47 0.17
-8 -13 1 0.27 0.22
-8 -13 2 4.77 0.42
-8 -13 3 0.5 0.14
-8 -13 5 11.4 0.18
-8 -13 6 17.94 0.5
-8 -13 8 0.34 0.13
-8 -13 10 1.46 0.12
-8 -13 11 0.35 0.11
-8 -13 14 0.25 0.16
-8 -13 15 0.46 0.15
-8 -13 16 0.56 0.4
-8 -13 20 0.3 0.31
-8 -12 1 3.99 0.15
-8 -12 2 0.82 0.24
-8 -12 4 1.19 0.2
-8 -12 5 3.9 0.23
-8 -12 7 0.93 0.15
-8 -12 8 4 0.12
-8 -12 11 0.76 0.1
-8 -12 12 3.25 0.12
-8 -12 15 2.09 0.16
-8 -12 16 1.46 0.4
-8 -12 18 1.79 0.37
-8 -12 19 0.17 0.12
-8 -12 21 4.35 0.28
-8 -11 2 0.4 0.12
-8 -11 3 0.69 0.12
-8 -11 4 3.58 0.16
-8 -11 5 11.33 0.23
-8 -11 6 6.86 0.16
-8 -11 7 1.12 0.11
-8 -11 8 7.74 0.14
-8 -11 9 9.18 0.15
-8 -11 10 0.37 0.11
-8 -11 11 10.95 0.14
-8 -11 12 1.38 0.1
-8 -11 13 0.14 0.1
-8 -11 15 1.28 0.14
-8 -11 16 6.15 0.44
-8 -11 19 0.96 0.44
-8 -11 20 0.73 0.12
-8 -10 1 0.14 0.15
-8 -10 2 2.54 0.13
-8 -10 3 0.72 0.14
-8 -10 6 9.91 0.18
-8 -10 7 3.34 0.24
-8 -10 8 0.59 0.17
-8 -10 9 4.3 0.14
-8 -10 10 0.28 0.13
-8 -10 11 12.98 0.31
-8 -10 12 0.67 0.14
-8 -10 13 5.91 0.13
-8 -10 14 8.57 0.12
-8 -10 15 1.03 0.44
-8 -9 1 7.91 0.24
-8 -9 2 1.94 0.15
-8 -9 4 2.84 0.19
-8 -9 5 7.52 0.2
-8 -9 6 6.46 0.2
-8 -9 7 23.72 0.34
-8 -9 8 2.75 0.14
-8 -9 9 3.03 0.14
-8 -9 10 7.05 0.35
-8 -9 11 0.91 0.13
-8 -9 12 2.61 0.17
-8 -9 13 0.31 0.2
-8 -9 14 25.41 0.25
-8 -9 15 2.84 0.15
-8 -9 20 1.42 0.45
-8 -9 22 1.29 0.33
-8 -8 1 0.73 0.43
-8 -8 2 0.95 0.34
-8 -8 4 17.19 0.26
-8 -8 5 0.65 0.13
-8 -8 6 9.56 0.22
-8 -8 7 0.45 0.13
-8 -8 8 7.36 0.18
-8 -8 9 0.71 0.13
-8 -8 11 1.35 0.16
-8 -8 12 1.42 0.24
-8 -8 13 9.4 0.27
-8 -8 14 6.7 0.46
-8 -8 16 1.11 0.17
-8 -8 17 0.58 0.2
-8 -8 19 2.96 0.5
-8 -7 1 5.96 0.19
-8 -7 3 9.32 0.45
-8 -7 4 37.11 0.59
-8 -7 5 0.2 0.15
-8 -7 6 16.15 0.23
-8 -7 7 18.2 0.33
-8 -7 8 0.63 0.15
-8 -7 10 10.83 0.2
-8 -7 11 2.47 0.25
-8 -7 12 6.51 0.18
-8 -7 13 26.94 0.3
-8 -7 14 1.97 0.39
-8 -7 15 1.43 0.13
-8 -7 16 1.36 0.14
-8 -7 18 0.75 0.53
-8 -6 3 3.83 0.26
-8 -6 4 0.4 0.12
-8 -6 5 0.56 0.16
-8 -6 6 13.26 0.23
-8 -6 7 15.83 0.25
-8 -6 8 4.44 0.17
-8 -6 9 4.49 0.4
-8 -6 10 2.61 0.2
-8 -6 11 35.69 0.4
-8 -6 13 2.26 0.26
-8 -6 14 2.13 0.37
-8 -6 16 4.44 0.15
-8 -6 17 0.29 0.13
-8 -6 20 1.05 0.45
-8 -5 1 0.3 0.16
-8 -5 2 14.97 0.36
-8 -5 3 0.29 0.16
-8 -5 4 5.73 0.18
-8 -5 5 90.68 0.87
-8 -5 6 37.58 0.4
-8 -5 7 10.21 0.17
-8 -5 8 22.63 0.35
-8 -5 10 8.93 0.19
-8 -5 11 15.49 0.42
-8 -5 12 0.42 0.15
-8 -5 13 7.12 0.3
-8 -5 14 0.47 0.39
-8 -5 15 5.44 0.19
-8 -5 16 1.65 0.14
-8 -5 17 0.62 0.13
-8 -5 18 4.31 0.6
-8 -5 19 0.96 0.36
-8 -4 2 0.84 0.34
-8 -4 3 17.5 0.3
-8 -4 4 20.19 0.27
-8 -4 5 0.15 0.16
-8 -4 6 57.46 0.5
-8 -4 7 0.16 0.11
-8 -4 8 75.62 0.66
-8 -4 9 10.1 0.17
-8 -4 10 31.6 0.32
-8 -4 13 0.51 0.2
-8 -4 16 2.39 0.14
-8 -4 17 5.91 0.17
-8 -4 18 0.68 0.52
-8 -3 4 2.25 0.14
-8 -3 5 50.64 0.53
-8 -3 6 19.24 0.23
-8 -3 7 14.49 0.19
-8 -3 9 22.84 0.25
-8 -3 10 0.62 0.13
-8 -3 11 14.07 0.32
-8 -3 12 24.02 0.46
-8 -3 14 1.27 0.38
-8 -3 15 1.63 0.14
-8 -3 16 11.19 0.18
-8 -3 17 1.37 0.18
-8 -3 18 0.9 0.37
-8 -3 19 1.14 0.34
-8 -2 2 0.8 0.33
-8 -2 4 13.29 0.18
-8 -2 5 0.8 0.12
-8 -2 6 7.17 0.17
-8 -2 7 1.07 0.19
-8 -2 8 2.81 0.14
-8 -2 9 7.46 0.16
-8 -2 10 4.37 0.17
-8 -2 11 2.09 0.17
-8 -2 12 2.27 0.35
-8 -2 13 7.18 0.47
-8 -2 14 24.79 0.63
-8 -2 15 20.02 0.24
-8 -2 16 3.76 0.17
-8 -2 18 0.19 0.14
-8 -1 1 5.57 0.35
-8 -1 2 18.33 0.28
-8 -1 4 0.39 0.11
-8 -1 5 8.87 0.32
-8 -1 7 24.52 0.25
-8 -1 8 0.37 0.14
-8 -1 9 1.46 0.12
-8 -1 10 2.18 0.13
-8 -1 11 19.34 0.93
-8 -1 12 23.72 1.14
-8 -1 14 3.28 0.22
-8 -1 15 26.64 0.33
-8 0 1 5.65 0.25
-8 0 2 23.82 0.29
-8 0 3 7.35 0.2
-8 0 4 15.93 0.26
-8 0 5 4.11 0.13
-8 0 6 8.99 0.17
-8 0 7 13.8 0.2
-8 0 8 0.29 0.19
-8 0 9 6.32 0.15
-8 0 10 31.85 0.63
-8 0 11 6.7 0.65
-8 0 12 26.37 0.87
-8 0 13 0.37 0.17
-8 0 14 9.95 0.21
-8 0 15 1.09 0.42
-8 0 16 4.1 0.38
-8 0 17 0.36 0.35
-8 0 18 2.73 0.31
-8 1 0 23.62 0.29
-8 1 1 5.49 0.29
-8 1 3 16.26 0.2
-8 1 4 13.2 0.42
-8 1 5 8.32 0.2
-8 1 6 20.74 0.24
-8 1 7 51.21 0.46
-8 1 8 27.47 0.36
-8 1 9 0.53 0.12
-8 1 10 19.51 0.23
-8 1 11 3.06 0.38
-8 1 12 4.97 0.41
-8 1 13 28.72 0.51
-8 1 14 3.25 0.39
-8 1 17 0.41 0.33
-8 2 0 6.68 0.15
-8 2 1 33.18 0.38
-8 2 2 0.38 0.17
-8 2 3 82.69 0.72
-8 2 4 14.64 0.23
-8 2 5 5.1 0.17
-8 2 6 1.03 0.12
-8 2 7 31.94 0.42
-8 2 8 31.3 0.37
-8 2 10 0.67 0.2
-8 2 11 7.99 0.44
-8 2 12 14.06 0.26
-8 2 15 7.55 0.42
-8 2 17 0.48 0.3
-8 3 0 3.38 0.15
-8 3 1 18.79 0.28
-8 3 2 8.07 0.22
-8 3 3 19.74 0.29
-8 3 4 8.34 0.25
-8 3 5 53.6 0.55
-8 3 6 14.46 0.23
-8 3 7 3.79 0.14
-8 3 8 4.45 0.13
-8 3 9 1.11 0.15
-8 3 10 2.5 0.21
-8 3 12 1.51 0.16
-8 3 13 1.46 0.16
-8 3 14 6.69 0.44
-8 3 16 4.86 0.34
-8 4 0 3.63 0.16
-8 4 1 1.32 0.12
-8 4 2 44.32 0.41
-8 4 3 0.35 0.14
-8 4 5 11.31 0.24
-8 4 6 87.66 1.39
-8 4 7 1.52 0.16
-8 4 8 4.17 0.19
-8 4 9 3.91 0.22
-8 4 10 13.5 0.49
-8 4 11 0.51 0.16
-8 4 12 7.74 0.19
-8 4 13 0.89 0.43
-8 4 14 6.73 0.4
-8 4 17 8.74 0.33
-8 5 0 19.23 0.25
-8 5 2 0.18 0.11
-8 5 3 0.77 0.17
-8 5 4 1.13 0.55
-8 5 5 0.32 0.15
-8 5 6 13.06 0.34
-8 5 7 7.34 0.24
-8 5 8 8.85 0.21
-8 5 10 1.92 0.19
-8 5 11 21.4 0.28
-8 5 12 1.79 0.17
-8 5 15 3.75 0.4
-8 5 16 2.36 0.27
-8 6 1 1.34 0.12
-8 6 2 17.48 0.21
-8 6 3 4.42 0.48
-8 6 4 2.06 0.2
-8 6 5 16.17 0.35
-8 6 6 0.31 0.21
-8 6 7 2.38 0.22
-8 6 9 0.68 0.21
-8 6 13 0.4 0.15
-8 6 14 2.46 0.32
-8 6 15 2.43 0.1
-8 7 1 2.3 0.13
-8 7 2 5.94 0.23
-8 7 3 43.78 1.09
-8 7 4 17 0.31
-8 7 5 1.88 0.28
-8 7 6 19.84 0.55
-8 7 10 3.5 0.55
-8 7 11 0.89 0.4
-8 7 12 4.12 0.15
-8 7 13 1.72 0.3
-8 7 14 0.31 0.1
-8 8 0 41.33 0.61
-8 8 1 5.08 0.17
-8 8 2 21.3 0.34
-8 8 3 0.88 0.34
-8 8 5 4.63 0.41
-8 8 6 5.28 0.19
-8 8 9 1.95 0.4
-8 8 10 16.61 0.82
-8 8 11 0.25 0.11
-8 8 14 2.25 0.32
-8 9 0 32.46 0.69
-8 9 1 0.91 0.21
-8 9 2 20.28 0.57
-8 9 3 0.51 0.38
-8 9 4 1.28 0.15
-8 9 5 0.6 0.46
-8 9 6 12.93 0.23
-8 9 7 0.81 0.19
-8 9 8 7.86 0.58
-8 9 9 6.47 0.55
-8 9 10 1.81 0.11
-8 10 1 3.11 0.45
-8 10 2 1.07 0.15
-8 10 3 9.03 0.37
-8 10 4 5.55 0.16
-8 10 6 9.85 0.23
-8 10 7 1.79 0.54
-8 10 9 2.26 0.38
-8 10 10 1.44 0.16
-8 10 11 1.38 0.37
-8 11 1 13.32 0.47
-8 11 3 0.84 0.17
-8 11 4 0.42 0.16
-8 11 5 5.8 0.2
-8 11 7 8.08 0.55
-8 11 8 0.51 0.13
-8 12 0 0.34 0.14
-8 12 1 1.87 0.17
-8 12 2 0.9 0.17
-8 12 3 0.93 0.22
-8 12 4 13.52 0.67
-8 12 5 3.87 0.52
-8 12 8 0.75 0.3
-8 13 0 0.82 0.41
-8 13 2 9.98 0.68
-8 13 3 2.63 0.37
-8 13 5 0.47 0.45
-8 14 2 3.75 0.46
-8 14 3 0.21 0.13
-8 14 4 1.64 0.32
-8 14 5 0.66 0.37
-8 15 0 2.84 0.34
-8 15 3 2.06 0.3
-8 16 0 5.01 0.33
-7 -18 10 2.21 0.31
-7 -18 13 0.37 0.33
-7 -18 16 0.6 0.29
-7 -17 9 0.39 0.11
-7 -17 10 0.2 0.12
-7 -17 14 0.21 0.09
-7 -17 16 0.15 0.11
-7 -17 17 0.94 0.33
-7 -16 2 0.35 0.29
-7 -16 5 0.59 0.35
-7 -16 6 0.85 0.12
-7 -16 8 0.51 0.22
-7 -16 9 0.59 0.11
-7 -16 10 0.48 0.2
-7 -16 11 1.55 0.31
-7 -16 12 2.24 0.27
-7 -16 13 3.59 0.14
-7 -16 14 1.55 0.18
-7 -16 17 1.83 0.33
-7 -15 1 0.56 0.31
-7 -15 3 0.63 0.36
-7 -15 8 1.09 0.13
-7 -15 9 3.76 0.24
-7 -15 11 0.44 0.13
-7 -15 12 1.93 0.2
-7 -15 13 3.24 0.16
-7 -15 14 2.84 0.24
-7 -15 19 0.64 0.3
-7 -14 3 1.11 0.26
-7 -14 6 0.45 0.12
-7 -14 7 1.18 0.18
-7 -14 9 1.42 0.12
-7 -14 11 8.69 0.17
-7 -14 12 16.07 0.22
-7 -14 13 3.58 0.29
-7 -14 14 1.02 0.13
-7 -14 15 4.04 0.34
-7 -14 16 0.7 0.28
-7 -14 17 0.83 0.37
-7 -14 18 1.31 0.34
-7 -13 1 4.46 0.35
-7 -13 2 5.38 0.17
-7 -13 3 0.22 0.17
-7 -13 4 0.22 0.18
-7 -13 5 11.67 0.24
-7 -13 7 1.38 0.11
-7 -13 8 0.97 0.11
-7 -13 11 2.82 0.15
-7 -13 12 1.19 0.44
-7 -13 13 0.54 0.18
-7 -13 14 0.34 0.28
-7 -13 15 0.28 0.16
-7 -13 21 0.29 0.1
-7 -12 1 4.58 0.2
-7 -12 2 0.45 0.22
-7 -12 4 2.04 0.13
-7 -12 5 13.79 0.21
-7 -12 7 1.39 0.41
-7 -12 10 1.49 0.28
-7 -12 11 2.58 0.13
-7 -12 13 3.63 0.15
-7 -12 14 4.57 0.15
-7 -12 16 0.17 0.17
-7 -12 17 3.96 0.41
-7 -12 21 7.14 0.35
-7 -11 2 1.22 0.13
-7 -11 3 8.05 0.16
-7 -11 4 56.42 0.59
-7 -11 5 1.97 0.41
-7 -11 6 0.24 0.15
-7 -11 8 4.91 0.19
-7 -11 9 0.72 0.18
-7 -11 11 0.47 0.17
-7 -11 12 0.2 0.14
-7 -11 14 1.22 0.19
-7 -11 16 2.91 0.44
-7 -11 17 1.61 0.18
-7 -11 18 0.9 0.51
-7 -10 1 0.72 0.11
-7 -10 2 0.48 0.4
-7 -10 3 12.96 0.22
-7 -10 4 0.84 0.17
-7 -10 6 12.46 0.19
-7 -10 7 0.39 0.13
-7 -10 8 0.64 0.12
-7 -10 9 1.68 0.13
-7 -10 10 5.38 0.2
-7 -10 11 3.03 0.16
-7 -10 12 1.85 0.16
-7 -10 13 6.22 0.17
-7 -10 14 2.2 0.17
-7 -10 15 1.3 0.29
-7 -10 16 3.49 0.16
-7 -10 17 5.28 0.16
-7 -10 18 2.86 0.17
-7 -10 19 6.39 0.41
-7 -9 1 2.24 0.14
-7 -9 2 1.19 0.15
-7 -9 3 24.5 0.32
-7 -9 4 27.58 0.3
-7 -9 5 1.09 0.15
-7 -9 6 4.61 0.22
-7 -9 7 30.34 0.36
-7 -9 8 0.32 0.12
-7 -9 9 14.52 0.27
-7 -9 10 8.72 0.24
-7 -9 11 1.46 0.18
-7 -9 12 0.6 0.21
-7 -9 14 20.91 0.29
-7 -9 15 2.71 0.43
-7 -9 17 1.6 0.55
-7 -9 18 5.48 0.57
-7 -8 1 1.6 0.15
-7 -8 2 0.19 0.16
-7 -8 3 2.07 0.16
-7 -8 4 20.41 0.29
-7 -8 5 1.69 0.12
-7 -8 6 0.18 0.12
-7 -8 7 8.62 0.24
-7 -8 8 1.23 0.14
-7 -8 9 34.9 0.34
-7 -8 11 3.28 0.14
-7 -8 12 21.27 0.27
-7 -8 13 9.02 0.17
-7 -8 14 0.26 0.21
-7 -7 1 1.68 0.21
-7 -7 2 8.43 0.44
-7 -7 3 1.4 0.16
-7 -7 4 44.4 0.48
-7 -7 5 35.41 0.34
-7 -7 6 22.83 0.27
-7 -7 7 0.47 0.14
-7 -7 8 20.12 0.23
-7 -7 9 1.34 0.12
-7 -7 10 10.44 0.16
-7 -7 11 0.12 0.12
-7 -7 12 37.04 0.38
-7 -7 13 18.27 0.5
-7 -7 14 0.44 0.21
-7 -7 15 0.47 0.4
-7 -7 16 9.47 0.52
-7 -7 18 4.42 0.57
-7 -7 19 0.6 0.52
-7 -7 20 3.47 0.15
-7 -6 1 1.8 0.15
-7 -6 2 24.95 0.52
-7 -6 3 1.74 0.19
-7 -6 4 23.9 0.25
-7 -6 6 14.07 0.19
-7 -6 8 5.14 0.18
-7 -6 9 3.96 0.25
-7 -6 10 0.24 0.14
-7 -6 11 15.64 0.34
-7 -6 12 33.54 0.46
-7 -6 14 1.97 0.21
-7 -6 15 1.94 0.39
-7 -6 17 11.19 0.49
-7 -5 1 3.25 0.16
-7 -5 2 93.75 0.87
-7 -5 3 0.68 0.11
-7 -5 4 5.49 0.14
-7 -5 5 36.99 0.34
-7 -5 6 12.86 0.21
-7 -5 7 2.39 0.12
-7 -5 8 15.92 0.34
-7 -5 10 0.46 0.16
-7 -5 11 48.15 0.61
-7 -5 12 17.3 0.26
-7 -5 13 1.08 0.2
-7 -5 15 0.93 0.39
-7 -5 17 3.29 0.17
-7 -5 18 5.07 0.33
-7 -5 19 2.31 0.3
-7 -5 20 1.32 0.13
-7 -4 1 6.09 0.16
-7 -4 2 0.95 0.18
-7 -4 3 1.14 0.13
-7 -4 4 49.15 0.47
-7 -4 5 8.97 0.2
-7 -4 6 23.06 0.23
-7 -4 7 0.65 0.11
-7 -4 8 26.34 0.27
-7 -4 9 53.97 0.47
-7 -4 10 1.81 0.21
-7 -4 11 3.92 0.2
-7 -4 12 4.95 0.21
-7 -4 13 0.7 0.19
-7 -4 14 11.65 0.34
-7 -4 17 0.46 0.28
-7 -4 19 0.8 0.15
-7 -4 21 1.15 0.29
-7 -3 1 1.42 0.29
-7 -3 2 0.26 0.13
-7 -3 3 117.27 1.07
-7 -3 4 86.9 0.85
-7 -3 5 33.47 0.3
-7 -3 6 32.39 0.31
-7 -3 7 9.52 0.17
-7 -3 8 30.75 0.34
-7 -3 9 17.93 0.21
-7 -3 10 8.95 0.2
-7 -3 11 4.19 0.16
-7 -3 12 12.24 0.66
-7 -3 13 11.93 0.41
-7 -3 14 0.54 0.21
-7 -3 16 9.62 0.46
-7 -3 17 2.13 0.22
-7 -3 18 1.72 0.17
-7 -3 19 0.8 0.36
-7 -3 20 0.94 0.31
-7 -3 21 1.17 0.26
-7 -2 2 13.14 0.49
-7 -2 3 21.53 0.3
-7 -2 4 86.78 0.73
-7 -2 5 31.53 0.29
-7 -2 6 136.62 1.19
-7 -2 7 1.79 0.11
-7 -2 8 87.16 0.74
-7 -2 9 2.86 0.12
-7 -2 10 0.26 0.11
-7 -2 11 0.61 0.31
-7 -2 12 0.51 0.27
-7 -2 15 15.81 0.36
-7 -2 16 0.25 0.22
-7 -2 20 2.98 0.29
-7 -1 1 0.65 0.36
-7 -1 3 74.34 0.66
-7 -1 4 58.52 0.62
-7 -1 5 37.42 0.34
-7 -1 6 0.78 0.1
-7 -1 7 34.21 0.46
-7 -1 8 2.83 0.13
-7 -1 9 11.12 0.16
-7 -1 10 53.73 0.48
-7 -1 11 2.61 0.28
-7 -1 13 1.05 0.36
-7 -1 14 18.71 0.55
-7 -1 15 7.27 0.15
-7 -1 20 0.65 0.27
-7 0 1 0.59 0.16
-7 0 2 16.15 0.21
-7 0 3 7.53 0.26
-7 0 4 2.54 0.18
-7 0 5 17.04 0.23
-7 0 6 10.17 0.15
-7 0 7 10.6 0.15
-7 0 8 4.32 0.15
-7 0 10 3.74 0.27
-7 0 11 0.46 0.31
-7 0 12 63.73 0.98
-7 0 13 7.69 0.45
-7 0 14 14.17 0.32
-7 0 16 0.28 0.13
-7 1 0 14.21 0.2
-7 1 1 2.62 0.11
-7 1 2 0.66 0.12
-7 1 3 14.89 0.36
-7 1 4 1.96 0.19
-7 1 5 34.12 0.29
-7 1 6 4.21 0.16
-7 1 7 10.15 0.22
-7 1 8 8.6 0.15
-7 1 9 16.76 0.27
-7 1 10 48.01 0.45
-7 1 11 4.34 0.27
-7 1 13 55.09 1.93
-7 1 14 1.29 0.13
-7 1 17 5.76 0.37
-7 2 0 47.4 0.41
-7 2 1 1.57 0.13
-7 2 2 17.85 0.31
-7 2 3 14.04 0.2
-7 2 4 9.09 0.3
-7 2 5 8.98 0.23
-7 2 6 0.55 0.11
-7 2 7 1.59 0.12
-7 2 8 43.13 0.38
-7 2 9 29.22 0.38
-7 2 10 26.33 0.5
-7 2 11 5.91 0.21
-7 2 12 16.16 0.24
-7 2 16 5.52 0.38
-7 2 18 0.68 0.28
-7 3 1 18.84 0.24
-7 3 2 23.78 0.24
-7 3 3 11.94 0.25
-7 3 4 6.67 0.28
-7 3 5 119.46 1.58
-7 3 6 11.2 0.2
-7 3 7 16.57 0.21
-7 3 8 18.54 0.24
-7 3 9 23.07 0.43
-7 3 10 14.25 0.27
-7 3 11 21.98 0.3
-7 3 12 19.4 0.23
-7 3 14 0.68 0.14
-7 3 15 0.98 0.15
-7 3 17 0.42 0.3
-7 4 0 4.3 0.13
-7 4 1 56.61 0.5
-7 4 2 56.83 0.54
-7 4 3 2.2 0.11
-7 4 4 0.43 0.13
-7 4 5 12.29 0.19
-7 4 6 74.45 0.64
-7 4 7 0.87 0.16
-7 4 9 2.52 0.46
-7 4 10 29.05 0.54
-7 4 13 11.76 0.21
-7 4 14 0.82 0.37
-7 4 16 2.45 0.31
-7 4 17 1.82 0.33
-7 5 0 22.29 0.35
-7 5 1 16.63 0.29
-7 5 2 10.57 0.24
-7 5 3 46.92 0.52
-7 5 4 40.52 0.4
-7 5 5 6.36 0.16
-7 5 6 4.56 0.17
-7 5 7 2.51 0.18
-7 5 8 1.03 0.86
-7 5 11 5.69 0.29
-7 5 12 5.39 0.2
-7 5 13 0.97 0.16
-7 5 14 3.19 0.36
-7 5 17 4.47 0.25
-7 6 0 48.71 0.49
-7 6 1 6.43 0.15
-7 6 2 0.42 0.11
-7 6 4 104.66 1.09
-7 6 5 3.94 0.21
-7 6 6 9.53 0.91
-7 6 8 21.44 0.7
-7 6 10 6.65 0.41
-7 6 11 0.45 0.12
-7 6 12 12.15 0.83
-7 6 13 1.03 0.15
-7 6 14 2.85 0.45
-7 6 15 5.23 0.32
-7 6 16 8.55 0.31
-7 7 0 2.66 0.12
-7 7 1 1.37 0.12
-7 7 2 1.08 0.19
-7 7 4 18.06 0.31
-7 7 5 4.48 0.38
-7 7 6 12.93 0.39
-7 7 7 2.58 0.95
-7 7 9 32.83 0.62
-7 7 11 0.54 0.16
-7 7 12 2.64 0.17
-7 7 13 9.81 0.41
-7 7 15 0.34 0.24
-7 8 0 17.46 0.42
-7 8 1 0.23 0.23
-7 8 3 23.59 0.36
-7 8 4 0.39 0.21
-7 8 5 2.06 0.2
-7 8 8 0.51 0.16
-7 8 9 1.91 0.15
-7 8 10 12.61 0.33
-7 8 11 0.35 0.19
-7 8 12 3.15 0.35
-7 8 14 16.01 0.47
-7 9 0 12.86 0.73
-7 9 1 22.25 0.35
-7 9 2 26.63 0.62
-7 9 4 17.62 0.45
-7 9 5 1.23 0.4
-7 9 8 2.34 0.19
-7 9 10 4.84 0.53
-7 9 11 1.91 0.34
-7 9 12 0.76 0.41
-7 10 0 15.93 0.88
-7 10 2 0.39 0.21
-7 10 3 1.85 0.39
-7 10 4 9.44 0.21
-7 10 6 2.57 0.2
-7 10 7 0.93 0.18
-7 10 8 14.59 0.24
-7 10 9 2.83 0.12
-7 10 12 2.83 0.25
-7 11 0 21.08 0.59
-7 11 1 3.5 0.4
-7 11 2 0.23 0.15
-7 11 3 0.44 0.19
-7 11 4 9.15 0.51
-7 11 5 4.2 0.2
-7 11 6 1.73 0.42
-7 11 7 13.22 0.62
-7 11 8 1.11 0.48
-7 11 10 0.11 0.1
-7 12 1 5.31 0.18
-7 12 2 7.22 0.3
-7 12 3 1.08 0.19
-7 12 4 4.32 0.18
-7 12 5 3.01 0.17
-7 12 6 2.01 0.4
-7 12 7 2.81 0.33
-7 13 1 0.23 0.17
-7 13 2 0.74 0.15
-7 13 3 1.01 0.54
-7 13 4 15.79 0.24
-7 13 5 2.11 0.37
-7 13 6 2.45 0.33
-7 13 8 0.47 0.35
-7 14 0 0.66 0.41
-7 14 3 6.68 0.38
-7 15 1 5.19 0.28
-7 15 2 1.72 0.34
-7 15 3 0.44 0.31
-7 16 0 2.53 0.32
-7 16 1 1.87 0.32
-6 -19 11 0.37 0.32
-6 -19 13 0.67 0.31
-6 -19 15 0.55 0.29
-6 -18 10 1.19 0.34
-6 -18 11 1.68 0.12
-6 -18 14 0.17 0.09
-6 -18 15 0.16 0.11
-6 -18 16 1.91 0.11
-6 -17 5 0.42 0.11
-6 -17 8 2.67 0.16
-6 -17 10 1.83 0.2
-6 -17 11 0.39 0.22
-6 -17 12 0.86 0.14
-6 -17 18 1.95 0.3
-6 -16 2 0.42 0.33
-6 -16 3 0.64 0.35
-6 -16 4 0.85 0.36
-6 -16 6 0.48 0.17
-6 -16 7 1.21 0.2
-6 -16 8 5.25 0.24
-6 -16 9 0.72 0.26
-6 -16 10 0.44 0.13
-6 -16 12 0.88 0.13
-6 -16 13 0.43 0.19
-6 -16 14 0.27 0.15
-6 -16 16 0.15 0.14
-6 -16 17 1.25 0.35
-6 -16 18 2.95 0.33
-6 -15 2 3.47 0.14
-6 -15 4 0.29 0.19
-6 -15 5 1.19 0.36
-6 -15 6 0.22 0.11
-6 -15 7 1.75 0.13
-6 -15 8 0.2 0.12
-6 -15 9 1.91 0.25
-6 -15 13 0.27 0.14
-6 -15 14 2.3 0.34
-6 -15 15 2.21 0.39
-6 -15 17 2.51 0.37
-6 -14 1 0.28 0.12
-6 -14 2 0.38 0.24
-6 -14 3 0.85 0.19
-6 -14 4 3.11 0.33
-6 -14 5 1.65 0.15
-6 -14 6 0.12 0.12
-6 -14 7 3.18 0.11
-6 -14 8 1.15 0.1
-6 -14 9 3.33 0.16
-6 -14 10 2.53 0.21
-6 -14 11 11.85 0.19
-6 -14 12 5.58 0.16
-6 -14 13 0.2 0.17
-6 -14 14 2.02 0.28
-6 -14 15 3.25 0.21
-6 -14 16 0.96 0.16
-6 -14 17 0.4 0.39
-6 -14 19 0.99 0.34
-6 -13 1 0.98 0.12
-6 -13 4 2.17 0.13
-6 -13 6 3.18 0.12
-6 -13 7 5.15 0.18
-6 -13 8 1.32 0.16
-6 -13 9 2.93 0.17
-6 -13 10 0.59 0.42
-6 -13 11 13.67 0.52
-6 -13 12 2.68 0.15
-6 -13 13 1.43 0.17
-6 -13 14 8.08 0.17
-6 -13 15 0.23 0.17
-6 -13 17 1.07 0.48
-6 -13 19 2.09 0.21
-6 -13 21 0.93 0.39
-6 -12 1 3.58 0.14
-6 -12 2 0.24 0.12
-6 -12 4 0.2 0.17
-6 -12 5 3.25 0.21
-6 -12 7 7.06 0.25
-6 -12 8 0.56 0.15
-6 -12 9 7.36 0.21
-6 -12 10 45.92 0.56
-6 -12 11 27.09 0.39
-6 -12 12 4.66 0.57
-6 -12 13 4.57 0.42
-6 -12 14 7.76 0.18
-6 -12 16 4.69 0.18
-6 -12 21 1.55 0.34
-6 -11 3 13.06 0.38
-6 -11 4 4.81 0.35
-6 -11 5 6.59 0.19
-6 -11 6 1.16 0.2
-6 -11 9 1.89 0.25
-6 -11 10 9.42 0.46
-6 -11 11 1.57 0.15
-6 -11 12 1.03 0.2
-6 -11 13 0.57 0.24
-6 -11 14 0.76 0.41
-6 -11 16 1.03 0.17
-6 -11 17 0.69 0.15
-6 -11 18 1.29 0.32
-6 -11 20 0.56 0.18
-6 -10 1 0.43 0.13
-6 -10 2 0.92 0.13
-6 -10 3 33.94 0.37
-6 -10 4 0.43 0.2
-6 -10 5 0.93 0.21
-6 -10 6 1.41 0.13
-6 -10 7 0.81 0.12
-6 -10 8 2.46 0.13
-6 -10 9 11.18 0.17
-6 -10 10 0.17 0.13
-6 -10 11 1.68 0.12
-6 -10 12 18.73 0.25
-6 -10 13 0.48 0.16
-6 -10 14 1.44 0.4
-6 -10 15 5.12 0.42
-6 -10 16 18.35 0.55
-6 -10 17 2.03 0.2
-6 -10 18 2.46 0.19
-6 -10 19 14.14 0.7
-6 -10 21 0.24 0.12
-6 -9 1 0.45 0.13
-6 -9 2 111.53 1.06
-6 -9 3 19.96 0.45
-6 -9 4 1.24 0.12
-6 -9 5 0.5 0.12
-6 -9 6 12.55 0.23
-6 -9 7 0.43 0.13
-6 -9 10 0.66 0.12
-6 -9 11 4.54 0.17
-6 -9 12 1.6 0.25
-6 -9 13 0.4 0.14
-6 -9 14 7.44 0.39
-6 -9 15 4.63 0.69
-6 -9 16 1.73 0.3
-6 -9 17 0.24 0.15
-6 -9 18 0.25 0.18
-6 -9 19 0.22 0.13
-6 -8 1 20.36 0.27
-6 -8 2 19.42 0.52
-6 -8 3 3.54 0.14
-6 -8 4 19.57 0.34
-6 -8 5 4.39 0.13
-6 -8 6 4.52 0.13
-6 -8 7 4.05 0.19
-6 -8 8 5.91 0.19
-6 -8 9 15.67 0.24
-6 -8 10 5.87 0.14
-6 -8 11 10.71 0.16
-6 -8 12 1.6 0.16
-6 -8 13 7.06 0.26
-6 -8 14 1.91 0.19
-6 -8 15 25.2 0.82
-6 -8 16 5.62 0.41
-6 -8 17 2.78 0.16
-6 -8 18 27.55 0.44
-6 -8 19 4.25 0.16
-6 -8 20 1.17 0.39
-6 -8 21 0.6 0.12
-6 -8 22 0.52 0.13
-6 -7 1 31.63 0.31
-6 -7 2 77.9 0.74
-6 -7 3 0.22 0.11
-6 -7 5 65.18 0.55
-6 -7 6 9.38 0.17
-6 -7 7 9.56 0.19
-6 -7 8 26.78 0.26
-6 -7 9 7.69 0.17
-6 -7 10 0.64 0.13
-6 -7 11 9.87 0.16
-6 -7 12 36.91 0.37
-6 -7 13 18.72 0.24
-6 -7 16 20.35 0.54
-6 -7 17 0.74 0.16
-6 -7 18 0.3 0.19
-6 -7 21 0.52 0.43
-6 -7 22 1.85 0.37
-6 -6 1 5.55 0.14
-6 -6 2 25.23 0.29
-6 -6 3 0.12 0.12
-6 -6 5 10.06 0.15
-6 -6 6 16.35 0.19
-6 -6 7 52.53 0.46
-6 -6 8 8.53 0.22
-6 -6 9 0.44 0.1
-6 -6 10 32.22 0.31
-6 -6 11 31.53 0.31
-6 -6 12 0.33 0.19
-6 -6 15 0.47 0.16
-6 -6 16 1.5 0.41
-6 -6 17 1.12 0.24
-6 -6 18 3.89 0.57
-6 -6 22 0.61 0.36
-6 -5 1 7.86 0.17
-6 -5 2 127.84 1.15
-6 -5 3 20.74 0.25
-6 -5 4 82.61 1.05
-6 -5 5 3.99 0.14
-6 -5 6 46.96 0.5
-6 -5 7 1.55 0.16
-6 -5 8 30.76 0.34
-6 -5 9 0.99 0.12
-6 -5 10 30.32 0.3
-6 -5 11 54.52 0.7
-6 -5 12 9.22 0.23
-6 -5 13 3.81 0.21
-6 -5 14 11.34 0.26
-6 -5 15 2.67 0.16
-6 -5 16 7.77 0.41
-6 -5 17 3.82 0.29
-6 -5 18 5 0.15
-6 -5 19 4.14 0.56
-6 -5 20 2.09 0.35
-6 -5 21 0.41 0.11
-6 -5 22 3.97 0.28
-6 -4 1 24.18 0.31
-6 -4 2 46.26 0.7
-6 -4 3 4.23 0.36
-6 -4 4 15.27 0.39
-6 -4 5 12.22 0.25
-6 -4 6 25.86 0.37
-6 -4 7 4.99 0.13
-6 -4 9 11.07 0.2
-6 -4 10 112.2 1.07
-6 -4 12 1.15 0.18
-6 -4 13 4.98 0.16
-6 -4 14 5.36 0.26
-6 -4 15 26.07 0.57
-6 -4 18 0.7 0.14
-6 -4 20 2.54 0.33
-6 -4 22 0.98 0.24
-6 -3 1 28.73 0.43
-6 -3 3 32.78 0.46
-6 -3 4 58.68 0.95
-6 -3 5 2.81 0.2
-6 -3 6 6.69 0.24
-6 -3 7 5.05 0.24
-6 -3 8 1.54 0.1
-6 -3 9 52.8 0.52
-6 -3 10 53.28 1.02
-6 -3 11 1.52 0.19
-6 -3 12 1.99 0.23
-6 -3 13 1.93 0.14
-6 -3 14 0.17 0.15
-6 -3 15 17.39 0.25
-6 -3 16 3.48 0.14
-6 -3 17 7.45 0.69
-6 -3 18 0.2 0.2
-6 -2 1 16.38 0.39
-6 -2 2 85.09 0.88
-6 -2 3 0.33 0.28
-6 -2 4 37.64 0.58
-6 -2 5 10.04 0.34
-6 -2 6 74.83 0.77
-6 -2 7 42.03 0.52
-6 -2 8 20.34 0.3
-6 -2 9 6.08 0.15
-6 -2 10 10.48 0.52
-6 -2 11 1.2 0.19
-6 -2 12 23.59 0.62
-6 -2 16 9.32 0.19
-6 -2 17 3.28 0.4
-6 -2 19 0.7 0.35
-6 -2 20 2.41 0.3
-6 -1 1 126.24 1.35
-6 -1 2 128.92 1.42
-6 -1 3 100 1.85
-6 -1 4 40.78 0.61
-6 -1 5 46.04 0.98
-6 -1 6 66.49 0.71
-6 -1 7 7.6 0.25
-6 -1 8 23.94 0.25
-6 -1 9 0.7 0.15
-6 -1 10 37.39 0.56
-6 -1 11 9.75 0.17
-6 -1 12 0.13 0.13
-6 -1 14 13.19 0.22
-6 -1 15 4.85 0.18
-6 -1 16 5.51 0.19
-6 -1 17 0.68 0.13
-6 -1 20 5.88 0.32
-6 0 1 110.46 1.53
-6 0 2 53.02 0.86
-6 0 3 152.69 1.52
-6 0 4 119.05 1.12
-6 0 5 88.64 0.86
-6 0 6 135.55 1.21
-6 0 7 21.22 0.21
-6 0 9 0.32 0.12
-6 0 10 3.36 0.13
-6 0 11 1.85 0.14
-6 0 12 1.17 0.14
-6 0 13 24.22 0.38
-6 0 16 0.82 0.16
-6 1 0 9.49 0.42
-6 1 1 52.95 0.71
-6 1 2 134.66 1.32
-6 1 3 105.43 1.07
-6 1 4 4.49 0.24
-6 1 5 22.57 0.33
-6 1 6 26.91 0.3
-6 1 7 3.38 0.09
-6 1 8 74.39 0.65
-6 1 9 23.36 0.32
-6 1 12 18.1 0.26
-6 1 13 24.4 0.35
-6 1 14 0.24 0.13
-6 1 15 6.98 0.18
-6 1 16 2.63 0.24
-6 2 0 11.67 0.35
-6 2 1 13.99 0.37
-6 2 2 1.01 0.22
-6 2 3 53.7 0.57
-6 2 4 10.91 0.19
-6 2 5 8.46 0.19
-6 2 6 2.19 0.11
-6 2 7 0.18 0.11
-6 2 8 0.65 0.14
-6 2 9 2.83 0.24
-6 2 10 82.58 1.41
-6 2 11 0.48 0.17
-6 2 12 21.34 0.65
-6 2 13 6.73 0.4
-6 2 14 0.56 0.13
-6 2 15 1.26 0.16
-6 3 0 6.65 0.31
-6 3 1 9.22 0.36
-6 3 2 10.62 0.4
-6 3 3 20.78 0.37
-6 3 4 38.09 0.65
-6 3 5 21.01 0.27
-6 3 6 11.94 0.15
-6 3 7 6.93 0.14
-6 3 8 66.66 0.86
-6 3 9 23.1 0.4
-6 3 10 4.46 0.29
-6 3 11 68.78 1.81
-6 3 12 12.58 0.46
-6 3 15 9.85 0.38
-6 3 16 0.32 0.14
-6 3 17 3.28 0.4
-6 4 0 14.29 0.5
-6 4 1 18.98 0.32
-6 4 2 4.55 0.13
-6 4 3 5.84 0.16
-6 4 4 2.19 0.13
-6 4 5 0.34 0.11
-6 4 6 43.15 0.62
-6 4 7 58.57 0.84
-6 4 8 8.7 0.36
-6 4 9 33.59 0.51
-6 4 10 12.01 0.34
-6 4 11 1.4 0.32
-6 4 12 2.4 0.13
-6 4 13 4.57 0.19
-6 4 14 5.85 0.17
-6 4 15 2.05 0.15
-6 4 16 3.68 0.44
-6 4 17 1.03 0.35
-6 5 0 33.48 0.33
-6 5 1 24.74 0.31
-6 5 3 148.21 1.55
-6 5 4 1.07 0.19
-6 5 5 42.79 0.47
-6 5 6 4.53 0.2
-6 5 7 63.9 0.95
-6 5 8 11.88 0.32
-6 5 9 4.21 0.31
-6 5 10 43.98 2.09
-6 5 11 2.49 0.16
-6 5 12 1.43 0.19
-6 5 13 0.52 0.12
-6 5 17 2.65 0.31
-6 6 0 85.66 0.72
-6 6 1 0.28 0.1
-6 6 2 1.49 0.11
-6 6 4 90.09 1.18
-6 6 5 15 0.38
-6 6 8 37.18 1.43
-6 6 9 0.67 0.32
-6 6 10 0.63 0.2
-6 6 11 9.83 0.33
-6 6 12 3.91 0.27
-6 6 14 4.31 0.24
-6 6 15 0.82 0.11
-6 6 16 0.56 0.34
-6 7 0 14.36 0.19
-6 7 1 28.83 0.39
-6 7 2 65.56 0.68
-6 7 3 12.72 0.26
-6 7 4 5.48 0.23
-6 7 5 2.44 0.14
-6 7 7 0.61 0.3
-6 7 8 1.35 0.32
-6 7 9 7.51 0.34
-6 7 10 2.72 0.21
-6 7 11 1.45 0.17
-6 7 12 0.56 0.15
-6 7 13 5.86 0.38
-6 7 14 1.9 0.3
-6 7 15 3.32 0.29
-6 8 0 0.47 0.22
-6 8 1 4.18 0.2
-6 8 2 69.92 1.13
-6 8 3 31.83 0.34
-6 8 4 5.99 0.27
-6 8 5 0.96 0.16
-6 8 6 21.38 0.39
-6 8 8 3.36 0.16
-6 8 9 7.14 0.24
-6 8 10 11.38 0.19
-6 8 11 5.27 0.2
-6 8 12 2.81 0.35
-6 8 13 0.39 0.31
-6 8 14 14.58 0.39
-6 9 0 0.75 0.19
-6 9 2 24.43 0.36
-6 9 3 3.27 0.26
-6 9 4 9.74 0.21
-6 9 5 4.74 0.16
-6 9 6 2.65 0.39
-6 9 7 33.17 0.7
-6 9 8 1.61 0.15
-6 9 9 1.21 0.19
-6 9 10 0.37 0.17
-6 9 11 12.42 0.39
-6 9 12 0.21 0.11
-6 10 0 1.61 0.35
-6 10 1 20.59 0.33
-6 10 2 2.1 0.41
-6 10 3 0.98 0.16
-6 10 4 0.46 0.17
-6 10 6 2.7 0.45
-6 10 7 5.53 0.2
-6 10 8 6.99 0.63
-6 10 9 4.17 0.16
-6 10 10 1.56 0.16
-6 11 0 26.93 0.41
-6 11 1 2.28 0.37
-6 11 2 8.14 0.36
-6 11 3 4.98 0.42
-6 11 5 0.51 0.16
-6 11 6 0.38 0.19
-6 11 7 1.53 0.42
-6 11 8 4.34 0.53
-6 11 9 2.79 0.35
-6 11 10 1.07 0.31
-6 11 11 0.26 0.25
-6 12 0 0.74 0.41
-6 12 2 9.75 0.42
-6 12 4 1.45 0.15
-6 12 5 0.46 0.18
-6 12 6 9.88 0.45
-6 12 7 5.83 0.53
-6 12 10 1.61 0.08
-6 13 1 1.47 0.17
-6 13 2 3.81 0.15
-6 13 3 4.35 0.21
-6 13 4 0.23 0.18
-6 13 5 14.03 0.48
-6 14 1 2.31 0.14
-6 14 3 2.75 0.4
-6 14 4 1.11 0.38
-6 14 5 4.18 0.35
-6 15 0 0.6 0.15
-6 16 0 3.54 0.13
-6 17 1 1.51 0.27
-5 -18 8 4.37 0.39
-5 -18 11 1.06 0.13
-5 -18 12 0.79 0.39
-5 -18 14 0.26 0.23
-5 -18 16 0.31 0.11
-5 -18 17 0.26 0.1
-5 -18 19 0.54 0.26
-5 -17 1 0.59 0.28
-5 -17 8 2.26 0.16
-5 -17 11 1.98 0.11
-5 -17 12 1.18 0.36
-5 -17 13 1.33 0.19
-5 -17 14 0.97 0.42
-5 -16 3 2.11 0.15
-5 -16 7 8.09 0.16
-5 -16 8 1.33 0.14
-5 -16 9 0.96 0.21
-5 -16 10 7.15 0.24
-5 -16 11 1.66 0.12
-5 -16 12 0.58 0.17
-5 -16 14 4.27 0.31
-5 -16 15 0.99 0.15
-5 -16 21 0.6 0.26
-5 -15 2 0.63 0.15
-5 -15 3 2.06 0.22
-5 -15 5 0.52 0.15
-5 -15 6 5.53 0.33
-5 -15 7 2.42 0.17
-5 -15 8 7.93 0.17
-5 -15 9 0.36 0.13
-5 -15 10 3.88 0.13
-5 -15 11 0.2 0.18
-5 -15 12 2.03 0.41
-5 -15 14 0.37 0.14
-5 -15 16 5.03 0.43
-5 -15 17 2.81 0.38
-5 -15 20 0.35 0.16
-5 -14 1 2.26 0.16
-5 -14 2 0.72 0.12
-5 -14 3 2.67 0.19
-5 -14 4 1.08 0.28
-5 -14 5 6.34 0.14
-5 -14 6 6.24 0.12
-5 -14 7 7.67 0.16
-5 -14 8 0.3 0.19
-5 -14 9 0.74 0.42
-5 -14 10 1.7 0.18
-5 -14 13 2.87 0.16
-5 -14 14 0.43 0.14
-5 -14 15 1.7 0.45
-5 -14 16 5.13 0.39
-5 -14 17 7.59 0.34
-5 -14 21 2.27 0.18
-5 -13 2 0.22 0.11
-5 -13 3 1.05 0.13
-5 -13 4 3.03 0.15
-5 -13 5 5.1 0.18
-5 -13 6 0.78 0.15
-5 -13 7 3.33 0.19
-5 -13 9 0.55 0.21
-5 -13 11 3.78 0.25
-5 -13 12 5.16 0.43
-5 -13 13 0.99 0.42
-5 -13 14 3.13 0.18
-5 -13 15 3.95 0.5
-5 -13 16 6.79 0.6
-5 -13 17 0.32 0.16
-5 -13 18 1.08 0.15
-5 -13 19 0.95 0.12
-5 -13 22 0.43 0.35
-5 -12 2 8.97 0.34
-5 -12 3 5.36 0.21
-5 -12 4 0.27 0.16
-5 -12 5 8.17 0.34
-5 -12 6 3.46 0.32
-5 -12 7 11.36 0.2
-5 -12 8 0.99 0.15
-5 -12 9 25 0.69
-5 -12 10 19.35 0.56
-5 -12 11 3.68 0.22
-5 -12 12 10.26 0.47
-5 -12 13 4.61 0.23
-5 -12 14 3.38 0.41
-5 -12 15 2.24 0.2
-5 -12 16 0.49 0.17
-5 -12 17 3.29 0.13
-5 -12 19 1.09 0.12
-5 -12 21 0.33 0.13
-5 -12 22 0.82 0.3
-5 -11 2 4.5 0.14
-5 -11 3 1.24 0.21
-5 -11 4 7.15 0.33
-5 -11 5 2.43 0.14
-5 -11 6 10.95 0.22
-5 -11 7 5.66 0.18
-5 -11 8 0.17 0.15
-5 -11 9 26.08 0.42
-5 -11 11 15.94 0.5
-5 -11 12 14.36 0.8
-5 -11 13 2.31 0.35
-5 -11 14 1.06 0.27
-5 -11 16 2.69 0.24
-5 -11 17 5.71 0.2
-5 -11 19 0.98 0.28
-5 -11 22 1.43 0.15
-5 -10 3 5.82 0.19
-5 -10 4 0.96 0.23
-5 -10 5 20.59 0.39
-5 -10 7 0.81 0.12
-5 -10 8 88.21 0.82
-5 -10 9 124.6 1.17
-5 -10 10 5.3 0.14
-5 -10 11 0.16 0.15
-5 -10 12 28.84 0.51
-5 -10 13 0.52 0.17
-5 -10 14 9.42 0.75
-5 -10 15 1.82 0.15
-5 -10 18 0.12 0.13
-5 -10 19 3.96 0.21
-5 -10 20 0.64 0.13
-5 -10 21 0.67 0.43
-5 -10 22 0.66 0.1
-5 -9 1 5.49 0.14
-5 -9 2 25.19 0.26
-5 -9 3 10.02 0.28
-5 -9 4 0.21 0.13
-5 -9 5 0.94 0.12
-5 -9 6 0.57 0.11
-5 -9 8 25.39 0.41
-5 -9 9 1.87 0.14
-5 -9 10 1.77 0.18
-5 -9 11 1.22 0.13
-5 -9 12 0.95 0.14
-5 -9 14 5.36 0.62
-5 -9 15 0.76 0.18
-5 -9 16 1.08 0.4
-5 -9 18 0.16 0.13
-5 -9 19 3.27 0.41
-5 -9 20 0.38 0.23
-5 -8 1 58.55 0.51
-5 -8 2 12.44 0.18
-5 -8 4 8.21 0.19
-5 -8 5 3.49 0.12
-5 -8 6 0.93 0.1
-5 -8 7 24.55 0.28
-5 -8 8 8.42 0.14
-5 -8 10 47.2 0.48
-5 -8 11 4.52 0.11
-5 -8 12 6.63 0.31
-5 -8 13 3.39 0.18
-5 -8 14 28.58 0.48
-5 -8 15 22.1 0.35
-5 -8 16 10.41 0.61
-5 -8 17 13.26 0.3
-5 -8 18 18.51 0.44
-5 -8 19 0.44 0.12
-5 -8 22 0.21 0.14
-5 -7 1 80.9 0.74
-5 -7 2 9.73 0.22
-5 -7 3 5.27 0.12
-5 -7 4 17.15 0.19
-5 -7 6 0.7 0.1
-5 -7 8 3.32 0.11
-5 -7 9 9.42 0.13
-5 -7 10 0.11 0.09
-5 -7 11 10.15 0.19
-5 -7 12 11.79 0.21
-5 -7 13 12.73 0.44
-5 -7 14 1.28 0.17
-5 -7 15 2.96 0.18
-5 -7 16 0.72 0.58
-5 -7 17 2.45 0.15
-5 -7 18 0.94 0.13
-5 -7 19 0.88 0.17
-5 -7 20 0.29 0.2
-5 -7 22 2.39 0.12
-5 -6 1 4.84 0.14
-5 -6 2 14.29 0.18
-5 -6 3 12.67 0.57
-5 -6 4 26.93 0.38
-5 -6 5 9.28 0.24
-5 -6 6 4.53 0.33
-5 -6 7 45.67 0.53
-5 -6 8 7.72 0.2
-5 -6 9 14.83 0.16
-5 -6 10 0.15 0.1
-5 -6 11 19.35 0.23
-5 -6 13 64.84 0.59
-5 -6 14 1.54 0.16
-5 -6 15 0.58 0.18
-5 -6 16 48.35 0.57
-5 -6 17 26.51 0.32
-5 -6 18 0.66 0.15
-5 -6 21 0.51 0.47
-5 -5 1 27.17 0.72
-5 -5 2 10.12 0.34
-5 -5 3 95.56 1.13
-5 -5 4 34.62 0.8
-5 -5 6 53.71 0.57
-5 -5 7 19.02 0.5
-5 -5 8 20.9 0.36
-5 -5 9 57.93 0.58
-5 -5 10 27.83 0.38
-5 -5 11 65.85 0.86
-5 -5 12 3.81 0.14
-5 -5 13 8.18 0.17
-5 -5 14 39.71 0.39
-5 -5 19 2.48 0.39
-5 -5 20 2.68 0.14
-5 -5 21 0.34 0.31
-5 -5 22 0.38 0.26
-5 -4 1 5.05 0.31
-5 -4 3 10.3 0.31
-5 -4 4 48.74 0.51
-5 -4 5 33.85 0.4
-5 -4 6 68.84 0.69
-5 -4 7 0.94 0.15
-5 -4 8 36.53 0.47
-5 -4 9 49.14 0.7
-5 -4 10 17.18 0.37
-5 -4 11 1.38 0.13
-5 -4 12 0.36 0.12
-5 -4 13 2.88 0.14
-5 -4 14 3.46 0.15
-5 -4 15 1.13 0.29
-5 -4 16 13.74 0.48
-5 -4 20 2.23 0.34
-5 -3 1 0.21 0.2
-5 -3 2 180.4 1.67
-5 -3 3 62.76 0.66
-5 -3 4 90.51 0.91
-5 -3 5 3.2 0.17
-5 -3 6 70.27 0.65
-5 -3 7 0.28 0.13
-5 -3 8 9.09 0.25
-5 -3 9 86.94 0.93
-5 -3 10 50.26 0.57
-5 -3 11 4.39 0.17
-5 -3 12 4.39 0.14
-5 -3 13 9.97 0.18
-5 -3 14 8.19 0.19
-5 -3 15 17.12 0.31
-5 -3 17 12.49 0.48
-5 -3 18 0.17 0.16
-5 -3 19 0.67 0.38
-5 -3 20 8.97 0.39
-5 -2 1 17.44 0.22
-5 -2 2 11.11 0.3
-5 -2 3 79.66 0.78
-5 -2 4 56.08 0.73
-5 -2 5 1.59 0.24
-5 -2 8 242.97 2.64
-5 -2 9 15.81 0.18
-5 -2 11 3.38 0.18
-5 -2 12 27.25 0.49
-5 -2 13 34.06 0.35
-5 -2 14 1.58 0.14
-5 -2 15 0.37 0.15
-5 -2 16 1.52 0.16
-5 -2 17 3.31 0.42
-5 -2 21 0.41 0.26
-5 -1 1 5.38 0.15
-5 -1 2 120.32 1.04
-5 -1 3 0.65 0.17
-5 -1 4 1.11 0.23
-5 -1 5 41.46 0.57
-5 -1 6 5.19 0.22
-5 -1 7 41.71 0.42
-5 -1 8 76.51 0.85
-5 -1 9 35.81 0.34
-5 -1 10 7.23 0.17
-5 -1 11 0.89 0.11
-5 -1 12 0.39 0.12
-5 -1 13 42.8 0.41
-5 -1 15 13.86 0.22
-5 -1 16 2.24 0.16
-5 -1 17 19.03 0.55
-5 -1 19 12.18 0.42
-5 0 1 41.57 0.47
-5 0 2 20.98 0.45
-5 0 3 80.12 0.73
-5 0 4 93.18 0.92
-5 0 5 6.14 0.2
-5 0 6 67.27 0.67
-5 0 7 3.5 0.13
-5 0 8 18.54 0.29
-5 0 9 2.71 0.13
-5 0 10 32.08 0.33
-5 0 11 7.23 0.18
-5 0 12 4.03 0.19
-5 0 13 1.83 0.19
-5 0 14 11.63 0.19
-5 0 15 10.71 0.17
-5 0 16 0.24 0.13
-5 0 19 0.39 0.32
-5 1 0 130.27 1.35
-5 1 1 193.95 1.74
-5 1 2 55.17 0.58
-5 1 3 142.73 1.26
-5 1 4 99.27 0.84
-5 1 6 29.57 0.3
-5 1 7 24.86 0.3
-5 1 8 47.31 0.58
-5 1 9 1.03 0.13
-5 1 10 0.92 0.19
-5 1 11 1.77 0.18
-5 1 12 10.24 0.21
-5 1 13 9.33 0.62
-5 1 14 9.53 0.42
-5 1 17 0.67 0.38
-5 1 19 4.18 0.31
-5 2 1 303.98 2.82
-5 2 2 11.93 0.38
-5 2 3 342.04 2.91
-5 2 4 111.23 0.95
-5 2 5 64.71 0.6
-5 2 6 2.81 0.14
-5 2 7 0.61 0.15
-5 2 8 14.43 0.24
-5 2 9 7.75 0.31
-5 2 10 3.64 0.28
-5 2 11 23.67 0.68
-5 2 12 1.25 0.16
-5 2 14 2.83 0.2
-5 2 16 13.7 0.22
-5 2 19 1.21 0.26
-5 3 0 168.12 1.53
-5 3 1 233.27 2.13
-5 3 2 0.43 0.12
-5 3 3 0.4 0.13
-5 3 4 68.78 0.63
-5 3 5 1.25 0.15
-5 3 6 60.35 0.67
-5 3 7 71.57 0.89
-5 3 9 0.42 0.23
-5 3 10 6.59 0.32
-5 3 11 53.04 1.05
-5 3 12 0.52 0.17
-5 3 13 9.08 0.2
-5 3 14 4.78 0.18
-5 3 15 0.7 0.22
-5 4 0 22.16 0.3
-5 4 1 77.52 0.76
-5 4 2 1.27 0.13
-5 4 3 2.91 0.14
-5 4 4 1.08 0.15
-5 4 5 0.53 0.16
-5 4 6 0.77 0.1
-5 4 7 10.13 0.27
-5 4 8 53.08 0.67
-5 4 9 20.81 0.39
-5 4 10 12.45 0.34
-5 4 11 13.67 0.35
-5 4 16 0.75 0.13
-5 4 17 3.8 0.38
-5 5 0 11.46 0.24
-5 5 1 0.92 0.19
-5 5 2 90.04 1.15
-5 5 3 18.72 0.35
-5 5 4 7.24 0.15
-5 5 5 0.46 0.12
-5 5 6 56.24 1.12
-5 5 7 66.16 0.78
-5 5 8 12.64 0.64
-5 5 9 49.45 1.35
-5 5 10 34.87 1.22
-5 5 12 0.45 0.17
-5 5 13 11.13 0.33
-5 5 14 0.43 0.37
-5 5 15 4.97 0.37
-5 5 17 3.02 0.32
-5 6 0 0.4 0.16
-5 6 1 2.08 0.2
-5 6 2 8.96 0.29
-5 6 3 7.03 0.17
-5 6 4 29.6 0.42
-5 6 5 70.68 0.69
-5 6 7 60.47 0.67
-5 6 8 3.17 0.28
-5 6 9 1.83 0.89
-5 6 11 9.82 0.19
-5 6 12 2.98 0.18
-5 6 13 1.41 0.4
-5 6 14 7.78 0.52
-5 6 15 0.37 0.3
-5 7 0 3.89 0.11
-5 7 1 93.69 0.88
-5 7 2 35.05 0.33
-5 7 3 42.22 0.41
-5 7 4 1.53 0.12
-5 7 5 88.03 1.23
-5 7 6 0.61 0.16
-5 7 7 1.37 0.17
-5 7 8 52.72 1.31
-5 7 10 0.73 0.15
-5 7 12 1.5 0.16
-5 7 15 3.54 0.3
-5 8 0 0.13 0.12
-5 8 1 15.2 0.24
-5 8 2 54 0.51
-5 8 3 41.06 0.55
-5 8 4 2.77 0.14
-5 8 5 4.08 0.32
-5 8 6 29.64 0.41
-5 8 7 3.16 0.39
-5 8 9 5.35 0.38
-5 8 10 6.57 0.38
-5 8 11 1.33 0.42
-5 8 12 4.21 0.37
-5 9 0 71.2 0.63
-5 9 1 20.99 0.24
-5 9 2 9.08 0.2
-5 9 3 1.15 0.14
-5 9 4 2.18 0.15
-5 9 5 2.34 0.21
-5 9 6 3.56 0.97
-5 9 8 1.15 0.25
-5 9 9 0.88 0.22
-5 9 11 7.53 0.38
-5 9 12 1.18 0.15
-5 9 13 1.54 0.39
-5 9 14 1.39 0.22
-5 10 0 19.77 0.33
-5 10 1 57.85 0.69
-5 10 3 5.49 0.17
-5 10 4 10.48 0.45
-5 10 5 3.71 0.38
-5 10 6 0.51 0.14
-5 10 7 16.18 0.72
-5 10 8 4.43 0.36
-5 10 9 10.49 0.38
-5 10 10 0.34 0.11
-5 10 13 0.48 0.31
-5 11 0 23.28 0.27
-5 11 1 5.89 0.22
-5 11 2 4.34 0.25
-5 11 3 4.52 0.39
-5 11 4 9.07 0.45
-5 11 5 18.04 0.27
-5 11 6 7.98 0.21
-5 11 7 1.15 0.15
-5 11 10 0.2 0.12
-5 11 11 0.28 0.15
-5 12 0 4.66 0.16
-5 12 2 1.19 0.17
-5 12 3 0.23 0.18
-5 12 4 4.98 0.17
-5 12 5 6.18 0.44
-5 12 6 0.51 0.17
-5 12 7 6.61 0.4
-5 13 0 1.36 0.13
-5 13 1 6.1 0.15
-5 13 2 1.18 0.14
-5 13 4 0.43 0.16
-5 13 6 2.11 0.36
-5 13 7 2.21 0.33
-5 14 0 5.94 0.15
-5 14 1 0.39 0.12
-5 14 2 0.82 0.17
-5 14 5 6.64 0.38
-5 14 6 0.63 0.32
-5 15 0 0.85 0.16
-5 15 1 2.38 0.39
-5 15 2 1.91 0.37
-5 16 0 0.65 0.16
-5 16 1 2 0.34
-5 16 2 0.98 0.32
-5 16 5 1.26 0.25
-5 17 0 6.71 0.35
-5 17 1 1.59 0.3
-5 17 2 1.9 0.29
-4 -19 10 0.52 0.38
-4 -19 14 4.18 0.39
-4 -18 2 0.45 0.29
-4 -18 8 1.27 0.4
-4 -18 12 0.61 0.42
-4 -18 14 0.67 0.38
-4 -18 15 0.89 0.39
-4 -17 2 4.44 0.19
-4 -17 3 1.04 0.35
-4 -17 7 0.52 0.45
-4 -17 8 0.68 0.44
-4 -17 10 0.66 0.45
-4 -17 12 0.94 0.44
-4 -17 16 1.36 0.42
-4 -16 7 18.56 0.59
-4 -16 9 0.81 0.39
-4 -16 10 1.61 0.19
-4 -16 12 0.95 0.22
-4 -16 14 1.56 0.14
-4 -16 15 0.82 0.33
-4 -16 17 1.67 0.14
-4 -16 18 0.83 0.36
-4 -16 19 0.75 0.32
-4 -16 20 1.66 0.3
-4 -15 1 0.48 0.43
-4 -15 2 2.46 0.17
-4 -15 4 0.77 0.25
-4 -15 6 6.38 0.48
-4 -15 8 0.74 0.17
-4 -15 9 4.06 0.2
-4 -15 10 5 0.19
-4 -15 11 0.81 0.16
-4 -15 12 2.33 0.19
-4 -15 13 0.32 0.15
-4 -15 14 1.13 0.18
-4 -15 17 0.3 0.18
-4 -15 20 0.8 0.32
-4 -15 21 0.23 0.09
-4 -14 1 4.83 0.45
-4 -14 5 24.24 0.31
-4 -14 8 13.59 0.5
-4 -14 9 13.47 0.28
-4 -14 10 0.85 0.42
-4 -14 11 0.87 0.41
-4 -14 12 5.36 0.44
-4 -14 13 7.13 0.24
-4 -14 15 0.4 0.12
-4 -14 16 10.35 0.15
-4 -14 17 0.67 0.15
-4 -14 19 1.65 0.11
-4 -14 20 1.24 0.12
-4 -13 1 6.57 0.2
-4 -13 3 2.13 0.18
-4 -13 4 4.64 0.19
-4 -13 5 24.11 0.25
-4 -13 6 18.35 0.42
-4 -13 8 9.36 0.25
-4 -13 9 3.09 0.39
-4 -13 10 7.75 0.24
-4 -13 12 2.04 0.21
-4 -13 14 7.7 0.19
-4 -13 15 11.36 0.16
-4 -13 16 3.28 0.12
-4 -13 17 1.44 0.12
-4 -13 18 0.57 0.23
-4 -13 19 0.15 0.15
-4 -13 21 0.33 0.11
-4 -12 1 3.28 0.14
-4 -12 2 2.91 0.16
-4 -12 3 17.96 0.28
-4 -12 4 2.16 0.14
-4 -12 5 30.23 0.32
-4 -12 7 3.75 0.18
-4 -12 8 0.98 0.19
-4 -12 9 0.34 0.19
-4 -12 10 3.11 0.21
-4 -12 11 5.98 0.23
-4 -12 12 2.68 0.38
-4 -12 13 2.96 0.17
-4 -12 14 3.97 0.17
-4 -12 15 27.08 1.18
-4 -12 16 2.72 0.15
-4 -12 18 0.3 0.11
-4 -12 19 8.36 0.54
-4 -12 20 0.56 0.14
-4 -12 23 0.46 0.25
-4 -11 1 0.37 0.13
-4 -11 2 12.95 0.33
-4 -11 3 11.09 0.22
-4 -11 4 0.83 0.12
-4 -11 5 1.79 0.17
-4 -11 6 1.67 0.2
-4 -11 8 3.18 0.19
-4 -11 9 10.53 0.37
-4 -11 10 3.71 0.32
-4 -11 11 0.21 0.19
-4 -11 12 11.74 0.44
-4 -11 13 2.08 0.16
-4 -11 14 21.9 1.25
-4 -11 15 0.46 0.18
-4 -11 16 0.23 0.17
-4 -11 17 4.28 0.23
-4 -11 19 0.42 0.19
-4 -11 20 0.69 0.11
-4 -11 21 3.69 0.21
-4 -11 23 1.78 0.2
-4 -10 1 13.05 0.18
-4 -10 2 10.33 0.28
-4 -10 3 13.7 0.25
-4 -10 4 5.47 0.21
-4 -10 5 37.05 0.35
-4 -10 6 0.28 0.13
-4 -10 7 32.17 0.59
-4 -10 8 47.46 0.79
-4 -10 9 28.22 0.37
-4 -10 10 25.68 0.39
-4 -10 11 1.88 0.14
-4 -10 12 8.22 0.39
-4 -10 13 6.39 0.45
-4 -10 14 1.04 0.18
-4 -10 15 8.32 0.21
-4 -10 17 0.84 0.13
-4 -10 18 1.26 0.15
-4 -10 19 0.32 0.23
-4 -10 20 1.76 0.37
-4 -9 1 6.28 0.14
-4 -9 2 11.53 0.16
-4 -9 3 0.2 0.11
-4 -9 4 37.05 0.34
-4 -9 5 4.61 0.13
-4 -9 6 6.99 0.15
-4 -9 7 23.45 0.27
-4 -9 8 14.23 0.22
-4 -9 9 50.57 0.5
-4 -9 10 13.27 0.21
-4 -9 11 12.27 0.28
-4 -9 13 1.08 0.16
-4 -9 14 13.39 0.34
-4 -9 15 7.37 0.32
-4 -9 16 1.26 0.25
-4 -9 17 2.86 0.16
-4 -9 18 0.29 0.14
-4 -9 20 5.03 0.14
-4 -9 21 0.49 0.44
-4 -9 23 0.32 0.08
-4 -8 1 7.85 0.14
-4 -8 2 4.22 0.12
-4 -8 3 38.18 0.36
-4 -8 4 3.35 0.15
-4 -8 5 8.2 0.17
-4 -8 6 96.2 0.93
-4 -8 7 423.63 4.77
-4 -8 8 1.22 0.11
-4 -8 9 17.57 0.23
-4 -8 10 63.06 0.7
-4 -8 11 13.45 0.2
-4 -8 12 11.76 0.28
-4 -8 13 9.04 0.43
-4 -8 16 4.21 0.25
-4 -8 17 5.42 0.14
-4 -8 18 2.21 0.15
-4 -8 19 2.29 0.21
-4 -8 20 1.45 0.14
-4 -8 21 1 0.1
-4 -8 22 0.56 0.29
-4 -8 23 3 0.26
-4 -7 1 6.82 0.15
-4 -7 2 0.41 0.21
-4 -7 3 9.68 0.35
-4 -7 4 3.12 0.19
-4 -7 5 0.81 0.2
-4 -7 6 44.18 0.52
-4 -7 7 1.88 0.16
-4 -7 8 4.65 0.2
-4 -7 9 2.41 0.15
-4 -7 10 0.3 0.16
-4 -7 12 15 0.23
-4 -7 14 0.22 0.16
-4 -7 15 0.53 0.16
-4 -7 17 3.88 0.13
-4 -7 18 4.58 0.25
-4 -7 23 2.08 0.24
-4 -6 1 1.73 0.32
-4 -6 2 24.92 0.5
-4 -6 3 6.78 0.23
-4 -6 5 32.67 0.4
-4 -6 6 77.63 0.77
-4 -6 7 10.17 0.17
-4 -6 8 82.16 1
-4 -6 9 18.66 0.24
-4 -6 10 24.87 0.3
-4 -6 11 1.4 0.13
-4 -6 12 27.81 0.37
-4 -6 13 89.2 0.9
-4 -6 14 12.4 0.26
-4 -6 15 2.43 0.18
-4 -6 16 37.73 0.45
-4 -6 17 9.29 0.21
-4 -6 18 1.3 0.57
-4 -6 19 5.56 0.14
-4 -6 20 0.69 0.28
-4 -6 21 1.1 0.1
-4 -6 22 2.12 0.27
-4 -5 1 7.99 0.27
-4 -5 2 6.76 0.17
-4 -5 3 11.16 0.25
-4 -5 4 2.85 0.2
-4 -5 5 0.29 0.17
-4 -5 6 9.51 0.17
-4 -5 7 5.88 0.16
-4 -5 8 16.73 0.24
-4 -5 9 45.22 0.51
-4 -5 10 8.16 0.23
-4 -5 11 26.86 0.28
-4 -5 13 15.75 0.27
-4 -5 14 4.06 0.17
-4 -5 15 8.81 0.21
-4 -5 16 0.48 0.17
-4 -5 17 2.31 0.13
-4 -5 18 2.55 0.12
-4 -4 1 9.98 0.29
-4 -4 2 109.28 1.01
-4 -4 3 19.79 0.3
-4 -4 4 3.65 0.23
-4 -4 5 89.07 0.77
-4 -4 6 8.3 0.17
-4 -4 7 14.56 0.21
-4 -4 8 1.46 0.15
-4 -4 9 40.46 0.69
-4 -4 10 10.66 0.21
-4 -4 11 99.32 1.27
-4 -4 12 5.48 0.13
-4 -4 13 13.75 0.22
-4 -4 14 49.85 0.87
-4 -4 15 74.75 0.99
-4 -4 16 1.52 0.96
-4 -4 17 2.63 0.22
-4 -4 19 0.85 0.38
-4 -4 20 2.72 0.35
-4 -3 1 90.86 0.83
-4 -3 2 63 0.8
-4 -3 3 40.24 0.61
-4 -3 4 69.93 0.76
-4 -3 5 25.8 0.26
-4 -3 6 128.85 1.35
-4 -3 7 137.48 1.42
-4 -3 8 1.41 0.14
-4 -3 9 131.33 1.24
-4 -3 10 47.17 0.56
-4 -3 11 39 0.42
-4 -3 12 43.07 0.58
-4 -3 13 7.23 0.15
-4 -3 14 2.33 0.19
-4 -3 17 5.52 0.41
-4 -3 18 0.64 0.42
-4 -3 19 2.46 0.37
-4 -3 21 0.42 0.28
-4 -2 1 20.78 0.22
-4 -2 2 71.79 0.62
-4 -2 4 238.91 2.22
-4 -2 5 15.13 0.24
-4 -2 6 53.75 0.68
-4 -2 7 25.67 0.24
-4 -2 8 81.87 0.67
-4 -2 9 1.09 0.14
-4 -2 10 1.67 0.11
-4 -2 11 8.87 0.2
-4 -2 12 5.97 0.23
-4 -2 13 0.52 0.12
-4 -2 14 30.07 0.44
-4 -2 16 0.41 0.39
-4 -2 18 6.16 0.17
-4 -2 19 0.83 0.36
-4 -2 20 0.87 0.31
-4 -1 1 358.42 2.8
-4 -1 2 124.01 1.15
-4 -1 3 17.59 0.25
-4 -1 4 122.58 1.17
-4 -1 5 6.29 0.23
-4 -1 6 0.55 0.11
-4 -1 7 81.58 0.67
-4 -1 8 120.23 1.03
-4 -1 10 0.25 0.12
-4 -1 11 21.56 0.27
-4 -1 12 7.16 0.21
-4 -1 13 37.24 0.48
-4 -1 15 17.07 0.35
-4 -1 16 2.48 0.39
-4 0 1 259.7 2.13
-4 0 2 70.77 0.61
-4 0 3 1.64 0.14
-4 0 4 4.99 0.12
-4 0 5 25.03 0.38
-4 0 6 319.51 2.75
-4 0 7 111.13 0.9
-4 0 8 0.8 0.16
-4 0 10 62.48 0.62
-4 0 11 20.88 0.43
-4 0 12 14.02 0.29
-4 0 13 3.17 0.21
-4 0 14 0.8 0.28
-4 0 15 9.35 0.43
-4 0 16 4.36 0.43
-4 0 17 1.33 0.43
-4 0 19 0.95 0.31
-4 1 0 91.89 0.77
-4 1 1 82.97 0.86
-4 1 2 34.66 0.39
-4 1 3 77.93 1.23
-4 1 4 6.05 0.14
-4 1 5 33.47 0.42
-4 1 6 45.28 0.41
-4 1 7 143.42 1.39
-4 1 8 2.7 0.16
-4 1 10 8.7 0.42
-4 1 11 65.25 0.68
-4 1 12 5.58 0.17
-4 1 13 11.61 0.35
-4 1 14 16.29 0.49
-4 1 15 24.67 0.68
-4 1 16 0.87 0.14
-4 2 0 0.35 0.14
-4 2 1 173.41 1.56
-4 2 2 57.08 0.62
-4 2 3 16.19 0.2
-4 2 4 106.68 0.89
-4 2 5 0.67 0.11
-4 2 6 20.13 0.23
-4 2 7 6.58 0.19
-4 2 8 26.66 0.31
-4 2 9 36.87 0.53
-4 2 10 11.67 0.3
-4 2 11 4.81 0.17
-4 2 12 7.07 0.21
-4 2 13 19.5 0.48
-4 2 14 5.07 0.16
-4 2 15 4.04 0.15
-4 2 16 13.57 0.23
-4 2 18 0.53 0.39
-4 3 0 70.98 0.61
-4 3 1 308.48 2.66
-4 3 2 65.83 0.55
-4 3 3 15.87 0.31
-4 3 4 20.73 0.27
-4 3 5 59.96 0.62
-4 3 6 21.68 0.25
-4 3 7 2.5 0.17
-4 3 8 0.64 0.19
-4 3 9 4.75 0.24
-4 3 10 1.77 0.32
-4 3 11 15.1 0.35
-4 3 12 11.27 0.23
-4 3 13 1.41 0.37
-4 3 14 2.35 0.19
-4 3 16 4.96 0.49
-4 4 0 69.1 0.61
-4 4 1 529.83 4.62
-4 4 2 28.16 0.28
-4 4 3 105.29 0.9
-4 4 4 16.99 0.23
-4 4 5 5.21 0.17
-4 4 6 28.11 0.32
-4 4 7 11.83 0.28
-4 4 8 3.71 0.59
-4 4 9 13.56 1.25
-4 4 10 3.91 0.27
-4 4 11 0.32 0.3
-4 4 12 5.08 0.38
-4 4 14 13.88 0.22
-4 4 15 0.54 0.3
-4 4 16 0.31 0.25
-4 4 18 0.37 0.24
-4 5 0 16.54 0.2
-4 5 1 20.09 0.24
-4 5 2 78.42 0.72
-4 5 3 19.47 0.25
-4 5 4 19.36 0.34
-4 5 5 114.51 1
-4 5 6 2.88 0.14
-4 5 9 73.96 1.34
-4 5 10 2.5 0.3
-4 5 12 6.26 0.19
-4 5 13 3.78 0.28
-4 5 14 2.94 0.51
-4 5 15 16.18 0.48
-4 5 17 3.31 0.34
-4 6 0 4.22 0.12
-4 6 1 0.52 0.15
-4 6 2 0.25 0.13
-4 6 3 0.42 0.13
-4 6 4 4.35 0.14
-4 6 5 5.23 0.17
-4 6 6 14.77 0.23
-4 6 7 45.1 0.54
-4 6 8 1.79 0.27
-4 6 9 14.38 0.36
-4 6 10 5.31 0.34
-4 6 11 0.35 0.19
-4 6 14 2.94 0.37
-4 6 15 4.42 0.4
-4 7 0 101.12 0.86
-4 7 1 2.05 0.2
-4 7 2 1.35 0.11
-4 7 3 0.42 0.1
-4 7 4 28.18 0.35
-4 7 5 111.95 1.14
-4 7 6 8.39 0.2
-4 7 7 15.24 0.51
-4 7 8 56.46 0.98
-4 7 9 6.82 0.33
-4 7 10 0.79 0.42
-4 7 11 8.44 0.17
-4 7 12 1.13 0.11
-4 7 13 3.82 0.16
-4 7 14 1.79 0.31
-4 7 15 3.8 0.38
-4 8 0 18.18 0.33
-4 8 1 11.67 0.26
-4 8 2 10.4 0.19
-4 8 3 58.93 0.51
-4 8 4 15.02 0.24
-4 8 5 61.41 1.12
-4 8 7 0.7 0.21
-4 8 8 2.47 0.66
-4 8 9 8.65 0.23
-4 8 10 0.5 0.15
-4 8 11 0.5 0.15
-4 8 12 10.86 0.61
-4 9 0 78.82 0.69
-4 9 1 14.41 0.39
-4 9 2 17.78 0.29
-4 9 3 61.42 0.77
-4 9 4 8.77 0.26
-4 9 5 11.65 0.34
-4 9 6 35.03 0.75
-4 9 9 1.56 0.16
-4 9 10 2.68 0.15
-4 9 12 2.11 0.36
-4 10 0 10.15 0.18
-4 10 1 53.24 0.82
-4 10 2 15.17 0.35
-4 10 3 7.64 0.22
-4 10 4 12.74 0.28
-4 10 5 7.65 0.28
-4 10 6 1.16 0.39
-4 10 7 1.15 0.2
-4 10 8 6.71 0.18
-4 10 9 3.77 0.2
-4 10 10 1.49 0.17
-4 11 0 13.54 0.55
-4 11 1 0.28 0.19
-4 11 2 5.42 0.2
-4 11 3 2.13 0.36
-4 11 4 3.45 0.38
-4 11 5 1.95 0.16
-4 11 6 0.29 0.14
-4 11 7 0.38 0.18
-4 11 8 0.96 0.14
-4 11 9 5.78 0.2
-4 11 11 0.64 0.3
-4 11 12 1.31 0.23
-4 12 0 3.22 0.19
-4 12 1 4.37 0.18
-4 12 2 1.14 0.37
-4 12 3 8.32 0.2
-4 12 5 17.1 0.26
-4 12 6 0.19 0.17
-4 12 7 10.52 0.28
-4 12 8 0.57 0.12
-4 12 9 4.79 0.44
-4 12 10 9.7 0.13
-4 13 0 2.22 0.39
-4 13 1 1.76 0.14
-4 13 2 12.98 0.5
-4 13 3 3.66 0.18
-4 13 5 0.48 0.42
-4 13 6 0.35 0.13
-4 13 7 5.44 0.36
-4 13 8 1.69 0.31
-4 14 0 1.27 0.13
-4 14 1 0.45 0.14
-4 14 2 5.34 0.18
-4 14 3 2.94 0.39
-4 14 5 4.04 0.37
-4 14 7 6.73 0.14
-4 15 0 1.91 0.14
-4 15 1 0.44 0.4
-4 15 2 2.28 0.37
-4 15 3 1.87 0.37
-4 15 5 1.71 0.32
-4 16 2 1.1 0.33
-4 16 3 5.46 0.35
-4 16 4 0.88 0.29
-4 17 0 3.01 0.33
-4 17 1 1.85 0.31
-4 17 2 0.95 0.29
-4 18 1 3.38 0.27
-3 -20 16 0.48 0.29
-3 -19 10 1 0.38
-3 -19 13 10.11 0.46
-3 -19 14 2.46 0.39
-3 -18 7 1.11 0.4
-3 -18 11 0.49 0.44
-3 -18 12 0.54 0.42
-3 -18 13 0.76 0.43
-3 -18 14 2.08 0.15
-3 -18 15 0.68 0.41
-3 -18 16 0.19 0.13
-3 -17 6 3.96 0.44
-3 -17 10 0.84 0.45
-3 -17 11 1.18 0.45
-3 -17 12 15.21 0.58
-3 -17 13 1.03 0.16
-3 -17 14 1.18 0.16
-3 -17 15 1.56 0.4
-3 -17 16 2.38 0.39
-3 -16 4 9.73 0.51
-3 -16 5 1.04 0.51
-3 -16 6 2.24 0.51
-3 -16 7 1.44 0.47
-3 -16 8 0.65 0.48
-3 -16 13 3.69 0.2
-3 -16 15 0.14 0.11
-3 -16 19 0.88 0.33
-3 -16 20 0.75 0.31
-3 -15 3 8.1 0.51
-3 -15 4 14.13 0.55
-3 -15 5 4.45 0.48
-3 -15 6 0.92 0.31
-3 -15 10 0.7 0.43
-3 -15 12 0.39 0.15
-3 -15 13 0.16 0.15
-3 -15 14 0.97 0.14
-3 -15 15 7.45 0.14
-3 -15 16 1.06 0.12
-3 -15 17 3.56 0.16
-3 -15 18 1.52 0.38
-3 -15 20 1.16 0.16
-3 -15 22 1.16 0.08
-3 -14 2 1.15 0.19
-3 -14 3 1.68 0.44
-3 -14 4 1.76 0.46
-3 -14 5 51.42 1.2
-3 -14 6 4.35 0.21
-3 -14 7 1.1 0.31
-3 -14 8 1.5 0.21
-3 -14 9 4.28 0.4
-3 -14 10 2.7 0.64
-3 -14 12 5.72 0.22
-3 -14 13 1.01 0.17
-3 -14 14 0.88 0.14
-3 -14 15 2.11 0.12
-3 -14 16 4.58 0.32
-3 -14 17 3.71 0.2
-3 -14 18 1.46 0.15
-3 -14 19 3.9 0.17
-3 -14 20 0.27 0.16
-3 -14 21 0.77 0.29
-3 -14 22 1.06 0.26
-3 -13 3 1.38 0.16
-3 -13 4 15.05 0.28
-3 -13 5 1.33 0.15
-3 -13 6 5.48 0.16
-3 -13 7 5.57 0.3
-3 -13 8 13.78 0.27
-3 -13 10 8.17 0.23
-3 -13 11 1.21 0.2
-3 -13 12 6.83 0.23
-3 -13 13 0.31 0.21
-3 -13 15 1 0.15
-3 -13 16 0.34 0.17
-3 -13 17 2.6 0.12
-3 -13 18 1.28 0.17
-3 -13 19 0.29 0.15
-3 -13 20 3.11 0.13
-3 -13 21 2.27 0.33
-3 -13 23 0.14 0.08
-3 -12 2 4.62 0.22
-3 -12 3 37.69 0.39
-3 -12 4 2.28 0.11
-3 -12 5 0.17 0.13
-3 -12 6 12.94 0.36
-3 -12 7 43.6 0.64
-3 -12 9 1.2 0.16
-3 -12 10 2.76 0.2
-3 -12 11 23.62 0.59
-3 -12 12 1.29 0.14
-3 -12 14 13.97 0.23
-3 -12 15 8.53 0.43
-3 -12 16 0.42 0.13
-3 -12 17 2.16 0.18
-3 -12 18 3.08 0.16
-3 -12 19 1.48 0.16
-3 -11 1 3.12 0.19
-3 -11 3 88.05 0.74
-3 -11 4 18.31 0.24
-3 -11 5 11.35 0.27
-3 -11 6 12.2 0.23
-3 -11 7 29.28 0.34
-3 -11 8 16.33 0.49
-3 -11 10 5.71 0.2
-3 -11 11 0.28 0.13
-3 -11 12 5.71 0.34
-3 -11 13 24.96 0.81
-3 -11 14 20.68 0.59
-3 -11 15 1.92 0.32
-3 -11 18 0.39 0.17
-3 -11 19 1.37 0.13
-3 -11 20 0.32 0.11
-3 -11 21 0.73 0.12
-3 -11 22 0.6 0.1
-3 -10 1 32.19 0.31
-3 -10 2 1.83 0.15
-3 -10 3 71.34 0.59
-3 -10 4 2.82 0.11
-3 -10 5 6.94 0.19
-3 -10 6 0.82 0.11
-3 -10 7 5.61 0.18
-3 -10 8 16.55 0.42
-3 -10 9 5.94 0.22
-3 -10 10 7.36 0.34
-3 -10 11 10.86 0.43
-3 -10 12 0.24 0.15
-3 -10 13 51.9 0.53
-3 -10 14 19.38 0.69
-3 -10 15 0.44 0.17
-3 -10 16 4.09 0.38
-3 -10 17 15.46 0.23
-3 -10 18 4.62 0.13
-3 -10 20 0.94 0.11
-3 -10 21 1.06 0.1
-3 -10 22 0.3 0.1
-3 -9 1 13.75 0.18
-3 -9 3 0.17 0.09
-3 -9 4 6.54 0.15
-3 -9 5 0.94 0.13
-3 -9 6 15.16 0.29
-3 -9 7 8.5 0.19
-3 -9 8 0.13 0.13
-3 -9 9 9.94 0.17
-3 -9 10 19.79 0.31
-3 -9 12 39.44 0.76
-3 -9 13 16.2 0.42
-3 -9 15 9.58 0.28
-3 -9 17 1.16 0.15
-3 -9 18 0.21 0.12
-3 -9 19 7.29 0.16
-3 -9 20 5.53 0.17
-3 -9 21 4.77 0.46
-3 -8 1 14.97 0.17
-3 -8 2 5.34 0.16
-3 -8 3 94.81 1.2
-3 -8 4 1.66 0.16
-3 -8 5 26.9 0.38
-3 -8 6 76.33 0.95
-3 -8 7 133.21 1.95
-3 -8 8 35.39 0.37
-3 -8 9 1.04 0.15
-3 -8 10 15.46 0.2
-3 -8 11 13.43 0.26
-3 -8 12 3.65 0.15
-3 -8 13 21.88 0.29
-3 -8 16 7.66 0.2
-3 -8 18 2.58 0.12
-3 -8 19 0.55 0.24
-3 -8 20 0.22 0.17
-3 -7 1 17.52 0.25
-3 -7 2 72.54 0.69
-3 -7 3 1.63 0.14
-3 -7 4 15.36 0.25
-3 -7 5 2.95 0.13
-3 -7 6 97.79 0.88
-3 -7 7 102.73 1.03
-3 -7 8 4.35 0.14
-3 -7 9 27.41 0.33
-3 -7 10 3.84 0.22
-3 -7 11 13.92 0.21
-3 -7 12 25.8 0.42
-3 -7 13 4.51 0.17
-3 -7 14 5.13 0.22
-3 -7 15 6.5 0.38
-3 -7 16 0.83 0.18
-3 -7 17 0.86 0.18
-3 -7 18 8.63 0.19
-3 -7 19 0.95 0.13
-3 -7 21 0.42 0.11
-3 -7 22 2.33 0.29
-3 -6 1 42.93 0.47
-3 -6 2 75.63 0.8
-3 -6 3 57.54 0.52
-3 -6 4 34.75 0.33
-3 -6 5 1030.5 11.21
-3 -6 6 152.46 1.24
-3 -6 7 132.12 1.08
-3 -6 8 75.81 0.68
-3 -6 9 71.89 0.63
-3 -6 10 3.78 0.15
-3 -6 11 31.13 0.39
-3 -6 12 0.28 0.14
-3 -6 13 4.69 0.16
-3 -6 14 11.43 0.22
-3 -6 15 2.96 0.17
-3 -6 16 3.3 0.3
-3 -6 17 6.06 0.25
-3 -6 18 1.33 0.15
-3 -6 19 4.71 0.13
-3 -6 20 1.81 0.13
-3 -6 21 2.9 0.31
-3 -6 22 3.3 0.27
-3 -5 1 45 0.84
-3 -5 2 0.61 0.12
-3 -5 3 0.32 0.14
-3 -5 4 50.86 0.66
-3 -5 5 8.86 0.22
-3 -5 6 12.29 0.18
-3 -5 7 0.48 0.17
-3 -5 8 1.04 0.13
-3 -5 10 23.02 0.41
-3 -5 11 6.45 0.19
-3 -5 13 0.83 0.17
-3 -5 16 15.38 0.4
-3 -5 17 0.17 0.14
-3 -5 21 7.27 0.36
-3 -4 1 10.97 0.2
-3 -4 2 2.79 0.16
-3 -4 3 22.78 0.35
-3 -4 4 454.28 4.26
-3 -4 5 47.64 0.82
-3 -4 6 113.41 1.05
-3 -4 7 43.55 0.41
-3 -4 8 68.57 0.84
-3 -4 10 8.73 0.2
-3 -4 11 186.09 2.15
-3 -4 12 0.96 0.14
-3 -4 13 1.91 0.19
-3 -4 14 39.25 0.43
-3 -4 15 37.36 0.74
-3 -4 16 0.24 0.17
-3 -4 17 2.98 0.31
-3 -4 18 3.11 0.14
-3 -4 19 0.92 0.41
-3 -4 20 5.79 0.37
-3 -3 1 74.85 0.84
-3 -3 2 1.1 0.11
-3 -3 4 6.35 0.14
-3 -3 5 6.16 0.21
-3 -3 6 168.5 1.33
-3 -3 7 80.18 0.83
-3 -3 9 40.11 0.38
-3 -3 10 10.95 0.18
-3 -3 11 50.65 0.57
-3 -3 12 9.25 0.18
-3 -3 13 13.38 0.22
-3 -3 14 0.89 0.16
-3 -3 15 3.47 0.18
-3 -3 16 9.41 0.42
-3 -3 17 1.28 0.39
-3 -3 18 8.43 0.38
-3 -3 19 0.62 0.37
-3 -2 1 3.5 0.09
-3 -2 2 18.25 0.23
-3 -2 3 157.05 1.23
-3 -2 4 2.13 0.19
-3 -2 5 3.82 0.2
-3 -2 6 33.83 0.37
-3 -2 7 79.88 0.78
-3 -2 8 52.26 0.49
-3 -2 9 94.57 0.81
-3 -2 10 70.81 0.71
-3 -2 11 36.17 0.42
-3 -2 12 25.7 0.33
-3 -2 13 113.8 1.19
-3 -2 14 27.75 0.6
-3 -2 15 7.34 0.39
-3 -2 16 2.94 0.38
-3 -2 18 7.61 0.42
-3 -1 1 232.25 1.72
-3 -1 2 82.95 0.77
-3 -1 3 12.4 0.26
-3 -1 4 540.42 4.71
-3 -1 5 172.02 1.42
-3 -1 6 46.84 0.4
-3 -1 7 142.82 1.09
-3 -1 8 219.7 1.76
-3 -1 9 64.71 0.67
-3 -1 10 13.71 0.2
-3 -1 11 43.28 0.49
-3 -1 12 3.23 0.15
-3 -1 13 4.27 0.34
-3 -1 14 1.98 0.33
-3 -1 15 3.53 0.35
-3 -1 16 0.4 0.23
-3 -1 17 5.54 0.41
-3 -1 18 0.58 0.38
-3 -1 19 1.67 0.33
-3 0 1 138.17 1.16
-3 0 2 472.89 3.65
-3 0 3 51.92 0.71
-3 0 4 185.33 1.76
-3 0 5 1 0.11
-3 0 6 152.81 1.37
-3 0 7 1.31 0.09
-3 0 8 8.77 0.22
-3 0 9 24.22 0.29
-3 0 10 7.92 0.15
-3 0 11 0.28 0.13
-3 0 12 43.2 0.45
-3 0 13 4.37 0.25
-3 0 15 1.49 0.22
-3 0 16 7.89 0.52
-3 1 0 19.64 0.21
-3 1 1 70.88 0.72
-3 1 2 84 0.85
-3 1 3 126.55 1.33
-3 1 4 14.58 0.21
-3 1 5 54.19 0.45
-3 1 6 168.02 1.79
-3 1 7 34.52 0.41
-3 1 8 11.88 0.22
-3 1 9 27.48 0.38
-3 1 10 4.7 0.22
-3 1 11 56.27 0.55
-3 1 12 1.32 0.15
-3 1 13 9.63 0.21
-3 1 14 17.55 0.51
-3 1 15 10.12 0.26
-3 1 16 6.68 0.19
-3 1 17 1.34 0.49
-3 1 19 0.61 0.28
-3 2 0 29.88 0.31
-3 2 1 43.31 0.41
-3 2 2 32.27 0.46
-3 2 3 91.11 0.87
-3 2 4 200.79 1.6
-3 2 5 279.6 2.33
-3 2 6 18.47 0.21
-3 2 7 4.37 0.18
-3 2 8 73.21 0.77
-3 2 9 0.92 0.18
-3 2 10 41.15 0.53
-3 2 11 4.55 0.17
-3 2 12 0.24 0.18
-3 2 13 14.48 0.41
-3 2 14 0.59 0.18
-3 2 15 9.88 0.18
-3 2 16 9.34 0.43
-3 2 17 1.87 0.46
-3 3 0 46.78 0.63
-3 3 1 54.86 0.77
-3 3 2 4.32 0.16
-3 3 3 37.68 0.32
-3 3 4 2.46 0.14
-3 3 5 235.91 2.84
-3 3 6 6.36 0.18
-3 3 8 30.81 0.39
-3 3 9 56.35 1.57
-3 3 10 32.84 0.48
-3 3 11 3.76 0.31
-3 3 12 36.98 0.7
-3 3 13 15.47 0.5
-3 3 14 2.03 0.16
-3 3 15 16.38 0.33
-3 3 16 15.52 0.58
-3 4 0 0.81 0.14
-3 4 1 100.39 1.03
-3 4 2 98.88 0.77
-3 4 4 11.49 0.17
-3 4 5 15.67 0.27
-3 4 6 10.15 0.35
-3 4 7 86.9 0.93
-3 4 8 13.6 0.47
-3 4 9 4.38 0.25
-3 4 10 1.48 0.26
-3 4 11 19.53 0.39
-3 4 12 24.32 0.58
-3 4 13 10.52 0.47
-3 4 14 9.98 0.27
-3 4 15 2.21 0.49
-3 5 0 5.16 0.12
-3 5 1 40.98 0.34
-3 5 2 7.99 0.16
-3 5 3 59.39 0.5
-3 5 5 7.27 0.2
-3 5 6 0.43 0.13
-3 5 7 1.87 0.15
-3 5 8 2.01 0.25
-3 5 9 16.95 0.36
-3 5 10 10.77 0.61
-3 5 11 5.77 0.9
-3 5 12 2.89 0.18
-3 5 13 0.21 0.12
-3 5 15 23.96 0.64
-3 6 0 7.17 0.13
-3 6 1 84.82 0.67
-3 6 2 51.3 0.43
-3 6 3 8.32 0.24
-3 6 4 30.09 0.3
-3 6 5 6.43 0.15
-3 6 6 0.5 0.17
-3 6 7 4.89 0.17
-3 6 8 4.68 0.27
-3 6 9 1.43 0.44
-3 6 10 5.19 0.64
-3 6 12 7.7 0.21
-3 6 13 5.14 0.13
-3 6 14 0.21 0.14
-3 6 16 0.33 0.27
-3 7 0 45.04 0.46
-3 7 1 32.18 0.31
-3 7 2 0.17 0.13
-3 7 3 114.88 0.99
-3 7 4 11.18 0.25
-3 7 5 0.91 0.15
-3 7 6 9.16 0.21
-3 7 7 60.65 0.73
-3 7 8 8.63 0.32
-3 7 9 6.81 0.71
-3 7 10 5.66 0.17
-3 7 11 9.91 0.18
-3 7 12 6.21 0.13
-3 7 13 9.94 0.27
-3 7 14 4.04 0.13
-3 7 15 2.5 0.37
-3 8 1 0.73 0.12
-3 8 2 3.63 0.16
-3 8 4 0.69 0.15
-3 8 5 46.18 0.62
-3 8 6 0.41 0.17
-3 8 7 3.5 0.32
-3 8 8 15.97 0.38
-3 8 11 1.67 0.13
-3 8 12 5.28 0.17
-3 9 0 0.38 0.12
-3 9 1 1.2 0.12
-3 9 2 6.49 0.36
-3 9 3 120.91 1.15
-3 9 5 0.34 0.18
-3 9 6 53.23 0.61
-3 9 7 16.44 0.39
-3 9 8 0.25 0.16
-3 9 9 3.85 0.2
-3 9 10 2.74 0.16
-3 9 11 0.95 0.23
-3 9 12 7.08 0.37
-3 9 13 1.91 0.38
-3 10 0 0.74 0.14
-3 10 1 30.68 0.38
-3 10 2 35.93 0.66
-3 10 3 37.4 0.71
-3 10 4 2.5 0.19
-3 10 7 3.49 0.18
-3 10 10 9.03 0.19
-3 10 11 0.28 0.14
-3 11 0 24.03 0.38
-3 11 1 18.34 0.69
-3 11 2 35.86 0.7
-3 11 3 12.88 0.47
-3 11 5 30.38 0.32
-3 11 6 5 0.18
-3 11 7 4.16 0.17
-3 11 8 1.93 0.17
-3 12 0 29.6 0.67
-3 12 1 3.95 0.37
-3 12 2 1.12 0.36
-3 12 3 9.86 0.46
-3 12 4 0.78 0.18
-3 12 6 4.47 0.16
-3 12 7 4.16 0.39
-3 12 9 1.91 0.14
-3 12 10 0.36 0.31
-3 13 0 5.25 0.21
-3 13 1 0.86 0.39
-3 13 2 2.07 0.18
-3 13 6 0.95 0.14
-3 13 7 2.49 0.31
-3 14 0 0.34 0.17
-3 14 1 8.66 0.24
-3 14 3 10.81 0.2
-3 14 4 0.47 0.41
-3 14 6 3.92 0.34
-3 14 7 4.28 0.32
-3 14 8 3.07 0.08
-3 15 0 8.85 0.15
-3 15 2 13.78 0.49
-3 15 4 0.54 0.36
-3 15 6 2.77 0.28
-3 16 2 1.5 0.36
-3 16 3 1.29 0.34
-3 17 0 2.11 0.34
-2 -20 8 0.76 0.3
-2 -20 9 0.34 0.31
-2 -20 10 0.42 0.33
-2 -19 7 0.4 0.37
-2 -19 13 1.35 0.36
-2 -19 16 1.06 0.31
-2 -18 7 0.72 0.42
-2 -18 10 0.93 0.43
-2 -18 13 1.18 0.43
-2 -18 14 0.53 0.18
-2 -17 6 0.24 0.18
-2 -17 8 4.48 0.35
-2 -17 11 18.71 0.63
-2 -17 12 19.59 0.39
-2 -17 13 1.13 0.14
-2 -17 14 0.39 0.16
-2 -16 4 1.23 0.5
-2 -16 5 2.79 0.48
-2 -16 7 2 0.19
-2 -16 9 2.65 0.49
-2 -16 10 3.08 0.2
-2 -16 11 2.81 0.15
-2 -16 12 1.69 0.15
-2 -16 13 5.59 0.33
-2 -16 14 0.34 0.17
-2 -16 15 0.5 0.16
-2 -16 16 1.21 0.41
-2 -16 19 0.17 0.11
-2 -15 1 0.59 0.5
-2 -15 3 2.71 0.46
-2 -15 4 9.8 0.52
-2 -15 6 2.81 0.45
-2 -15 10 38.23 0.74
-2 -15 11 8.21 0.43
-2 -15 12 2.57 0.24
-2 -15 13 2.27 0.23
-2 -15 14 7.22 0.45
-2 -15 15 0.29 0.14
-2 -15 17 4.65 0.39
-2 -15 18 0.71 0.13
-2 -15 21 0.9 0.14
-2 -14 2 14.12 0.56
-2 -14 3 5.61 0.46
-2 -14 4 2.11 0.2
-2 -14 5 7.88 0.24
-2 -14 6 0.57 0.31
-2 -14 8 0.97 0.19
-2 -14 9 0.22 0.2
-2 -14 10 0.79 0.15
-2 -14 11 12.12 0.2
-2 -14 15 0.19 0.18
-2 -14 17 4.42 0.17
-2 -14 18 1.56 0.13
-2 -14 20 0.58 0.19
-2 -13 1 23.98 0.36
-2 -13 2 9.43 0.25
-2 -13 3 17.88 0.63
-2 -13 4 5.1 0.41
-2 -13 6 9.06 0.21
-2 -13 7 0.32 0.17
-2 -13 9 0.53 0.15
-2 -13 10 2.75 0.17
-2 -13 13 21.1 0.43
-2 -13 14 9.03 0.2
-2 -13 15 3.43 0.17
-2 -13 16 7.33 0.16
-2 -13 18 2.17 0.49
-2 -13 19 3.19 0.12
-2 -13 20 4.5 0.14
-2 -13 21 0.74 0.11
-2 -12 1 8.84 0.43
-2 -12 2 0.54 0.17
-2 -12 3 84.48 0.76
-2 -12 4 31.55 0.62
-2 -12 5 4.32 0.17
-2 -12 7 17.24 0.26
-2 -12 8 2.48 0.13
-2 -12 10 11.85 0.32
-2 -12 12 4.74 0.17
-2 -12 13 0.57 0.19
-2 -12 14 16.72 0.63
-2 -12 15 5.16 0.4
-2 -12 16 0.16 0.13
-2 -12 17 13.39 0.21
-2 -12 19 5.76 0.52
-2 -12 20 0.5 0.11
-2 -12 21 1.15 0.32
-2 -12 23 0.37 0.3
-2 -11 1 1.69 0.2
-2 -11 2 21.13 0.43
-2 -11 3 23.21 0.27
-2 -11 4 14.39 0.21
-2 -11 5 3.49 0.12
-2 -11 6 25.82 0.36
-2 -11 7 9.34 0.31
-2 -11 8 14.12 0.19
-2 -11 9 1.83 0.12
-2 -11 10 30.95 0.39
-2 -11 11 0.79 0.15
-2 -11 12 0.22 0.18
-2 -11 13 2.02 0.16
-2 -11 14 5.65 0.22
-2 -11 15 8.36 0.28
-2 -11 16 1.38 0.38
-2 -11 17 1.56 0.25
-2 -11 18 4.57 0.13
-2 -11 19 6.31 0.16
-2 -11 20 4.23 0.36
-2 -10 1 29.32 0.38
-2 -10 2 24.11 0.23
-2 -10 4 7.84 0.16
-2 -10 5 83.92 0.96
-2 -10 6 7.93 0.14
-2 -10 7 0.63 0.1
-2 -10 9 47.33 0.72
-2 -10 10 7.4 0.23
-2 -10 12 7.64 0.33
-2 -10 13 33.1 0.63
-2 -10 14 0.2 0.18
-2 -10 15 1.6 0.18
-2 -10 16 5.02 0.38
-2 -10 17 7.27 0.14
-2 -10 19 0.19 0.13
-2 -10 20 0.17 0.11
-2 -10 22 0.46 0.22
-2 -9 1 192.99 1.62
-2 -9 2 1.24 0.11
-2 -9 3 53.47 0.55
-2 -9 4 2.71 0.17
-2 -9 5 117.53 1.2
-2 -9 6 16.05 0.33
-2 -9 7 0.62 0.14
-2 -9 8 10.98 0.23
-2 -9 9 0.41 0.11
-2 -9 10 2.16 0.12
-2 -9 11 33.4 0.6
-2 -9 12 70.31 0.81
-2 -9 14 0.89 0.16
-2 -9 16 1.32 0.18
-2 -9 17 1.55 0.22
-2 -9 18 2.34 0.12
-2 -9 19 0.96 0.18
-2 -9 21 6.03 0.16
-2 -9 22 0.13 0.11
-2 -9 23 0.39 0.24
-2 -8 1 125.9 1.21
-2 -8 2 16.86 0.29
-2 -8 3 4.44 0.31
-2 -8 4 17.16 0.34
-2 -8 5 22.7 0.56
-2 -8 6 44.07 0.61
-2 -8 7 2.1 0.23
-2 -8 8 9.51 0.18
-2 -8 9 42.81 0.63
-2 -8 10 1.96 0.11
-2 -8 11 56.63 0.8
-2 -8 12 61.62 0.6
-2 -8 13 11.12 0.21
-2 -8 14 17.79 0.26
-2 -8 15 15.05 0.25
-2 -8 16 21.19 0.31
-2 -8 17 0.77 0.57
-2 -8 18 2.75 0.12
-2 -8 19 1.8 0.17
-2 -8 21 1.98 0.12
-2 -8 22 0.94 0.29
-2 -7 1 11.75 0.2
-2 -7 2 8.41 0.24
-2 -7 3 22.77 0.36
-2 -7 4 21.91 0.36
-2 -7 5 0.79 0.1
-2 -7 6 27.43 0.36
-2 -7 7 43.24 0.46
-2 -7 8 15.47 0.21
-2 -7 9 4.83 0.15
-2 -7 10 26.5 0.44
-2 -7 11 88.44 0.8
-2 -7 13 13.6 0.22
-2 -7 15 3.74 0.18
-2 -7 17 7.07 0.25
-2 -7 18 23.15 0.5
-2 -7 19 5.47 0.13
-2 -7 20 0.79 0.13
-2 -7 21 1.73 0.37
-2 -7 22 0.83 0.27
-2 -6 1 162.24 1.43
-2 -6 2 17.46 0.22
-2 -6 3 23.47 0.36
-2 -6 4 63.15 0.52
-2 -6 5 437.4 3.69
-2 -6 6 5.26 0.18
-2 -6 7 39.52 0.35
-2 -6 8 16.85 0.27
-2 -6 9 25.64 0.39
-2 -6 10 6.96 0.2
-2 -6 11 39.54 0.38
-2 -6 12 2.75 0.14
-2 -6 13 3.61 0.15
-2 -6 14 19.34 0.27
-2 -6 15 1.06 0.16
-2 -6 16 2.43 0.22
-2 -6 17 2.18 0.17
-2 -6 18 0.15 0.16
-2 -6 19 0.58 0.23
-2 -6 21 6.08 0.18
-2 -6 22 2.65 0.26
-2 -5 1 0.54 0.14
-2 -5 2 6.86 0.36
-2 -5 3 32.58 0.42
-2 -5 4 369.68 3.13
-2 -5 5 124.16 0.98
-2 -5 6 2.28 0.12
-2 -5 7 41.72 0.37
-2 -5 8 42.86 0.39
-2 -5 9 45.31 0.49
-2 -5 10 22.05 0.3
-2 -5 11 0.14 0.12
-2 -5 12 7.38 0.17
-2 -5 13 16.59 0.24
-2 -5 14 3.23 0.16
-2 -5 15 3.09 0.27
-2 -5 16 7.6 0.29
-2 -5 17 8.06 0.15
-2 -5 20 3.43 0.13
-2 -5 21 2.03 0.3
-2 -4 1 93.01 1.19
-2 -4 2 22.03 0.22
-2 -4 3 1968.8 24.72
-2 -4 4 1612.21 17.03
-2 -4 5 407.39 3.64
-2 -4 6 30.6 0.29
-2 -4 7 214.79 1.86
-2 -4 8 16.98 0.31
-2 -4 9 93.41 0.9
-2 -4 10 4.18 0.18
-2 -4 11 16.46 0.21
-2 -4 12 13.54 0.27
-2 -4 13 0.32 0.15
-2 -4 14 2.2 0.16
-2 -4 15 15.04 0.27
-2 -4 16 1.72 0.71
-2 -4 17 10.45 0.39
-2 -4 18 2.21 0.16
-2 -4 19 0.81 0.41
-2 -4 20 7.19 0.4
-2 -3 1 1.37 0.09
-2 -3 2 84.2 0.65
-2 -3 3 40.45 0.63
-2 -3 4 5.87 0.13
-2 -3 5 19.7 0.22
-2 -3 6 14.01 0.22
-2 -3 8 17.43 0.2
-2 -3 9 38.1 0.45
-2 -3 10 0.32 0.16
-2 -3 11 1.07 0.13
-2 -3 13 1.92 0.19
-2 -3 14 28.33 0.54
-2 -3 15 1.56 0.19
-2 -3 17 1.38 0.17
-2 -3 18 3.42 0.25
-2 -3 19 11.56 0.18
-2 -3 20 2.52 0.32
-2 -3 21 0.5 0.27
-2 -2 1 22.89 0.3
-2 -2 2 1887.91 14.05
-2 -2 3 20.21 0.19
-2 -2 4 97.97 0.79
-2 -2 5 113.35 0.9
-2 -2 6 187.15 1.66
-2 -2 7 2.85 0.1
-2 -2 8 0.21 0.09
-2 -2 9 226.36 1.86
-2 -2 10 18.61 0.22
-2 -2 11 13.42 0.31
-2 -2 12 17.41 0.23
-2 -2 13 70.07 0.74
-2 -2 14 3.17 0.18
-2 -2 15 0.33 0.15
-2 -2 17 0.82 0.17
-2 -2 18 10.69 0.46
-2 -1 1 0.4 0.09
-2 -1 2 0.32 0.06
-2 -1 3 210.57 1.56
-2 -1 4 527.94 4.02
-2 -1 5 76.31 0.88
-2 -1 6 12.23 0.24
-2 -1 7 26.87 0.26
-2 -1 8 82.58 0.68
-2 -1 9 103.72 1
-2 -1 10 8.26 0.13
-2 -1 11 8.99 0.15
-2 -1 12 8.95 0.38
-2 -1 13 0.98 0.18
-2 -1 14 23.37 0.33
-2 -1 15 1.99 0.2
-2 -1 16 5.61 0.25
-2 -1 17 3.11 0.18
-2 -1 18 0.52 0.39
-2 -1 19 0.41 0.35
-2 0 1 318.67 2.24
-2 0 2 18.71 0.19
-2 0 3 0.48 0.11
-2 0 4 247.76 1.9
-2 0 5 149.07 1.34
-2 0 6 141.31 1.2
-2 0 7 29.89 0.35
-2 0 8 223.9 1.96
-2 0 9 35.9 0.36
-2 0 10 4.85 0.12
-2 0 11 105.99 1.02
-2 0 12 108.29 1.92
-2 0 13 4.53 0.31
-2 0 14 1.05 0.19
-2 0 16 13.31 0.48
-2 1 0 75.06 0.57
-2 1 1 7.21 0.13
-2 1 2 1521.07 10.9
-2 1 3 14.62 0.18
-2 1 4 381.23 3.02
-2 1 5 53.34 0.63
-2 1 6 472.92 4.38
-2 1 7 31.43 0.29
-2 1 8 4.79 0.16
-2 1 9 97.69 1.18
-2 1 10 0.42 0.13
-2 1 11 15.43 0.26
-2 1 12 0.65 0.15
-2 1 14 7.7 0.41
-2 1 15 6.81 0.41
-2 1 16 0.93 0.53
-2 2 0 370.76 2.67
-2 2 1 37.67 0.39
-2 2 2 490.6 3.65
-2 2 3 0.34 0.12
-2 2 4 122.64 1.23
-2 2 5 23.25 0.28
-2 2 6 44.57 0.66
-2 2 7 43.74 0.55
-2 2 8 4.31 0.27
-2 2 10 40.32 0.53
-2 2 11 16.93 0.26
-2 2 12 2.28 0.17
-2 2 13 2.77 0.43
-2 2 14 5.45 0.16
-2 2 15 1.28 0.15
-2 2 18 1.28 0.38
-2 3 0 7.72 0.14
-2 3 1 366.7 2.83
-2 3 2 14.45 0.23
-2 3 3 15.92 0.24
-2 3 4 130.24 1.02
-2 3 5 159.86 1.37
-2 3 6 27.58 0.59
-2 3 7 21.1 0.42
-2 3 8 2.14 0.18
-2 3 9 63.05 0.72
-2 3 10 5.61 0.5
-2 3 11 1.33 0.24
-2 3 12 37.06 0.42
-2 3 13 6.55 0.39
-2 3 14 1.85 0.23
-2 3 15 1.49 0.19
-2 4 0 88.88 0.87
-2 4 1 52.58 0.49
-2 4 2 31.41 0.32
-2 4 3 373.51 3.05
-2 4 4 85.89 0.72
-2 4 5 4.32 0.17
-2 4 6 34.41 0.39
-2 4 7 17.47 0.32
-2 4 8 58.04 0.9
-2 4 9 2.12 0.24
-2 4 10 1.62 0.28
-2 4 11 11.26 0.52
-2 4 12 3.64 0.37
-2 4 13 23.84 0.55
-2 4 14 6.45 0.43
-2 4 15 3.24 0.47
-2 5 0 0.6 0.14
-2 5 1 48.83 0.42
-2 5 2 1.6 0.15
-2 5 3 164.19 1.4
-2 5 4 49.02 0.45
-2 5 5 4.21 0.21
-2 5 6 54.23 0.5
-2 5 7 20.49 0.36
-2 5 8 71.77 1.05
-2 5 10 42.71 0.6
-2 5 11 1.79 0.31
-2 5 12 10.83 0.45
-2 5 13 9.11 0.2
-2 5 14 16.19 0.59
-2 5 15 3.02 0.44
-2 6 0 55.06 0.6
-2 6 1 1.8 0.1
-2 6 2 5.79 0.13
-2 6 3 31.92 0.31
-2 6 4 1.15 0.17
-2 6 5 123.02 1.09
-2 6 6 5.18 0.3
-2 6 7 0.79 0.16
-2 6 9 8.1 0.31
-2 6 10 52.68 1.72
-2 6 11 7.35 0.17
-2 6 12 1.01 0.54
-2 6 13 5.77 0.5
-2 6 14 1.25 0.14
-2 6 16 1.84 0.34
-2 7 0 1.52 0.11
-2 7 1 32.82 0.32
-2 7 2 10.62 0.15
-2 7 3 2.99 0.11
-2 7 4 0.94 0.13
-2 7 5 1.09 0.14
-2 7 6 14.57 0.31
-2 7 7 8.98 0.2
-2 7 8 8.5 0.31
-2 7 9 12.36 0.45
-2 7 10 2.04 0.22
-2 7 12 0.51 0.19
-2 7 13 24.63 0.67
-2 8 0 74.07 0.62
-2 8 1 2.87 0.12
-2 8 2 18.08 0.19
-2 8 3 0.41 0.12
-2 8 4 0.51 0.15
-2 8 5 1.06 0.16
-2 8 6 4.77 0.18
-2 8 7 2.44 0.63
-2 8 8 1.53 0.33
-2 8 9 1.25 0.22
-2 8 10 1.99 0.15
-2 8 11 9.06 0.25
-2 8 13 1.24 0.19
-2 9 0 9.71 0.17
-2 9 1 69.66 0.72
-2 9 2 16.52 0.33
-2 9 3 7.78 0.19
-2 9 4 16.52 0.27
-2 9 5 27.07 0.37
-2 9 6 16.15 0.26
-2 9 7 6.13 0.35
-2 9 8 3.27 0.22
-2 9 9 15.64 0.22
-2 9 10 4.18 0.35
-2 9 11 1.52 0.12
-2 9 12 10.87 0.49
-2 10 0 0.9 0.14
-2 10 1 2.8 0.14
-2 10 2 0.47 0.16
-2 10 3 30.16 0.42
-2 10 4 2.51 0.19
-2 10 6 18.78 0.56
-2 10 7 0.23 0.16
-2 10 9 4.29 0.43
-2 10 10 4.59 0.13
-2 10 11 1.38 0.12
-2 10 12 1.17 0.27
-2 11 0 0.24 0.18
-2 11 1 77.44 1.14
-2 11 2 6.34 0.21
-2 11 3 2.08 0.21
-2 11 4 32.32 0.42
-2 11 5 22.69 0.6
-2 11 7 0.86 0.45
-2 11 8 4.63 0.14
-2 11 10 9.06 0.39
-2 12 0 40.98 0.48
-2 12 2 4.54 0.39
-2 12 3 1.66 0.18
-2 12 4 0.96 0.15
-2 12 5 0.69 0.43
-2 12 8 4.07 0.38
-2 12 9 1.43 0.34
-2 13 0 45.8 0.83
-2 13 1 3.84 0.24
-2 13 2 1.65 0.15
-2 13 3 18.99 0.28
-2 13 4 13.5 0.4
-2 13 5 2.2 0.16
-2 13 6 0.54 0.36
-2 13 8 3.13 0.31
-2 14 1 8.76 0.2
-2 14 2 0.46 0.15
-2 14 3 0.25 0.17
-2 14 4 1.72 0.38
-2 14 5 2.5 0.14
-2 14 7 2.46 0.1
-2 15 0 0.64 0.15
-2 15 3 0.42 0.4
-2 15 4 0.6 0.33
-2 16 2 1.99 0.37
-2 18 0 1.78 0.3
-1 -21 9 0.44 0.26
-1 -21 12 0.14 0.08
-1 -20 8 0.86 0.32
-1 -20 11 2.35 0.17
-1 -20 13 0.48 0.32
-1 -20 15 0.46 0.29
-1 -19 7 2.12 0.36
-1 -19 9 2.24 0.39
-1 -19 12 3.32 0.5
-1 -19 14 0.38 0.38
-1 -19 15 0.8 0.32
-1 -18 5 0.95 0.41
-1 -18 6 3.97 0.15
-1 -18 9 1.09 0.42
-1 -18 11 0.47 0.44
-1 -18 12 0.59 0.42
-1 -18 17 4.2 0.33
-1 -17 7 0.58 0.13
-1 -17 8 0.55 0.17
-1 -17 9 1.63 0.18
-1 -17 11 2.34 0.14
-1 -17 12 0.21 0.17
-1 -17 13 1.04 0.36
-1 -17 15 2.68 0.39
-1 -17 18 3.67 0.33
-1 -17 20 0.34 0.27
-1 -16 5 2.53 0.15
-1 -16 6 0.19 0.13
-1 -16 8 2.41 0.22
-1 -16 9 0.24 0.15
-1 -16 10 1.03 0.42
-1 -16 11 3.6 0.23
-1 -16 12 0.3 0.14
-1 -16 13 0.54 0.17
-1 -16 14 0.22 0.17
-1 -16 15 0.26 0.16
-1 -16 17 1.53 0.37
-1 -16 20 0.93 0.29
-1 -16 21 0.45 0.08
-1 -15 1 0.55 0.5
-1 -15 3 5.1 0.48
-1 -15 4 1.66 0.22
-1 -15 7 0.69 0.21
-1 -15 8 0.45 0.21
-1 -15 9 17.63 0.53
-1 -15 10 72.52 1.09
-1 -15 13 5.29 0.28
-1 -15 15 1.98 0.41
-1 -15 16 3.4 0.16
-1 -15 19 0.61 0.11
-1 -14 2 2.11 0.44
-1 -14 3 3.19 0.17
-1 -14 5 3.27 0.18
-1 -14 6 2.56 0.18
-1 -14 7 3.95 0.18
-1 -14 8 13.29 0.24
-1 -14 9 6.83 0.38
-1 -14 11 20.73 0.33
-1 -14 13 3.91 0.39
-1 -14 14 0.95 0.14
-1 -14 15 3.03 0.17
-1 -14 17 0.33 0.14
-1 -14 18 0.32 0.15
-1 -14 20 0.91 0.12
-1 -13 1 12 0.27
-1 -13 2 9.88 0.23
-1 -13 3 0.41 0.17
-1 -13 4 6.42 0.31
-1 -13 5 1.14 0.17
-1 -13 6 0.4 0.19
-1 -13 7 3.98 0.37
-1 -13 8 53.79 0.55
-1 -13 9 32.28 0.44
-1 -13 10 10.23 0.21
-1 -13 11 3.34 0.15
-1 -13 12 15.3 0.22
-1 -13 13 2.31 0.21
-1 -13 15 5.79 0.18
-1 -13 16 5.01 0.17
-1 -13 18 0.41 0.39
-1 -13 20 1.49 0.13
-1 -12 1 19.93 0.37
-1 -12 2 0.45 0.12
-1 -12 3 22.13 0.61
-1 -12 4 0.63 0.16
-1 -12 5 1.24 0.19
-1 -12 6 0.53 0.17
-1 -12 7 2.02 0.15
-1 -12 8 12.1 0.31
-1 -12 9 21.1 0.26
-1 -12 10 2.1 0.14
-1 -12 11 0.23 0.16
-1 -12 14 0.81 0.24
-1 -12 15 11.88 0.46
-1 -12 16 0.55 0.15
-1 -12 17 1.06 0.18
-1 -12 18 1.15 0.12
-1 -12 20 4.92 0.15
-1 -11 1 36.4 0.4
-1 -11 2 22.41 0.27
-1 -11 4 7.04 0.27
-1 -11 5 6.32 0.17
-1 -11 7 1.03 0.14
-1 -11 8 7.54 0.16
-1 -11 9 0.99 0.11
-1 -11 10 3.47 0.16
-1 -11 11 35.65 0.39
-1 -11 12 31.34 0.43
-1 -11 13 0.42 0.16
-1 -11 14 22.07 0.41
-1 -11 16 4.17 0.39
-1 -11 17 3.43 0.15
-1 -11 18 9.84 0.21
-1 -11 19 3.49 0.13
-1 -11 20 0.79 0.14
-1 -11 22 1.72 0.27
-1 -10 1 75.62 0.88
-1 -10 2 99.92 0.85
-1 -10 3 25.64 0.26
-1 -10 4 3.32 0.13
-1 -10 5 29.64 0.41
-1 -10 8 18.48 0.28
-1 -10 9 0.74 0.12
-1 -10 10 12.49 0.18
-1 -10 12 35.9 0.39
-1 -10 13 1.3 0.26
-1 -10 14 8.16 0.2
-1 -10 15 22.41 0.3
-1 -10 16 2.82 0.37
-1 -10 17 11.69 0.19
-1 -10 18 0.79 0.14
-1 -10 19 5.07 0.16
-1 -10 21 0.31 0.32
-1 -10 22 0.41 0.08
-1 -9 1 95.76 0.89
-1 -9 2 15.24 0.21
-1 -9 3 0.41 0.13
-1 -9 4 24.88 0.3
-1 -9 5 55.64 0.54
-1 -9 6 15.06 0.2
-1 -9 7 0.21 0.13
-1 -9 8 96.11 1.19
-1 -9 9 0.18 0.1
-1 -9 10 6.36 0.21
-1 -9 11 0.28 0.2
-1 -9 12 27.1 0.34
-1 -9 13 14.35 0.26
-1 -9 15 4.78 0.18
-1 -9 17 9.86 0.2
-1 -9 18 15.96 0.22
-1 -9 21 1.78 0.11
-1 -9 22 0.35 0.09
-1 -8 1 1.19 0.12
-1 -8 2 4.9 0.17
-1 -8 3 92.07 0.94
-1 -8 4 75.44 0.67
-1 -8 5 0.12 0.12
-1 -8 6 5.48 0.16
-1 -8 7 75.32 0.7
-1 -8 8 22 0.24
-1 -8 9 0.84 0.14
-1 -8 11 67.81 1.02
-1 -8 12 0.19 0.14
-1 -8 13 1.69 0.19
-1 -8 14 3.49 0.19
-1 -8 15 19.85 0.3
-1 -8 16 0.23 0.18
-1 -8 18 0.24 0.12
-1 -8 19 0.2 0.13
-1 -8 20 1.3 0.37
-1 -7 1 112.56 0.92
-1 -7 2 19.07 0.23
-1 -7 3 275.76 2.33
-1 -7 4 1.43 0.14
-1 -7 5 8.01 0.2
-1 -7 6 17.04 0.18
-1 -7 7 11.67 0.18
-1 -7 8 0.16 0.11
-1 -7 9 26.11 0.29
-1 -7 10 136.29 1.19
-1 -7 11 18.73 0.28
-1 -7 12 8.14 0.19
-1 -7 13 0.73 0.15
-1 -7 14 3.86 0.27
-1 -7 15 1.51 0.17
-1 -7 16 5.27 0.19
-1 -7 17 0.16 0.13
-1 -7 18 2.07 0.14
-1 -7 19 10.55 0.24
-1 -6 2 72.37 0.77
-1 -6 3 71.51 0.64
-1 -6 4 101.82 0.84
-1 -6 6 1.1 0.1
-1 -6 7 125.3 1.04
-1 -6 8 3.47 0.13
-1 -6 9 29.4 0.4
-1 -6 10 114.66 1.16
-1 -6 11 70.18 0.64
-1 -6 12 29.48 0.33
-1 -6 13 2.27 0.2
-1 -6 14 55.1 0.56
-1 -6 15 2.7 0.17
-1 -6 16 5.07 0.2
-1 -6 17 1.35 0.13
-1 -6 18 0.27 0.13
-1 -6 19 4.57 0.42
-1 -6 20 0.52 0.36
-1 -6 21 0.85 0.14
-1 -5 1 79.98 0.7
-1 -5 3 116.82 1
-1 -5 4 161.92 1.32
-1 -5 5 122.53 1.15
-1 -5 6 3.76 0.15
-1 -5 7 7.9 0.24
-1 -5 8 0.47 0.14
-1 -5 9 216.73 1.99
-1 -5 10 6.71 0.2
-1 -5 11 20.52 0.29
-1 -5 12 1.22 0.13
-1 -5 13 7.14 0.18
-1 -5 14 1.5 0.16
-1 -5 15 2.51 0.32
-1 -5 16 52.47 0.87
-1 -5 17 0.95 0.14
-1 -5 18 6.76 0.18
-1 -5 19 0.65 0.14
-1 -5 20 3.54 0.13
-1 -4 1 38.73 0.33
-1 -4 2 25.44 0.25
-1 -4 3 1061.71 8.38
-1 -4 4 124.93 1.02
-1 -4 5 196.8 1.52
-1 -4 6 4.77 0.22
-1 -4 7 42.93 0.38
-1 -4 8 17.17 0.23
-1 -4 9 42.91 0.43
-1 -4 10 33.21 0.51
-1 -4 11 22.1 0.29
-1 -4 12 27.57 0.31
-1 -4 13 7.51 0.19
-1 -4 14 0.84 0.16
-1 -4 15 6.46 0.26
-1 -4 16 2.21 0.38
-1 -4 17 2.28 0.14
-1 -4 18 1.44 0.41
-1 -4 19 4.04 0.17
-1 -4 20 5.79 0.33
-1 -3 1 284.13 2.08
-1 -3 2 782.45 5.5
-1 -3 3 79.64 0.63
-1 -3 4 73.67 0.59
-1 -3 5 42.56 0.48
-1 -3 6 199.9 1.63
-1 -3 7 64.98 0.54
-1 -3 8 3.5 0.12
-1 -3 9 2.18 0.13
-1 -3 10 5.84 0.16
-1 -3 11 21.2 0.28
-1 -3 12 12.56 0.34
-1 -3 13 5.73 0.16
-1 -3 14 3.06 0.15
-1 -3 15 23.31 0.33
-1 -3 16 0.56 0.17
-1 -3 17 0.21 0.16
-1 -3 18 2.29 0.15
-1 -3 19 9.52 0.19
-1 -2 1 2355.47 14.35
-1 -2 2 10812.51 76.88
-1 -2 3 476.79 3.3
-1 -2 4 39.92 0.61
-1 -2 5 371.6 3.01
-1 -2 6 266.27 2.31
-1 -2 7 199.99 1.62
-1 -2 8 9.66 0.13
-1 -2 9 19.14 0.24
-1 -2 10 6.2 0.18
-1 -2 11 0.89 0.1
-1 -2 13 25.27 0.62
-1 -2 14 2.12 0.15
-1 -2 15 13.25 0.21
-1 -2 16 0.28 0.14
-1 -2 17 0.32 0.26
-1 -2 18 8.91 0.17
-1 -1 1 2.06 0.06
-1 -1 2 57.65 0.52
-1 -1 3 213.71 1.53
-1 -1 4 60.11 0.47
-1 -1 5 10.66 0.16
-1 -1 6 1.45 0.15
-1 -1 7 114.13 0.91
-1 -1 8 0.16 0.1
-1 -1 9 5.61 0.13
-1 -1 10 5.08 0.17
-1 -1 11 13.5 0.21
-1 -1 12 28.13 0.29
-1 -1 13 7.9 0.19
-1 -1 15 8.4 0.2
-1 -1 16 8.54 0.28
-1 -1 17 7.99 0.29
-1 -1 18 10.23 0.4
-1 0 1 473.91 3.09
-1 0 2 17.56 0.2
-1 0 3 258.74 1.9
-1 0 4 617.89 4.62
-1 0 5 33 0.31
-1 0 6 4.32 0.19
-1 0 7 143.51 1.11
-1 0 8 117.9 0.94
-1 0 9 12.29 0.28
-1 0 10 0.92 0.11
-1 0 11 63.13 0.6
-1 0 12 32.06 0.37
-1 0 14 7.66 0.19
-1 0 16 14.29 0.55
-1 0 19 4.02 0.36
-1 1 0 90.78 0.75
-1 1 1 814.86 5.22
-1 1 2 620.7 4.07
-1 1 3 42.53 0.36
-1 1 4 21.33 0.22
-1 1 5 0.25 0.15
-1 1 6 229.62 2.16
-1 1 7 92.85 0.82
-1 1 9 1.04 0.14
-1 1 10 22.51 0.27
-1 1 11 1.29 0.15
-1 1 12 36.73 0.48
-1 1 14 0.8 0.17
-1 1 15 10.2 0.36
-1 1 17 0.78 0.46
-1 2 0 143.06 1.27
-1 2 1 32.81 0.31
-1 2 2 627.65 4.64
-1 2 3 129.94 1.29
-1 2 4 226.54 1.94
-1 2 5 5.7 0.28
-1 2 6 343.92 2.97
-1 2 7 9.97 0.22
-1 2 9 50.78 0.49
-1 2 10 183.73 1.95
-1 2 12 0.55 0.15
-1 2 13 0.27 0.16
-1 2 14 15.55 0.45
-1 2 15 2.55 0.15
-1 2 16 1.81 0.46
-1 2 17 2.59 0.43
-1 3 0 966.32 6.87
-1 3 1 213.88 1.58
-1 3 2 602.92 5.1
-1 3 3 4.11 0.16
-1 3 4 529.12 4.44
-1 3 5 3.79 0.12
-1 3 6 69.54 0.68
-1 3 7 107.06 1.22
-1 3 8 4.83 0.2
-1 3 9 19.65 0.41
-1 3 10 1.62 0.26
-1 3 11 6.1 0.43
-1 3 12 15.22 0.67
-1 3 13 3.41 0.15
-1 3 14 1.22 0.15
-1 3 15 5.74 0.2
-1 4 0 563.05 4.31
-1 4 1 10 0.21
-1 4 2 44.75 0.68
-1 4 3 26.71 0.34
-1 4 4 103.43 0.92
-1 4 5 32.02 0.4
-1 4 6 0.33 0.17
-1 4 7 0.46 0.18
-1 4 8 24.45 0.58
-1 4 9 32.53 0.47
-1 4 10 6.8 0.55
-1 4 11 2.12 0.32
-1 4 12 1.21 0.17
-1 4 13 5.81 0.32
-1 4 16 2.91 0.41
-1 5 0 3.39 0.2
-1 5 1 0.5 0.12
-1 5 2 23.72 0.32
-1 5 3 266.57 2.15
-1 5 4 10.72 0.17
-1 5 5 9.85 0.22
-1 5 6 0.56 0.13
-1 5 7 55.42 0.65
-1 5 8 10.27 0.29
-1 5 9 1.13 0.27
-1 5 10 37 1.43
-1 5 11 0.99 0.38
-1 5 13 1.4 0.15
-1 5 14 0.52 0.47
-1 5 15 0.77 0.42
-1 6 0 2.23 0.11
-1 6 1 298.22 2.35
-1 6 2 174.38 1.37
-1 6 3 0.34 0.13
-1 6 4 1.5 0.14
-1 6 5 58.69 0.54
-1 6 6 45.8 0.58
-1 6 7 0.4 0.25
-1 6 8 4.34 0.47
-1 6 9 2.13 0.29
-1 6 10 18.37 0.89
-1 6 11 26.36 0.34
-1 6 12 1.26 0.17
-1 6 13 3.87 0.16
-1 6 14 3.84 0.46
-1 7 0 0.1 0.11
-1 7 1 52.91 0.45
-1 7 2 73.37 0.63
-1 7 3 22.92 0.29
-1 7 4 45.54 0.4
-1 7 6 88.21 0.9
-1 7 7 9.83 0.3
-1 7 8 25.83 0.45
-1 7 9 1.5 0.34
-1 7 10 15.32 0.31
-1 7 11 2.9 0.13
-1 7 12 11.15 0.56
-1 8 0 1.04 0.23
-1 8 1 44.96 0.41
-1 8 2 0.24 0.12
-1 8 3 106.45 0.88
-1 8 5 0.19 0.17
-1 8 6 0.67 0.17
-1 8 7 0.77 0.31
-1 8 8 62.75 1.34
-1 8 9 0.59 0.16
-1 8 10 0.54 0.14
-1 8 11 6.75 0.33
-1 8 12 3.36 0.15
-1 8 14 0.64 0.34
-1 9 0 19.21 0.26
-1 9 3 12.57 0.27
-1 9 4 17.34 0.35
-1 9 5 1.21 0.17
-1 9 6 4.34 0.19
-1 9 8 1.39 0.16
-1 9 10 2.72 0.17
-1 9 11 13.1 0.46
-1 9 12 4.97 0.33
-1 9 13 0.26 0.25
-1 10 0 5.49 0.22
-1 10 1 1.12 0.17
-1 10 2 2.62 0.24
-1 10 4 3.73 0.18
-1 10 5 1.33 0.39
-1 10 7 4.48 0.43
-1 10 8 0.22 0.17
-1 10 11 1.8 0.31
-1 11 0 12.22 0.24
-1 11 1 15.2 0.26
-1 11 2 8.58 0.17
-1 11 3 3.71 0.16
-1 11 4 16 0.23
-1 11 5 7.29 0.21
-1 11 6 1.9 0.18
-1 11 7 13.48 0.22
-1 11 8 0.54 0.15
-1 11 10 10.27 0.39
-1 12 0 0.66 0.19
-1 12 1 14.1 0.38
-1 12 2 1.61 0.16
-1 12 3 3.99 0.42
-1 12 4 9.37 0.16
-1 12 5 0.93 0.2
-1 12 6 0.41 0.16
-1 12 7 5.85 0.41
-1 12 8 2.14 0.36
-1 12 10 1.47 0.26
-1 13 0 21.07 0.27
-1 13 1 3.7 0.45
-1 13 2 11.43 0.19
-1 13 3 17.37 0.26
-1 13 4 2.74 0.17
-1 13 6 5.3 0.15
-1 14 0 4.18 0.46
-1 14 1 1.63 0.18
-1 14 3 0.22 0.16
-1 15 1 6.51 0.51
-1 15 2 15.2 0.5
-1 15 3 0.41 0.37
0 -20 7 1.83 0.32
0 -20 8 0.53 0.33
0 -20 11 2.24 0.35
0 -19 6 1.22 0.35
0 -19 7 0.91 0.12
0 -19 9 3.78 0.4
0 -19 10 0.7 0.14
0 -19 12 0.67 0.37
0 -18 3 0.96 0.39
0 -18 4 1.3 0.39
0 -18 6 6.75 0.44
0 -18 7 0.57 0.31
0 -18 8 2.06 0.41
0 -18 9 3.62 0.45
0 -18 10 0.44 0.33
0 -18 14 0.49 0.15
0 -17 4 13.36 0.23
0 -17 5 3.4 0.14
0 -17 7 4.94 0.3
0 -17 8 3.14 0.15
0 -17 9 0.27 0.14
0 -17 10 7.57 0.68
0 -17 11 0.79 0.19
0 -17 13 2.14 0.36
0 -17 14 0.9 0.39
0 -17 16 1.14 0.34
0 -17 20 0.69 0.26
0 -16 1 0.21 0.18
0 -16 2 2.57 0.15
0 -16 4 13.07 0.23
0 -16 6 0.63 0.15
0 -16 7 0.87 0.15
0 -16 8 1.57 0.2
0 -16 9 0.9 0.3
0 -16 10 0.92 0.15
0 -16 11 0.34 0.2
0 -16 12 0.69 0.5
0 -16 14 1.04 0.16
0 -16 15 6.7 0.17
0 -16 16 6.8 0.4
0 -16 20 0.56 0.28
0 -15 1 0.93 0.15
0 -15 3 6.86 0.16
0 -15 5 0.89 0.4
0 -15 6 0.88 0.39
0 -15 7 5.05 0.22
0 -15 9 0.99 0.38
0 -15 10 2.89 0.38
0 -15 11 2.81 0.38
0 -15 13 5.33 0.18
0 -15 14 1.19 0.17
0 -15 15 1.99 0.26
0 -15 16 11.51 0.2
0 -15 18 0.54 0.36
0 -15 19 0.64 0.32
0 -14 1 5.88 0.19
0 -14 2 0.51 0.17
0 -14 3 5.59 0.2
0 -14 6 3.27 0.18
0 -14 7 1.12 0.19
0 -14 8 3.63 0.18
0 -14 9 7.11 0.2
0 -14 11 1.13 0.18
0 -14 12 0.62 0.37
0 -14 15 3.99 0.24
0 -14 16 0.96 0.18
0 -14 18 2.36 0.38
0 -14 19 2.42 0.14
0 -14 21 2.21 0.27
0 -13 1 12.49 0.26
0 -13 2 5.23 0.19
0 -13 3 4.55 0.18
0 -13 4 21 0.36
0 -13 5 6.45 0.61
0 -13 6 0.91 0.18
0 -13 7 4.49 0.28
0 -13 8 158.19 1.58
0 -13 9 6.2 0.18
0 -13 10 1.38 0.17
0 -13 11 3.43 0.18
0 -13 12 9.84 0.42
0 -13 13 4.67 0.17
0 -13 14 3.4 0.17
0 -13 15 1.66 0.2
0 -13 16 0.27 0.16
0 -13 17 0.52 0.17
0 -13 18 1.28 0.47
0 -13 19 0.51 0.11
0 -12 1 3.15 0.17
0 -12 2 0.79 0.16
0 -12 3 2.18 0.16
0 -12 4 18.6 0.31
0 -12 5 2.26 0.15
0 -12 6 40.69 0.46
0 -12 7 3.07 0.22
0 -12 8 17.63 0.26
0 -12 9 45.57 0.47
0 -12 10 3.85 0.17
0 -12 11 9.54 0.4
0 -12 13 11.15 0.4
0 -12 14 0.38 0.37
0 -12 15 1.16 0.38
0 -12 16 0.3 0.16
0 -12 17 0.97 0.11
0 -12 18 3.01 0.11
0 -12 21 1.01 0.29
0 -11 1 0.5 0.14
0 -11 2 12.86 0.21
0 -11 3 2.76 0.22
0 -11 4 1.48 0.14
0 -11 5 14.17 0.22
0 -11 6 50.27 0.49
0 -11 7 81.33 0.76
0 -11 8 31.84 0.44
0 -11 9 7.44 0.29
0 -11 10 21.2 0.28
0 -11 11 8.56 0.21
0 -11 12 1.61 0.15
0 -11 13 2.72 0.17
0 -11 14 14.39 0.33
0 -11 15 0.8 0.37
0 -11 16 0.5 0.13
0 -11 18 4.82 0.22
0 -11 19 0.58 0.21
0 -11 21 0.45 0.37
0 -11 22 2.45 0.08
0 -10 1 38.65 0.49
0 -10 2 0.12 0.12
0 -10 3 3.66 0.13
0 -10 4 0.47 0.12
0 -10 5 17.74 0.23
0 -10 6 40.25 0.47
0 -10 7 16.94 0.22
0 -10 8 13.95 0.28
0 -10 9 2.04 0.11
0 -10 10 3.01 0.12
0 -10 11 0.83 0.15
0 -10 12 3 0.19
0 -10 13 16.17 0.37
0 -10 14 1.11 0.17
0 -10 15 3.21 0.22
0 -10 17 3.25 0.13
0 -10 18 5.2 0.13
0 -10 19 1.49 0.33
0 -10 21 1.56 0.3
0 -9 1 6.01 0.25
0 -9 2 1.69 0.14
0 -9 3 22.78 0.3
0 -9 5 1.07 0.16
0 -9 6 7.41 0.18
0 -9 7 22.03 0.32
0 -9 8 21.57 0.21
0 -9 9 35.55 0.38
0 -9 10 80.29 1.02
0 -9 11 7.8 0.25
0 -9 12 46.75 0.48
0 -9 13 1 0.16
0 -9 14 8.76 0.2
0 -9 15 3.17 0.17
0 -9 16 12.7 0.47
0 -9 17 9.08 0.22
0 -9 18 5.99 0.3
0 -9 19 1.09 0.16
0 -9 20 0.89 0.12
0 -9 21 4.02 0.38
0 -8 1 120.18 1.13
0 -8 2 11.99 0.18
0 -8 3 23.21 0.27
0 -8 4 6.61 0.16
0 -8 6 23.34 0.23
0 -8 7 14.15 0.25
0 -8 8 26.52 0.34
0 -8 9 6.27 0.23
0 -8 10 46.21 0.6
0 -8 11 3.89 0.17
0 -8 12 36.14 0.42
0 -8 13 19.07 0.3
0 -8 14 17.36 0.26
0 -8 15 10.09 0.21
0 -8 16 13.49 0.47
0 -8 17 8.25 0.37
0 -8 20 0.87 0.13
0 -7 1 0.14 0.11
0 -7 2 4.84 0.19
0 -7 3 187.07 1.54
0 -7 4 4.56 0.14
0 -7 5 5.6 0.17
0 -7 6 190.09 1.5
0 -7 7 24.71 0.24
0 -7 8 20.4 0.24
0 -7 9 8.4 0.17
0 -7 10 72.87 0.65
0 -7 11 7.97 0.16
0 -7 12 7.83 0.18
0 -7 13 10.27 0.48
0 -7 14 8.91 0.2
0 -7 15 9.62 0.32
0 -7 16 33.64 0.68
0 -7 17 3.22 0.15
0 -7 18 1.65 0.2
0 -7 19 2.22 0.12
0 -6 1 47.51 0.4
0 -6 2 305.1 2.56
0 -6 3 3.63 0.11
0 -6 4 27.91 0.32
0 -6 5 111.95 1.01
0 -6 6 32.11 0.44
0 -6 7 29.21 0.32
0 -6 8 4.86 0.14
0 -6 9 93.59 0.89
0 -6 10 2.54 0.18
0 -6 11 3.75 0.24
0 -6 12 0.84 0.14
0 -6 13 36.59 0.5
0 -6 17 0.5 0.15
0 -6 18 1.61 0.16
0 -5 1 401.02 3.25
0 -5 2 80.86 0.9
0 -5 3 36 0.4
0 -5 4 18.84 0.23
0 -5 5 87.02 0.71
0 -5 6 0.43 0.1
0 -5 7 15.25 0.22
0 -5 8 146.75 1.18
0 -5 9 140.34 1.25
0 -5 10 13.73 0.24
0 -5 11 0.29 0.18
0 -5 12 4.51 0.15
0 -5 13 1.39 0.15
0 -5 14 5.39 0.18
0 -5 15 4.73 0.18
0 -5 16 7.01 0.4
0 -5 17 9.68 0.2
0 -5 18 2.33 0.41
0 -5 20 1.16 0.32
0 -4 1 125.93 1.18
0 -4 2 177.57 1.56
0 -4 3 19.63 0.22
0 -4 4 6.68 0.11
0 -4 5 287.92 2.23
0 -4 6 1.9 0.14
0 -4 7 2.99 0.14
0 -4 8 120.24 1.1
0 -4 9 211.68 1.97
0 -4 10 12.76 0.23
0 -4 11 8.79 0.25
0 -4 12 85.84 0.8
0 -4 13 18.08 0.27
0 -4 14 5.2 0.18
0 -4 15 0.4 0.19
0 -4 16 3.3 0.25
0 -4 17 6.66 0.47
0 -4 18 1.04 0.39
0 -4 19 1.9 0.35
0 -3 1 661.21 4.52
0 -3 2 344.02 2.41
0 -3 3 102.05 0.92
0 -3 6 42.67 0.43
0 -3 7 325.27 2.86
0 -3 8 58.39 0.53
0 -3 9 46.44 0.46
0 -3 10 4.94 0.18
0 -3 11 6.31 0.13
0 -3 12 8.22 0.19
0 -3 14 73.95 1.38
0 -3 15 2.94 0.19
0 -3 16 13.15 0.24
0 -3 18 7.01 0.44
0 -2 1 1636.99 13.8
0 -2 2 1118.23 6.78
0 -2 3 614.73 4.19
0 -2 4 0.72 0.13
0 -2 5 22.42 0.43
0 -2 6 87.49 0.87
0 -2 7 28.62 0.27
0 -2 8 137.2 1.24
0 -2 9 48.22 0.57
0 -2 10 17.19 0.3
0 -2 11 21.38 0.23
0 -2 12 0.31 0.13
0 -2 13 15.52 0.22
0 -2 14 6.08 0.16
0 -2 15 3.15 0.17
0 -2 16 0.5 0.48
0 -2 17 0.76 0.12
0 -2 18 7.59 0.43
0 -1 1 59.04 0.69
0 -1 2 288.59 2.03
0 -1 3 12.05 0.14
0 -1 4 397.5 2.92
0 -1 5 3.11 0.16
0 -1 6 3.3 0.14
0 -1 7 4.36 0.11
0 -1 8 3.38 0.12
0 -1 9 12.94 0.32
0 -1 10 34.71 0.34
0 -1 11 9.33 0.16
0 -1 13 40.2 1
0 -1 14 3.06 0.16
0 -1 17 17.53 1.06
0 -1 19 0.66 0.37
0 0 2 608.04 3.67
0 0 3 231.76 1.69
0 0 4 787.21 6.22
0 0 5 222.46 1.76
0 0 6 3.84 0.2
0 0 7 8.62 0.16
0 0 8 0.58 0.12
0 0 9 3.18 0.17
0 0 10 3.28 0.12
0 0 11 24.63 0.33
0 0 12 6.71 0.5
0 0 13 11.36 0.29
0 0 14 0.64 0.43
0 0 15 2.23 0.2
0 0 16 5.03 0.49
0 0 17 8.06 0.27
0 1 0 540.65 5.49
0 1 1 560.55 3.9
0 1 2 43.83 0.55
0 1 3 60.79 0.48
0 1 4 27.29 0.25
0 1 5 225.38 1.85
0 1 6 0.23 0.15
0 1 7 25.24 0.33
0 1 8 15.71 0.21
0 1 9 18.52 0.21
0 1 10 14.05 0.35
0 1 11 14.33 0.32
0 1 12 2.2 0.14
0 1 13 20.7 1.01
0 1 14 8.28 0.53
0 1 15 1.45 0.2
0 1 16 21.24 0.65
0 1 17 1.17 0.36
0 1 18 6.13 0.41
0 2 0 4.29 0.13
0 2 1 139.03 1.02
0 2 2 676.02 4.99
0 2 3 158.73 1.28
0 2 4 2.96 0.15
0 2 5 32.22 0.34
0 2 6 236.32 2.05
0 2 7 0.54 0.12
0 2 8 1.04 0.14
0 2 9 20.19 0.29
0 2 10 73.94 0.7
0 2 11 0.8 0.17
0 2 12 7.97 0.26
0 2 14 15.92 0.6
0 2 15 5.75 0.51
0 2 16 0.6 0.46
0 2 17 5.96 0.44
0 3 0 189.46 1.38
0 3 1 12.97 0.17
0 3 2 8.22 0.15
0 3 3 28.8 0.47
0 3 4 223.27 1.82
0 3 5 29.39 0.29
0 3 6 10.02 0.31
0 3 7 1.05 0.13
0 3 8 24.54 0.4
0 3 9 13.38 0.31
0 3 10 30.53 0.35
0 3 11 2.17 0.15
0 3 12 0.65 0.22
0 3 13 15.8 0.57
0 3 15 2.18 0.47
0 4 0 306.78 3.09
0 4 1 15.76 0.21
0 4 2 162.11 1.54
0 4 3 86.22 0.77
0 4 4 328.63 2.88
0 4 5 1.54 0.22
0 4 7 8.75 0.24
0 4 8 186.74 4.08
0 4 9 14.8 0.33
0 4 10 1.75 0.15
0 4 11 1.55 0.22
0 4 12 10.19 0.55
0 4 13 7.78 0.54
0 4 14 3.47 0.44
0 4 15 0.75 0.44
0 4 16 1.51 0.39
0 5 0 225.42 2.23
0 5 1 92.34 0.8
0 5 2 271.04 2.29
0 5 3 132.15 1.12
0 5 4 117.51 1.04
0 5 5 53.22 0.49
0 5 6 21.46 0.31
0 5 7 10.98 0.29
0 5 8 21.09 0.38
0 5 9 15.32 0.35
0 5 10 12.56 0.54
0 5 11 0.59 0.45
0 5 12 0.77 0.54
0 5 13 7.14 0.51
0 6 0 10.78 0.14
0 6 1 8.93 0.17
0 6 2 101.07 0.88
0 6 3 3 0.14
0 6 4 6.39 0.2
0 6 5 2.38 0.11
0 6 6 10.05 0.23
0 6 7 38 0.84
0 6 8 13.86 0.33
0 6 10 0.63 0.43
0 6 11 9.61 0.28
0 6 12 0.36 0.14
0 6 14 2.66 0.42
0 6 15 0.53 0.36
0 7 0 1.63 0.12
0 7 1 206.95 1.7
0 7 2 0.6 0.14
0 7 3 2.81 0.16
0 7 5 39.63 0.51
0 7 6 11.06 0.18
0 7 7 4.88 0.6
0 7 8 20.39 0.42
0 7 9 1.35 0.44
0 7 11 0.76 0.26
0 7 13 0.14 0.13
0 8 0 180.89 1.61
0 8 1 26.17 0.38
0 8 2 4.48 0.12
0 8 3 61.7 0.69
0 8 4 16.66 0.21
0 8 5 1.17 0.19
0 8 6 3.14 0.19
0 8 7 0.56 0.31
0 8 8 29.73 0.68
0 8 9 14.79 0.56
0 8 10 0.37 0.19
0 8 11 2.95 0.48
0 8 12 4.47 0.46
0 9 0 54.34 0.48
0 9 1 41.88 0.41
0 9 2 11.85 0.3
0 9 3 18.51 0.24
0 9 4 60.9 0.66
0 9 5 24.38 0.37
0 9 6 6.65 0.69
0 9 8 12.26 0.2
0 9 9 0.63 0.17
0 9 10 3.74 0.39
0 9 11 10.45 0.48
0 9 12 0.16 0.15
0 10 1 55.07 0.5
0 10 2 6.54 0.23
0 10 3 0.61 0.17
0 10 4 0.73 0.16
0 10 5 0.55 0.22
0 10 6 42.56 0.82
0 10 7 2.93 0.88
0 10 10 4.3 0.37
0 11 0 3.72 0.16
0 11 1 19.94 0.41
0 11 2 6.71 0.17
0 11 3 0.27 0.16
0 11 5 16.07 0.26
0 11 7 0.39 0.39
0 11 8 2.81 0.38
0 11 9 3.41 0.35
0 11 10 5.96 0.33
0 12 0 3.24 0.22
0 12 2 2.96 0.22
0 12 3 0.7 0.45
0 12 5 4.92 0.18
0 13 0 0.85 0.16
0 13 2 9.17 0.21
0 13 3 6.34 0.28
0 13 4 1 0.14
0 13 5 7.99 0.44
0 13 7 1.74 0.33
0 13 8 5.73 0.34
0 14 0 0.56 0.15
0 14 1 4.57 0.2
0 14 2 1.51 0.18
0 14 3 1.48 0.36
0 15 0 2.73 0.25
0 15 4 4.45 0.13
0 15 6 2.81 0.27
1 -21 9 0.27 0.27
1 -21 11 1.21 0.08
1 -20 7 0.6 0.3
1 -20 8 0.54 0.31
1 -20 11 0.61 0.32
1 -20 15 0.41 0.27
1 -19 4 0.56 0.33
1 -19 6 2.35 0.35
1 -19 7 3.95 0.14
1 -19 9 0.38 0.37
1 -19 10 0.17 0.12
1 -19 12 0.28 0.12
1 -18 1 1.07 0.33
1 -18 3 1.62 0.36
1 -18 4 0.9 0.14
1 -18 5 1.89 0.14
1 -18 6 3.74 0.34
1 -18 7 0.24 0.15
1 -18 8 0.72 0.15
1 -18 9 4.15 0.43
1 -18 10 0.65 0.42
1 -18 11 0.37 0.16
1 -18 15 1.99 0.33
1 -18 19 0.7 0.25
1 -17 4 2.7 0.18
1 -17 5 0.98 0.16
1 -17 6 8.18 0.19
1 -17 7 8.22 0.29
1 -17 8 4.06 0.3
1 -17 9 0.17 0.14
1 -17 10 1.16 0.14
1 -17 11 1.74 0.22
1 -17 12 0.4 0.13
1 -17 15 0.92 0.37
1 -17 16 0.37 0.35
1 -16 1 4.25 0.51
1 -16 2 1.8 0.18
1 -16 3 1.94 0.13
1 -16 4 20.83 0.41
1 -16 5 0.44 0.24
1 -16 6 6.45 0.22
1 -16 7 1.89 0.15
1 -16 8 4.59 0.16
1 -16 10 0.22 0.14
1 -16 11 2.94 0.21
1 -16 12 2.34 0.17
1 -16 15 7.67 0.42
1 -16 17 0.39 0.37
1 -16 19 0.38 0.13
1 -15 2 33.33 0.38
1 -15 3 1.85 0.26
1 -15 4 2.74 0.4
1 -15 5 6.71 0.42
1 -15 6 15.01 0.5
1 -15 7 1.31 0.39
1 -15 8 10.11 0.45
1 -15 9 7.56 0.43
1 -15 11 2.78 0.15
1 -15 12 2.55 0.17
1 -15 13 4.57 0.39
1 -15 15 3.48 0.24
1 -15 18 1.31 0.13
1 -14 1 1.92 0.39
1 -14 2 28.31 0.55
1 -14 3 1.55 0.2
1 -14 4 1 0.18
1 -14 6 8.65 0.24
1 -14 7 2.27 0.18
1 -14 8 2.07 0.18
1 -14 10 1.39 0.19
1 -14 11 2.06 0.2
1 -14 12 3.77 0.38
1 -14 13 4.35 0.44
1 -14 14 19.55 0.24
1 -14 15 8.97 0.52
1 -14 16 2.18 0.14
1 -14 18 1.43 0.14
1 -14 19 0.14 0.12
1 -14 20 1.72 0.38
1 -13 1 31.22 0.66
1 -13 3 0.7 0.17
1 -13 4 1.02 0.17
1 -13 5 10.72 0.21
1 -13 6 0.55 0.16
1 -13 7 0.47 0.22
1 -13 8 8.68 0.2
1 -13 9 2.99 0.21
1 -13 10 0.41 0.17
1 -13 11 4.82 0.21
1 -13 12 6.76 0.18
1 -13 13 1.03 0.36
1 -13 14 22.37 0.35
1 -13 15 2.79 0.24
1 -13 16 1.1 0.17
1 -13 17 1.19 0.14
1 -13 18 0.51 0.15
1 -13 19 0.2 0.13
1 -13 20 1.46 0.3
1 -12 1 6.09 0.31
1 -12 3 0.76 0.16
1 -12 4 2.34 0.16
1 -12 5 2.22 0.16
1 -12 6 11.99 0.22
1 -12 7 7.25 0.22
1 -12 8 3.42 0.19
1 -12 9 2.11 0.16
1 -12 10 1.15 0.16
1 -12 13 7.45 0.21
1 -12 14 6.34 0.39
1 -12 15 0.81 0.17
1 -12 16 2.55 0.38
1 -12 17 7.84 0.26
1 -12 19 5.65 0.12
1 -12 20 0.98 0.1
1 -11 1 24.7 0.33
1 -11 2 22.03 0.28
1 -11 3 17.8 0.27
1 -11 5 1.62 0.15
1 -11 6 223.41 2.19
1 -11 7 55.7 0.71
1 -11 8 1.01 0.17
1 -11 10 25.22 0.36
1 -11 11 4.08 0.17
1 -11 12 0.83 0.19
1 -11 13 5.76 0.5
1 -11 14 1.38 0.15
1 -11 15 0.68 0.5
1 -11 16 3.98 0.18
1 -11 17 0.27 0.14
1 -11 18 0.54 0.47
1 -11 19 0.11 0.11
1 -11 20 0.54 0.16
1 -10 2 50.06 0.47
1 -10 3 0.88 0.12
1 -10 4 75.35 0.69
1 -10 5 5.24 0.18
1 -10 6 101.46 0.89
1 -10 7 44.07 0.6
1 -10 8 32.5 0.33
1 -10 9 9.76 0.17
1 -10 10 9.01 0.21
1 -10 11 27.96 0.76
1 -10 12 0.19 0.19
1 -10 13 1.56 0.23
1 -10 15 0.87 0.38
1 -10 16 8.5 0.19
1 -10 17 0.32 0.15
1 -10 19 2.67 0.15
1 -9 1 9.74 0.15
1 -9 2 1.02 0.16
1 -9 3 25.13 0.57
1 -9 4 28.5 0.34
1 -9 5 140.21 1.3
1 -9 6 75.02 0.68
1 -9 7 29.99 0.44
1 -9 8 23.02 0.25
1 -9 9 19.02 0.35
1 -9 10 3.56 0.16
1 -9 12 25.78 0.34
1 -9 13 5.31 0.32
1 -9 15 2.74 0.19
1 -9 16 6.69 0.18
1 -9 17 3.12 0.19
1 -9 20 5.28 0.36
1 -9 21 0.5 0.27
1 -8 1 5.8 0.14
1 -8 2 13.05 0.27
1 -8 3 61.21 0.57
1 -8 4 68.05 0.7
1 -8 5 2.25 0.14
1 -8 6 37.19 0.41
1 -8 7 14.57 0.2
1 -8 8 7.92 0.14
1 -8 9 0.87 0.11
1 -8 10 4.96 0.13
1 -8 11 11.03 0.18
1 -8 12 14.44 0.23
1 -8 13 2.65 0.16
1 -8 14 0.26 0.25
1 -8 15 6.66 0.78
1 -8 16 1.28 0.17
1 -8 17 5.96 0.48
1 -8 19 2.23 0.32
1 -8 21 2.96 0.28
1 -7 1 43.31 0.52
1 -7 2 1 0.57
1 -7 3 4.41 0.13
1 -7 5 114.72 0.93
1 -7 6 40.25 0.34
1 -7 7 11.86 0.18
1 -7 8 126.61 1.11
1 -7 9 74.02 0.67
1 -7 10 61.68 0.68
1 -7 11 5.36 0.14
1 -7 12 15.36 0.23
1 -7 13 5.84 0.23
1 -7 14 10.68 0.21
1 -7 15 13.19 0.23
1 -7 16 21.84 0.29
1 -7 17 0.75 0.29
1 -7 19 7.23 0.42
1 -7 20 2.49 0.34
1 -6 1 0.34 0.12
1 -6 2 50.69 0.46
1 -6 3 0.4 0.13
1 -6 4 18.47 0.26
1 -6 5 78.27 0.62
1 -6 6 44.19 0.36
1 -6 7 31.61 0.3
1 -6 8 35.24 0.34
1 -6 9 46.48 0.45
1 -6 10 73.58 0.98
1 -6 11 4.8 0.15
1 -6 12 37.21 0.39
1 -6 13 0.59 0.26
1 -6 14 45.31 0.48
1 -6 15 4.71 0.43
1 -6 16 1.35 0.18
1 -6 17 0.44 0.42
1 -6 19 2.76 0.37
1 -5 1 361.27 3.05
1 -5 2 0.28 0.13
1 -5 3 54.48 0.51
1 -5 4 236.87 1.88
1 -5 5 212.2 1.65
1 -5 6 23.03 0.25
1 -5 7 85.63 0.69
1 -5 8 98.3 0.9
1 -5 9 2.45 0.13
1 -5 10 43.27 0.51
1 -5 11 11.05 0.31
1 -5 12 17.15 0.39
1 -5 13 7.55 0.28
1 -5 14 40.81 0.44
1 -5 15 26.18 0.88
1 -5 16 2.87 0.63
1 -5 18 3.31 0.4
1 -5 19 1.8 0.34
1 -5 20 0.48 0.29
1 -4 1 19.96 0.22
1 -4 2 107.64 0.86
1 -4 3 247.99 1.99
1 -4 4 22.55 0.25
1 -4 5 92.61 0.8
1 -4 6 13.47 0.17
1 -4 7 98.26 1
1 -4 8 4.87 0.14
1 -4 9 10.43 0.18
1 -4 11 43.69 0.47
1 -4 12 3.02 0.12
1 -4 14 1.58 0.2
1 -4 15 0.48 0.45
1 -4 17 0.63 0.28
1 -4 18 0.51 0.38
1 -4 19 0.55 0.34
1 -4 20 1.06 0.29
1 -3 1 62.81 0.5
1 -3 2 0.81 0.08
1 -3 3 436.83 3.24
1 -3 4 12.92 0.21
1 -3 5 12.57 0.2
1 -3 6 70.01 0.83
1 -3 7 403.28 3.54
1 -3 8 4.88 0.16
1 -3 9 0.6 0.16
1 -3 10 7.65 0.16
1 -3 11 1.98 0.11
1 -3 12 2.38 0.19
1 -3 13 20.47 0.55
1 -3 14 6.56 0.22
1 -3 15 4.08 0.43
1 -3 16 4.87 0.19
1 -3 18 1.53 0.36
1 -3 19 0.38 0.31
1 -2 1 216.07 1.52
1 -2 2 29.78 0.36
1 -2 3 557.42 4.07
1 -2 4 100.52 0.77
1 -2 5 0.74 0.16
1 -2 6 64.66 0.7
1 -2 7 295.34 2.68
1 -2 8 7.14 0.23
1 -2 9 62.64 0.94
1 -2 10 76.6 0.64
1 -2 11 52.96 0.69
1 -2 12 0.88 0.19
1 -2 13 1.54 0.2
1 -2 14 12.3 0.27
1 -2 15 8.85 0.18
1 -2 16 1.46 0.18
1 -2 17 1.53 0.17
1 -2 18 0.49 0.4
1 -2 19 0.41 0.1
1 -1 2 10.11 0.12
1 -1 3 62.62 0.49
1 -1 4 192.59 1.75
1 -1 5 259.2 2.14
1 -1 6 206.95 1.64
1 -1 7 123.57 1.05
1 -1 8 5.54 0.14
1 -1 9 0.19 0.14
1 -1 10 15.99 0.25
1 -1 11 6.71 0.21
1 -1 12 61.23 0.67
1 -1 13 26.35 0.81
1 -1 14 12.53 0.52
1 -1 15 2.44 0.16
1 -1 16 4.62 0.28
1 -1 17 1.69 0.16
1 -1 19 1.54 0.3
1 0 0 2771.16 23.86
1 0 1 619.79 4.27
1 0 2 4.03 0.15
1 0 3 7.68 0.29
1 0 4 198.4 1.83
1 0 5 17.61 0.21
1 0 6 279.22 2.28
1 0 7 36.7 0.37
1 0 8 1.57 0.23
1 0 9 27.15 0.27
1 0 10 9.7 0.28
1 0 11 25.08 0.45
1 0 12 8 0.24
1 0 13 1.05 0.21
1 0 16 3.56 0.44
1 1 0 266.42 1.86
1 1 1 0.97 0.08
1 1 2 209.61 1.82
1 1 3 51.11 0.83
1 1 4 14.93 0.23
1 1 5 1.51 0.11
1 1 6 6.81 0.2
1 1 7 0.29 0.12
1 1 8 59.39 0.52
1 1 9 14.21 0.19
1 1 10 4.87 0.21
1 1 11 44.92 1.21
1 1 12 8.54 0.44
1 1 13 1.92 0.43
1 1 14 1.16 0.16
1 1 15 18.4 0.33
1 1 16 2.9 0.17
1 1 18 1.17 0.3
1 2 0 472.79 3.22
1 2 1 0.47 0.19
1 2 2 958.06 8.26
1 2 3 49.64 0.42
1 2 4 1.73 0.23
1 2 5 0.33 0.11
1 2 6 1.21 0.12
1 2 7 2.15 0.13
1 2 8 9.87 0.19
1 2 9 9.41 0.2
1 2 10 16.08 0.5
1 2 11 6.14 0.22
1 2 12 5.35 0.24
1 2 13 3.02 0.19
1 2 14 1.44 0.21
1 2 15 7.07 0.52
1 3 0 0.56 0.11
1 3 1 7.68 0.16
1 3 2 101.78 0.88
1 3 3 214.35 1.72
1 3 4 0.9 0.13
1 3 5 37.66 0.5
1 3 6 16.65 0.22
1 3 7 9.3 0.2
1 3 8 2.73 0.12
1 3 9 12.7 0.19
1 3 10 10.88 0.35
1 3 11 23.84 0.74
1 3 13 1.23 0.19
1 3 14 23.08 0.68
1 3 15 8.72 0.51
1 4 0 142.32 1.72
1 4 1 213.9 1.89
1 4 2 2.86 0.14
1 4 4 214.99 1.86
1 4 5 6.26 0.21
1 4 6 0.18 0.15
1 4 8 82.95 0.7
1 4 9 7.22 0.16
1 4 10 11.27 0.23
1 4 11 1.2 0.43
1 4 12 11.96 0.5
1 4 13 7.08 0.51
1 4 14 2.84 0.47
1 4 15 5.3 0.45
1 5 0 0.72 0.1
1 5 1 39.96 0.45
1 5 2 89.14 0.74
1 5 3 1.14 0.14
1 5 4 36.85 0.59
1 5 5 3.86 0.15
1 5 6 15.46 0.22
1 5 7 25.89 0.28
1 5 8 9.37 0.22
1 5 9 14.47 0.24
1 5 10 4.86 0.44
1 5 11 14.16 0.76
1 5 12 0.44 0.19
1 5 13 2.01 0.47
1 6 0 59.57 0.5
1 6 1 149.97 1.23
1 6 2 179.94 1.52
1 6 3 24.36 0.3
1 6 4 0.41 0.13
1 6 6 102.63 0.97
1 6 7 39.97 0.39
1 6 8 7.89 0.25
1 6 9 1.3 0.2
1 6 10 1.9 0.16
1 6 11 10.56 0.53
1 6 12 4.76 0.5
1 6 14 2.22 0.4
1 7 0 38.6 0.36
1 7 1 253.21 2.29
1 7 2 69.75 1.34
1 7 3 7.09 0.17
1 7 4 29.07 0.33
1 7 5 0.61 0.16
1 7 6 44.03 0.59
1 7 7 11.83 0.19
1 7 8 3.62 0.22
1 7 10 0.22 0.15
1 7 11 7.23 0.3
1 7 14 0.73 0.33
1 8 0 64.07 0.62
1 8 1 6.29 0.14
1 8 2 15.6 0.25
1 8 3 3.11 0.19
1 8 4 3.42 0.19
1 8 5 29.15 0.39
1 8 6 15.42 0.51
1 8 7 2.91 0.43
1 8 8 3.24 0.47
1 8 9 7.85 0.22
1 8 11 0.21 0.15
1 8 12 1.41 0.4
1 9 0 13.58 0.18
1 9 1 1.23 0.12
1 9 3 17.87 0.3
1 9 4 10.99 0.25
1 9 5 5.58 0.37
1 9 6 5.56 0.73
1 9 7 3.49 0.19
1 10 0 6.7 0.15
1 10 1 31.76 0.4
1 10 2 1.01 0.22
1 10 3 2.13 0.21
1 10 4 0.45 0.22
1 10 5 6.29 0.45
1 10 6 22.98 0.31
1 10 7 2.24 0.44
1 10 8 2.15 0.4
1 10 9 1.08 0.37
1 10 10 3.64 0.34
1 11 0 0.29 0.13
1 11 1 33.6 0.65
1 11 2 21.89 0.34
1 11 3 27.53 0.4
1 11 5 14.59 0.25
1 11 6 6.1 0.16
1 12 0 13.93 0.28
1 12 1 0.56 0.4
1 12 3 1.71 0.19
1 12 5 12.67 0.52
1 12 6 2.91 0.24
1 12 7 0.55 0.34
1 12 8 2.85 0.33
1 13 1 1.76 0.44
1 13 3 10.92 0.22
1 13 5 0.52 0.38
1 14 0 1.6 0.45
1 14 2 0.98 0.23
1 14 5 3.72 0.14
1 15 2 1.12 0.4
1 15 4 2.35 0.11
1 15 5 2.06 0.28
1 16 1 0.66 0.36
1 16 3 1.68 0.1
1 17 2 2.93 0.3
2 -20 5 0.16 0.09
2 -20 11 1.77 0.32
2 -19 3 2.33 0.3
2 -19 7 0.5 0.34
2 -19 8 0.8 0.36
2 -19 9 2.63 0.38
2 -19 12 0.48 0.37
2 -19 13 2.24 0.32
2 -18 5 1.13 0.14
2 -18 9 2.06 0.37
2 -18 11 2.69 0.14
2 -18 12 2.76 0.36
2 -18 14 1.29 0.34
2 -18 18 0.35 0.25
2 -17 2 2.55 0.39
2 -17 4 2.43 0.17
2 -17 5 9.42 0.19
2 -17 6 0.58 0.44
2 -17 8 0.87 0.13
2 -17 10 0.84 0.13
2 -17 12 4.41 0.19
2 -17 14 0.75 0.38
2 -17 16 1.79 0.33
2 -16 1 5.06 0.19
2 -16 2 1.5 0.12
2 -16 3 0.27 0.16
2 -16 4 8.77 0.26
2 -16 5 4.17 0.19
2 -16 6 2.45 0.14
2 -16 7 3.24 0.17
2 -16 8 3.49 0.15
2 -16 9 0.96 0.26
2 -16 10 0.31 0.2
2 -16 11 1.1 0.17
2 -16 12 0.46 0.17
2 -16 13 5.88 0.41
2 -16 17 0.55 0.34
2 -16 18 2.96 0.3
2 -15 2 4.17 0.17
2 -15 3 0.79 0.19
2 -15 4 13.43 0.39
2 -15 5 14.56 0.51
2 -15 6 13.08 0.48
2 -15 7 0.41 0.39
2 -15 8 4.16 0.37
2 -15 9 2.26 0.38
2 -15 10 0.59 0.14
2 -15 13 3.96 0.17
2 -15 14 0.5 0.16
2 -15 16 0.3 0.15
2 -15 18 0.42 0.12
2 -14 2 33.37 0.7
2 -14 3 9.05 0.33
2 -14 4 7.11 0.2
2 -14 5 0.44 0.31
2 -14 6 12.98 0.4
2 -14 7 1.47 0.18
2 -14 8 2.66 0.18
2 -14 9 3.79 0.18
2 -14 10 7.13 0.34
2 -14 12 0.55 0.39
2 -14 13 12.54 0.37
2 -14 14 1.04 0.17
2 -14 15 0.96 0.12
2 -14 16 0.58 0.16
2 -14 18 0.16 0.13
2 -14 19 1.11 0.38
2 -13 1 0.58 0.17
2 -13 2 13.78 0.6
2 -13 3 3.33 0.2
2 -13 4 42.21 0.55
2 -13 5 0.91 0.16
2 -13 6 5.94 0.18
2 -13 7 24.72 0.32
2 -13 8 0.89 0.17
2 -13 9 2.34 0.17
2 -13 10 5.2 0.21
2 -13 11 9.17 0.44
2 -13 12 3.37 0.2
2 -13 13 2.4 0.27
2 -13 14 6.55 0.41
2 -13 16 0.96 0.12
2 -13 17 3.23 0.52
2 -13 20 1.18 0.35
2 -12 1 10.24 0.31
2 -12 3 1.79 0.16
2 -12 4 17.45 0.37
2 -12 5 2.37 0.23
2 -12 6 2.4 0.16
2 -12 7 0.28 0.15
2 -12 8 1.14 0.16
2 -12 9 12.96 0.39
2 -12 10 4.51 0.16
2 -12 11 0.29 0.15
2 -12 12 31.68 0.41
2 -12 13 36.86 0.49
2 -12 14 1.02 0.25
2 -12 15 3.41 0.2
2 -12 16 2.73 0.13
2 -12 17 1.6 0.21
2 -12 19 0.4 0.41
2 -12 20 1.08 0.36
2 -11 1 0.99 0.15
2 -11 2 0.42 0.15
2 -11 3 11.18 0.38
2 -11 4 12.55 0.23
2 -11 5 9.23 0.19
2 -11 6 10.16 0.19
2 -11 7 0.65 0.14
2 -11 8 3.09 0.15
2 -11 9 0.73 0.13
2 -11 10 22.05 0.53
2 -11 11 0.6 0.14
2 -11 12 27.67 0.56
2 -11 13 9.67 0.2
2 -11 14 3.62 0.18
2 -11 15 2.19 0.21
2 -11 16 1.58 0.19
2 -11 18 2.41 0.46
2 -11 20 0.65 0.38
2 -10 1 0.93 0.13
2 -10 2 0.94 0.12
2 -10 3 1.64 0.13
2 -10 4 21.96 0.28
2 -10 5 1.59 0.16
2 -10 6 20.6 0.3
2 -10 7 1.98 0.11
2 -10 8 1.82 0.12
2 -10 9 0.74 0.12
2 -10 11 7.75 0.19
2 -10 12 29.64 0.55
2 -10 13 1.67 0.15
2 -10 14 0.87 0.19
2 -10 15 16.1 0.62
2 -10 16 3.03 0.23
2 -10 17 10.2 0.21
2 -10 18 2.67 0.41
2 -10 19 1.01 0.13
2 -9 1 29.55 0.36
2 -9 2 12.23 0.18
2 -9 3 20.58 0.39
2 -9 4 210.98 2.11
2 -9 5 184.31 1.69
2 -9 6 1.22 0.12
2 -9 7 5.4 0.13
2 -9 8 32.97 0.31
2 -9 9 0.41 0.12
2 -9 11 9.18 0.16
2 -9 12 4.97 0.15
2 -9 13 1.7 0.33
2 -9 14 5.96 0.3
2 -9 16 1.79 0.18
2 -9 17 0.28 0.19
2 -9 19 0.74 0.18
2 -8 1 26.05 0.28
2 -8 2 65.88 0.66
2 -8 3 104.18 0.92
2 -8 4 228.49 2.16
2 -8 5 4.56 0.19
2 -8 6 92.8 0.79
2 -8 7 0.25 0.14
2 -8 8 54.82 0.59
2 -8 9 38.84 0.59
2 -8 10 0.4 0.37
2 -8 11 0.56 0.2
2 -8 12 0.55 0.16
2 -8 13 0.61 0.13
2 -8 14 16.87 0.27
2 -8 15 2.3 0.42
2 -8 17 4.19 0.18
2 -8 18 0.45 0.4
2 -8 19 0.32 0.13
2 -8 20 2.05 0.3
2 -7 1 38.95 0.48
2 -7 2 6.16 0.19
2 -7 3 202.18 1.7
2 -7 4 105.1 0.9
2 -7 5 96.8 0.8
2 -7 6 27.58 0.28
2 -7 7 32.43 0.32
2 -7 8 2.3 0.18
2 -7 9 6.69 0.19
2 -7 10 28.94 0.3
2 -7 11 13.27 0.26
2 -7 12 2.58 0.24
2 -7 13 11.06 0.3
2 -7 14 2.92 0.26
2 -7 15 7.7 0.47
2 -7 16 2.61 0.16
2 -7 17 1.03 0.41
2 -7 18 6.96 0.18
2 -7 19 2.78 0.36
2 -6 1 118.34 0.95
2 -6 2 43.75 0.4
2 -6 3 18.32 0.23
2 -6 4 48.8 0.45
2 -6 5 47.15 0.41
2 -6 6 6.65 0.12
2 -6 8 3.46 0.24
2 -6 9 1.54 0.14
2 -6 10 37.32 0.44
2 -6 12 2.4 0.29
2 -6 13 3.13 0.55
2 -6 14 0.51 0.31
2 -6 15 10.55 0.48
2 -6 17 2.76 0.42
2 -6 18 0.86 0.37
2 -6 19 1.99 0.33
2 -6 20 4.17 0.31
2 -5 1 24.3 0.25
2 -5 2 18.26 0.32
2 -5 3 285.65 2.48
2 -5 4 16.59 0.23
2 -5 6 100.53 0.92
2 -5 7 234.3 1.95
2 -5 8 44.27 0.41
2 -5 9 16.37 0.27
2 -5 10 20.5 0.25
2 -5 11 14.07 0.22
2 -5 12 8.08 0.19
2 -5 13 10.33 0.26
2 -5 14 44.97 0.64
2 -5 15 0.31 0.19
2 -5 16 2.31 0.46
2 -5 17 8.33 0.46
2 -4 1 27.07 0.35
2 -4 2 0.49 0.08
2 -4 3 223.21 1.9
2 -4 4 58.71 0.51
2 -4 5 66.58 0.56
2 -4 6 7.57 0.14
2 -4 7 161.96 1.34
2 -4 8 80.49 0.69
2 -4 9 1.4 0.14
2 -4 10 36.2 0.32
2 -4 11 7.93 0.18
2 -4 12 71.67 0.75
2 -4 13 0.26 0.21
2 -4 14 2.68 0.68
2 -4 15 2.07 0.48
2 -4 17 3.8 0.22
2 -4 19 0.33 0.33
2 -3 1 116.08 1.01
2 -3 2 93.65 0.77
2 -3 3 815.14 7.32
2 -3 4 4.86 0.15
2 -3 5 266.47 2.48
2 -3 6 34.2 0.36
2 -3 7 68.44 0.73
2 -3 8 79.47 0.72
2 -3 9 3.02 0.13
2 -3 10 32.24 0.31
2 -3 11 7.98 0.19
2 -3 12 24.01 0.38
2 -3 13 78.07 0.85
2 -3 14 0.55 0.43
2 -3 16 2.74 0.15
2 -3 17 6.45 0.18
2 -3 19 0.24 0.23
2 -2 1 428.07 3.11
2 -2 2 38.27 0.43
2 -2 3 71.29 0.76
2 -2 4 10.7 0.27
2 -2 5 89.46 0.76
2 -2 6 2.82 0.24
2 -2 7 18.2 0.24
2 -2 8 0.53 0.15
2 -2 9 31.97 0.34
2 -2 10 13.14 0.19
2 -2 12 2.62 0.2
2 -2 15 2.56 0.2
2 -2 16 0.44 0.15
2 -2 18 1.17 0.15
2 -2 19 0.72 0.33
2 -1 1 592.63 4.17
2 -1 2 156.14 1.17
2 -1 3 26.15 0.26
2 -1 4 1.22 0.15
2 -1 5 636.23 6.15
2 -1 6 3.94 0.23
2 -1 7 1.72 0.13
2 -1 8 15.3 0.4
2 -1 9 3.28 0.29
2 -1 10 0.18 0.14
2 -1 11 34.13 0.42
2 -1 12 0.8 0.19
2 -1 14 5.51 0.17
2 -1 15 2.33 0.24
2 -1 16 0.62 0.17
2 -1 18 2.66 0.34
2 0 0 62.95 0.47
2 0 1 203.88 1.47
2 0 2 341.91 2.54
2 0 3 1.12 0.09
2 0 4 24.65 0.48
2 0 5 184.39 1.59
2 0 6 123.62 1.14
2 0 7 97.45 1.03
2 0 8 27.16 0.28
2 0 9 83.34 0.92
2 0 10 3.16 0.19
2 0 11 8.66 0.3
2 0 12 20.47 0.52
2 0 13 5.67 0.44
2 0 14 3.49 0.16
2 0 15 1.51 0.19
2 0 16 0.29 0.16
2 0 17 1.32 0.11
2 0 18 1.66 0.25
2 1 0 7.3 0.09
2 1 1 156.91 1.33
2 1 2 125.18 1.16
2 1 3 49.03 0.47
2 1 4 259.59 2.22
2 1 5 229.39 1.86
2 1 7 5.9 0.22
2 1 8 18.04 0.2
2 1 9 20.47 0.35
2 1 10 26.56 0.37
2 1 11 60.73 0.89
2 1 12 5.08 0.23
2 1 13 6.24 0.21
2 1 14 0.7 0.19
2 1 15 5.32 0.18
2 1 17 1.96 0.27
2 2 0 6.81 0.12
2 2 1 24.78 0.26
2 2 2 124.43 1.28
2 2 3 0.44 0.16
2 2 4 321.8 2.86
2 2 5 3.13 0.14
2 2 6 3.03 0.13
2 2 7 18.89 0.2
2 2 8 31.06 0.35
2 2 9 23.74 0.3
2 2 10 4.07 0.2
2 2 12 2.13 0.42
2 2 14 0.44 0.26
2 2 15 14.6 0.42
2 2 16 2.73 0.41
2 3 0 23.26 0.27
2 3 1 79.75 1.03
2 3 2 23.54 0.27
2 3 3 0.75 0.13
2 3 4 29.2 0.43
2 3 5 4.76 0.2
2 3 6 46.53 0.39
2 3 7 20.37 0.21
2 3 8 18.78 0.22
2 3 9 36.96 0.35
2 3 10 12.93 0.26
2 3 11 7.42 0.24
2 3 12 3.44 0.21
2 3 13 9.47 0.52
2 3 14 7.74 0.52
2 3 16 2.14 0.12
2 4 0 429.45 4
2 4 1 8.79 0.17
2 4 2 11.97 0.26
2 4 3 3.25 0.14
2 4 4 5.64 0.25
2 4 6 8.9 0.13
2 4 8 24.26 0.25
2 4 9 2.46 0.2
2 4 10 10.71 0.5
2 4 11 1.99 0.5
2 4 12 0.27 0.18
2 4 13 3.03 0.18
2 5 0 99.41 0.9
2 5 1 91.02 0.8
2 5 2 9.18 0.3
2 5 3 31.38 0.34
2 5 4 6.1 0.14
2 5 5 0.76 0.1
2 5 7 5.92 0.12
2 5 8 16.96 0.36
2 5 9 13.11 0.21
2 5 10 1.77 0.18
2 5 11 6.05 0.52
2 5 12 12.25 0.23
2 6 0 3.7 0.12
2 6 1 7.44 0.25
2 6 2 126.59 1.62
2 6 3 19.74 0.27
2 6 4 3.49 0.14
2 6 5 8.2 0.16
2 6 6 46.86 0.44
2 6 7 17.06 0.31
2 6 8 17.96 0.22
2 6 9 1.3 0.19
2 6 10 4.86 0.28
2 6 11 8.6 0.66
2 6 12 4.8 0.48
2 7 0 13.27 0.23
2 7 1 5.35 0.31
2 7 2 46.25 0.53
2 7 3 2.5 0.13
2 7 4 5.48 0.22
2 7 5 24.07 0.28
2 7 7 25.48 0.37
2 7 8 6.01 0.44
2 7 9 6.3 0.3
2 7 10 1.97 0.52
2 7 11 0.97 0.48
2 8 0 41.98 0.37
2 8 1 39.72 0.41
2 8 2 3.32 0.14
2 8 4 33.37 0.42
2 8 5 41.64 0.5
2 8 6 16.77 0.53
2 8 9 10.04 0.2
2 8 10 4.8 0.16
2 8 12 1.6 0.39
2 9 0 12.12 0.22
2 9 1 0.23 0.14
2 9 2 17.28 0.29
2 9 3 2.72 0.31
2 9 4 43.68 0.53
2 9 5 2.42 0.22
2 9 7 0.38 0.16
2 10 0 13.31 0.21
2 10 1 1.2 0.22
2 10 2 0.89 0.2
2 10 4 10.49 0.26
2 10 5 10.31 0.51
2 10 6 3.93 0.22
2 10 7 3.16 0.15
2 10 9 0.99 0.33
2 11 1 4.41 0.22
2 11 2 9.34 0.34
2 11 3 2.7 0.42
2 11 5 4.39 0.15
2 11 7 1.03 0.15
2 12 1 1.03 0.21
2 12 3 8.06 0.5
2 12 4 8.23 0.2
2 12 6 2.7 0.19
2 13 0 2.43 0.42
2 13 1 18.81 0.46
2 13 2 2.64 0.18
2 13 3 10.54 0.49
2 13 4 1.73 0.41
2 13 7 3.17 0.31
2 14 1 1.86 0.18
2 14 3 15.49 0.52
2 14 4 0.91 0.34
2 14 6 1.12 0.26
2 15 0 0.39 0.33
2 15 1 5.32 0.41
2 16 3 1.87 0.29
2 17 0 1.07 0.32
2 17 1 0.35 0.18
2 17 2 2.45 0.25
2 18 0 1.03 0.28
3 -20 10 1.35 0.3
3 -20 11 1.02 0.29
3 -19 6 1.49 0.35
3 -19 7 0.7 0.12
3 -19 8 0.83 0.34
3 -19 9 5.65 0.14
3 -19 12 0.85 0.12
3 -18 4 0.24 0.12
3 -18 5 0.33 0.15
3 -18 8 1.42 0.38
3 -18 9 5.5 0.43
3 -18 10 0.76 0.14
3 -18 11 5.62 0.38
3 -18 12 4.69 0.36
3 -18 15 0.78 0.3
3 -17 2 0.92 0.41
3 -17 3 0.82 0.32
3 -17 5 1.48 0.14
3 -17 6 3.99 0.14
3 -17 7 2.99 0.41
3 -17 8 0.83 0.17
3 -17 9 0.99 0.16
3 -17 11 4.68 0.16
3 -16 1 0.25 0.16
3 -16 2 0.61 0.14
3 -16 3 1.03 0.43
3 -16 4 3.31 0.15
3 -16 5 1.17 0.22
3 -16 6 0.39 0.17
3 -16 7 3.9 0.17
3 -16 8 0.15 0.15
3 -16 9 3.09 0.15
3 -16 10 6.68 0.32
3 -16 12 1.35 0.16
3 -16 13 7.18 0.4
3 -16 14 0.62 0.39
3 -15 2 2.01 0.14
3 -15 3 12.65 0.52
3 -15 4 4.05 0.2
3 -15 6 1.06 0.19
3 -15 8 1.17 0.14
3 -15 9 3.22 0.46
3 -15 10 6.54 0.16
3 -15 11 5.6 0.18
3 -15 13 3.15 0.17
3 -15 14 2.47 0.41
3 -15 15 0.61 0.15
3 -14 1 0.48 0.18
3 -14 2 9.85 0.45
3 -14 3 20.02 0.56
3 -14 4 1.91 0.18
3 -14 5 0.32 0.32
3 -14 6 7.79 0.23
3 -14 7 4.42 0.26
3 -14 9 3.44 0.38
3 -14 11 10.48 0.35
3 -14 12 1.36 0.21
3 -14 13 0.27 0.18
3 -14 14 3.8 0.19
3 -14 16 5.92 0.48
3 -14 19 5.94 0.37
3 -13 1 0.34 0.2
3 -13 2 15.41 0.28
3 -13 3 21.94 0.31
3 -13 4 30.84 0.37
3 -13 5 0.97 0.19
3 -13 6 8.62 0.2
3 -13 7 2.74 0.31
3 -13 8 1.94 0.18
3 -13 11 9.62 0.27
3 -13 13 0.58 0.16
3 -13 14 0.86 0.23
3 -13 15 0.55 0.19
3 -13 16 0.52 0.48
3 -13 17 0.69 0.43
3 -13 19 0.55 0.36
3 -13 20 0.45 0.3
3 -12 1 33.67 0.39
3 -12 2 0.47 0.16
3 -12 3 8.57 0.26
3 -12 4 15.48 0.24
3 -12 5 5.8 0.19
3 -12 6 11.18 0.25
3 -12 7 3.89 0.19
3 -12 8 13.32 0.36
3 -12 9 3.7 0.15
3 -12 10 3.58 0.31
3 -12 11 13.66 0.27
3 -12 12 6.06 0.23
3 -12 14 3.8 0.19
3 -12 15 1.06 0.19
3 -12 17 1.38 0.44
3 -12 18 2.5 0.43
3 -12 19 2.62 0.38
3 -11 1 0.16 0.15
3 -11 2 75.85 0.76
3 -11 3 1.46 0.15
3 -11 4 0.34 0.16
3 -11 5 47.06 0.63
3 -11 6 6.08 0.17
3 -11 7 0.61 0.18
3 -11 8 6.83 0.15
3 -11 9 13.38 0.22
3 -11 10 11.15 0.54
3 -11 11 0.67 0.2
3 -11 12 12.22 0.28
3 -11 14 0.75 0.29
3 -11 15 4.02 0.32
3 -11 16 2.03 0.18
3 -11 17 1.05 0.46
3 -10 1 8.08 0.18
3 -10 2 21.95 0.35
3 -10 3 1.26 0.29
3 -10 4 1.87 0.13
3 -10 5 3.02 0.14
3 -10 6 0.15 0.14
3 -10 7 28.63 0.29
3 -10 8 0.16 0.12
3 -10 9 2.98 0.18
3 -10 10 25.8 0.29
3 -10 11 92.42 2.8
3 -10 12 2.69 0.62
3 -10 13 13.77 0.29
3 -10 14 1.5 0.52
3 -10 15 6.17 0.41
3 -10 16 1.96 0.5
3 -10 17 2.86 0.47
3 -10 18 1.38 0.44
3 -9 1 2.87 0.13
3 -9 2 54.91 0.68
3 -9 3 19.33 0.23
3 -9 4 2.91 0.12
3 -9 6 2.98 0.11
3 -9 7 3.15 0.11
3 -9 8 37.03 0.38
3 -9 9 2.83 0.17
3 -9 10 24.42 0.34
3 -9 11 18.36 0.73
3 -9 12 9.85 0.51
3 -9 13 2.49 0.23
3 -9 14 3.02 0.42
3 -9 15 0.38 0.19
3 -9 16 2.22 0.29
3 -9 17 2.87 0.47
3 -9 18 0.66 0.46
3 -9 19 0.69 0.12
3 -8 1 0.62 0.14
3 -8 2 19.58 0.32
3 -8 3 6.84 0.28
3 -8 4 52.56 0.58
3 -8 5 0.16 0.16
3 -8 6 1.12 0.16
3 -8 7 3.13 0.16
3 -8 8 0.57 0.12
3 -8 9 1.78 0.19
3 -8 10 81.3 0.91
3 -8 13 18.33 0.5
3 -8 14 17.09 0.56
3 -8 15 11.52 0.56
3 -8 16 5.89 0.21
3 -8 17 3.41 0.41
3 -7 1 37.23 0.34
3 -7 2 105.94 0.89
3 -7 3 335.54 3.15
3 -7 4 34.26 0.46
3 -7 5 14.19 0.39
3 -7 6 18.37 0.28
3 -7 7 3.43 0.13
3 -7 8 1.31 0.11
3 -7 9 9.55 0.18
3 -7 10 8.57 0.35
3 -7 11 5.53 0.19
3 -7 12 5.57 0.17
3 -7 13 2.7 0.18
3 -7 14 2.28 0.42
3 -7 15 0.18 0.14
3 -7 16 0.29 0.18
3 -7 17 0.58 0.52
3 -7 18 1.78 0.35
3 -7 19 0.42 0.3
3 -6 1 362.48 3.45
3 -6 2 239.44 2.01
3 -6 3 42.02 0.58
3 -6 4 125.74 1.16
3 -6 5 26.41 0.34
3 -6 6 115.76 1.05
3 -6 7 23.74 0.31
3 -6 8 6.18 0.15
3 -6 10 1.42 0.1
3 -6 11 0.34 0.11
3 -6 12 23.93 0.25
3 -6 13 8.04 0.33
3 -6 14 0.21 0.18
3 -6 15 2.77 0.21
3 -6 16 3.2 0.23
3 -6 17 0.56 0.4
3 -6 18 0.91 0.36
3 -5 1 311.14 2.56
3 -5 2 88.64 0.78
3 -5 3 186.41 1.6
3 -5 4 44.74 0.4
3 -5 5 45.8 0.46
3 -5 7 29.56 0.38
3 -5 8 18.05 0.22
3 -5 9 16.57 0.17
3 -5 10 16.97 0.18
3 -5 11 16.2 0.2
3 -5 13 9.28 0.35
3 -5 14 10.53 0.48
3 -5 15 2.51 0.5
3 -5 16 3.68 0.46
3 -5 17 8.42 0.41
3 -4 1 135.87 1.87
3 -4 2 18.65 0.33
3 -4 3 90.43 0.85
3 -4 4 1.56 0.13
3 -4 5 4.14 0.14
3 -4 7 1.6 0.12
3 -4 8 49.57 0.46
3 -4 9 6.07 0.11
3 -4 10 1.19 0.1
3 -4 12 6.14 0.16
3 -4 13 8.6 0.24
3 -4 14 0.46 0.44
3 -4 15 2.93 0.2
3 -4 16 1.32 0.14
3 -4 17 0.54 0.28
3 -4 18 8.57 0.41
3 -3 1 309.82 2.66
3 -3 2 9.09 0.19
3 -3 3 2.25 0.13
3 -3 4 27.65 0.46
3 -3 5 356 3.21
3 -3 6 3.37 0.17
3 -3 7 36.51 0.39
3 -3 8 20.67 0.26
3 -3 9 27.6 0.25
3 -3 10 7.42 0.18
3 -3 11 3.29 0.15
3 -3 12 52.44 0.57
3 -3 13 13.04 0.72
3 -3 14 7.58 0.23
3 -3 15 4.56 0.16
3 -3 16 14.16 0.24
3 -3 17 0.95 0.4
3 -2 1 363.19 2.89
3 -2 2 40.55 0.62
3 -2 3 72.59 1.03
3 -2 4 6.49 0.25
3 -2 5 267.65 2.26
3 -2 6 33.49 0.35
3 -2 7 20.04 0.33
3 -2 8 11.87 0.15
3 -2 9 36.59 0.36
3 -2 10 55.54 0.57
3 -2 11 10.09 0.28
3 -2 12 0.68 0.2
3 -2 13 5.1 0.44
3 -2 15 3.07 0.3
3 -2 18 0.62 0.17
3 -1 1 1026.56 8.5
3 -1 2 48.34 0.48
3 -1 3 307.17 2.57
3 -1 4 8.54 0.19
3 -1 5 182.31 1.49
3 -1 6 61.44 0.55
3 -1 7 1.23 0.15
3 -1 8 36.76 0.34
3 -1 9 19.57 0.3
3 -1 10 3.94 0.15
3 -1 11 118.91 1.38
3 -1 12 2.41 0.21
3 -1 13 1.44 0.42
3 -1 14 0.4 0.15
3 -1 15 12.52 0.41
3 -1 18 1.59 0.11
3 0 0 75.94 0.59
3 0 1 39.51 0.35
3 0 2 1.74 0.18
3 0 3 68.51 0.65
3 0 4 3.26 0.19
3 0 5 7.55 0.18
3 0 6 5.95 0.2
3 0 7 13.8 0.16
3 0 8 24.86 0.27
3 0 9 0.12 0.12
3 0 10 2.86 0.15
3 0 11 0.62 0.2
3 0 12 0.82 0.42
3 0 13 4.29 0.16
3 0 14 0.27 0.15
3 0 16 1.37 0.11
3 0 17 1.01 0.33
3 0 18 0.7 0.11
3 1 0 119.94 0.92
3 1 1 61.11 0.51
3 1 2 30.8 0.4
3 1 3 496.45 5.8
3 1 4 69.81 1.01
3 1 6 23.14 0.35
3 1 7 2.48 0.11
3 1 9 29.81 0.36
3 1 10 2.16 0.13
3 1 12 2.29 0.43
3 1 13 3.54 0.19
3 1 16 1.89 0.18
3 1 17 1.89 0.34
3 2 0 286.66 2.25
3 2 1 0.43 0.12
3 2 2 4.87 0.19
3 2 3 52.99 0.53
3 2 4 276.8 2.62
3 2 5 49.62 1.12
3 2 6 0.43 0.12
3 2 7 68.09 0.76
3 2 8 24.53 0.28
3 2 9 16.12 0.21
3 2 10 18.73 0.23
3 2 11 0.94 0.44
3 2 12 5.69 0.2
3 2 13 1.75 0.26
3 2 15 2.52 0.37
3 2 16 1.52 0.31
3 3 0 5.3 0.17
3 3 2 137.06 1.17
3 3 3 256.68 2.39
3 3 4 26.05 0.35
3 3 5 24.89 0.29
3 3 6 9.96 0.18
3 3 7 29.15 0.31
3 3 8 1.91 0.12
3 3 9 77.46 0.81
3 3 11 5.55 0.23
3 3 12 0.59 0.15
3 3 13 6.48 0.18
3 4 0 54.07 0.55
3 4 1 4.12 0.31
3 4 2 205.05 1.8
3 4 3 12.79 0.25
3 4 4 11.07 0.22
3 4 5 4.92 0.12
3 4 6 44.84 0.45
3 4 7 9.72 0.19
3 4 9 5.81 0.15
3 4 10 2.86 0.45
3 4 13 7.54 0.7
3 4 14 8.14 0.19
3 5 0 6.2 0.27
3 5 1 2.1 0.18
3 5 2 55.75 0.66
3 5 3 5.47 0.18
3 5 4 15.03 0.2
3 5 5 20.83 0.22
3 5 6 34.03 0.32
3 5 7 20.35 0.24
3 5 8 13.13 0.2
3 5 9 12.91 0.24
3 5 10 1.42 0.13
3 5 11 1.39 0.5
3 5 12 8.58 0.46
3 5 13 2.3 0.14
3 5 14 1.87 0.36
3 6 0 9.7 0.3
3 6 1 8.26 0.36
3 6 2 4.04 0.11
3 6 3 0.2 0.1
3 6 4 2.45 0.14
3 6 5 4.34 0.19
3 6 6 21.03 0.52
3 6 7 1.23 0.15
3 6 8 11.3 0.49
3 6 9 0.42 0.11
3 6 12 6.92 0.41
3 7 0 13.65 0.32
3 7 1 18.06 0.19
3 7 3 0.37 0.16
3 7 5 1.6 0.15
3 7 6 13.16 0.22
3 7 7 1.38 0.67
3 7 8 10.27 0.21
3 7 9 5.93 0.19
3 7 10 2.8 0.49
3 7 11 20.18 0.58
3 7 13 5.42 0.33
3 8 0 48.06 0.51
3 8 1 21.86 0.26
3 8 2 13.43 0.3
3 8 3 8.1 0.21
3 8 4 10.19 0.23
3 8 5 16.36 0.31
3 8 6 23.69 0.5
3 8 8 0.68 0.15
3 8 9 7.06 0.33
3 9 0 31.66 0.45
3 9 2 0.89 0.14
3 9 3 11.77 0.25
3 9 4 6.48 0.18
3 9 6 2.2 0.16
3 9 7 1.04 0.15
3 9 8 2.27 0.32
3 10 0 4.61 0.13
3 10 1 1.2 0.15
3 10 2 6.31 0.3
3 10 3 24.37 0.71
3 10 4 18.19 0.57
3 10 5 2.25 0.19
3 10 6 2.12 0.23
3 10 7 5.12 0.43
3 10 8 4.06 0.42
3 10 9 1.82 0.11
3 11 0 5 0.28
3 11 1 7.49 0.41
3 11 2 22.09 0.61
3 11 7 0.98 0.34
3 11 8 0.86 0.29
3 12 0 0.56 0.21
3 12 1 8.47 0.48
3 12 2 3.87 0.29
3 12 3 15.04 0.25
3 12 4 1.11 0.17
3 12 5 0.33 0.14
3 12 6 0.13 0.13
3 12 7 0.68 0.13
3 13 0 6.34 0.31
3 13 1 1.3 0.48
3 13 3 2.68 0.25
3 13 5 1.41 0.33
3 14 1 4.83 0.3
3 14 2 0.72 0.15
3 14 3 1.12 0.37
3 14 4 1.83 0.33
3 15 1 4.34 0.41
3 17 0 0.18 0.11
4 -20 9 0.62 0.08
4 -19 2 1.85 0.26
4 -19 3 0.24 0.1
4 -19 8 0.24 0.11
4 -19 9 1.2 0.11
4 -19 11 0.47 0.33
4 -18 2 0.38 0.11
4 -18 4 0.55 0.14
4 -18 6 0.17 0.13
4 -18 8 1.5 0.14
4 -18 9 3.06 0.41
4 -17 1 0.66 0.17
4 -17 4 2.51 0.4
4 -17 5 3.13 0.22
4 -17 7 14.4 0.22
4 -17 9 2.09 0.16
4 -17 10 0.33 0.15
4 -16 1 0.68 0.41
4 -16 2 1.4 0.13
4 -16 6 0.64 0.15
4 -16 7 13.13 0.49
4 -16 8 0.86 0.14
4 -16 9 6.97 0.19
4 -16 10 13.09 0.47
4 -16 11 1.62 0.42
4 -16 12 0.44 0.41
4 -16 17 0.97 0.28
4 -15 1 3.21 0.15
4 -15 2 0.16 0.13
4 -15 3 2.47 0.15
4 -15 5 1.44 0.18
4 -15 6 3.91 0.15
4 -15 7 1.63 0.18
4 -15 8 0.23 0.15
4 -15 9 4.58 0.18
4 -15 10 3.19 0.18
4 -15 17 0.61 0.35
4 -14 1 0.19 0.15
4 -14 2 4.83 0.15
4 -14 3 4.9 0.38
4 -14 4 2.07 0.39
4 -14 5 5.41 0.4
4 -14 7 1.77 0.4
4 -14 8 13.03 0.48
4 -14 9 13.69 0.38
4 -14 10 1.47 0.2
4 -14 11 11.63 0.52
4 -14 12 3.81 0.45
4 -14 14 0.46 0.17
4 -14 15 1.63 0.27
4 -14 16 1.18 0.41
4 -14 19 0.81 0.26
4 -13 1 10.15 0.25
4 -13 2 13.26 0.27
4 -13 3 0.49 0.18
4 -13 4 0.7 0.18
4 -13 7 13.39 0.24
4 -13 8 3.87 0.19
4 -13 9 15.82 0.28
4 -13 11 10.5 0.32
4 -13 12 1.5 0.15
4 -13 13 2.31 0.22
4 -12 1 48.48 0.7
4 -12 2 0.4 0.17
4 -12 3 1.34 0.19
4 -12 4 9.88 0.28
4 -12 5 11.59 0.36
4 -12 6 1.07 0.17
4 -12 7 6.6 0.19
4 -12 8 0.29 0.14
4 -12 9 11.71 0.26
4 -12 10 9.86 0.26
4 -12 12 5.79 0.25
4 -12 13 0.83 0.15
4 -12 14 7.47 0.21
4 -12 15 6.47 0.48
4 -12 17 7.84 0.47
4 -11 1 24.58 0.31
4 -11 2 53.17 0.54
4 -11 3 3.5 0.16
4 -11 4 13.01 0.22
4 -11 5 0.79 0.25
4 -11 6 8.15 0.3
4 -11 7 0.25 0.13
4 -11 8 0.75 0.19
4 -11 9 16.34 0.3
4 -11 11 4.07 0.27
4 -11 12 0.48 0.42
4 -11 13 0.87 0.2
4 -11 14 0.44 0.19
4 -11 15 1.43 0.43
4 -11 17 3.51 0.45
4 -11 18 0.58 0.38
4 -11 19 0.71 0.32
4 -10 1 22.12 0.35
4 -10 2 7.13 0.18
4 -10 3 11.27 0.33
4 -10 4 33.63 0.62
4 -10 5 1.18 0.15
4 -10 6 18.38 0.22
4 -10 7 16.99 0.25
4 -10 8 5.69 0.21
4 -10 9 7.43 0.43
4 -10 10 13.45 0.73
4 -10 12 7.33 0.8
4 -10 14 0.72 0.35
4 -10 15 1.24 0.47
4 -10 16 4.35 0.49
4 -9 1 27.98 0.3
4 -9 2 1.61 0.16
4 -9 3 56.43 0.58
4 -9 4 19.61 0.23
4 -9 5 0.15 0.1
4 -9 6 6.42 0.17
4 -9 7 13.61 0.25
4 -9 8 30.95 0.39
4 -9 10 12.06 0.26
4 -9 11 2.91 0.21
4 -9 12 0.79 0.21
4 -9 13 2.95 0.42
4 -9 14 7.78 0.22
4 -8 2 0.51 0.14
4 -8 3 8.88 0.2
4 -8 4 2.04 0.16
4 -8 5 30.36 0.31
4 -8 6 7.84 0.17
4 -8 7 9.59 0.22
4 -8 8 7.49 0.22
4 -8 9 131.55 1.36
4 -8 10 40.81 0.48
4 -8 11 22.75 0.45
4 -8 13 11.72 0.49
4 -8 15 7.72 0.21
4 -8 16 0.68 0.5
4 -7 1 8.1 0.15
4 -7 2 1 0.13
4 -7 3 0.29 0.13
4 -7 5 22.36 0.29
4 -7 6 29.64 0.32
4 -7 7 13.59 0.17
4 -7 8 21.61 0.36
4 -7 9 17.95 0.21
4 -7 10 19.14 0.24
4 -7 11 7.07 0.17
4 -7 12 4.45 0.14
4 -7 13 0.66 0.18
4 -7 14 0.72 0.45
4 -7 15 7.9 0.52
4 -6 1 48.59 0.66
4 -6 2 53.26 0.64
4 -6 3 2.13 0.14
4 -6 5 6 0.16
4 -6 6 1.05 0.11
4 -6 7 1.2 0.1
4 -6 8 128.46 1.25
4 -6 9 6.85 0.14
4 -6 10 3.18 0.13
4 -6 11 10.87 0.19
4 -6 12 44.69 0.42
4 -6 13 4.98 0.18
4 -6 14 9.36 0.3
4 -6 15 4.9 0.23
4 -6 16 0.2 0.16
4 -5 1 345.8 2.9
4 -5 2 114.93 0.97
4 -5 3 2.85 0.12
4 -5 4 0.48 0.12
4 -5 5 16.66 0.28
4 -5 6 0.63 0.19
4 -5 7 7.3 0.15
4 -5 8 5.93 0.13
4 -5 9 14.83 0.19
4 -5 10 4.92 0.14
4 -5 11 6.88 0.14
4 -5 12 2.51 0.13
4 -5 16 3.6 0.17
4 -4 1 233.84 1.92
4 -4 2 63.31 0.55
4 -4 3 124.03 1.51
4 -4 4 108.18 1.07
4 -4 5 1.39 0.18
4 -4 6 20.04 0.37
4 -4 7 0.56 0.09
4 -4 8 0.33 0.1
4 -4 9 4.3 0.12
4 -4 10 18.57 0.25
4 -4 11 23.37 0.29
4 -4 12 0.74 0.15
4 -4 13 1.03 0.18
4 -4 14 7.9 0.28
4 -4 17 7.96 0.2
4 -3 1 224.87 1.91
4 -3 2 87.1 0.75
4 -3 3 65.84 0.67
4 -3 4 4.1 0.27
4 -3 5 50.36 0.53
4 -3 6 4.48 0.33
4 -3 7 11.65 0.16
4 -3 8 32.54 0.35
4 -3 9 7.78 0.17
4 -3 10 4.16 0.16
4 -3 11 4.1 0.18
4 -3 12 22.73 0.27
4 -3 13 1.2 0.14
4 -3 14 0.38 0.13
4 -3 15 14.57 0.37
4 -3 16 0.83 0.12
4 -3 17 1.52 0.22
4 -3 18 1.57 0.27
4 -2 1 104.37 0.94
4 -2 2 5.94 0.19
4 -2 3 23.74 0.33
4 -2 4 2.46 0.16
4 -2 5 11.26 0.5
4 -2 6 37.53 0.44
4 -2 7 17.51 0.24
4 -2 8 0.92 0.11
4 -2 9 6.11 0.21
4 -2 10 7.34 0.17
4 -2 11 3.07 0.21
4 -2 12 0.25 0.16
4 -2 13 4.18 0.17
4 -2 14 1.56 0.51
4 -2 16 11.38 0.28
4 -2 17 0.35 0.14
4 -1 1 0.34 0.13
4 -1 2 0.5 0.17
4 -1 3 306.25 3.12
4 -1 4 30.47 0.42
4 -1 5 38.96 0.44
4 -1 6 17.33 0.21
4 -1 7 38.79 0.35
4 -1 8 11.5 0.17
4 -1 9 0.42 0.12
4 -1 10 31.15 0.6
4 -1 11 46.63 0.47
4 -1 12 6.58 0.46
4 -1 13 0.64 0.15
4 -1 14 17.86 0.43
4 -1 15 3.63 0.17
4 -1 17 1.17 0.28
4 0 0 0.17 0.1
4 0 1 49.94 0.45
4 0 2 59.62 0.56
4 0 3 213.2 1.96
4 0 4 0.98 0.22
4 0 5 31.12 0.66
4 0 7 48.96 0.43
4 0 8 17.85 0.21
4 0 9 25.8 0.27
4 0 10 0.88 0.16
4 0 11 4.69 0.18
4 0 12 1.83 0.14
4 0 13 2.01 0.13
4 0 14 0.59 0.18
4 0 16 0.22 0.11
4 1 0 211.69 1.65
4 1 1 85.76 0.72
4 1 2 125.86 1.57
4 1 3 199.31 2.18
4 1 4 14.04 0.38
4 1 5 14.05 0.25
4 1 6 21 0.22
4 1 7 41.86 0.5
4 1 8 0.12 0.12
4 1 9 101.19 0.89
4 1 10 23.72 0.27
4 1 11 1.06 0.17
4 1 12 0.34 0.13
4 1 13 14.87 0.31
4 1 14 1.05 0.13
4 1 16 0.95 0.3
4 2 1 29.74 0.34
4 2 2 14.81 0.36
4 2 4 12.5 0.37
4 2 5 4.13 0.13
4 2 6 24.01 0.27
4 2 7 0.79 0.11
4 2 8 0.75 0.16
4 2 9 5.36 0.15
4 2 10 2.25 0.13
4 2 11 3.75 0.14
4 2 14 0.89 0.24
4 2 15 0.66 0.12
4 2 16 2.33 0.29
4 3 0 39.79 0.59
4 3 1 169.55 1.61
4 3 2 159.78 1.55
4 3 3 6.93 0.25
4 3 4 20.39 0.25
4 3 5 0.52 0.11
4 3 7 13.5 0.21
4 3 8 11.26 0.18
4 3 9 0.18 0.13
4 3 10 0.85 0.14
4 3 11 2.1 0.14
4 3 12 1.23 0.21
4 3 14 0.83 0.13
4 3 15 3.18 0.31
4 4 0 3.36 0.28
4 4 1 0.92 0.28
4 4 2 244.61 2.29
4 4 3 2.01 0.11
4 4 4 4.27 0.12
4 4 5 26.76 0.28
4 4 6 49.22 0.55
4 4 7 11.12 0.25
4 4 8 7.5 0.17
4 4 9 0.51 0.15
4 4 10 5.4 0.17
4 4 11 2.89 0.15
4 4 13 2.69 0.15
4 4 14 0.48 0.14
4 5 0 45.94 1.1
4 5 1 180.94 1.79
4 5 2 95.72 1
4 5 3 24.15 0.24
4 5 4 0.78 0.11
4 5 5 23.31 0.51
4 5 6 3.71 0.16
4 5 7 59.29 0.54
4 5 8 0.86 0.14
4 5 9 1.79 0.12
4 5 10 3.26 0.16
4 5 11 3.5 0.25
4 5 13 2.29 0.37
4 5 14 0.32 0.09
4 6 0 73.22 0.97
4 6 1 53.45 0.47
4 6 2 5.73 0.21
4 6 4 33.27 0.35
4 6 5 0.33 0.15
4 6 6 1.7 0.17
4 6 7 11.24 0.38
4 6 8 1.34 0.15
4 6 9 0.46 0.12
4 6 11 1.01 0.23
4 6 12 11.83 0.46
4 7 0 52.02 0.47
4 7 2 1.05 0.12
4 7 3 12.23 0.18
4 7 4 40.04 0.41
4 7 5 4.95 0.18
4 7 6 11.39 0.44
4 7 7 12.25 0.24
4 7 11 4.53 0.36
4 8 0 1.09 0.11
4 8 3 9.45 0.21
4 8 4 11.38 0.21
4 8 5 0.64 0.26
4 8 6 7.32 0.21
4 8 8 0.15 0.14
4 8 10 4.39 0.2
4 9 0 3.31 0.13
4 9 1 0.57 0.12
4 9 3 0.5 0.21
4 9 4 4.59 0.18
4 9 5 0.28 0.13
4 9 6 14.02 0.27
4 9 7 2.02 0.14
4 9 8 0.2 0.15
4 9 9 10.99 0.43
4 10 0 15.6 0.21
4 10 1 1.68 0.13
4 10 2 0.38 0.16
4 10 3 7.46 0.2
4 10 4 21.28 0.33
4 10 5 0.25 0.11
4 10 7 4.74 0.15
4 10 8 3.26 0.12
4 11 1 2.78 0.18
4 11 2 11.26 0.2
4 11 3 10.49 0.18
4 11 6 1.62 0.38
4 12 0 1.03 0.18
4 12 1 8.75 0.21
4 12 2 10.45 0.18
4 12 3 8.66 0.2
4 12 4 1.92 0.4
4 12 7 2.67 0.28
4 13 0 5.98 0.24
4 13 1 2.51 0.18
4 14 0 1.01 0.43
4 14 1 11.1 0.2
4 15 0 0.41 0.4
4 15 1 1.55 0.12
4 15 3 1.06 0.09
4 16 1 1.28 0.31
5 -19 6 1.66 0.31
5 -18 2 0.99 0.1
5 -18 4 0.15 0.11
5 -18 5 1.6 0.34
5 -18 7 0.76 0.35
5 -18 8 0.68 0.21
5 -18 10 0.41 0.33
5 -17 2 0.27 0.12
5 -17 4 0.58 0.13
5 -17 5 0.5 0.14
5 -17 7 2.34 0.2
5 -17 9 1.2 0.38
5 -16 1 3.25 0.34
5 -16 2 2.58 0.21
5 -16 3 0.21 0.15
5 -16 4 0.43 0.13
5 -16 6 0.97 0.17
5 -16 7 5.71 0.4
5 -16 8 0.45 0.44
5 -16 15 2.27 0.32
5 -16 16 3.7 0.29
5 -15 1 1.01 0.12
5 -15 2 1.69 0.19
5 -15 3 6.02 0.28
5 -15 4 2.04 0.43
5 -15 5 19.86 0.31
5 -15 6 2.91 0.25
5 -15 7 4.68 0.13
5 -15 9 3.86 0.46
5 -15 14 0.41 0.13
5 -15 16 0.37 0.1
5 -15 17 2.14 0.3
5 -14 2 0.22 0.14
5 -14 3 1.35 0.13
5 -14 4 0.38 0.12
5 -14 5 23.91 0.25
5 -14 6 2.13 0.34
5 -14 7 5.98 0.47
5 -14 8 27.12 0.66
5 -14 9 9.71 0.52
5 -14 10 1.3 0.45
5 -14 11 2.5 0.44
5 -14 12 0.33 0.14
5 -14 13 0.85 0.16
5 -14 15 3.33 0.14
5 -13 1 3.48 0.17
5 -13 2 19.77 0.28
5 -13 3 0.21 0.16
5 -13 4 10.12 0.22
5 -13 5 0.42 0.31
5 -13 6 1.45 0.76
5 -13 7 2.13 0.41
5 -13 11 1.55 0.15
5 -13 13 1.6 0.14
5 -13 14 1.47 0.29
5 -13 15 1.06 0.42
5 -13 16 0.51 0.13
5 -12 1 12.63 0.21
5 -12 2 2.69 0.18
5 -12 3 4.12 0.2
5 -12 4 2.96 0.3
5 -12 6 13.86 0.34
5 -12 7 34.89 0.52
5 -12 8 4.31 0.77
5 -12 9 10.5 0.48
5 -12 10 13.63 0.25
5 -12 12 0.86 0.51
5 -12 13 2.29 0.19
5 -12 14 2.36 0.18
5 -11 2 0.25 0.18
5 -11 4 0.74 0.17
5 -11 5 21.9 0.75
5 -11 7 25.56 0.37
5 -11 8 8.83 0.25
5 -11 9 16.62 0.57
5 -11 11 5.1 0.19
5 -11 12 1.16 0.21
5 -11 16 1.92 0.14
5 -10 1 6.68 0.28
5 -10 2 4.62 0.25
5 -10 3 18.81 0.37
5 -10 4 10.16 0.28
5 -10 5 8.28 0.22
5 -10 6 1.63 0.17
5 -10 7 8.22 0.23
5 -10 8 25.9 0.37
5 -10 9 0.39 0.38
5 -10 10 5.25 0.23
5 -10 11 4.71 0.42
5 -10 12 4.7 0.28
5 -10 13 17.6 0.24
5 -10 15 5.54 0.5
5 -10 16 11.61 0.52
5 -9 1 12.17 0.19
5 -9 2 15.18 0.25
5 -9 3 0.13 0.12
5 -9 4 20.35 0.22
5 -9 6 6.77 0.25
5 -9 7 16.15 0.91
5 -9 8 7.28 0.23
5 -9 9 11.12 0.25
5 -9 10 0.25 0.2
5 -9 11 1.76 0.21
5 -9 13 1.92 0.29
5 -9 14 0.71 0.15
5 -9 15 8.15 0.2
5 -9 17 2.32 0.4
5 -8 1 7.89 0.16
5 -8 2 69.63 0.57
5 -8 3 0.71 0.12
5 -8 4 18.57 0.19
5 -8 5 34.6 0.45
5 -8 6 3.13 0.17
5 -8 7 2.43 0.14
5 -8 8 16.77 0.24
5 -8 9 3.03 0.17
5 -8 10 6.09 0.22
5 -8 11 0.21 0.16
5 -8 12 1.23 0.17
5 -8 13 1.34 0.2
5 -8 14 5.09 0.19
5 -8 15 8.57 0.46
5 -8 16 3.21 0.44
5 -7 1 44.92 0.38
5 -7 2 32.73 0.32
5 -7 3 5.67 0.11
5 -7 4 3.54 0.11
5 -7 5 6.68 0.15
5 -7 6 61.5 0.54
5 -7 8 5.59 0.14
5 -7 9 6.7 0.15
5 -7 10 2.75 0.13
5 -7 11 0.59 0.15
5 -7 12 14.11 0.34
5 -7 14 0.17 0.16
5 -7 15 0.54 0.16
5 -7 17 0.77 0.35
5 -6 1 16.6 0.21
5 -6 2 7.04 0.18
5 -6 3 17.21 0.3
5 -6 4 38.08 0.35
5 -6 5 7.32 0.13
5 -6 7 102.17 0.94
5 -6 8 137.82 1.29
5 -6 9 10.54 0.17
5 -6 10 7.99 0.16
5 -6 11 10.8 0.23
5 -6 12 3.91 0.15
5 -6 13 11.64 0.27
5 -6 14 0.55 0.13
5 -6 15 1.13 0.23
5 -6 17 0.66 0.31
5 -5 1 0.26 0.14
5 -5 2 5.49 0.15
5 -5 3 34.86 0.58
5 -5 4 5.66 0.24
5 -5 5 30.35 0.28
5 -5 6 22.44 0.23
5 -5 7 13.36 0.21
5 -5 8 19.86 0.32
5 -5 9 17.39 0.21
5 -5 10 5.59 0.16
5 -5 11 0.15 0.16
5 -5 13 12.32 0.27
5 -5 14 0.4 0.17
5 -5 15 1.71 0.17
5 -5 16 0.19 0.13
5 -5 18 3.11 0.25
5 -4 1 8.85 0.24
5 -4 2 4.78 0.18
5 -4 3 6.2 0.18
5 -4 4 0.26 0.19
5 -4 5 14.6 0.18
5 -4 6 120.03 1.22
5 -4 7 46.18 0.41
5 -4 8 3.53 0.21
5 -4 9 0.66 0.14
5 -4 10 66.92 0.73
5 -4 12 12.22 0.5
5 -4 13 5.98 0.15
5 -4 14 1.88 0.13
5 -4 17 1.82 0.22
5 -3 1 9.48 0.2
5 -3 2 7.96 0.18
5 -3 3 16.36 0.42
5 -3 5 8.14 0.18
5 -3 6 0.82 0.11
5 -3 7 24.21 0.26
5 -3 8 6.52 0.16
5 -3 9 10.34 0.19
5 -3 10 2.47 0.14
5 -3 11 0.21 0.15
5 -3 13 0.14 0.11
5 -3 14 4.19 0.18
5 -3 17 1.19 0.3
5 -2 1 178.53 1.66
5 -2 2 41.49 0.63
5 -2 3 10.15 0.33
5 -2 4 30.5 0.53
5 -2 5 0.36 0.12
5 -2 7 7.27 0.16
5 -2 8 5.14 0.18
5 -2 9 40.98 0.72
5 -2 10 2.07 0.16
5 -2 12 10.37 0.28
5 -2 15 3.22 0.15
5 -2 16 10.78 0.42
5 -1 1 106.61 1.07
5 -1 2 5.43 0.28
5 -1 3 38.02 0.57
5 -1 5 6.47 0.14
5 -1 6 34.18 0.31
5 -1 7 0.31 0.11
5 -1 8 9.2 0.16
5 -1 9 0.3 0.19
5 -1 10 25.57 0.37
5 -1 12 0.88 0.11
5 -1 13 14.11 0.21
5 -1 14 3.93 0.22
5 -1 15 1.71 0.36
5 0 0 60.71 0.55
5 0 1 35.36 0.59
5 0 2 1 0.22
5 0 3 14.23 0.36
5 0 4 14.35 0.43
5 0 5 17.08 0.19
5 0 6 15.38 0.25
5 0 7 8.99 0.15
5 0 8 2.44 0.29
5 0 9 0.54 0.19
5 0 11 4.09 0.13
5 0 12 2.11 0.17
5 0 13 0.14 0.13
5 0 14 9.07 0.2
5 1 0 1.81 0.14
5 1 1 148.74 1.32
5 1 2 120.77 1.35
5 1 3 14.49 0.53
5 1 4 9.16 0.2
5 1 5 41.66 0.37
5 1 6 17.62 0.21
5 1 7 0.38 0.12
5 1 8 6.97 0.19
5 1 9 72.85 0.7
5 1 10 0.8 0.18
5 1 11 0.34 0.12
5 1 12 13.16 0.18
5 1 13 10.47 0.17
5 1 14 0.87 0.42
5 1 15 0.77 0.31
5 2 0 73.01 0.64
5 2 1 96.8 0.98
5 2 2 6.39 0.37
5 2 3 23.18 0.32
5 2 4 3.56 0.12
5 2 5 25.87 0.32
5 2 6 0.56 0.11
5 2 7 24.39 0.26
5 2 8 6.49 0.25
5 2 9 0.54 0.13
5 2 10 5.09 0.17
5 2 11 1.17 0.12
5 2 12 0.86 0.13
5 3 0 197.37 2.14
5 3 1 86.17 0.91
5 3 2 0.47 0.31
5 3 3 19.11 0.24
5 3 4 3.74 0.12
5 3 5 58.42 0.57
5 3 6 0.86 0.12
5 3 7 49.82 0.49
5 3 8 49.07 0.5
5 3 10 2.88 0.13
5 3 11 8.7 0.33
5 4 0 24.09 0.48
5 4 1 4.43 0.25
5 4 2 12.14 0.24
5 4 3 1.97 0.11
5 4 4 14.75 0.24
5 4 5 1.2 0.17
5 4 7 11.36 0.2
5 4 8 1.35 0.14
5 4 9 1.16 0.11
5 4 12 0.79 0.11
5 4 13 0.19 0.08
5 4 14 4.53 0.28
5 5 0 144.61 1.51
5 5 1 23.36 0.23
5 5 2 8.02 0.14
5 5 4 0.6 0.13
5 5 5 3.28 0.22
5 5 6 16.02 0.23
5 5 7 1.41 0.33
5 5 8 0.81 0.15
5 5 10 2.76 0.17
5 6 0 101.02 0.86
5 6 1 8.34 0.15
5 6 2 5.14 0.14
5 6 3 2.9 0.13
5 6 4 49.34 0.6
5 6 5 1.78 0.15
5 6 6 0.79 0.17
5 6 7 2.77 0.16
5 6 8 2.66 0.15
5 6 9 3.1 0.36
5 6 11 1.23 0.13
5 7 0 137.84 1.19
5 7 1 5.43 0.19
5 7 2 1.01 0.12
5 7 3 9.82 0.23
5 7 4 14.65 0.33
5 7 5 28.69 0.67
5 7 6 3.61 0.13
5 7 8 3.1 0.2
5 7 9 1 0.41
5 7 11 1.88 0.33
5 8 1 0.8 0.2
5 8 2 13.27 0.19
5 8 3 1.48 0.16
5 8 4 4.73 0.19
5 8 5 9.34 0.19
5 8 7 1.02 0.11
5 8 10 8.38 0.37
5 9 1 3.09 0.17
5 9 2 32.02 0.46
5 9 4 7.99 0.14
5 9 5 6.94 0.23
5 9 6 0.96 0.16
5 9 8 1.5 0.12
5 9 9 4.25 0.32
5 10 0 0.4 0.13
5 10 1 7.61 0.28
5 10 2 3.77 0.18
5 10 3 0.5 0.15
5 10 4 3.6 0.15
5 10 8 1.49 0.1
5 11 1 0.53 0.14
5 11 2 0.46 0.21
5 11 3 2.32 0.15
5 11 4 8.53 0.16
5 11 5 0.23 0.11
5 12 1 1.43 0.19
5 12 2 12.1 0.31
5 12 3 2.48 0.16
5 12 4 0.44 0.38
5 12 5 1.81 0.35
5 12 6 2.09 0.11
5 13 0 8.55 0.15
5 13 1 2.04 0.16
5 13 4 0.6 0.33
5 13 5 0.42 0.17
5 14 0 2.64 0.22
5 14 1 10.4 0.18
5 14 2 0.43 0.35
5 14 4 1.03 0.29
5 16 0 0.57 0.31
6 -18 1 2.44 0.26
6 -18 2 0.42 0.29
6 -18 3 0.87 0.3
6 -18 5 7.8 0.37
6 -18 6 2.35 0.33
6 -18 7 1.73 0.34
6 -17 4 2.46 0.37
6 -17 6 0.99 0.37
6 -17 7 1.17 0.37
6 -16 3 2.28 0.39
6 -16 7 0.7 0.42
6 -16 8 0.6 0.41
6 -16 9 3.8 0.41
6 -16 14 0.34 0.31
6 -16 15 2.8 0.28
6 -15 2 0.54 0.13
6 -15 3 3.09 0.17
6 -15 4 0.84 0.45
6 -15 5 2.41 0.25
6 -15 6 1.55 0.17
6 -15 8 2.19 0.43
6 -15 13 4.11 0.36
6 -15 16 0.57 0.28
6 -14 1 1.56 0.12
6 -14 2 0.32 0.12
6 -14 5 9.18 0.21
6 -14 6 2.51 0.45
6 -14 10 0.24 0.22
6 -14 11 2.63 0.13
6 -14 13 1.83 0.38
6 -14 14 9.04 0.18
6 -14 15 2.59 0.13
6 -14 16 0.36 0.09
6 -13 1 6.43 0.31
6 -13 2 12.1 0.23
6 -13 3 14.63 0.25
6 -13 4 16.25 0.54
6 -13 5 2.87 0.18
6 -13 6 3.52 0.15
6 -13 7 4.54 0.47
6 -13 9 0.63 0.15
6 -13 10 0.55 0.18
6 -13 11 0.16 0.14
6 -13 12 1.13 0.13
6 -13 14 0.16 0.11
6 -13 15 3.27 0.13
6 -13 16 0.83 0.3
6 -12 1 0.47 0.16
6 -12 2 5.53 0.42
6 -12 3 32.61 0.95
6 -12 4 7.15 0.79
6 -12 5 2.1 0.19
6 -12 6 31.53 0.66
6 -12 7 31.04 0.68
6 -12 8 1.38 0.2
6 -12 9 0.9 0.13
6 -12 10 3 0.21
6 -12 11 0.95 0.16
6 -12 12 0.33 0.14
6 -12 13 5.06 0.47
6 -12 14 1.65 0.15
6 -11 1 5.53 0.2
6 -11 2 14.54 0.56
6 -11 4 2.62 0.4
6 -11 6 9.71 0.29
6 -11 8 0.49 0.4
6 -11 9 2.84 0.41
6 -11 11 1.54 0.51
6 -11 12 4.63 0.19
6 -11 13 0.52 0.44
6 -11 14 1.79 0.16
6 -11 17 0.69 0.2
6 -10 1 0.83 0.17
6 -10 2 9.85 0.18
6 -10 4 7.68 0.14
6 -10 5 54.65 0.67
6 -10 6 15.95 0.35
6 -10 7 5.65 0.23
6 -10 8 24.01 0.62
6 -10 9 1.85 0.37
6 -10 10 0.92 0.15
6 -10 11 3.77 0.46
6 -10 12 2.56 0.17
6 -10 13 0.77 0.14
6 -10 15 2.46 0.42
6 -9 1 0.52 0.13
6 -9 2 3.61 0.17
6 -9 3 17.26 0.33
6 -9 4 7.05 0.17
6 -9 5 19.77 0.24
6 -9 6 33.61 0.37
6 -9 7 11.29 0.25
6 -9 8 4.69 0.17
6 -9 9 4.3 0.24
6 -9 10 3.25 0.18
6 -9 12 0.17 0.15
6 -9 13 0.2 0.15
6 -9 14 1.9 0.46
6 -8 1 17.18 0.23
6 -8 2 31.22 0.28
6 -8 3 5.78 0.19
6 -8 4 4.44 0.23
6 -8 5 2.43 0.15
6 -8 6 42.25 0.56
6 -8 8 3.73 0.17
6 -8 9 9.66 0.21
6 -8 10 0.57 0.16
6 -8 11 28.21 0.36
6 -8 12 1.01 0.12
6 -8 13 2.45 0.23
6 -8 14 15.57 0.46
6 -8 15 4.15 0.15
6 -7 1 6 0.13
6 -7 2 29.05 0.29
6 -7 3 1.47 0.17
6 -7 4 15.22 0.34
6 -7 5 4.77 0.2
6 -7 6 30.92 0.31
6 -7 7 13.94 0.34
6 -7 8 0.61 0.12
6 -7 9 3.19 0.16
6 -7 10 0.33 0.13
6 -7 11 0.34 0.17
6 -7 12 5.4 0.14
6 -7 13 9.15 0.34
6 -7 14 2.86 0.18
6 -7 15 2.21 0.39
6 -7 16 2.34 0.35
6 -6 1 17.81 0.25
6 -6 2 14 0.17
6 -6 3 43.88 0.43
6 -6 4 0.22 0.11
6 -6 5 0.42 0.11
6 -6 6 14.83 0.19
6 -6 7 5.96 0.26
6 -6 8 2.08 0.12
6 -6 9 2.31 0.13
6 -6 10 0.99 0.13
6 -6 11 1.4 0.14
6 -6 12 5.18 0.18
6 -6 13 10.98 0.32
6 -6 14 8.39 0.19
6 -6 16 0.64 0.34
6 -5 1 14.32 0.17
6 -5 2 0.74 0.11
6 -5 3 0.4 0.2
6 -5 4 79.61 0.66
6 -5 5 3.55 0.19
6 -5 6 0.53 0.14
6 -5 7 5.79 0.14
6 -5 8 7.41 0.18
6 -5 10 13.11 0.22
6 -5 11 1.16 0.17
6 -5 12 0.58 0.13
6 -5 13 0.24 0.12
6 -5 14 0.35 0.34
6 -4 1 1.85 0.11
6 -4 2 58.75 0.51
6 -4 3 0.34 0.11
6 -4 4 1.81 0.13
6 -4 5 36.4 0.34
6 -4 6 220.24 2.32
6 -4 7 0.58 0.14
6 -4 8 19.81 0.24
6 -4 9 2.3 0.17
6 -4 10 15.17 0.25
6 -4 11 9.3 0.41
6 -4 13 1.93 0.11
6 -4 14 0.62 0.16
6 -4 16 0.75 0.32
6 -4 17 0.78 0.27
6 -3 1 18.54 0.28
6 -3 2 1.62 0.23
6 -3 3 36.82 0.39
6 -3 4 29.05 0.3
6 -3 5 10.45 0.19
6 -3 6 9.61 0.17
6 -3 7 29.29 0.3
6 -3 8 8.3 0.18
6 -3 10 0.5 0.22
6 -3 11 13.14 0.17
6 -3 12 2.37 0.14
6 -3 13 0.45 0.19
6 -3 14 1.26 0.12
6 -2 1 3.14 0.18
6 -2 3 30.13 0.28
6 -2 4 58.02 0.63
6 -2 5 106.11 0.94
6 -2 7 1.89 0.16
6 -2 8 59.64 0.61
6 -2 9 6.22 0.2
6 -2 10 11.81 0.23
6 -2 11 5.24 0.13
6 -2 12 3.6 0.11
6 -2 13 0.25 0.14
6 -2 14 0.97 0.19
6 -2 15 0.29 0.11
6 -2 16 2.29 0.3
6 -1 1 4.56 0.26
6 -1 3 14.73 0.28
6 -1 5 19.65 0.41
6 -1 6 12.22 0.25
6 -1 7 13.5 0.18
6 -1 8 2.19 0.13
6 -1 10 0.3 0.16
6 -1 11 0.58 0.18
6 -1 12 2.67 0.11
6 -1 15 0.48 0.31
6 -1 16 3.58 0.29
6 0 0 0.57 0.28
6 0 1 43.41 0.64
6 0 2 24.09 0.47
6 0 4 0.86 0.14
6 0 5 4.66 0.13
6 0 7 46.52 0.43
6 0 8 5.72 0.17
6 0 9 0.45 0.17
6 0 10 8.67 0.14
6 0 11 1.69 0.2
6 0 12 0.29 0.23
6 0 14 11.5 0.17
6 0 15 0.39 0.11
6 1 0 0.81 0.18
6 1 1 12.91 0.52
6 1 2 9.3 0.2
6 1 3 1.82 0.11
6 1 4 22.99 0.25
6 1 5 1.27 0.12
6 1 6 8.16 0.16
6 1 7 1.55 0.15
6 1 8 14.86 0.35
6 1 9 4.81 0.26
6 1 10 3.31 0.12
6 1 11 7.41 0.23
6 1 12 9.18 0.2
6 1 13 0.77 0.37
6 1 14 0.41 0.32
6 1 15 4.8 0.29
6 2 1 8.71 0.39
6 2 2 3.72 0.15
6 2 3 7.7 0.15
6 2 4 29.73 0.3
6 2 5 2.49 0.12
6 2 8 0.35 0.17
6 2 9 1.95 0.13
6 2 10 2.78 0.11
6 2 11 0.56 0.13
6 2 12 4.9 0.16
6 2 13 4.26 0.22
6 3 0 149.49 1.77
6 3 1 0.37 0.13
6 3 2 2.94 0.15
6 3 3 29.67 0.34
6 3 4 18.69 0.39
6 3 5 1.72 0.12
6 3 7 63.37 0.58
6 3 8 1.33 0.11
6 3 9 2.11 0.11
6 3 10 4.68 0.12
6 3 11 16.16 0.44
6 3 12 0.19 0.13
6 4 0 21.89 0.25
6 4 1 9.87 0.15
6 4 2 5.95 0.14
6 4 3 4.58 0.17
6 4 4 1.53 0.16
6 4 5 11.31 0.2
6 4 6 9.12 0.37
6 4 7 1.29 0.13
6 4 8 6.14 0.17
6 4 9 1.49 0.13
6 4 10 1.05 0.11
6 4 11 0.3 0.11
6 5 0 8.84 0.23
6 5 1 9.4 0.21
6 5 3 50.95 0.47
6 5 5 11.36 0.36
6 5 6 51.25 0.88
6 5 7 4.28 0.19
6 5 8 3.17 0.18
6 5 9 1.74 0.42
6 5 10 7.18 0.17
6 6 0 4.8 0.14
6 6 1 2.22 0.12
6 6 2 7.9 0.2
6 6 3 0.78 0.17
6 6 4 2.33 0.27
6 6 5 10.12 0.53
6 6 6 0.23 0.13
6 6 9 0.57 0.42
6 6 10 0.38 0.36
6 7 0 0.27 0.14
6 7 1 2.3 0.14
6 7 2 1.19 0.21
6 7 3 0.33 0.13
6 7 4 12.19 0.33
6 7 5 2.8 0.21
6 7 6 1.84 0.26
6 7 8 2.23 0.61
6 7 9 0.47 0.19
6 8 0 0.37 0.15
6 8 2 27.02 0.29
6 8 5 3.16 0.24
6 8 6 0.48 0.14
6 8 7 2.35 0.4
6 9 0 2.9 0.14
6 9 1 1.51 0.23
6 9 2 19.03 0.22
6 9 3 8.06 0.21
6 9 4 3.81 0.13
6 9 6 1.18 0.16
6 10 0 2.33 0.18
6 10 1 4.66 0.15
6 10 2 4.06 0.15
6 10 3 4.11 0.19
6 10 4 0.26 0.13
6 10 6 0.22 0.13
6 10 7 0.69 0.33
6 11 0 17.33 0.27
6 11 1 1.93 0.34
6 11 2 4.46 0.26
6 11 3 2.66 0.44
6 11 4 2.14 0.15
6 11 6 0.29 0.1
6 12 0 0.44 0.17
6 12 1 0.58 0.26
6 12 2 1.36 0.15
6 13 1 2.4 0.41
6 13 2 2.82 0.13
6 14 0 3.98 0.14
6 14 1 3.74 0.35
7 -18 5 4.34 0.32
7 -18 8 0.63 0.28
7 -17 6 1.57 0.32
7 -16 4 6.6 0.42
7 -16 5 3.48 0.39
7 -16 6 0.85 0.37
7 -16 7 0.43 0.39
7 -15 2 2.45 0.39
7 -15 3 2.23 0.39
7 -15 4 1.96 0.4
7 -15 5 0.47 0.41
7 -15 6 4.4 0.42
7 -15 11 0.57 0.36
7 -15 12 2.17 0.32
7 -15 13 0.35 0.3
7 -14 1 2.73 0.17
7 -14 4 3.6 0.17
7 -14 5 1.12 0.17
7 -14 7 5.25 0.45
7 -14 9 4.96 0.41
7 -14 10 9.2 0.26
7 -14 11 0.24 0.19
7 -14 13 4.12 0.13
7 -14 14 2.61 0.15
7 -13 1 8.31 0.2
7 -13 2 0.9 0.44
7 -13 3 0.54 0.17
7 -13 4 4.81 0.19
7 -13 6 5.05 0.19
7 -13 11 6.74 0.16
7 -13 12 3.67 0.15
7 -13 13 0.23 0.11
7 -13 14 0.56 0.33
7 -13 15 0.48 0.19
7 -12 1 0.74 0.17
7 -12 3 10.22 0.22
7 -12 4 5.43 0.2
7 -12 5 0.21 0.18
7 -12 6 1.48 0.47
7 -12 9 6.36 0.17
7 -12 11 0.41 0.42
7 -12 12 12.9 0.21
7 -12 13 8.92 0.23
7 -12 16 0.62 0.26
7 -11 2 32.01 0.7
7 -11 4 8.86 0.17
7 -11 5 0.79 0.42
7 -11 6 1.33 0.4
7 -11 7 1.24 0.13
7 -11 8 0.49 0.13
7 -11 10 1.51 0.13
7 -11 11 0.27 0.17
7 -11 13 4.16 0.13
7 -11 14 1.78 0.36
7 -10 1 21.08 0.56
7 -10 2 23.6 0.29
7 -10 3 0.49 0.19
7 -10 4 21.84 0.31
7 -10 5 63.77 0.79
7 -10 6 0.2 0.16
7 -10 8 6.83 0.17
7 -10 10 2.37 0.15
7 -10 11 4.61 0.18
7 -10 12 5.01 0.2
7 -10 16 0.38 0.34
7 -9 1 0.62 0.12
7 -9 2 1.51 0.21
7 -9 3 0.95 0.12
7 -9 4 6.3 0.24
7 -9 5 1.16 0.15
7 -9 6 2.28 0.22
7 -9 7 2.38 0.21
7 -9 9 0.5 0.14
7 -9 10 9.04 0.24
7 -9 12 3.33 0.38
7 -9 13 1.92 0.45
7 -9 14 0.31 0.14
7 -9 15 0.19 0.12
7 -8 2 0.86 0.12
7 -8 3 56.24 0.5
7 -8 4 45.09 0.48
7 -8 5 3.01 0.3
7 -8 6 25.91 0.54
7 -8 7 7.44 0.24
7 -8 9 4.99 0.19
7 -8 10 1.94 0.11
7 -8 11 2.46 0.3
7 -8 13 1.81 0.11
7 -8 14 0.22 0.14
7 -7 1 4.66 0.26
7 -7 2 20.04 0.27
7 -7 3 3.56 0.14
7 -7 4 55.82 0.53
7 -7 5 0.62 0.19
7 -7 6 16.56 0.3
7 -7 7 1.28 0.26
7 -7 8 5.14 0.21
7 -7 9 1.57 0.27
7 -7 11 0.72 0.11
7 -7 12 0.39 0.14
7 -7 13 7.29 0.19
7 -7 14 1.75 0.39
7 -7 15 6.21 0.39
7 -7 16 0.33 0.29
7 -6 1 0.47 0.16
7 -6 2 5.26 0.19
7 -6 4 45.23 0.54
7 -6 5 2.52 0.23
7 -6 6 2.59 0.15
7 -6 7 12.3 0.23
7 -6 8 0.52 0.13
7 -6 9 26.49 0.3
7 -6 10 5.63 0.24
7 -6 11 0.96 0.15
7 -6 12 12.73 0.26
7 -6 13 8.83 0.29
7 -6 16 2.32 0.28
7 -5 1 10.03 0.17
7 -5 2 13.84 0.18
7 -5 3 1.26 0.12
7 -5 4 50.41 0.57
7 -5 5 5.29 0.22
7 -5 6 4.84 0.17
7 -5 7 2.31 0.3
7 -5 8 0.76 0.15
7 -5 10 11.22 0.18
7 -5 11 3.17 0.19
7 -5 12 12.02 0.22
7 -5 13 0.27 0.15
7 -4 1 44.64 0.48
7 -4 2 1.47 0.11
7 -4 4 11.93 0.19
7 -4 5 4.78 0.13
7 -4 7 3.35 0.23
7 -4 8 0.36 0.15
7 -4 9 0.9 0.17
7 -4 10 5.89 0.24
7 -4 11 8.15 0.33
7 -4 12 14.29 0.25
7 -4 13 0.43 0.21
7 -4 14 0.61 0.37
7 -4 15 1.05 0.1
7 -3 1 1.41 0.11
7 -3 2 60.44 0.51
7 -3 3 18.41 0.3
7 -3 5 1.22 0.12
7 -3 6 11.43 0.17
7 -3 8 6.24 0.25
7 -3 9 6.56 0.2
7 -3 10 0.19 0.13
7 -3 12 0.57 0.16
7 -3 14 1.07 0.17
7 -3 15 0.45 0.28
7 -2 1 2.47 0.14
7 -2 2 0.3 0.1
7 -2 3 3.19 0.14
7 -2 4 196.27 1.84
7 -2 5 29.07 0.34
7 -2 6 15.24 0.25
7 -2 7 1.35 0.17
7 -2 8 21.99 0.35
7 -2 9 2.24 0.18
7 -2 10 0.49 0.15
7 -2 11 2.04 0.13
7 -2 12 0.74 0.13
7 -2 14 2.13 0.11
7 -2 15 0.35 0.28
7 -1 1 21.5 0.26
7 -1 2 33.98 0.36
7 -1 3 12.76 0.18
7 -1 4 1.13 0.27
7 -1 5 30.09 0.35
7 -1 6 12.48 0.25
7 -1 7 0.66 0.21
7 -1 8 2.21 0.18
7 -1 9 9.78 0.2
7 -1 10 4.01 0.12
7 -1 12 1.5 0.12
7 -1 14 1.7 0.32
7 0 0 0.66 0.12
7 0 1 24.42 0.35
7 0 2 8.39 0.17
7 0 3 124.87 1.19
7 0 4 9.78 0.21
7 0 5 5.75 0.18
7 0 6 29.03 0.45
7 0 7 23.12 0.27
7 0 8 6.62 0.42
7 0 9 3.75 0.11
7 0 10 3.71 0.16
7 0 11 1.47 0.47
7 0 12 0.17 0.14
7 0 13 0.39 0.11
7 0 14 3.33 0.14
7 1 1 20.7 0.36
7 1 3 6.81 0.27
7 1 4 16.68 0.21
7 1 5 17.63 0.35
7 1 6 1.32 0.13
7 1 8 0.22 0.13
7 1 9 1.08 0.11
7 1 10 0.68 0.2
7 1 11 0.94 0.12
7 1 14 2.31 0.27
7 2 2 1.46 0.15
7 2 3 0.38 0.16
7 2 4 4.52 0.14
7 2 5 32.3 0.39
7 2 6 9.74 0.34
7 2 7 0.96 0.14
7 2 8 4.65 0.14
7 2 9 2.8 0.14
7 2 10 0.7 0.16
7 2 12 6.74 0.4
7 2 13 2.26 0.09
7 3 0 17.91 0.44
7 3 2 9.28 0.19
7 3 3 3.3 0.17
7 3 4 3.48 0.16
7 3 5 2.43 0.16
7 3 6 3.33 0.42
7 3 7 11.4 0.17
7 3 8 2.15 0.13
7 3 9 1.41 0.32
7 3 10 8.64 0.44
7 3 12 1.99 0.1
7 4 0 0.23 0.14
7 4 1 1.98 0.19
7 4 2 25.2 0.31
7 4 4 1.04 0.17
7 4 5 0.66 0.17
7 4 6 0.96 0.16
7 4 8 3.01 0.18
7 4 9 0.63 0.4
7 4 11 4.06 0.27
7 5 1 15.76 0.26
7 5 2 14.49 0.52
7 5 3 5.5 0.19
7 5 4 2.16 0.16
7 5 5 31.41 0.31
7 5 6 9.05 0.17
7 5 7 1.03 0.14
7 5 8 0.49 0.15
7 5 9 14.56 0.29
7 6 0 3.13 0.21
7 6 2 1.7 0.14
7 6 3 2.55 0.17
7 6 4 4.51 0.18
7 6 5 7.3 0.2
7 6 6 2.56 0.15
7 6 7 1.83 0.16
7 6 8 0.81 0.13
7 6 9 0.54 0.34
7 7 0 2.05 0.2
7 7 1 26.73 0.38
7 7 2 2.1 0.21
7 7 3 0.53 0.17
7 7 4 32.01 0.34
7 7 5 10.47 0.18
7 7 6 0.75 0.15
7 7 8 5.76 0.43
7 7 9 0.7 0.32
7 8 0 4.38 0.21
7 8 2 3.93 0.14
7 8 3 4.09 0.12
7 8 4 0.88 0.15
7 9 0 1.21 0.15
7 9 2 5.84 0.14
7 9 3 2.54 0.12
7 9 4 2.86 0.27
7 9 6 0.38 0.36
7 9 7 0.65 0.33
7 10 0 7.54 0.15
7 10 1 3.26 0.12
7 10 2 0.49 0.12
7 10 3 1.51 0.16
7 10 5 0.9 0.14
7 11 0 11.91 0.2
7 11 1 0.55 0.15
7 11 2 2.3 0.16
7 12 0 1.89 0.23
7 12 1 0.96 0.25
7 12 2 0.61 0.12
7 13 0 1.77 0.15
7 13 1 0.82 0.35
7 13 2 1.3 0.31
7 14 0 0.59 0.34
8 -17 2 1.99 0.27
8 -17 5 0.32 0.28
8 -16 6 1.43 0.32
8 -15 4 1.39 0.37
8 -15 5 3.43 0.38
8 -15 7 0.73 0.39
8 -14 1 5.73 0.42
8 -14 2 12.84 0.5
8 -14 3 8.64 0.46
8 -14 4 0.64 0.4
8 -14 8 1.61 0.38
8 -14 9 3.4 0.37
8 -13 1 7.74 0.19
8 -13 2 1.91 0.41
8 -13 4 5.98 0.46
8 -13 6 2.15 0.44
8 -13 9 0.32 0.15
8 -13 10 2.79 0.19
8 -13 11 1.79 0.13
8 -13 13 0.68 0.12
8 -12 2 4.3 0.25
8 -12 3 2.9 0.25
8 -12 5 4.13 0.46
8 -12 6 8.77 0.31
8 -12 7 2.06 0.22
8 -12 8 15.81 0.28
8 -12 9 3.61 0.25
8 -12 10 0.41 0.21
8 -12 11 2.48 0.23
8 -12 12 5.79 0.25
8 -12 14 0.29 0.08
8 -11 1 0.24 0.15
8 -11 2 4.69 0.23
8 -11 3 2.71 0.34
8 -11 4 5.79 0.26
8 -11 5 0.4 0.12
8 -11 6 0.39 0.14
8 -11 8 0.84 0.12
8 -11 9 7.05 0.16
8 -11 10 6.9 0.15
8 -11 11 0.6 0.43
8 -11 12 0.78 0.37
8 -11 13 0.86 0.12
8 -10 1 5.94 0.44
8 -10 2 8.14 0.24
8 -10 3 1.24 0.14
8 -10 4 2.03 0.17
8 -10 5 0.47 0.2
8 -10 7 9.61 0.15
8 -10 8 0.36 0.1
8 -10 10 11.57 0.19
8 -10 11 19.48 0.55
8 -10 13 0.52 0.12
8 -10 14 0.76 0.36
8 -9 1 3.21 0.31
8 -9 2 7.86 0.16
8 -9 3 1.01 0.15
8 -9 4 1.98 0.26
8 -9 5 0.78 0.36
8 -9 8 0.88 0.13
8 -9 9 1.66 0.11
8 -9 11 3.23 0.15
8 -9 12 3.31 0.17
8 -9 13 0.98 0.38
8 -8 1 1.61 0.13
8 -8 2 7.13 0.16
8 -8 3 79.91 0.77
8 -8 4 4.9 0.42
8 -8 5 3.21 0.2
8 -8 6 7.01 0.45
8 -8 7 0.18 0.15
8 -8 8 4.63 0.11
8 -8 9 2.05 0.14
8 -8 10 11.17 0.21
8 -8 14 0.69 0.14
8 -7 1 2.02 0.13
8 -7 2 1.97 0.13
8 -7 3 0.65 0.18
8 -7 4 5.25 0.3
8 -7 5 0.28 0.15
8 -7 6 3.16 0.18
8 -7 8 9.76 0.28
8 -7 9 2.06 0.12
8 -7 10 2.26 0.13
8 -7 11 4.63 0.18
8 -7 14 1.5 0.11
8 -6 1 31.95 0.4
8 -6 2 80.13 0.83
8 -6 3 4.17 0.18
8 -6 4 19.37 0.42
8 -6 5 16.25 0.51
8 -6 6 0.53 0.16
8 -6 7 6.19 0.16
8 -6 8 1.26 0.12
8 -6 9 2.56 0.14
8 -6 11 0.94 0.18
8 -5 1 1.15 0.15
8 -5 2 46.32 0.48
8 -5 3 7.03 0.38
8 -5 4 22.31 0.45
8 -5 5 0.21 0.15
8 -5 6 3.67 0.15
8 -5 7 4.31 0.18
8 -5 8 0.33 0.12
8 -5 9 0.49 0.12
8 -5 10 0.39 0.14
8 -5 11 10.1 0.45
8 -5 13 7.8 0.42
8 -5 14 0.95 0.1
8 -4 1 0.36 0.13
8 -4 2 34.48 0.38
8 -4 3 8.5 0.17
8 -4 4 1.43 0.19
8 -4 5 11.07 0.17
8 -4 6 4.02 0.14
8 -4 7 15.3 0.3
8 -4 8 12.41 0.22
8 -4 9 1.15 0.16
8 -4 10 7.6 0.17
8 -4 11 10.57 0.21
8 -4 12 0.73 0.39
8 -4 14 1.76 0.31
8 -3 1 16.51 0.25
8 -3 2 42.05 0.44
8 -3 4 8.72 0.16
8 -3 5 0.55 0.14
8 -3 6 2.57 0.22
8 -3 7 2.4 0.25
8 -3 8 9.39 0.19
8 -3 10 16.58 0.37
8 -3 11 0.9 0.29
8 -3 12 7.63 0.24
8 -3 14 0.34 0.29
8 -2 1 0.43 0.15
8 -2 2 10.18 0.21
8 -2 3 1.84 0.13
8 -2 4 0.19 0.13
8 -2 5 2.01 0.2
8 -2 8 5.61 0.18
8 -2 9 5.58 0.48
8 -2 10 15.36 0.26
8 -2 11 1.92 0.32
8 -2 12 0.45 0.38
8 -2 13 0.59 0.34
8 -1 1 35.63 0.38
8 -1 4 9.39 0.43
8 -1 5 1.07 0.39
8 -1 6 0.88 0.16
8 -1 7 10.09 0.19
8 -1 9 0.62 0.28
8 -1 12 0.74 0.12
8 -1 13 0.83 0.1
8 0 0 0.53 0.35
8 0 1 0.44 0.34
8 0 2 100.4 1.29
8 0 3 69.83 0.68
8 0 4 1.3 0.17
8 0 5 9.01 0.45
8 0 6 14.11 0.35
8 0 8 1.13 0.25
8 0 9 1.45 0.14
8 0 10 0.8 0.15
8 0 12 1.71 0.33
8 0 13 0.15 0.09
8 1 3 17.85 0.26
8 1 4 16.31 0.26
8 1 5 2.38 0.22
8 1 6 3.65 0.18
8 1 7 4.68 0.24
8 1 8 4.84 0.18
8 1 10 0.78 0.41
8 1 12 1.01 0.1
8 2 2 32.78 0.65
8 2 3 2.48 0.4
8 2 4 5.71 0.19
8 2 5 31.38 0.88
8 2 6 1.12 0.16
8 2 7 2.37 0.15
8 2 8 2.23 0.2
8 2 9 1.94 0.44
8 2 11 1.78 0.29
8 2 12 1.62 0.28
8 3 2 11.61 0.45
8 3 3 21.17 0.33
8 3 5 0.48 0.13
8 3 6 0.71 0.15
8 3 7 0.64 0.12
8 3 8 0.25 0.16
8 3 9 0.74 0.38
8 4 0 0.82 0.37
8 4 2 6.71 0.19
8 4 3 13.4 0.51
8 4 4 11.06 0.23
8 4 5 2.92 0.42
8 4 6 1.29 0.13
8 4 7 1.99 0.16
8 4 10 1.85 0.11
8 5 0 2.81 0.39
8 5 1 3.15 0.18
8 5 2 1.23 0.44
8 5 3 1.16 0.18
8 5 5 10.06 0.2
8 5 6 0.22 0.12
8 5 8 5.24 0.42
8 5 9 1.55 0.11
8 6 0 11.87 0.48
8 6 1 3.26 0.18
8 6 2 0.58 0.15
8 6 3 0.76 0.2
8 6 4 0.38 0.13
8 6 5 0.45 0.17
8 6 6 1.85 0.15
8 6 7 0.63 0.38
8 6 8 0.56 0.11
8 6 9 3.11 0.31
8 7 0 7.71 0.2
8 7 1 7.89 0.17
8 7 2 1.77 0.18
8 7 3 8.06 0.2
8 7 4 11.44 0.22
8 7 7 8.76 0.21
8 7 8 0.84 0.15
8 8 0 0.52 0.15
8 8 1 0.44 0.12
8 8 2 0.47 0.22
8 8 3 8.93 0.23
8 8 5 2.04 0.38
8 8 6 1.2 0.15
8 8 7 0.32 0.3
8 9 0 5.08 0.24
8 9 2 13.24 0.37
8 9 3 9.99 0.47
8 9 6 3.42 0.33
8 10 0 2.22 0.18
8 10 1 0.57 0.2
8 10 2 1.81 0.12
8 11 0 2.39 0.15
8 11 1 1.21 0.14
8 11 2 2.92 0.13
8 12 1 0.44 0.35
8 13 0 1.08 0.33
8 14 0 0.29 0.28
9 -15 1 0.64 0.31
9 -15 4 2.93 0.34
9 -14 1 2.75 0.36
9 -14 2 6.4 0.4
9 -14 4 1.82 0.36
9 -14 5 1.46 0.35
9 -13 2 0.55 0.34
9 -13 3 5.69 0.43
9 -13 8 0.36 0.15
9 -12 1 16.49 0.55
9 -12 2 2.64 0.17
9 -12 5 0.95 0.43
9 -12 7 4.87 0.16
9 -11 1 0.46 0.14
9 -11 2 5.28 0.19
9 -11 3 4.67 0.12
9 -11 4 1.39 0.11
9 -11 6 0.36 0.12
9 -11 7 0.79 0.17
9 -11 8 1.86 0.44
9 -11 9 2.62 0.14
9 -11 10 0.42 0.09
9 -11 11 1.23 0.36
9 -11 13 0.74 0.28
9 -10 1 4.49 0.19
9 -10 2 0.17 0.14
9 -10 3 1.86 0.11
9 -10 4 14.14 0.23
9 -10 6 15.26 0.3
9 -10 7 11.71 0.2
9 -10 8 0.33 0.11
9 -10 9 0.27 0.11
9 -10 10 7.82 0.16
9 -10 11 1.85 0.13
9 -10 12 0.35 0.33
9 -10 13 0.33 0.22
9 -9 1 8.54 0.19
9 -9 2 2.58 0.13
9 -9 3 2.77 0.12
9 -9 4 0.35 0.15
9 -9 5 0.31 0.18
9 -9 6 0.72 0.13
9 -9 7 5.7 0.16
9 -9 8 8.74 0.14
9 -9 9 3.17 0.16
9 -9 10 0.54 0.15
9 -9 11 1.06 0.2
9 -8 1 4.58 0.15
9 -8 2 1.75 0.17
9 -8 3 1.61 0.15
9 -8 4 1.08 0.13
9 -8 5 8.49 0.18
9 -8 6 3.49 0.18
9 -8 7 0.43 0.15
9 -8 8 4.6 0.26
9 -8 9 29.82 0.49
9 -8 10 1.5 0.15
9 -8 11 1.09 0.22
9 -8 12 0.27 0.11
9 -8 13 0.91 0.31
9 -7 1 6.84 0.2
9 -7 2 0.92 0.53
9 -7 6 0.15 0.11
9 -7 7 2.72 0.23
9 -7 8 0.28 0.12
9 -7 9 2.7 0.25
9 -7 10 3.21 0.13
9 -7 11 2.24 0.2
9 -7 13 0.29 0.1
9 -6 1 59.17 0.65
9 -6 2 22.82 0.29
9 -6 3 3.61 0.4
9 -6 4 2.87 0.41
9 -6 5 2.46 0.21
9 -6 6 4.03 0.12
9 -6 7 0.13 0.12
9 -6 8 15.64 0.3
9 -6 9 0.98 0.14
9 -6 14 0.7 0.26
9 -5 1 0.29 0.16
9 -5 2 5.42 0.42
9 -5 4 4.43 0.18
9 -5 5 1.14 0.16
9 -5 6 5.8 0.12
9 -5 7 5.36 0.21
9 -5 8 0.45 0.2
9 -5 9 5.81 0.34
9 -5 12 1.32 0.36
9 -4 1 11.41 0.27
9 -4 2 9.71 0.22
9 -4 3 16.92 0.26
9 -4 4 4.3 0.15
9 -4 5 4.82 0.25
9 -4 6 1.07 0.15
9 -4 7 1.39 0.15
9 -4 9 0.49 0.13
9 -4 10 0.24 0.18
9 -3 1 28.32 0.62
9 -3 2 11.8 0.23
9 -3 3 4.41 0.18
9 -3 4 0.55 0.14
9 -3 5 5.46 0.2
9 -3 6 1.77 0.46
9 -3 8 2.5 0.14
9 -3 9 6.73 0.26
9 -3 10 2.27 0.15
9 -3 11 5.4 0.41
9 -3 12 3.63 0.35
9 -3 13 0.89 0.28
9 -2 1 13.19 0.48
9 -2 2 1.55 0.38
9 -2 3 8.88 0.23
9 -2 4 6.37 0.19
9 -2 5 4.64 0.18
9 -2 6 14.74 0.28
9 -2 7 2.21 0.13
9 -2 8 4.25 0.33
9 -2 9 7.33 0.48
9 -2 10 2.77 0.4
9 -1 1 4.94 0.39
9 -1 2 6.65 0.43
9 -1 4 4.37 0.28
9 -1 5 2.8 0.14
9 -1 6 2.48 0.2
9 -1 7 3.39 0.19
9 -1 8 11.79 0.24
9 -1 9 6.72 0.45
9 -1 10 3.96 0.4
9 -1 12 0.37 0.29
9 0 0 9.09 0.42
9 0 1 0.59 0.39
9 0 6 4.55 0.16
9 0 7 3.83 0.13
9 0 8 11.25 0.47
9 0 9 3.76 0.41
9 0 10 0.7 0.36
9 0 12 0.87 0.26
9 1 3 2.65 0.44
9 1 5 7.46 0.2
9 1 6 1 0.18
9 1 11 0.65 0.3
9 2 3 10.21 0.47
9 2 4 2.56 0.5
9 2 5 2.39 0.48
9 2 8 1.17 0.4
9 2 10 1.13 0.31
9 3 3 5.43 0.47
9 3 4 2.93 0.5
9 3 5 0.94 0.47
9 3 6 4.27 0.44
9 3 7 0.72 0.15
9 3 8 0.15 0.13
9 3 10 0.7 0.29
9 4 3 23.58 0.31
9 4 5 1.08 0.13
9 4 7 1.7 0.2
9 4 8 0.69 0.11
9 4 9 1.94 0.31
9 5 0 3.39 0.43
9 5 1 19.14 0.57
9 5 3 1.24 0.22
9 5 4 0.46 0.14
9 5 7 0.49 0.26
9 6 0 3.72 0.2
9 6 1 2.84 0.31
9 6 2 7.59 0.2
9 6 3 3.13 0.15
9 6 5 0.94 0.14
9 6 6 2.07 0.35
9 6 7 0.1 0.1
9 7 0 0.6 0.19
9 7 1 0.27 0.18
9 7 2 0.5 0.17
9 7 4 0.17 0.14
9 7 6 1.35 0.11
9 7 7 2.26 0.28
9 8 1 0.63 0.2
9 8 3 0.88 0.39
9 8 4 0.66 0.35
9 9 0 0.7 0.45
9 9 1 0.97 0.15
9 9 2 7.32 0.45
9 10 1 4.78 0.39
9 10 2 0.39 0.11
9 10 4 0.73 0.27
9 11 2 0.6 0.18
10 -15 3 0.82 0.09
10 -13 2 2.11 0.12
10 -13 3 1.35 0.15
10 -13 7 5.56 0.35
10 -13 10 0.69 0.26
10 -12 1 3.44 0.15
10 -12 2 0.7 0.39
10 -12 3 2.14 0.13
10 -12 5 1.1 0.36
10 -12 11 0.45 0.26
10 -11 1 7.02 0.45
10 -11 2 2.43 0.13
10 -11 3 0.69 0.43
10 -11 5 2.26 0.18
10 -11 8 2.08 0.34
10 -11 9 0.77 0.33
10 -10 3 1.2 0.16
10 -10 5 4.58 0.17
10 -10 6 1.23 0.42
10 -10 11 0.67 0.09
10 -9 1 9.02 0.17
10 -9 2 0.19 0.15
10 -9 4 0.26 0.14
10 -9 5 1.04 0.13
10 -9 6 1.4 0.16
10 -9 7 2.35 0.22
10 -9 8 1.81 0.17
10 -9 9 0.45 0.28
10 -9 10 0.29 0.22
10 -9 11 0.54 0.31
10 -8 1 0.58 0.12
10 -8 2 14.48 0.33
10 -8 3 1.53 0.14
10 -8 4 8.04 0.18
10 -8 5 19.48 0.3
10 -8 8 5.37 0.42
10 -8 9 4.63 0.15
10 -8 10 0.28 0.12
10 -8 12 0.83 0.27
10 -7 1 5.23 0.12
10 -7 4 0.25 0.12
10 -7 5 4.56 0.13
10 -7 6 7.27 0.2
10 -7 7 6.7 0.15
10 -7 8 0.95 0.15
10 -7 9 0.81 0.18
10 -6 1 2.21 0.15
10 -6 2 3.07 0.29
10 -6 3 3.73 0.23
10 -6 4 8.27 0.18
10 -6 5 0.22 0.18
10 -6 6 0.21 0.12
10 -6 7 27.07 0.4
10 -6 8 6.84 0.18
10 -6 9 1.4 0.29
10 -6 11 0.76 0.31
10 -5 1 0.32 0.17
10 -5 5 1.45 0.21
10 -5 6 0.67 0.18
10 -5 7 2.31 0.17
10 -5 8 3.3 0.43
10 -5 9 2.83 0.4
10 -4 1 1.21 0.41
10 -4 2 0.46 0.2
10 -4 3 4.09 0.17
10 -4 4 0.94 0.23
10 -4 5 1.01 0.29
10 -4 6 13.73 0.18
10 -4 7 3.73 0.2
10 -4 9 0.4 0.38
10 -4 10 0.48 0.34
10 -4 11 0.26 0.19
10 -3 1 2.51 0.17
10 -3 2 3.28 0.18
10 -3 3 3.43 0.17
10 -3 4 2.3 0.49
10 -3 5 7.17 0.49
10 -3 7 4.39 0.17
10 -2 1 11.81 0.49
10 -2 2 9 0.47
10 -2 3 1.95 0.51
10 -2 4 1.31 0.34
10 -2 5 0.34 0.18
10 -2 6 0.28 0.14
10 -2 7 0.65 0.16
10 -2 8 0.38 0.14
10 -2 11 1.25 0.28
10 -1 1 8.16 0.2
10 -1 3 4.09 0.35
10 -1 4 2.68 0.47
10 -1 5 0.56 0.2
10 -1 6 3.36 0.21
10 -1 8 5.32 0.15
10 -1 9 1.55 0.35
10 0 5 2.1 0.46
10 0 6 3.44 0.46
10 0 7 3.66 0.41
10 0 8 3.04 0.14
10 0 10 0.49 0.09
10 1 5 6.07 0.19
10 1 7 10.79 0.46
10 1 8 0.47 0.36
10 2 5 3.19 0.44
10 2 6 6.08 0.44
10 2 7 4.2 0.39
10 2 8 1.05 0.32
10 3 7 0.56 0.34
10 4 6 1.16 0.36
10 5 4 2.47 0.44
10 5 5 0.76 0.37
10 6 1 10.19 0.49
10 6 2 0.93 0.45
10 6 5 0.37 0.33
10 6 6 1.08 0.29
10 7 0 2.07 0.45
10 7 1 1.74 0.44
10 8 0 3.63 0.43
10 8 1 2.39 0.4
10 10 1 0.87 0.31
10 11 0 2.53 0.31
11 -13 2 0.32 0.31
11 -13 3 0.16 0.12
11 -13 6 2.77 0.27
11 -12 5 2.92 0.16
11 -12 6 2.04 0.1
11 -11 1 2.68 0.11
11 -11 4 3.92 0.36
11 -11 5 10.14 0.17
11 -11 7 0.74 0.31
11 -10 1 2.56 0.15
11 -10 2 1.11 0.19
11 -10 3 0.79 0.4
11 -10 4 0.28 0.13
11 -10 8 0.14 0.1
11 -10 9 0.62 0.1
11 -9 2 0.18 0.16
11 -9 3 3.12 0.16
11 -9 6 1.68 0.21
11 -9 7 1.23 0.36
11 -9 10 0.81 0.26
11 -8 3 3.11 0.16
11 -8 4 1.47 0.15
11 -8 8 0.16 0.14
11 -8 9 0.27 0.15
11 -7 3 1.42 0.16
11 -7 4 1.21 0.4
11 -7 5 1.22 0.15
11 -7 6 2.71 0.28
11 -7 8 1.18 0.12
11 -7 10 0.56 0.28
11 -6 1 4.81 0.25
11 -6 2 1.56 0.13
11 -6 3 19.59 0.46
11 -6 4 1.76 0.16
11 -6 5 0.42 0.42
11 -6 6 0.89 0.41
11 -6 7 6.79 0.28
11 -6 10 0.79 0.27
11 -5 1 0.24 0.14
11 -5 3 3.27 0.18
11 -5 4 4.36 0.24
11 -5 5 7.01 0.46
11 -5 6 2.49 0.42
11 -5 7 0.93 0.32
11 -4 1 0.51 0.15
11 -4 2 10.74 0.19
11 -4 5 15.08 0.56
11 -4 6 14.17 0.53
11 -3 2 0.37 0.18
11 -3 3 0.46 0.15
11 -3 4 0.78 0.46
11 -3 5 2.66 0.44
11 -3 6 1.53 0.41
11 -3 7 1.85 0.36
11 -3 8 0.92 0.11
11 -2 1 3.26 0.38
11 -2 3 2.43 0.18
11 -2 4 7.24 0.48
11 -2 5 5.64 0.45
11 1 6 4.46 0.36
11 8 0 1.02 0.38
12 -11 1 0.18 0.1
12 -11 2 2.56 0.1
12 -11 3 3.09 0.32
12 -10 2 1.72 0.32
12 -10 4 3.74 0.34
12 -9 2 1.24 0.12
12 -9 3 11.19 0.44
12 -9 4 3.99 0.35
12 -9 5 0.41 0.31
12 -9 6 0.93 0.31
12 -8 1 0.21 0.22
12 -8 3 0.25 0.12
12 -8 8 0.73 0.26
12 -7 2 0.68 0.4
12 -7 3 0.39 0.38
12 -7 4 0.91 0.2
12 -7 5 2.46 0.37
12 -7 6 0.12 0.11
12 -6 1 2.25 0.4
12 -6 2 1.22 0.14
12 -6 8 0.54 0.28
12 -5 1 1.33 0.43
12 -5 2 1.09 0.39
12 -5 3 0.6 0.4
12 -5 4 1.99 0.22
12 -4 2 5.18 0.43
12 -4 5 4.96 0.4
12 -3 1 2.25 0.16
12 -3 2 2.38 0.42
12 -3 4 3.72 0.4
12 -3 5 1.87 0.37
12 -2 3 3.98 0.42
13 -9 1 2.34 0.16
13 -9 2 2.42 0.3
13 -9 3 3.39 0.29
13 -8 3 0.62 0.28
13 -7 1 7.58 0.15
13 -7 2 6.06 0.35
13 -7 3 0.65 0.31
13 -5 4 0.45 0.29
13 -4 3 0.32 0.32
13 -4 4 0.33 0.31
13 -3 2 0.97 0.36
