#------------------------------------------------------------------------------
#$Date: 2020-04-10 08:08:55 +0300 (Fri, 10 Apr 2020) $
#$Revision: 250597 $
#$URL: file:///home/coder/svn-repositories/cod/cif/2/02/20/2022018.cif $
#------------------------------------------------------------------------------
#
# This file is available in the Crystallography Open Database (COD),
# http://www.crystallography.net/. The original data for this entry
# were provided by IUCr Journals, http://journals.iucr.org/.
#
# The file may be used within the scientific community so long as
# proper attribution is given to the journal article from which the
# data were obtained.
#
data_2022018
loop_
_publ_author_name
'Jha, Kunal Kumar'
'Gruza, Barbara'
'Kumar, Prashant'
'Chodkiewicz, Michal Leszek'
'Dominiak, Paulina Maria'
_publ_section_title
;
 TAAM: a reliable and user friendly tool for hydrogen-atom location using
 routine X-ray diffraction data
;
_journal_issue                   3
_journal_name_full
'Acta Crystallographica Section B Structural Science, Crystal Engineering and Materials'
_journal_paper_doi               10.1107/S2052520620002917
_journal_volume                  76
_journal_year                    2020
_chemical_absolute_configuration unk
_chemical_formula_moiety         'C3 H7 N O2'
_chemical_formula_sum            'C3 H7 N O2'
_chemical_formula_weight         89.09
_space_group_crystal_system      orthorhombic
_space_group_IT_number           19
_space_group_name_Hall           'P 2ac 2ab'
_space_group_name_H-M_alt        'P 21 21 21'
_symmetry_Int_Tables_number      19
_audit_creation_date             2019-09-26
_audit_creation_method
;
Olex2 1.2
(compiled 2018.05.29 svn.r3508 for OlexSys, GUI svn.r5506)
;
_cell_angle_alpha                90
_cell_angle_beta                 90
_cell_angle_gamma                90
_cell_formula_units_Z            4
_cell_length_a                   5.7890(8)
_cell_length_b                   5.9387(7)
_cell_length_c                   12.2516(14)
_cell_measurement_temperature    23(1)
_cell_volume                     421.20(9)
_computing_molecular_graphics    'Olex2 (Dolomanov et al., 2009)'
_computing_publication_material  'Olex2 (Dolomanov et al., 2009)'
_computing_structure_refinement  'olex2.refine (Bourhis et al., 2015)'
_diffrn_ambient_temperature      23(1)
_diffrn_measured_fraction_theta_full 0.9692
_diffrn_measured_fraction_theta_max 0.9692
_diffrn_measurement_device_type  'four circle diffractometer'
_diffrn_radiation_type           'Mo K\a'
_diffrn_radiation_wavelength     0.71073
_diffrn_reflns_av_R_equivalents  0.0000
_diffrn_reflns_av_unetI/netI     0.0184
_diffrn_reflns_limit_h_max       13
_diffrn_reflns_limit_h_min       -13
_diffrn_reflns_limit_k_max       14
_diffrn_reflns_limit_k_min       0
_diffrn_reflns_limit_l_max       30
_diffrn_reflns_limit_l_min       0
_diffrn_reflns_number            6425
_diffrn_reflns_theta_full        26.4911
_diffrn_reflns_theta_max         26.49
_diffrn_reflns_theta_min         7.54
_exptl_absorpt_coefficient_mu    0.117
_exptl_crystal_density_diffrn    1.4049
_exptl_crystal_F_000             192.1231
_refine_diff_density_max         0.0587
_refine_diff_density_min         -0.0593
_refine_diff_density_rms         0.0159
_refine_ls_abs_structure_details
'Flack, H. D. (1983). Acta Cryst. A39, 876-881.'
_refine_ls_abs_structure_Flack   -0.2(5)
_refine_ls_d_res_high            0.7967
_refine_ls_d_res_low             2.7073
_refine_ls_goodness_of_fit_ref   1.2342
_refine_ls_hydrogen_treatment    refall
_refine_ls_matrix_type           full
_refine_ls_number_constraints    0
_refine_ls_number_parameters     83
_refine_ls_number_reflns         851
_refine_ls_number_restraints     0
_refine_ls_restrained_S_all      1.2342
_refine_ls_R_factor_all          0.0102
_refine_ls_R_factor_gt           0.0101
_refine_ls_shift/su_max          0.0006
_refine_ls_shift/su_mean         0.0001
_refine_ls_structure_factor_coef Fsqd
_refine_ls_weighting_details
'w=1/[\s^2^(Fo^2^)+(0.0034P)^2^+0.0050P] where P=(Fo^2^+2Fc^2^)/3'
_refine_ls_weighting_scheme      calc
_refine_ls_wR_factor_gt          0.0238
_refine_ls_wR_factor_ref         0.0239
_reflns_Friedel_coverage         0.988
_reflns_limit_h_max              7
_reflns_limit_h_min              -7
_reflns_limit_k_max              7
_reflns_limit_k_min              -7
_reflns_limit_l_max              15
_reflns_limit_l_min              -15
_reflns_number_gt                846
_reflns_number_total             851
_reflns_threshold_expression     I>=2u(I)
_iucr_refine_instructions_details
;
TITL I
CELL 0.71073 5.789 5.9387 12.2516 90 90 90
ZERR 4 0.0008 0.0007 0.0014 0 0 0
LATT -1
SYMM 0.5-X,-Y,0.5+Z
SYMM -X,0.5+Y,0.5-Z
SYMM 0.5+X,0.5-Y,-Z
SFAC C H N O
UNIT 12 28 4 8

ACTA 
BOND $H
OMIT -10 53
WGHT 0.00342 0.005002
FVAR 1.033835
REM <olex2.extras>
REM <HklSrc "%.\\53ee983896fd75cb0a76f98b49aaf0fe.hkl">
REM </olex2.extras>

O1    4    -0.26085  0.94290  0.81582  11.00000  0.00825  0.01787  0.01511 =
 -0.00351 -0.00042 -0.00021 
O2    4    -0.12483  1.22675  0.91607  11.00000  0.01073  0.01705  0.01394 =
 -0.00360  0.00078  0.00160 
N1    3     0.31672  1.14889  0.86231  11.00000  0.00889  0.01437  0.01162 =
 -0.00067  0.00005 -0.00057 
C1    1    -0.10001  1.05542  0.85908  11.00000  0.00884  0.01329  0.00891 =
 0.00018 -0.00013  0.00031 
C2    1     0.14564  0.96813  0.83878  11.00000  0.00831  0.01379  0.00954 =
 -0.00108  0.00017  0.00158 
C3    1     0.19661  0.76261  0.90930  11.00000  0.01209  0.01462  0.01767 =
 0.00259 -0.00048  0.00158 
H2    2     0.16258  0.92797  0.75320  11.00000  0.02370 
H1a   2     0.30422  1.20273  0.93901  11.00000  0.02896 
H1b   2     0.48215  1.08311  0.85230  11.00000  0.03128 
H1c   2     0.29269  1.28128  0.80885  11.00000  0.02213 
H3a   2     0.19607  0.81015  0.99600  11.00000  0.03414 
H3b   2     0.07072  0.63520  0.89420  11.00000  0.03665 
H3c   2     0.36027  0.69602  0.89058  11.00000  0.03592 
HKLF 4

END
Q1 1 0.3 1 0.85 11 0.05 0.06
Q2 1 0.15 0.85 0.85 11 0.05 0.05
Q3 1 -0.25 0.8 0.775 11 0.05 0.05
Q4 1 -0.25 0.95 0.825 11 0.05 0.05
Q5 1 -0.1 1.15 0.925 11 0.05 0.05
Q6 1 0.3 1.3 0.875 11 0.05 0.05
Q7 1 0.05 1 1 11 0.05 0.04
Q8 1 -0.05 0.55 0.85 11 0.05 0.04
Q9 1 0.65 1.2 0.75 11 0.05 0.04
Q10 1 0.5 1 0.975 11 0.05 0.04
Q11 1 0.65 1.2 0.85 11 0.05 0.04
Q12 1 0.4 0.85 0.7 11 0.05 0.03
Q13 1 0.05 0.8 0.725 11 0.05 0.03
Q14 1 0.4 0.6 0.975 11 0.05 0.03
Q15 1 0 1 0.85 11 0.05 0.03
Q16 1 0.05 0.8 0.925 11 0.05 0.03
Q17 1 0.5 1.25 0.925 11 0.05 0.03
Q18 1 0.3 0.7 1.075 11 0.05 0.02
Q19 1 0.45 0.75 0.925 11 0.05 0.02
Q20 1 0.15 1.35 0.8 11 0.05 0.02

  REM The information below was added by Olex2.
  REM
  REM R1 = 0.0101 for 846 Fo > 4sig(Fo) and 0.0102 for all 851 data
  REM 83 parameters refined using 0 restraints
  REM Highest difference peak 0.0587, deepest hole -0.0593
  REM Mean Shift 0.0001, Max Shift 0.0006.

  REM +++ Tabular Listing of Refinement Information +++
  REM R1_all = 0.0102
  REM R1_gt = 0.0101
  REM wR_ref = 0.0239
  REM GOOF = 1.2342
  REM Shift_max = 0.0006
  REM Shift_mean = 0.0001
  REM Reflections_all = 851
  REM Reflections_gt = 846
  REM Parameters = 83
  REM Hole = -0.0593
  REM Peak = 0.0587
  REM Flack = -0.2(5)

  
;
_cod_data_source_file            37_TAAM_iso_0.8.cif
_cod_data_source_block           37_TAAM_iso_0.8
_cod_original_sg_symbol_Hall     ' P 2ac 2ab'
_cod_database_code               2022018
_olex2_refinement_description
;
;
_iucr_refine_fcf_details
;
data_L-ala
_computing_structure_refinement   'olex2.refine (Bourhis et al., 2015)'
_shelx_refln_list_code            4
loop_
  _space_group_symop_id
  _space_group_symop_operation_xyz
  1  x,y,z
  2  x+1/2,-y+1/2,-z
  3  -x,y+1/2,-z+1/2
  4  -x+1/2,-y,z+1/2

_space_group_crystal_system       orthorhombic
_space_group_IT_number            19
_space_group_name_H-M_alt         'P 21 21 21'
_space_group_name_Hall            ' P 2ac 2ab'
_symmetry_space_group_name_H-M    'P 21 21 21'
_symmetry_space_group_name_Hall   ' P 2ac 2ab'
_symmetry_Int_Tables_number       19
_cell_length_a                    5.7890(8)
_cell_length_b                    5.9387(7)
_cell_length_c                    12.2516(14)
_cell_angle_alpha                 90
_cell_angle_beta                  90
_cell_angle_gamma                 90
_cell_volume                      421.20(9)
loop_
  _refln_index_h
  _refln_index_k
  _refln_index_l
  _refln_F_squared_calc
  _refln_F_squared_meas
  _refln_F_squared_sigma
  _refln_F_squared_weight
  _refln_observed_status
-7 -1 -3 58.661 59.964 1.001 6.472 o
-7 -1 -2 44.825 45.331 0.739 10.897 o
-7 -1 -1 19.863 20.649 0.487 25.324 o
-6 -4 -2 13.106 13.510 0.281 58.910 o
-6 -4 -1 57.867 58.261 0.945 7.087 o
-6 -3 -6 13.681 14.483 0.393 38.256 o
-6 -3 -5 16.086 16.037 0.327 45.447 o
-6 -3 -4 7.018 6.867 0.187 123.001 o
-6 -3 -3 3.811 3.583 0.131 240.626 o
-6 -3 -2 32.089 32.793 1.067 6.606 o
-6 -3 -1 2.110 2.395 0.140 281.435 o
-6 -2 -7 52.505 51.955 0.861 8.373 o
-6 -2 -6 0.234 0.206 0.056 2026.310 o
-6 -2 -5 70.082 69.610 1.113 5.262 o
-6 -2 -4 16.634 16.486 0.309 47.733 o
-6 -2 -3 1.807 1.843 0.112 398.487 o
-6 -2 -2 2.088 2.077 0.094 450.527 o
-6 -2 -1 67.402 68.955 2.358 1.455 o
-6 -1 -8 7.271 7.288 0.178 126.261 o
-6 -1 -7 5.316 5.193 0.150 176.384 o
-6 -1 -6 16.974 16.486 0.318 45.939 o
-6 -1 -5 9.105 9.019 0.243 82.088 o
-6 -1 -4 13.734 13.332 0.318 50.551 o
-6 -1 -3 10.058 9.852 0.253 75.371 o
-6 -1 -2 6.298 6.091 0.271 82.331 o
-6 -1 -1 0.530 0.515 0.065 1252.630 o
-5 -5 -4 45.514 46.388 0.711 11.410 o
-5 -5 -3 9.959 10.423 0.206 92.019 o
-5 -5 -2 20.314 20.284 0.402 32.298 o
-5 -5 -1 126.954 130.191 3.583 0.634 o
-5 -4 -7 24.941 24.654 0.421 28.059 o
-5 -4 -6 10.220 10.095 0.215 88.018 o
-5 -4 -5 57.639 57.868 0.879 7.868 o
-5 -4 -4 24.185 23.802 0.440 27.034 o
-5 -4 -3 118.356 120.255 1.871 2.033 o
-5 -4 -2 2.901 3.247 0.178 185.146 o
-5 -4 -1 15.474 15.952 0.299 50.755 o
-5 -3 -9 0.919 1.085 0.103 559.779 o
-5 -3 -8 134.925 133.204 2.601 1.133 o
-5 -3 -7 86.783 85.703 1.712 2.510 o
-5 -3 -6 32.346 31.624 0.561 17.761 o
-5 -3 -5 51.497 50.074 0.842 8.709 o
-5 -3 -4 50.224 50.439 0.823 9.033 o
-5 -3 -3 52.351 52.806 1.319 4.257 o
-5 -3 -2 26.822 27.002 0.402 28.427 o
-5 -3 -1 31.960 33.261 0.748 11.794 o
-5 -2 -10 99.762 98.109 1.562 2.838 o
-5 -2 -9 17.917 17.459 0.327 43.366 o
-5 -2 -8 46.216 44.938 0.739 10.831 o
-5 -2 -7 11.261 11.255 0.234 77.004 o
-5 -2 -6 10.146 9.992 0.215 88.412 o
-5 -2 -5 46.354 45.630 0.748 10.620 o
-5 -2 -4 122.142 122.949 2.227 1.508 o
-5 -2 -3 23.495 24.513 0.524 21.638 o
-5 -2 -2 135.897 137.386 2.077 1.662 o
-5 -2 -1 28.317 28.686 0.720 12.917 o
-5 -1 -10 6.200 6.100 0.318 65.392 o
-5 -1 -9 67.856 65.690 1.057 5.752 o
-5 -1 -8 50.079 49.644 0.814 9.202 o
-5 -1 -7 60.553 58.850 0.954 6.915 o
-5 -1 -6 183.204 180.480 2.797 0.949 o
-5 -1 -5 7.045 6.877 0.196 116.864 o
-5 -1 -4 85.043 85.441 1.591 2.849 o
-5 -1 -3 153.361 152.075 2.292 1.377 o
-5 -1 -2 393.840 404.795 7.354 0.150 o
-5 -1 -1 98.165 98.913 1.853 2.146 o
-4 -6 -3 34.174 35.123 0.599 15.897 o
-4 -6 -2 10.616 11.106 0.346 49.474 o
-4 -6 -1 60.859 61.863 0.926 7.173 o
-4 -5 -7 17.224 17.271 0.309 46.821 o
-4 -5 -6 18.671 18.862 0.327 42.251 o
-4 -5 -5 4.497 4.781 0.131 214.609 o
-4 -5 -4 12.562 12.996 0.243 69.521 o
-4 -5 -3 22.186 22.137 0.477 25.161 o
-4 -5 -2 25.852 25.505 0.496 22.657 o
-4 -5 -1 50.064 48.802 0.786 9.682 o
-4 -4 -9 1.888 1.946 0.103 429.427 o
-4 -4 -8 4.652 4.603 0.140 200.844 o
-4 -4 -7 29.600 29.004 0.477 22.511 o
-4 -4 -6 42.884 42.168 0.655 13.057 o
-4 -4 -5 59.653 59.973 1.244 4.586 o
-4 -4 -4 28.438 27.750 0.515 20.866 o
-4 -4 -3 74.599 72.361 1.076 5.446 o
-4 -4 -2 35.111 35.020 0.505 19.463 o
-4 -4 -1 92.854 92.102 1.366 3.566 o
-4 -3 -11 22.846 21.875 0.458 26.352 o
-4 -3 -10 12.968 13.202 0.309 53.290 o
-4 -3 -9 50.308 48.409 0.898 7.992 o
-4 -3 -8 40.603 40.419 0.926 8.022 o
-4 -3 -7 45.339 43.684 0.898 8.218 o
-4 -3 -6 61.907 62.565 1.235 4.605 o
-4 -3 -5 217.617 215.763 3.331 0.681 o
-4 -3 -4 19.519 19.657 0.393 33.742 o
-4 -3 -3 63.697 63.491 0.870 7.716 o
-4 -3 -2 22.720 22.801 0.337 37.139 o
-4 -3 -1 96.806 94.198 1.366 3.531 o
-4 -2 -12 7.421 7.298 0.168 131.440 o
-4 -2 -11 33.873 33.570 0.571 17.054 o
-4 -2 -10 107.168 104.602 1.684 2.475 o
-4 -2 -9 34.375 33.879 0.571 16.970 o
-4 -2 -8 87.685 85.731 1.375 3.587 o
-4 -2 -7 81.604 80.659 1.282 4.073 o
-4 -2 -6 92.910 90.914 1.413 3.388 o
-4 -2 -5 49.254 48.624 0.767 10.050 o
-4 -2 -4 9.050 9.206 0.225 89.390 o
-4 -2 -3 120.288 118.973 2.152 1.605 o
-4 -2 -2 113.055 110.824 2.086 1.711 o
-4 -2 -1 87.474 87.677 1.750 2.414 o
-4 -1 -12 104.574 102.656 1.628 2.628 o
-4 -1 -11 44.151 43.319 0.720 11.385 o
-4 -1 -10 14.730 14.727 0.281 55.897 o
-4 -1 -9 1.837 2.096 0.178 209.956 o
-4 -1 -8 40.789 39.904 0.655 13.315 o
-4 -1 -7 67.375 66.148 1.067 5.681 o
-4 -1 -6 109.945 109.851 1.712 2.391 o
-4 -1 -5 70.331 71.200 1.310 4.072 o
-4 -1 -4 95.529 96.640 1.460 3.188 o
-4 -1 -3 19.041 19.508 0.327 41.739 o
-4 -1 -2 24.049 25.018 0.702 13.945 o
-4 -1 -1 230.085 227.065 5.782 0.246 o
-3 -6 -6 13.144 13.108 0.243 68.284 o
-3 -6 -5 4.992 4.893 0.131 205.059 o
-3 -6 -4 33.553 33.168 0.571 17.122 o
-3 -6 -3 126.271 126.271 1.965 1.852 o
-3 -6 -2 13.574 13.857 0.243 66.784 o
-3 -6 -1 58.118 60.431 1.254 4.543 o
-3 -5 -9 6.792 7.111 0.178 129.963 o
-3 -5 -8 10.843 10.666 0.225 81.947 o
-3 -5 -7 43.572 42.954 0.664 12.737 o
-3 -5 -6 28.278 28.433 0.458 23.981 o
-3 -5 -5 47.295 47.922 0.674 12.069 o
-3 -5 -4 0.726 0.936 0.103 594.217 o
-3 -5 -3 6.692 6.690 0.140 161.368 o
-3 -5 -2 20.961 20.649 0.318 41.136 o
-3 -5 -1 147.314 145.273 2.180 1.510 o
-3 -4 -11 21.432 21.332 0.374 34.318 o
-3 -4 -10 10.548 10.479 0.225 83.015 o
-3 -4 -9 19.427 19.143 0.337 40.386 o
-3 -4 -8 64.965 64.352 1.039 5.968 o
-3 -4 -7 41.290 40.746 0.627 14.011 o
-3 -4 -6 3.939 3.967 0.112 266.285 o
-3 -4 -5 79.330 79.630 1.516 3.129 o
-3 -4 -4 84.122 83.027 1.132 4.860 o
-3 -4 -3 357.371 358.912 4.734 0.337 o
-3 -4 -2 23.647 24.317 0.393 30.889 o
-3 -4 -1 184.872 182.932 2.620 1.059 o
-3 -3 -12 24.389 24.579 0.402 29.756 o
-3 -3 -11 57.605 56.661 0.851 8.252 o
-3 -3 -10 8.757 8.608 0.178 113.935 o
-3 -3 -9 21.850 23.540 0.374 33.574 o
-3 -3 -8 32.836 33.486 0.515 19.561 o
-3 -3 -7 212.144 210.701 2.985 0.826 o
-3 -3 -6 2.794 2.695 0.075 444.308 o
-3 -3 -5 170.248 170.582 2.274 1.362 o
-3 -3 -4 11.887 11.489 0.206 84.295 o
-3 -3 -3 151.247 146.405 2.068 1.639 o
-3 -3 -2 13.985 13.463 0.234 68.746 o
-3 -3 -1 206.532 206.313 2.891 0.876 o
-3 -2 -13 28.175 28.302 0.468 23.459 o
-3 -2 -12 59.962 58.598 0.889 7.673 o
-3 -2 -11 10.941 10.591 0.243 75.541 o
-3 -2 -10 187.575 184.868 2.872 0.903 o
-3 -2 -9 230.369 229.816 4.079 0.471 o
-3 -2 -8 95.868 95.732 1.497 3.064 o
-3 -2 -7 94.253 92.345 1.441 3.273 o
-3 -2 -6 73.802 75.401 1.179 4.744 o
-3 -2 -5 221.037 224.829 3.378 0.661 o
-3 -2 -4 56.707 55.033 0.870 8.060 o
-3 -2 -3 397.471 402.240 6.119 0.210 o
-3 -2 -2 358.621 350.061 5.249 0.281 o
-3 -2 -1 121.707 121.031 2.030 1.767 o
-3 -1 -13 26.674 26.749 0.487 22.884 o
-3 -1 -12 24.397 24.392 0.374 32.201 o
-3 -1 -11 12.432 12.593 0.225 75.534 o
-3 -1 -10 64.655 65.736 1.123 5.298 o
-3 -1 -9 23.137 23.044 0.374 33.082 o
-3 -1 -8 217.874 218.382 3.003 0.812 o
-3 -1 -7 4.013 4.397 0.327 67.605 o
-3 -1 -6 119.126 117.916 1.843 2.085 o
-3 -1 -5 22.312 21.884 0.374 33.750 o
-3 -1 -4 85.504 88.116 1.619 2.760 o
-3 -1 -3 83.718 84.954 1.562 2.942 o
-3 -1 -2 206.630 211.038 5.258 0.297 o
-3 -1 -1 276.024 286.682 7.045 0.167 o
-2 -7 -3 15.233 15.007 0.449 30.920 o
-2 -7 -2 21.798 22.277 0.356 35.819 o
-2 -7 -1 1.797 1.815 0.084 536.546 o
-2 -6 -8 24.818 24.841 0.421 28.070 o
-2 -6 -7 10.188 10.367 0.187 99.014 o
-2 -6 -6 7.255 7.232 0.168 132.825 o
-2 -6 -5 28.276 29.014 0.393 28.257 o
-2 -6 -4 1.181 1.226 0.075 746.816 o
-2 -6 -3 2.571 2.573 0.140 265.453 o
-2 -6 -2 122.198 121.808 2.545 1.193 o
-2 -6 -1 80.073 79.499 1.067 5.375 o
-2 -5 -10 0.330 0.496 0.056 1705.860 o
-2 -5 -9 21.904 22.988 0.393 31.900 o
-2 -5 -8 18.215 18.600 0.290 48.182 o
-2 -5 -7 10.629 10.825 0.168 104.140 o
-2 -5 -6 4.688 4.407 0.112 241.780 o
-2 -5 -5 32.987 32.906 0.430 23.880 o
-2 -5 -4 62.578 61.779 0.767 9.161 o
-2 -5 -3 188.170 186.684 2.217 1.382 o
-2 -5 -2 1.951 1.974 0.065 613.148 o
-2 -5 -1 128.940 129.284 1.506 2.786 o
-2 -4 -12 28.111 28.808 0.421 26.379 o
-2 -4 -11 12.607 13.005 0.225 74.660 o
-2 -4 -10 30.106 30.183 0.505 20.796 o
-2 -4 -9 4.583 4.818 0.122 225.818 o
-2 -4 -8 120.413 120.704 1.525 2.796 o
-2 -4 -7 137.137 139.753 1.796 2.093 o
-2 -4 -6 21.761 22.099 0.299 42.335 o
-2 -4 -5 112.889 114.454 1.413 3.193 o
-2 -4 -4 158.209 160.552 1.881 1.872 o
-2 -4 -3 67.719 65.905 0.805 8.364 o
-2 -4 -2 5.954 5.885 0.122 193.075 o
-2 -4 -1 215.558 212.011 2.695 0.977 o
-2 -3 -13 15.003 14.577 0.243 63.660 o
-2 -3 -12 75.172 73.820 0.973 6.251 o
-2 -3 -11 28.110 28.405 0.458 24.027 o
-2 -3 -10 192.395 191.989 2.751 0.967 o
-2 -3 -9 44.298 44.741 0.674 12.390 o
-2 -3 -8 70.978 71.135 0.908 6.998 o
-2 -3 -7 6.507 6.774 0.112 187.906 o
-2 -3 -6 530.872 538.588 8.439 0.112 o
-2 -3 -5 262.049 262.506 3.640 0.564 o
-2 -3 -4 57.118 56.502 0.777 9.360 o
-2 -3 -3 226.745 221.114 2.957 0.828 o
-2 -3 -2 234.007 230.003 3.031 0.789 o
-2 -3 -1 170.844 167.391 3.452 0.661 o
-2 -2 -14 21.945 21.210 0.318 40.250 o
-2 -2 -13 51.298 51.899 0.692 11.281 o
-2 -2 -12 46.947 46.135 0.618 13.531 o
-2 -2 -11 49.968 49.176 0.748 10.341 o
-2 -2 -10 2.396 2.657 0.103 375.296 o
-2 -2 -9 103.461 104.349 1.347 3.522 o
-2 -2 -8 123.041 126.271 1.450 2.983 o
-2 -2 -7 110.940 112.723 1.375 3.339 o
-2 -2 -6 251.922 256.808 5.370 0.281 o
-2 -2 -5 6.482 6.643 0.299 70.533 o
-2 -2 -4 81.802 82.400 1.562 2.957 o
-2 -2 -3 103.079 101.617 1.722 2.407 o
-2 -2 -2 1016.370 1011.060 14.371 0.039 o
-2 -2 -1 288.897 292.633 4.042 0.461 o
-2 -1 -14 39.476 38.959 0.496 18.811 o
-2 -1 -13 87.217 87.331 1.029 5.467 o
-2 -1 -12 82.219 83.513 0.982 5.940 o
-2 -1 -11 87.093 87.985 1.029 5.464 o
-2 -1 -10 46.681 47.080 0.599 14.011 o
-2 -1 -9 51.545 51.684 0.748 10.199 o
-2 -1 -8 8.394 8.336 0.253 81.329 o
-2 -1 -7 140.326 144.936 1.834 2.011 o
-2 -1 -6 193.693 201.008 2.433 1.179 o
-2 -1 -5 16.828 16.467 0.290 50.677 o
-2 -1 -4 1015.660 1015.990 19.554 0.022 o
-2 -1 -3 180.383 180.593 3.471 0.650 o
-2 -1 -2 569.515 604.755 14.914 0.038 o
-1 -7 -4 40.442 41.597 0.599 14.879 o
-1 -7 -3 22.098 22.502 0.356 35.595 o
-1 -7 -2 11.232 11.293 0.196 89.901 o
-1 -7 -1 35.272 35.020 0.458 21.623 o
-1 -6 -8 37.210 37.013 0.599 15.457 o
-1 -6 -7 36.876 38.014 0.767 10.950 o
-1 -6 -6 7.946 7.803 0.150 138.295 o
-1 -6 -5 74.698 74.971 0.926 6.677 o
-1 -6 -4 54.426 53.489 0.674 11.419 o
-1 -6 -3 50.505 49.129 0.692 11.415 o
-1 -6 -2 64.341 64.492 0.777 8.898 o
-1 -6 -1 86.128 85.281 1.010 5.638 o
-1 -5 -11 43.469 42.103 0.879 8.575 o
-1 -5 -10 9.545 9.206 0.178 108.541 o
-1 -5 -9 45.243 44.760 0.674 12.322 o
-1 -5 -8 0.756 1.001 0.075 883.903 o
-1 -5 -7 110.653 108.878 1.263 3.787 o
-1 -5 -6 51.685 52.123 0.589 13.577 o
-1 -5 -5 30.131 29.406 0.440 24.520 o
-1 -5 -4 4.009 4.098 0.094 297.272 o
-1 -5 -3 287.996 288.890 3.396 0.621 o
-1 -5 -2 68.399 68.684 0.936 6.806 o
-1 -5 -1 102.872 100.691 1.188 4.237 o
-1 -4 -12 39.890 40.007 0.627 14.172 o
-1 -4 -11 194.215 194.384 3.162 0.759 o
-1 -4 -10 24.472 24.279 0.356 33.914 o
-1 -4 -9 3.022 2.807 0.084 394.728 o
-1 -4 -8 32.925 33.514 0.487 20.866 o
-1 -4 -7 208.555 207.585 3.219 0.728 o
-1 -4 -6 31.117 30.988 0.365 28.891 o
-1 -4 -5 46.557 45.284 0.515 16.646 o
-1 -4 -4 13.015 13.005 0.187 84.874 o
-1 -4 -3 124.385 121.640 1.946 1.890 o
-1 -4 -2 27.914 27.311 0.393 28.686 o
-1 -4 -1 123.705 121.190 2.704 1.069 o
-1 -3 -13 60.906 60.965 0.805 8.702 o
-1 -3 -12 41.928 42.224 0.655 13.130 o
-1 -3 -11 40.100 40.241 0.543 16.851 o
-1 -3 -10 27.340 27.432 0.374 30.321 o
-1 -3 -9 303.743 307.481 3.452 0.596 o
-1 -3 -8 35.220 34.272 0.421 23.665 o
-1 -3 -7 136.967 138.322 1.562 2.586 o
-1 -3 -6 53.343 53.920 0.571 13.817 o
-1 -3 -5 20.946 22.043 0.468 26.193 o
-1 -3 -4 75.593 74.746 0.823 7.729 o
-1 -3 -3 389.545 380.506 4.519 0.359 o
-1 -3 -2 47.942 47.707 0.599 13.867 o
-1 -3 -1 314.078 309.914 3.920 0.479 o
-1 -2 -14 35.622 35.207 0.505 19.361 o
-1 -2 -13 55.425 56.221 0.683 11.088 o
-1 -2 -12 27.701 28.321 0.365 30.739 o
-1 -2 -11 5.669 5.848 0.178 142.870 o
-1 -2 -10 7.219 7.073 0.112 176.546 o
-1 -2 -9 225.007 230.396 3.939 0.502 o
-1 -2 -8 3.266 3.490 0.084 362.013 o
-1 -2 -7 91.061 88.444 1.179 4.475 o
-1 -2 -6 18.223 18.216 0.243 56.186 o
-1 -2 -5 384.144 399.808 4.959 0.306 o
-1 -2 -4 153.950 157.109 2.348 1.318 o
-1 -2 -3 496.365 499.002 6.989 0.160 o
-1 -2 -2 271.875 271.273 3.434 0.618 o
-1 -2 -1 68.167 66.129 0.851 7.765 o
-1 -1 -15 52.495 53.611 0.692 11.157 o
-1 -1 -14 18.619 18.871 0.271 50.587 o
-1 -1 -13 95.442 96.219 1.123 4.692 o
-1 -1 -12 1.800 1.731 0.065 655.699 o
-1 -1 -11 12.364 12.893 0.187 87.001 o
-1 -1 -10 110.913 110.459 1.282 3.702 o
-1 -1 -9 200.753 202.056 2.311 1.270 o
-1 -1 -8 202.706 204.123 2.704 0.983 o
-1 -1 -7 306.085 312.084 3.892 0.487 o
-1 -1 -6 19.270 19.255 0.309 44.195 o
-1 -1 -5 416.464 434.248 5.614 0.243 o
-1 -1 -4 148.435 156.688 2.797 0.979 o
0 0 6 88.824 96.312 2.797 1.034 o
0 0 8 40.021 38.547 1.010 7.003 o
0 0 10 1.305 3.452 0.337 70.089 o
0 0 12 174.680 185.982 8.299 0.124 o
0 0 14 46.657 52.039 2.582 1.249 o
0 1 5 303.720 316.332 6.587 0.188 o
0 1 6 54.435 57.737 1.291 4.373 o
0 1 7 18.481 17.983 0.225 59.359 o
0 1 8 349.956 357.574 3.733 0.505 o
0 1 9 3.038 2.938 0.103 336.781 o
0 1 10 34.250 34.796 0.421 23.843 o
0 1 11 75.446 75.607 0.889 7.019 o
0 1 12 24.378 24.747 0.318 37.543 o
0 1 13 44.470 44.133 0.571 15.183 o
0 1 14 1.659 2.180 0.103 437.622 o
0 1 15 58.606 58.392 0.748 9.700 o
0 2 2 1663.760 1622.280 39.820 0.005 o
0 2 3 727.980 741.635 26.403 0.012 o
0 2 4 41.580 42.514 0.543 16.517 o
0 2 5 94.261 94.900 2.292 1.486 o
0 2 6 1895.840 2002.140 72.828 0.002 o
0 2 7 239.194 234.232 2.957 0.818 o
0 2 8 1.126 1.226 0.065 857.557 o
0 2 9 204.494 204.442 2.769 0.944 o
0 2 10 196.673 198.538 2.704 0.990 o
0 2 11 2.169 2.536 0.178 200.910 o
0 2 12 29.102 29.060 0.365 30.026 o
0 2 13 126.394 126.645 1.469 2.910 o
0 2 14 7.250 7.522 0.168 131.845 o
0 3 1 26.138 24.654 0.309 37.459 o
0 3 2 0.344 0.505 0.103 688.415 o
0 3 3 53.202 53.115 0.580 13.632 o
0 3 4 396.577 407.564 7.672 0.138 o
0 3 5 172.638 169.534 2.114 1.527 o
0 3 6 39.240 47.136 1.160 5.497 o
0 3 7 207.622 205.171 2.133 1.424 o
0 3 8 61.780 63.790 0.739 9.580 o
0 3 9 80.788 78.451 0.908 6.671 o
0 3 10 23.666 22.427 0.290 41.903 o
0 3 11 186.915 182.464 2.058 1.556 o
0 3 12 9.020 11.162 0.318 57.379 o
0 3 13 1.681 1.796 0.084 550.877 o
0 3 14 2.160 2.302 0.094 436.458 o
0 4 0 350.658 343.549 5.511 0.258 o
0 4 1 315.301 310.784 5.576 0.256 o
0 4 2 26.221 25.430 0.290 39.054 o
0 4 3 0.848 0.720 0.028 1796.270 o
0 4 4 30.297 29.781 0.309 33.760 o
0 4 5 12.548 12.238 0.159 96.956 o
0 4 6 95.052 92.177 1.001 5.496 o
0 4 7 69.062 68.076 0.786 8.521 o
0 4 8 110.227 109.682 1.385 3.320 o
0 4 9 85.043 85.478 1.095 5.068 o
0 4 10 52.798 53.957 0.711 10.766 o
0 4 11 8.666 8.720 0.168 119.200 o
0 4 12 160.328 160.299 2.030 1.658 o
0 5 1 30.219 28.658 0.346 31.085 o
0 5 2 43.487 44.395 0.524 16.791 o
0 5 3 178.110 176.972 2.227 1.394 o
0 5 4 42.137 40.896 0.496 18.241 o
0 5 5 53.355 54.827 0.618 12.656 o
0 5 6 0.137 0.281 0.075 1327.500 o
0 5 7 7.963 8.336 0.150 136.164 o
0 5 8 11.328 10.919 0.187 93.702 o
0 5 9 17.427 17.852 0.271 52.474 o
0 5 10 32.412 31.820 0.449 23.105 o
0 5 11 19.565 19.311 0.299 45.237 o
0 6 0 75.611 74.157 1.244 4.353 o
0 6 1 49.363 49.298 0.599 13.668 o
0 6 2 4.298 4.650 0.140 206.226 o
0 6 3 18.724 18.254 0.253 53.906 o
0 6 4 5.930 5.932 0.112 202.988 o
0 6 5 46.080 47.370 0.674 12.172 o
0 6 6 50.875 54.359 0.823 8.933 o
0 6 7 50.522 50.411 0.777 9.785 o
0 6 8 26.544 27.891 0.468 23.907 o
0 6 9 0.886 1.506 0.084 689.263 o
0 7 1 0.070 0.047 0.075 1464.960 o
0 7 2 42.598 42.552 0.533 16.705 o
0 7 3 8.457 8.645 0.187 110.393 o
0 7 4 5.488 5.660 0.178 145.125 o
0 7 5 32.998 32.166 0.608 15.866 o
1 0 4 85.175 91.279 1.778 2.351 o
1 0 5 0.200 0.028 0.047 2984.860 o
1 0 6 446.718 469.717 8.561 0.111 o
1 0 7 31.359 31.502 0.805 10.616 o
1 0 8 44.287 44.264 0.552 15.777 o
1 0 9 26.820 25.991 0.337 34.047 o
1 0 10 107.190 109.823 1.263 3.812 o
1 0 11 56.566 57.475 0.674 11.163 o
1 0 12 59.798 59.243 0.851 8.137 o
1 0 13 14.068 14.006 0.215 72.879 o
1 0 14 27.270 26.562 0.365 31.286 o
1 0 15 61.848 62.509 0.795 8.769 o
1 1 4 148.374 154.236 2.433 1.249 o
1 1 5 416.634 421.832 5.932 0.220 o
1 1 6 19.322 19.788 0.515 23.628 o
1 1 7 305.813 313.263 5.239 0.288 o
1 1 8 202.656 206.968 2.161 1.402 o
1 1 9 200.913 202.037 2.442 1.164 o
1 1 10 111.075 111.460 1.179 4.144 o
1 1 11 12.424 13.370 0.318 51.936 o
1 1 12 1.810 1.853 0.075 586.744 o
1 1 13 95.494 95.788 1.347 3.609 o
1 1 14 18.660 18.441 0.309 45.043 o
1 1 15 52.492 52.488 0.777 9.649 o
1 2 0 0.997 0.973 0.037 1362.740 o
1 2 1 68.370 65.428 1.768 2.463 o
1 2 2 271.944 260.036 4.585 0.373 o
1 2 3 496.302 492.368 7.738 0.133 o
1 2 4 153.917 151.102 1.712 2.182 o
1 2 5 383.539 393.782 9.225 0.098 o
1 2 6 18.298 18.076 0.402 33.724 o
1 2 7 91.134 90.876 1.562 2.894 o
1 2 8 3.330 3.340 0.084 362.570 o
1 2 9 224.839 229.161 3.480 0.626 o
1 2 10 7.229 7.092 0.103 183.843 o
1 2 11 5.666 5.810 0.196 128.224 o
1 2 12 27.771 28.602 0.337 32.949 o
1 2 13 55.460 56.212 0.814 8.863 o
1 2 14 35.672 34.608 0.533 18.214 o
1 3 0 182.828 176.055 2.143 1.475 o
1 3 1 313.615 309.455 4.341 0.402 o
1 3 2 48.011 45.986 0.599 13.939 o
1 3 3 389.726 388.468 4.463 0.367 o
1 3 4 75.464 74.466 1.123 5.089 o
1 3 5 21.004 21.360 0.477 25.590 o
1 3 6 53.267 53.386 0.627 12.505 o
1 3 7 136.659 136.787 1.665 2.357 o
1 3 8 35.101 34.721 0.421 23.638 o
1 3 9 303.495 305.563 4.098 0.447 o
1 3 10 27.356 27.021 0.346 32.718 o
1 3 11 40.009 39.773 0.543 16.893 o
1 3 12 41.953 41.392 0.561 15.912 o
1 3 13 60.752 60.740 0.805 8.712 o
1 4 0 2.050 2.274 0.094 445.829 o
1 4 1 124.007 121.771 1.207 3.849 o
1 4 2 27.902 27.638 0.290 37.296 o
1 4 3 123.900 119.347 1.244 3.709 o
1 4 4 13.060 12.930 0.271 61.570 o
1 4 5 46.423 45.658 0.524 16.335 o
1 4 6 31.060 30.885 0.505 20.551 o
1 4 7 208.363 202.673 2.564 1.069 o
1 4 8 33.048 33.074 0.449 22.810 o
1 4 9 3.051 2.891 0.196 161.326 o
1 4 10 24.386 24.279 0.346 34.853 o
1 4 11 194.061 192.007 2.423 1.191 o
1 4 12 39.959 39.829 0.543 16.896 o
1 5 0 7.573 7.157 0.140 150.594 o
1 5 1 102.630 102.759 1.085 4.774 o
1 5 2 68.490 69.507 0.945 6.702 o
1 5 3 287.872 288.207 2.835 0.829 o
1 5 4 3.985 3.892 0.084 320.268 o
1 5 5 30.005 29.238 0.412 26.363 o
1 5 6 51.812 52.722 0.767 9.833 o
1 5 7 110.556 110.936 1.478 3.006 o
1 5 8 0.770 0.954 0.056 1183.800 o
1 5 9 45.202 43.843 0.589 14.568 o
1 5 10 9.587 9.188 0.168 112.960 o
1 5 11 43.520 43.066 0.580 15.056 o
1 6 0 24.626 23.877 0.318 37.656 o
1 6 1 86.062 84.617 1.001 5.715 o
1 6 2 64.321 64.090 1.010 6.230 o
1 6 3 50.753 51.375 0.627 12.774 o
1 6 4 54.381 53.948 0.674 11.407 o
1 6 5 74.736 75.102 0.964 6.330 o
1 6 6 7.904 7.990 0.150 137.901 o
1 6 7 36.944 37.883 0.515 18.536 o
1 6 8 37.267 37.986 0.515 18.478 o
1 7 0 121.554 123.941 1.778 2.195 o
1 7 1 35.410 35.441 0.458 21.550 o
1 7 2 11.267 11.480 0.215 82.888 o
1 7 3 22.090 22.483 0.356 35.605 o
1 7 4 40.527 41.485 0.599 14.876 o
2 0 2 170.510 185.888 4.893 0.344 o
2 0 3 56.492 54.322 1.441 3.623 o
2 0 4 165.905 172.996 6.138 0.223 o
2 0 5 521.918 543.837 12.790 0.051 o
2 0 6 88.435 86.077 1.693 2.551 o
2 0 7 4.424 4.687 0.084 289.806 o
2 0 8 93.903 94.263 1.347 3.627 o
2 0 9 18.729 18.956 0.281 48.953 o
2 0 10 35.640 36.274 0.468 20.967 o
2 0 11 68.615 68.908 0.973 6.438 o
2 0 12 20.044 19.685 0.318 42.160 o
2 0 13 15.632 15.709 0.243 61.724 o
2 0 14 13.238 13.239 0.215 75.616 o
2 1 1 62.838 63.940 1.403 3.714 o
2 1 2 569.530 598.579 18.572 0.025 o
2 1 3 180.224 184.934 2.648 1.043 o
2 1 4 1014.990 1053.530 23.952 0.015 o
2 1 5 16.756 16.757 0.356 40.578 o
2 1 6 193.652 203.515 4.500 0.399 o
2 1 7 140.391 144.319 1.871 1.949 o
2 1 8 8.356 8.280 0.131 145.269 o
2 1 9 51.444 51.749 0.739 10.373 o
2 1 10 46.609 47.305 0.674 12.138 o
2 1 11 87.215 88.032 1.235 4.221 o
2 1 12 82.156 82.914 1.179 4.605 o
2 1 13 87.340 87.293 1.441 3.329 o
2 1 14 39.572 38.585 0.674 12.967 o
2 2 0 3.145 3.406 0.496 33.044 o
2 2 1 288.711 282.500 7.270 0.157 o
2 2 2 1016.060 1027.710 22.090 0.017 o
2 2 3 103.182 101.047 1.712 2.429 o
2 2 4 81.773 81.118 1.338 3.807 o
2 2 5 6.466 6.381 0.122 182.472 o
2 2 6 251.691 255.741 3.190 0.710 o
2 2 7 110.994 113.397 1.301 3.615 o
2 2 8 122.744 124.914 1.441 3.017 o
2 2 9 103.703 104.106 1.207 4.121 o
2 2 10 2.436 2.638 0.140 268.303 o
2 2 11 49.983 49.971 0.674 11.819 o
2 2 12 46.879 45.901 0.674 12.168 o
2 2 13 51.272 51.721 0.758 10.045 o
2 2 14 21.932 21.042 0.346 37.098 o
2 3 0 0.000 0.056 0.028 9817.890 o
2 3 1 170.679 168.617 1.918 1.780 o
2 3 2 234.242 230.068 2.928 0.835 o
2 3 3 226.651 225.156 2.376 1.174 o
2 3 4 56.922 56.474 0.618 12.324 o
2 3 5 262.239 254.974 2.872 0.838 o
2 3 6 530.797 527.547 6.596 0.175 o
2 3 7 6.515 6.400 0.103 199.277 o
2 3 8 71.002 71.079 0.833 7.821 o
2 3 9 44.364 45.359 0.730 11.114 o
2 3 10 192.211 193.401 2.217 1.372 o
2 3 11 28.304 28.630 0.412 26.986 o
2 3 12 75.165 76.187 1.001 5.989 o
2 3 13 15.051 14.296 0.365 41.308 o
2 4 0 13.176 12.837 0.196 81.780 o
2 4 1 215.963 208.596 3.555 0.608 o
2 4 2 5.978 5.660 0.094 224.869 o
2 4 3 67.798 66.167 1.731 2.559 o
2 4 4 158.083 156.211 3.097 0.812 o
2 4 5 113.094 114.014 1.282 3.670 o
2 4 6 21.796 22.221 0.281 44.626 o
2 4 7 137.220 140.679 1.806 2.074 o
2 4 8 120.370 118.889 1.516 2.827 o
2 4 9 4.648 4.856 0.112 237.612 o
2 4 10 30.060 30.146 0.421 25.605 o
2 4 11 12.559 12.986 0.253 67.039 o
2 4 12 28.046 28.331 0.477 22.937 o
2 5 0 243.529 245.122 2.807 0.884 o
2 5 1 128.713 128.395 1.488 2.841 o
2 5 2 1.976 1.927 0.084 511.465 o
2 5 3 188.462 188.078 2.414 1.206 o
2 5 4 62.613 62.181 1.216 4.715 o
2 5 5 33.188 33.055 0.430 23.810 o
2 5 6 4.720 4.528 0.094 268.258 o
2 5 7 10.652 10.797 0.337 51.473 o
2 5 8 18.218 18.450 0.281 49.731 o
2 5 9 21.932 22.193 0.412 30.369 o
2 5 10 0.318 0.393 0.056 1779.150 o
2 6 0 6.151 6.493 0.131 176.977 o
2 6 1 79.990 79.817 1.057 5.441 o
2 6 2 122.336 124.662 2.096 1.671 o
2 6 3 2.560 2.264 0.122 318.797 o
2 6 4 1.210 1.338 0.056 918.161 o
2 6 5 28.152 28.424 0.365 30.533 o
2 6 6 7.253 7.298 0.131 160.061 o
2 6 7 10.258 10.451 0.262 71.302 o
2 6 8 24.993 25.683 0.374 31.658 o
2 7 0 9.675 9.880 0.206 93.950 o
2 7 1 1.785 1.581 0.094 498.531 o
2 7 2 21.735 22.202 0.440 28.085 o
2 7 3 15.195 15.017 0.262 58.930 o
3 0 2 148.191 148.033 3.920 0.529 o
3 0 3 195.040 200.278 3.714 0.569 o
3 0 4 662.322 669.471 12.406 0.053 o
3 0 5 70.067 70.658 1.329 3.984 o
3 0 6 240.331 244.336 3.808 0.528 o
3 0 7 19.011 19.077 0.318 43.181 o
3 0 8 46.736 45.948 0.655 12.617 o
3 0 9 116.918 118.094 1.722 2.334 o
3 0 10 32.355 33.121 0.571 17.283 o
3 0 11 53.914 53.723 0.908 7.688 o
3 0 12 91.667 90.586 1.497 3.099 o
3 0 13 103.261 102.843 1.693 2.470 o
3 0 14 16.818 16.326 0.290 50.762 o
3 1 0 31.664 31.072 0.599 16.423 o
3 1 1 275.767 284.175 7.522 0.147 o
3 1 2 207.150 214.144 4.566 0.387 o
3 1 3 83.978 85.581 1.431 3.390 o
3 1 4 85.292 88.051 1.478 3.205 o
3 1 5 22.357 21.865 0.430 28.687 o
3 1 6 119.213 118.982 2.536 1.205 o
3 1 7 3.992 3.995 0.140 217.374 o
3 1 8 217.582 222.864 3.714 0.560 o
3 1 9 22.956 23.194 0.374 33.132 o
3 1 10 64.806 65.044 0.926 7.033 o
3 1 11 12.441 12.425 0.215 78.534 o
3 1 12 24.340 23.690 0.374 32.384 o
3 1 13 26.549 25.664 0.477 23.602 o
3 2 0 120.438 124.343 3.415 0.696 o
3 2 1 122.063 121.911 1.984 1.836 o
3 2 2 358.588 360.839 6.100 0.214 o
3 2 3 397.429 403.503 5.529 0.252 o
3 2 4 56.760 55.342 0.945 7.151 o
3 2 5 220.846 217.269 3.181 0.735 o
3 2 6 73.779 75.457 1.272 4.215 o
3 2 7 94.128 92.158 1.357 3.594 o
3 2 8 95.893 96.425 1.263 3.967 o
3 2 9 230.294 234.868 3.013 0.797 o
3 2 10 187.606 186.777 2.423 1.200 o
3 2 11 10.836 10.441 0.187 96.373 o
3 2 12 60.064 59.702 0.851 8.121 o
3 2 13 28.250 28.714 0.440 25.120 o
3 3 0 178.890 175.952 2.498 1.155 o
3 3 1 206.402 201.064 3.312 0.694 o
3 3 2 13.985 13.623 0.225 71.004 o
3 3 3 150.741 144.497 1.881 1.909 o
3 3 4 11.779 11.265 0.159 102.005 o
3 3 5 170.262 171.658 1.909 1.791 o
3 3 6 2.797 2.797 0.112 324.636 o
3 3 7 211.635 211.290 2.638 1.014 o
3 3 8 33.021 33.186 0.468 21.818 o
3 3 9 21.860 23.297 0.346 36.492 o
3 3 10 8.732 8.757 0.159 123.927 o
3 3 11 57.724 57.484 0.861 8.111 o
3 3 12 24.401 24.420 0.393 30.563 o
3 4 0 6.149 6.091 0.131 179.538 o
3 4 1 184.714 182.417 2.779 0.959 o
3 4 2 23.752 24.466 0.393 30.815 o
3 4 3 357.312 361.700 4.388 0.384 o
3 4 4 84.010 82.952 0.973 5.987 o
3 4 5 79.076 78.012 1.020 5.752 o
3 4 6 3.948 3.883 0.084 321.938 o
3 4 7 41.380 40.830 0.636 13.737 o
3 4 8 64.925 65.587 0.870 7.649 o
3 4 9 19.404 18.974 0.290 46.880 o
3 4 10 10.521 10.376 0.225 83.235 o
3 4 11 21.307 20.939 0.374 34.479 o
3 5 0 17.731 17.889 0.281 50.536 o
3 5 1 147.255 146.340 3.742 0.578 o
3 5 2 21.030 20.275 0.412 31.113 o
3 5 3 6.713 6.793 0.122 176.677 o
3 5 4 0.718 0.823 0.047 1453.050 o
3 5 5 47.402 47.324 0.608 13.685 o
3 5 6 28.273 28.396 0.374 29.765 o
3 5 7 43.500 42.945 0.814 9.614 o
3 5 8 10.898 10.863 0.187 95.360 o
3 5 9 6.677 6.970 0.178 131.221 o
3 6 0 5.271 5.492 0.299 74.234 o
3 6 1 58.043 59.823 0.814 8.698 o
3 6 2 13.601 13.679 0.243 66.897 o
3 6 3 126.295 131.211 1.591 2.577 o
3 6 4 33.523 34.178 0.449 22.575 o
3 6 5 4.992 4.931 0.122 216.854 o
3 6 6 13.165 13.819 0.215 75.111 o
4 0 2 81.583 83.148 2.236 1.578 o
4 0 3 5.978 7.326 0.655 18.770 o
4 0 4 196.679 202.439 3.761 0.555 o
4 0 5 0.762 0.739 0.047 1451.250 o
4 0 6 56.644 55.856 1.057 6.029 o
4 0 7 23.288 22.483 0.477 24.822 o
4 0 8 50.859 52.236 1.048 6.253 o
4 0 9 6.337 6.166 0.187 129.522 o
4 0 10 71.227 68.534 1.366 3.807 o
4 0 11 68.138 64.548 1.525 3.193 o
4 0 12 29.630 29.219 0.524 20.044 o
4 1 0 300.156 302.700 5.455 0.268 o
4 1 1 229.724 237.160 7.026 0.169 o
4 1 2 24.051 25.215 0.730 13.091 o
4 1 3 19.057 19.554 0.402 33.025 o
4 1 4 95.122 97.117 2.264 1.516 o
4 1 5 70.204 69.666 1.338 3.942 o
4 1 6 110.092 110.665 2.068 1.743 o
4 1 7 67.451 68.684 1.272 4.305 o
4 1 8 40.712 39.286 0.646 13.601 o
4 1 9 1.825 1.703 0.084 539.658 o
4 1 10 14.796 14.848 0.243 63.779 o
4 1 11 44.313 43.703 0.748 10.780 o
4 1 12 104.413 102.899 2.171 1.617 o
4 2 0 46.564 48.530 0.917 7.855 o
4 2 1 87.478 93.374 3.789 0.581 o
4 2 2 112.967 116.307 3.387 0.710 o
4 2 3 120.288 118.075 1.647 2.492 o
4 2 4 9.140 9.244 0.337 54.038 o
4 2 5 49.217 47.819 1.048 6.325 o
4 2 6 92.883 89.931 1.534 2.974 o
4 2 7 81.814 81.932 1.385 3.602 o
4 2 8 87.681 88.547 2.180 1.640 o
4 2 9 34.543 34.197 0.627 14.962 o
4 2 10 107.147 108.681 1.796 2.221 o
4 2 11 33.905 33.654 0.505 19.788 o
4 2 12 7.373 7.307 0.159 138.179 o
4 3 0 10.157 10.310 0.393 41.914 o
4 3 1 96.913 95.601 2.582 1.193 o
4 3 2 22.902 22.492 0.402 30.745 o
4 3 3 63.728 63.304 0.898 7.391 o
4 3 4 19.509 19.536 0.374 35.779 o
4 3 5 218.158 215.454 3.593 0.596 o
4 3 6 61.863 62.116 1.338 4.039 o
4 3 7 45.293 44.751 0.786 9.991 o
4 3 8 40.630 41.242 0.730 11.455 o
4 3 9 50.469 50.318 0.683 11.576 o
4 3 10 12.869 13.267 0.243 68.657 o
4 3 11 22.844 22.333 0.346 36.210 o
4 4 0 56.666 54.762 0.795 9.125 o
4 4 1 93.084 91.195 1.207 4.291 o
4 4 2 35.255 35.001 0.487 20.285 o
4 4 3 74.801 74.241 0.982 6.173 o
4 4 4 28.402 27.994 0.468 23.442 o
4 4 5 59.825 60.394 1.057 5.934 o
4 4 6 43.143 41.289 1.076 6.226 o
4 4 7 29.681 29.219 0.543 19.152 o
4 4 8 4.654 4.444 0.159 178.726 o
4 4 9 1.886 1.946 0.084 519.786 o
4 5 0 0.011 0.028 0.047 3811.720 o
4 5 1 50.007 49.681 0.683 11.626 o
4 5 2 25.900 25.758 0.505 22.079 o
4 5 3 22.239 22.109 0.337 37.630 o
4 5 4 12.631 12.678 0.234 72.295 o
4 5 5 4.496 4.594 0.122 229.895 o
4 5 6 18.650 18.647 0.384 35.434 o
4 5 7 17.231 17.300 0.356 40.074 o
4 6 0 0.077 0.365 0.084 1088.760 o
4 6 1 60.617 62.546 0.908 7.380 o
4 6 2 10.615 11.405 0.215 84.852 o
4 6 3 34.206 35.759 0.795 10.562 o
5 0 1 211.313 209.653 3.799 0.541 o
5 0 2 113.782 118.711 3.181 0.798 o
5 0 3 41.460 42.309 0.936 7.843 o
5 0 4 324.076 333.117 6.175 0.211 o
5 0 5 154.562 153.862 2.872 0.931 o
5 0 6 0.737 0.870 0.094 683.758 o
5 0 7 6.122 5.651 0.412 43.377 o
5 0 8 115.522 111.460 2.189 1.570 o
5 0 9 58.852 57.727 1.170 5.095 o
5 0 10 6.920 6.456 0.187 124.856 o
5 0 11 15.980 15.943 0.384 37.667 o
5 1 0 239.702 244.318 7.653 0.143 o
5 1 1 98.263 101.720 3.873 0.555 o
5 1 2 394.119 414.038 10.760 0.072 o
5 1 3 153.160 153.675 2.872 0.932 o
5 1 4 84.954 85.712 1.628 2.740 o
5 1 5 7.018 6.961 0.187 122.720 o
5 1 6 183.338 183.811 3.387 0.678 o
5 1 7 60.553 60.272 1.141 5.257 o
5 1 8 50.027 49.896 0.833 8.907 o
5 1 9 67.922 65.839 1.319 4.068 o
5 1 10 6.254 5.660 0.178 139.016 o
5 2 0 124.989 129.480 3.873 0.548 o
5 2 1 28.231 28.976 0.851 9.880 o
5 2 2 135.871 139.463 3.696 0.595 o
5 2 3 23.700 24.410 0.515 22.144 o
5 2 4 122.122 120.517 2.292 1.435 o
5 2 5 46.368 46.117 0.898 8.148 o
5 2 6 10.185 10.067 0.262 71.848 o
5 2 7 11.185 11.536 0.262 68.403 o
5 2 8 46.034 45.377 0.879 8.434 o
5 2 9 17.876 17.571 0.318 44.705 o
5 2 10 99.917 100.045 1.675 2.532 o
5 3 0 46.029 46.584 0.898 8.151 o
5 3 1 32.047 34.244 1.357 4.295 o
5 3 2 26.880 26.992 0.515 21.238 o
5 3 3 52.380 52.217 0.926 7.522 o
5 3 4 50.229 49.616 0.889 8.100 o
5 3 5 51.560 51.721 0.908 7.784 o
5 3 6 32.308 32.307 0.589 16.621 o
5 3 7 86.765 87.967 1.497 3.132 o
5 3 8 135.108 135.683 2.283 1.420 o
5 3 9 0.926 0.954 0.065 965.086 o
5 4 0 22.909 23.811 0.393 31.298 o
5 4 1 15.502 15.803 0.281 54.259 o
5 4 2 2.934 3.303 0.103 333.331 o
5 4 3 118.006 118.711 1.843 2.086 o
5 4 4 24.253 23.372 0.458 25.728 o
5 4 5 57.681 57.989 1.029 6.245 o
5 4 6 10.253 10.142 0.243 77.703 o
5 4 7 24.865 24.401 0.477 24.171 o
5 5 0 2.707 2.957 0.112 325.047 o
5 5 1 126.766 129.461 2.236 1.486 o
5 5 2 20.344 19.910 0.318 41.853 o
5 5 3 9.958 10.030 0.253 75.396 o
5 5 4 45.433 45.499 0.917 7.932 o
6 0 1 72.759 73.605 1.394 3.654 o
6 0 2 12.958 13.595 0.496 27.608 o
6 0 3 1.004 2.171 0.206 175.524 o
6 0 4 13.461 13.576 0.524 25.172 o
6 0 5 62.317 63.004 1.207 4.772 o
6 0 6 9.917 9.627 0.262 72.878 o
6 0 7 104.132 101.833 1.909 2.022 o
6 0 8 22.013 21.379 0.402 31.337 o
6 1 0 0.501 0.711 0.122 490.738 o
6 1 1 0.522 0.430 0.103 663.726 o
6 1 2 6.288 6.259 0.281 78.298 o
6 1 3 10.074 10.151 0.262 71.991 o
6 1 4 13.633 13.389 0.384 39.909 o
6 1 5 9.090 9.216 0.234 85.471 o
6 1 6 17.062 17.028 0.786 12.265 o
6 1 7 5.355 5.286 0.234 106.020 o
6 1 8 7.240 7.391 0.290 71.474 o
6 2 0 61.254 60.179 1.693 2.694 o
6 2 1 67.209 66.522 1.890 2.188 o
6 2 2 2.082 2.311 0.589 24.180 o
6 2 3 1.801 1.862 0.243 126.801 o
6 2 4 16.533 16.130 0.374 38.465 o
6 2 5 69.952 68.787 1.338 3.948 o
6 2 6 0.231 0.196 0.065 1607.540 o
6 2 7 52.602 52.666 1.020 6.486 o
6 3 1 2.107 2.423 0.215 150.846 o
6 3 2 32.120 32.578 0.683 13.535 o
6 3 3 3.753 3.883 0.159 194.875 o
6 3 4 7.115 7.232 0.215 104.770 o
6 3 5 16.149 16.486 0.374 38.592 o
6 3 6 13.762 13.735 0.327 48.607 o
6 4 0 0.122 0.206 0.084 1104.810 o
6 4 1 58.194 57.279 1.151 5.241 o
6 4 2 13.146 13.463 0.458 31.106 o
7 0 1 48.864 49.672 1.010 6.690 o
7 0 2 401.208 409.763 6.531 0.186 o
7 0 3 0.017 -0.075 0.075 1530.820 o
7 0 4 10.440 10.357 0.281 65.566 o
7 1 0 183.760 191.287 3.630 0.597 o
7 1 1 19.858 21.051 0.683 15.130 o
7 1 2 44.852 45.490 0.926 7.825 o
7 1 3 58.866 60.806 1.824 2.362 o
7 2 0 3.449 3.742 0.262 100.134 o
;
_olex2_submission_special_instructions 'No special instructions were received'
loop_
_space_group_symop_id
_space_group_symop_operation_xyz
1 x,y,z
2 x+1/2,-y+1/2,-z
3 -x,y+1/2,-z+1/2
4 -x+1/2,-y,z+1/2
loop_
_atom_site_label
_atom_site_type_symbol
_atom_site_fract_x
_atom_site_fract_y
_atom_site_fract_z
_atom_site_U_iso_or_equiv
_atom_site_adp_type
_atom_site_occupancy
_atom_site_refinement_flags_posn
O1 O -0.26085(5) 0.94290(5) 0.81582(2) 0.01374(8) Uani 1.000000 .
O2 O -0.12483(6) 1.22675(5) 0.91607(2) 0.01391(8) Uani 1.000000 .
N1 N 0.31672(6) 1.14889(6) 0.86231(3) 0.01163(9) Uani 1.000000 .
C1 C -0.10001(7) 1.05542(6) 0.85908(3) 0.01035(9) Uani 1.000000 .
C2 C 0.14564(7) 0.96813(6) 0.83878(3) 0.01055(9) Uani 1.000000 .
C3 C 0.19661(8) 0.76261(7) 0.90930(3) 0.01479(10) Uani 1.000000 .
H2 H 0.1626(13) 0.9280(10) 0.7532(5) 0.0237(14) Uiso 1.000000 .
H1a H 0.3042(16) 1.2027(12) 0.9390(7) 0.0290(18) Uiso 1.000000 .
H1b H 0.4822(17) 1.0831(13) 0.8523(6) 0.0313(18) Uiso 1.000000 .
H1c H 0.2927(14) 1.2813(13) 0.8089(6) 0.0221(16) Uiso 1.000000 .
H3a H 0.1961(14) 0.8101(10) 0.9960(6) 0.0341(18) Uiso 1.000000 .
H3b H 0.0707(16) 0.6352(10) 0.8942(5) 0.0367(17) Uiso 1.000000 .
H3c H 0.3603(16) 0.6960(11) 0.8906(5) 0.0359(17) Uiso 1.000000 .
loop_
_atom_site_aniso_label
_atom_site_aniso_U_11
_atom_site_aniso_U_22
_atom_site_aniso_U_33
_atom_site_aniso_U_12
_atom_site_aniso_U_13
_atom_site_aniso_U_23
O1 0.00825(15) 0.01787(14) 0.01511(13) -0.00021(13) -0.00042(11) -0.00351(10)
O2 0.01073(16) 0.01705(14) 0.01394(13) 0.00160(12) 0.00078(11) -0.00360(10)
N1 0.0089(2) 0.01437(15) 0.01162(16) -0.00057(12) 0.00005(13) -0.00067(13)
C1 0.0088(2) 0.01329(17) 0.00891(16) 0.00031(14) -0.00013(14) 0.00018(13)
C2 0.0083(2) 0.01379(17) 0.00954(15) 0.00158(15) 0.00017(14) -0.00108(13)
C3 0.0121(2) 0.01462(18) 0.01767(18) 0.00158(15) -0.00048(14) 0.00259(15)
loop_
_atom_type_symbol
_atom_type_description
_atom_type_scat_dispersion_real
_atom_type_scat_dispersion_imag
_atom_type_scat_source
_atom_type_scat_dispersion_source
C C 0.00347 0.00161
'Clementi & Roetti, C., At. Data Nucl. Data Tables 1974, 14, (177-478); Clementi & Raimondi, J. Chem. Phys., 1963, 38, (2686-2689)'
'Henke, Gullikson and Davis, At. Data and Nucl. Data Tables, 1993, 54, 2'
H H 0.00000 0.00000
'Clementi & Roetti, C., At. Data Nucl. Data Tables 1974, 14, (177-478); Clementi & Raimondi, J. Chem. Phys., 1963, 38, (2686-2689)'
'Henke, Gullikson and Davis, At. Data and Nucl. Data Tables, 1993, 54, 2'
N N 0.00653 0.00323
'Clementi & Roetti, C., At. Data Nucl. Data Tables 1974, 14, (177-478); Clementi & Raimondi, J. Chem. Phys., 1963, 38, (2686-2689)'
'Henke, Gullikson and Davis, At. Data and Nucl. Data Tables, 1993, 54, 2'
O O 0.01158 0.00611
'Clementi & Roetti, C., At. Data Nucl. Data Tables 1974, 14, (177-478); Clementi & Raimondi, J. Chem. Phys., 1963, 38, (2686-2689)'
'Henke, Gullikson and Davis, At. Data and Nucl. Data Tables, 1993, 54, 2'
loop_
_geom_angle_atom_site_label_1
_geom_angle_atom_site_label_2
_geom_angle_atom_site_label_3
_geom_angle
_geom_angle_site_symmetry_1
_geom_angle_site_symmetry_3
_geom_angle_publ_flag
H1a N1 C2 111.5(5) . . ?
H1b N1 C2 108.6(4) . . ?
H1b N1 H1a 107.4(7) . . ?
H1c N1 C2 109.7(4) . . ?
H1c N1 H1a 110.2(6) . . ?
H1c N1 H1b 109.6(6) . . ?
O2 C1 O1 125.74(4) . . ?
C2 C1 O1 115.90(3) . . ?
C2 C1 O2 118.37(3) . . ?
C1 C2 N1 109.98(3) . . ?
C3 C2 N1 109.81(3) . . ?
C3 C2 C1 110.99(3) . . ?
H2 C2 N1 106.7(4) . . ?
H2 C2 C1 108.4(4) . . ?
H2 C2 C3 110.9(3) . . ?
H3a C3 C2 110.0(3) . . ?
H3b C3 C2 109.7(4) . . ?
H3b C3 H3a 110.4(5) . . ?
H3c C3 C2 110.6(4) . . ?
H3c C3 H3a 108.0(5) . . ?
H3c C3 H3b 108.1(6) . . ?
loop_
_geom_bond_atom_site_label_1
_geom_bond_atom_site_label_2
_geom_bond_distance
_geom_bond_site_symmetry_2
_geom_bond_publ_flag
O1 C1 1.2627(5) . ?
O2 C1 1.2423(5) . ?
N1 C2 1.4887(5) . ?
N1 H1a 0.995(9) . ?
N1 H1b 1.042(10) . ?
N1 H1c 1.033(8) . ?
C1 C2 1.5339(6) . ?
C2 C3 1.5242(5) . ?
C2 H2 1.080(6) . ?
C3 H3a 1.099(7) . ?
C3 H3b 1.067(8) . ?
C3 H3c 1.052(9) . ?
loop_
_refln_index_h
_refln_index_k
_refln_index_l
_refln_F_squared_meas
_refln_F_squared_sigma
8 0 0 19.63 0.68
10 0 0 2.57 0.23
3 1 0 33.21 0.64
4 1 0 323.53 5.83
5 1 0 261.13 8.18
6 1 0 0.76 0.13
7 1 0 204.45 3.88
8 1 0 6.97 0.66
9 1 0 0.16 0.08
10 1 0 1.19 0.13
11 1 0 0.51 0.17
1 2 0 1.04 0.04
2 2 0 3.64 0.53
3 2 0 132.9 3.65
4 2 0 51.87 0.98
5 2 0 138.39 4.14
6 2 0 64.32 1.81
7 2 0 4 0.28
8 2 0 44.41 1.92
9 2 0 45.58 0.83
10 2 0 30.02 0.69
1 3 0 188.17 2.29
2 3 0 0.06 0.03
3 3 0 188.06 2.67
4 3 0 11.02 0.42
5 3 0 49.79 0.96
7 3 0 3.5 0.26
8 3 0 2.2 0.22
9 3 0 46.57 0.85
10 3 0 0.43 0.1
0 4 0 367.19 5.89
1 4 0 2.43 0.1
2 4 0 13.72 0.21
3 4 0 6.51 0.14
4 4 0 58.53 0.85
5 4 0 25.45 0.42
6 4 0 0.22 0.09
7 4 0 100.32 1.48
8 4 0 29.7 0.5
9 4 0 13 0.37
10 4 0 0.41 0.1
11 4 0 15.16 0.63
12 4 0 7.46 0.21
1 5 0 7.65 0.15
2 5 0 261.99 3
3 5 0 19.12 0.3
4 5 0 0.03 0.05
5 5 0 3.16 0.12
6 5 0 36.47 0.47
7 5 0 1.03 0.07
8 5 0 21.14 0.34
9 5 0 0.19 0.11
10 5 0 38.87 0.92
11 5 0 1.71 0.09
12 5 0 4.78 0.15
0 6 0 79.26 1.33
1 6 0 25.52 0.34
2 6 0 6.94 0.14
3 6 0 5.87 0.32
4 6 0 0.39 0.09
5 6 0 10.71 0.17
6 6 0 36.9 0.48
7 6 0 8.36 0.18
8 6 0 14.46 0.28
9 6 0 17.51 0.26
10 6 0 2.14 0.15
11 6 0 2.27 0.1
12 6 0 0.85 0.06
1 7 0 132.47 1.9
2 7 0 10.56 0.22
3 7 0 5.03 0.22
4 7 0 0.3 0.03
5 7 0 2.97 0.07
6 7 0 6.6 0.25
7 7 0 14.65 0.23
8 7 0 0.59 0.13
9 7 0 1.61 0.08
10 7 0 0.26 0.1
11 7 0 0.16 0.05
12 7 0 2.93 0.11
0 8 0 1.53 0.07
1 8 0 19.68 0.2
2 8 0 0.19 0.04
3 8 0 45.07 0.47
4 8 0 2.74 0.07
5 8 0 0.5 0.03
6 8 0 39.85 0.51
7 8 0 28.29 0.44
8 8 0 17.3 0.32
9 8 0 3.83 0.12
10 8 0 2.15 0.36
11 8 0 0.82 0.13
12 8 0 3.6 0.12
1 9 0 4.99 0.08
2 9 0 56.72 0.5
3 9 0 7.93 0.1
4 9 0 32.37 0.33
5 9 0 29.93 0.31
6 9 0 0.05 0.04
7 9 0 8.87 0.19
8 9 0 1.89 0.09
9 9 0 1.5 0.17
10 9 0 0.43 0.06
11 9 0 0.12 0.05
0 10 0 119.79 1.73
1 10 0 0.85 0.08
2 10 0 21.8 0.25
3 10 0 5.24 0.09
4 10 0 1.41 0.06
5 10 0 5.51 0.09
6 10 0 0.11 0.07
7 10 0 1.03 0.14
8 10 0 0.02 0.07
9 10 0 0.62 0.1
10 10 0 2.09 0.15
1 11 0 -0.06 0.13
2 11 0 3.17 0.1
3 11 0 5.96 0.12
4 11 0 1.68 0.06
5 11 0 2.49 0.08
6 11 0 6.12 0.11
7 11 0 23.69 0.42
8 11 0 6.29 0.15
9 11 0 2.52 0.25
0 12 0 4.17 0.32
1 12 0 4.22 0.11
2 12 0 0.08 0.06
3 12 0 0 0.06
4 12 0 3.25 0.19
5 12 0 19.35 0.31
6 12 0 0.38 0.07
7 12 0 3.06 0.23
8 12 0 3.65 0.15
1 13 0 0.32 0.06
2 13 0 1.53 0.08
3 13 0 4.77 0.17
4 13 0 0.5 0.1
5 13 0 1.4 0.08
6 13 0 0.09 0.12
0 14 0 0.52 0.09
1 14 0 0.94 0.08
2 14 0 0.2 0.06
3 14 0 2.19 0.09
4 14 0 0.21 0.09
5 0 1 224.08 4.06
6 0 1 78.67 1.49
7 0 1 53.09 1.08
8 0 1 2.48 0.18
9 0 1 4.27 0.21
10 0 1 0.06 0.1
11 0 1 0.42 0.11
-11 1 1 6.37 0.36
-10 1 1 14.95 0.41
-9 1 1 2.44 0.16
-8 1 1 23.68 0.54
-7 1 1 22.07 0.52
-6 1 1 0.55 0.07
-5 1 1 105.72 1.98
-4 1 1 242.69 6.18
-3 1 1 306.41 7.53
2 1 1 68.34 1.5
3 1 1 303.73 8.04
4 1 1 253.48 7.51
5 1 1 108.72 4.14
6 1 1 0.46 0.11
7 1 1 22.5 0.73
8 1 1 23.34 0.4
9 1 1 2.2 0.13
10 1 1 15.5 0.41
11 1 1 6.51 0.35
-10 2 1 39.71 1.52
-9 2 1 10.28 0.33
-8 2 1 42.24 0.75
-7 2 1 35.06 1.1
-6 2 1 73.7 2.52
-5 2 1 30.66 0.77
-4 2 1 93.71 1.87
-3 2 1 129.36 2.17
-2 2 1 312.77 4.32
-1 2 1 70.68 0.91
1 2 1 69.93 1.89
2 2 1 301.94 7.77
3 2 1 130.3 2.12
4 2 1 99.8 4.05
5 2 1 30.97 0.91
6 2 1 71.1 2.02
7 2 1 36.47 1.08
8 2 1 40.98 0.87
9 2 1 10.05 0.22
10 2 1 38.76 1.21
-10 3 1 30.55 0.61
-9 3 1 7.26 0.19
-8 3 1 73.4 1.42
-7 3 1 0.33 0.06
-6 3 1 2.56 0.15
-5 3 1 35.55 0.8
-4 3 1 100.68 1.46
-3 3 1 220.51 3.09
-2 3 1 178.91 3.69
-1 3 1 331.24 4.19
0 3 1 26.35 0.33
1 3 1 330.75 4.64
2 3 1 180.22 2.05
3 3 1 214.9 3.54
4 3 1 102.18 2.76
5 3 1 36.6 1.45
6 3 1 2.59 0.23
7 3 1 0.53 0.06
8 3 1 73.05 1.09
9 3 1 7.32 0.29
10 3 1 31.17 0.6
-12 4 1 1.66 0.1
-10 4 1 43.59 0.81
-9 4 1 7.63 0.23
-8 4 1 11.05 0.22
-7 4 1 7.14 0.16
-6 4 1 62.27 1.01
-5 4 1 17.05 0.32
-4 4 1 98.44 1.46
-3 4 1 195.52 2.8
-2 4 1 226.6 2.88
-1 4 1 129.53 2.89
0 4 1 332.17 5.96
1 4 1 130.15 1.29
2 4 1 222.95 3.8
3 4 1 194.97 2.97
4 4 1 97.47 1.29
5 4 1 16.89 0.3
6 4 1 61.22 1.23
7 4 1 6.91 0.23
8 4 1 10.73 0.22
9 4 1 7.58 0.17
10 4 1 43.5 0.8
11 4 1 0.8 0.09
12 4 1 1.69 0.09
-13 5 1 0.09 0.04
-12 5 1 1.05 0.08
-11 5 1 11.94 0.28
-10 5 1 2.5 0.41
-9 5 1 16.8 0.38
-8 5 1 26.33 0.41
-7 5 1 18.13 0.33
-6 5 1 32.33 0.61
-5 5 1 139.15 3.83
-4 5 1 52.16 0.84
-3 5 1 155.27 2.33
-2 5 1 138.18 1.61
-1 5 1 107.62 1.27
0 5 1 30.63 0.37
1 5 1 109.83 1.16
2 5 1 137.23 1.59
3 5 1 156.41 4
4 5 1 53.1 0.73
5 5 1 138.37 2.39
6 5 1 31.59 0.47
7 5 1 19.15 0.3
8 5 1 26.05 0.43
9 5 1 16.82 0.31
10 5 1 2.64 0.16
11 5 1 11.98 0.27
12 5 1 1.08 0.09
-12 6 1 2.55 0.11
-11 6 1 13.34 0.3
-10 6 1 18.55 0.71
-9 6 1 0.67 0.08
-8 6 1 0.07 0.07
-7 6 1 1.89 0.07
-6 6 1 60.26 0.61
-5 6 1 43.49 0.58
-4 6 1 66.12 0.99
-3 6 1 64.59 1.34
-2 6 1 84.97 1.14
-1 6 1 91.15 1.08
0 6 1 52.69 0.64
1 6 1 90.44 1.07
2 6 1 85.31 1.13
3 6 1 63.94 0.87
4 6 1 66.85 0.97
5 6 1 42.64 0.51
6 6 1 59.74 0.7
7 6 1 1.68 0.07
8 6 1 0.29 0.05
9 6 1 0.56 0.06
10 6 1 18.1 0.4
11 6 1 12.96 0.3
12 6 1 2.35 0.1
-12 7 1 0.01 0.05
-11 7 1 3.22 0.12
-10 7 1 12.29 0.45
-9 7 1 1.89 0.08
-8 7 1 15 0.24
-7 7 1 0.25 0.09
-6 7 1 36.77 0.33
-5 7 1 13.7 0.14
-4 7 1 39.14 0.4
-3 7 1 77.74 1.57
-2 7 1 1.94 0.09
-1 7 1 37.43 0.49
0 7 1 0.05 0.08
1 7 1 37.88 0.49
2 7 1 1.69 0.1
3 7 1 77.36 1.65
4 7 1 39.17 0.47
5 7 1 13.84 0.14
6 7 1 36.39 0.47
7 7 1 0.31 0.07
8 7 1 15.44 0.23
9 7 1 1.95 0.09
10 7 1 12.27 0.31
11 7 1 3.33 0.11
12 7 1 0.06 0.05
-12 8 1 1.62 0.08
-11 8 1 6.76 0.27
-10 8 1 11.98 0.49
-9 8 1 2.43 0.14
-8 8 1 20.78 0.38
-7 8 1 2.13 0.09
-6 8 1 0.65 0.04
-5 8 1 10.22 0.15
-4 8 1 6.54 0.08
-3 8 1 2.33 0.09
-2 8 1 1.78 0.05
-1 8 1 21.19 0.24
0 8 1 0.92 0.08
1 8 1 21.07 0.21
2 8 1 1.82 0.07
3 8 1 2.25 0.07
4 8 1 6.62 0.09
5 8 1 10.27 0.12
6 8 1 0.64 0.09
7 8 1 2.12 0.09
8 8 1 21.22 0.38
9 8 1 2.28 0.18
10 8 1 12.26 0.52
11 8 1 6.81 0.17
12 8 1 1.54 0.08
-11 9 1 0.92 0.07
-10 9 1 5.75 0.16
-9 9 1 4.34 0.15
-8 9 1 0.92 0.06
-7 9 1 1.65 0.15
-6 9 1 1.25 0.05
-5 9 1 9.6 0.13
-4 9 1 0.16 0.03
-3 9 1 13 0.17
-2 9 1 1.92 0.1
-1 9 1 5.25 0.08
0 9 1 0.42 0.05
1 9 1 5.09 0.1
2 9 1 1.89 0.09
3 9 1 12.94 0.14
4 9 1 0.14 0.06
5 9 1 9.81 0.12
6 9 1 1.16 0.08
7 9 1 1.4 0.16
8 9 1 0.92 0.06
9 9 1 4.41 0.12
10 9 1 5.66 0.18
11 9 1 0.95 0.07
-10 10 1 0.81 0.1
-9 10 1 2.55 0.09
-8 10 1 1.14 0.09
-7 10 1 1.5 0.17
-6 10 1 2.96 0.08
-5 10 1 15.79 0.19
-4 10 1 3.1 0.07
-3 10 1 0.12 0.05
-2 10 1 2.08 0.08
-1 10 1 18.83 0.26
0 10 1 1.39 0.14
1 10 1 19.48 0.22
2 10 1 2.28 0.06
3 10 1 0.04 0.03
4 10 1 3.19 0.08
5 10 1 15.64 0.21
6 10 1 2.91 0.12
7 10 1 1.56 0.1
8 10 1 1.16 0.07
9 10 1 2.67 0.1
10 10 1 0.69 0.07
-9 11 1 4.36 0.14
-8 11 1 0.13 0.09
-7 11 1 1.42 0.18
-6 11 1 1.92 0.07
-5 11 1 4.62 0.09
-4 11 1 5.4 0.1
-3 11 1 7.38 0.14
-2 11 1 2.61 0.15
-1 11 1 12.02 0.16
0 11 1 2.04 0.25
1 11 1 12.11 0.24
2 11 1 2.66 0.09
3 11 1 7.61 0.12
4 11 1 5.47 0.1
5 11 1 4.45 0.12
6 11 1 1.66 0.11
7 11 1 1.29 0.18
8 11 1 0.09 0.06
9 11 1 4.26 0.17
-8 12 1 0.49 0.1
-7 12 1 3.67 0.13
-6 12 1 2.2 0.1
-5 12 1 1.54 0.08
-4 12 1 14.98 0.23
-3 12 1 4.63 0.12
-2 12 1 1.16 0.14
-1 12 1 1.57 0.08
0 12 1 6.3 0.13
1 12 1 1.54 0.07
2 12 1 1.18 0.07
3 12 1 4.56 0.11
4 12 1 14.94 0.2
5 12 1 1.57 0.07
6 12 1 2.16 0.11
7 12 1 3.43 0.11
8 12 1 0.36 0.06
-6 13 1 1.04 0.12
-5 13 1 0.22 0.07
-4 13 1 3.75 0.09
-3 13 1 4.57 0.11
-2 13 1 3.83 0.11
-1 13 1 2.61 0.09
0 13 1 4.44 0.11
1 13 1 2.58 0.09
2 13 1 3.76 0.13
3 13 1 4.61 0.1
4 13 1 3.79 0.11
5 13 1 0.07 0.07
6 13 1 1.16 0.08
-4 14 1 2.5 0.09
-3 14 1 3.19 0.1
-2 14 1 3.89 0.14
-1 14 1 1.65 0.07
0 14 1 -0.06 0.06
1 14 1 1.53 0.08
2 14 1 3.98 0.15
3 14 1 3.13 0.1
4 14 1 2.79 0.2
2 0 2 198.68 5.23
3 0 2 158.22 4.19
4 0 2 88.87 2.39
5 0 2 126.88 3.4
6 0 2 14.53 0.53
7 0 2 437.96 6.98
8 0 2 7.33 0.18
9 0 2 31.53 0.55
10 0 2 12.08 0.35
11 0 2 0.81 0.12
-11 1 2 18.32 0.67
-10 1 2 1.24 0.11
-9 1 2 31.35 0.55
-8 1 2 14.36 0.25
-7 1 2 48.45 0.79
-6 1 2 6.51 0.29
-5 1 2 432.65 7.86
-4 1 2 26.74 0.75
-3 1 2 225.56 5.62
-2 1 2 646.37 15.94
2 1 2 639.77 19.85
3 1 2 228.88 4.88
4 1 2 26.95 0.78
5 1 2 442.53 11.5
6 1 2 6.69 0.3
7 1 2 48.62 0.99
8 1 2 14.29 0.23
9 1 2 31.53 0.74
10 1 2 1.32 0.13
11 1 2 17.7 0.64
-10 2 2 1.78 0.17
-9 2 2 69.29 1.49
-8 2 2 18.86 0.49
-7 2 2 9.34 0.22
-6 2 2 2.22 0.1
-5 2 2 146.84 2.22
-4 2 2 118.45 2.23
-3 2 2 374.15 5.61
-2 2 2 1080.63 15.36
-1 2 2 289.94 3.67
0 2 2 1733.92 42.56
1 2 2 277.93 4.9
2 2 2 1098.43 23.61
3 2 2 385.67 6.52
4 2 2 124.31 3.62
5 2 2 149.06 3.95
6 2 2 2.47 0.63
7 2 2 9.68 0.28
8 2 2 19.06 0.39
9 2 2 71.73 1.23
10 2 2 1.63 0.14
-10 3 2 16.92 0.39
-9 3 2 13.42 0.32
-8 3 2 43.78 0.67
-7 3 2 108.58 1.72
-6 3 2 35.05 1.14
-5 3 2 28.86 0.43
-4 3 2 24.37 0.36
-3 3 2 14.39 0.25
-2 3 2 245.83 3.24
-1 3 2 50.99 0.64
0 3 2 0.54 0.11
1 3 2 49.15 0.64
2 3 2 245.9 3.13
3 3 2 14.56 0.24
4 3 2 24.04 0.43
5 3 2 28.85 0.55
6 3 2 34.82 0.73
7 3 2 106.38 1.58
8 3 2 43.9 0.7
9 3 2 13.07 0.42
10 3 2 17.11 0.37
-13 4 2 2.48 0.1
-10 4 2 9.47 0.25
-9 4 2 6.47 0.22
-8 4 2 9.64 0.19
-7 4 2 7.98 0.16
-6 4 2 14.44 0.3
-5 4 2 3.47 0.19
-4 4 2 37.43 0.54
-3 4 2 25.99 0.42
-2 4 2 6.29 0.13
-1 4 2 29.19 0.42
0 4 2 27.18 0.31
1 4 2 29.54 0.31
2 4 2 6.05 0.1
3 4 2 26.15 0.42
4 4 2 37.41 0.52
5 4 2 3.53 0.11
6 4 2 14.39 0.49
7 4 2 7.94 0.17
8 4 2 9.47 0.2
9 4 2 6.67 0.21
10 4 2 9.33 0.18
11 4 2 1.9 0.09
-13 5 2 2.09 0.09
-12 5 2 7.82 0.22
-11 5 2 6.32 0.38
-10 5 2 1.88 0.22
-9 5 2 19.46 0.39
-8 5 2 1.55 0.06
-7 5 2 10.36 0.19
-6 5 2 11.44 0.21
-5 5 2 21.68 0.43
-4 5 2 27.26 0.53
-3 5 2 22.07 0.34
-2 5 2 2.11 0.07
-1 5 2 73.41 1
0 5 2 47.45 0.56
1 5 2 74.29 1.01
2 5 2 2.06 0.09
3 5 2 21.67 0.44
4 5 2 27.53 0.54
5 5 2 21.28 0.34
6 5 2 11.07 0.21
7 5 2 10.69 0.19
8 5 2 1.3 0.08
9 5 2 19.32 0.28
10 5 2 1.82 0.14
11 5 2 6.16 0.17
12 5 2 7.76 0.22
-12 6 2 4.3 0.14
-11 6 2 1.18 0.09
-10 6 2 20.17 0.8
-9 6 2 3.89 0.14
-8 6 2 6.17 0.14
-7 6 2 26.9 0.37
-6 6 2 40.78 0.39
-5 6 2 14.23 0.24
-4 6 2 11.87 0.37
-3 6 2 14.81 0.26
-2 6 2 130.19 2.72
-1 6 2 68.93 0.83
0 6 2 4.97 0.15
1 6 2 68.5 1.08
2 6 2 133.24 2.24
3 6 2 14.62 0.26
4 6 2 12.19 0.23
5 6 2 13.99 0.18
6 6 2 40.85 0.44
7 6 2 27.28 0.38
8 6 2 6.29 0.12
9 6 2 3.88 0.1
10 6 2 19.8 0.48
11 6 2 0.98 0.07
12 6 2 4.31 0.14
-12 7 2 0.85 0.06
-11 7 2 4.87 0.25
-10 7 2 1.4 0.28
-9 7 2 4.66 0.13
-8 7 2 30.31 0.42
-7 7 2 33.09 0.47
-6 7 2 41.18 0.39
-5 7 2 9.72 0.13
-4 7 2 7.13 0.13
-3 7 2 18.25 0.45
-2 7 2 23.81 0.38
-1 7 2 12.07 0.21
0 7 2 45.48 0.57
1 7 2 12.27 0.23
2 7 2 23.73 0.47
3 7 2 19.19 0.72
4 7 2 6.92 0.17
5 7 2 9.97 0.13
6 7 2 40.59 0.49
7 7 2 33 0.45
8 7 2 30.29 0.41
9 7 2 4.92 0.13
10 7 2 1.46 0.09
11 7 2 4.78 0.14
12 7 2 0.92 0.08
-12 8 2 0.12 0.04
-11 8 2 0.26 0.07
-10 8 2 3.97 0.26
-9 8 2 6.64 0.35
-8 8 2 4.7 0.29
-7 8 2 0.7 0.05
-6 8 2 4.13 0.07
-5 8 2 7.68 0.1
-4 8 2 8.5 0.11
-3 8 2 6.33 0.09
-2 8 2 16.68 0.19
-1 8 2 52.82 0.51
0 8 2 23.93 0.27
1 8 2 53.57 0.51
2 8 2 16.86 0.16
3 8 2 6.08 0.08
4 8 2 8.34 0.16
5 8 2 7.6 0.12
6 8 2 3.95 0.12
7 8 2 0.52 0.08
8 8 2 4.43 0.41
9 8 2 6.62 0.15
10 8 2 3.81 0.29
11 8 2 0.33 0.1
-11 9 2 0.7 0.06
-10 9 2 -0.01 0.05
-9 9 2 6.54 0.22
-8 9 2 1.13 0.17
-7 9 2 8.93 0.16
-6 9 2 7.32 0.11
-5 9 2 17.34 0.19
-4 9 2 1.06 0.04
-3 9 2 36.84 0.39
-2 9 2 2.01 0.08
-1 9 2 12.82 0.16
0 9 2 10.4 0.17
1 9 2 12.82 0.16
2 9 2 1.73 0.06
3 9 2 36.86 0.34
4 9 2 1.01 0.06
5 9 2 17.08 0.23
6 9 2 7.45 0.15
7 9 2 8.75 0.19
8 9 2 1.07 0.07
9 9 2 6.57 0.15
10 9 2 0.06 0.06
11 9 2 0.66 0.06
-10 10 2 1.45 0.08
-9 10 2 2.22 0.18
-8 10 2 3.71 0.15
-7 10 2 34.19 0.6
-6 10 2 3.68 0.08
-5 10 2 13.15 0.16
-4 10 2 8.13 0.11
-3 10 2 6.81 0.1
-2 10 2 22.06 0.26
-1 10 2 4.71 0.15
0 10 2 4.63 0.09
1 10 2 4.99 0.1
2 10 2 22.3 0.22
3 10 2 6.93 0.1
4 10 2 8.06 0.11
5 10 2 13.08 0.18
6 10 2 3.78 0.14
7 10 2 34.86 0.93
8 10 2 4.02 0.12
9 10 2 2.2 0.19
10 10 2 1.43 0.08
-9 11 2 1.94 0.27
-8 11 2 1.15 0.11
-7 11 2 1.07 0.14
-6 11 2 0.11 0.05
-5 11 2 14.6 0.24
-4 11 2 8.75 0.14
-3 11 2 3.4 0.1
-2 11 2 7.49 0.13
-1 11 2 1.31 0.11
0 11 2 75.22 0.85
1 11 2 1.26 0.06
2 11 2 7.7 0.1
3 11 2 3.53 0.08
4 11 2 8.82 0.24
5 11 2 14.74 0.21
6 11 2 0.03 0.07
7 11 2 1.07 0.14
8 11 2 1.13 0.11
9 11 2 1.85 0.11
-8 12 2 4.08 0.16
-7 12 2 0.33 0.07
-6 12 2 0.55 0.06
-5 12 2 1.1 0.07
-4 12 2 2.54 0.14
-3 12 2 0.3 0.06
-2 12 2 16.74 0.24
-1 12 2 1.52 0.07
0 12 2 1.78 0.1
1 12 2 1.52 0.07
2 12 2 16.32 0.22
3 12 2 0.43 0.05
4 12 2 2.62 0.25
5 12 2 1.06 0.06
6 12 2 0.46 0.08
7 12 2 0.39 0.09
8 12 2 3.94 0.22
-6 13 2 0.82 0.07
-5 13 2 0.91 0.06
-4 13 2 0.25 0.06
-3 13 2 1.77 0.09
-2 13 2 2.1 0.08
-1 13 2 2.59 0.1
0 13 2 4.89 0.14
1 13 2 2.7 0.09
2 13 2 2.08 0.11
3 13 2 1.85 0.11
4 13 2 0.14 0.06
5 13 2 1.01 0.07
6 13 2 0.89 0.09
-4 14 2 3.65 0.1
-3 14 2 0.58 0.09
-2 14 2 1.11 0.06
-1 14 2 0.89 0.06
0 14 2 -0.06 0.06
1 14 2 0.92 0.09
2 14 2 1.06 0.1
3 14 2 0.65 0.06
4 14 2 3.99 0.21
2 0 3 58.06 1.54
3 0 3 214.06 3.97
4 0 3 7.83 0.7
5 0 3 45.22 1
6 0 3 2.32 0.22
7 0 3 -0.08 0.08
8 0 3 12.72 0.26
9 0 3 39.19 0.67
10 0 3 29.84 0.94
11 0 3 4.43 0.21
-11 1 3 10.53 0.49
-10 1 3 11.17 0.24
-9 1 3 1.09 0.08
-8 1 3 22.01 0.36
-7 1 3 64.09 1.07
-6 1 3 10.53 0.27
-5 1 3 162.54 2.45
-4 1 3 20.85 0.35
-3 1 3 90.8 1.67
-2 1 3 193.02 3.71
2 1 3 197.66 2.83
3 1 3 91.47 1.53
4 1 3 20.9 0.43
5 1 3 164.25 3.07
6 1 3 10.85 0.28
7 1 3 64.99 1.95
8 1 3 22.79 0.57
9 1 3 1.15 0.11
10 1 3 10.56 0.45
-10 2 3 3.64 0.14
-9 2 3 2.73 0.12
-8 2 3 19.72 0.33
-7 2 3 12.51 0.27
-6 2 3 1.97 0.12
-5 2 3 26.2 0.56
-4 2 3 127.16 2.3
-3 2 3 429.92 6.54
-2 2 3 108.61 1.84
-1 2 3 533.34 7.47
0 2 3 792.67 28.22
1 2 3 526.25 8.27
2 2 3 108 1.83
3 2 3 431.27 5.91
4 2 3 126.2 1.76
5 2 3 26.09 0.55
6 2 3 1.99 0.26
7 2 3 12.06 0.32
8 2 3 20.13 0.4
9 2 3 2.71 0.14
10 2 3 3.79 0.2
-10 3 3 44.97 0.73
-9 3 3 8.93 0.19
-8 3 3 29.22 0.6
-7 3 3 24.18 0.35
-6 3 3 3.83 0.14
-5 3 3 56.44 1.41
-4 3 3 67.86 0.93
-3 3 3 156.48 2.21
-2 3 3 236.33 3.16
-1 3 3 406.69 4.83
0 3 3 56.77 0.62
1 3 3 415.2 4.77
2 3 3 240.65 2.54
3 3 3 154.44 2.01
4 3 3 67.66 0.96
5 3 3 55.81 0.99
6 3 3 4.15 0.17
7 3 3 23.46 0.6
8 3 3 29.9 0.52
9 3 3 8.46 0.24
10 3 3 45.18 1.04
-13 4 3 5.28 0.16
-10 4 3 2.72 0.15
-9 4 3 13.97 0.31
-8 4 3 7.11 0.14
-7 4 3 7.45 0.22
-6 4 3 21.28 0.4
-5 4 3 128.53 2
-4 4 3 77.34 1.15
-3 4 3 383.61 5.06
-2 4 3 70.44 0.86
-1 4 3 130.01 2.08
0 4 3 0.77 0.03
1 4 3 127.56 1.33
2 4 3 70.72 1.85
3 4 3 386.59 4.69
4 4 3 79.35 1.05
5 4 3 126.88 1.97
6 4 3 20.7 0.47
7 4 3 6.96 0.15
8 4 3 6.98 0.18
9 4 3 14.7 0.25
10 4 3 2.42 0.16
11 4 3 5.37 0.15
-13 5 3 1.08 0.07
-12 5 3 1.69 0.1
-10 5 3 24.39 0.94
-9 5 3 3.66 0.13
-8 5 3 0.74 0.06
-7 5 3 3.63 0.15
-6 5 3 36.92 0.57
-5 5 3 11.14 0.22
-4 5 3 23.66 0.51
-3 5 3 7.15 0.15
-2 5 3 199.53 2.37
-1 5 3 308.77 3.63
0 5 3 189.15 2.38
1 5 3 308.04 3.03
2 5 3 201.02 2.58
3 5 3 7.26 0.13
4 5 3 23.63 0.36
5 5 3 10.72 0.27
6 5 3 36.66 0.47
7 5 3 3.64 0.11
8 5 3 0.77 0.05
9 5 3 3.33 0.12
10 5 3 24.46 0.51
11 5 3 7.94 0.2
-12 6 3 0.43 0.06
-11 6 3 2.46 0.11
-10 6 3 1.32 0.22
-9 6 3 5.69 0.15
-8 6 3 26.79 0.37
-7 6 3 6.72 0.13
-6 6 3 37.08 0.38
-5 6 3 67.78 0.91
-4 6 3 37.54 0.64
-3 6 3 134.96 2.1
-2 6 3 2.75 0.15
-1 6 3 52.51 0.74
0 6 3 19.51 0.27
1 6 3 54.91 0.67
2 6 3 2.42 0.13
3 6 3 140.24 1.7
4 6 3 38.22 0.85
5 6 3 68.11 0.88
6 6 3 36.56 0.4
7 6 3 6.62 0.11
8 6 3 27.3 0.37
9 6 3 5.77 0.12
10 6 3 1.16 0.07
11 6 3 2.46 0.1
12 6 3 0.47 0.06
-12 7 3 1.01 0.07
-11 7 3 16.09 0.36
-10 7 3 26.4 0.55
-9 7 3 2.61 0.1
-8 7 3 9.25 0.17
-7 7 3 4.92 0.1
-6 7 3 32.72 0.34
-5 7 3 4.96 0.09
-4 7 3 17.34 0.25
-3 7 3 9.55 0.16
-2 7 3 16.04 0.48
-1 7 3 24.05 0.38
0 7 3 9.24 0.2
1 7 3 24.03 0.38
2 7 3 16.05 0.28
3 7 3 9.4 0.14
4 7 3 17.33 0.23
5 7 3 4.68 0.08
6 7 3 32.73 0.4
7 7 3 4.67 0.09
8 7 3 9.11 0.16
9 7 3 2.77 0.1
10 7 3 26.32 0.55
11 7 3 16.11 0.35
12 7 3 1.14 0.08
-12 8 3 3.52 0.11
-11 8 3 0.43 0.05
-10 8 3 3.28 0.12
-9 8 3 7.45 0.17
-8 8 3 15.64 0.25
-7 8 3 5.03 0.09
-6 8 3 5.99 0.09
-5 8 3 8.75 0.11
-4 8 3 23.43 0.24
-3 8 3 21.88 0.22
-2 8 3 10.56 0.14
-1 8 3 0.48 0.05
0 8 3 0.85 0.04
1 8 3 0.42 0.04
2 8 3 10.39 0.17
3 8 3 21.91 0.23
4 8 3 23.41 0.24
5 8 3 8.23 0.15
6 8 3 5.88 0.11
7 8 3 4.94 0.12
8 8 3 15.45 0.29
9 8 3 7.36 0.17
10 8 3 3.08 0.12
11 8 3 0.28 0.07
-11 9 3 1.45 0.08
-10 9 3 4.6 0.18
-9 9 3 0.65 0.06
-8 9 3 6.3 0.13
-7 9 3 2.16 0.08
-6 9 3 13.69 0.16
-5 9 3 21.25 0.23
-4 9 3 7.61 0.1
-3 9 3 0.92 0.07
-2 9 3 0.87 0.05
-1 9 3 6.34 0.11
0 9 3 0.28 0.04
1 9 3 6.4 0.17
2 9 3 0.86 0.05
3 9 3 0.88 0.06
4 9 3 7.63 0.12
5 9 3 20.95 0.31
6 9 3 13.88 0.2
7 9 3 2.06 0.09
8 9 3 6.37 0.15
9 9 3 0.57 0.06
10 9 3 4.75 0.14
11 9 3 1.42 0.08
-10 10 3 3.73 0.27
-9 10 3 6.33 0.17
-8 10 3 4.48 0.12
-7 10 3 0.9 0.05
-6 10 3 0 0.05
-5 10 3 1.96 0.09
-4 10 3 6.57 0.13
-3 10 3 1.56 0.08
-2 10 3 7.38 0.21
-1 10 3 8.06 0.18
0 10 3 0.05 0.06
1 10 3 8.13 0.11
2 10 3 7.48 0.1
3 10 3 1.56 0.05
4 10 3 6.38 0.1
5 10 3 1.82 0.08
6 10 3 -0.05 0.2
7 10 3 0.68 0.21
8 10 3 4.39 0.13
9 10 3 6.67 0.28
10 10 3 3.7 0.13
-9 11 3 0.41 0.06
-8 11 3 0.62 0.06
-7 11 3 2.24 0.07
-6 11 3 9.41 0.16
-5 11 3 7.52 0.12
-4 11 3 14.34 0.21
-3 11 3 0.01 0.06
-2 11 3 6.29 0.12
-1 11 3 2.68 0.13
0 11 3 10.04 0.28
1 11 3 2.7 0.08
2 11 3 6.45 0.1
3 11 3 0.06 0.04
4 11 3 14.05 0.21
5 11 3 7.78 0.16
6 11 3 9.44 0.24
7 11 3 2.01 0.22
8 11 3 0.49 0.07
9 11 3 0.3 0.05
-7 12 3 1.76 0.1
-6 12 3 0.46 0.07
-5 12 3 1.29 0.08
-4 12 3 5.86 0.16
-3 12 3 5.79 0.13
-2 12 3 0.72 0.08
-1 12 3 7.58 0.15
0 12 3 7.59 0.15
1 12 3 7.74 0.14
2 12 3 0.7 0.06
3 12 3 5.95 0.11
4 12 3 5.88 0.11
5 12 3 1.3 0.16
6 12 3 0.44 0.07
7 12 3 1.66 0.07
8 12 3 2.82 0.13
-6 13 3 2.67 0.19
-5 13 3 0.18 0.06
-4 13 3 5.53 0.12
-3 13 3 4.97 0.11
-2 13 3 1.91 0.07
-1 13 3 1.83 0.1
0 13 3 2.5 0.21
1 13 3 1.83 0.09
2 13 3 1.93 0.08
3 13 3 5.15 0.12
4 13 3 5.63 0.1
5 13 3 0.2 0.07
6 13 3 2.65 0.1
-4 14 3 2.55 0.11
-3 14 3 2.26 0.08
-2 14 3 3.45 0.09
-1 14 3 -0.06 0.06
0 14 3 0.1 0.06
1 14 3 -0.06 0.09
2 14 3 3.38 0.17
3 14 3 2.26 0.08
4 14 3 2.84 0.19
1 0 4 97.56 1.9
2 0 4 184.9 6.56
3 0 4 715.54 13.26
4 0 4 216.37 4.02
5 0 4 356.04 6.6
6 0 4 14.51 0.56
7 0 4 11.07 0.3
8 0 4 1.45 0.08
9 0 4 12.39 0.26
10 0 4 16.15 0.43
-10 1 4 13.06 0.24
-9 1 4 2.49 0.12
-8 1 4 24.8 0.44
-7 1 4 108.93 2.24
-6 1 4 14.25 0.34
-5 1 4 91.32 1.7
-4 1 4 103.29 1.56
-3 1 4 94.18 1.73
-2 1 4 1085.9 20.9
-1 1 4 167.47 2.99
1 1 4 164.85 2.6
2 1 4 1126.03 25.6
3 1 4 94.11 1.58
4 1 4 103.8 2.42
5 1 4 91.61 1.74
6 1 4 14.31 0.41
7 1 4 111.48 5.96
8 1 4 24.5 0.45
9 1 4 2.39 0.14
10 1 4 12.84 0.5
-11 2 4 1.42 0.11
-10 2 4 2.37 0.12
-9 2 4 28.92 0.53
-8 2 4 12.65 0.21
-7 2 4 100.12 2.07
-6 2 4 17.62 0.33
-5 2 4 131.41 2.38
-4 2 4 9.84 0.24
-3 2 4 58.82 0.93
-2 2 4 88.07 1.67
-1 2 4 167.92 2.51
0 2 4 45.44 0.58
1 2 4 161.5 1.83
2 2 4 86.7 1.43
3 2 4 59.15 1.01
4 2 4 9.88 0.36
5 2 4 128.81 2.45
6 2 4 17.24 0.4
7 2 4 98.83 2.25
8 2 4 12.17 0.31
9 2 4 28.39 0.69
10 2 4 2.48 0.17
-10 3 4 8.11 0.21
-9 3 4 61.8 0.94
-8 3 4 27.62 0.45
-7 3 4 7.78 0.15
-6 3 4 7.34 0.2
-5 3 4 53.91 0.88
-4 3 4 21.01 0.42
-3 3 4 12.28 0.22
-2 3 4 60.39 0.83
-1 3 4 79.89 0.88
0 3 4 435.61 8.2
1 3 4 79.59 1.2
2 3 4 60.36 0.66
3 3 4 12.04 0.17
4 3 4 20.88 0.4
5 3 4 53.03 0.95
6 3 4 7.73 0.23
7 3 4 7.91 0.16
8 3 4 27.29 0.41
9 3 4 63.09 0.89
10 3 4 7.67 0.28
-13 4 4 4.53 0.14
-10 4 4 16.35 0.28
-9 4 4 29.46 0.56
-8 4 4 17.66 0.31
-7 4 4 41.58 0.57
-6 4 4 7.38 0.2
-5 4 4 25.44 0.47
-4 4 4 29.66 0.55
-3 4 4 88.74 1.21
-2 4 4 171.6 2.01
-1 4 4 13.9 0.2
0 4 4 31.83 0.33
1 4 4 13.82 0.29
2 4 4 166.96 3.31
3 4 4 88.66 1.04
4 4 4 29.92 0.5
5 4 4 24.98 0.49
6 4 4 7.36 0.23
7 4 4 41.47 0.54
8 4 4 18.08 0.24
9 4 4 30.15 0.45
10 4 4 16.45 0.31
11 4 4 17.83 0.71
-13 5 4 -0.04 0.04
-12 5 4 1.23 0.09
-10 5 4 13.17 0.54
-9 5 4 2.94 0.12
-8 5 4 10.01 0.19
-7 5 4 64.04 0.88
-6 5 4 36.89 0.39
-5 5 4 49.58 0.76
-4 5 4 13.89 0.26
-3 5 4 1 0.11
-2 5 4 66.03 0.82
-1 5 4 4.38 0.1
0 5 4 43.71 0.53
1 5 4 4.16 0.09
2 5 4 66.46 1.3
3 5 4 0.88 0.05
4 5 4 13.55 0.25
5 5 4 48.63 0.98
6 5 4 36.45 0.44
7 5 4 64.85 0.83
8 5 4 10.23 0.16
9 5 4 2.97 0.08
10 5 4 13.48 0.3
11 5 4 5.06 0.15
-12 6 4 6.13 0.18
-11 6 4 7.51 0.22
-10 6 4 3.06 0.33
-9 6 4 3.95 0.14
-8 6 4 5.47 0.13
-7 6 4 4.31 0.09
-6 6 4 14.21 0.17
-5 6 4 9.75 0.13
-4 6 4 1.73 0.11
-3 6 4 35.45 0.61
-2 6 4 1.31 0.08
-1 6 4 57.17 0.72
0 6 4 6.34 0.12
1 6 4 57.66 0.72
2 6 4 1.43 0.06
3 6 4 36.53 0.48
4 6 4 1.79 0.09
5 6 4 9.41 0.13
6 6 4 14.39 0.18
7 6 4 4.2 0.08
8 6 4 5.48 0.11
9 6 4 3.94 0.12
10 6 4 2.97 0.28
11 6 4 7.77 0.26
12 6 4 6.42 0.18
-12 7 4 4.3 0.14
-11 7 4 0.46 0.06
-10 7 4 1.98 0.14
-9 7 4 9.12 0.27
-8 7 4 3.02 0.1
-7 7 4 2.54 0.07
-6 7 4 29.86 0.31
-5 7 4 17.56 0.21
-4 7 4 28.95 0.31
-3 7 4 18 0.22
-2 7 4 7.16 0.18
-1 7 4 44.46 0.64
0 7 4 6.05 0.19
1 7 4 44.34 0.64
2 7 4 7.34 0.2
3 7 4 17.46 0.22
4 7 4 28.84 0.36
5 7 4 17.56 0.21
6 7 4 29.73 0.37
7 7 4 2.53 0.07
8 7 4 2.91 0.18
9 7 4 9.44 0.19
10 7 4 2.02 0.1
11 7 4 0.46 0.06
12 7 4 4.5 0.14
-12 8 4 0.8 0.07
-11 8 4 0.75 0.06
-10 8 4 2.41 0.15
-9 8 4 7.43 0.16
-8 8 4 4.56 0.11
-7 8 4 25.1 0.27
-6 8 4 16.46 0.18
-5 8 4 7.08 0.1
-4 8 4 15.83 0.2
-3 8 4 24.02 0.24
-2 8 4 77.24 0.76
-1 8 4 20.3 0.41
0 8 4 0.94 0.03
1 8 4 19.75 0.22
2 8 4 76.81 0.69
3 8 4 23.94 0.25
4 8 4 15.77 0.19
5 8 4 6.91 0.14
6 8 4 16.43 0.22
7 8 4 25 0.36
8 8 4 4.36 0.15
9 8 4 7.22 0.2
10 8 4 2.43 0.1
11 8 4 0.85 0.08
-11 9 4 0.83 0.06
-10 9 4 0.63 0.06
-9 9 4 2.18 0.1
-8 9 4 7.52 0.15
-7 9 4 9.13 0.14
-6 9 4 3.41 0.13
-5 9 4 6.29 0.1
-4 9 4 19.64 0.21
-3 9 4 4.78 0.09
-2 9 4 46.07 0.59
-1 9 4 3.1 0.11
0 9 4 90.03 0.88
1 9 4 2.97 0.06
2 9 4 46.32 0.5
3 9 4 4.71 0.08
4 9 4 19.44 0.21
5 9 4 6.08 0.13
6 9 4 3.43 0.11
7 9 4 8.99 0.24
8 9 4 7.42 0.17
9 9 4 2.21 0.09
10 9 4 0.6 0.07
11 9 4 0.92 0.06
-10 10 4 4.81 0.27
-9 10 4 0.21 0.06
-8 10 4 5.22 0.12
-7 10 4 3.3 0.08
-6 10 4 0.81 0.05
-5 10 4 7.53 0.16
-4 10 4 6.29 0.13
-3 10 4 6.31 0.11
-2 10 4 6.68 0.15
-1 10 4 5.66 0.11
0 10 4 53.25 0.49
1 10 4 5.77 0.08
2 10 4 6.93 0.09
3 10 4 6.35 0.1
4 10 4 6.32 0.1
5 10 4 7.54 0.16
6 10 4 0.8 0.09
7 10 4 3.24 0.19
8 10 4 5.27 0.15
9 10 4 0.12 0.06
10 10 4 4.63 0.26
-9 11 4 0.48 0.06
-8 11 4 2.41 0.17
-7 11 4 8.91 0.15
-6 11 4 2.42 0.08
-5 11 4 0.48 0.06
-4 11 4 2.4 0.09
-3 11 4 10.73 0.18
-2 11 4 4.62 0.11
-1 11 4 3.35 0.09
0 11 4 0.13 0.09
1 11 4 3.42 0.07
2 11 4 4.67 0.1
3 11 4 11.15 0.14
4 11 4 2.29 0.08
5 11 4 0.26 0.08
6 11 4 2.22 0.31
7 11 4 8.84 0.19
8 11 4 2.47 0.12
9 11 4 0.46 0.06
-7 12 4 2.15 0.14
-6 12 4 2 0.1
-5 12 4 14.93 0.38
-4 12 4 2.77 0.17
-3 12 4 0.59 0.07
-2 12 4 3.63 0.1
-1 12 4 2.42 0.24
0 12 4 0.4 0.07
1 12 4 2.4 0.11
2 12 4 3.52 0.09
3 12 4 0.37 0.05
4 12 4 2.77 0.13
5 12 4 14.86 0.28
6 12 4 1.88 0.09
7 12 4 1.97 0.08
8 12 4 1.86 0.12
-6 13 4 0.28 0.08
-5 13 4 0.24 0.07
-4 13 4 3.02 0.16
-3 13 4 1.63 0.14
-2 13 4 1.43 0.07
-1 13 4 0.66 0.11
0 13 4 6.58 0.2
1 13 4 0.65 0.09
2 13 4 1.25 0.13
3 13 4 1.47 0.07
4 13 4 2.98 0.08
5 13 4 0.47 0.07
6 13 4 0.23 0.09
-4 14 4 0.13 0.09
-3 14 4 1.1 0.06
-2 14 4 1.75 0.08
-1 14 4 0.86 0.06
0 14 4 0.15 0.06
1 14 4 0.75 0.08
2 14 4 1.66 0.09
3 14 4 1.08 0.07
4 14 4 0.25 0.13
1 0 5 0.03 0.05
2 0 5 581.26 13.67
3 0 5 75.52 1.42
4 0 5 0.79 0.05
5 0 5 164.45 3.07
6 0 5 67.34 1.29
7 0 5 20.8 0.48
8 0 5 -0.01 0.05
9 0 5 1.11 0.08
10 0 5 18.19 0.32
-10 1 5 18.2 0.37
-9 1 5 18.51 0.36
-8 1 5 70.81 0.97
-7 1 5 23.99 0.53
-6 1 5 9.64 0.26
-5 1 5 7.35 0.21
-4 1 5 76.1 1.4
-3 1 5 23.39 0.4
-2 1 5 17.6 0.31
-1 1 5 464.13 6
0 1 5 338.1 7.04
1 1 5 450.86 6.34
2 1 5 17.91 0.38
3 1 5 23.37 0.46
4 1 5 74.46 1.43
5 1 5 7.44 0.2
6 1 5 9.85 0.25
7 1 5 24.21 0.52
8 1 5 70.17 1.11
9 1 5 17.63 0.62
10 1 5 19.35 0.64
-11 2 5 0.81 0.1
-10 2 5 28.18 0.52
-9 2 5 6.31 0.18
-8 2 5 40.02 0.49
-7 2 5 51.48 0.69
-6 2 5 74.4 1.19
-5 2 5 48.77 0.8
-4 2 5 51.97 0.82
-3 2 5 240.3 3.61
-2 2 5 7.1 0.32
-1 2 5 427.32 5.3
0 2 5 101.43 2.45
1 2 5 420.88 9.86
2 2 5 6.82 0.13
3 2 5 232.22 3.4
4 2 5 51.11 1.12
5 2 5 49.29 0.96
6 2 5 73.52 1.43
7 2 5 51.2 0.67
8 2 5 39.42 0.54
9 2 5 6.5 0.24
10 2 5 28.44 0.9
-11 3 5 7.11 0.26
-10 3 5 3.74 0.15
-9 3 5 0.06 0.06
-8 3 5 23.33 0.35
-7 3 5 23.55 0.35
-6 3 5 17.14 0.35
-5 3 5 53.52 0.9
-4 3 5 230.61 3.56
-3 3 5 182.32 2.43
-2 3 5 280.57 3.89
-1 3 5 23.56 0.5
0 3 5 181.2 2.26
1 3 5 22.83 0.51
2 3 5 272.52 3.07
3 3 5 183.47 2.04
4 3 5 230.28 3.84
5 3 5 55.28 0.97
6 3 5 17.62 0.4
7 3 5 23.97 0.31
8 3 5 23.67 0.27
9 3 5 -0.06 0.1
10 3 5 3.87 0.21
-11 4 5 5.45 0.23
-10 4 5 29.33 0.52
-9 4 5 7.81 0.18
-8 4 5 3.45 0.11
-7 4 5 11.85 0.18
-6 4 5 96.37 1.53
-5 4 5 61.85 0.94
-4 4 5 64.1 1.33
-3 4 5 85.11 1.62
-2 4 5 122.33 1.51
-1 4 5 48.4 0.55
0 4 5 13.08 0.17
1 4 5 48.8 0.56
2 4 5 121.86 1.37
3 4 5 83.38 1.09
4 4 5 64.55 1.13
5 4 5 61.98 1.1
6 4 5 95.08 1.77
7 4 5 11.84 0.15
8 4 5 3.18 0.08
9 4 5 8.05 0.16
10 4 5 30.85 0.52
11 4 5 5.08 0.34
-13 5 5 3.31 0.11
-10 5 5 14.13 0.36
-9 5 5 8.4 0.21
-8 5 5 76.45 1.23
-7 5 5 5.66 0.11
-6 5 5 55 0.78
-5 5 5 43.26 0.67
-4 5 5 5.11 0.14
-3 5 5 51.22 0.72
-2 5 5 35.17 0.46
-1 5 5 31.43 0.47
0 5 5 58.6 0.66
1 5 5 31.25 0.44
2 5 5 35.33 0.46
3 5 5 50.58 0.65
4 5 5 4.91 0.13
5 5 5 42.15 0.79
6 5 5 55.58 0.53
7 5 5 5.53 0.09
8 5 5 79.3 0.94
9 5 5 8.48 0.15
10 5 5 14.75 0.32
11 5 5 0.27 0.08
-12 6 5 1.62 0.09
-10 6 5 22.22 0.98
-9 6 5 0.81 0.08
-8 6 5 1.91 0.07
-7 6 5 11.32 0.16
-6 6 5 45.13 0.5
-5 6 5 3.13 0.07
-4 6 5 25.91 0.69
-3 6 5 5.23 0.14
-2 6 5 31.01 0.42
-1 6 5 80.13 0.99
0 6 5 50.63 0.72
1 6 5 80.27 1.03
2 6 5 30.38 0.39
3 6 5 5.27 0.13
4 6 5 26.19 0.43
5 6 5 2.94 0.07
6 6 5 44.78 0.48
7 6 5 11.34 0.15
8 6 5 1.93 0.07
9 6 5 0.77 0.07
10 6 5 22.28 0.47
11 6 5 10.74 0.25
-12 7 5 0.55 0.06
-11 7 5 0.45 0.06
-10 7 5 0.1 0.05
-9 7 5 4.89 0.2
-8 7 5 3.73 0.09
-7 7 5 2.97 0.08
-6 7 5 4.27 0.08
-5 7 5 17.72 0.23
-4 7 5 30.18 0.34
-3 7 5 67.12 0.71
-2 7 5 30.54 0.47
-1 7 5 41.56 0.75
0 7 5 34.38 0.65
1 7 5 42.39 0.87
2 7 5 30.13 0.49
3 7 5 66.62 0.84
4 7 5 30.59 0.33
5 7 5 17.76 0.21
6 7 5 4.05 0.08
7 7 5 2.81 0.07
8 7 5 3.78 0.09
9 7 5 4.71 0.13
10 7 5 0.03 0.05
11 7 5 0.55 0.06
12 7 5 0.64 0.06
-11 8 5 5.54 0.17
-10 8 5 7.29 0.26
-9 8 5 0.42 0.06
-8 8 5 6.2 0.11
-7 8 5 1.58 0.09
-6 8 5 9.09 0.12
-5 8 5 20.19 0.22
-4 8 5 4.56 0.09
-3 8 5 9.14 0.13
-2 8 5 1.22 0.04
-1 8 5 37.4 0.43
0 8 5 4.13 0.07
1 8 5 37.59 0.37
2 8 5 1.14 0.07
3 8 5 9.07 0.12
4 8 5 4.4 0.16
5 8 5 20.31 0.3
6 8 5 9.09 0.14
7 8 5 1.65 0.07
8 8 5 6.13 0.15
9 8 5 0.4 0.07
10 8 5 7.14 0.19
11 8 5 5.97 0.12
-11 9 5 1.21 0.07
-10 9 5 0.75 0.07
-9 9 5 9.79 0.26
-8 9 5 3.08 0.08
-7 9 5 6.02 0.13
-6 9 5 4.65 0.08
-5 9 5 0.89 0.04
-4 9 5 6.95 0.1
-3 9 5 11.07 0.16
-2 9 5 17.09 0.25
-1 9 5 3.35 0.1
0 9 5 0.81 0.04
1 9 5 3.4 0.06
2 9 5 17.51 0.19
3 9 5 11.09 0.14
4 9 5 6.86 0.12
5 9 5 0.82 0.09
6 9 5 4.53 0.15
7 9 5 6.02 0.26
8 9 5 2.98 0.12
9 9 5 9.83 0.2
10 9 5 0.77 0.07
11 9 5 1.07 0.07
-10 10 5 0.81 0.1
-9 10 5 2.02 0.09
-8 10 5 2.72 0.09
-7 10 5 1.7 0.11
-6 10 5 1.07 0.05
-5 10 5 21.75 0.28
-4 10 5 15.39 0.22
-3 10 5 2.08 0.09
-2 10 5 2.67 0.09
-1 10 5 3.55 0.22
0 10 5 8.34 0.13
1 10 5 3.51 0.08
2 10 5 2.89 0.07
3 10 5 2.14 0.09
4 10 5 15.87 0.19
5 10 5 22.02 0.37
6 10 5 1.09 0.07
7 10 5 1.52 0.09
8 10 5 2.77 0.11
9 10 5 2 0.09
10 10 5 0.69 0.06
-9 11 5 3.42 0.12
-8 11 5 2.09 0.08
-7 11 5 3.23 0.16
-6 11 5 4.62 0.11
-5 11 5 1.64 0.1
-4 11 5 0.89 0.12
-3 11 5 6.74 0.14
-2 11 5 0.19 0.09
-1 11 5 10.32 0.17
0 11 5 0.17 0.04
1 11 5 10.72 0.13
2 11 5 0.35 0.04
3 11 5 7.02 0.12
4 11 5 0.9 0.06
5 11 5 1.62 0.18
6 11 5 4.56 0.16
7 11 5 3.18 0.3
8 11 5 1.97 0.14
9 11 5 3.48 0.1
-7 12 5 3.21 0.21
-6 12 5 2.19 0.1
-5 12 5 0.14 0.08
-4 12 5 4.39 0.11
-3 12 5 2.12 0.08
-2 12 5 2.05 0.14
-1 12 5 12.2 0.18
0 12 5 9.37 0.15
1 12 5 12.46 0.19
2 12 5 2.14 0.07
3 12 5 2.09 0.07
4 12 5 4.19 0.11
5 12 5 0.27 0.14
6 12 5 2.07 0.09
7 12 5 3.05 0.09
8 12 5 2.3 0.15
-6 13 5 0.81 0.08
-5 13 5 0.4 0.09
-4 13 5 4.63 0.11
-3 13 5 3.39 0.09
-2 13 5 3.94 0.09
-1 13 5 2.07 0.11
0 13 5 5.35 0.25
1 13 5 2.03 0.09
2 13 5 3.88 0.15
3 13 5 3.61 0.13
4 13 5 4.6 0.13
5 13 5 0.38 0.08
6 13 5 0.84 0.08
-3 14 5 4.25 0.1
-2 14 5 1.67 0.08
-1 14 5 1.23 0.06
0 14 5 0.19 0.06
1 14 5 1.24 0.07
2 14 5 1.55 0.1
3 14 5 4.37 0.18
0 0 6 102.94 2.99
1 0 6 502.04 9.15
2 0 6 92 1.81
3 0 6 261.15 4.07
4 0 6 59.7 1.13
5 0 6 0.93 0.1
6 0 6 10.29 0.28
7 0 6 31.78 0.67
8 0 6 7.36 0.18
9 0 6 1.01 0.07
10 0 6 21.05 0.36
-10 1 6 23.76 0.46
-9 1 6 5.73 0.15
-8 1 6 10.8 0.19
-7 1 6 47.04 0.8
-6 1 6 17.62 0.34
-5 1 6 192.9 2.99
-4 1 6 117.41 1.83
-3 1 6 126.03 1.97
-2 1 6 214.84 2.6
-1 1 6 20.58 0.33
0 1 6 61.71 1.38
1 1 6 21.15 0.55
2 1 6 217.52 4.81
3 1 6 127.17 2.71
4 1 6 118.28 2.21
5 1 6 196.46 3.62
6 1 6 18.2 0.84
7 1 6 47.5 0.92
8 1 6 10.86 0.24
9 1 6 5.92 0.21
10 1 6 24.51 0.59
-11 2 6 7.72 0.27
-10 2 6 9.67 0.24
-9 2 6 32.96 0.59
-8 2 6 34.99 0.49
-7 2 6 21.62 0.33
-6 2 6 0.22 0.06
-5 2 6 10.68 0.23
-4 2 6 97.17 1.51
-3 2 6 80.59 1.26
-2 2 6 274.48 5.74
-1 2 6 19.47 0.26
0 2 6 2139.92 77.84
1 2 6 19.32 0.43
2 2 6 273.34 3.41
3 2 6 80.65 1.36
4 2 6 96.12 1.64
5 2 6 10.76 0.28
6 2 6 0.21 0.07
7 2 6 21.6 0.3
8 2 6 34.87 0.54
9 2 6 32.37 1
10 2 6 9.69 0.41
-11 3 6 5.79 0.23
-10 3 6 12.15 0.33
-9 3 6 5.34 0.15
-8 3 6 16.76 0.27
-7 3 6 8.03 0.16
-6 3 6 15.48 0.42
-5 3 6 33.8 0.6
-4 3 6 66.87 1.32
-3 3 6 2.88 0.08
-2 3 6 575.65 9.02
-1 3 6 57.63 0.61
0 3 6 50.38 1.24
1 3 6 57.06 0.67
2 3 6 563.85 7.05
3 3 6 2.99 0.12
4 3 6 66.39 1.43
5 3 6 34.53 0.63
6 3 6 14.68 0.35
7 3 6 8.06 0.11
8 3 6 17.32 0.23
9 3 6 5.41 0.38
10 3 6 11.91 0.35
-11 4 6 0.39 0.1
-10 4 6 14.87 0.41
-9 4 6 19.37 0.33
-8 4 6 6.72 0.12
-7 4 6 12.14 0.21
-6 4 6 30.48 0.49
-5 4 6 10.79 0.23
-4 4 6 45.07 0.7
-3 4 6 4.24 0.12
-2 4 6 23.62 0.32
-1 4 6 33.12 0.39
0 4 6 98.52 1.07
1 4 6 33.01 0.54
2 4 6 23.75 0.3
3 4 6 4.15 0.09
4 4 6 44.13 1.15
5 4 6 10.84 0.26
6 4 6 31.4 0.4
7 4 6 12.53 0.16
8 4 6 7.03 0.11
9 4 6 19.98 0.31
10 4 6 15.43 0.42
11 4 6 0.23 0.16
-13 5 6 5.05 0.15
-11 5 6 17.18 0.51
-10 5 6 3.53 0.3
-9 5 6 14.68 0.3
-8 5 6 0.07 0.07
-7 5 6 9.73 0.15
-6 5 6 8.52 0.12
-5 5 6 15.83 0.3
-4 5 6 20.16 0.35
-3 5 6 30.39 0.49
-2 5 6 4.71 0.12
-1 5 6 55.71 0.63
0 5 6 0.3 0.08
1 5 6 56.35 0.82
2 5 6 4.84 0.1
3 5 6 30.35 0.4
4 5 6 19.93 0.41
5 5 6 15.75 0.37
6 5 6 8.47 0.15
7 5 6 10.08 0.12
8 5 6 -0.02 0.05
9 5 6 14.95 0.22
10 5 6 3.49 0.27
11 5 6 17.97 0.69
13 5 6 5.3 0.17
-12 6 6 4.25 0.14
-10 6 6 2.51 0.14
-9 6 6 6.59 0.17
-8 6 6 5.3 0.12
-7 6 6 55.81 0.62
-6 6 6 43.99 0.49
-5 6 6 26.34 0.3
-4 6 6 42.54 0.42
-3 6 6 14.01 0.26
-2 6 6 7.73 0.18
-1 6 6 8.34 0.16
0 6 6 58.1 0.88
1 6 6 8.54 0.16
2 6 6 7.8 0.14
3 6 6 14.77 0.23
4 6 6 42.2 0.6
5 6 6 26.33 0.29
6 6 6 43.67 0.47
7 6 6 55.25 0.7
8 6 6 5.33 0.11
9 6 6 6.59 0.13
10 6 6 2.3 0.22
11 6 6 8.75 0.21
-12 7 6 0.64 0.06
-11 7 6 2.77 0.11
-10 7 6 3.94 0.17
-9 7 6 4.55 0.2
-8 7 6 1.88 0.08
-7 7 6 1.42 0.06
-6 7 6 8.61 0.14
-5 7 6 12.86 0.17
-4 7 6 26.81 0.28
-3 7 6 22.86 0.27
-2 7 6 127.15 1.3
-1 7 6 30.65 0.59
0 7 6 10.78 0.24
1 7 6 30.08 0.52
2 7 6 127.87 1.37
3 7 6 23.17 0.27
4 7 6 26.85 0.32
5 7 6 12.39 0.17
6 7 6 8.49 0.12
7 7 6 1.44 0.05
8 7 6 1.94 0.06
9 7 6 4.88 0.13
10 7 6 3.93 0.2
11 7 6 2.66 0.11
12 7 6 0.67 0.06
-11 8 6 2.39 0.1
-10 8 6 2.49 0.13
-9 8 6 15.58 0.28
-8 8 6 3.62 0.09
-7 8 6 0.8 0.05
-6 8 6 8.18 0.14
-5 8 6 22.4 0.26
-4 8 6 3.63 0.1
-3 8 6 20.55 0.3
-2 8 6 24.77 0.27
-1 8 6 1.52 0.04
0 8 6 66.11 0.59
1 8 6 1.57 0.04
2 8 6 24.73 0.26
3 8 6 20.16 0.22
4 8 6 3.58 0.13
5 8 6 21.78 0.3
6 8 6 7.75 0.13
7 8 6 0.79 0.05
8 8 6 3.54 0.11
9 8 6 15.79 0.34
10 8 6 2.54 0.08
11 8 6 2.54 0.07
-11 9 6 0.98 0.07
-10 9 6 4.3 0.13
-9 9 6 6.75 0.15
-8 9 6 7.14 0.13
-7 9 6 25.08 0.32
-6 9 6 3.72 0.08
-5 9 6 7.31 0.11
-4 9 6 13.84 0.18
-3 9 6 13.95 0.19
-2 9 6 5.44 0.18
-1 9 6 7.27 0.1
0 9 6 4.26 0.07
1 9 6 7.19 0.1
2 9 6 5.29 0.08
3 9 6 14.17 0.19
4 9 6 14.06 0.22
5 9 6 7.32 0.15
6 9 6 3.68 0.1
7 9 6 25.27 0.45
8 9 6 7.02 0.17
9 9 6 6.49 0.2
10 9 6 4.38 0.14
-10 10 6 0.67 0.06
-9 10 6 0.45 0.05
-8 10 6 2.25 0.07
-7 10 6 15.72 0.22
-6 10 6 0.95 0.05
-5 10 6 8.93 0.16
-4 10 6 1.85 0.1
-3 10 6 23.4 0.38
-2 10 6 1.28 0.07
-1 10 6 17.41 0.2
0 10 6 10.24 0.15
1 10 6 17.88 0.21
2 10 6 1.39 0.05
3 10 6 24.41 0.25
4 10 6 1.85 0.11
5 10 6 9.33 0.3
6 10 6 1.05 0.07
7 10 6 15.67 0.3
8 10 6 2.05 0.17
9 10 6 0.49 0.06
10 10 6 0.75 0.06
-8 11 6 2.57 0.09
-7 11 6 0.5 0.06
-6 11 6 1.21 0.08
-5 11 6 17.03 0.48
-4 11 6 5.27 0.12
-3 11 6 6.46 0.13
-2 11 6 0.66 0.1
-1 11 6 0.33 0.08
0 11 6 6.18 0.11
1 11 6 0.35 0.05
2 11 6 0.71 0.07
3 11 6 6.36 0.1
4 11 6 5.38 0.13
5 11 6 16.6 0.48
6 11 6 1.45 0.18
7 11 6 0.4 0.06
8 11 6 2.49 0.1
9 11 6 3 0.11
-7 12 6 1.18 0.12
-6 12 6 0.09 0.12
-5 12 6 0.82 0.15
-4 12 6 1.2 0.07
-3 12 6 0.5 0.1
-2 12 6 5.35 0.11
-1 12 6 0.08 0.06
0 12 6 5.78 0.12
1 12 6 0.07 0.05
2 12 6 5.47 0.16
3 12 6 0.46 0.05
4 12 6 0.97 0.08
5 12 6 0.73 0.13
6 12 6 0.03 0.09
7 12 6 1.08 0.07
-5 13 6 1.21 0.11
-4 13 6 0.47 0.09
-3 13 6 0.97 0.06
-2 13 6 1.28 0.07
-1 13 6 0.49 0.06
0 13 6 1.46 0.16
1 13 6 0.39 0.07
2 13 6 1.18 0.07
3 13 6 0.89 0.06
4 13 6 0.17 0.07
5 13 6 1.52 0.15
6 13 6 1.53 0.1
-3 14 6 1.01 0.08
-2 14 6 0.58 0.08
-1 14 6 1.94 0.1
0 14 6 -0.05 0.05
1 14 6 1.95 0.07
2 14 6 0.31 0.08
3 14 6 0.92 0.12
1 0 7 33.67 0.86
2 0 7 5.01 0.09
3 0 7 20.39 0.34
4 0 7 24.03 0.51
5 0 7 6.04 0.44
6 0 7 108.84 2.04
7 0 7 35.08 0.58
8 0 7 41.53 0.61
9 0 7 27.5 0.49
10 0 7 29.31 0.47
-11 1 7 3.3 0.18
-10 1 7 20.07 0.4
-9 1 7 9.46 0.2
-8 1 7 61.22 0.87
-7 1 7 7.22 0.16
-6 1 7 5.55 0.16
-5 1 7 62.9 1.02
-4 1 7 70.7 1.14
-3 1 7 4.7 0.35
-2 1 7 154.91 1.96
-1 1 7 333.56 4.16
0 1 7 19.22 0.24
1 1 7 334.82 5.6
2 1 7 154.25 2
3 1 7 4.27 0.15
4 1 7 73.41 1.36
5 1 7 64.42 1.22
6 1 7 5.65 0.25
7 1 7 7.42 0.17
8 1 7 61.75 0.77
9 1 7 9.53 0.22
10 1 7 19.99 0.42
-11 2 7 0.57 0.1
-10 2 7 14.44 0.31
-9 2 7 6.87 0.2
-8 2 7 29.3 0.46
-7 2 7 64.71 0.85
-6 2 7 55.53 0.92
-5 2 7 12.03 0.25
-4 2 7 86.21 1.37
-3 2 7 98.7 1.54
-2 2 7 120.48 1.47
-1 2 7 94.53 1.26
0 2 7 250.35 3.16
1 2 7 97.13 1.67
2 2 7 121.2 1.39
3 2 7 98.5 1.45
4 2 7 87.57 1.48
5 2 7 12.33 0.28
6 2 7 56.29 1.09
7 2 7 66.25 0.75
8 2 7 29.35 0.51
9 2 7 7.03 0.2
10 2 7 14.5 0.4
-11 3 7 9.18 0.31
-10 3 7 6.52 0.21
-9 3 7 4.18 0.16
-8 3 7 17.28 0.28
-7 3 7 22.29 0.34
-6 3 7 29.55 0.54
-5 3 7 91.6 1.83
-4 3 7 46.69 0.96
-3 3 7 225.2 3.19
-2 3 7 7.24 0.12
-1 3 7 147.84 1.67
0 3 7 219.29 2.28
1 3 7 146.2 1.78
2 3 7 6.84 0.11
3 3 7 225.83 2.82
4 3 7 47.83 0.84
5 3 7 94.02 1.6
6 3 7 29.53 0.62
7 3 7 22.96 0.39
8 3 7 17.01 0.25
9 3 7 4.11 0.13
10 3 7 6.47 0.42
-12 4 7 1.95 0.14
-11 4 7 2.66 0.18
-10 4 7 7.03 0.28
-9 4 7 3.33 0.12
-8 4 7 19.59 0.29
-7 4 7 16.24 0.26
-6 4 7 26.95 0.34
-5 4 7 26.35 0.45
-4 4 7 31 0.51
-3 4 7 43.55 0.67
-2 4 7 149.37 1.92
-1 4 7 221.87 3.44
0 4 7 72.76 0.84
1 4 7 216.62 2.74
2 4 7 150.36 1.93
3 4 7 43.64 0.68
4 4 7 31.23 0.58
5 4 7 26.08 0.51
6 4 7 27.96 0.32
7 4 7 16.36 0.2
8 4 7 19.63 0.29
9 4 7 3.18 0.13
10 4 7 7.56 0.4
13 4 7 4.48 0.15
-13 5 7 2.77 0.1
-11 5 7 0.74 0.11
-10 5 7 7.19 0.28
-9 5 7 4.07 0.11
-8 5 7 4.03 0.1
-7 5 7 5.42 0.11
-6 5 7 68.03 0.65
-5 5 7 20.42 0.27
-4 5 7 18.46 0.33
-3 5 7 45.91 0.71
-2 5 7 11.57 0.18
-1 5 7 116.37 1.35
0 5 7 8.91 0.16
1 5 7 118.57 1.58
2 5 7 11.54 0.36
3 5 7 45.9 0.87
4 5 7 18.49 0.38
5 5 7 21.13 0.27
6 5 7 68.6 0.71
7 5 7 5.68 0.09
8 5 7 4.04 0.09
9 5 7 3.96 0.12
10 5 7 7.31 0.19
11 5 7 0.84 0.17
13 5 7 2.77 0.11
-12 6 7 0.66 0.06
-11 6 7 1.99 0.16
-10 6 7 10.43 0.35
-9 6 7 2.19 0.09
-8 6 7 24.82 0.4
-7 6 7 0.36 0.04
-6 6 7 3.04 0.08
-5 6 7 5.56 0.08
-4 6 7 4.4 0.08
-3 6 7 40.67 0.78
-2 6 7 11.08 0.2
-1 6 7 40.63 0.82
0 6 7 53.88 0.83
1 6 7 40.49 0.55
2 6 7 11.17 0.28
3 6 7 39.95 0.91
4 6 7 4.33 0.1
5 6 7 5.56 0.08
6 6 7 2.83 0.11
7 6 7 0.37 0.05
8 6 7 25.74 0.33
9 6 7 2.13 0.09
10 6 7 10.45 0.27
11 6 7 2 0.2
12 6 7 0.62 0.06
-12 7 7 1.42 0.08
-11 7 7 10.79 0.3
-10 7 7 7.66 0.23
-9 7 7 0.92 0.07
-8 7 7 3.13 0.11
-7 7 7 11.34 0.18
-6 7 7 16.49 0.22
-5 7 7 26.3 0.3
-4 7 7 2.72 0.06
-3 7 7 7.71 0.11
-2 7 7 2.54 0.07
-1 7 7 14.23 0.16
0 7 7 3.96 0.16
1 7 7 13.66 0.18
2 7 7 2.46 0.13
3 7 7 7.44 0.12
4 7 7 2.55 0.07
5 7 7 26.54 0.3
6 7 7 16.26 0.2
7 7 7 10.86 0.21
8 7 7 3.04 0.08
9 7 7 0.86 0.13
10 7 7 7.57 0.19
11 7 7 11.27 0.2
12 7 7 1.58 0.08
-11 8 7 0.88 0.06
-10 8 7 1.94 0.08
-9 8 7 9.57 0.19
-8 8 7 5.4 0.14
-7 8 7 15.85 0.21
-6 8 7 13.45 0.2
-5 8 7 3.84 0.09
-4 8 7 18.47 0.27
-3 8 7 14.54 0.18
-2 8 7 11.46 0.16
-1 8 7 12.98 0.19
0 8 7 14.7 0.15
1 8 7 13.06 0.14
2 8 7 11.26 0.18
3 8 7 14.83 0.21
4 8 7 18.01 0.25
5 8 7 3.5 0.11
6 8 7 13.44 0.19
7 8 7 15.79 0.2
8 8 7 5.43 0.1
9 8 7 9.66 0.16
10 8 7 1.9 0.07
11 8 7 0.92 0.05
-10 9 7 2.8 0.11
-9 9 7 10.76 0.23
-8 9 7 9.98 0.16
-7 9 7 0.27 0.06
-6 9 7 7.05 0.12
-5 9 7 16.6 0.21
-4 9 7 7.71 0.13
-3 9 7 6.86 0.12
-2 9 7 5.97 0.13
-1 9 7 18.24 0.2
0 9 7 2.99 0.09
1 9 7 18.06 0.2
2 9 7 5.97 0.09
3 9 7 6.7 0.1
4 9 7 7.45 0.15
5 9 7 17.04 0.26
6 9 7 7.11 0.14
7 9 7 0.24 0.06
8 9 7 9.97 0.21
9 9 7 10.52 0.21
10 9 7 2.94 0.11
-9 10 7 2.47 0.1
-8 10 7 3.83 0.11
-7 10 7 3.41 0.08
-6 10 7 4.16 0.09
-5 10 7 0.6 0.07
-4 10 7 15.55 0.22
-3 10 7 1.25 0.06
-2 10 7 15.39 0.21
-1 10 7 3.68 0.08
0 10 7 0.75 0.04
1 10 7 4.05 0.08
2 10 7 15.68 0.17
3 10 7 1.31 0.05
4 10 7 15.86 0.22
5 10 7 0.44 0.07
6 10 7 3.98 0.11
7 10 7 3.27 0.21
8 10 7 3.79 0.18
9 10 7 2.73 0.1
10 10 7 2.01 0.1
-8 11 7 0.49 0.04
-7 11 7 0.53 0.07
-6 11 7 3.01 0.12
-5 11 7 4.73 0.18
-4 11 7 3.06 0.1
-3 11 7 3.63 0.13
-2 11 7 6.05 0.13
-1 11 7 9.44 0.14
0 11 7 23.87 0.25
1 11 7 9.5 0.13
2 11 7 6.12 0.1
3 11 7 3.92 0.08
4 11 7 3.07 0.1
5 11 7 4.39 0.2
6 11 7 3.05 0.11
7 11 7 0.45 0.08
8 11 7 0.44 0.06
9 11 7 0.93 0.07
-7 12 7 4.4 0.16
-6 12 7 1.92 0.13
-5 12 7 5.35 0.14
-4 12 7 2.57 0.09
-3 12 7 1.81 0.08
-2 12 7 1.06 0.06
-1 12 7 8.04 0.15
0 12 7 1.09 0.07
1 12 7 8.09 0.12
2 12 7 1.05 0.05
3 12 7 1.92 0.06
4 12 7 2.59 0.1
5 12 7 5.59 0.14
6 12 7 1.93 0.14
7 12 7 4.27 0.22
-5 13 7 0.78 0.24
-4 13 7 1.12 0.07
-3 13 7 9.87 0.15
-2 13 7 -0.09 0.09
-1 13 7 5.25 0.11
0 13 7 3.18 0.1
1 13 7 5.16 0.18
2 13 7 -0.05 0.09
3 13 7 10.04 0.2
4 13 7 1.17 0.15
5 13 7 0.58 0.1
6 13 7 0.51 0.2
-3 14 7 0.57 0.07
-2 14 7 1.79 0.08
-1 14 7 4.76 0.11
0 14 7 0.05 0.05
1 14 7 4.56 0.1
2 14 7 1.83 0.22
0 0 8 41.2 1.08
1 0 8 47.31 0.59
2 0 8 100.75 1.44
3 0 8 49.11 0.7
4 0 8 55.83 1.12
5 0 8 119.13 2.34
6 0 8 22.85 0.43
7 0 8 2.1 0.08
8 0 8 58.9 0.78
9 0 8 46.43 0.68
10 0 8 35.75 0.55
-11 1 8 7.99 0.28
-10 1 8 12.75 0.29
-9 1 8 4.98 0.13
-8 1 8 2.45 0.11
-7 1 8 38.98 0.57
-6 1 8 7.79 0.19
-5 1 8 53.06 0.87
-4 1 8 42.65 0.7
-3 1 8 233.41 3.21
-2 1 8 8.91 0.27
-1 1 8 218.17 2.89
0 1 8 382.18 3.99
1 1 8 221.21 2.31
2 1 8 8.85 0.14
3 1 8 238.2 3.97
4 1 8 41.99 0.69
5 1 8 53.33 0.89
6 1 8 7.9 0.31
7 1 8 38.92 0.51
8 1 8 2.46 0.08
9 1 8 4.96 0.15
10 1 8 13.08 0.32
13 1 8 0.88 0.07
-11 2 8 3.36 0.19
-10 2 8 16.82 0.35
-9 2 8 0.97 0.11
-8 2 8 0.19 0.06
-7 2 8 49.76 0.72
-6 2 8 0.1 0.06
-5 2 8 48.03 0.79
-4 2 8 91.63 1.47
-3 2 8 102.32 1.6
-2 2 8 134.96 1.55
-1 2 8 3.73 0.09
0 2 8 1.31 0.07
1 2 8 3.57 0.09
2 2 8 133.51 1.54
3 2 8 103.06 1.35
4 2 8 94.64 2.33
5 2 8 48.5 0.94
6 2 8 0.04 0.07
7 2 8 50.72 0.64
8 2 8 0.03 0.05
9 2 8 0.98 0.06
10 2 8 16.81 0.45
13 2 8 2.08 0.09
-11 3 8 2.82 0.18
-10 3 8 4.48 0.16
-9 3 8 24.6 0.41
-8 3 8 20.61 0.32
-7 3 8 9.09 0.18
-6 3 8 13.01 0.24
-5 3 8 142.37 2.78
-4 3 8 43.2 0.99
-3 3 8 35.79 0.55
-2 3 8 76.03 0.97
-1 3 8 36.63 0.45
0 3 8 68.18 0.79
1 3 8 37.11 0.45
2 3 8 75.97 0.89
3 3 8 35.47 0.5
4 3 8 44.08 0.78
5 3 8 145.02 2.44
6 3 8 13.06 0.19
7 3 8 9.31 0.15
8 3 8 20.82 0.38
9 3 8 24.52 0.4
10 3 8 4.36 0.26
13 3 8 0.22 0.05
-12 4 8 0.73 0.09
-11 4 8 10.19 0.34
-10 4 8 6.9 0.27
-9 4 8 44.33 0.59
-8 4 8 2.47 0.1
-7 4 8 31.92 0.44
-6 4 8 34.06 0.4
-5 4 8 33.49 0.55
-4 4 8 4.92 0.15
-3 4 8 68.78 1.11
-2 4 8 129.01 1.63
-1 4 8 35.82 0.52
0 4 8 117.23 1.48
1 4 8 35.35 0.48
2 4 8 127.07 1.62
3 4 8 70.1 0.93
4 4 8 4.75 0.17
5 4 8 32.94 0.63
6 4 8 34.27 0.48
7 4 8 32.5 0.36
8 4 8 2.33 0.06
9 4 8 44.6 0.86
13 4 8 7.5 0.22
-12 5 8 1.76 0.14
-11 5 8 22.74 0.65
-10 5 8 2.83 0.2
-9 5 8 0.31 0.05
-8 5 8 1.21 0.06
-7 5 8 57.47 0.75
-6 5 8 15.58 0.17
-5 5 8 32.04 0.35
-4 5 8 58.5 0.91
-3 5 8 11.4 0.24
-2 5 8 19.88 0.31
-1 5 8 1.07 0.08
0 5 8 11.67 0.2
1 5 8 1.02 0.06
2 5 8 19.72 0.3
3 5 8 11.61 0.2
4 5 8 59.87 1.05
5 5 8 31.44 0.32
6 5 8 15.47 0.17
7 5 8 57.49 0.65
8 5 8 1.32 0.06
9 5 8 0.38 0.07
10 5 8 2.6 0.3
12 5 8 1.85 0.1
13 5 8 2.97 0.11
-12 6 8 1.7 0.09
-11 6 8 9.68 0.32
-10 6 8 0.18 0.11
-9 6 8 11.46 0.22
-8 6 8 0.23 0.05
-7 6 8 9.25 0.16
-6 6 8 9.09 0.13
-5 6 8 0.19 0.04
-4 6 8 12.35 0.13
-3 6 8 13.92 0.16
-2 6 8 26.55 0.45
-1 6 8 39.56 0.64
0 6 8 29.81 0.5
1 6 8 40.6 0.55
2 6 8 27.45 0.4
3 6 8 14.07 0.18
4 6 8 12.07 0.16
5 6 8 0.11 0.03
6 6 8 9.2 0.12
7 6 8 9.09 0.13
8 6 8 0.21 0.05
9 6 8 11.27 0.2
10 6 8 0.26 0.06
11 6 8 10.23 0.45
12 6 8 1.7 0.09
-12 7 8 5.51 0.16
-11 7 8 1.73 0.08
-10 7 8 0.91 0.12
-9 7 8 25.43 0.5
-8 7 8 2.14 0.09
-7 7 8 14.37 0.22
-6 7 8 18.15 0.25
-5 7 8 31.64 0.34
-4 7 8 4.55 0.09
-3 7 8 21.5 0.23
-2 7 8 12.38 0.15
-1 7 8 0.3 0.04
0 7 8 23.61 0.24
1 7 8 0.12 0.05
2 7 8 12.09 0.17
3 7 8 21.03 0.26
4 7 8 4.71 0.09
5 7 8 31.9 0.36
6 7 8 18 0.22
7 7 8 14.75 0.19
8 7 8 2.23 0.07
9 7 8 26.28 0.6
10 7 8 0.83 0.05
11 7 8 1.97 0.06
12 7 8 5.58 0.17
-11 8 8 1.5 0.08
-10 8 8 4.7 0.13
-9 8 8 2.04 0.09
-8 8 8 1.83 0.09
-7 8 8 14.3 0.23
-6 8 8 4.71 0.11
-5 8 8 18.59 0.24
-4 8 8 35.56 0.54
-3 8 8 12.29 0.15
-2 8 8 95.63 0.96
-1 8 8 2.94 0.06
0 8 8 2.39 0.06
1 8 8 3.06 0.07
2 8 8 94.69 0.84
3 8 8 12.33 0.17
4 8 8 35.77 0.46
5 8 8 18.57 0.24
6 8 8 4.66 0.12
7 8 8 14.39 0.19
8 8 8 1.75 0.06
9 8 8 2 0.14
10 8 8 4.92 0.11
11 8 8 1.58 0.09
-10 9 8 2.51 0.09
-9 9 8 0.73 0.05
-8 9 8 0.95 0.05
-7 9 8 8.46 0.14
-6 9 8 1.28 0.06
-5 9 8 6.99 0.11
-4 9 8 13.67 0.19
-3 9 8 39.54 0.4
-2 9 8 3.98 0.1
-1 9 8 8.78 0.11
0 9 8 64.18 0.58
1 9 8 8.9 0.15
2 9 8 4.08 0.07
3 9 8 39.65 0.48
4 9 8 13.73 0.21
5 9 8 6.99 0.15
6 9 8 1.24 0.06
7 9 8 8.31 0.15
8 9 8 0.79 0.15
9 9 8 0.6 0.09
10 9 8 2.55 0.11
-9 10 8 1.19 0.07
-8 10 8 7.97 0.13
-7 10 8 1.5 0.06
-6 10 8 2.76 0.11
-5 10 8 4.44 0.13
-4 10 8 8.91 0.16
-3 10 8 -0.03 0.05
-2 10 8 2.95 0.08
-1 10 8 0.58 0.05
0 10 8 2.74 0.07
1 10 8 0.62 0.05
2 10 8 2.69 0.07
3 10 8 -0.04 0.04
4 10 8 8.66 0.16
5 10 8 4.36 0.14
6 10 8 2.79 0.1
7 10 8 1.28 0.08
8 10 8 7.95 0.22
9 10 8 1.27 0.16
-8 11 8 0.2 0.06
-7 11 8 0.17 0.06
-6 11 8 0.33 0.07
-5 11 8 0.25 0.07
-4 11 8 0.74 0.06
-3 11 8 5.46 0.11
-2 11 8 4.84 0.11
-1 11 8 5.18 0.13
0 11 8 0.05 0.06
1 11 8 5.17 0.09
2 11 8 5.04 0.09
3 11 8 5.59 0.11
4 11 8 0.55 0.06
5 11 8 0.14 0.06
6 11 8 0.22 0.06
7 11 8 0.25 0.06
8 11 8 0.19 0.08
-7 12 8 0.58 0.06
-6 12 8 1.14 0.09
-5 12 8 3.25 0.11
-4 12 8 0.88 0.08
-3 12 8 3.03 0.1
-2 12 8 2.54 0.09
-1 12 8 2.06 0.08
0 12 8 0.74 0.06
1 12 8 2.21 0.1
2 12 8 2.49 0.07
3 12 8 3 0.1
4 12 8 1.03 0.07
5 12 8 3.2 0.24
6 12 8 1.02 0.09
7 12 8 0.62 0.14
-5 13 8 2.72 0.22
-4 13 8 3.88 0.13
-3 13 8 0.4 0.06
-2 13 8 0.6 0.06
-1 13 8 2.15 0.09
0 13 8 5.36 0.11
1 13 8 2.26 0.07
2 13 8 0.7 0.06
3 13 8 0.5 0.15
4 13 8 4.01 0.16
5 13 8 2.79 0.13
-2 14 8 2.11 0.11
-1 14 8 0.62 0.07
0 14 8 0.14 0.05
1 14 8 0.66 0.13
2 14 8 2.11 0.14
1 0 9 27.78 0.36
2 0 9 20.26 0.3
3 0 9 126.22 1.84
4 0 9 6.59 0.2
5 0 9 61.7 1.25
6 0 9 9.59 0.23
7 0 9 2.72 0.08
8 0 9 8.09 0.16
9 0 9 12.71 0.3
10 0 9 3.97 0.13
12 0 9 11.8 0.34
-11 1 9 10.24 0.34
-10 1 9 4.18 0.15
-9 1 9 11.29 0.2
-8 1 9 33.54 0.51
-7 1 9 49.33 0.71
-6 1 9 8.21 0.2
-5 1 9 70.21 1.13
-4 1 9 2.24 0.19
-3 1 9 24.63 0.4
-2 1 9 55.24 0.8
-1 1 9 215.96 2.47
0 1 9 3.14 0.11
1 1 9 215.94 2.61
2 1 9 55.31 0.79
3 1 9 24.79 0.4
4 1 9 1.82 0.09
5 1 9 70.37 1.41
6 1 9 8.29 0.24
7 1 9 49.82 0.64
8 1 9 34.03 0.42
9 1 9 11.26 0.22
10 1 9 4.01 0.18
12 1 9 5.94 0.19
13 1 9 1.47 0.08
-11 2 9 0.12 0.09
-10 2 9 8.03 0.21
-9 2 9 20.42 0.36
-8 2 9 7.61 0.18
-7 2 9 2.34 0.1
-6 2 9 2.75 0.1
-5 2 9 18.66 0.35
-4 2 9 36.21 0.61
-3 2 9 245.63 4.36
-2 2 9 111.53 1.44
-1 2 9 246.25 4.21
0 2 9 218.51 2.96
1 2 9 244.93 3.72
2 2 9 111.27 1.29
3 2 9 251.03 3.22
4 2 9 36.55 0.67
5 2 9 18.78 0.34
6 2 9 2.74 0.09
7 2 9 2.53 0.08
8 2 9 7.7 0.16
9 2 9 20.59 0.31
10 2 9 7.89 0.28
13 2 9 2.13 0.09
-12 3 9 2.19 0.15
-11 3 9 4.1 0.2
-10 3 9 17.39 0.53
-9 3 9 3.84 0.14
-8 3 9 11.87 0.24
-7 3 9 66.5 0.89
-6 3 9 22.57 0.34
-5 3 9 1.16 0.11
-4 3 9 51.74 0.96
-3 3 9 25.16 0.4
-2 3 9 47.82 0.72
-1 3 9 328.64 3.69
0 3 9 83.85 0.97
1 3 9 326.59 4.38
2 3 9 48.48 0.78
3 3 9 24.9 0.37
4 3 9 53.78 0.73
5 3 9 1.02 0.07
6 3 9 23.59 0.32
7 3 9 67.51 0.87
8 3 9 11.99 0.22
9 3 9 4.03 0.19
12 3 9 2.09 0.1
13 3 9 0.62 0.05
-12 4 9 3.2 0.17
-11 4 9 3.28 0.19
-10 4 9 0.88 0.12
-9 4 9 7.18 0.14
-8 4 9 54.87 0.71
-7 4 9 3.85 0.12
-6 4 9 91.91 1.01
-5 4 9 30.79 0.45
-4 4 9 2.08 0.11
-3 4 9 20.46 0.36
-2 4 9 5.15 0.13
-1 4 9 3 0.09
0 4 9 91.36 1.17
1 4 9 3.09 0.21
2 4 9 5.19 0.12
3 4 9 20.28 0.31
4 4 9 2.08 0.09
5 4 9 31.56 0.4
6 4 9 93.1 0.9
7 4 9 4.01 0.08
8 4 9 55.04 0.82
9 4 9 7.26 0.17
12 4 9 3.35 0.13
13 4 9 1.88 0.09
-12 5 9 0.48 0.09
-11 5 9 5.89 0.24
-10 5 9 13.99 0.44
-9 5 9 0.57 0.12
-8 5 9 12.91 0.19
-7 5 9 6.58 0.12
-6 5 9 15.26 0.18
-5 5 9 6.9 0.11
-4 5 9 2.78 0.07
-3 5 9 7.6 0.19
-2 5 9 24.57 0.42
-1 5 9 47.84 0.72
0 5 9 19.08 0.29
1 5 9 46.86 0.63
2 5 9 23.72 0.44
3 5 9 7.45 0.19
4 5 9 2.37 0.09
5 5 9 6.83 0.09
6 5 9 14.87 0.17
7 5 9 6.52 0.1
8 5 9 12.92 0.16
9 5 9 0.55 0.05
12 5 9 0.48 0.06
-12 6 9 2.29 0.08
-11 6 9 3.57 0.18
-10 6 9 2.11 0.18
-9 6 9 3.48 0.11
-8 6 9 1.67 0.1
-7 6 9 3.14 0.09
-6 6 9 41.68 0.48
-5 6 9 20.02 0.23
-4 6 9 24.65 0.25
-3 6 9 18.12 0.18
-2 6 9 5.46 0.2
-1 6 9 1.15 0.1
0 6 9 1.61 0.09
1 6 9 1.03 0.13
2 6 9 5.36 0.11
3 6 9 17.72 0.19
4 6 9 24.01 0.24
5 6 9 19.94 0.21
6 6 9 41.67 0.41
7 6 9 3.07 0.07
8 6 9 1.64 0.06
9 6 9 3.15 0.14
10 6 9 1.98 0.09
11 6 9 3.25 0.13
12 6 9 2.41 0.1
-11 7 9 1.33 0.07
-10 7 9 2.44 0.19
-9 7 9 0.64 0.09
-8 7 9 11.66 0.22
-7 7 9 11.15 0.18
-6 7 9 4.42 0.11
-5 7 9 2.9 0.08
-4 7 9 10.2 0.12
-3 7 9 3.97 0.07
-2 7 9 12.16 0.13
-1 7 9 54.81 0.48
0 7 9 23.85 0.28
1 7 9 54.52 0.48
2 7 9 11.86 0.15
3 7 9 3.95 0.11
4 7 9 9.85 0.13
5 7 9 2.81 0.08
6 7 9 4.48 0.08
7 7 9 10.94 0.14
8 7 9 11.66 0.16
9 7 9 0.45 0.07
10 7 9 2.55 0.08
11 7 9 1.38 0.08
-11 8 9 1.03 0.08
-10 8 9 0.79 0.06
-9 8 9 6.66 0.12
-8 8 9 1.42 0.08
-7 8 9 3.78 0.12
-6 8 9 2.96 0.1
-5 8 9 7.29 0.17
-4 8 9 9.3 0.15
-3 8 9 26.02 0.28
-2 8 9 1.49 0.08
-1 8 9 32.89 0.31
0 8 9 31.71 0.3
1 8 9 32.87 0.3
2 8 9 1.37 0.07
3 8 9 26.15 0.31
4 8 9 9.32 0.17
5 8 9 7.08 0.12
6 8 9 2.75 0.1
7 8 9 3.68 0.08
8 8 9 1.34 0.05
9 8 9 6.66 0.12
10 8 9 0.81 0.05
11 8 9 1.31 0.08
-10 9 9 3.09 0.1
-9 9 9 4.9 0.1
-8 9 9 4.79 0.15
-7 9 9 4.12 0.1
-6 9 9 9.54 0.17
-5 9 9 0.89 0.1
-4 9 9 10.03 0.14
-3 9 9 3.24 0.13
-2 9 9 27.83 0.31
-1 9 9 13.48 0.15
0 9 9 4.2 0.08
1 9 9 13.74 0.16
2 9 9 28.15 0.27
3 9 9 3.26 0.13
4 9 9 10 0.16
5 9 9 0.73 0.06
6 9 9 9.48 0.16
7 9 9 4.04 0.13
8 9 9 4.59 0.13
9 9 9 4.89 0.13
10 9 9 3.18 0.15
-9 10 9 6.53 0.22
-8 10 9 7.68 0.16
-7 10 9 0.18 0.04
-6 10 9 1.85 0.09
-5 10 9 15.79 0.28
-4 10 9 7.33 0.15
-3 10 9 3.81 0.1
-2 10 9 1.34 0.08
-1 10 9 3.65 0.08
0 10 9 7.11 0.15
1 10 9 3.74 0.08
2 10 9 1.29 0.06
3 10 9 3.58 0.1
4 10 9 7.23 0.16
5 10 9 15.16 0.24
6 10 9 1.82 0.08
7 10 9 0.05 0.06
8 10 9 7.55 0.35
9 10 9 6.53 0.46
-8 11 9 2.95 0.1
-7 11 9 8.84 0.23
-6 11 9 9.21 0.19
-5 11 9 3.39 0.17
-4 11 9 4.51 0.13
-3 11 9 0.95 0.07
-2 11 9 0.91 0.05
-1 11 9 1.21 0.05
0 11 9 0.77 0.05
1 11 9 1.29 0.07
2 11 9 0.88 0.05
3 11 9 0.97 0.07
4 11 9 4.38 0.12
5 11 9 3.6 0.14
6 11 9 9.57 0.2
7 11 9 8.83 0.19
8 11 9 2.78 0.15
-7 12 9 0.35 0.06
-6 12 9 0.03 0.06
-5 12 9 0.17 0.07
-4 12 9 2.15 0.12
-3 12 9 2.19 0.09
-2 12 9 6.5 0.11
-1 12 9 4.29 0.1
0 12 9 12.88 0.15
1 12 9 4.46 0.09
2 12 9 6.62 0.1
3 12 9 2.47 0.1
4 12 9 2.05 0.09
5 12 9 0.2 0.14
6 12 9 -0.05 0.07
7 12 9 0.36 0.07
-5 13 9 1.48 0.09
-4 13 9 5.79 0.17
-3 13 9 1.41 0.07
-2 13 9 0.53 0.06
-1 13 9 1.65 0.07
0 13 9 -0.05 0.05
1 13 9 1.8 0.06
2 13 9 0.63 0.07
3 13 9 1.39 0.08
4 13 9 5.98 0.15
5 13 9 1.62 0.1
-1 14 9 0.4 0.07
0 14 9 1.81 0.12
1 14 9 0.4 0.08
0 0 10 3.69 0.36
1 0 10 117.38 1.35
2 0 10 38.77 0.5
3 0 10 35.4 0.61
4 0 10 73.25 1.46
5 0 10 6.9 0.2
6 0 10 11.03 0.17
7 0 10 5.19 0.1
8 0 10 3.47 0.09
9 0 10 6.16 0.15
10 0 10 1.88 0.1
11 0 10 0.32 0.05
12 0 10 2.48 0.11
-11 1 10 9.61 0.32
-10 1 10 32.33 0.7
-9 1 10 17.88 0.33
-8 1 10 23.73 0.38
-7 1 10 11.79 0.18
-6 1 10 1.48 0.09
-5 1 10 6.52 0.34
-4 1 10 15.74 0.3
-3 1 10 70.26 1.2
-2 1 10 50.32 0.64
-1 1 10 118.06 1.37
0 1 10 37.19 0.45
1 1 10 119.13 1.26
2 1 10 50.56 0.72
3 1 10 69.52 0.99
4 1 10 15.87 0.26
5 1 10 6.05 0.19
6 1 10 1.43 0.06
7 1 10 12.06 0.18
8 1 10 24.25 0.31
9 1 10 18.57 0.27
10 1 10 32.97 1.01
12 1 10 0.86 0.08
13 1 10 1.14 0.07
-11 2 10 2.56 0.18
-10 2 10 15.91 0.49
-9 2 10 7.1 0.18
-8 2 10 1.03 0.08
-7 2 10 5.05 0.16
-6 2 10 7.77 0.16
-5 2 10 104.86 1.67
-4 2 10 111.8 1.8
-3 2 10 197.59 3.07
-2 2 10 2.84 0.11
-1 2 10 7.56 0.12
0 2 10 212.2 2.89
1 2 10 7.58 0.11
2 2 10 2.82 0.15
3 2 10 199.63 2.59
4 2 10 116.16 1.92
5 2 10 106.93 1.79
6 2 10 7.67 0.11
7 2 10 5.07 0.1
8 2 10 0.87 0.06
9 2 10 7.46 0.15
12 2 10 14 0.4
13 2 10 0.84 0.07
-11 3 10 3.69 0.2
-10 3 10 3.89 0.21
-9 3 10 16.52 0.3
-8 3 10 2.84 0.13
-7 3 10 28.55 0.46
-6 3 10 16.26 0.35
-5 3 10 90.11 1.83
-4 3 10 14.11 0.33
-3 3 10 9.2 0.19
-2 3 10 205.2 2.94
-1 3 10 29.32 0.4
0 3 10 23.97 0.31
1 3 10 28.88 0.37
2 3 10 206.71 2.37
3 3 10 9.36 0.17
4 3 10 14.18 0.26
5 3 10 93.34 1.38
6 3 10 16.4 0.22
7 3 10 29.17 0.48
8 3 10 3.23 0.13
9 3 10 16.21 0.26
12 3 10 6.74 0.21
13 3 10 2.59 0.1
-12 4 10 5.19 0.21
-11 4 10 11.05 0.37
-10 4 10 6.23 0.16
-9 4 10 7.42 0.14
-8 4 10 9.93 0.21
-7 4 10 23.96 0.35
-6 4 10 15.91 0.22
-5 4 10 16.05 0.23
-4 4 10 22.43 0.4
-3 4 10 11.2 0.24
-2 4 10 32.26 0.54
-1 4 10 25.95 0.38
0 4 10 57.67 0.76
1 4 10 25.95 0.37
2 4 10 32.22 0.45
3 4 10 11.09 0.24
4 4 10 22.8 0.35
5 4 10 15.93 0.21
6 4 10 15.87 0.19
7 4 10 25.04 0.32
8 4 10 9.73 0.17
9 4 10 7.46 0.17
11 4 10 11.42 0.33
12 4 10 5.54 0.18
13 4 10 4.35 0.14
-12 5 10 1.89 0.14
-11 5 10 11.35 0.37
-10 5 10 0.27 0.06
-9 5 10 9.67 0.21
-8 5 10 1.16 0.08
-7 5 10 1.13 0.06
-6 5 10 38.93 0.41
-5 5 10 10.82 0.15
-4 5 10 75.53 0.71
-3 5 10 29.42 0.55
-2 5 10 0.53 0.06
-1 5 10 9.84 0.19
0 5 10 34.01 0.48
1 5 10 9.82 0.18
2 5 10 0.42 0.06
3 5 10 29.96 0.5
4 5 10 74.68 0.74
5 5 10 10.76 0.13
6 5 10 39.21 0.39
7 5 10 1 0.05
8 5 10 0.96 0.05
9 5 10 9.82 0.47
10 5 10 0.15 0.06
11 5 10 12.07 0.34
12 5 10 1.95 0.09
-11 6 10 14.72 0.45
-10 6 10 2.42 0.23
-9 6 10 17.27 0.34
-8 6 10 3.33 0.1
-7 6 10 27.76 0.34
-6 6 10 10.25 0.14
-5 6 10 0.82 0.04
-4 6 10 30.49 0.31
-3 6 10 0.49 0.03
-2 6 10 67.49 0.64
-1 6 10 0.83 0.07
0 6 10 56.92 0.67
1 6 10 0.87 0.04
2 6 10 67.24 0.65
3 6 10 0.54 0.05
4 6 10 30.15 0.29
5 6 10 0.78 0.04
6 6 10 10.21 0.12
7 6 10 27.93 0.27
8 6 10 3.32 0.07
9 6 10 17.76 0.25
10 6 10 2.3 0.11
11 6 10 15.41 0.43
12 6 10 2.58 0.1
-11 7 10 1.55 0.08
-10 7 10 0.19 0.11
-9 7 10 12.51 0.25
-8 7 10 0.43 0.06
-7 7 10 14.2 0.21
-6 7 10 4.86 0.12
-5 7 10 20.48 0.27
-4 7 10 6.86 0.1
-3 7 10 3.02 0.06
-2 7 10 86.94 0.72
-1 7 10 14.63 0.14
0 7 10 53.24 0.45
1 7 10 14.5 0.19
2 7 10 85.46 0.77
3 7 10 3.08 0.08
4 7 10 6.9 0.09
5 7 10 20.85 0.21
6 7 10 4.88 0.08
7 7 10 14.15 0.17
8 7 10 0.35 0.04
9 7 10 12.5 0.19
10 7 10 0.16 0.04
11 7 10 1.41 0.09
-11 8 10 1.45 0.08
-10 8 10 5.21 0.24
-9 8 10 4.39 0.1
-8 8 10 1.5 0.09
-7 8 10 0.1 0.06
-6 8 10 0.28 0.09
-5 8 10 20.82 0.37
-4 8 10 15.17 0.18
-3 8 10 34.63 0.37
-2 8 10 11.73 0.12
-1 8 10 2.35 0.07
0 8 10 12.13 0.13
1 8 10 2.51 0.1
2 8 10 11.62 0.15
3 8 10 34.74 0.41
4 8 10 15.27 0.22
5 8 10 20.61 0.27
6 8 10 0.24 0.06
7 8 10 0.02 0.04
8 8 10 1.54 0.05
9 8 10 4.19 0.09
10 8 10 5.5 0.12
-10 9 10 5.47 0.14
-9 9 10 0.12 0.06
-8 9 10 3.98 0.09
-7 9 10 5.9 0.12
-6 9 10 2.31 0.14
-5 9 10 1.11 0.08
-4 9 10 19.22 0.23
-3 9 10 22.12 0.24
-2 9 10 2.55 0.08
-1 9 10 2.56 0.07
0 9 10 11.11 0.16
1 9 10 2.5 0.07
2 9 10 2.69 0.12
3 9 10 22.42 0.29
4 9 10 19.64 0.25
5 9 10 1.22 0.07
6 9 10 2.24 0.09
7 9 10 5.95 0.12
8 9 10 3.72 0.11
9 9 10 0.08 0.05
10 9 10 5.89 0.18
-9 10 10 0.05 0.05
-8 10 10 0.78 0.05
-7 10 10 4.16 0.12
-6 10 10 4.7 0.22
-5 10 10 5.93 0.27
-4 10 10 7.8 0.15
-3 10 10 9.31 0.13
-2 10 10 14.54 0.17
-1 10 10 5.33 0.12
0 10 10 1.71 0.08
1 10 10 5.52 0.09
2 10 10 14.55 0.17
3 10 10 9.61 0.17
4 10 10 7.88 0.15
5 10 10 5.47 0.22
6 10 10 4.7 0.12
7 10 10 4.37 0.11
8 10 10 0.71 0.1
9 10 10 0.12 0.15
-8 11 10 3.27 0.1
-7 11 10 0.12 0.06
-6 11 10 0.14 0.06
-5 11 10 2.73 0.11
-4 11 10 0.84 0.08
-3 11 10 1.91 0.08
-2 11 10 1.2 0.08
-1 11 10 2.15 0.07
0 11 10 3.88 0.08
1 11 10 2.14 0.07
2 11 10 1.14 0.07
3 11 10 1.86 0.08
4 11 10 0.87 0.07
5 11 10 2.41 0.11
6 11 10 0 0.06
7 11 10 0.02 0.07
8 11 10 3.1 0.1
-6 12 10 0.17 0.07
-5 12 10 0.84 0.07
-4 12 10 2.78 0.11
-3 12 10 0.48 0.07
-2 12 10 0.07 0.05
-1 12 10 0.18 0.06
0 12 10 3.29 0.12
1 12 10 0.24 0.05
2 12 10 0.12 0.05
3 12 10 0.49 0.06
4 12 10 2.78 0.11
5 12 10 0.75 0.1
6 12 10 0.15 0.07
7 12 10 0.1 0.07
-5 13 10 0.97 0.09
-4 13 10 0.11 0.06
-3 13 10 1.96 0.09
-2 13 10 1.26 0.09
-1 13 10 0.11 0.05
0 13 10 0.03 0.05
1 13 10 0.14 0.04
2 13 10 1.33 0.06
3 13 10 1.97 0.1
4 13 10 0.07 0.12
1 0 11 61.43 0.72
2 0 11 73.65 1.04
3 0 11 57.42 0.97
4 0 11 68.99 1.63
5 0 11 17.04 0.41
6 0 11 77.22 0.85
7 0 11 20.56 0.24
8 0 11 26.03 0.33
9 0 11 0.82 0.07
10 0 11 8.17 0.19
11 0 11 4.31 0.15
-10 1 11 9 0.31
-9 1 11 25.87 0.37
-8 1 11 55 0.7
-7 1 11 13.43 0.16
-6 1 11 6.95 0.14
-5 1 11 27.55 0.5
-4 1 11 46.3 0.77
-3 1 11 13.46 0.24
-2 1 11 94.04 1.1
-1 1 11 13.78 0.2
0 1 11 80.81 0.95
1 1 11 14.29 0.34
2 1 11 94.09 1.32
3 1 11 13.28 0.23
4 1 11 46.71 0.8
5 1 11 28.13 0.6
6 1 11 6.97 0.1
7 1 11 13.57 0.19
8 1 11 54.85 0.65
9 1 11 25.82 0.33
10 1 11 8.74 0.27
11 1 11 1.29 0.09
12 1 11 7.9 0.24
13 1 11 2.64 0.1
-11 2 11 1.69 0.13
-10 2 11 20.97 0.6
-9 2 11 8.18 0.2
-8 2 11 5.33 0.16
-7 2 11 63.94 0.9
-6 2 11 67.91 0.8
-5 2 11 41 0.69
-4 2 11 35.88 0.61
-3 2 11 11.32 0.26
-2 2 11 52.56 0.8
-1 2 11 6.25 0.19
0 2 11 2.71 0.19
1 2 11 6.21 0.21
2 2 11 53.41 0.72
3 2 11 11.16 0.2
4 2 11 35.97 0.54
5 2 11 40.31 0.85
6 2 11 68.52 0.73
7 2 11 63.41 0.74
8 2 11 5.54 0.14
9 2 11 8.33 0.18
10 2 11 20.23 0.55
11 2 11 1.48 0.09
12 2 11 2.4 0.11
13 2 11 3.22 0.12
-11 3 11 4.61 0.21
-10 3 11 1.85 0.13
-9 3 11 2.17 0.1
-8 3 11 53.15 0.79
-7 3 11 4.56 0.12
-6 3 11 43.48 0.55
-5 3 11 6.63 0.25
-4 3 11 23.38 0.49
-3 3 11 60.56 0.91
-2 3 11 30.36 0.49
-1 3 11 43.01 0.58
0 3 11 195.02 2.2
1 3 11 42.51 0.58
2 3 11 30.6 0.44
3 3 11 61.44 0.92
4 3 11 23.87 0.37
5 3 11 6.17 0.09
6 3 11 44.65 0.78
7 3 11 4.52 0.1
8 3 11 53.6 0.79
9 3 11 1.86 0.08
10 3 11 1.62 0.08
11 3 11 4.41 0.16
12 3 11 3.22 0.12
13 3 11 1.72 0.09
-12 4 11 1.22 0.1
-11 4 11 2.07 0.17
-10 4 11 3.22 0.11
-9 4 11 0.23 0.05
-8 4 11 4.7 0.15
-7 4 11 25.6 0.4
-6 4 11 20.19 0.26
-5 4 11 4.57 0.09
-4 4 11 15.53 0.2
-3 4 11 22.8 0.4
-2 4 11 13.9 0.24
-1 4 11 207.76 3.38
0 4 11 9.32 0.18
1 4 11 205.22 2.59
2 4 11 13.88 0.27
3 4 11 22.38 0.4
4 4 11 15.51 0.19
5 4 11 4.51 0.07
6 4 11 20.73 0.28
7 4 11 26.05 0.36
8 4 11 4.77 0.11
9 4 11 0.12 0.07
10 4 11 3.04 0.13
11 4 11 1.85 0.1
12 4 11 1.19 0.08
-12 5 11 2.02 0.14
-11 5 11 0.97 0.08
-10 5 11 0.4 0.07
-9 5 11 5.94 0.16
-8 5 11 6.9 0.13
-7 5 11 2.43 0.08
-6 5 11 44.82 0.5
-5 5 11 10.37 0.14
-4 5 11 19.6 0.19
-3 5 11 19.93 0.22
-2 5 11 8.65 0.21
-1 5 11 45 0.94
0 5 11 20.64 0.32
1 5 11 46.03 0.62
2 5 11 8.86 0.24
3 5 11 19.59 0.32
4 5 11 19.13 0.19
5 5 11 10.33 0.12
6 5 11 45.94 0.44
7 5 11 2.46 0.06
8 5 11 6.75 0.12
9 5 11 6 0.17
10 5 11 0.48 0.06
11 5 11 0.82 0.07
12 5 11 2.12 0.1
-11 6 11 1.5 0.12
-10 6 11 2.88 0.11
-9 6 11 2.45 0.11
-8 6 11 8.68 0.23
-7 6 11 4.07 0.1
-6 6 11 16.61 0.21
-5 6 11 11.05 0.15
-4 6 11 2.15 0.05
-3 6 11 2.51 0.06
-2 6 11 2.67 0.05
-1 6 11 14.25 0.14
0 6 11 0.1 0.03
1 6 11 14.26 0.17
2 6 11 2.64 0.08
3 6 11 2.55 0.11
4 6 11 1.99 0.05
5 6 11 11.09 0.14
6 6 11 16.5 0.17
7 6 11 3.95 0.07
8 6 11 8.53 0.15
9 6 11 2.36 0.08
10 6 11 2.71 0.12
11 6 11 1.3 0.09
12 6 11 0.22 0.05
-11 7 11 4.6 0.12
-10 7 11 0.79 0.06
-9 7 11 3.56 0.12
-8 7 11 11.44 0.24
-7 7 11 5.42 0.18
-6 7 11 11.63 0.17
-5 7 11 5.34 0.11
-4 7 11 7.16 0.11
-3 7 11 3.22 0.07
-2 7 11 7.07 0.08
-1 7 11 13.75 0.14
0 7 11 23.78 0.23
1 7 11 13.45 0.15
2 7 11 6.92 0.1
3 7 11 3.17 0.07
4 7 11 7.37 0.1
5 7 11 5.55 0.08
6 7 11 11.83 0.14
7 7 11 5.36 0.09
8 7 11 11.35 0.18
9 7 11 3.4 0.09
10 7 11 0.76 0.07
11 7 11 4.74 0.15
-10 8 11 6.73 0.12
-9 8 11 1.99 0.1
-8 8 11 8.85 0.28
-7 8 11 11.86 0.25
-6 8 11 12.35 0.21
-5 8 11 0.51 0.09
-4 8 11 27.45 0.5
-3 8 11 3.57 0.09
-2 8 11 3.73 0.07
-1 8 11 2.37 0.06
0 8 11 10.27 0.11
1 8 11 2.46 0.07
2 8 11 3.65 0.1
3 8 11 3.74 0.1
4 8 11 28.3 0.37
5 8 11 0.48 0.08
6 8 11 12.44 0.19
7 8 11 11.98 0.16
8 8 11 9 0.13
9 8 11 1.96 0.08
10 8 11 6.83 0.2
-9 9 11 12.11 0.2
-8 9 11 8.31 0.18
-7 9 11 0.38 0.05
-6 9 11 8.04 0.19
-5 9 11 7.95 0.16
-4 9 11 0.13 0.05
-3 9 11 6.37 0.11
-2 9 11 7.22 0.09
-1 9 11 15.85 0.16
0 9 11 10.14 0.12
1 9 11 15.85 0.17
2 9 11 7.1 0.13
3 9 11 6.24 0.12
4 9 11 0.17 0.1
5 9 11 7.82 0.16
6 9 11 8.19 0.15
7 9 11 0.42 0.07
8 9 11 8.4 0.17
9 9 11 12.47 0.46
-9 10 11 0.35 0.09
-8 10 11 2.55 0.1
-7 10 11 1.48 0.09
-6 10 11 4.89 0.16
-5 10 11 1.21 0.12
-4 10 11 8.15 0.15
-3 10 11 0.35 0.05
-2 10 11 15.74 0.2
-1 10 11 18.37 0.18
0 10 11 1.3 0.05
1 10 11 18.24 0.19
2 10 11 16.15 0.25
3 10 11 0.29 0.06
4 10 11 8.01 0.18
5 10 11 0.93 0.07
6 10 11 4.84 0.12
7 10 11 1.28 0.07
8 10 11 2.45 0.2
9 10 11 0.24 0.07
-7 11 11 0.81 0.06
-6 11 11 0.12 0.08
-5 11 11 4.84 0.13
-4 11 11 0.86 0.08
-3 11 11 5.78 0.12
-2 11 11 5.64 0.1
-1 11 11 2.95 0.07
0 11 11 16.12 0.18
1 11 11 3.01 0.07
2 11 11 5.85 0.12
3 11 11 5.97 0.13
4 11 11 1.06 0.07
5 11 11 4.52 0.14
6 11 11 0.02 0.06
7 11 11 0.61 0.1
8 11 11 1.51 0.16
-6 12 11 0.66 0.06
-5 12 11 4.98 0.13
-4 12 11 3.49 0.12
-3 12 11 2.26 0.11
-2 12 11 -0.07 0.07
-1 12 11 2.8 0.08
0 12 11 4.02 0.07
1 12 11 2.92 0.07
2 12 11 -0.03 0.05
3 12 11 2.42 0.1
4 12 11 3.56 0.12
5 12 11 5.03 0.16
6 12 11 0.76 0.09
-4 13 11 0.1 0.09
-3 13 11 5.35 0.13
-2 13 11 1.74 0.09
-1 13 11 2.33 0.11
0 13 11 3.07 0.08
1 13 11 2.55 0.07
2 13 11 1.87 0.07
3 13 11 5.25 0.1
4 13 11 0.08 0.07
0 0 12 198.78 8.87
1 0 12 63.32 0.91
2 0 12 21.04 0.34
3 0 12 96.82 1.6
4 0 12 31.23 0.56
5 0 12 0.86 0.05
6 0 12 5.41 0.08
7 0 12 4.51 0.08
8 0 12 22.83 0.27
9 0 12 18.94 0.32
10 0 12 7.67 0.24
11 0 12 14.72 0.42
-10 1 12 23.95 0.69
-9 1 12 5.31 0.12
-8 1 12 6.7 0.11
-7 1 12 1.9 0.06
-6 1 12 18.96 0.22
-5 1 12 19.07 0.27
-4 1 12 109.72 1.74
-3 1 12 26.07 0.4
-2 1 12 89.26 1.05
-1 1 12 1.85 0.07
0 1 12 26.45 0.34
1 1 12 1.98 0.08
2 1 12 88.62 1.26
3 1 12 25.32 0.4
4 1 12 109.98 2.32
5 1 12 18.95 0.23
6 1 12 18.75 0.2
7 1 12 1.8 0.06
8 1 12 6.78 0.11
9 1 12 5.18 0.1
10 1 12 24.03 0.67
11 1 12 0.35 0.06
12 1 12 0.83 0.08
-11 2 12 3.95 0.2
-10 2 12 21.2 0.62
-9 2 12 9.72 0.22
-8 2 12 0.1 0.07
-7 2 12 0.82 0.05
-6 2 12 6.24 0.11
-5 2 12 11.19 0.14
-4 2 12 7.8 0.18
-3 2 12 62.63 0.95
-2 2 12 49.31 0.66
-1 2 12 30.27 0.39
0 2 12 31.06 0.39
1 2 12 30.57 0.36
2 2 12 49.06 0.72
3 2 12 63.81 0.91
4 2 12 7.81 0.17
5 2 12 10.81 0.13
6 2 12 6.13 0.09
7 2 12 0.72 0.03
8 2 12 0.09 0.04
9 2 12 9.64 0.15
10 2 12 20.93 0.41
11 2 12 4 0.15
12 2 12 12.55 0.36
-11 3 12 3.25 0.19
-10 3 12 0.19 0.1
-9 3 12 2.95 0.13
-8 3 12 8.44 0.19
-7 3 12 1.5 0.07
-6 3 12 2.86 0.2
-5 3 12 82.79 0.86
-4 3 12 19.96 0.29
-3 3 12 26.27 0.43
-2 3 12 78.9 1.04
-1 3 12 45.13 0.7
0 3 12 11.93 0.34
1 3 12 44.24 0.6
2 3 12 81.43 1.07
3 3 12 26.1 0.42
4 3 12 19.95 0.27
5 3 12 82.62 0.82
6 3 12 2.61 0.11
7 3 12 1.44 0.05
8 3 12 8.55 0.15
9 3 12 2.92 0.08
10 3 12 0.28 0.11
11 3 12 3.4 0.13
12 3 12 8.07 0.24
-12 4 12 3.85 0.17
-11 4 12 2.08 0.17
-10 4 12 0.31 0.11
-9 4 12 12.48 0.26
-8 4 12 0.42 0.07
-7 4 12 21.73 0.36
-6 4 12 37.3 0.47
-5 4 12 12.08 0.16
-4 4 12 49.55 0.5
-3 4 12 27.12 0.42
-2 4 12 30.79 0.45
-1 4 12 42.76 0.67
0 4 12 171.33 2.17
1 4 12 42.57 0.58
2 4 12 30.28 0.51
3 4 12 26.94 0.42
4 4 12 48.84 0.44
5 4 12 11.87 0.13
6 4 12 38.17 0.42
7 4 12 22.23 0.28
8 4 12 0.32 0.04
9 4 12 12.39 0.23
10 4 12 0.37 0.06
11 4 12 1.72 0.1
12 4 12 3.84 0.14
-12 5 12 0.09 0.08
-11 5 12 23.51 0.53
-10 5 12 1.87 0.09
-9 5 12 0.22 0.06
-8 5 12 4.04 0.11
-7 5 12 7.41 0.18
-6 5 12 0.11 0.06
-5 5 12 0.18 0.04
-4 5 12 47.85 0.44
-3 5 12 17.51 0.17
-2 5 12 78.98 0.87
-1 5 12 15.88 0.25
0 5 12 0.92 0.08
1 5 12 15.69 0.23
2 5 12 78.84 0.86
3 5 12 17.58 0.21
4 5 12 48.29 0.44
5 5 12 0.13 0.04
6 5 12 0.05 0.03
7 5 12 7.28 0.11
8 5 12 4.04 0.09
9 5 12 0.3 0.06
10 5 12 1.94 0.1
11 5 12 23.44 0.65
12 5 12 0.15 0.05
-11 6 12 2.91 0.17
-10 6 12 1.98 0.09
-9 6 12 13.84 0.43
-8 6 12 0.64 0.06
-7 6 12 7.01 0.13
-6 6 12 21.08 0.27
-5 6 12 10.19 0.14
-4 6 12 15.53 0.17
-3 6 12 13.36 0.14
-2 6 12 17.75 0.16
-1 6 12 10.71 0.11
0 6 12 32.98 0.3
1 6 12 10.63 0.14
2 6 12 17.81 0.25
3 6 12 13.34 0.15
4 6 12 15.53 0.16
5 6 12 10.47 0.12
6 6 12 21.53 0.22
7 6 12 7.19 0.1
8 6 12 0.58 0.04
9 6 12 13.71 0.33
10 6 12 1.85 0.1
11 6 12 3.1 0.12
-11 7 12 1.14 0.06
-10 7 12 1.83 0.09
-9 7 12 12.76 0.26
-8 7 12 7.3 0.18
-7 7 12 9.01 0.21
-6 7 12 4.14 0.1
-5 7 12 16.2 0.22
-4 7 12 14.09 0.17
-3 7 12 7.71 0.15
-2 7 12 29.33 0.25
-1 7 12 0.11 0.03
0 7 12 9.67 0.1
1 7 12 0.18 0.04
2 7 12 29.36 0.36
3 7 12 7.46 0.11
4 7 12 14.06 0.16
5 7 12 16.66 0.17
6 7 12 4.37 0.09
7 7 12 8.84 0.13
8 7 12 7.19 0.15
9 7 12 12.79 0.33
10 7 12 1.87 0.1
11 7 12 1.1 0.08
-10 8 12 2.85 0.07
-9 8 12 3.69 0.12
-8 8 12 0.41 0.08
-7 8 12 14.47 0.36
-6 8 12 0.1 0.05
-5 8 12 23.73 0.58
-4 8 12 9.47 0.16
-3 8 12 29.87 0.3
-2 8 12 12.98 0.13
-1 8 12 8.6 0.09
0 8 12 5.28 0.07
1 8 12 8.52 0.1
2 8 12 13.21 0.17
3 8 12 30.02 0.4
4 8 12 9.53 0.16
5 8 12 24.23 0.3
6 8 12 -0.02 0.05
7 8 12 14.79 0.3
8 8 12 0.37 0.04
9 8 12 3.83 0.1
10 8 12 2.82 0.11
-9 9 12 2.91 0.13
-8 9 12 2.95 0.14
-7 9 12 6.72 0.17
-6 9 12 3.77 0.13
-5 9 12 3.25 0.1
-4 9 12 13.5 0.21
-3 9 12 18.16 0.29
-2 9 12 8.1 0.13
-1 9 12 2.09 0.05
0 9 12 5.01 0.08
1 9 12 2.07 0.06
2 9 12 8.06 0.14
3 9 12 18.39 0.28
4 9 12 13.28 0.23
5 9 12 3.39 0.11
6 9 12 4.01 0.1
7 9 12 6.63 0.13
8 9 12 3.04 0.16
9 9 12 2.82 0.13
-8 10 12 1.08 0.06
-7 10 12 0.75 0.08
-6 10 12 0.07 0.06
-5 10 12 4.29 0.13
-4 10 12 0.22 0.07
-3 10 12 7.7 0.13
-2 10 12 0.22 0.04
-1 10 12 4.4 0.09
0 10 12 0 0.04
1 10 12 4.31 0.08
2 10 12 0.13 0.06
3 10 12 7.88 0.15
4 10 12 0.1 0.07
5 10 12 4.1 0.13
6 10 12 -0.05 0.05
7 10 12 0.71 0.06
8 10 12 1 0.07
-7 11 12 0.21 0.06
-6 11 12 1.71 0.09
-5 11 12 1.6 0.09
-4 11 12 5.53 0.19
-3 11 12 0.39 0.06
-2 11 12 3.22 0.09
-1 11 12 0.13 0.04
0 11 12 1.34 0.05
1 11 12 0.22 0.04
2 11 12 3.38 0.13
3 11 12 0.53 0.07
4 11 12 5.33 0.19
5 11 12 1.37 0.08
6 11 12 1.49 0.07
7 11 12 0.11 0.06
-6 12 12 0.84 0.06
-5 12 12 0.28 0.06
-4 12 12 0.94 0.07
-3 12 12 4.45 0.13
-2 12 12 1.11 0.08
-1 12 12 1.7 0.07
0 12 12 0.29 0.04
1 12 12 1.77 0.06
2 12 12 1.02 0.06
3 12 12 4.93 0.15
4 12 12 0.91 0.07
5 12 12 0.21 0.06
6 12 12 0.8 0.09
-3 13 12 1.19 0.1
-2 13 12 1.05 0.07
-1 13 12 3.5 0.12
0 13 12 0.24 0.06
1 13 12 3.56 0.08
2 13 12 0.93 0.07
3 13 12 1.22 0.06
1 0 13 14.97 0.23
2 0 13 16.79 0.26
3 0 13 109.92 1.81
4 0 13 7.3 0.17
5 0 13 56.11 0.55
6 0 13 2.07 0.05
7 0 13 8.42 0.11
8 0 13 19.49 0.24
9 0 13 17.24 0.23
10 0 13 4.92 0.17
11 0 13 0.3 0.06
-10 1 13 0.03 0.1
-9 1 13 7.99 0.22
-8 1 13 14.01 0.19
-7 1 13 26.29 0.34
-6 1 13 4.4 0.08
-5 1 13 30.53 0.33
-4 1 13 18.45 0.36
-3 1 13 28.59 0.52
-2 1 13 93.34 1.1
-1 1 13 102.84 1.2
0 1 13 47.17 0.61
1 1 13 102.38 1.44
2 1 13 93.3 1.54
3 1 13 27.43 0.51
4 1 13 18.74 0.37
5 1 13 30.28 0.31
6 1 13 4.36 0.07
7 1 13 25.95 0.28
8 1 13 14.28 0.18
9 1 13 8.33 0.14
10 1 13 -0.01 0.05
11 1 13 7.05 0.22
12 1 13 0.46 0.06
-11 2 13 2.5 0.17
-10 2 13 3.61 0.2
-9 2 13 16.38 0.31
-8 2 13 19.3 0.38
-7 2 13 27.55 0.37
-6 2 13 34.6 0.45
-5 2 13 0.8 0.05
-4 2 13 0.83 0.05
-3 2 13 30.25 0.5
-2 2 13 55.47 0.74
-1 2 13 60.09 0.73
0 2 13 135.36 1.57
1 2 13 60.08 0.87
2 2 13 55.28 0.81
3 2 13 30.69 0.47
4 2 13 0.82 0.06
5 2 13 0.74 0.03
6 2 13 34.89 0.36
7 2 13 27.59 0.34
8 2 13 19.11 0.26
9 2 13 16.24 0.23
10 2 13 3.31 0.11
11 2 13 2.33 0.11
12 2 13 2.99 0.12
-11 3 13 3.22 0.11
-10 3 13 8.73 0.32
-9 3 13 0.67 0.11
-8 3 13 2.84 0.14
-7 3 13 21.12 0.3
-6 3 13 35.84 0.44
-5 3 13 5.22 0.08
-4 3 13 63.96 0.63
-3 3 13 8.68 0.2
-2 3 13 15.58 0.26
-1 3 13 65.16 0.86
0 3 13 1.92 0.09
1 3 13 64.92 0.86
2 3 13 15.28 0.39
3 3 13 8.46 0.18
4 3 13 63.22 0.61
5 3 13 4.91 0.08
6 3 13 36.25 0.4
7 3 13 20.89 0.27
8 3 13 2.91 0.08
9 3 13 0.58 0.05
10 3 13 9.13 0.2
11 3 13 3.16 0.13
12 3 13 8.3 0.25
-12 4 13 0.47 0.1
-11 4 13 8.6 0.3
-10 4 13 4.08 0.13
-9 4 13 3.52 0.13
-8 4 13 27.4 0.43
-7 4 13 6.96 0.17
-6 4 13 25.99 0.35
-5 4 13 3.7 0.08
-4 4 13 16.01 0.16
-3 4 13 7.47 0.09
-2 4 13 0.43 0.14
-1 4 13 28.74 0.49
0 4 13 38.91 0.55
1 4 13 29.83 0.43
2 4 13 0.09 0.07
3 4 13 7.32 0.11
4 4 13 15.75 0.16
5 4 13 3.47 0.06
6 4 13 26.4 0.35
7 4 13 6.86 0.17
8 4 13 27.03 0.37
9 4 13 3.55 0.11
10 4 13 4.19 0.15
11 4 13 8.52 0.26
12 4 13 0.46 0.06
-11 5 13 1.64 0.1
-10 5 13 0.3 0.05
-9 5 13 5.21 0.13
-8 5 13 13.85 0.25
-7 5 13 6.53 0.12
-6 5 13 35.81 0.38
-5 5 13 9.36 0.14
-4 5 13 3.18 0.06
-3 5 13 13.39 0.15
-2 5 13 0.08 0.03
-1 5 13 14.06 0.16
0 5 13 7.58 0.1
1 5 13 13.83 0.17
2 5 13 0.1 0.06
3 5 13 13.15 0.15
4 5 13 2.95 0.06
5 5 13 9.13 0.11
6 5 13 35.52 0.37
7 5 13 6.25 0.12
8 5 13 13.94 0.23
9 5 13 5.01 0.13
10 5 13 0.28 0.06
11 5 13 1.43 0.09
12 5 13 0.15 0.05
-11 6 13 0.88 0.11
-10 6 13 2.3 0.1
-9 6 13 6.19 0.14
-8 6 13 4.78 0.13
-7 6 13 7.66 0.15
-6 6 13 17.01 0.21
-5 6 13 4.65 0.09
-4 6 13 2.61 0.06
-3 6 13 2.38 0.06
-2 6 13 6.66 0.1
-1 6 13 75.48 0.57
0 6 13 14.59 0.14
1 6 13 74.48 0.73
2 6 13 6.45 0.1
3 6 13 2.38 0.09
4 6 13 2.36 0.06
5 6 13 4.59 0.1
6 6 13 16.76 0.19
7 6 13 7.61 0.11
8 6 13 4.76 0.1
9 6 13 6.03 0.18
10 6 13 2.36 0.11
11 6 13 1 0.08
-11 7 13 2.49 0.08
-10 7 13 3.26 0.1
-9 7 13 4.79 0.13
-8 7 13 9.62 0.22
-7 7 13 4.33 0.13
-6 7 13 5.64 0.17
-5 7 13 2.06 0.07
-4 7 13 21.23 0.29
-3 7 13 10.46 0.12
-2 7 13 2.99 0.06
-1 7 13 17.26 0.16
0 7 13 0.03 0.03
1 7 13 17.3 0.22
2 7 13 2.79 0.09
3 7 13 10.51 0.12
4 7 13 21.2 0.23
5 7 13 2.01 0.06
6 7 13 5.6 0.08
7 7 13 4.14 0.09
8 7 13 9.85 0.17
9 7 13 4.54 0.37
10 7 13 3.02 0.12
11 7 13 2.41 0.1
-10 8 13 0.05 0.04
-9 8 13 4.2 0.11
-8 8 13 1.72 0.09
-7 8 13 2.17 0.1
-6 8 13 3.77 0.11
-5 8 13 0.14 0.05
-4 8 13 11.16 0.18
-3 8 13 16.34 0.19
-2 8 13 1.68 0.04
-1 8 13 14 0.14
0 8 13 25.41 0.23
1 8 13 14.27 0.17
2 8 13 1.76 0.07
3 8 13 16.31 0.36
4 8 13 11.24 0.18
5 8 13 0.16 0.07
6 8 13 3.76 0.08
7 8 13 2.08 0.06
8 8 13 1.85 0.07
9 8 13 4.3 0.19
10 8 13 0.11 0.05
-9 9 13 0.27 0.04
-8 9 13 1.41 0.16
-7 9 13 2.93 0.12
-6 9 13 3.32 0.12
-5 9 13 4.05 0.11
-4 9 13 1.33 0.11
-3 9 13 1.56 0.06
-2 9 13 13.14 0.15
-1 9 13 27.47 0.25
0 9 13 2.29 0.06
1 9 13 27.25 0.31
2 9 13 13.37 0.19
3 9 13 1.78 0.08
4 9 13 1.4 0.08
5 9 13 4.14 0.11
6 9 13 3.26 0.1
7 9 13 2.91 0.09
8 9 13 1.4 0.06
9 9 13 0.39 0.07
-8 10 13 3.93 0.1
-7 10 13 0.08 0.06
-6 10 13 3.4 0.11
-5 10 13 14.44 0.22
-4 10 13 0.09 0.06
-3 10 13 8.95 0.14
-2 10 13 0.52 0.05
-1 10 13 5.39 0.09
0 10 13 0.04 0.04
1 10 13 5.34 0.16
2 10 13 0.37 0.06
3 10 13 8.94 0.19
4 10 13 -0.05 0.07
5 10 13 14.76 0.24
6 10 13 3.3 0.1
7 10 13 0.1 0.05
8 10 13 3.7 0.12
-7 11 13 4.41 0.11
-6 11 13 1.23 0.07
-5 11 13 1.55 0.09
-4 11 13 2.13 0.1
-3 11 13 5.21 0.12
-2 11 13 4.26 0.1
-1 11 13 4.25 0.08
0 11 13 4.54 0.1
1 11 13 4.2 0.09
2 11 13 4.49 0.11
3 11 13 5.16 0.14
4 11 13 2.17 0.1
5 11 13 1.65 0.11
6 11 13 1.23 0.08
7 11 13 4.26 0.22
-5 12 13 0.5 0.07
-4 12 13 1.39 0.08
-3 12 13 0.54 0.07
-2 12 13 2.66 0.09
-1 12 13 2.23 0.07
0 12 13 5.55 0.1
1 12 13 2.19 0.07
2 12 13 2.69 0.1
3 12 13 0.5 0.06
4 12 13 1.41 0.08
5 12 13 0.51 0.06
-2 13 13 0.64 0.07
-1 13 13 2.17 0.15
0 13 13 4.69 0.11
1 13 13 2.18 0.07
2 13 13 0.55 0.11
0 0 14 55.62 2.76
1 0 14 28.39 0.39
2 0 14 14.15 0.23
3 0 14 17.45 0.31
4 0 14 95.42 0.93
5 0 14 1.5 0.04
6 0 14 5.39 0.08
7 0 14 0.36 0.03
8 0 14 6.06 0.11
9 0 14 0.77 0.05
10 0 14 23.86 0.66
11 0 14 3.37 0.13
-10 1 14 4.29 0.21
-9 1 14 3.09 0.2
-8 1 14 1 0.05
-7 1 14 15.08 0.18
-6 1 14 17.66 0.21
-5 1 14 22 0.23
-4 1 14 29.75 0.31
-3 1 14 84.61 1.12
-2 1 14 41.64 0.53
-1 1 14 20.17 0.29
0 1 14 2.33 0.11
1 1 14 19.71 0.33
2 1 14 41.24 0.72
3 1 14 82.79 1.4
4 1 14 29.8 0.33
5 1 14 22.06 0.23
6 1 14 17.57 0.19
7 1 14 15.02 0.18
8 1 14 1.05 0.06
9 1 14 3.12 0.1
10 1 14 3.93 0.12
11 1 14 5.1 0.18
12 1 14 5.82 0.18
-11 2 14 1.73 0.15
-10 2 14 7.64 0.28
-9 2 14 33.65 0.93
-8 2 14 3.49 0.11
-7 2 14 19.63 0.26
-6 2 14 5.67 0.14
-5 2 14 63.8 0.6
-4 2 14 8.41 0.1
-3 2 14 32.56 0.53
-2 2 14 22.67 0.34
-1 2 14 37.63 0.54
0 2 14 8.04 0.18
1 2 14 36.99 0.57
2 2 14 22.49 0.37
3 2 14 32.23 0.44
4 2 14 8.34 0.11
5 2 14 63.21 0.63
6 2 14 5.69 0.08
7 2 14 19.45 0.25
8 2 14 3.49 0.09
9 2 14 33.26 0.56
10 2 14 7.21 0.49
11 2 14 1.91 0.1
12 2 14 1.22 0.08
-11 3 14 8.45 0.18
-10 3 14 6.41 0.26
-9 3 14 14.1 0.44
-8 3 14 2.25 0.12
-7 3 14 26.25 0.32
-6 3 14 14.96 0.21
-5 3 14 38.68 0.37
-4 3 14 8.78 0.1
-3 3 14 6.16 0.08
-2 3 14 5.6 0.13
-1 3 14 20.56 0.33
0 3 14 2.46 0.1
1 3 14 19.82 0.4
2 3 14 5.99 0.18
3 3 14 5.81 0.09
4 3 14 8.55 0.1
5 3 14 38.68 0.43
6 3 14 14.8 0.19
7 3 14 26.22 0.33
8 3 14 2.27 0.07
9 3 14 13.71 0.26
10 3 14 6.65 0.16
11 3 14 8.74 0.26
-11 4 14 13.91 0.33
-10 4 14 1.56 0.09
-9 4 14 2.98 0.12
-8 4 14 15.81 0.28
-7 4 14 13.63 0.26
-6 4 14 7.25 0.13
-5 4 14 4.45 0.08
-4 4 14 4.19 0.07
-3 4 14 15.13 0.15
-2 4 14 9.55 0.11
-1 4 14 32.59 0.34
0 4 14 3.61 0.09
1 4 14 32.57 0.35
2 4 14 9.51 0.12
3 4 14 15.01 0.15
4 4 14 4.14 0.07
5 4 14 4.42 0.1
6 4 14 7.05 0.13
7 4 14 13.9 0.21
8 4 14 15.38 0.23
9 4 14 3.01 0.13
10 4 14 1.51 0.1
11 4 14 13.27 0.4
12 4 14 0.56 0.06
-11 5 14 0.26 0.05
-10 5 14 0.95 0.06
-9 5 14 3.27 0.11
-8 5 14 3.64 0.13
-7 5 14 1.98 0.1
-6 5 14 30.2 0.36
-5 5 14 19.88 0.21
-4 5 14 50.38 0.45
-3 5 14 25.43 0.25
-2 5 14 3.84 0.06
-1 5 14 8.37 0.09
0 5 14 31.36 0.28
1 5 14 8.38 0.11
2 5 14 3.94 0.07
3 5 14 25.33 0.26
4 5 14 49.74 0.47
5 5 14 19.65 0.28
6 5 14 30.01 0.32
7 5 14 2.1 0.08
8 5 14 3.52 0.1
9 5 14 3.43 0.1
10 5 14 0.92 0.09
11 5 14 0.19 0.06
-11 6 14 4.23 0.19
-10 6 14 0.73 0.09
-9 6 14 7.49 0.16
-8 6 14 7.4 0.18
-7 6 14 5.74 0.22
-6 6 14 6.62 0.11
-5 6 14 11.13 0.16
-4 6 14 21.55 0.23
-3 6 14 23.05 0.22
-2 6 14 52.62 0.47
-1 6 14 19.84 0.18
0 6 14 4.78 0.08
1 6 14 19.98 0.22
2 6 14 52.5 0.49
3 6 14 23.08 0.23
4 6 14 22.09 0.23
5 6 14 11.19 0.13
6 6 14 6.48 0.15
7 6 14 5.98 0.11
8 6 14 7.31 0.14
9 6 14 7.41 0.2
10 6 14 0.78 0.07
11 6 14 4.12 0.14
-10 7 14 1.84 0.08
-9 7 14 6.85 0.16
-8 7 14 1.05 0.08
-7 7 14 11.11 0.21
-6 7 14 3.62 0.1
-5 7 14 21.04 0.26
-4 7 14 3.29 0.07
-3 7 14 22.06 0.21
-2 7 14 5.21 0.08
-1 7 14 12.66 0.13
0 7 14 9.25 0.1
1 7 14 12.54 0.19
2 7 14 4.96 0.11
3 7 14 21.98 0.23
4 7 14 3.3 0.07
5 7 14 21.53 0.24
6 7 14 3.55 0.08
7 7 14 10.87 0.16
8 7 14 0.96 0.05
9 7 14 6.75 0.22
10 7 14 1.78 0.09
-10 8 14 3.25 0.17
-9 8 14 1.97 0.07
-8 8 14 3.52 0.12
-7 8 14 4.12 0.13
-6 8 14 1.84 0.15
-5 8 14 2.78 0.1
-4 8 14 12.07 0.18
-3 8 14 6.94 0.09
-2 8 14 9.69 0.11
-1 8 14 2.17 0.06
0 8 14 0.01 0.03
1 8 14 2.04 0.09
2 8 14 9.69 0.16
3 8 14 6.97 0.15
4 8 14 12.35 0.33
5 8 14 2.74 0.07
6 8 14 1.88 0.06
7 8 14 4.1 0.09
8 8 14 3.54 0.09
9 8 14 1.87 0.1
-9 9 14 2.17 0.08
-8 9 14 0.6 0.06
-7 9 14 0.61 0.14
-6 9 14 0.89 0.1
-5 9 14 0.61 0.06
-4 9 14 1.46 0.07
-3 9 14 11.87 0.16
-2 9 14 4.28 0.08
-1 9 14 5.34 0.09
0 9 14 18.13 0.18
1 9 14 5.3 0.1
2 9 14 4.26 0.17
3 9 14 12.3 0.21
4 9 14 1.58 0.1
5 9 14 0.64 0.07
6 9 14 0.86 0.06
7 9 14 0.67 0.06
8 9 14 0.49 0.06
-8 10 14 2.55 0.09
-7 10 14 0.31 0.06
-6 10 14 2.81 0.1
-5 10 14 0.23 0.06
-4 10 14 7.13 0.19
-3 10 14 0.78 0.06
-2 10 14 13.89 0.18
-1 10 14 2.28 0.06
0 10 14 2.57 0.07
1 10 14 2.31 0.11
2 10 14 13.9 0.28
3 10 14 0.75 0.07
4 10 14 7.32 0.18
5 10 14 0.25 0.06
6 10 14 2.92 0.09
7 10 14 0.3 0.05
8 10 14 2.42 0.12
-7 11 14 3.65 0.18
-6 11 14 1.06 0.07
-5 11 14 0.4 0.06
-4 11 14 4.12 0.1
-3 11 14 6.56 0.13
-2 11 14 1.08 0.08
-1 11 14 0.8 0.05
0 11 14 3.43 0.08
1 11 14 0.8 0.06
2 11 14 1.12 0.06
3 11 14 6.42 0.28
4 11 14 4.25 0.12
5 11 14 0.42 0.07
6 11 14 1.03 0.06
-5 12 14 5.55 0.13
-4 12 14 1.05 0.07
-3 12 14 0.74 0.12
-2 12 14 0.12 0.06
-1 12 14 1.02 0.05
0 12 14 1.1 0.06
1 12 14 1.07 0.07
2 12 14 0.13 0.06
3 12 14 0.7 0.06
4 12 14 0.98 0.06
5 12 14 5.6 0.14
-1 13 14 0.99 0.2
0 13 14 0.45 0.2
1 13 14 0.88 0.1
1 0 15 66.81 0.85
2 0 15 136.35 1.68
3 0 15 59.08 0.62
4 0 15 29.83 0.29
5 0 15 9.96 0.12
6 0 15 0.41 0.07
7 0 15 0.24 0.04
8 0 15 0.06 0.05
9 0 15 21.43 0.36
10 0 15 2 0.11
-10 1 15 5.15 0.22
-9 1 15 11.27 0.25
-8 1 15 22.3 0.34
-7 1 15 19.57 0.23
-6 1 15 6.11 0.1
-5 1 15 19.63 0.21
-4 1 15 1.73 0.05
-3 1 15 24.55 0.27
-2 1 15 21.52 0.33
-1 1 15 57.3 0.74
0 1 15 62.41 0.8
1 1 15 56.1 0.83
2 1 15 21.13 0.41
3 1 15 24.57 0.3
4 1 15 1.53 0.04
5 1 15 19.4 0.2
6 1 15 6.01 0.09
7 1 15 19.28 0.22
8 1 15 22.49 0.27
9 1 15 11.62 0.22
10 1 15 5.01 0.13
11 1 15 3.16 0.13
12 1 15 0.52 0.06
-10 2 15 1.34 0.13
-9 2 15 0.37 0.11
-8 2 15 3.06 0.11
-7 2 15 18.69 0.25
-6 2 15 33.84 0.38
-5 2 15 6.66 0.09
-4 2 15 7.1 0.09
-3 2 15 11.05 0.12
-2 2 15 22.73 0.24
-1 2 15 13.21 0.25
0 2 15 47.3 0.69
1 2 15 13.27 0.25
2 2 15 22.97 0.36
3 2 15 11.07 0.14
4 2 15 7.03 0.1
5 2 15 6.6 0.09
6 2 15 33.82 0.38
7 2 15 18.32 0.23
8 2 15 2.95 0.08
9 2 15 0.17 0.05
10 2 15 1.39 0.08
11 2 15 0.59 0.06
12 2 15 2.13 0.1
-12 3 15 0.39 0.1
-11 3 15 15.37 0.39
-10 3 15 0.28 0.1
-9 3 15 2.23 0.2
-8 3 15 9.67 0.21
-7 3 15 20.72 0.26
-6 3 15 3.72 0.09
-5 3 15 23.61 0.24
-4 3 15 23.96 0.23
-3 3 15 6.74 0.11
-2 3 15 7.91 0.09
-1 3 15 0.78 0.03
0 3 15 18.21 0.2
1 3 15 0.73 0.07
2 3 15 7.82 0.1
3 3 15 6.41 0.08
4 3 15 23.59 0.23
5 3 15 23.18 0.27
6 3 15 3.47 0.08
7 3 15 20.34 0.32
8 3 15 9.6 0.15
9 3 15 2.33 0.09
10 3 15 0.16 0.05
12 3 15 0.32 0.05
-11 4 15 2.3 0.08
-10 4 15 1.71 0.08
-9 4 15 12.82 0.24
-8 4 15 1.06 0.13
-7 4 15 0.81 0.07
-6 4 15 30.02 0.34
-5 4 15 1.26 0.04
-4 4 15 21.53 0.22
-3 4 15 43 0.39
-2 4 15 7.79 0.1
-1 4 15 27.84 0.27
0 4 15 8 0.1
1 4 15 28.07 0.3
2 4 15 7.86 0.1
3 4 15 42.08 0.47
4 4 15 21.34 0.21
5 4 15 1.27 0.04
6 4 15 29.52 0.4
7 4 15 0.83 0.05
8 4 15 0.87 0.05
9 4 15 12.88 0.24
10 4 15 1.46 0.1
11 4 15 2.18 0.11
-11 5 15 0.56 0.05
-10 5 15 0.73 0.06
-9 5 15 0.76 0.06
-8 5 15 4.11 0.12
-7 5 15 8.33 0.14
-6 5 15 6.26 0.11
-5 5 15 1.05 0.05
-4 5 15 10.58 0.12
-3 5 15 2.86 0.06
-2 5 15 2.11 0.05
-1 5 15 122.73 1.01
0 5 15 9.04 0.23
1 5 15 123.08 1.14
2 5 15 2.15 0.06
3 5 15 2.61 0.06
4 5 15 10.44 0.12
5 5 15 1.05 0.05
6 5 15 6.39 0.11
7 5 15 8.35 0.14
8 5 15 3.99 0.1
9 5 15 0.78 0.06
10 5 15 0.56 0.07
11 5 15 0.51 0.06
-11 6 15 2.01 0.14
-10 6 15 0.36 0.05
-9 6 15 11.18 0.29
-8 6 15 17.47 0.3
-7 6 15 1.34 0.07
-6 6 15 17.63 0.23
-5 6 15 0.58 0.04
-4 6 15 3.38 0.08
-3 6 15 16.55 0.22
-2 6 15 1.4 0.05
-1 6 15 9.98 0.11
0 6 15 11.95 0.13
1 6 15 10.33 0.14
2 6 15 1.33 0.06
3 6 15 16.34 0.19
4 6 15 3.21 0.1
5 6 15 0.6 0.04
6 6 15 18.04 0.2
7 6 15 1.27 0.07
8 6 15 16.84 0.33
9 6 15 10.63 0.27
10 6 15 0.3 0.06
11 6 15 2.04 0.09
-10 7 15 5.01 0.12
-9 7 15 1.89 0.09
-8 7 15 3.85 0.11
-7 7 15 2.56 0.1
-6 7 15 8.99 0.16
-5 7 15 0.98 0.06
-4 7 15 21.54 0.26
-3 7 15 8.86 0.11
-2 7 15 7.91 0.1
-1 7 15 7.51 0.09
0 7 15 10.16 0.14
1 7 15 7.34 0.11
2 7 15 8.04 0.14
3 7 15 8.64 0.11
4 7 15 21.47 0.24
5 7 15 1 0.05
6 7 15 9.08 0.13
7 7 15 2.57 0.07
8 7 15 3.55 0.11
9 7 15 1.79 0.09
10 7 15 5 0.17
-9 8 15 1.34 0.06
-8 8 15 6.61 0.16
-7 8 15 2.97 0.12
-6 8 15 5.65 0.16
-5 8 15 5.05 0.11
-4 8 15 15.6 0.26
-3 8 15 0.21 0.04
-2 8 15 2.52 0.07
-1 8 15 10.71 0.12
0 8 15 0.24 0.04
1 8 15 10.75 0.15
2 8 15 2.65 0.09
3 8 15 0.27 0.06
4 8 15 15.93 0.26
5 8 15 5 0.1
6 8 15 5.63 0.1
7 8 15 2.8 0.09
8 8 15 6.43 0.12
9 8 15 1.07 0.08
-8 9 15 5.92 0.2
-7 9 15 0.39 0.06
-6 9 15 13.71 0.32
-5 9 15 3.2 0.12
-4 9 15 2.09 0.08
-3 9 15 0.76 0.05
-2 9 15 3.36 0.07
-1 9 15 1.68 0.06
0 9 15 12.58 0.15
1 9 15 1.58 0.07
2 9 15 3.43 0.11
3 9 15 0.86 0.07
4 9 15 2.28 0.1
5 9 15 3.45 0.11
6 9 15 13.83 0.22
7 9 15 0.32 0.05
8 9 15 6.07 0.13
-7 10 15 0.25 0.06
-6 10 15 0.49 0.06
-5 10 15 1.77 0.07
-4 10 15 5.17 0.12
-3 10 15 0.97 0.06
-2 10 15 10.17 0.13
-1 10 15 7.26 0.1
0 10 15 0.94 0.06
1 10 15 7.08 0.13
2 10 15 10.1 0.16
3 10 15 0.9 0.07
4 10 15 5.37 0.21
5 10 15 1.84 0.09
6 10 15 0.63 0.08
7 10 15 0.16 0.05
-6 11 15 1.36 0.08
-5 11 15 4.96 0.15
-4 11 15 1.34 0.06
-3 11 15 3.35 0.09
-2 11 15 3.13 0.14
-1 11 15 0.73 0.05
0 11 15 0.86 0.05
1 11 15 0.76 0.06
2 11 15 3.14 0.09
3 11 15 3.37 0.17
4 11 15 1.38 0.07
5 11 15 4.9 0.14
6 11 15 1.32 0.06
-4 12 15 1.65 0.08
-3 12 15 2.25 0.08
-2 12 15 1.62 0.07
-1 12 15 0.62 0.06
0 12 15 9.12 0.15
1 12 15 0.82 0.06
2 12 15 1.6 0.07
3 12 15 2.29 0.08
4 12 15 1.77 0.12
0 0 16 17.87 0.33
1 0 16 0.91 0.1
2 0 16 2.64 0.08
3 0 16 103.1 0.97
4 0 16 58.66 0.55
5 0 16 7.74 0.1
6 0 16 24.2 0.28
7 0 16 46.23 0.49
8 0 16 0.26 0.04
9 0 16 6.68 0.14
10 0 16 0.39 0.06
-10 1 16 14.61 0.44
-9 1 16 19.31 0.39
-8 1 16 2.39 0.1
-7 1 16 11.87 0.14
-6 1 16 2.47 0.06
-5 1 16 43.83 0.4
-4 1 16 12.64 0.14
-3 1 16 5.63 0.08
-2 1 16 17.72 0.16
-1 1 16 42.39 0.42
0 1 16 20.42 0.26
1 1 16 42.37 0.51
2 1 16 17.52 0.21
3 1 16 5.34 0.07
4 1 16 12.46 0.15
5 1 16 43.94 0.43
6 1 16 2.22 0.06
7 1 16 11.7 0.15
8 1 16 2.46 0.08
9 1 16 20.16 0.42
10 1 16 14.13 0.47
11 1 16 7.03 0.22
-12 2 16 7.03 0.3
-11 2 16 2.31 0.12
-10 2 16 4.13 0.2
-9 2 16 6.54 0.26
-8 2 16 1.48 0.08
-7 2 16 1.65 0.07
-6 2 16 8.3 0.15
-5 2 16 0.83 0.04
-4 2 16 15.81 0.16
-3 2 16 1.93 0.06
-2 2 16 50.8 0.43
-1 2 16 3.72 0.07
0 2 16 21.26 0.25
1 2 16 3.75 0.07
2 2 16 50.63 0.47
3 2 16 1.82 0.05
4 2 16 15.81 0.19
5 2 16 0.77 0.04
6 2 16 8.21 0.12
7 2 16 1.58 0.06
8 2 16 1.32 0.07
9 2 16 6.14 0.14
10 2 16 3.99 0.2
11 2 16 2.33 0.11
-11 3 16 4.03 0.1
-10 3 16 1.83 0.1
-9 3 16 4.72 0.23
-8 3 16 7.59 0.29
-7 3 16 1.19 0.1
-6 3 16 23.45 0.31
-5 3 16 6.66 0.09
-4 3 16 8.99 0.11
-3 3 16 0.88 0.03
-2 3 16 22.14 0.21
-1 3 16 23.94 0.23
0 3 16 30.97 0.3
1 3 16 23.64 0.23
2 3 16 21.86 0.21
3 3 16 0.83 0.03
4 3 16 8.96 0.11
5 3 16 6.53 0.11
6 3 16 23.65 0.29
7 3 16 1.07 0.05
8 3 16 7.26 0.16
9 3 16 4.72 0.12
10 3 16 1.6 0.08
11 3 16 3.99 0.15
-11 4 16 3.44 0.09
-10 4 16 0.44 0.05
-9 4 16 0.29 0.06
-8 4 16 5.4 0.22
-7 4 16 1.56 0.06
-6 4 16 10.55 0.16
-5 4 16 10.54 0.16
-4 4 16 35.74 0.33
-3 4 16 13.32 0.14
-2 4 16 9.27 0.14
-1 4 16 34.34 0.3
0 4 16 53.01 0.53
1 4 16 34.18 0.37
2 4 16 9.11 0.1
3 4 16 13.1 0.13
4 4 16 35.67 0.34
5 4 16 10.45 0.12
6 4 16 10.19 0.17
7 4 16 1.54 0.06
8 4 16 5.46 0.13
9 4 16 0.35 0.05
10 4 16 0.27 0.06
11 4 16 3.31 0.13
-11 5 16 3.43 0.16
-10 5 16 0.13 0.05
-9 5 16 0.49 0.06
-8 5 16 4.89 0.13
-7 5 16 2.4 0.13
-6 5 16 3.04 0.09
-5 5 16 8.09 0.12
-4 5 16 9.93 0.11
-3 5 16 29.24 0.26
-2 5 16 34.43 0.3
-1 5 16 36.35 0.31
0 5 16 2.67 0.08
1 5 16 36.24 0.39
2 5 16 34.64 0.47
3 5 16 28.82 0.3
4 5 16 9.66 0.11
5 5 16 7.84 0.11
6 5 16 3.07 0.08
7 5 16 2.27 0.08
8 5 16 4.49 0.14
9 5 16 0.41 0.05
10 5 16 0.12 0.06
11 5 16 3.49 0.13
-10 6 16 5.3 0.12
-9 6 16 3.07 0.25
-8 6 16 7.82 0.16
-7 6 16 -0.04 0.06
-6 6 16 10.1 0.31
-5 6 16 6.4 0.11
-4 6 16 13.11 0.14
-3 6 16 15.68 0.16
-2 6 16 4.84 0.07
-1 6 16 6.71 0.09
0 6 16 4.05 0.08
1 6 16 6.83 0.13
2 6 16 4.74 0.09
3 6 16 15.7 0.18
4 6 16 13.35 0.16
5 6 16 6.6 0.1
6 6 16 9.93 0.16
7 6 16 -0.01 0.05
8 6 16 7.48 0.15
9 6 16 2.68 0.15
10 6 16 5.38 0.18
-10 7 16 0.77 0.06
-9 7 16 0.26 0.06
-8 7 16 10.63 0.2
-7 7 16 0.01 0.06
-6 7 16 7.32 0.16
-5 7 16 5.44 0.11
-4 7 16 16.01 0.2
-3 7 16 9.86 0.13
-2 7 16 7.03 0.09
-1 7 16 7.11 0.09
0 7 16 2.36 0.11
1 7 16 7.04 0.11
2 7 16 7.04 0.11
3 7 16 9.96 0.18
4 7 16 16.17 0.24
5 7 16 5.5 0.09
6 7 16 7.27 0.12
7 7 16 0.08 0.04
8 7 16 10.49 0.22
9 7 16 0.21 0.09
10 7 16 0.78 0.07
-9 8 16 2.67 0.09
-8 8 16 1.64 0.09
-7 8 16 5.08 0.14
-6 8 16 6.4 0.17
-5 8 16 3.29 0.09
-4 8 16 1.9 0.07
-3 8 16 5.47 0.09
-2 8 16 7.39 0.1
-1 8 16 3.32 0.07
0 8 16 13.97 0.18
1 8 16 3.29 0.09
2 8 16 7.3 0.13
3 8 16 5.47 0.13
4 8 16 1.67 0.1
5 8 16 3.35 0.09
6 8 16 6.38 0.11
7 8 16 4.84 0.09
8 8 16 1.54 0.08
9 8 16 2.6 0.11
-8 9 16 2.11 0.08
-7 9 16 3.81 0.13
-6 9 16 1.31 0.07
-5 9 16 2.3 0.15
-4 9 16 1.53 0.07
-3 9 16 0.38 0.04
-2 9 16 7.31 0.1
-1 9 16 2.61 0.08
0 9 16 0.06 0.05
1 9 16 2.56 0.09
2 9 16 7.38 0.14
3 9 16 0.39 0.06
4 9 16 1.61 0.09
5 9 16 2.47 0.09
6 9 16 1.32 0.07
7 9 16 4.09 0.09
8 9 16 2.37 0.11
-7 10 16 4.59 0.11
-6 10 16 1.27 0.11
-5 10 16 0.72 0.06
-4 10 16 4.19 0.1
-3 10 16 5.97 0.12
-2 10 16 0.92 0.05
-1 10 16 0.86 0.06
0 10 16 0.18 0.05
1 10 16 0.7 0.06
2 10 16 0.93 0.06
3 10 16 5.92 0.13
4 10 16 4.24 0.13
5 10 16 0.66 0.05
6 10 16 1.22 0.06
7 10 16 4.68 0.13
-6 11 16 0.07 0.06
-5 11 16 2.84 0.1
-4 11 16 2.46 0.08
-3 11 16 3.93 0.1
-2 11 16 0.28 0.07
-1 11 16 1.45 0.05
0 11 16 10.16 0.14
1 11 16 1.41 0.07
2 11 16 0.23 0.06
3 11 16 3.96 0.13
4 11 16 2.66 0.09
5 11 16 3.12 0.09
-3 12 16 1.06 0.07
-2 12 16 9.73 0.16
-1 12 16 2.3 0.1
0 12 16 0.25 0.05
1 12 16 2.38 0.08
2 12 16 9.94 0.17
3 12 16 1.04 0.06
1 0 17 0.77 0.03
2 0 17 44.34 0.39
3 0 17 31.91 0.32
4 0 17 2.16 0.06
5 0 17 41.57 0.42
6 0 17 13.79 0.17
7 0 17 0.45 0.04
8 0 17 3.72 0.1
9 0 17 7.59 0.23
10 0 17 3.14 0.13
-9 1 17 8.07 0.23
-8 1 17 11.3 0.2
-7 1 17 9.97 0.13
-6 1 17 11.59 0.17
-5 1 17 7.14 0.09
-4 1 17 15.71 0.17
-3 1 17 15.16 0.15
-2 1 17 52.69 0.42
-1 1 17 16.95 0.15
0 1 17 22.04 0.21
1 1 17 16.71 0.21
2 1 17 53.15 0.44
3 1 17 15.27 0.15
4 1 17 15.54 0.18
5 1 17 6.77 0.09
6 1 17 11.39 0.14
7 1 17 10.05 0.13
8 1 17 11.55 0.22
9 1 17 8.05 0.18
10 1 17 1.11 0.12
11 1 17 1.05 0.08
-11 2 17 9.23 0.21
-10 2 17 2.69 0.17
-9 2 17 1.67 0.13
-8 2 17 10.82 0.24
-7 2 17 24.36 0.32
-6 2 17 20.43 0.25
-5 2 17 2.68 0.06
-4 2 17 21.87 0.21
-3 2 17 7.08 0.09
-2 2 17 0.16 0.03
-1 2 17 6.81 0.08
0 2 17 26.1 0.26
1 2 17 6.79 0.09
2 2 17 0.16 0.03
3 2 17 6.97 0.09
4 2 17 21.59 0.24
5 2 17 2.59 0.07
6 2 17 20.49 0.23
7 2 17 24.63 0.3
8 2 17 10.94 0.21
9 2 17 1.61 0.07
10 2 17 2.64 0.1
11 2 17 9.27 0.28
-11 3 17 3.28 0.11
-10 3 17 2.88 0.1
-9 3 17 8.5 0.24
-8 3 17 4.13 0.12
-7 3 17 1.34 0.07
-6 3 17 13.59 0.17
-5 3 17 1.33 0.05
-4 3 17 15.27 0.16
-3 3 17 4.75 0.08
-2 3 17 13.51 0.14
-1 3 17 15.92 0.16
0 3 17 22.97 0.24
1 3 17 16.04 0.18
2 3 17 13.45 0.15
3 3 17 4.84 0.08
4 3 17 15.17 0.17
5 3 17 1.26 0.05
6 3 17 13.5 0.18
7 3 17 1.28 0.06
8 3 17 4.15 0.12
9 3 17 8.31 0.22
10 3 17 2.88 0.1
11 3 17 3.32 0.13
-11 4 17 3.5 0.1
-10 4 17 4.41 0.11
-9 4 17 0.24 0.06
-8 4 17 0.06 0.08
-7 4 17 5.2 0.12
-6 4 17 18.42 0.23
-5 4 17 3.68 0.08
-4 4 17 29.58 0.28
-3 4 17 0.05 0.03
-2 4 17 10.97 0.13
-1 4 17 10.07 0.12
0 4 17 0.38 0.03
1 4 17 10.07 0.13
2 4 17 10.73 0.12
3 4 17 0.07 0.03
4 4 17 29.13 0.29
5 4 17 3.81 0.08
6 4 17 18.21 0.26
7 4 17 5.33 0.11
8 4 17 0.02 0.05
9 4 17 0.25 0.05
10 4 17 4.1 0.15
11 4 17 3.53 0.13
-10 5 17 1.06 0.06
-9 5 17 13.92 0.25
-8 5 17 22.74 0.38
-7 5 17 1.72 0.09
-6 5 17 24.25 0.33
-5 5 17 0.97 0.05
-4 5 17 5.59 0.08
-3 5 17 10.69 0.11
-2 5 17 9.34 0.11
-1 5 17 1.79 0.05
0 5 17 6.97 0.1
1 5 17 1.87 0.07
2 5 17 9.03 0.16
3 5 17 10.56 0.12
4 5 17 5.64 0.08
5 5 17 0.95 0.04
6 5 17 23.92 0.37
7 5 17 1.59 0.07
8 5 17 22.63 0.4
9 5 17 13.45 0.3
10 5 17 0.97 0.09
11 5 17 3.97 0.14
-10 6 17 3.76 0.11
-9 6 17 0.37 0.05
-8 6 17 4.56 0.12
-7 6 17 3.17 0.11
-6 6 17 9.69 0.21
-5 6 17 0.67 0.05
-4 6 17 39.49 0.36
-3 6 17 6.7 0.09
-2 6 17 7.39 0.1
-1 6 17 34.8 0.34
0 6 17 4.79 0.09
1 6 17 34.5 0.38
2 6 17 7.24 0.18
3 6 17 6.71 0.14
4 6 17 40.18 0.37
5 6 17 0.67 0.04
6 6 17 9.68 0.14
7 6 17 3.28 0.09
8 6 17 4.67 0.11
9 6 17 0.24 0.06
10 6 17 3.41 0.13
-9 7 17 5.98 0.14
-8 7 17 2.91 0.11
-7 7 17 0.33 0.07
-6 7 17 5.96 0.14
-5 7 17 1.37 0.06
-4 7 17 10.21 0.14
-3 7 17 15.9 0.16
-2 7 17 2.33 0.1
-1 7 17 17.42 0.2
0 7 17 4.22 0.09
1 7 17 17.67 0.22
2 7 17 2.26 0.07
3 7 17 15.76 0.17
4 7 17 9.99 0.13
5 7 17 1.23 0.05
6 7 17 5.93 0.09
7 7 17 0.24 0.06
8 7 17 2.68 0.09
9 7 17 6.13 0.38
-9 8 17 0.02 0.05
-8 8 17 4.73 0.13
-7 8 17 0.6 0.07
-6 8 17 7.63 0.15
-5 8 17 1.87 0.07
-4 8 17 3.36 0.08
-3 8 17 1.72 0.05
-2 8 17 1.75 0.05
-1 8 17 8.77 0.12
0 8 17 7.11 0.12
1 8 17 8.81 0.14
2 8 17 1.71 0.07
3 8 17 1.83 0.08
4 8 17 3.47 0.13
5 8 17 1.76 0.06
6 8 17 7.75 0.12
7 8 17 0.56 0.04
8 8 17 4.61 0.16
-8 9 17 0.03 0.05
-7 9 17 2.22 0.09
-6 9 17 0.2 0.06
-5 9 17 6 0.12
-4 9 17 1.46 0.07
-3 9 17 1.91 0.08
-2 9 17 1.45 0.05
-1 9 17 12.03 0.14
0 9 17 -0.05 0.05
1 9 17 11.96 0.18
2 9 17 1.39 0.07
3 9 17 1.88 0.08
4 9 17 1.54 0.09
5 9 17 6.22 0.12
6 9 17 0.07 0.05
7 9 17 2.35 0.07
8 9 17 -0.03 0.14
-6 10 17 1.02 0.06
-5 10 17 6.2 0.14
-4 10 17 1.97 0.08
-3 10 17 5.89 0.12
-2 10 17 3.58 0.07
-1 10 17 1.03 0.05
0 10 17 5.67 0.12
1 10 17 0.97 0.07
2 10 17 3.32 0.09
3 10 17 5.99 0.14
4 10 17 2.12 0.08
5 10 17 6.41 0.11
6 10 17 1.03 0.05
-5 11 17 1.39 0.07
-4 11 17 0.24 0.05
-3 11 17 3.73 0.09
-2 11 17 5.94 0.12
-1 11 17 3.07 0.08
0 11 17 2.94 0.1
1 11 17 3.11 0.09
2 11 17 5.86 0.11
3 11 17 3.73 0.13
4 11 17 0.2 0.06
5 11 17 1.36 0.07
-1 12 17 3.43 0.14
0 12 17 0.38 0.09
1 12 17 3.38 0.1
2 12 17 0.32 0.07
0 0 18 134.89 1.5
1 0 18 33.29 0.3
2 0 18 11.48 0.13
3 0 18 15.05 0.17
4 0 18 5.43 0.09
5 0 18 1.03 0.04
6 0 18 4.14 0.08
7 0 18 0.66 0.06
8 0 18 0.2 0.05
9 0 18 3.97 0.12
10 0 18 15.49 0.31
11 0 18 1.24 0.15
-11 1 18 0.33 0.11
-9 1 18 5.62 0.16
-8 1 18 1.7 0.09
-7 1 18 22.76 0.26
-6 1 18 6.13 0.11
-5 1 18 3.53 0.06
-4 1 18 30.31 0.3
-3 1 18 17.49 0.19
-2 1 18 63.29 0.52
-1 1 18 15.35 0.15
0 1 18 0.4 0.04
1 1 18 15.67 0.16
2 1 18 63.42 0.52
3 1 18 17.6 0.17
4 1 18 29.94 0.3
5 1 18 3.72 0.1
6 1 18 6.15 0.09
7 1 18 22.98 0.28
8 1 18 1.51 0.08
9 1 18 5.54 0.14
10 1 18 0.21 0.05
11 1 18 0.4 0.06
-11 2 18 5.39 0.14
-10 2 18 1.34 0.09
-9 2 18 15.01 0.36
-8 2 18 0.58 0.06
-7 2 18 4.04 0.11
-6 2 18 26.29 0.38
-5 2 18 26.02 0.28
-4 2 18 14.95 0.18
-3 2 18 1.7 0.05
-2 2 18 5.48 0.08
-1 2 18 6.3 0.08
0 2 18 24.38 0.24
1 2 18 6.37 0.09
2 2 18 5.42 0.08
3 2 18 1.58 0.05
4 2 18 14.46 0.18
5 2 18 25.47 0.28
6 2 18 27.09 0.29
7 2 18 3.68 0.09
8 2 18 0.56 0.06
9 2 18 14.91 0.27
10 2 18 1.25 0.07
11 2 18 5.2 0.17
-11 3 18 3.97 0.11
-10 3 18 2.58 0.16
-9 3 18 1.71 0.12
-8 3 18 4.65 0.14
-7 3 18 3.32 0.1
-6 3 18 4.83 0.12
-5 3 18 2.99 0.08
-4 3 18 13.71 0.15
-3 3 18 0.26 0.03
-2 3 18 3.81 0.07
-1 3 18 35.96 0.35
0 3 18 1.85 0.07
1 3 18 36.23 0.34
2 3 18 3.79 0.07
3 3 18 0.16 0.03
4 3 18 13.25 0.16
5 3 18 2.95 0.08
6 3 18 4.93 0.09
7 3 18 3.24 0.09
8 3 18 4.44 0.12
9 3 18 1.59 0.07
10 3 18 2.38 0.09
11 3 18 4.11 0.14
-10 4 18 1.24 0.06
-9 4 18 0.28 0.06
-8 4 18 6.99 0.16
-7 4 18 2.5 0.09
-6 4 18 14.14 0.31
-5 4 18 0.65 0.05
-4 4 18 0.73 0.04
-3 4 18 12.43 0.15
-2 4 18 4.27 0.07
-1 4 18 18.51 0.21
0 4 18 0.5 0.04
1 4 18 18.49 0.22
2 4 18 4.2 0.07
3 4 18 12.19 0.14
4 4 18 0.59 0.04
5 4 18 0.7 0.04
6 4 18 14.23 0.21
7 4 18 2.48 0.1
8 4 18 7.08 0.2
9 4 18 0.42 0.05
10 4 18 0.93 0.09
11 4 18 2.25 0.1
-10 5 18 4.64 0.11
-9 5 18 3.66 0.11
-8 5 18 13.48 0.34
-7 5 18 0.91 0.11
-6 5 18 4.61 0.17
-5 5 18 12.31 0.15
-4 5 18 13.87 0.14
-3 5 18 9.48 0.12
-2 5 18 4.89 0.08
-1 5 18 4.08 0.08
0 5 18 2.66 0.07
1 5 18 4.13 0.08
2 5 18 4.99 0.08
3 5 18 9.47 0.12
4 5 18 14.1 0.15
5 5 18 12.07 0.15
6 5 18 4.33 0.11
7 5 18 0.86 0.07
8 5 18 13.79 0.3
9 5 18 3.55 0.18
10 5 18 4.8 0.16
-10 6 18 0.35 0.09
-9 6 18 1.32 0.07
-8 6 18 6.67 0.15
-7 6 18 2.73 0.1
-6 6 18 3.59 0.11
-5 6 18 8.05 0.13
-4 6 18 7.07 0.13
-3 6 18 31.48 0.28
-2 6 18 3.55 0.07
-1 6 18 28.04 0.3
0 6 18 12.57 0.5
1 6 18 27.95 0.32
2 6 18 3.4 0.08
3 6 18 31.12 0.32
4 6 18 6.83 0.1
5 6 18 7.9 0.11
6 6 18 3.47 0.11
7 6 18 2.89 0.09
8 6 18 6.55 0.36
9 6 18 1.1 0.11
10 6 18 0.48 0.06
-9 7 18 0.16 0.05
-8 7 18 5.22 0.12
-7 7 18 3.29 0.11
-6 7 18 3.09 0.11
-5 7 18 2.52 0.08
-4 7 18 4.18 0.08
-3 7 18 4.53 0.09
-2 7 18 3.48 0.08
-1 7 18 15.88 0.2
0 7 18 0.51 0.05
1 7 18 15.61 0.21
2 7 18 3.66 0.09
3 7 18 4.65 0.09
4 7 18 4.2 0.08
5 7 18 2.48 0.06
6 7 18 3.13 0.07
7 7 18 3.29 0.11
8 7 18 5.03 0.16
9 7 18 0.24 0.12
-8 8 18 1.64 0.1
-7 8 18 1.85 0.08
-6 8 18 6.67 0.13
-5 8 18 0.85 0.06
-4 8 18 0.07 0.05
-3 8 18 1.26 0.04
-2 8 18 1.43 0.05
-1 8 18 1.22 0.06
0 8 18 0.09 0.05
1 8 18 1.24 0.06
2 8 18 1.46 0.07
3 8 18 1.25 0.09
4 8 18 0.06 0.06
5 8 18 0.75 0.05
6 8 18 6.58 0.12
7 8 18 1.87 0.08
8 8 18 1.57 0.2
-7 9 18 1.22 0.06
-6 9 18 3.25 0.1
-5 9 18 2.8 0.12
-4 9 18 4.76 0.14
-3 9 18 0.72 0.05
-2 9 18 3.68 0.07
-1 9 18 0.28 0.05
0 9 18 1.17 0.06
1 9 18 0.21 0.05
2 9 18 3.45 0.15
3 9 18 0.69 0.06
4 9 18 4.75 0.14
5 9 18 3 0.09
6 9 18 3.37 0.13
7 9 18 1.42 0.06
-6 10 18 0.26 0.05
-5 10 18 1.65 0.09
-4 10 18 1.02 0.09
-3 10 18 4.23 0.1
-2 10 18 2.26 0.07
-1 10 18 2.41 0.1
0 10 18 12.93 0.24
1 10 18 2.53 0.08
2 10 18 2.26 0.08
3 10 18 4.18 0.11
4 10 18 0.97 0.06
5 10 18 1.63 0.07
6 10 18 0.26 0.05
-4 11 18 1.64 0.07
-3 11 18 3.71 0.1
-2 11 18 5.55 0.11
-1 11 18 1.64 0.07
0 11 18 0.35 0.05
1 11 18 1.56 0.1
2 11 18 5.69 0.24
3 11 18 3.6 0.1
4 11 18 1.76 0.09
1 0 19 9.78 0.1
2 0 19 70.89 0.6
3 0 19 1.08 0.04
4 0 19 2.7 0.06
5 0 19 9.31 0.12
6 0 19 20.08 0.25
7 0 19 2.21 0.07
8 0 19 4.34 0.11
9 0 19 10.38 0.22
10 0 19 0.22 0.07
11 0 19 0.1 0.09
-11 1 19 3.57 0.2
-10 1 19 0.83 0.12
-9 1 19 1.07 0.12
-8 1 19 0.85 0.07
-7 1 19 3.86 0.08
-6 1 19 5.58 0.09
-5 1 19 8.76 0.12
-4 1 19 19.38 0.2
-3 1 19 16.04 0.18
-2 1 19 25.8 0.27
-1 1 19 7.8 0.1
0 1 19 20.94 0.2
1 1 19 7.75 0.09
2 1 19 25.66 0.24
3 1 19 16.06 0.16
4 1 19 19.14 0.21
5 1 19 8.91 0.12
6 1 19 5.34 0.09
7 1 19 3.83 0.11
8 1 19 0.71 0.05
9 1 19 0.85 0.07
10 1 19 0.87 0.05
11 1 19 3.96 0.2
-11 2 19 3.86 0.21
-10 2 19 2.3 0.18
-9 2 19 0.49 0.08
-8 2 19 2.65 0.1
-7 2 19 3.5 0.09
-6 2 19 1.19 0.05
-5 2 19 4.27 0.08
-4 2 19 4.53 0.1
-3 2 19 19.02 0.19
-2 2 19 1.05 0.04
-1 2 19 14.13 0.17
0 2 19 21.89 0.22
1 2 19 14.41 0.16
2 2 19 1.05 0.04
3 2 19 18.57 0.2
4 2 19 4.44 0.09
5 2 19 4.17 0.1
6 2 19 1.22 0.05
7 2 19 3.54 0.12
8 2 19 2.61 0.1
9 2 19 0.41 0.05
10 2 19 2.53 0.08
-10 3 19 1.47 0.07
-9 3 19 0.89 0.09
-8 3 19 7.07 0.17
-7 3 19 10.3 0.18
-6 3 19 9.45 0.15
-5 3 19 5.6 0.1
-4 3 19 9.02 0.12
-3 3 19 5.66 0.09
-2 3 19 3.08 0.08
-1 3 19 8.93 0.15
0 3 19 0.81 0.04
1 3 19 8.83 0.14
2 3 19 3.21 0.07
3 3 19 5.61 0.08
4 3 19 8.89 0.12
5 3 19 5.7 0.1
6 3 19 9.37 0.15
7 3 19 10 0.18
8 3 19 7.12 0.16
9 3 19 0.9 0.06
10 3 19 1.52 0.08
-10 4 19 3.9 0.1
-9 4 19 13.23 0.24
-8 4 19 1.16 0.07
-7 4 19 4.81 0.11
-6 4 19 16.73 0.33
-5 4 19 2.01 0.07
-4 4 19 4.83 0.09
-3 4 19 14.27 0.17
-2 4 19 6.12 0.09
-1 4 19 18.57 0.21
0 4 19 5.73 0.11
1 4 19 18.87 0.22
2 4 19 6.03 0.09
3 4 19 14.09 0.16
4 4 19 5.03 0.08
5 4 19 2.14 0.06
6 4 19 16.31 0.26
7 4 19 4.72 0.11
8 4 19 1.26 0.07
9 4 19 13.53 0.25
10 4 19 3.92 0.14
-10 5 19 0.11 0.05
-9 5 19 6.25 0.23
-8 5 19 4.99 0.12
-7 5 19 0.06 0.09
-6 5 19 1.77 0.07
-5 5 19 1.53 0.05
-4 5 19 31.65 0.29
-3 5 19 2.57 0.06
-2 5 19 12.77 0.14
-1 5 19 26.03 0.28
0 5 19 -0.01 0.04
1 5 19 25.53 0.29
2 5 19 12.78 0.15
3 5 19 2.56 0.06
4 5 19 31.32 0.34
5 5 19 1.49 0.06
6 5 19 1.7 0.07
7 5 19 0.14 0.05
8 5 19 4.81 0.31
9 5 19 6.17 0.17
10 5 19 0.04 0.05
-9 6 19 5.61 0.12
-8 6 19 3.83 0.11
-7 6 19 0.46 0.08
-6 6 19 4.11 0.1
-5 6 19 1.66 0.06
-4 6 19 14.04 0.22
-3 6 19 21.76 0.23
-2 6 19 3.14 0.08
-1 6 19 10.21 0.14
0 6 19 2.43 0.12
1 6 19 10.12 0.14
2 6 19 3.12 0.08
3 6 19 21.76 0.28
4 6 19 14.23 0.17
5 6 19 1.76 0.06
6 6 19 3.92 0.09
7 6 19 0.39 0.05
8 6 19 3.68 0.13
9 6 19 5.42 0.16
-8 7 19 1.36 0.07
-7 7 19 1.79 0.08
-6 7 19 7.3 0.17
-5 7 19 1.73 0.06
-4 7 19 12.08 0.15
-3 7 19 10.22 0.13
-2 7 19 0.38 0.05
-1 7 19 13.44 0.19
0 7 19 1.81 0.07
1 7 19 13.45 0.18
2 7 19 0.4 0.06
3 7 19 10.48 0.16
4 7 19 12.15 0.15
5 7 19 1.63 0.05
6 7 19 7.46 0.11
7 7 19 1.72 0.12
8 7 19 1.39 0.09
9 7 19 0.25 0.14
-8 8 19 2.09 0.14
-7 8 19 0.32 0.08
-6 8 19 2.39 0.13
-5 8 19 7.87 0.13
-4 8 19 1.82 0.06
-3 8 19 0.28 0.04
-2 8 19 0.76 0.04
-1 8 19 17.31 0.23
0 8 19 4.14 0.1
1 8 19 17.1 0.24
2 8 19 0.65 0.07
3 8 19 0.35 0.08
4 8 19 1.68 0.08
5 8 19 7.97 0.14
6 8 19 2.4 0.07
7 8 19 0.33 0.06
8 8 19 2.06 0.22
-7 9 19 0.15 0.06
-6 9 19 1.73 0.08
-5 9 19 0.62 0.06
-4 9 19 1.46 0.06
-3 9 19 4.35 0.09
-2 9 19 3.63 0.09
-1 9 19 1.24 0.07
0 9 19 8.39 0.13
1 9 19 1.24 0.06
2 9 19 3.53 0.1
3 9 19 4.26 0.11
4 9 19 1.42 0.07
5 9 19 0.7 0.05
6 9 19 1.95 0.07
7 9 19 0.07 0.15
-5 10 19 2.63 0.09
-4 10 19 1.75 0.07
-3 10 19 0.15 0.07
-2 10 19 2.85 0.13
-1 10 19 1.46 0.11
0 10 19 0.11 0.06
1 10 19 1.46 0.07
2 10 19 2.76 0.11
3 10 19 0.15 0.06
4 10 19 1.81 0.08
5 10 19 2.77 0.08
-3 11 19 0.71 0.1
-2 11 19 3.25 0.33
-1 11 19 1.67 0.07
0 11 19 0.79 0.08
1 11 19 1.4 0.11
2 11 19 2.87 0.1
3 11 19 0.85 0.06
0 0 20 0.54 0.1
1 0 20 16.76 0.16
3 0 20 25.68 0.26
4 0 20 0.86 0.04
5 0 20 0.36 0.05
6 0 20 0.38 0.04
7 0 20 56.61 0.72
8 0 20 1.72 0.07
9 0 20 27.05 0.46
10 0 20 1.22 0.08
-10 1 20 5.31 0.26
-9 1 20 6.47 0.17
-8 1 20 0.05 0.06
-7 1 20 6.46 0.22
-6 1 20 15.25 0.24
-5 1 20 29.85 0.31
-4 1 20 4.3 0.08
-3 1 20 3.84 0.08
-2 1 20 5.05 0.08
-1 1 20 3.28 0.07
0 1 20 21.53 0.23
1 1 20 3.41 0.07
2 1 20 5.02 0.09
3 1 20 3.81 0.07
4 1 20 4.15 0.08
5 1 20 29.45 0.31
6 1 20 15.26 0.22
7 1 20 5.8 0.11
8 1 20 0.02 0.05
9 1 20 5.81 0.13
10 1 20 5.35 0.12
-10 2 20 0.51 0.06
-9 2 20 0.4 0.06
-8 2 20 4.37 0.12
-7 2 20 0.05 0.05
-6 2 20 1.97 0.07
-5 2 20 0.55 0.05
-4 2 20 11.26 0.15
-3 2 20 3.37 0.08
-2 2 20 16.08 0.17
-1 2 20 38.01 0.33
0 2 20 1.61 0.08
1 2 20 37.77 0.38
2 2 20 16.14 0.18
3 2 20 3.15 0.07
4 2 20 11.38 0.15
5 2 20 0.52 0.04
6 2 20 1.88 0.07
7 2 20 0.06 0.05
8 2 20 4.41 0.1
9 2 20 0.29 0.04
10 2 20 0.44 0.04
-10 3 20 0.2 0.17
-9 3 20 0.97 0.06
-8 3 20 2.68 0.15
-7 3 20 3.59 0.1
-6 3 20 29.2 0.37
-5 3 20 0.25 0.04
-4 3 20 9.56 0.15
-3 3 20 3.11 0.07
-2 3 20 6.82 0.11
-1 3 20 2.76 0.08
0 3 20 14.9 0.16
1 3 20 2.48 0.07
2 3 20 6.59 0.1
3 3 20 2.88 0.07
4 3 20 9.86 0.12
5 3 20 0.22 0.04
6 3 20 28.75 0.39
7 3 20 3.36 0.11
8 3 20 2.61 0.09
9 3 20 0.99 0.07
10 3 20 0.23 0.05
-10 4 20 0.33 0.04
-9 4 20 2.44 0.09
-8 4 20 11.12 0.24
-7 4 20 0.34 0.05
-6 4 20 0.21 0.04
-5 4 20 13.67 0.22
-4 4 20 12.65 0.16
-3 4 20 5.26 0.11
-2 4 20 3.3 0.07
-1 4 20 20.06 0.22
0 4 20 0.39 0.04
1 4 20 19.95 0.24
2 4 20 3.32 0.07
3 4 20 5.34 0.1
4 4 20 12.84 0.15
5 4 20 13.47 0.19
6 4 20 0.09 0.05
7 4 20 0.27 0.05
8 4 20 11.12 0.21
9 4 20 2.34 0.09
10 4 20 0.43 0.06
-9 5 20 1.38 0.07
-8 5 20 0.06 0.05
-7 5 20 1.93 0.07
-6 5 20 -0.04 0.05
-5 5 20 5.07 0.09
-4 5 20 0.07 0.04
-3 5 20 28.59 0.28
-2 5 20 1.35 0.04
-1 5 20 26.18 0.28
0 5 20 -0.02 0.04
1 5 20 26.56 0.3
2 5 20 1.2 0.07
3 5 20 28.68 0.28
4 5 20 -0.04 0.04
5 5 20 5.13 0.1
6 5 20 -0.03 0.05
7 5 20 1.75 0.15
8 5 20 0.05 0.05
9 5 20 1.3 0.08
-9 6 20 0.12 0.05
-8 6 20 9.7 0.2
-7 6 20 2.27 0.09
-6 6 20 0.37 0.05
-5 6 20 0.02 0.05
-4 6 20 5.07 0.09
-3 6 20 1.76 0.07
-2 6 20 0.42 0.04
-1 6 20 5.43 0.1
0 6 20 -0.04 0.04
1 6 20 5.57 0.1
2 6 20 0.46 0.05
3 6 20 1.71 0.06
4 6 20 4.96 0.09
5 6 20 -0.01 0.04
6 6 20 0.27 0.05
7 6 20 2.29 0.08
8 6 20 9.83 0.41
9 6 20 0.05 0.05
-8 7 20 7.47 0.18
-7 7 20 0.29 0.06
-6 7 20 6.97 0.14
-5 7 20 0.12 0.05
-4 7 20 1.59 0.08
-3 7 20 4.05 0.08
-2 7 20 0.12 0.04
-1 7 20 4.11 0.1
0 7 20 9.25 0.15
1 7 20 4.28 0.09
2 7 20 0.25 0.05
3 7 20 4.31 0.11
4 7 20 1.57 0.05
5 7 20 -0.04 0.04
6 7 20 7.11 0.13
7 7 20 0.31 0.06
8 7 20 7.46 0.2
-7 8 20 0.23 0.05
-6 8 20 4.7 0.11
-5 8 20 1.55 0.07
-4 8 20 1.38 0.06
-3 8 20 1.09 0.05
-2 8 20 3.53 0.09
-1 8 20 9.14 0.15
0 8 20 0.24 0.05
1 8 20 9.32 0.15
2 8 20 3.6 0.11
3 8 20 1.16 0.07
4 8 20 1.25 0.06
5 8 20 1.57 0.05
6 8 20 4.64 0.09
7 8 20 0.26 0.06
-6 9 20 2.61 0.33
-5 9 20 4.68 0.13
-4 9 20 1.79 0.08
-3 9 20 2.08 0.06
-2 9 20 1 0.05
-1 9 20 0.49 0.05
0 9 20 1.23 0.06
1 9 20 0.54 0.06
2 9 20 0.9 0.06
3 9 20 1.95 0.09
4 9 20 1.87 0.08
5 9 20 4.75 0.1
6 9 20 2.46 0.14
-4 10 20 1.04 0.07
-3 10 20 1.98 0.15
-2 10 20 0.06 0.09
-1 10 20 0.75 0.06
0 10 20 1.72 0.11
1 10 20 0.66 0.06
2 10 20 -0.02 0.05
3 10 20 1.95 0.08
4 10 20 0.98 0.06
-2 11 20 2.03 0.14
-1 11 20 0.21 0.09
0 11 20 8.98 0.27
1 11 20 0.16 0.05
2 11 20 1.87 0.13
1 0 21 1.11 0.06
2 0 21 29.05 0.29
3 0 21 0.85 0.04
4 0 21 0.01 0.04
5 0 21 9.76 0.12
6 0 21 9.13 0.14
7 0 21 0.25 0.04
8 0 21 0.65 0.05
9 0 21 2.8 0.12
10 0 21 0.89 0.11
-10 1 21 0.62 0.11
-9 1 21 2.49 0.12
-8 1 21 2.01 0.12
-7 1 21 4.44 0.13
-6 1 21 4.13 0.13
-5 1 21 11.85 0.15
-4 1 21 5.26 0.09
-3 1 21 12.06 0.14
-2 1 21 11.62 0.15
-1 1 21 0.58 0.04
0 1 21 2.3 0.09
1 1 21 0.61 0.04
2 1 21 11.57 0.14
3 1 21 12.12 0.14
4 1 21 5.32 0.09
5 1 21 11.84 0.15
6 1 21 4 0.08
7 1 21 4.26 0.09
8 1 21 2.05 0.07
9 1 21 2.63 0.08
10 1 21 0.58 0.05
-10 2 21 0.37 0.12
-9 2 21 1.5 0.09
-8 2 21 0.96 0.08
-7 2 21 5.73 0.11
-6 2 21 6.78 0.14
-5 2 21 0.67 0.05
-4 2 21 8.26 0.12
-3 2 21 20.05 0.22
-2 2 21 15.46 0.17
-1 2 21 13.8 0.17
0 2 21 4.68 0.08
1 2 21 13.92 0.15
2 2 21 15.57 0.17
3 2 21 19.83 0.22
4 2 21 8.32 0.13
5 2 21 0.7 0.05
6 2 21 6.99 0.13
7 2 21 5.59 0.12
8 2 21 0.99 0.07
9 2 21 1.37 0.06
10 2 21 0.38 0.05
-10 3 21 3.92 0.25
-9 3 21 2.44 0.08
-8 3 21 1.8 0.09
-7 3 21 1.98 0.09
-6 3 21 1.91 0.08
-5 3 21 1.63 0.07
-4 3 21 10.45 0.16
-3 3 21 1.05 0.08
-2 3 21 0.15 0.04
-1 3 21 27.31 0.27
0 3 21 15.86 0.16
1 3 21 27.63 0.29
2 3 21 0.16 0.04
3 3 21 1.01 0.04
4 3 21 10.58 0.14
5 3 21 1.53 0.06
6 3 21 1.65 0.07
7 3 21 2.06 0.09
8 3 21 1.76 0.08
9 3 21 2.48 0.07
10 3 21 3.86 0.14
-9 4 21 6.71 0.21
-8 4 21 1.37 0.07
-7 4 21 0.29 0.05
-6 4 21 9.71 0.15
-5 4 21 0.59 0.05
-4 4 21 6.98 0.11
-3 4 21 14.62 0.16
-2 4 21 2.87 0.09
-1 4 21 3.33 0.11
0 4 21 2.04 0.06
1 4 21 3.12 0.08
2 4 21 2.78 0.08
3 4 21 14.34 0.16
4 4 21 6.92 0.1
5 4 21 0.52 0.05
6 4 21 9.54 0.17
7 4 21 0.11 0.05
8 4 21 1.19 0.09
9 4 21 6.55 0.16
-9 5 21 3.68 0.09
-8 5 21 4.58 0.13
-7 5 21 1.29 0.06
-6 5 21 3.58 0.1
-5 5 21 3.25 0.08
-4 5 21 19.29 0.31
-3 5 21 3.51 0.07
-2 5 21 17.04 0.22
-1 5 21 2.55 0.07
0 5 21 -0.01 0.04
1 5 21 2.36 0.1
2 5 21 17.09 0.24
3 5 21 3.42 0.09
4 5 21 19.74 0.24
5 5 21 3.17 0.09
6 5 21 3.5 0.1
7 5 21 1.24 0.07
8 5 21 4.61 0.13
9 5 21 3.84 0.12
-8 6 21 3.65 0.15
-7 6 21 0.62 0.06
-6 6 21 3.74 0.09
-5 6 21 0.01 0.05
-4 6 21 21.06 0.26
-3 6 21 7.99 0.12
-2 6 21 3.06 0.08
-1 6 21 3.53 0.08
0 6 21 1.58 0.06
1 6 21 3.67 0.08
2 6 21 3.07 0.09
3 6 21 8.07 0.12
4 6 21 20.86 0.29
5 6 21 -0.04 0.04
6 6 21 3.81 0.12
7 6 21 0.67 0.07
8 6 21 3.71 0.13
-7 7 21 0.14 0.1
-6 7 21 7.12 0.13
-5 7 21 1.75 0.07
-4 7 21 7.6 0.14
-3 7 21 4.11 0.08
-2 7 21 0.09 0.05
-1 7 21 9.41 0.15
0 7 21 8.84 0.32
1 7 21 9.68 0.14
2 7 21 0.14 0.05
3 7 21 4.28 0.09
4 7 21 7.65 0.11
5 7 21 1.71 0.06
6 7 21 7 0.17
7 7 21 0.14 0.06
8 7 21 0.82 0.16
-6 8 21 1.25 0.07
-5 8 21 1.11 0.06
-4 8 21 0.64 0.06
-3 8 21 1.67 0.06
-2 8 21 2.12 0.08
-1 8 21 6.7 0.12
0 8 21 1.6 0.07
1 8 21 6.68 0.12
2 8 21 1.97 0.09
3 8 21 1.57 0.07
4 8 21 0.58 0.05
5 8 21 1.11 0.08
6 8 21 1.28 0.05
7 8 21 1.59 0.18
-5 9 21 5.86 0.18
-4 9 21 3.13 0.16
-3 9 21 0.74 0.07
-2 9 21 0.03 0.06
-1 9 21 0.62 0.05
0 9 21 3.3 0.11
1 9 21 0.57 0.05
2 9 21 0 0.05
3 9 21 0.64 0.06
4 9 21 3.03 0.09
5 9 21 6.17 0.13
-3 10 21 1.49 0.12
-2 10 21 4.73 0.15
-1 10 21 0.13 0.09
0 10 21 4.51 0.14
1 10 21 0.18 0.05
2 10 21 4.61 0.1
3 10 21 1.56 0.07
0 0 22 58.04 0.77
1 0 22 0.12 0.04
2 0 22 15.28 0.17
3 0 22 -0.01 0.04
4 0 22 1.19 0.06
5 0 22 1.72 0.06
6 0 22 4.03 0.09
7 0 22 0.75 0.05
8 0 22 0.59 0.05
9 0 22 0.12 0.07
-9 1 22 5.45 0.45
-8 1 22 1.02 0.12
-7 1 22 12.94 0.25
-6 1 22 4.37 0.11
-5 1 22 0.19 0.05
-4 1 22 8.42 0.13
-3 1 22 4.37 0.11
-2 1 22 17.97 0.21
-1 1 22 15.3 0.17
0 1 22 2.17 0.08
1 1 22 15.33 0.16
2 1 22 18.03 0.19
3 1 22 4.07 0.08
4 1 22 8.57 0.13
5 1 22 0.14 0.04
6 1 22 4.43 0.09
7 1 22 13.14 0.2
8 1 22 1.01 0.05
9 1 22 5.83 0.12
-9 2 22 3.72 0.14
-8 2 22 1.14 0.09
-7 2 22 4.43 0.11
-6 2 22 18.64 0.28
-5 2 22 8.92 0.14
-4 2 22 7.81 0.12
-3 2 22 4.23 0.09
-2 2 22 2.29 0.08
-1 2 22 12.63 0.14
0 2 22 7.72 0.11
1 2 22 12.59 0.14
2 2 22 2.07 0.06
3 2 22 4.11 0.08
4 2 22 7.9 0.16
5 2 22 9 0.15
6 2 22 18.95 0.23
7 2 22 4.32 0.11
8 2 22 1.31 0.06
9 2 22 3.62 0.17
-9 3 22 1.8 0.09
-8 3 22 5.07 0.17
-7 3 22 0.8 0.06
-6 3 22 2.65 0.13
-5 3 22 7.15 0.19
-4 3 22 2.75 0.11
-3 3 22 2.83 0.16
-2 3 22 0.93 0.05
-1 3 22 33.69 0.36
0 3 22 2.08 0.09
1 3 22 33.54 0.35
2 3 22 0.89 0.05
3 3 22 2.76 0.07
4 3 22 2.77 0.08
5 3 22 7.2 0.13
6 3 22 2.74 0.09
7 3 22 0.76 0.06
8 3 22 5.03 0.1
9 3 22 1.84 0.07
-9 4 22 0.69 0.07
-8 4 22 2.12 0.1
-7 4 22 0.72 0.06
-6 4 22 4.68 0.09
-5 4 22 0.13 0.05
-4 4 22 0.94 0.05
-3 4 22 13.17 0.16
-2 4 22 4.13 0.09
-1 4 22 9.43 0.13
0 4 22 0.04 0.04
1 4 22 9.37 0.15
2 4 22 4.19 0.09
3 4 22 13.2 0.19
4 4 22 0.95 0.05
5 4 22 0.18 0.05
6 4 22 4.39 0.11
7 4 22 0.61 0.06
8 4 22 2.28 0.11
9 4 22 0.82 0.06
-8 5 22 10.52 0.26
-7 5 22 0.46 0.05
-6 5 22 0.14 0.06
-5 5 22 2.76 0.08
-4 5 22 7.21 0.12
-3 5 22 1.38 0.05
-2 5 22 0.28 0.05
-1 5 22 0.39 0.05
0 5 22 3.6 0.08
1 5 22 0.4 0.05
2 5 22 0.43 0.05
3 5 22 1.36 0.06
4 5 22 7.2 0.12
5 5 22 2.88 0.08
6 5 22 0.16 0.05
7 5 22 0.31 0.06
8 5 22 10.24 0.32
-8 6 22 4.36 0.14
-7 6 22 0.78 0.07
-6 6 22 2.46 0.09
-5 6 22 0.69 0.05
-4 6 22 1.45 0.06
-3 6 22 10.75 0.14
-2 6 22 1.48 0.06
-1 6 22 8.9 0.13
0 6 22 9.1 0.13
1 6 22 8.92 0.13
2 6 22 1.56 0.06
3 6 22 10.8 0.18
4 6 22 1.42 0.06
5 6 22 0.72 0.05
6 6 22 2.39 0.08
7 6 22 0.8 0.08
8 6 22 4.54 0.26
-7 7 22 0.54 0.15
-6 7 22 1.62 0.09
-5 7 22 0.58 0.06
-4 7 22 2.38 0.07
-3 7 22 0.76 0.05
-2 7 22 2.75 0.09
-1 7 22 10.78 0.17
0 7 22 0.34 0.07
1 7 22 10.66 0.15
2 7 22 2.93 0.11
3 7 22 0.84 0.05
4 7 22 2.32 0.08
5 7 22 0.63 0.05
6 7 22 1.73 0.08
7 7 22 0.56 0.07
-5 8 22 0.7 0.09
-4 8 22 0.9 0.06
-3 8 22 0.32 0.06
-2 8 22 1.85 0.07
-1 8 22 1.15 0.06
0 8 22 0.01 0.05
1 8 22 1.24 0.06
2 8 22 1.88 0.07
3 8 22 0.3 0.06
4 8 22 0.94 0.05
5 8 22 0.82 0.05
6 8 22 5.05 0.3
-3 9 22 0.03 0.06
-2 9 22 0.75 0.06
-1 9 22 1.54 0.06
0 9 22 6.56 0.12
1 9 22 1.5 0.06
2 9 22 0.6 0.05
3 9 22 0 0.05
4 9 22 2.19 0.09
-2 10 22 4.08 0.17
-1 10 22 0.58 0.08
0 10 22 10.19 0.18
1 10 22 0.59 0.05
2 10 22 3.94 0.12
1 0 23 0.72 0.04
2 0 23 8.11 0.11
3 0 23 12.8 0.19
4 0 23 0.03 0.04
5 0 23 7.26 0.11
6 0 23 5.55 0.1
7 0 23 3.67 0.08
8 0 23 0.9 0.05
9 0 23 1.64 0.19
-9 1 23 0.54 0.07
-8 1 23 1.63 0.11
-7 1 23 0.2 0.05
-6 1 23 5.13 0.1
-5 1 23 1.45 0.06
-4 1 23 5.52 0.1
-3 1 23 1.46 0.06
-2 1 23 23.34 0.26
-1 1 23 4.91 0.08
0 1 23 3.34 0.07
1 1 23 4.98 0.1
2 1 23 23.24 0.25
3 1 23 1.52 0.06
4 1 23 5.59 0.11
5 1 23 1.31 0.05
6 1 23 4.89 0.1
7 1 23 0.16 0.05
8 1 23 1.89 0.07
9 1 23 0.73 0.06
-9 2 23 0.95 0.06
-8 2 23 2.59 0.12
-7 2 23 1.15 0.06
-6 2 23 5.33 0.13
-5 2 23 6.07 0.13
-4 2 23 7.82 0.14
-3 2 23 1.54 0.06
-2 2 23 0.7 0.05
-1 2 23 1.86 0.09
0 2 23 7.13 0.11
1 2 23 1.77 0.07
2 2 23 0.61 0.04
3 2 23 1.58 0.05
4 2 23 7.98 0.12
5 2 23 6.16 0.11
6 2 23 5.17 0.11
7 2 23 1.11 0.07
8 2 23 2.58 0.08
9 2 23 0.95 0.1
-9 3 23 1.91 0.08
-8 3 23 3.35 0.15
-7 3 23 2.64 0.09
-6 3 23 10.58 0.18
-5 3 23 0.66 0.07
-4 3 23 3.76 0.09
-3 3 23 15.77 0.22
-2 3 23 4.81 0.1
-1 3 23 5.59 0.13
0 3 23 0.12 0.05
1 3 23 5.6 0.1
2 3 23 4.84 0.08
3 3 23 15.68 0.18
4 3 23 3.89 0.09
5 3 23 0.67 0.05
6 3 23 10.58 0.16
7 3 23 2.56 0.08
8 3 23 3.31 0.1
9 3 23 1.79 0.1
-8 4 23 0.88 0.07
-7 4 23 2.77 0.16
-6 4 23 5.66 0.1
-5 4 23 3.1 0.08
-4 4 23 24.91 0.31
-3 4 23 0.32 0.05
-2 4 23 7.33 0.12
-1 4 23 0.95 0.06
0 4 23 2.87 0.1
1 4 23 0.9 0.06
2 4 23 7.07 0.12
3 4 23 0.29 0.04
4 4 23 24.53 0.3
5 4 23 3.26 0.1
6 4 23 5.62 0.12
7 4 23 2.73 0.08
8 4 23 0.95 0.05
-8 5 23 5.32 0.26
-7 5 23 1.52 0.09
-6 5 23 0.56 0.06
-5 5 23 0.33 0.05
-4 5 23 3.77 0.09
-3 5 23 3.24 0.08
-2 5 23 1.59 0.06
-1 5 23 0.61 0.07
0 5 23 -0.04 0.04
1 5 23 0.6 0.05
2 5 23 1.58 0.07
3 5 23 3.45 0.08
4 5 23 3.72 0.08
5 5 23 0.37 0.06
6 5 23 0.55 0.05
7 5 23 1.51 0.07
8 5 23 5.1 0.13
-7 6 23 -0.05 0.05
-6 6 23 3.13 0.1
-5 6 23 0.34 0.06
-4 6 23 8.88 0.15
-3 6 23 4.54 0.1
-2 6 23 3.61 0.08
-1 6 23 4.8 0.09
0 6 23 0.02 0.04
1 6 23 4.93 0.09
2 6 23 3.64 0.09
3 6 23 4.57 0.1
4 6 23 8.78 0.13
5 6 23 0.28 0.05
6 6 23 3.25 0.09
7 6 23 -0.06 0.06
-6 7 23 0.74 0.06
-5 7 23 0.8 0.06
-4 7 23 5.56 0.1
-3 7 23 4.69 0.11
-2 7 23 1.83 0.09
-1 7 23 5.88 0.11
0 7 23 0.44 0.05
1 7 23 6.11 0.1
2 7 23 1.87 0.07
3 7 23 4.89 0.1
4 7 23 5.47 0.11
5 7 23 0.81 0.05
6 7 23 0.86 0.06
-4 8 23 5.51 0.21
-3 8 23 0.3 0.05
-2 8 23 0.74 0.06
-1 8 23 3.31 0.09
0 8 23 12.32 0.18
1 8 23 3.48 0.09
2 8 23 0.79 0.07
3 8 23 0.25 0.07
4 8 23 5.32 0.12
5 8 23 4.21 0.17
-2 9 23 5.35 0.11
-1 9 23 2.03 0.11
0 9 23 2.08 0.11
1 9 23 1.95 0.07
2 9 23 5.19 0.1
3 9 23 2.01 0.09
0 0 24 0.04 0.07
1 0 24 0.04 0.04
2 0 24 0.67 0.05
3 0 24 6.18 0.1
4 0 24 8.8 0.13
5 0 24 0.02 0.04
6 0 24 7.79 0.13
7 0 24 11.04 0.18
8 0 24 0.49 0.06
-8 1 24 0.61 0.07
-7 1 24 5.03 0.13
-6 1 24 4.51 0.11
-5 1 24 6.08 0.13
-4 1 24 0.75 0.05
-3 1 24 2.81 0.08
-2 1 24 3.65 0.13
-1 1 24 9.81 0.13
0 1 24 3.55 0.08
1 1 24 9.84 0.14
2 1 24 3.32 0.08
3 1 24 2.97 0.08
4 1 24 0.75 0.06
5 1 24 6.12 0.11
6 1 24 4.42 0.1
7 1 24 5.07 0.11
8 1 24 0.75 0.06
-8 2 24 3.29 0.12
-7 2 24 0.22 0.06
-6 2 24 7.11 0.14
-5 2 24 1.44 0.07
-4 2 24 1.79 0.07
-3 2 24 0.09 0.04
-2 2 24 3.39 0.08
-1 2 24 15.11 0.18
0 2 24 11.36 0.15
1 2 24 15.21 0.17
2 2 24 3.32 0.07
3 2 24 0.03 0.04
4 2 24 1.68 0.06
5 2 24 1.4 0.06
6 2 24 7.28 0.15
7 2 24 0.19 0.05
8 2 24 3.19 0.08
-8 3 24 4.08 0.16
-7 3 24 1.19 0.07
-6 3 24 6.84 0.15
-5 3 24 1.23 0.07
-4 3 24 0.23 0.04
-3 3 24 2.97 0.11
-2 3 24 10.75 0.17
-1 3 24 12.27 0.19
0 3 24 5.03 0.17
1 3 24 12.33 0.24
2 3 24 10.95 0.13
3 3 24 2.88 0.07
4 3 24 0.25 0.05
5 3 24 1.28 0.05
6 3 24 6.53 0.11
7 3 24 1.1 0.06
8 3 24 4.21 0.1
-8 4 24 3.66 0.21
-7 4 24 0.51 0.05
-6 4 24 1.84 0.07
-5 4 24 4.83 0.11
-4 4 24 8.67 0.14
-3 4 24 5.85 0.11
-2 4 24 0.47 0.05
-1 4 24 8.71 0.13
0 4 24 8.28 0.13
1 4 24 8.46 0.14
2 4 24 0.44 0.06
3 4 24 6.01 0.09
4 4 24 8.72 0.12
5 4 24 4.91 0.1
6 4 24 1.78 0.07
7 4 24 0.46 0.05
8 4 24 3.61 0.19
-7 5 24 1.24 0.08
-6 5 24 0.59 0.05
-5 5 24 0.28 0.04
-4 5 24 2.72 0.1
-3 5 24 7.27 0.13
-2 5 24 2.14 0.07
-1 5 24 5.89 0.1
0 5 24 1.68 0.06
1 5 24 5.93 0.1
2 5 24 2.05 0.07
3 5 24 7.31 0.13
4 5 24 2.75 0.08
5 5 24 0.29 0.05
6 5 24 0.53 0.05
7 5 24 1.31 0.06
-6 6 24 0.87 0.05
-5 6 24 0.09 0.08
-4 6 24 2.59 0.1
-3 6 24 1.1 0.08
-2 6 24 0.66 0.05
-1 6 24 2.5 0.07
0 6 24 -0.04 0.04
1 6 24 2.45 0.07
2 6 24 0.63 0.05
3 6 24 1.21 0.06
4 6 24 2.48 0.08
5 6 24 0.07 0.05
6 6 24 0.96 0.06
-5 7 24 1.77 0.11
-4 7 24 0.25 0.07
-3 7 24 2.09 0.11
-2 7 24 0.54 0.05
-1 7 24 1.86 0.07
0 7 24 0.28 0.05
1 7 24 1.88 0.06
2 7 24 0.71 0.05
3 7 24 2.17 0.08
4 7 24 0.21 0.05
5 7 24 1.7 0.08
-3 8 24 1.33 0.07
-2 8 24 0.27 0.05
-1 8 24 4.71 0.12
0 8 24 5.73 0.11
1 8 24 4.71 0.1
2 8 24 0.27 0.05
3 8 24 1.28 0.07
4 8 24 0.14 0.15
-1 9 24 2.49 0.14
0 9 24 1.4 0.08
1 9 24 2.75 0.11
1 0 25 0.7 0.05
2 0 25 11.9 0.15
3 0 25 1.83 0.07
4 0 25 0.98 0.05
5 0 25 0.07 0.04
6 0 25 0.43 0.05
7 0 25 0.06 0.05
8 0 25 0.52 0.09
-8 1 25 3.13 0.15
-7 1 25 1.78 0.09
-6 1 25 1.7 0.08
-5 1 25 6.24 0.12
-4 1 25 0.22 0.04
-3 1 25 6.63 0.11
-2 1 25 0.21 0.06
-1 1 25 2.81 0.1
0 1 25 0.32 0.05
1 1 25 2.81 0.07
2 1 25 0.16 0.04
3 1 25 6.39 0.11
4 1 25 0.23 0.05
5 1 25 6.2 0.11
6 1 25 1.74 0.07
7 1 25 1.81 0.07
8 1 25 2.95 0.15
-8 2 25 0.05 0.11
-7 2 25 1.79 0.07
-6 2 25 10.14 0.17
-5 2 25 0.88 0.06
-4 2 25 0.71 0.05
-3 2 25 4.62 0.09
-2 2 25 17.12 0.22
-1 2 25 8.77 0.14
0 2 25 0.96 0.05
1 2 25 8.76 0.2
2 2 25 17.11 0.2
3 2 25 4.64 0.08
4 2 25 0.69 0.05
5 2 25 0.93 0.05
6 2 25 10.09 0.2
7 2 25 1.73 0.07
8 2 25 0.01 0.08
-7 3 25 1.17 0.06
-6 3 25 0.54 0.04
-5 3 25 1.7 0.06
-4 3 25 16.54 0.25
-3 3 25 1.69 0.07
-2 3 25 1.44 0.08
-1 3 25 2.69 0.09
0 3 25 13.36 0.16
1 3 25 2.78 0.08
2 3 25 1.42 0.06
3 3 25 1.65 0.05
4 3 25 16.55 0.21
5 3 25 1.8 0.06
6 3 25 0.51 0.05
7 3 25 1.2 0.06
-7 4 25 -0.03 0.05
-6 4 25 1.19 0.05
-5 4 25 0.98 0.05
-4 4 25 2.81 0.09
-3 4 25 10.69 0.18
-2 4 25 1 0.06
-1 4 25 2.35 0.07
0 4 25 0.01 0.05
1 4 25 2.34 0.08
2 4 25 0.99 0.06
3 4 25 10.48 0.14
4 4 25 2.73 0.09
5 4 25 1.04 0.06
6 4 25 1.28 0.06
7 4 25 0.06 0.04
-6 5 25 0.25 0.05
-5 5 25 0.88 0.05
-4 5 25 5.41 0.12
-3 5 25 2.7 0.09
-2 5 25 4.5 0.1
-1 5 25 9.71 0.14
0 5 25 0.1 0.04
1 5 25 9.67 0.14
2 5 25 4.55 0.1
3 5 25 2.78 0.07
4 5 25 5.47 0.09
5 5 25 0.93 0.05
6 5 25 0.33 0.05
-5 6 25 1 0.09
-4 6 25 3.67 0.11
-3 6 25 1.64 0.08
-2 6 25 1.69 0.06
-1 6 25 1.35 0.05
0 6 25 -0.04 0.04
1 6 25 1.44 0.06
2 6 25 1.65 0.06
3 6 25 1.75 0.06
4 6 25 3.69 0.11
5 6 25 1.05 0.06
-4 7 25 4.78 0.16
-3 7 25 0.89 0.09
-2 7 25 -0.05 0.05
-1 7 25 0.6 0.05
0 7 25 7.43 0.18
1 7 25 0.66 0.04
2 7 25 0 0.04
3 7 25 0.88 0.05
4 7 25 4.78 0.13
-2 8 25 1.38 0.1
-1 8 25 1.18 0.06
0 8 25 0.29 0.04
1 8 25 1.16 0.05
2 8 25 1.4 0.07
0 0 26 2.21 0.1
1 0 26 6.69 0.11
2 0 26 0.7 0.07
3 0 26 0.09 0.05
4 0 26 -0.04 0.04
5 0 26 0.8 0.05
6 0 26 0.36 0.05
7 0 26 1.93 0.1
-7 1 26 1.73 0.11
-6 1 26 8.45 0.15
-5 1 26 0.4 0.05
-4 1 26 4.05 0.08
-3 1 26 2.8 0.07
-2 1 26 1.07 0.05
-1 1 26 0.31 0.04
0 1 26 2.13 0.07
1 1 26 0.32 0.04
2 1 26 1.04 0.05
3 1 26 2.64 0.08
4 1 26 3.92 0.09
5 1 26 0.36 0.05
6 1 26 8.5 0.15
7 1 26 1.79 0.07
-7 2 26 4.52 0.21
-6 2 26 1.56 0.06
-5 2 26 3.73 0.1
-4 2 26 1.1 0.06
-3 2 26 4.78 0.1
-2 2 26 3.16 0.08
-1 2 26 12.87 0.17
0 2 26 0.44 0.04
1 2 26 12.4 0.2
2 2 26 3.05 0.09
3 2 26 4.85 0.1
4 2 26 1.01 0.05
5 2 26 3.83 0.08
6 2 26 1.63 0.07
7 2 26 4.43 0.1
-6 3 26 4.1 0.1
-5 3 26 7.22 0.13
-4 3 26 0.95 0.06
-3 3 26 3.15 0.12
-2 3 26 0.93 0.06
-1 3 26 9.48 0.15
0 3 26 0.17 0.04
1 3 26 9.28 0.13
2 3 26 0.82 0.05
3 3 26 3.08 0.07
4 3 26 0.89 0.05
5 3 26 7.5 0.12
6 3 26 4.19 0.13
7 3 26 1.04 0.09
-6 4 26 0.38 0.07
-5 4 26 0.45 0.05
-4 4 26 1.22 0.06
-3 4 26 3.52 0.1
-2 4 26 1.25 0.06
-1 4 26 4.65 0.1
0 4 26 1.98 0.08
1 4 26 4.75 0.1
2 4 26 1.29 0.07
3 4 26 3.69 0.09
4 4 26 1.2 0.05
5 4 26 0.47 0.05
6 4 26 0.4 0.05
-5 5 26 0.46 0.08
-4 5 26 2.72 0.08
-3 5 26 3.68 0.1
-2 5 26 0.82 0.05
-1 5 26 2.69 0.08
0 5 26 5.21 0.15
1 5 26 2.73 0.08
2 5 26 0.92 0.05
3 5 26 3.71 0.1
4 5 26 2.7 0.11
5 5 26 0.36 0.05
-4 6 26 2.28 0.09
-3 6 26 2.04 0.09
-2 6 26 1.32 0.08
-1 6 26 1.16 0.05
0 6 26 -0.02 0.04
1 6 26 1.2 0.06
2 6 26 1.38 0.06
3 6 26 2.09 0.06
4 6 26 2.22 0.08
-3 7 26 1.74 0.11
-2 7 26 -0.04 0.06
-1 7 26 2.85 0.07
0 7 26 0.08 0.04
1 7 26 2.97 0.11
2 7 26 -0.02 0.06
3 7 26 1.66 0.18
1 0 27 1.9 0.07
2 0 27 2.04 0.07
3 0 27 11.27 0.16
4 0 27 -0.01 0.05
5 0 27 3.42 0.08
6 0 27 0.55 0.05
-6 1 27 0.99 0.08
-5 1 27 2.69 0.15
-4 1 27 0.44 0.04
-3 1 27 0.55 0.05
-2 1 27 9.88 0.15
-1 1 27 6.08 0.1
0 1 27 0.17 0.05
1 1 27 5.99 0.11
2 1 27 9.55 0.13
3 1 27 0.51 0.05
4 1 27 0.4 0.05
5 1 27 2.63 0.08
6 1 27 0.94 0.05
-6 2 27 3.03 0.1
-5 2 27 1.94 0.08
-4 2 27 1.44 0.07
-3 2 27 1.72 0.07
-2 2 27 1.25 0.09
-1 2 27 3.05 0.11
0 2 27 6.13 0.11
1 2 27 2.89 0.1
2 2 27 1.1 0.05
3 2 27 1.56 0.06
4 2 27 1.5 0.06
5 2 27 1.88 0.07
6 2 27 2.99 0.08
-5 3 27 0.11 0.05
-4 3 27 5.35 0.11
-3 3 27 5.25 0.1
-2 3 27 3.93 0.09
-1 3 27 0.73 0.09
0 3 27 0.5 0.05
1 3 27 0.7 0.05
2 3 27 3.89 0.08
3 3 27 5.22 0.09
4 3 27 5.22 0.09
5 3 27 0.09 0.05
6 3 27 4.56 0.12
-5 4 27 1.59 0.08
-4 4 27 6.73 0.12
-3 4 27 1.25 0.06
-2 4 27 1.9 0.07
-1 4 27 2.35 0.08
0 4 27 3.48 0.1
1 4 27 2.24 0.07
2 4 27 1.9 0.08
3 4 27 1.25 0.07
4 4 27 6.72 0.11
5 4 27 1.62 0.08
-4 5 27 1.98 0.09
-3 5 27 0.24 0.05
-2 5 27 0.16 0.05
-1 5 27 0.17 0.05
0 5 27 0.51 0.05
1 5 27 0.19 0.05
2 5 27 0.22 0.04
3 5 27 0.26 0.04
4 5 27 2.05 0.07
-3 6 27 1.93 0.11
-2 6 27 0.06 0.06
-1 6 27 1.87 0.07
0 6 27 0.53 0.05
1 6 27 1.88 0.07
2 6 27 0.07 0.05
3 6 27 1.95 0.1
0 0 28 -0.01 0.07
1 0 28 7.43 0.11
2 0 28 0.05 0.04
3 0 28 1.23 0.06
4 0 28 1.12 0.06
5 0 28 0.1 0.04
-5 1 28 0.38 0.05
-4 1 28 1.37 0.07
-3 1 28 4.54 0.09
-2 1 28 0.57 0.07
-1 1 28 5.44 0.11
0 1 28 -0.01 0.04
1 1 28 5.53 0.1
2 1 28 0.53 0.05
3 1 28 4.48 0.09
4 1 28 1.42 0.06
5 1 28 0.43 0.04
-5 2 28 2.65 0.09
-4 2 28 0.44 0.05
-3 2 28 2.21 0.07
-2 2 28 0.4 0.05
-1 2 28 1.13 0.08
0 2 28 1.89 0.06
1 2 28 1 0.05
2 2 28 0.42 0.04
3 2 28 2.05 0.07
4 2 28 0.42 0.04
5 2 28 2.63 0.08
-4 3 28 1.19 0.06
-3 3 28 0.88 0.06
-2 3 28 4.38 0.09
-1 3 28 5.11 0.1
0 3 28 0.33 0.05
1 3 28 4.99 0.09
2 3 28 4.47 0.08
3 3 28 0.72 0.05
4 3 28 1.2 0.07
5 3 28 2.91 0.14
-4 4 28 1.89 0.11
-3 4 28 3.13 0.08
-2 4 28 2.05 0.08
-1 4 28 3.61 0.08
0 4 28 7.38 0.13
1 4 28 3.56 0.09
2 4 28 1.98 0.08
3 4 28 3.16 0.09
4 4 28 1.87 0.09
-3 5 28 0.12 0.07
-2 5 28 1.54 0.07
-1 5 28 0.01 0.04
0 5 28 0.38 0.05
1 5 28 0.02 0.04
2 5 28 1.55 0.08
3 5 28 0.23 0.08
1 0 29 0.15 0.05
2 0 29 3.76 0.08
3 0 29 1.06 0.05
4 0 29 1.49 0.07
-4 1 29 0.43 0.05
-3 1 29 1.89 0.12
-2 1 29 3.94 0.08
-1 1 29 0.4 0.05
0 1 29 1.23 0.05
1 1 29 0.31 0.06
2 1 29 3.8 0.09
3 1 29 1.86 0.06
4 1 29 0.38 0.05
-4 2 29 2.51 0.15
-3 2 29 1.05 0.06
-2 2 29 3.86 0.09
-1 2 29 0.85 0.05
0 2 29 0.31 0.04
1 2 29 0.93 0.05
2 2 29 3.8 0.09
3 2 29 0.99 0.05
4 2 29 2.65 0.13
-3 3 29 1.7 0.07
-2 3 29 0.73 0.06
-1 3 29 1.35 0.1
0 3 29 7.43 0.21
1 3 29 1.51 0.06
2 3 29 0.61 0.06
3 3 29 1.59 0.09
-2 4 29 1.15 0.07
-1 4 29 3.22 0.08
0 4 29 0.14 0.05
1 4 29 3.04 0.16
2 4 29 1.1 0.1
0 0 30 0.03 0.09
1 0 30 1.21 0.05
2 0 30 0.12 0.05
-2 1 30 0.49 0.05
-1 1 30 2.97 0.09
0 1 30 0.38 0.07
1 1 30 2.9 0.11
2 1 30 0.47 0.06
-2 2 30 1.34 0.12
-1 2 30 1.25 0.06
0 2 30 0.79 0.1
1 2 30 1.25 0.11
2 2 30 1.31 0.12
0 3 30 1.41 0.12
