#------------------------------------------------------------------------------
#$Date: 2022-01-07 00:35:45 +0200 (Fri, 07 Jan 2022) $
#$Revision: 271880 $
#$URL: file:///home/coder/svn-repositories/cod/cif/2/02/25/2022500.cif $
#------------------------------------------------------------------------------
#
# This file is available in the Crystallography Open Database (COD),
# http://www.crystallography.net/. The original data for this entry
# were provided by IUCr Journals, http://journals.iucr.org/.
#
# The file may be used within the scientific community so long as
# proper attribution is given to the journal article from which the
# data were obtained.
#
data_2022500
loop_
_publ_author_name
'Dzesse T., Christelle N.'
'Majoumo-Mbe, Felicite'
'Nfor, Emmanuel N.'
'Bourne, Susan A.'
_publ_section_title
;
 A homochiral coordination polymer of cobalt(II) and
 <small>L</small>-serine
;
_journal_coeditor_code           OP3014
_journal_issue                   12
_journal_name_full               'Acta Crystallographica Section C'
_journal_page_first              764
_journal_page_last               769
_journal_paper_doi               10.1107/S2053229621011347
_journal_volume                  77
_journal_year                    2021
_chemical_absolute_configuration rm
_chemical_formula_iupac          '[Co (C3 H6 N1 O3)2]'
_chemical_formula_moiety         'C6 H12 Co N2 O6'
_chemical_formula_sum            'C6 H12 Co N2 O6'
_chemical_formula_weight         267.11
_chemical_name_systematic
<i>catena</i>-Poly[[[(<i>S</i>)-2-amino-3-hydroxypropanoato-\k^2^<i>N</i>,<i>O</i>^1^]cobalt(II)]-\m-(<i>S</i>)-2-amino-3-hydroxypropanoato-\k^4^<i>O</i>^1^,<i>O</i>^3^:<i>N</i>,<i>O</i>^1'^]
_space_group_crystal_system      monoclinic
_space_group_IT_number           4
_space_group_name_Hall           'P 2yb'
_space_group_name_H-M_alt        'P 1 21 1'
_atom_sites_solution_hydrogens   mixed
_audit_creation_method           SHELXL-2017/1
_cell_angle_alpha                90
_cell_angle_beta                 100.3110(10)
_cell_angle_gamma                90
_cell_formula_units_Z            2
_cell_length_a                   5.5666(4)
_cell_length_b                   8.7105(6)
_cell_length_c                   9.8314(7)
_cell_measurement_reflns_used    11159
_cell_measurement_temperature    173(2)
_cell_measurement_theta_max      28.41
_cell_measurement_theta_min      2.10
_cell_volume                     469.01(6)
_computing_cell_refinement
;
SAINT (Bruker, 2017)
;
_computing_data_collection
;
APEX3 (Bruker, 2018)
;
_computing_data_reduction
;
SAINT (Bruker 2017)
;
_computing_molecular_graphics
;
X-SEED (Barbour, 2020)
;
_computing_publication_material
;
SHELXL2017 (Sheldrick, 2015)
;
_computing_structure_refinement
;
SHELXL2017 (Sheldrick, 2015)
;
_computing_structure_solution
;
SHELXS2017 (Sheldrick, 2008)
;
_diffrn_ambient_temperature      173(2)
_diffrn_measured_fraction_theta_full 0.998
_diffrn_measured_fraction_theta_max 0.998
_diffrn_measurement_device_type  'Bruker Kappa DUO APEXII'
_diffrn_measurement_method       '1.2\%\f scans and \w scans'
_diffrn_radiation_type           MoK\a
_diffrn_radiation_wavelength     0.71073
_diffrn_reflns_av_R_equivalents  0.0338
_diffrn_reflns_av_unetI/netI     0.0274
_diffrn_reflns_limit_h_max       7
_diffrn_reflns_limit_h_min       -7
_diffrn_reflns_limit_k_max       11
_diffrn_reflns_limit_k_min       -11
_diffrn_reflns_limit_l_max       13
_diffrn_reflns_limit_l_min       -13
_diffrn_reflns_number            11159
_diffrn_reflns_theta_full        25.242
_diffrn_reflns_theta_max         28.411
_diffrn_reflns_theta_min         2.105
_diffrn_source                   'fine-focus sealed tube'
_exptl_absorpt_coefficient_mu    1.842
_exptl_absorpt_correction_type   multi-scan
_exptl_absorpt_process_details
;
(SADABS; Krause <i>et al.</i>, 2015)
;
_exptl_crystal_colour            'red purple'
_exptl_crystal_density_diffrn    1.891
_exptl_crystal_density_method    'not measured'
_exptl_crystal_description       block
_exptl_crystal_F_000             274
_exptl_crystal_size_max          0.24
_exptl_crystal_size_mid          0.24
_exptl_crystal_size_min          0.22
_refine_diff_density_max         0.228
_refine_diff_density_min         -0.200
_refine_ls_abs_structure_details
;
Flack <i>x</i> determined using 1028 quotients [(I+)-(I-)]/[(I+)+(I-)]
(Parsons <i>et al.</i>,  2013)
;
_refine_ls_abs_structure_Flack   -0.001(11)
_refine_ls_extinction_method     none
_refine_ls_goodness_of_fit_ref   1.032
_refine_ls_hydrogen_treatment    mixed
_refine_ls_matrix_type           full
_refine_ls_number_parameters     140
_refine_ls_number_reflns         2353
_refine_ls_number_restraints     1
_refine_ls_restrained_S_all      1.032
_refine_ls_R_factor_all          0.0217
_refine_ls_R_factor_gt           0.0210
_refine_ls_shift/su_max          0.000
_refine_ls_shift/su_mean         0.000
_refine_ls_structure_factor_coef Fsqd
_refine_ls_weighting_details
'w=1/[\s^2^(Fo^2^)+(0.0277P)^2^] where P=(Fo^2^+2Fc^2^)/3'
_refine_ls_weighting_scheme      calc
_refine_ls_wR_factor_gt          0.0474
_refine_ls_wR_factor_ref         0.0477
_reflns_number_gt                2293
_reflns_number_total             2353
_reflns_threshold_expression     'I > 2\s(I)'
_cod_data_source_file            op3014sup1.cif
_cod_data_source_block           I
_cod_original_sg_symbol_H-M      'P 21'
_cod_database_code               2022500
_shelx_space_group_comment
;
The symmetry employed for this shelxl refinement is uniquely defined
by the following loop, which should always be used as a source of
symmetry information in preference to the above space-group names.
They are only intended as comments.
;
_shelx_estimated_absorpt_t_min   0.666
_shelx_estimated_absorpt_t_max   0.687
_shelx_hkl_file
;
   1   0   0  970.97   20.81
   1   0   0  976.99   21.30
  -1   0   0  966.14   20.82
  -1   0   0 1000.00   20.81
  -1   0   0  941.34   21.90
  -2   0   0  222.08    5.90
  -2   0   0  211.38    5.54
   2   0   0  210.54    5.57
   2   0   0  205.25    5.14
  -2   0   0  208.38    5.65
   3   0   0   98.62    2.89
  -3   0   0   99.91    3.74
  -3   0   0  100.16    3.56
  -3   0   0   95.57    3.60
   3   0   0   92.43    3.58
   3   0   0  101.28    3.60
  -4   0   0  280.25    8.25
   4   0   0  293.39    8.41
  -4   0   0  282.77    8.56
  -4   0   0  278.32    8.09
   4   0   0  264.04    8.04
   4   0   0  271.77    6.99
  -4   0   0  265.87    7.82
  -5   0   0   81.81    3.99
   5   0   0   87.22    4.12
  -5   0   0   98.56    4.55
  -5   0   0   80.07    4.13
  -5   0   0   88.63    4.12
   5   0   0   91.60    4.43
   6   0   0   49.55    3.40
   6   0   0   47.15    3.51
  -6   0   0   57.01    3.54
  -6   0   0   60.47    3.84
  -6   0   0   61.97    3.67
  -7   0   0   26.81    3.48
  -7   0   0   26.19    3.18
  -7   0   0   23.29    3.03
   7   0   0   21.89    3.10
   7   0   0   23.01    3.04
   0  -1   0   -0.43    0.06
   0  -1   0   -0.42    0.07
   0  -1   0   -0.43    0.06
   0  -1   0   -0.34    0.07
   0  -1   0   -0.31    0.07
   0   1   0   -0.31    0.08
   0   1   0   -0.02    0.13
   0   1   0   -0.44    0.08
   0   1   0   -0.32    0.07
   0   1   0   -0.22    0.10
   0   1   0   -0.35    0.06
   0   1   0   -0.40    0.08
  -1  -1   0   10.56    0.67
  -1  -1   0   10.50    0.66
   1  -1   0   12.04    0.71
   1  -1   0   12.97    0.70
   1  -1   0   11.34    0.69
  -1  -1   0    9.85    0.67
   1   1   0    9.03    0.64
   1   1   0   11.50    0.66
  -1   1   0   10.27    0.64
  -1   1   0   12.25    0.71
   1   1   0    8.60    0.60
  -1   1   0   10.69    0.68
  -1   1   0   10.64    0.63
   2  -1   0  149.79    4.43
   2  -1   0  151.20    4.37
  -2  -1   0  154.59    4.36
  -2  -1   0  159.73    4.62
  -2  -1   0  152.28    4.42
   2   1   0  163.01    4.26
  -2   1   0  162.26    4.37
   2   1   0  157.31    4.41
  -2   1   0  158.56    4.63
  -2   1   0  148.17    4.45
  -2   1   0  150.29    4.36
  -3  -1   0   36.93    1.99
   3  -1   0   40.87    2.11
  -3  -1   0   40.57    2.11
  -3  -1   0   40.43    2.17
   3  -1   0   37.79    2.10
  -3   1   0   42.57    2.12
   3   1   0   49.63    2.29
  -3   1   0   41.99    2.22
  -3   1   0   44.99    2.16
  -3   1   0   44.87    2.27
   3   1   0   45.29    1.87
  -4  -1   0   65.85    3.09
  -4  -1   0   60.21    3.18
   4  -1   0   62.80    3.20
   4  -1   0   59.90    3.02
  -4  -1   0   63.70    3.15
   4   1   0   56.56    2.33
  -4   1   0   54.51    2.91
  -4   1   0   57.09    2.81
  -4   1   0   59.49    3.02
   4   1   0   53.64    2.79
  -4   1   0   48.87    2.66
  -5  -1   0   36.11    2.59
  -5  -1   0   35.52    2.60
   5  -1   0   37.67    2.63
   5  -1   0   37.52    2.73
  -5  -1   0   37.54    2.57
  -5  -1   0   38.77    2.80
  -5   1   0   38.94    2.73
   5   1   0   36.66    2.71
  -5   1   0   34.34    2.48
   5   1   0   38.43    2.61
  -5   1   0   32.17    2.37
   6  -1   0   31.90    3.20
  -6  -1   0   37.30    3.41
  -6  -1   0   31.37    3.23
   6  -1   0   38.04    3.72
  -6  -1   0   29.13    3.20
  -6   1   0   35.32    2.78
  -6   1   0   33.92    3.29
   6   1   0   31.44    3.14
  -6   1   0   34.62    3.51
   6   1   0   34.19    3.53
   7  -1   0   16.40    2.54
   7  -1   0   12.69    2.51
  -7  -1   0   11.21    2.20
  -7  -1   0   13.61    2.32
  -7  -1   0   10.34    2.03
  -7   1   0   17.55    2.64
  -7   1   0   16.85    2.75
   7   1   0   17.07    2.59
  -7   1   0   14.95    2.39
   7   1   0   16.07    2.71
   0  -2   0  314.75    7.49
   0  -2   0  324.89    7.13
   0  -2   0  319.49    7.16
   0  -2   0  312.55    7.17
   0  -2   0  308.68    7.52
   0   2   0  318.54    7.12
   0   2   0  316.39    7.25
   0   2   0  322.51    7.14
   0   2   0  321.01    7.70
  -1  -2   0  455.90   10.27
   1  -2   0  434.44   10.26
  -1  -2   0  453.50   10.23
   1  -2   0  453.12   10.76
  -1  -2   0  445.93   10.24
  -1  -2   0  448.38   10.78
   1  -2   0  466.01   10.28
  -1   2   0  399.86    9.51
   1   2   0  431.21    9.57
  -1   2   0  409.34    9.36
   1   2   0  431.96    9.70
  -1   2   0  440.16   10.08
  -1   2   0  417.90    9.67
   1   2   0  421.58   10.15
   1   2   0  424.13    9.55
   2  -2   0  425.96   10.35
  -2  -2   0  427.43   10.83
   2  -2   0  430.01   10.33
  -2  -2   0  436.51   10.30
  -2  -2   0  420.76   10.31
   2   2   0  377.70    9.28
  -2   2   0  388.79    9.16
   2   2   0  393.97    9.61
  -2   2   0  384.40    9.44
  -2   2   0  385.38    9.29
   2   2   0  385.79    9.49
  -3  -2   0  162.03    5.05
   3  -2   0  153.87    5.08
  -3  -2   0  158.13    5.07
   3  -2   0  153.38    5.00
  -3  -2   0  155.33    5.26
   3   2   0  154.31    4.70
  -3   2   0  148.22    4.94
  -3   2   0  150.77    4.77
  -3   2   0  161.40    5.10
   3   2   0  148.43    4.80
  -3   2   0  153.98    4.81
  -4  -2   0   93.36    4.01
  -4  -2   0   91.39    4.16
  -4  -2   0   99.41    4.06
   4  -2   0   99.77    4.09
   4  -2   0   96.53    4.14
   4   2   0  102.87    3.71
  -4   2   0   90.79    3.89
  -4   2   0  103.09    4.25
  -4   2   0   96.13    4.01
   4   2   0  102.01    4.07
  -4   2   0  111.32    4.34
  -5  -2   0  100.25    4.78
  -5  -2   0  103.50    4.66
   5  -2   0   94.27    4.57
   5  -2   0   90.41    4.40
  -5  -2   0   93.69    4.38
  -5   2   0   95.29    4.51
   5   2   0   89.24    4.24
   5   2   0   92.60    3.73
  -5   2   0   95.58    4.35
  -5   2   0   98.06    4.34
  -6  -2   0   64.32    3.84
  -6  -2   0   56.20    3.72
  -6  -2   0   60.20    3.88
   6  -2   0   58.22    3.92
   6  -2   0   58.00    3.74
   6   2   0   51.83    3.61
  -6   2   0   45.92    3.21
   6   2   0   50.07    3.33
  -6   2   0   44.95    3.34
  -6   2   0   54.59    3.39
  -7  -2   0   25.18    3.07
  -7  -2   0   32.57    3.56
   7  -2   0   21.55    2.98
  -7   2   0   24.46    3.11
   7   2   0   26.57    3.21
   7   2   0   36.16    4.11
  -7   2   0   30.96    3.75
  -7   2   0   26.40    3.15
   0  -3   0    0.11    0.18
   0  -3   0   -0.24    0.11
   0  -3   0    0.24    0.18
   0  -3   0    1.14    0.32
   0  -3   0   -0.03    0.12
   0   3   0    0.21    0.22
   0   3   0   -0.05    0.16
   0   3   0    0.11    0.17
   0   3   0    0.06    0.13
   0   3   0   -0.04    0.17
   1  -3   0  356.57    8.45
   1  -3   0  352.80    8.49
   1  -3   0  353.69    8.85
  -1  -3   0  362.20    8.50
  -1  -3   0  362.49    8.46
  -1  -3   0  349.85    8.42
  -1  -3   0  343.71    8.87
   1   3   0  344.20    8.14
  -1   3   0  336.32    8.46
  -1   3   0  349.08    8.22
  -1   3   0  343.94    8.14
  -1   3   0  338.03    8.28
   1   3   0  356.14    8.29
   1   3   0  340.92    8.20
   1   3   0  363.22    8.38
   1   3   0  343.87    8.85
   2  -3   0    7.10    1.05
  -2  -3   0   10.35    1.15
  -2  -3   0    8.01    0.99
   2  -3   0    8.31    0.97
  -2  -3   0   10.27    1.12
   2  -3   0   10.97    1.15
  -2   3   0   10.49    1.16
  -2   3   0    9.26    1.06
   2   3   0    9.48    1.11
  -2   3   0    9.36    1.01
   2   3   0   10.92    1.19
  -2   3   0    7.23    0.86
  -2   3   0    9.72    0.70
   2   3   0   10.06    1.03
   2   3   0    8.31    0.98
   3  -3   0   29.13    1.86
  -3  -3   0   27.94    1.90
   3  -3   0   27.63    1.78
  -3  -3   0   25.64    1.75
  -3  -3   0   24.15    1.71
   3   3   0   21.66    1.51
  -3   3   0   20.93    1.48
  -3   3   0   22.72    1.58
  -3   3   0   21.12    1.54
   3   3   0   23.00    1.66
   3   3   0   20.54    1.48
  -3   3   0   23.68    1.67
  -4  -3   0   18.37    1.99
  -4  -3   0   15.48    1.90
   4  -3   0   21.39    2.20
  -4  -3   0   18.92    2.09
   4  -3   0   15.05    1.78
   4   3   0   12.71    1.51
   4   3   0   13.50    1.69
  -4   3   0   13.26    1.65
  -4   3   0   12.40    1.70
  -4   3   0   13.10    1.63
  -5  -3   0   43.35    3.07
  -5  -3   0   43.16    2.92
  -5  -3   0   44.68    3.00
   5  -3   0   45.55    3.00
   5  -3   0   40.98    2.95
  -5   3   0   38.82    2.72
   5   3   0   36.51    2.56
   5   3   0   37.92    2.34
  -5   3   0   31.91    3.11
  -5   3   0   37.45    2.55
   6  -3   0   24.39    2.98
  -6  -3   0   23.07    2.80
  -6   3   0   22.87    2.77
  -6   3   0   27.26    3.20
   6   3   0   20.22    2.53
  -6   3   0   29.48    2.95
   6   3   0   30.45    3.32
  -7  -3   0   17.72    2.75
  -7  -3   0   20.17    2.93
   7  -3   0   18.01    2.78
  -7   3   0   22.62    3.15
   7   3   0   26.06    3.46
  -7   3   0   21.37    2.89
   7   3   0   19.25    2.72
  -7   3   0   25.86    3.11
   0  -4   0   38.70    1.74
   0  -4   0   41.07    1.70
   0  -4   0   39.16    1.74
   0  -4   0   39.65    1.64
   0  -4   0   39.44    1.70
   0   4   0   45.29    2.13
   0   4   0   49.02    1.94
   0   4   0   46.17    1.73
   0   4   0   48.82    2.05
   0   4   0   46.48    1.91
   1  -4   0  275.83    7.17
   1  -4   0  292.65    7.59
   1  -4   0  275.76    7.56
  -1  -4   0  287.01    7.23
  -1  -4   0  286.94    7.23
  -1  -4   0  288.66    7.62
   1  -4   0  290.03    7.25
  -1  -4   0  271.33    7.10
   1   4   0  254.66    7.20
  -1   4   0  251.40    6.61
  -1   4   0  257.79    6.86
   1   4   0  251.59    6.64
  -1   4   0  259.65    6.37
   1   4   0  250.81    6.60
  -1   4   0  248.36    6.62
   1   4   0  253.93    6.37
   1   4   0  258.53    6.66
   2  -4   0  494.53   11.98
  -2  -4   0  470.14   12.52
  -2  -4   0  492.39   11.95
  -2  -4   0  490.25   11.98
   2  -4   0  481.19   12.50
   2  -4   0  505.10   12.02
  -2   4   0  452.43   11.51
  -2   4   0  455.32   11.00
   2   4   0  458.05   11.03
  -2   4   0  465.38   11.33
   2   4   0  458.72   11.34
  -2   4   0  468.07   11.13
   2   4   0  467.05   11.95
  -2   4   0  452.08   11.11
   2   4   0  438.13   11.16
  -3  -4   0  168.77    5.86
  -3  -4   0  173.16    5.61
   3  -4   0  167.46    5.62
   3  -4   0  178.05    5.68
  -3  -4   0  165.60    5.52
  -3   4   0  160.48    5.40
   3   4   0  165.04    5.57
   3   4   0  177.64    5.71
  -3   4   0  167.07    4.68
  -3   4   0  167.36    5.28
  -3   4   0  173.27    5.57
  -3   4   0  179.29    5.71
   3   4   0  173.82    5.74
   3   4   0  171.93    5.37
   4  -4   0   41.87    2.67
  -4  -4   0   39.23    2.57
  -4  -4   0   37.67    2.63
   4  -4   0   38.41    2.55
  -4  -4   0   38.19    2.52
  -4   4   0   45.64    2.74
  -4   4   0   40.03    2.39
   4   4   0   42.01    2.52
   4   4   0   40.06    2.43
  -4   4   0   42.99    2.60
   5  -4   0   31.47    3.05
  -5  -4   0   24.42    2.65
  -5  -4   0   26.91    2.94
   5   4   0   18.99    2.18
  -5   4   0   21.25    2.41
  -5   4   0   20.07    2.19
  -5   4   0   23.77    2.67
   5   4   0   24.06    2.44
  -6  -4   0   26.41    3.03
  -6  -4   0   30.93    3.92
   6  -4   0   30.60    3.45
   6   4   0   22.84    2.64
  -6   4   0   21.32    2.68
  -6   4   0   21.45    2.55
  -6   4   0   23.67    2.99
   0  -5   0    0.23    0.28
   0  -5   0    0.02    0.21
   0  -5   0    0.49    0.31
   0  -5   0    0.21    0.25
   0  -5   0    0.01    0.20
   0   5   0   -0.02    0.21
   0   5   0   -0.03    0.21
   0   5   0    0.34    0.34
   0   5   0   -0.04    0.22
   0   5   0    0.06    0.19
  -1  -5   0   25.48    1.47
  -1  -5   0   26.81    1.63
   1  -5   0   26.05    1.58
  -1  -5   0   24.18    1.57
  -1  -5   0   21.77    1.42
   1  -5   0   27.47    1.57
   1  -5   0   25.25    1.52
  -1  -5   0   26.61    1.54
   1  -5   0   24.99    1.57
   1   5   0   26.26    1.37
   1   5   0   25.29    1.66
  -1   5   0   26.42    1.56
   1   5   0   25.42    1.56
  -1   5   0   24.54    1.62
  -1   5   0   25.02    1.34
  -1   5   0   20.20    1.48
   1   5   0   27.79    1.84
   1   5   0   25.10    1.55
  -2  -5   0   13.69    1.50
   2  -5   0   19.60    1.45
   2  -5   0   18.66    1.51
   2  -5   0   19.73    1.52
  -2  -5   0   17.70    1.69
  -2  -5   0   15.67    1.55
   2  -5   0   17.09    1.36
  -2   5   0   17.32    1.23
  -2   5   0   18.53    1.82
   2   5   0   17.68    1.77
   2   5   0   15.38    1.75
   2   5   0   14.60    1.15
  -2   5   0   14.22    1.46
  -2   5   0   15.96    1.23
   2   5   0   17.45    1.70
  -3  -5   0   12.07    1.54
  -3  -5   0   12.95    1.58
   3  -5   0   13.39    1.66
   3  -5   0   12.99    1.58
  -3  -5   0   15.02    1.87
  -3   5   0   12.24    1.01
  -3   5   0   11.26    1.39
  -3   5   0   13.41    1.65
   3   5   0   12.48    1.71
  -3   5   0   10.93    1.52
   3   5   0   11.56    1.55
   3   5   0   10.89    1.31
   3   5   0   11.45    1.59
  -4  -5   0   36.06    2.51
   4  -5   0   33.09    2.42
  -4  -5   0   30.11    2.45
   4   5   0   30.53    2.34
   4   5   0   34.34    2.25
   4   5   0   36.09    2.55
  -4   5   0   30.17    2.79
   4   5   0   36.48    2.49
  -4   5   0   36.29    2.29
  -4   5   0   32.56    2.41
   5  -5   0   16.08    2.25
  -5  -5   0   21.30    2.70
  -5  -5   0   17.77    2.38
  -5   5   0   24.94    2.73
   5   5   0   15.60    2.19
  -5   5   0   24.62    2.79
  -5   5   0   24.34    2.47
   5   5   0   19.95    2.28
   5   5   0   20.17    2.44
   6  -5   0   17.27    2.57
  -6  -5   0   21.24    2.95
  -6  -5   0   21.65    3.05
  -6   5   0   11.09    1.84
  -6   5   0   14.80    2.36
   6   5   0   12.62    1.97
   6   5   0   11.87    2.14
  -6   5   0   12.15    2.21
   0  -6   0   63.57    2.63
   0  -6   0   60.45    2.78
   0  -6   0   64.17    2.67
   0  -6   0   63.38    2.65
   0  -6   0   57.59    2.73
   0   6   0   49.32    2.70
   0   6   0   51.88    2.41
   0   6   0   55.16    2.49
   0   6   0   58.86    2.75
   0   6   0   51.82    2.09
   1  -6   0   88.08    3.59
  -1  -6   0   94.01    3.48
   1  -6   0   89.78    3.40
  -1  -6   0   82.73    3.53
  -1  -6   0   91.27    3.38
   1  -6   0   89.91    3.38
  -1  -6   0   86.73    3.35
   1  -6   0   90.80    3.62
   1  -6   0   91.64    3.36
  -1  -6   0   85.71    3.60
   1   6   0   86.55    3.03
  -1   6   0   95.58    3.74
   1   6   0   84.92    3.57
  -1   6   0   87.27    3.42
   1   6   0   79.99    3.76
  -1   6   0   90.93    3.02
   1   6   0   82.00    3.38
   1   6   0   87.21    3.45
  -1   6   0   95.11    3.70
  -2  -6   0   74.69    3.27
  -2  -6   0   74.71    3.22
  -2  -6   0   75.01    3.20
   2  -6   0   72.87    3.22
   2  -6   0   72.03    3.22
   2  -6   0   76.08    3.46
  -2  -6   0   72.87    3.38
  -2   6   0   74.03    2.85
   2   6   0   71.81    2.87
   2   6   0   68.60    3.50
  -2   6   0   70.74    3.09
  -2   6   0   71.26    3.29
   2   6   0   76.42    3.33
   2   6   0   66.76    3.12
  -2   6   0   74.92    3.28
  -3  -6   0   45.96    2.73
   3  -6   0   57.00    2.99
  -3  -6   0   48.92    2.96
   3  -6   0   46.18    2.92
   3   6   0   46.27    2.90
   3   6   0   46.74    2.78
  -3   6   0   38.83    2.11
   3   6   0   44.31    2.35
   3   6   0   45.21    2.67
  -3   6   0   46.01    2.39
  -3   6   0   38.58    2.54
  -3   6   0   40.17    2.53
  -4  -6   0   65.06    3.62
  -4  -6   0   58.88    3.61
   4  -6   0   61.05    3.54
   4   6   0   59.96    3.07
   4   6   0   60.06    3.47
  -4   6   0   56.67    3.35
  -4   6   0   57.09    3.36
   4   6   0   56.60    3.39
   4   6   0   53.65    3.27
  -4   6   0   57.81    3.02
  -5  -6   0   31.28    3.24
   5  -6   0   34.99    3.46
  -5  -6   0   37.55    3.12
  -5   6   0   41.08    3.12
  -5   6   0   34.56    3.36
   5   6   0   40.83    3.01
  -5   6   0   38.71    2.69
   5   6   0   41.57    3.89
   5   6   0   38.36    2.70
   6  -6   0   20.67    2.95
  -6  -6   0   18.15    2.77
  -6  -6   0   18.32    2.82
  -6   6   0   16.95    2.64
  -6   6   0   17.44    2.36
  -6   6   0   18.27    2.62
   6   6   0   15.71    2.63
   6   6   0   16.92    2.35
   0  -7   0    0.79    0.49
   0  -7   0   -0.16    0.26
   0  -7   0    0.13    0.32
   0   7   0    0.13    0.35
   0   7   0    0.11    0.38
   0   7   0   -0.04    0.22
   0   7   0   -0.27    0.29
   0   7   0   -0.33    0.24
   1  -7   0    4.17    0.90
   1  -7   0    3.09    0.84
  -1  -7   0    4.50    0.92
  -1  -7   0    3.52    0.88
   1  -7   0    2.74    0.73
  -1  -7   0    3.23    0.79
   1   7   0    3.30    0.64
   1   7   0    4.18    1.00
  -1   7   0    2.77    0.62
   1   7   0    3.60    0.87
  -1   7   0    2.92    0.84
   1   7   0    3.28    0.84
  -1   7   0    2.69    0.76
   1   7   0    2.98    0.97
  -1   7   0    3.73    0.94
  -2  -7   0   27.95    2.00
  -2  -7   0   31.95    2.16
  -2  -7   0   27.28    2.10
   2  -7   0   28.80    2.15
   2  -7   0   30.88    2.12
   2  -7   0   29.00    2.05
  -2   7   0   29.70    2.06
   2   7   0   29.00    1.76
   2   7   0   27.52    2.27
  -2   7   0   27.96    2.02
  -2   7   0   30.34    1.76
  -2   7   0   30.99    2.23
   2   7   0   27.65    2.01
   2   7   0   31.09    2.18
  -3  -7   0   22.63    2.57
  -3  -7   0   17.07    2.02
   3  -7   0   18.83    2.16
   3  -7   0   13.84    2.02
   3   7   0   17.87    1.82
  -3   7   0   13.21    1.51
   3   7   0   14.31    1.89
  -3   7   0   13.62    1.81
  -3   7   0   14.62    1.99
   3   7   0   11.93    1.84
   3   7   0   13.88    1.90
  -3   7   0   16.74    1.76
  -4  -7   0   12.98    2.10
   4  -7   0   17.04    2.33
  -4  -7   0   14.67    2.09
   4  -7   0   13.92    2.16
  -4   7   0    8.87    1.68
   4   7   0    9.27    1.72
   4   7   0   11.32    1.86
   4   7   0    7.41    1.28
  -4   7   0   11.67    1.58
  -4   7   0   10.10    1.73
   4   7   0   12.91    2.03
   5  -7   0    5.87    1.64
   5  -7   0    5.23    1.48
  -5  -7   0    4.82    1.56
  -5  -7   0    4.43    1.36
   5   7   0    2.87    1.19
  -5   7   0    5.00    1.46
   5   7   0    4.78    1.36
  -5   7   0    3.63    1.24
  -5   7   0    4.88    1.20
   5   7   0    2.61    0.93
   0  -8   0   49.75    2.89
   0  -8   0   48.15    2.68
   0  -8   0   52.81    2.80
   0   8   0   45.76    2.61
   0   8   0   44.08    2.07
   0   8   0   45.17    2.98
   0   8   0   47.51    2.90
  -1  -8   0   91.03    3.84
   1  -8   0   97.24    3.95
   1  -8   0   95.47    4.00
   1  -8   0   87.57    4.05
  -1  -8   0   80.36    3.96
  -1  -8   0   88.80    3.89
  -1   8   0   83.08    4.08
  -1   8   0   95.25    4.22
  -1   8   0   81.15    3.73
   1   8   0   87.58    3.14
   1   8   0   82.54    3.77
   1   8   0   76.40    4.20
   1   8   0   83.16    3.76
   1   8   0   88.13    4.13
  -1   8   0   87.09    3.16
  -2  -8   0   77.39    3.81
   2  -8   0   89.67    3.94
  -2  -8   0   75.38    3.95
  -2  -8   0   85.76    3.88
   2  -8   0   80.30    4.09
   2  -8   0   83.70    3.89
  -2   8   0   77.27    3.80
  -2   8   0   81.89    4.07
  -2   8   0   83.38    3.19
   2   8   0   87.07    3.92
  -2   8   0   74.09    3.76
   2   8   0   81.81    3.21
   2   8   0   82.49    3.91
   2   8   0   81.95    4.37
  -3  -8   0   19.38    2.37
   3  -8   0   17.47    2.33
   3  -8   0   18.06    2.28
  -3  -8   0   16.29    2.10
   3   8   0   18.47    2.24
  -3   8   0   17.11    1.96
   3   8   0   18.83    2.66
   3   8   0   16.03    1.69
  -3   8   0   16.51    2.13
  -3   8   0   18.75    2.35
   3   8   0   12.98    1.93
  -3   8   0   16.42    1.70
   4  -8   0   11.68    2.05
   4  -8   0   13.88    2.20
  -4  -8   0   14.22    2.15
  -4  -8   0   17.55    2.54
   4   8   0   13.79    2.19
  -4   8   0   15.12    1.78
   4   8   0   16.04    2.43
   4   8   0   12.12    1.94
  -4   8   0   12.74    2.11
  -4   8   0   12.89    2.01
   4   8   0   13.75    1.74
   5  -8   0   31.96    3.78
  -5  -8   0   41.08    4.21
  -5  -8   0   32.76    3.59
   5  -8   0   34.55    3.80
   5   8   0   32.46    3.73
   5   8   0   35.98    3.68
  -5   8   0   33.39    3.53
  -5   8   0   33.57    2.52
   5   8   0   36.47    2.67
  -5   8   0   38.68    3.93
   5   8   0   36.06    3.86
   0  -9   0    0.14    0.49
   0   9   0   -0.07    0.44
   0   9   0    0.14    0.30
   0   9   0    0.12    0.45
   0   9   0   -0.07    0.50
  -1  -9   0    4.28    1.12
   1  -9   0    2.27    0.90
   1   9   0    3.19    0.93
  -1   9   0    4.06    0.77
   1   9   0    2.66    1.10
   1   9   0    5.34    1.28
  -1   9   0    3.43    1.16
  -1   9   0    4.45    1.22
   1   9   0    5.39    0.87
  -1   9   0    6.69    1.31
   1   9   0    6.01    1.27
  -2  -9   0    2.89    0.98
  -2  -9   0    5.19    1.38
   2  -9   0    4.15    1.21
  -2   9   0    5.79    1.40
   2   9   0    5.35    0.91
   2   9   0    3.74    1.07
  -2   9   0    5.10    0.90
   2   9   0    4.29    1.30
  -2   9   0    5.21    1.30
  -2   9   0    4.45    1.12
   2   9   0    5.06    1.23
   3  -9   0   12.90    2.05
   3  -9   0   10.27    1.91
  -3  -9   0   15.76    2.36
  -3   9   0   13.78    2.30
   3   9   0   14.05    1.64
   3   9   0   12.56    1.95
  -3   9   0   12.18    1.51
  -3   9   0   13.25    2.00
   3   9   0   10.27    1.83
   3   9   0    9.55    1.94
   4  -9   0   14.14    2.40
   4  -9   0   14.72    2.32
  -4  -9   0   16.58    2.54
  -4   9   0   15.20    1.79
   4   9   0   14.57    1.79
   4   9   0   14.58    2.64
  -4   9   0   12.79    2.16
   4   9   0   13.28    2.23
  -4   9   0   15.04    2.31
   4   9   0   14.96    2.26
   0 -10   0   25.62    2.85
   0  10   0   21.84    2.72
   0  10   0   25.03    3.09
   0  10   0   24.44    2.60
  -1 -10   0   26.07    2.87
   1 -10   0   24.88    2.78
  -1  10   0   34.02    3.50
   1  10   0   25.25    3.10
  -1  10   0   38.62    3.80
   1  10   0   35.46    2.67
   1  10   0   36.24    3.60
   1  10   0   27.84    2.81
  -1  10   0   31.90    2.50
   2 -10   0   38.47    3.05
  -2 -10   0   35.71    2.98
   2  10   0   37.72    3.53
   2  10   0   34.97    3.85
  -2  10   0   34.09    2.81
  -2  10   0   44.17    3.97
   2  10   0   35.64    2.78
  -2  10   0   37.06    2.79
   3 -10   0   60.99    4.21
  -3 -10   0   62.80    4.17
  -3  10   0   51.17    3.49
   3  10   0   54.63    3.63
  -3  10   0   56.44    3.92
   3  10   0   53.42    3.55
   3  10   0   55.47    4.11
   0 -11   0   -0.12    0.60
   0  11   0    0.68    0.96
   0  11   0    0.01    0.70
   0  11   0    0.12    0.57
   1 -11   0    5.38    1.48
  -1 -11   0    5.78    1.49
   1  11   0    3.95    1.47
   1  11   0    2.09    1.14
  -1  11   0    4.11    1.36
   1  11   0    4.49    1.28
  -1  11   0    4.59    1.27
  -1  11   0    5.44    1.58
  -2 -11   0    0.35    0.73
   2 -11   0    0.79    0.82
   2  11   0    1.43    0.88
   2  11   0    1.24    0.96
   2  11   0    0.71    0.83
  -2  11   0    1.85    1.01
  -2  11   0    1.14    0.87
  -2  11   0    0.34    0.73
  -7   0   1    1.03    0.92
  -7   0   1    1.61    1.05
   7   0  -1    1.20    0.96
   7   0  -1    1.15    1.11
  -7   0   1    2.44    1.13
  -6   0   1    7.98    1.54
   6   0  -1    9.39    1.91
  -6   0   1    6.84    1.50
  -6   0   1    5.80    1.46
   6   0  -1    4.91    1.29
   5   0  -1   19.26    2.21
  -5   0   1   19.56    2.19
  -5   0   1   18.68    2.14
   5   0  -1   19.95    2.30
  -5   0   1   17.05    2.16
  -4   0   1    0.23    0.35
  -4   0   1   -0.05    0.28
  -4   0   1    0.14    0.36
   4   0  -1    0.01    0.34
   4   0  -1    0.10    0.18
  -4   0   1    0.31    0.38
   4   0  -1    0.12    0.34
   3   0  -1    2.89    0.66
  -3   0   1    1.99    0.56
  -3   0   1    2.63    0.63
  -3   0   1    2.69    0.65
   3   0  -1    3.45    0.42
  -2   0   1    7.10    0.80
  -2   0   1    5.69    0.75
   2   0  -1    9.80    0.77
  -2   0   1    5.17    0.70
   2   0  -1    7.98    0.44
  -1   0   1    2.69    0.39
   1   0  -1    3.10    0.42
  -1   0   1    2.22    0.35
  -1   0   1    2.36    0.35
   1   0  -1    2.71    0.37
   0   0   1   36.52    0.98
   0   0  -1   36.28    1.03
   0   0   1   36.20    0.84
   0   0   1   37.11    0.96
   0   0  -1   37.89    0.85
   0   0   1   35.43    0.94
   0   0   1   39.94    1.02
   0   0  -1   37.23    0.98
   0   0   1   35.59    1.01
   0   0   1   36.55    1.01
   0   0  -1   36.27    1.00
   0   0  -1   38.08    1.02
  -1   0  -1  139.72    3.83
  -1   0  -1  142.11    3.64
   1   0   1  140.76    3.70
  -1   0  -1  142.22    3.68
   1   0   1  148.69    3.71
  -1   0  -1  138.20    3.48
  -2   0  -1   70.48    2.57
   2   0   1   72.63    2.64
   2   0   1   71.33    2.31
  -2   0  -1   67.45    2.41
   2   0   1   67.30    2.48
  -2   0  -1   68.32    2.63
  -2   0  -1   66.95    2.48
   3   0   1    1.10    0.50
   3   0   1    2.04    0.47
   3   0   1    1.71    0.53
  -3   0  -1    2.39    0.67
  -3   0  -1    1.27    0.46
  -3   0  -1    1.11    0.47
  -3   0  -1    3.17    0.72
   4   0   1   26.55    2.05
   4   0   1   26.72    1.95
  -4   0  -1   24.91    1.94
  -4   0  -1   23.63    1.94
  -4   0  -1   25.48    1.89
  -4   0  -1   23.30    1.78
   5   0   1   88.23    4.31
  -5   0  -1  105.64    4.48
   5   0   1  100.05    4.67
  -5   0  -1   97.75    4.57
  -5   0  -1   96.05    4.63
  -5   0  -1   92.87    4.35
  -6   0  -1   31.02    3.11
   6   0   1   29.24    3.25
  -6   0  -1   28.47    3.01
   6   0   1   34.06    3.29
  -6   0  -1   27.73    3.21
  -7   0  -1    1.21    0.89
   7   0   1    0.77    0.93
  -7   0  -1    1.17    1.00
   7   0   1    1.57    1.12
  -7   0  -1    0.63    0.85
  -7  -1   1   22.33    3.14
  -7  -1   1   23.47    2.95
   7  -1  -1   24.74    3.20
  -7  -1   1   27.39    3.23
  -7   1   1   28.65    3.36
   7   1  -1   32.00    3.84
  -7   1   1   29.04    3.61
  -7   1   1   23.72    2.97
   7   1  -1   19.03    2.78
  -6  -1   1   24.88    2.91
  -6  -1   1   23.72    2.71
   6  -1  -1   28.64    3.03
  -6  -1   1   30.39    3.04
   6  -1  -1   19.16    2.56
  -6   1   1   23.05    2.58
   6   1  -1   28.00    2.99
   6   1  -1   26.38    3.03
  -6   1   1   29.32    3.23
  -6   1   1   26.40    2.88
   5  -1  -1   92.58    4.43
  -5  -1   1   94.14    4.29
  -5  -1   1   90.84    4.37
  -5  -1   1   91.53    4.48
   5  -1  -1   99.46    4.42
   5   1  -1   83.04    3.98
  -5   1   1   85.85    4.16
  -5   1   1   83.66    3.94
  -5   1   1   82.25    3.85
   5   1  -1   82.84    4.06
  -4  -1   1  164.02    5.58
  -4  -1   1  159.42    5.70
   4  -1  -1  156.18    5.41
   4  -1  -1  154.07    5.51
  -4  -1   1  152.01    5.31
  -4   1   1  147.04    5.10
   4   1  -1  152.67    4.42
  -4   1   1  144.10    5.27
  -4   1   1  156.14    5.42
   4   1  -1  151.54    5.24
  -4   1   1  154.64    5.15
  -3  -1   1  213.49    6.24
   3  -1  -1  222.87    6.35
  -3  -1   1  217.15    6.57
   3  -1  -1  214.74    6.19
  -3  -1   1  218.61    6.38
  -3   1   1  215.24    6.12
   3   1  -1  226.99    5.81
  -3   1   1  229.82    6.58
   3   1  -1  220.17    6.34
  -3   1   1  226.43    6.27
  -3   1   1  223.93    6.45
  -2  -1   1  296.95    7.63
  -2  -1   1  290.26    7.30
  -2  -1   1  277.25    7.19
   2  -1  -1  292.32    7.14
   2  -1  -1  286.00    7.51
   2  -1  -1  278.20    7.17
  -2   1   1  291.00    7.49
   2   1  -1  283.45    7.29
   2   1  -1  292.30    7.41
   2   1  -1  300.01    7.12
  -2   1   1  299.75    7.33
  -2   1   1  286.38    7.00
  -2   1   1  288.33    7.14
  -1  -1   1  449.08    9.97
  -1  -1   1  440.73   10.00
  -1  -1   1  426.74   10.46
   1  -1  -1  455.19   10.22
   1  -1  -1  431.15    9.76
   1  -1  -1  442.02    9.71
  -1   1   1  407.62    9.10
  -1   1   1  414.42    9.04
  -1   1   1  407.68    8.84
   1   1  -1  404.76    9.32
  -1   1   1  416.71    9.48
   1   1  -1  409.81    9.28
  -1   1   1  412.27    9.14
   0  -1   1  626.11   13.49
   0  -1   1  616.55   14.19
   0  -1   1  613.51   13.52
   0  -1   1  634.22   14.24
   0  -1   1  623.22   13.53
   0   1  -1  595.86   12.54
   0   1  -1  604.02   13.12
   0   1  -1  614.78   13.09
   0   1   1  614.32   13.60
   0   1   1  609.48   12.80
   0   1  -1  597.76   13.79
   0   1   1  593.70   12.31
   1  -1   1  315.03    7.20
  -1  -1  -1  295.67    7.34
   1  -1   1  301.50    7.21
  -1  -1  -1  297.68    6.98
  -1  -1  -1  306.69    7.03
  -1   1  -1  317.93    7.07
   1   1   1  307.05    7.15
  -1   1  -1  318.29    7.75
   1   1   1  312.23    7.60
  -1   1  -1  310.86    7.39
  -2  -1  -1   78.24    2.71
  -2  -1  -1   80.14    2.86
   2  -1   1   74.53    2.81
   2  -1   1   82.63    2.84
  -2  -1  -1   79.99    2.78
  -2   1  -1   61.17    2.46
   2   1   1   59.79    2.23
   2   1   1   63.94    2.33
  -2   1  -1   60.63    2.28
  -2   1  -1   63.56    2.38
  -2   1  -1   60.09    2.38
   3  -1   1   49.78    2.43
  -3  -1  -1   48.81    2.45
  -3  -1  -1   47.31    2.29
  -3  -1  -1   49.66    2.41
   3  -1   1   50.45    2.50
   3   1   1   54.27    2.51
  -3   1  -1   48.38    2.36
   3   1   1   47.67    2.31
  -3   1  -1   52.27    2.55
  -3   1  -1   47.58    2.28
  -3   1  -1   46.92    2.41
   3   1   1   50.84    2.18
   4  -1   1  123.70    4.79
  -4  -1  -1  120.37    4.74
   4  -1   1  128.10    4.96
  -4  -1  -1  130.86    5.03
  -4  -1  -1  120.56    4.65
   4   1   1  120.46    4.61
  -4   1  -1  118.28    4.77
  -4   1  -1  132.10    4.84
   4   1   1  126.63    4.90
  -4   1  -1  130.87    4.73
   4   1   1  125.91    4.20
  -4   1  -1  127.13    4.98
  -5  -1  -1   58.34    3.53
  -5  -1  -1   51.46    3.15
   5  -1   1   58.40    3.36
   5  -1   1   54.38    3.41
  -5  -1  -1   57.31    3.40
  -5  -1  -1   56.08    3.20
   5   1   1   47.92    3.02
  -5   1  -1   52.14    3.15
  -5   1  -1   53.61    3.11
   5   1   1   49.83    3.24
  -5   1  -1   55.55    3.33
  -6  -1  -1   27.63    2.91
   6  -1   1   32.75    3.36
  -6  -1  -1   31.02    3.19
   6  -1   1   33.29    3.63
  -6  -1  -1   35.09    3.56
   6   1   1   28.13    3.08
  -6   1  -1   29.58    3.07
  -6   1  -1   27.62    3.01
  -6   1  -1   27.86    3.18
   6   1   1   30.14    3.32
   7  -1   1   10.17    2.10
   7  -1   1   12.71    2.50
  -7  -1  -1    9.57    1.98
  -7  -1  -1   12.67    2.31
  -7   1  -1   15.18    2.65
   7   1   1   10.27    2.04
   7   1   1   11.62    2.49
  -7   1  -1   12.51    2.21
  -7   1  -1   12.05    2.18
  -7  -2   1    0.99    1.01
  -7  -2   1    3.38    1.32
   7  -2  -1    1.95    1.07
  -7  -2   1    1.74    1.12
  -7   2   1    2.90    1.25
  -7   2   1    1.94    1.09
   7   2  -1    1.26    0.93
  -7   2   1    1.08    0.88
   7   2  -1    0.59    0.84
  -6  -2   1    5.95    1.53
  -6  -2   1    4.73    1.33
   6  -2  -1    5.18    1.42
   6  -2  -1    4.53    1.26
  -6   2   1    5.98    1.54
   6   2  -1    3.67    1.26
  -6   2   1    5.51    1.35
  -6   2   1    2.71    0.99
   6   2  -1    4.93    1.30
  -5  -2   1    7.66    1.47
  -5  -2   1   12.55    1.91
   5  -2  -1   12.17    1.83
   5  -2  -1    9.89    1.63
  -5  -2   1   10.82    1.70
  -5   2   1    7.35    1.37
  -5   2   1   10.49    1.73
  -5   2   1   10.32    1.57
   5   2  -1   10.43    1.68
   4  -2  -1    7.09    1.19
   4  -2  -1    7.74    1.24
  -4  -2   1    8.38    1.34
  -4  -2   1    6.03    1.25
  -4  -2   1    7.77    1.27
  -4   2   1    8.42    1.34
  -4   2   1   10.75    1.42
   4   2  -1    7.87    1.03
  -4   2   1    8.60    1.30
  -4   2   1    6.78    1.19
   4   2  -1    7.35    1.20
   3  -2  -1   15.94    1.28
   3  -2  -1   12.18    1.37
  -3  -2   1   14.61    1.52
  -3  -2   1   17.92    1.39
  -3  -2   1   16.69    1.41
   3   2  -1   14.62    1.56
  -3   2   1   14.35    1.18
  -3   2   1   14.80    1.18
  -3   2   1   15.61    1.56
   3   2  -1   15.59    1.54
   3   2  -1   14.94    1.08
  -3   2   1   14.82    1.49
  -2  -2   1  116.56    3.76
   2  -2  -1  124.02    3.65
  -2  -2   1  114.97    3.89
   2  -2  -1  116.51    3.57
  -2  -2   1  111.30    3.65
   2  -2  -1  121.05    3.74
   2   2  -1  109.08    3.61
   2   2  -1  113.31    3.50
  -2   2   1  108.18    3.40
   2   2  -1  111.55    3.51
  -2   2   1  114.96    3.33
  -2   2   1  116.87    3.47
  -2   2   1  113.79    2.76
  -2   2   1  110.57    3.47
  -1  -2   1   82.35    2.70
  -1  -2   1   82.44    2.61
   1  -2  -1   81.88    2.37
   1  -2  -1   77.34    2.27
  -1  -2   1   83.69    2.54
   1  -2  -1   80.68    2.31
  -1  -2   1   86.21    2.58
  -1   2   1   82.67    2.33
   1   2  -1   82.49    2.58
  -1   2   1   80.60    2.31
   1   2  -1   83.82    2.51
  -1   2   1   78.07    2.15
   1   2  -1   78.97    2.49
  -1   2   1   79.00    2.36
  -1   2   1   79.53    2.31
   1   2  -1   85.62    2.66
   0  -2   1  485.92   11.88
   0  -2   1  514.39   11.32
   0  -2   1  507.09   11.33
   0  -2   1  490.19   11.88
   0  -2  -1  512.52   10.76
   0  -2  -1  512.41   11.26
   0  -2   1  498.56   11.30
   0   2   1  472.82   10.21
   0   2  -1  461.88   10.79
   0   2   1  481.60   10.34
   0   2  -1  481.71   10.13
   0   2   1  462.77   10.56
   0   2  -1  490.77   11.34
   0   2   1  469.04   11.21
   0   2  -1  474.85   10.42
   0   2  -1  502.64   10.78
   0   2   1  493.06   10.34
   1  -2   1  309.11    7.47
   1  -2   1  319.23    7.45
   1  -2   1  305.34    7.82
  -1  -2  -1  307.40    7.14
  -1  -2  -1  288.21    7.45
  -1  -2  -1  306.98    7.15
  -1   2  -1  326.24    7.29
   1   2   1  304.60    7.46
   1   2   1  302.61    7.13
   1   2   1  307.44    7.31
  -1   2  -1  324.61    7.50
   1   2   1  316.21    7.86
  -1   2  -1  318.58    7.60
  -1   2  -1  295.03    7.82
   2  -2   1  411.35   10.26
  -2  -2  -1  419.59   10.04
   2  -2   1  417.67   10.23
  -2  -2  -1  414.82   10.53
  -2  -2  -1  412.30   10.01
  -2   2  -1  422.81   10.75
  -2   2  -1  407.73   10.31
   2   2   1  426.63   10.54
   2   2   1  418.81   10.02
  -2   2  -1  431.92   10.26
  -2   2  -1  419.69    9.93
  -3  -2  -1   96.44    3.63
  -3  -2  -1   93.61    3.57
  -3  -2  -1   93.77    3.76
   3  -2   1   96.56    3.77
   3  -2   1   94.27    3.70
  -3   2  -1   76.73    3.30
   3   2   1   80.01    3.15
  -3   2  -1   78.93    3.19
   3   2   1   83.65    3.18
  -3   2  -1   82.29    3.23
  -3   2  -1   81.76    3.46
  -4  -2  -1   88.39    4.04
   4  -2   1   89.55    3.96
  -4  -2  -1   87.24    3.79
   4  -2   1   93.64    4.12
  -4  -2  -1   89.55    3.93
  -4   2  -1   79.76    3.72
   4   2   1   74.70    3.26
   4   2   1   78.12    3.50
  -4   2  -1   77.05    3.50
  -4   2  -1   86.48    3.64
  -4   2  -1   80.97    3.76
   5  -2   1   37.16    2.72
  -5  -2  -1   38.76    2.80
   5  -2   1   36.47    2.82
  -5  -2  -1   35.52    2.62
  -5  -2  -1   41.58    2.97
   5   2   1   36.80    2.57
  -5   2  -1   40.92    2.73
   5   2   1   39.36    2.31
  -5   2  -1   39.62    2.64
  -5   2  -1   44.16    2.98
   5   2   1   39.94    2.86
   6  -2   1   23.46    2.88
  -6  -2  -1   25.71    2.90
   6  -2   1   24.50    3.09
  -6  -2  -1   26.65    3.07
  -6   2  -1   30.51    3.34
  -6   2  -1   30.04    3.05
  -6   2  -1   25.32    2.89
   6   2   1   28.44    3.21
   6   2   1   30.29    3.12
  -7  -2  -1   31.22    3.56
   7  -2   1   35.00    3.82
  -7  -2  -1   35.11    3.87
   7   2   1   33.23    3.62
  -7   2  -1   33.05    3.85
   7   2   1   29.98    3.72
  -7   2  -1   29.19    3.35
  -7   2  -1   31.29    3.53
  -7  -3   1   14.99    2.50
   7  -3  -1   13.16    2.32
   7   3  -1   20.92    3.24
  -7   3   1   16.37    2.54
  -7   3   1   12.40    2.23
   7   3  -1   18.95    2.70
  -7   3   1   15.19    2.62
  -6  -3   1   43.54    3.38
  -6  -3   1   50.84    3.46
   6  -3  -1   45.81    3.33
  -6   3   1   38.92    2.99
   6   3  -1   49.19    3.31
  -6   3   1   41.81    3.21
  -6   3   1   45.15    3.03
  -5  -3   1   61.41    3.66
  -5  -3   1   53.03    3.31
  -5  -3   1   55.34    3.30
   5  -3  -1   54.65    3.29
   5  -3  -1   58.49    3.44
  -5   3   1   65.69    3.33
  -5   3   1   61.89    3.44
  -5   3   1   60.50    3.48
   5   3  -1   60.56    2.93
   5   3  -1   58.58    3.33
   4  -3  -1   87.26    3.83
  -4  -3   1   79.76    3.80
   4  -3  -1   84.35    3.75
  -4  -3   1   79.35    3.90
  -4  -3   1   91.10    3.93
   4   3  -1   79.09    3.65
   4   3  -1   76.60    3.19
   4   3  -1   75.12    3.45
  -4   3   1   72.68    3.21
  -4   3   1   71.40    3.43
  -4   3   1   71.73    3.37
   3  -3  -1  268.39    7.71
  -3  -3   1  296.57    8.43
   3  -3  -1  271.95    7.76
  -3  -3   1  288.81    7.96
  -3  -3   1  284.87    8.02
  -3   3   1  260.25    7.12
  -3   3   1  270.40    7.48
   3   3  -1  265.15    7.40
   3   3  -1  263.28    7.44
  -3   3   1  262.74    6.13
  -3   3   1  266.10    7.28
  -3   3   1  269.03    7.45
   3   3  -1  259.31    7.64
  -2  -3   1  447.49   11.28
  -2  -3   1  417.18   10.63
   2  -3  -1  437.22   10.39
  -2  -3   1  444.99   10.72
   2  -3  -1  425.79   10.39
   2  -3  -1  425.36   10.86
  -2   3   1  405.52    9.98
   2   3  -1  403.31   10.25
  -2   3   1  407.06    9.79
  -2   3   1  420.69    9.71
  -2   3   1  410.71    9.71
   2   3  -1  425.96   10.55
   2   3  -1  416.66   10.09
  -1  -3   1   86.43    2.98
   1  -3  -1   83.70    2.53
   1  -3  -1   85.28    2.53
   1  -3  -1   81.70    2.59
  -1  -3   1   86.52    2.84
  -1  -3   1   88.35    2.83
  -1  -3   1   85.79    2.88
  -1   3   1   79.51    2.44
  -1   3   1   79.82    2.21
   1   3  -1   77.11    2.59
  -1   3   1   75.09    2.54
   1   3  -1   82.22    2.74
  -1   3   1   78.84    2.60
  -1   3   1   79.12    2.45
   1   3  -1   84.94    2.94
   1   3  -1   79.38    2.52
   1   3  -1   81.10    2.76
   0  -3  -1   49.07    1.56
   0  -3   1   49.62    1.87
   0  -3   1   49.62    1.90
   0  -3   1   51.74    1.96
   0  -3   1   50.08    2.01
   0  -3  -1   48.87    1.56
   0  -3  -1   47.97    1.61
   0   3  -1   43.93    1.80
   0   3   1   44.75    1.52
   0   3  -1   46.64    1.76
   0   3   1   44.27    1.69
   0   3   1   44.44    1.50
   0   3   1   46.18    1.26
   0   3  -1   43.27    1.79
   0   3   1   44.90    1.91
   0   3  -1   47.26    1.83
   0   3  -1   45.29    1.53
   0   3   1   44.11    1.23
   0   3   1   42.05    1.77
  -1  -3  -1  339.42    7.89
   1  -3   1  322.69    8.64
   1  -3   1  329.89    8.29
   1  -3   1  346.83    8.29
  -1  -3  -1  337.72    7.85
  -1  -3  -1  331.61    8.27
  -1  -3  -1  330.64    7.88
  -1   3  -1  338.19    8.39
   1   3   1  335.50    8.04
  -1   3  -1  322.93    8.18
   1   3   1  329.35    8.76
  -1   3  -1  346.13    8.17
  -1   3  -1  349.18    8.69
   1   3   1  348.19    8.34
   1   3   1  341.20    7.80
  -2  -3  -1  222.85    6.38
   2  -3   1  224.19    6.31
  -2  -3  -1  224.27    6.06
  -2  -3  -1  220.70    6.08
   2  -3   1  222.97    6.36
   2   3   1  224.08    6.11
   2   3   1  228.12    6.46
  -2   3  -1  216.67    6.09
  -2   3  -1  216.44    6.02
   2   3   1  215.62    6.21
   2   3   1  221.11    5.84
  -2   3  -1  221.78    6.45
  -2   3  -1  227.53    6.32
   3  -3   1   70.05    3.21
  -3  -3  -1   72.43    3.06
  -3  -3  -1   67.43    3.13
   3  -3   1   70.07    3.19
  -3  -3  -1   73.05    3.10
   3   3   1   79.24    3.29
  -3   3  -1   74.02    3.15
   3   3   1   82.15    3.15
  -3   3  -1   79.34    3.38
  -3   3  -1   81.40    3.43
  -3   3  -1   72.61    3.18
  -4  -3  -1   70.83    3.39
   4  -3   1   65.97    3.41
  -4  -3  -1   63.20    3.28
   4  -3   1   68.32    3.52
  -4  -3  -1   63.97    3.45
   4   3   1   61.21    3.12
  -4   3  -1   74.31    4.06
  -4   3  -1   71.55    3.37
  -4   3  -1   67.75    3.33
  -4   3  -1   70.98    3.53
   4   3   1   73.94    3.33
  -5  -3  -1   48.73    3.03
  -5  -3  -1   42.41    2.95
  -5  -3  -1   47.40    3.23
   5  -3   1   46.55    3.19
   5  -3   1   39.56    2.94
   5   3   1   49.34    3.14
  -5   3  -1   48.44    3.05
   5   3   1   41.89    2.74
   5   3   1   43.46    2.68
  -5   3  -1   46.53    3.12
  -5   3  -1   44.47    2.89
  -6  -3  -1   19.69    2.58
   6  -3   1   20.75    2.77
  -6  -3  -1   15.13    2.40
   6  -3   1   18.90    2.71
  -6   3  -1   13.05    2.10
   6   3   1   15.75    2.29
   6   3   1   15.36    2.40
  -6   3  -1   16.26    2.32
  -6   3  -1   13.63    2.21
  -6  -4   1   11.91    2.14
   6  -4  -1   16.77    2.46
  -6   4   1   16.09    2.20
  -6   4   1   19.49    2.68
   6   4  -1   14.78    2.18
  -6   4   1   13.38    2.16
  -5  -4   1   13.85    2.20
  -5  -4   1   20.66    2.50
   5  -4  -1   16.69    2.24
  -5  -4   1   17.99    2.30
  -5   4   1   16.04    1.95
   5   4  -1   16.41    2.10
   5   4  -1   13.72    1.78
  -5   4   1   15.30    2.12
  -5   4   1   17.68    2.21
  -4  -4   1    5.54    1.12
  -4  -4   1    6.09    1.28
  -4  -4   1    5.76    1.27
   4  -4  -1    3.93    1.00
   4  -4  -1    4.52    1.05
  -4   4   1    3.50    0.93
  -4   4   1    3.90    0.85
  -4   4   1    5.11    1.12
   4   4  -1    4.05    1.02
   4   4  -1    3.75    0.90
   4   4  -1    4.27    0.97
   3  -4  -1   41.91    2.25
  -3  -4   1   43.81    2.44
   3  -4  -1   40.60    2.23
  -3  -4   1   40.59    2.49
  -3  -4   1   41.85    2.37
  -3   4   1   41.33    2.03
   3   4  -1   45.58    2.48
  -3   4   1   42.85    2.29
  -3   4   1   40.38    1.59
  -3   4   1   39.08    2.23
   3   4  -1   39.06    2.19
   3   4  -1   46.26    2.44
   2  -4  -1   32.13    1.69
  -2  -4   1   32.31    1.85
  -2  -4   1   29.96    1.78
  -2  -4   1   32.29    1.93
   2  -4  -1   31.84    1.67
   2  -4  -1   31.92    1.74
   2   4  -1   33.53    1.97
  -2   4   1   32.85    1.55
  -2   4   1   36.25    1.58
   2   4  -1   37.40    1.99
   2   4  -1   32.01    1.74
   2   4  -1   31.66    1.76
  -2   4   1   30.18    1.76
  -2   4   1   34.49    1.76
  -1  -4   1   37.61    1.76
   1  -4  -1   31.79    1.48
  -1  -4   1   38.30    1.82
   1  -4  -1   32.31    1.53
  -1  -4   1   37.82    1.84
  -1  -4   1   38.46    2.12
   1  -4  -1   35.06    1.53
  -1  -4   1   36.95    1.91
  -1   4   1   30.46    1.45
   1   4  -1   36.02    1.61
   1   4  -1   34.77    1.62
  -1   4   1   29.87    1.22
   1   4  -1   32.48    1.84
   1   4  -1   34.63    1.79
  -1   4   1   31.31    1.63
   1   4  -1   32.77    1.72
  -1   4   1   32.36    1.65
   0  -4  -1   57.63    2.00
   0  -4  -1   58.29    1.97
   0  -4  -1   60.04    2.07
   0  -4   1   56.15    2.38
   0  -4  -1   61.46    1.94
   0  -4   1   50.76    2.34
   0  -4   1   62.78    2.33
   0  -4   1   60.25    2.35
   0  -4  -1   59.80    2.09
   0  -4   1   60.49    2.35
   0   4  -1   51.34    1.93
   0   4   1   54.64    1.62
   0   4  -1   57.62    2.14
   0   4   1   59.07    2.03
   0   4   1   52.86    1.94
   0   4  -1   53.25    2.26
   0   4  -1   57.81    2.31
   0   4   1   55.14    2.40
   0   4   1   57.69    2.23
   0   4  -1   51.25    2.34
   0   4   1   55.38    2.26
  -1  -4  -1  104.32    3.29
   1  -4   1  117.57    3.68
   1  -4   1  108.44    3.80
  -1  -4  -1  107.49    3.25
   1  -4   1  115.60    3.75
   1  -4   1  116.65    3.72
  -1  -4  -1  112.34    3.33
  -1  -4  -1  103.64    3.44
   1   4   1  118.69    3.21
  -1   4  -1  120.26    3.83
   1   4   1  111.07    3.65
   1   4   1  111.59    3.50
  -1   4  -1  116.25    3.65
  -1   4  -1  117.39    3.83
   1   4   1  112.83    3.82
   1   4   1  119.97    4.13
  -2  -4  -1  122.77    4.27
   2  -4   1  123.81    4.51
   2  -4   1  126.18    4.27
  -2  -4  -1  124.18    4.03
  -2  -4  -1  129.11    4.08
   2  -4   1  124.72    4.31
  -2   4  -1  123.18    4.12
   2   4   1  130.10    3.86
  -2   4  -1  120.20    4.27
   2   4   1  117.60    4.43
  -2   4  -1  131.12    4.32
   2   4   1  127.19    4.36
  -2   4  -1  133.03    4.37
   2   4   1  123.93    4.11
   3  -4   1  205.18    6.45
  -3  -4  -1  196.05    6.45
   3  -4   1  195.57    6.42
  -3  -4  -1  189.04    6.08
  -3  -4  -1  196.79    6.18
  -3   4  -1  166.98    5.82
  -3   4  -1  173.98    5.61
   3   4   1  179.31    5.41
   3   4   1  167.06    5.79
  -3   4  -1  184.37    5.97
   3   4   1  175.23    5.95
   3   4   1  184.99    5.77
  -3   4  -1  175.98    5.71
  -4  -4  -1   28.21    2.25
   4  -4   1   27.10    2.61
   4  -4   1   19.74    2.18
  -4  -4  -1   24.32    2.40
  -4  -4  -1   23.41    2.27
   4   4   1   25.11    1.97
   4   4   1   22.03    2.34
   4   4   1   26.05    1.91
  -4   4  -1   26.09    1.97
  -4   4  -1   20.25    2.17
  -4   4  -1   25.71    2.55
  -5  -4  -1   11.65    1.83
   5  -4   1    9.63    1.76
   5  -4   1   11.33    2.02
  -5  -4  -1    8.32    1.72
   5   4   1   11.50    1.93
  -5   4  -1   14.32    2.08
  -5   4  -1   15.66    2.12
  -5   4  -1   12.53    1.85
   5   4   1   11.37    1.75
   5   4   1   11.18    1.63
  -6  -4  -1   13.44    2.19
   6  -4   1   14.54    2.35
  -6  -4  -1   14.54    2.43
  -6   4  -1   15.25    2.48
   6   4   1   14.22    2.09
  -6   4  -1   12.46    2.03
  -6   4  -1   15.80    2.36
   6   4   1   13.84    2.32
   6   4   1   16.38    2.63
   6  -5  -1   21.31    2.85
  -6  -5   1   22.90    2.94
  -6   5   1   13.21    2.30
   6   5  -1   14.50    2.15
  -6   5   1   13.07    1.95
   6   5  -1   12.27    2.15
  -6   5   1   11.33    2.12
  -5  -5   1   46.65    3.26
   5  -5  -1   46.16    3.19
  -5  -5   1   51.67    3.56
   5   5  -1   54.57    3.24
   5   5  -1   57.48    3.30
   5   5  -1   53.49    3.41
  -5   5   1   53.89    3.43
  -5   5   1   51.26    3.29
  -5   5   1   54.22    3.02
  -4  -5   1  233.39    8.30
  -4  -5   1  254.03    8.09
   4  -5  -1  249.04    7.90
  -4  -5   1  240.51    8.00
  -4   5   1  234.34    7.68
   4   5  -1  235.56    7.45
   4   5  -1  239.07    7.96
   4   5  -1  239.20    7.84
   4   5  -1  237.71    7.70
  -4   5   1  237.50    7.57
  -4   5   1  247.94    7.19
   3  -5  -1  159.43    5.52
  -3  -5   1  173.81    6.13
   3  -5  -1  165.79    5.64
  -3  -5   1  167.03    5.76
  -3  -5   1  175.77    5.88
   3   5  -1  166.70    5.44
  -3   5   1  172.29    5.09
  -3   5   1  169.26    4.81
  -3   5   1  157.11    5.44
  -3   5   1  162.02    5.49
   3   5  -1  172.55    5.94
   3   5  -1  154.52    5.45
   3   5  -1  160.21    5.69
  -2  -5   1   64.38    2.92
   2  -5  -1   64.49    2.68
   2  -5  -1   65.06    2.84
  -2  -5   1   74.39    3.09
   2  -5  -1   67.01    2.78
  -2  -5   1   67.03    2.89
  -2  -5   1   65.60    3.09
   2   5  -1   54.75    2.64
   2   5  -1   54.15    2.76
   2   5  -1   52.07    2.45
  -2   5   1   49.66    2.24
  -2   5   1   49.05    2.44
   2   5  -1   52.60    2.38
  -2   5   1   45.54    1.95
  -2   5   1   49.07    2.31
  -1  -5   1  218.36    6.22
   1  -5  -1  219.96    5.87
  -1  -5   1  220.34    6.34
   1  -5  -1  217.05    6.18
  -1  -5   1  219.16    6.66
   1  -5  -1  226.07    5.93
  -1  -5   1  223.20    6.62
   1  -5  -1  219.22    6.21
   1   5  -1  188.68    5.33
   1   5  -1  206.56    5.82
   1   5  -1  193.44    5.76
  -1   5   1  185.03    5.50
   1   5  -1  192.28    5.39
  -1   5   1  178.03    5.23
   1   5  -1  195.99    6.17
  -1   5   1  182.79    5.73
   0  -5   1  190.07    5.53
   0  -5  -1  185.57    4.99
   0  -5   1  189.70    5.46
   0  -5  -1  183.18    5.29
   0  -5   1  183.25    5.78
   0  -5   1  194.32    5.55
   0  -5  -1  188.10    5.33
   0  -5  -1  181.87    5.06
   0  -5   1  190.50    5.80
   0  -5  -1  183.23    4.99
   0   5   1  187.74    4.51
   0   5  -1  182.16    5.00
   0   5  -1  188.06    5.50
   0   5  -1  179.75    5.78
   0   5   1  183.28    5.06
   0   5  -1  180.73    5.46
   0   5   1  177.54    5.76
   0   5   1  185.25    5.35
   0   5   1  183.07    5.40
   1  -5   1  201.18    5.94
   1  -5   1  203.20    5.90
  -1  -5  -1  198.20    5.43
  -1  -5  -1  201.85    5.43
   1  -5   1  194.38    6.16
  -1  -5  -1  196.05    5.78
  -1  -5  -1  201.59    5.52
   1  -5   1  189.85    5.72
   1   5   1  210.58    6.27
  -1   5  -1  210.96    6.00
  -1   5  -1  212.33    6.44
  -1   5  -1  226.05    6.38
   1   5   1  229.16    5.48
   1   5   1  215.97    5.96
   1   5   1  221.68    6.80
   1   5   1  219.51    6.20
  -1   5  -1  211.02    6.24
  -1   5  -1  217.90    6.30
  -2  -5  -1  132.76    4.43
   2  -5   1  140.49    4.76
   2  -5   1  134.26    4.96
  -2  -5  -1  134.13    4.40
   2  -5   1  139.82    4.79
  -2  -5  -1  130.44    4.62
  -2   5  -1  130.53    4.62
   2   5   1  123.60    4.32
   2   5   1  135.68    4.02
  -2   5  -1  125.42    4.33
  -2   5  -1  132.65    4.56
  -2   5  -1  128.23    4.36
   2   5   1  125.80    4.86
  -2   5  -1  135.81    4.69
   2   5   1  136.96    4.73
   3  -5   1  126.72    4.88
  -3  -5  -1  131.14    4.97
   3  -5   1  124.26    5.16
   3  -5   1  127.79    4.94
  -3  -5  -1  129.74    4.72
   3   5   1  115.40    4.42
  -3   5  -1  113.70    4.28
   3   5   1  115.13    4.02
   3   5   1  114.32    4.60
   3   5   1  113.24    4.66
  -3   5  -1  106.56    4.40
  -3   5  -1  112.11    4.55
  -3   5  -1  117.45    3.94
   4  -5   1   46.10    3.05
  -4  -5  -1   50.25    2.99
   4  -5   1   50.71    3.16
  -4  -5  -1   45.04    3.00
  -4   5  -1   34.90    2.59
   4   5   1   33.74    2.50
  -4   5  -1   37.71    2.57
   4   5   1   37.26    2.31
   4   5   1   36.57    2.67
  -4   5  -1   35.27    2.39
  -5  -5  -1   20.04    2.61
  -5  -5  -1   16.70    2.25
   5  -5   1   20.19    2.60
  -5   5  -1   12.25    1.93
   5   5   1   12.21    1.80
  -5   5  -1   14.92    2.01
  -5   5  -1   14.69    2.21
   5   5   1   14.94    2.17
   5   5   1   13.85    2.21
   6  -5   1   12.03    2.30
  -6  -5  -1   13.26    2.38
  -6  -5  -1   12.92    2.23
   6   5   1   17.76    2.72
  -6   5  -1   17.86    2.57
  -6   5  -1   13.72    2.39
   6   5   1   15.13    2.40
   6   5   1   15.28    2.25
  -6   5  -1   17.98    2.47
  -6  -6   1    1.16    1.08
   6  -6  -1    1.46    1.08
  -6   6   1    1.28    0.81
   6   6  -1    1.58    0.92
  -6   6   1    0.95    0.85
   6   6  -1    2.86    1.27
  -6   6   1    3.59    1.31
  -5  -6   1    8.24    1.68
   5  -6  -1    9.20    1.79
  -5  -6   1    7.14    1.63
  -5   6   1    8.11    1.65
   5   6  -1    6.50    1.47
   5   6  -1    7.91    1.49
  -5   6   1    7.77    1.36
   5   6  -1    9.17    1.78
  -5   6   1    7.71    1.61
   5   6  -1    6.97    1.57
   4  -6  -1    2.62    0.92
  -4  -6   1    3.97    1.17
  -4  -6   1    5.04    1.32
  -4   6   1    4.57    1.15
   4   6  -1    3.02    1.02
  -4   6   1    1.08    0.70
  -4   6   1    3.37    0.84
   4   6  -1    3.38    1.03
   4   6  -1    5.00    1.29
   4   6  -1    3.93    0.99
  -3  -6   1    7.35    1.40
  -3  -6   1    8.23    1.42
  -3  -6   1    6.15    1.17
   3  -6  -1    9.40    1.40
   3   6  -1    6.42    1.35
  -3   6   1    6.10    1.08
  -3   6   1    7.85    1.07
  -3   6   1    5.09    0.87
   3   6  -1    6.36    1.11
   3   6  -1    6.42    1.27
  -3   6   1   11.48    1.62
   3   6  -1    6.81    1.28
  -2  -6   1   20.87    1.63
  -2  -6   1   19.55    1.94
  -2  -6   1   22.43    1.82
   2  -6  -1   20.27    1.61
  -2  -6   1   20.72    2.01
   2  -6  -1   20.82    1.55
  -2   6   1   20.88    1.54
   2   6  -1   21.26    1.61
   2   6  -1   18.96    1.94
  -2   6   1   22.16    1.59
   2   6  -1   19.38    2.22
  -2   6   1   23.96    1.77
   2   6  -1   20.14    1.49
  -2   6   1   23.07    1.29
  -1  -6   1   54.40    2.64
   1  -6  -1   53.53    2.37
  -1  -6   1   54.26    2.78
  -1  -6   1   51.89    2.52
   1  -6  -1   51.25    2.41
  -1  -6   1   53.98    2.60
   1  -6  -1   54.14    2.48
   1   6  -1   55.77    2.71
   1   6  -1   56.99    2.52
   1   6  -1   55.68    2.42
  -1   6   1   54.69    2.75
  -1   6   1   57.88    2.72
  -1   6   1   55.56    1.96
  -1   6   1   55.18    2.43
   1   6  -1   52.80    2.76
   1   6  -1   56.84    3.01
   0  -6   1  118.76    4.59
   0  -6  -1  126.60    4.26
   0  -6  -1  136.34    4.15
   0  -6  -1  121.74    4.25
   0  -6  -1  130.48    4.03
   0  -6   1  133.01    4.50
   0  -6   1  131.44    4.49
   0  -6  -1  134.22    4.07
   0  -6   1  132.52    4.45
   0   6   1  119.84    4.35
   0   6  -1  129.57    4.14
   0   6   1  125.25    4.06
   0   6  -1  129.77    4.10
   0   6   1  128.00    3.42
   0   6  -1  125.19    4.58
   0   6  -1  128.85    4.45
   0   6  -1  124.93    4.78
   0   6   1  120.44    4.68
   0   6   1  130.28    4.47
   1  -6   1    7.66    1.24
  -1  -6  -1    6.82    0.97
   1  -6   1    6.78    1.06
   1  -6   1    5.76    0.98
   1  -6   1    7.70    1.19
  -1  -6  -1    7.79    1.10
  -1  -6  -1    8.97    1.08
   1   6   1    7.66    1.36
   1   6   1    6.13    0.92
   1   6   1    8.52    0.83
   1   6   1    6.59    1.17
  -1   6  -1    4.12    0.88
  -1   6  -1    5.35    1.03
   1   6   1    5.53    1.04
  -1   6  -1    4.60    0.80
  -1   6  -1    5.12    0.96
  -2  -6  -1    5.99    1.08
   2  -6   1    6.58    1.19
   2  -6   1    5.74    1.11
  -2  -6  -1    6.31    1.14
   2  -6   1    5.31    1.06
   2   6   1    4.67    0.73
   2   6   1    4.57    1.11
  -2   6  -1    4.21    0.96
  -2   6  -1    5.36    0.93
  -2   6  -1    4.96    1.03
   2   6   1    6.39    1.05
   2   6   1    5.43    1.10
  -2   6  -1    4.50    0.94
  -3  -6  -1   80.53    3.64
   3  -6   1   79.47    3.79
   3  -6   1   75.61    3.97
  -3  -6  -1   75.90    3.78
  -3   6  -1   69.70    3.58
   3   6   1   74.84    3.75
   3   6   1   74.46    3.85
  -3   6  -1   78.40    3.44
  -3   6  -1   77.37    3.23
  -3   6  -1   75.53    3.70
   3   6   1   77.01    3.57
   3   6   1   71.10    3.03
   4  -6   1   43.93    3.26
  -4  -6  -1   51.63    3.31
   4  -6   1   48.38    3.19
  -4  -6  -1   52.40    3.18
   4   6   1   47.82    2.64
  -4   6  -1   48.10    3.13
   4   6   1   51.35    3.26
   4   6   1   41.86    2.79
   4   6   1   42.23    2.98
  -4   6  -1   41.49    2.89
  -4   6  -1   46.79    2.83
   5  -6   1   17.00    2.44
  -5  -6  -1   17.73    2.44
   5  -6   1   17.73    2.61
  -5  -6  -1   18.23    2.65
   5   6   1   18.35    2.12
   5   6   1   18.35    2.64
  -5   6  -1   13.47    2.21
   5   6   1   18.14    2.54
  -5   6  -1   15.82    2.10
  -5   6  -1   18.53    2.53
  -6  -6  -1   47.16    4.40
  -6  -6  -1   39.42    4.13
   6  -6   1   32.92    3.67
  -6   6  -1   35.18    3.68
  -6   6  -1   30.86    3.32
   6   6   1   36.67    3.98
   6   6   1   32.92    3.16
  -6   6  -1   39.32    4.05
  -5  -7   1   48.78    3.77
  -5  -7   1   51.73    3.67
   5  -7  -1   42.36    3.34
   5   7  -1   35.15    3.55
   5   7  -1   35.42    3.61
   5   7  -1   36.35    2.72
  -5   7   1   39.67    2.54
  -5   7   1   42.69    3.83
  -5   7   1   38.42    3.05
   5   7  -1   35.99    2.99
   4  -7  -1   33.44    2.78
   4  -7  -1   35.24    2.69
  -4  -7   1   32.44    3.28
  -4  -7   1   34.93    2.75
  -4   7   1   25.71    1.86
  -4   7   1   29.00    2.95
   4   7  -1   29.41    2.23
   4   7  -1   21.95    2.64
  -4   7   1   32.47    2.50
   4   7  -1   27.66    3.02
   4   7  -1   27.34    2.83
  -3  -7   1   51.43    3.26
   3  -7  -1   54.24    3.02
   3  -7  -1   52.01    3.15
  -3  -7   1   53.07    3.17
  -3   7   1   44.79    2.86
  -3   7   1   50.38    2.31
   3   7  -1   45.48    2.82
  -3   7   1   49.40    2.50
   3   7  -1   47.97    2.99
  -3   7   1   45.51    2.74
   3   7  -1   45.83    2.61
   3   7  -1   44.22    3.06
  -2  -7   1   74.36    3.46
   2  -7  -1   72.36    3.28
  -2  -7   1   76.25    3.75
   2  -7  -1   70.84    3.41
  -2  -7   1   72.22    3.47
  -2   7   1   66.70    2.43
   2   7  -1   66.84    2.96
   2   7  -1   66.85    3.68
   2   7  -1   67.19    3.38
  -2   7   1   65.34    3.29
   2   7  -1   63.70    3.13
  -2   7   1   64.34    3.03
  -2   7   1   64.27    3.12
  -1  -7   1  118.22    4.39
   1  -7  -1  116.92    4.14
  -1  -7   1  111.82    4.65
   1  -7  -1  108.05    4.28
  -1  -7   1  118.24    4.45
   1  -7  -1  117.79    4.07
   1   7  -1  106.62    3.83
   1   7  -1  106.31    3.97
  -1   7   1  102.85    4.34
   1   7  -1  104.22    4.64
   1   7  -1  104.99    4.26
  -1   7   1  109.40    4.29
  -1   7   1  108.40    3.13
  -1   7   1  106.79    3.91
   1   7  -1  108.38    4.45
   0  -7   1  115.17    4.41
   0  -7  -1  122.02    4.08
   0  -7  -1  118.54    4.33
   0  -7  -1  115.36    4.09
   0  -7   1  118.76    4.71
   0  -7   1  115.22    4.40
   0   7   1  120.56    3.27
   0   7   1  116.85    4.49
   0   7  -1  117.15    4.48
   0   7  -1  114.35    4.60
   0   7   1  117.52    4.12
   0   7  -1  120.32    4.91
   0   7  -1  116.19    4.05
   0   7   1  113.24    4.77
   0   7   1  121.14    4.51
   1  -7   1   55.68    2.81
  -1  -7  -1   52.12    2.50
  -1  -7  -1   52.36    2.58
  -1  -7  -1   49.39    2.65
   1  -7   1   54.49    2.84
   1  -7   1   55.26    2.99
   1   7   1   51.27    3.09
  -1   7  -1   56.03    2.54
   1   7   1   52.56    2.60
  -1   7  -1   57.69    3.05
   1   7   1   58.22    2.99
  -1   7  -1   53.94    3.02
   1   7   1   56.61    2.98
  -1   7  -1   61.21    2.99
   1   7   1   56.47    2.04
   2  -7   1   78.79    3.56
  -2  -7  -1   61.90    3.28
  -2  -7  -1   70.25    3.21
   2  -7   1   75.09    3.59
  -2  -7  -1   73.58    3.33
   2  -7   1   72.36    3.74
   2   7   1   67.81    3.44
   2   7   1   66.31    3.73
  -2   7  -1   68.63    3.50
   2   7   1   72.71    3.26
   2   7   1   68.19    2.62
  -2   7  -1   71.02    3.09
  -2   7  -1   67.87    3.43
  -2   7  -1   64.64    3.27
  -3  -7  -1   69.78    3.73
   3  -7   1   65.07    3.81
   3  -7   1   71.08    3.75
  -3  -7  -1   76.05    3.66
  -3   7  -1   71.65    3.79
   3   7   1   69.98    2.92
  -3   7  -1   63.08    3.17
   3   7   1   65.80    3.63
  -3   7  -1   66.77    3.21
   3   7   1   68.16    3.49
   3   7   1   65.55    3.80
  -3   7  -1   67.13    3.67
  -4  -7  -1   28.16    2.91
   4  -7   1   24.15    2.76
   4  -7   1   23.05    2.87
  -4  -7  -1   28.45    2.90
   4   7   1   27.21    1.99
   4   7   1   30.50    3.33
  -4   7  -1   24.33    2.81
   4   7   1   25.87    2.92
  -4   7  -1   24.91    2.53
   4   7   1   23.29    2.53
  -4   7  -1   28.74    3.05
  -5  -7  -1   16.00    2.49
  -5  -7  -1   11.47    2.05
   5  -7   1   13.52    2.28
   5  -7   1   15.50    2.57
  -5   7  -1   13.99    2.30
   5   7   1   16.63    2.60
   5   7   1   15.70    1.96
  -5   7  -1   16.50    2.22
  -5   7  -1   16.13    2.44
   5   7   1   25.56    3.17
  -5  -8   1    5.54    1.64
   5  -8  -1    4.99    1.68
  -5  -8   1    5.94    1.72
  -5   8   1    1.57    1.01
   5   8  -1    3.83    1.32
   5   8  -1    4.05    1.43
  -5   8   1    4.40    1.07
   5   8  -1    1.85    0.89
  -5   8   1    4.45    1.35
   5   8  -1    3.72    1.33
  -4  -8   1    1.93    1.00
  -4  -8   1    1.70    0.99
   4  -8  -1    1.89    0.95
   4   8  -1    1.45    0.96
   4   8  -1    2.01    0.80
   4   8  -1    2.13    0.98
  -4   8   1    1.21    0.79
  -4   8   1    1.63    0.62
  -4   8   1    1.48    0.87
   4   8  -1    2.24    1.05
  -3  -8   1    1.92    0.88
   3  -8  -1    0.05    0.52
  -3  -8   1    0.87    0.77
  -3   8   1    1.13    0.51
   3   8  -1    2.74    1.07
   3   8  -1    0.80    0.63
   3   8  -1   -0.16    0.49
  -3   8   1    2.09    0.91
  -3   8   1    0.94    0.59
  -3   8   1    0.95    0.65
   3   8  -1    0.46    0.52
  -2  -8   1    5.65    1.22
  -2  -8   1    5.41    1.29
   2  -8  -1    4.90    1.16
  -2  -8   1    6.48    1.26
   2   8  -1    4.38    1.31
   2   8  -1    6.23    1.32
  -2   8   1    5.18    0.75
  -2   8   1    3.31    0.92
  -2   8   1    4.58    1.21
   2   8  -1    3.77    0.88
   2   8  -1    4.85    1.09
  -2   8   1    2.43    0.81
  -1  -8   1   25.53    1.97
  -1  -8   1   25.97    2.61
  -1  -8   1   21.36    2.25
   1  -8  -1   21.82    1.80
  -1   8   1   20.33    2.29
   1   8  -1   22.08    2.45
   1   8  -1   21.57    2.29
  -1   8   1   18.40    1.87
   1   8  -1   18.86    2.37
   1   8  -1   21.41    2.07
  -1   8   1   22.15    1.11
  -1   8   1   20.69    2.22
   1   8  -1   22.63    1.62
   0  -8  -1   54.67    2.94
   0  -8   1   54.08    3.17
   0  -8   1   62.80    3.20
   0  -8   1   57.86    3.06
   0   8  -1   56.37    3.22
   0   8   1   56.17    1.86
   0   8   1   52.93    3.22
   0   8  -1   55.08    3.03
   0   8  -1   56.05    2.59
   0   8  -1   50.18    3.20
   0   8   1   58.06    2.82
   0   8   1   56.72    3.15
   1  -8   1   77.06    3.66
  -1  -8  -1   74.68    3.57
   1  -8   1   74.78    3.56
   1  -8   1   69.28    3.71
   1   8   1   69.74    3.86
  -1   8  -1   63.25    2.92
   1   8   1   63.44    3.11
   1   8   1   71.90    2.32
   1   8   1   63.30    3.42
  -1   8  -1   64.75    3.42
   1   8   1   72.18    3.65
  -1   8  -1   74.01    3.73
  -1   8  -1   70.60    3.71
   2  -8   1   14.21    1.95
  -2  -8  -1   13.35    1.83
   2  -8   1   13.53    1.94
   2  -8   1   15.05    1.98
   2   8   1   12.14    2.03
   2   8   1   10.63    1.70
  -2   8  -1   14.23    2.03
   2   8   1   13.08    1.67
  -2   8  -1    9.68    1.56
   2   8   1   12.94    1.03
  -2   8  -1   10.25    1.36
  -2   8  -1   11.12    1.74
  -3  -8  -1   16.11    2.16
   3  -8   1   17.29    2.36
   3  -8   1   19.38    2.43
   3  -8   1   22.26    2.60
  -3   8  -1   26.73    2.06
  -3   8  -1   20.97    2.54
  -3   8  -1   18.74    2.28
  -3   8  -1   21.85    2.15
   3   8   1   17.87    2.46
   3   8   1   20.60    2.37
   3   8   1   20.13    1.50
   3   8   1   20.72    2.55
   4  -8   1   18.78    2.67
  -4  -8  -1   21.20    2.85
   4  -8   1   20.59    2.82
   4   8   1   15.65    2.46
  -4   8  -1   13.22    2.17
  -4   8  -1   11.54    1.72
   4   8   1   14.78    2.39
  -4   8  -1   16.60    2.41
   4   8   1   12.19    1.94
   4   8   1   20.35    2.01
   5  -8   1   39.31    4.36
  -5  -8  -1   38.52    4.02
   5  -8   1   42.76    4.27
  -5   8  -1   33.50    3.23
   5   8   1   36.32    2.50
   5   8   1   28.29    3.47
  -5   8  -1   32.38    3.59
  -5   8  -1   34.54    3.73
   5   8   1   30.10    3.54
  -4  -9   1   29.07    3.28
   4  -9  -1   32.54    3.56
  -4  -9   1   29.08    3.44
   4   9  -1   19.62    2.92
   4   9  -1   21.66    2.29
   4   9  -1   24.43    2.97
   4   9  -1   24.66    2.93
  -4   9   1   23.30    2.70
  -4   9   1   20.24    2.70
  -3  -9   1   31.06    3.17
   3  -9  -1   22.94    2.65
  -3  -9   1   36.62    3.04
   3   9  -1   27.70    2.98
   3   9  -1   26.50    2.05
  -3   9   1   26.07    2.96
  -3   9   1   26.35    2.69
   3   9  -1   32.32    3.12
   3   9  -1   22.94    3.07
  -2  -9   1   82.59    4.17
   2  -9  -1   79.22    4.18
  -2  -9   1   86.87    4.29
  -2  -9   1   85.05    4.50
   2   9  -1   93.01    3.75
  -2   9   1   78.31    4.08
  -2   9   1   84.05    3.93
   2   9  -1   83.68    4.29
  -2   9   1   81.11    4.26
   2   9  -1   87.02    4.10
   1  -9  -1   78.66    3.95
  -1  -9   1   84.07    4.13
  -1  -9   1   87.53    4.12
  -1  -9   1   87.17    4.43
  -1   9   1   93.16    4.02
   1   9  -1   87.99    4.51
  -1   9   1   88.99    4.47
  -1   9   1   89.49    4.40
   1   9  -1   93.70    4.90
   1   9  -1   85.92    3.56
   1   9  -1   88.54    4.33
   1   9  -1   95.06    4.09
   0  -9   1   14.87    2.00
   0  -9  -1   12.91    1.78
   0  -9   1   11.64    1.84
   0  -9   1   10.79    1.69
   0   9  -1   13.49    2.05
   0   9  -1    9.19    1.56
   0   9  -1   12.61    2.05
   0   9   1   10.13    1.47
   0   9  -1    9.16    1.25
   0   9   1   11.85    1.96
   0   9   1   11.73    1.80
   1  -9   1   47.68    3.01
   1  -9   1   50.77    3.11
  -1  -9  -1   48.33    2.97
   1  -9   1   48.15    3.23
   1   9   1   45.40    3.30
   1   9   1   42.25    2.95
   1   9   1   41.51    2.58
  -1   9  -1   38.15    2.88
  -1   9  -1   42.72    2.38
  -1   9  -1   42.85    2.84
   1   9   1   42.12    2.87
  -1   9  -1   38.78    2.87
   2  -9   1   86.44    4.63
   2  -9   1   95.74    4.58
   2  -9   1   87.43    4.37
  -2  -9  -1   86.67    4.37
  -2   9  -1   88.36    4.36
   2   9   1   85.41    4.79
  -2   9  -1   85.32    4.49
  -2   9  -1   92.54    4.49
   2   9   1   84.59    4.36
   2   9   1   84.40    4.00
   3  -9   1   15.87    2.28
   3  -9   1   16.74    2.41
   3  -9   1   17.04    2.65
  -3  -9  -1   12.47    2.09
   3   9   1   11.25    1.98
   3   9   1   13.83    2.40
  -3   9  -1   11.31    2.06
  -3   9  -1   13.72    1.77
   3   9   1   10.23    1.72
  -3   9  -1   13.34    2.12
   4  -9   1    2.27    1.12
   4  -9   1    4.44    1.44
   4  -9   1    2.31    1.26
  -4  -9  -1    3.39    1.23
   4   9   1    1.47    1.04
   4   9   1    0.49    0.90
  -4   9  -1    0.84    0.67
  -4   9  -1    1.14    0.91
   4   9   1    1.07    0.81
  -4   9  -1    1.56    0.87
  -3 -10   1    8.22    1.84
   3 -10  -1    4.29    1.41
   3  10  -1    5.45    1.47
   3  10  -1    7.10    1.59
  -3  10   1    5.66    1.55
   3  10  -1    5.42    1.14
  -3  10   1    4.67    1.24
   3  10  -1    5.02    1.62
  -2 -10   1    4.78    1.36
   2 -10  -1    6.25    1.46
  -2 -10   1    4.41    1.31
   2  10  -1    3.46    0.90
   2  10  -1    5.15    1.40
   2  10  -1    1.87    1.00
  -2  10   1    3.42    1.17
  -2  10   1    3.91    1.27
  -2  10   1    3.86    1.11
   2  10  -1    2.62    1.06
   1 -10  -1    4.63    1.22
  -1 -10   1    2.73    1.00
  -1 -10   1    4.70    1.32
  -1  10   1    1.56    0.92
   1  10  -1    3.08    1.03
   1  10  -1    4.08    1.34
  -1  10   1    2.78    1.05
   1  10  -1    2.17    0.71
  -1  10   1    2.33    0.83
   1  10  -1    2.30    1.11
   0 -10   1    1.00    0.71
   0 -10  -1    0.25    0.50
   0 -10   1   -0.01    0.55
   0  10   1    0.61    0.77
   0  10  -1    0.53    0.73
   0  10   1    1.57    0.69
   0  10  -1    1.02    0.58
   0  10  -1    0.60    0.74
   0  10   1    0.22    0.61
   0  10  -1   -0.25    0.41
  -1 -10  -1    2.37    0.96
   1 -10   1    3.01    1.10
   1 -10   1    4.59    1.33
  -1  10  -1    5.28    1.43
  -1  10  -1    2.87    0.79
  -1  10  -1    2.58    1.14
   1  10   1    3.71    1.23
  -1  10  -1    6.17    1.43
   1  10   1    3.42    1.01
   1  10   1    5.01    1.37
   1  10   1    4.80    1.44
   2 -10   1   17.10    2.55
  -2 -10  -1   25.08    2.87
   2 -10   1   18.28    2.45
   2  10   1   14.42    2.42
  -2  10  -1   18.02    2.54
   2  10   1   17.03    2.41
   2  10   1   17.91    2.22
  -2  10  -1   18.66    2.65
  -2  10  -1   13.85    2.12
  -2  10  -1   15.99    1.77
  -3 -10  -1   18.43    2.66
   3 -10   1   23.03    3.15
   3 -10   1   21.43    2.91
   3  10   1   15.25    2.43
  -3  10  -1   15.64    2.47
  -3  10  -1   13.22    1.73
  -3  10  -1   17.40    2.50
   3  10   1   12.86    2.42
   3  10   1   20.47    2.53
  -2 -11   1   22.99    3.04
   2 -11  -1   23.09    2.82
  -2  11   1   18.69    2.69
   2  11  -1   20.26    3.10
  -2  11   1   19.12    2.63
  -2  11   1   20.82    2.49
   2  11  -1   18.20    2.54
   1 -11  -1   37.76    3.05
  -1 -11   1   38.51    3.84
   1  11  -1   39.62    4.14
  -1  11   1   41.03    4.08
   1  11  -1   37.54    4.21
   1  11  -1   40.23    3.08
  -1  11   1   40.11    3.86
  -1  11   1   39.69    2.80
   0 -11   1   56.51    3.87
   0 -11  -1   51.53    3.51
   0  11  -1   50.30    3.93
   0  11  -1   55.64    3.95
   0  11   1   54.32    3.30
   0  11   1   61.99    4.05
   0  11  -1   52.63    3.53
   0  11   1   53.48    3.99
  -1 -11  -1   16.06    2.36
   1 -11   1   16.09    2.53
   1  11   1   13.00    2.24
  -1  11  -1   16.74    2.34
  -1  11  -1   16.28    2.68
  -1  11  -1   16.07    2.54
   1  11   1   15.17    2.63
   1  11   1   18.20    2.26
  -2 -11  -1    6.90    1.61
   2 -11   1    5.39    1.61
   2  11   1   10.25    1.80
   2  11   1    7.34    1.84
  -2  11  -1    7.58    1.85
   2  11   1    8.99    1.97
  -2  11  -1    8.88    1.90
  -2  11  -1   13.04    2.20
  -7   0   2   85.22    4.87
   7   0  -2   83.70    4.87
  -7   0   2   90.55    5.29
  -7   0   2   93.10    4.96
  -6   0   2    6.55    1.54
   6   0  -2    7.12    1.54
  -6   0   2    6.60    1.42
  -6   0   2    7.81    1.56
   6   0  -2    4.49    1.30
  -5   0   2    2.43    0.85
   5   0  -2    3.93    1.06
  -5   0   2    5.26    1.26
   5   0  -2    3.55    1.03
  -5   0   2    2.70    0.87
  -4   0   2  177.79    5.98
  -4   0   2  184.96    6.16
  -4   0   2  181.36    5.83
   4   0  -2  176.87    5.88
   4   0  -2  182.78    4.45
  -3   0   2  488.96   11.98
  -3   0   2  468.05   11.57
  -3   0   2  457.82   11.30
   3   0  -2  440.66   11.31
   3   0  -2  455.14   10.48
   2   0  -2  140.26    4.02
  -2   0   2  134.66    4.00
  -2   0   2  137.11    4.07
   2   0  -2  135.28    3.90
  -2   0   2  138.20    3.91
   1   0  -2   28.73    1.12
  -1   0   2   27.83    1.14
   1   0  -2   28.01    1.12
  -1   0   2   27.77    1.12
   1   0  -2   29.36    1.18
  -1   0   2   27.67    1.08
   0   0   2    6.52    0.43
   0   0   2    6.06    0.39
   0   0   2    5.72    0.38
   0   0  -2    8.15    0.47
   0   0  -2    6.99    0.44
   0   0  -2    6.26    0.29
   0   0  -2    6.51    0.42
   0   0   2    6.01    0.40
   0   0   2    5.41    0.34
   0   0   2    5.66    0.27
   0   0   2    5.63    0.41
   0   0  -2    6.59    0.41
  -1   0  -2  158.22    4.33
   1   0   2  157.51    4.39
  -1   0  -2  161.64    4.17
  -1   0  -2  162.67    4.16
   1   0   2  155.26    4.08
   1   0   2  153.98    4.30
  -1   0  -2  161.26    3.88
   1   0   2  160.31    4.21
  -2   0  -2   95.91    3.24
   2   0   2   95.96    3.16
   2   0   2  100.72    3.25
   2   0   2   91.83    3.25
  -2   0  -2   91.05    3.30
  -2   0  -2   93.68    3.01
  -2   0  -2   92.42    3.14
   3   0   2   46.44    2.43
  -3   0  -2   49.41    2.30
  -3   0  -2   43.54    2.27
  -3   0  -2   45.86    2.44
   3   0   2   47.62    2.12
   3   0   2   43.44    2.28
  -3   0  -2   46.75    2.40
  -4   0  -2   61.01    3.14
   4   0   2   55.40    2.94
  -4   0  -2   54.24    3.05
  -4   0  -2   50.80    2.73
  -4   0  -2   57.16    2.95
   4   0   2   54.01    3.07
  -5   0  -2    1.15    0.72
  -5   0  -2    0.44    0.58
  -5   0  -2    1.27    0.67
  -5   0  -2    0.44    0.52
   5   0   2    0.84    0.63
   5   0   2    1.10    0.78
   6   0   2    1.52    0.85
  -6   0  -2    1.40    0.82
  -6   0  -2    2.67    1.10
   6   0   2    1.67    0.99
  -6   0  -2    2.77    1.17
  -7   0  -2   13.48    2.38
   7   0   2   10.70    2.10
   7   0   2   10.66    2.32
  -7   0  -2   14.29    2.49
  -7  -1   2    5.44    1.54
   7  -1  -2    5.78    1.58
  -7  -1   2    4.12    1.33
  -7  -1   2    4.94    1.57
   7   1  -2    2.92    1.20
  -7   1   2    2.80    1.23
   7   1  -2    6.48    1.88
  -7   1   2    3.63    1.22
   6  -1  -2    3.14    1.07
  -6  -1   2    2.25    1.07
  -6  -1   2    1.33    0.83
  -6  -1   2    2.15    0.88
   6  -1  -2    1.40    0.89
  -6   1   2    2.69    1.04
  -6   1   2    3.21    1.13
  -6   1   2    1.63    0.85
   6   1  -2    3.75    1.18
   6   1  -2    1.64    0.92
  -5  -1   2    2.98    0.98
   5  -1  -2    2.06    0.84
  -5  -1   2    2.78    0.89
   5  -1  -2    1.67    0.81
  -5   1   2    2.33    0.79
  -5   1   2    1.03    0.66
  -5   1   2    2.11    0.83
   5   1  -2    2.44    0.88
  -4  -1   2   17.10    1.84
  -4  -1   2   19.87    2.04
   4  -1  -2   16.35    1.81
   4  -1  -2   19.84    1.99
   4   1  -2   16.04    1.75
  -4   1   2   16.56    1.73
  -4   1   2   16.06    1.74
  -4   1   2   13.74    1.61
   4   1  -2   16.82    1.03
  -4   1   2   14.30    1.54
  -3  -1   2   38.93    2.11
   3  -1  -2   40.86    2.03
  -3  -1   2   39.49    2.15
  -3  -1   2   39.11    2.03
   3  -1  -2   40.36    2.03
  -3   1   2   41.51    2.05
   3   1  -2   39.73    1.63
   3   1  -2   40.06    2.11
  -3   1   2   41.59    1.97
   3   1  -2   39.31    2.05
  -3   1   2   39.70    2.04
  -3   1   2   39.33    1.96
   2  -1  -2   13.93    0.92
  -2  -1   2   13.03    0.97
  -2  -1   2   14.74    1.06
  -2  -1   2   13.07    1.01
   2  -1  -2   15.44    1.00
  -2   1   2   14.79    0.97
   2   1  -2   13.66    1.01
  -2   1   2   15.09    0.94
  -2   1   2   14.43    0.89
  -2   1   2   13.90    0.91
   2   1  -2   14.63    1.02
  -1  -1   2  340.85    8.27
  -1  -1   2  332.70    7.91
  -1  -1   2  330.49    7.83
   1  -1  -2  333.37    7.43
   1  -1  -2  333.39    7.81
   1   1  -2  330.57    7.87
  -1   1   2  328.66    7.20
  -1   1   2  329.09    7.80
   1   1  -2  332.84    7.83
  -1   1   2  340.33    7.54
  -1   1   2  339.68    7.51
  -1   1   2  335.19    7.31
   0  -1  -2  331.17    6.78
   0  -1   2  332.20    7.66
   0  -1   2  327.51    7.65
   0  -1   2  333.35    8.09
   0  -1   2  333.17    7.73
   0   1  -2  351.33    8.30
   0   1   2  342.79    7.30
   0   1  -2  328.95    8.22
   0   1   2  328.10    8.17
   0   1  -2  333.64    7.38
   0   1   2  338.51    7.65
   0   1  -2  339.67    7.87
   0   1   2  347.19    7.31
   0   1  -2  345.42    7.83
   1  -1   2  184.83    4.98
  -1  -1  -2  186.55    4.89
   1  -1   2  193.96    4.97
   1  -1   2  194.48    5.24
  -1  -1  -2  191.69    4.68
  -1  -1  -2  188.13    4.72
  -1   1  -2  165.31    4.13
   1   1   2  160.58    4.04
  -1   1  -2  165.14    4.60
  -1   1  -2  165.60    4.38
   1   1   2  165.66    4.35
  -1   1  -2  163.65    4.43
   1   1   2  165.80    4.63
   1   1   2  155.83    4.19
   2  -1   2  116.44    3.78
  -2  -1  -2  117.66    3.71
  -2  -1  -2  117.70    3.82
   2  -1   2  114.50    3.85
  -2  -1  -2  118.84    3.64
  -2   1  -2  118.78    3.85
   2   1   2  112.72    3.72
   2   1   2  120.05    3.62
  -2   1  -2  117.06    3.59
  -2   1  -2  121.76    3.99
   2   1   2  117.27    3.80
  -2   1  -2  113.95    3.73
  -3  -1  -2  143.02    4.97
   3  -1   2  142.88    4.97
  -3  -1  -2  142.74    4.72
  -3  -1  -2  143.91    4.81
   3  -1   2  142.18    4.85
  -3   1  -2  146.45    5.12
   3   1   2  150.23    5.01
   3   1   2  148.78    4.79
  -3   1  -2  141.76    4.67
  -3   1  -2  145.27    4.96
   3   1   2  150.57    4.74
  -3   1  -2  141.35    4.81
  -4  -1  -2   83.97    3.96
  -4  -1  -2   82.78    3.71
   4  -1   2   83.24    3.84
  -4  -1  -2   79.23    3.57
  -4  -1  -2   90.86    3.93
   4  -1   2   81.21    3.91
   4   1   2   71.33    3.58
  -4   1  -2   78.95    3.78
  -4   1  -2   79.86    3.69
  -4   1  -2   77.46    3.56
   4   1   2   71.35    3.39
   4   1   2   76.62    3.22
  -4   1  -2   68.13    3.31
   5  -1   2   70.21    3.96
  -5  -1  -2   71.92    3.77
  -5  -1  -2   62.14    3.44
  -5  -1  -2   71.53    3.89
  -5  -1  -2   63.05    3.80
   5  -1   2   65.10    3.72
  -5   1  -2   59.97    3.51
   5   1   2   69.59    3.89
   5   1   2   63.56    3.36
  -5   1  -2   70.23    3.85
   5   1   2   63.51    3.50
  -5   1  -2   65.23    3.56
  -5   1  -2   69.16    3.92
   6  -1   2   46.89    3.42
  -6  -1  -2   47.87    3.29
   6  -1   2   50.59    3.70
  -6  -1  -2   43.13    3.21
   6   1   2   54.09    3.84
  -6   1  -2   51.43    3.64
  -6   1  -2   55.93    3.58
   6   1   2   51.98    3.51
  -6   1  -2   48.39    3.42
  -7  -1  -2   24.68    3.09
  -7   1  -2   28.30    3.40
   7  -2  -2   64.09    4.24
  -7  -2   2   55.29    3.94
  -7  -2   2   52.87    4.06
  -7  -2   2   57.79    4.05
  -7   2   2   61.86    4.10
  -7   2   2   59.95    3.82
   7   2  -2   66.47    4.33
   7   2  -2   67.01    4.54
  -7   2   2   63.88    4.41
   6  -2  -2   24.37    2.75
  -6  -2   2   29.64    3.02
  -6  -2   2   37.31    3.76
   6   2  -2   27.83    2.95
  -6   2   2   32.76    2.57
  -6   2   2   26.84    3.02
  -6   2   2   32.85    3.22
  -5  -2   2   76.41    4.02
   5  -2  -2   79.77    3.99
  -5  -2   2   84.18    4.24
  -5  -2   2   73.47    3.84
   5  -2  -2   87.84    4.09
  -5   2   2   59.31    3.44
  -5   2   2   63.65    3.25
   5   2  -2   65.68    3.48
  -5   2   2   63.61    3.39
  -4  -2   2  135.74    5.12
  -4  -2   2  133.85    4.91
   4  -2  -2  132.21    4.88
   4  -2  -2  123.79    4.70
  -4  -2   2  135.04    5.22
   4   2  -2  131.39    4.97
   4   2  -2  139.08    4.92
   4   2  -2  136.18    4.29
  -4   2   2  137.51    4.79
  -4   2   2  120.17    4.72
  -4   2   2  132.07    4.62
  -3  -2   2  161.51    5.21
   3  -2  -2  158.68    4.96
   3  -2  -2  171.39    5.33
  -3  -2   2  158.49    5.25
  -3  -2   2  160.94    5.44
   3  -2  -2  164.20    5.07
  -3   2   2  178.72    5.21
   3   2  -2  167.79    5.34
  -3   2   2  171.29    5.20
  -3   2   2  176.14    5.06
  -3   2   2  180.39    5.35
   3   2  -2  170.87    5.53
   3   2  -2  172.37    5.06
   2  -2  -2  140.87    3.94
  -2  -2   2  132.81    4.43
   2  -2  -2  140.54    3.97
   2  -2  -2  140.51    4.13
  -2  -2   2  139.56    4.31
  -2  -2   2  136.19    4.22
   2   2  -2  142.65    4.29
   2   2  -2  142.76    4.22
  -2   2   2  136.93    4.03
  -2   2   2  143.14    3.82
  -2   2   2  142.41    3.52
  -2   2   2  146.43    4.02
  -1  -2   2  257.37    6.42
  -1  -2   2  253.69    6.49
  -1  -2   2  255.28    6.45
   1  -2  -2  259.55    5.79
  -1  -2   2  261.64    6.81
   1  -2  -2  249.84    6.00
   1   2  -2  237.99    6.13
  -1   2   2  237.90    5.49
  -1   2   2  239.70    5.96
  -1   2   2  236.02    5.49
   1   2  -2  239.34    5.84
   1   2  -2  238.86    6.06
   0  -2   2  195.51    5.20
   0  -2   2  195.62    5.15
   0  -2   2  198.25    5.17
   0  -2   2  204.83    5.48
   0   2   2  186.43    4.11
   0   2   2  186.53    4.12
   0   2   2  187.24    4.32
   0   2  -2  195.09    4.73
   0   2   2  188.68    4.87
   0   2  -2  193.52    5.20
   0   2  -2  190.18    4.93
   0   2  -2  193.36    4.99
   0   2   2  183.12    5.10
   1  -2   2  369.00    9.17
   1  -2   2  368.89    9.08
   1  -2   2  389.29    9.62
  -1  -2  -2  378.61    8.58
   1  -2   2  383.41    9.14
  -1  -2  -2  376.06    9.02
  -1  -2  -2  373.57    8.61
  -1   2  -2  389.08    9.27
   1   2   2  373.08    8.86
  -1   2  -2  400.23    9.42
  -1   2  -2  394.34    8.93
   1   2   2  392.55    8.62
   1   2   2  381.24    8.23
   1   2   2  386.01    8.23
   1   2   2  384.19    9.75
   1   2   2  383.36    9.21
  -1   2  -2  395.41    9.80
   2  -2   2  160.26    5.07
  -2  -2  -2  167.76    4.76
  -2  -2  -2  168.14    5.00
   2  -2   2  163.47    5.32
   2  -2   2  169.98    5.10
  -2  -2  -2  173.86    4.85
  -2   2  -2  154.87    4.87
   2   2   2  165.35    5.01
  -2   2  -2  155.92    5.04
  -2   2  -2  159.67    4.81
   2   2   2  163.21    4.48
   2   2   2  158.90    4.84
  -2   2  -2  157.65    4.64
   3  -2   2    5.14    0.99
  -3  -2  -2    7.79    1.13
  -3  -2  -2    3.98    0.88
  -3  -2  -2    5.93    0.95
   3  -2   2    4.30    0.88
  -3   2  -2    2.35    0.74
   3   2   2    2.63    0.67
   3   2   2    2.15    0.66
  -3   2  -2    2.76    0.71
   3   2   2    3.28    0.80
  -3   2  -2    2.41    0.66
  -3   2  -2    2.78    0.69
  -4  -2  -2   24.02    2.02
  -4  -2  -2   23.87    1.90
   4  -2   2   27.32    2.61
   4  -2   2   22.77    2.33
  -4  -2  -2   24.39    2.33
   4   2   2   31.68    2.09
   4   2   2   27.40    1.91
  -4   2  -2   26.44    2.00
  -4   2  -2   29.50    2.19
  -4   2  -2   26.16    2.17
  -4   2  -2   28.28    2.05
   4   2   2   28.03    2.14
  -5  -2  -2   40.09    2.96
  -5  -2  -2   35.62    2.56
  -5  -2  -2   36.37    2.70
   5  -2   2   30.02    3.00
   5  -2   2   39.36    2.90
  -5  -2  -2   33.19    2.59
  -5   2  -2   34.82    2.58
  -5   2  -2   33.84    2.69
   5   2   2   36.28    2.58
   5   2   2   36.41    2.40
   5   2   2   39.56    2.89
  -5   2  -2   37.84    2.67
  -6  -2  -2    8.62    1.74
  -6  -2  -2    5.37    1.54
   6  -2   2    9.75    1.91
  -6  -2  -2    8.42    1.65
   6  -2   2   10.03    2.09
   6   2   2    8.18    1.64
   6   2   2    7.85    1.88
  -6   2  -2    8.57    1.85
  -6   2  -2   10.09    1.81
  -6   2  -2    7.45    1.66
  -7  -3   2   12.26    2.35
  -7  -3   2    6.92    1.85
   7  -3  -2   13.41    2.46
  -7   3   2   10.26    2.13
   7   3  -2   10.20    2.08
  -7   3   2   10.71    2.19
   7   3  -2   12.59    2.48
  -7   3   2   11.85    2.05
   6  -3  -2   15.93    2.38
  -6  -3   2   12.94    2.14
  -6  -3   2   15.49    2.44
  -6   3   2   18.68    2.42
   6   3  -2   16.60    2.36
  -6   3   2   13.71    1.94
  -6   3   2   19.72    2.64
  -5  -3   2    7.68    1.58
  -5  -3   2   10.02    1.71
   5  -3  -2    6.85    1.33
  -5  -3   2    6.42    1.42
   5   3  -2    6.50    1.36
   5   3  -2    8.85    1.30
  -5   3   2    7.19    1.27
  -5   3   2    8.36    1.53
  -5   3   2    7.71    1.48
  -4  -3   2   17.57    2.03
   4  -3  -2   23.19    2.23
  -4  -3   2   16.86    1.95
  -4  -3   2   17.66    2.02
   4  -3  -2   16.60    1.82
  -4   3   2   16.36    1.63
   4   3  -2   18.24    1.77
  -4   3   2   15.30    1.78
   4   3  -2   14.03    1.80
  -4   3   2   15.93    1.83
   4   3  -2   14.26    1.74
   3  -3  -2   68.25    2.83
   3  -3  -2   69.66    2.86
  -3  -3   2   68.66    3.11
   3  -3  -2   68.28    2.96
  -3  -3   2   62.39    3.09
  -3  -3   2   62.59    2.92
   3   3  -2   61.78    2.69
  -3   3   2   58.09    2.62
  -3   3   2   60.63    2.43
   3   3  -2   62.46    2.80
  -3   3   2   64.21    2.74
   3   3  -2   62.41    2.92
   2  -3  -2  267.17    6.73
  -2  -3   2  259.46    7.19
  -2  -3   2  255.71    7.27
   2  -3  -2  271.24    7.04
   2  -3  -2  268.44    6.71
  -2  -3   2  270.09    7.63
  -2   3   2  254.03    6.34
   2   3  -2  256.80    7.10
  -2   3   2  252.28    6.15
  -2   3   2  251.73    6.51
   2   3  -2  261.83    6.97
   2   3  -2  261.87    7.10
  -2   3   2  257.13    6.56
   1  -3  -2   67.16    1.97
  -1  -3   2   63.62    2.46
  -1  -3   2   65.01    2.50
  -1  -3   2   64.37    2.53
   1  -3  -2   69.29    1.95
  -1  -3   2   69.79    2.69
   1   3  -2   80.95    2.75
   1   3  -2   75.51    2.29
  -1   3   2   74.36    2.56
  -1   3   2   77.00    2.17
  -1   3   2   71.93    2.38
   1   3  -2   73.51    2.65
   1   3  -2   73.46    2.74
  -1   3   2   72.45    2.15
   0  -3   2    2.96    0.59
   0  -3   2    4.40    0.69
   0  -3   2    4.34    0.67
   0  -3   2    4.08    0.65
   0   3   2    8.54    0.99
   0   3  -2    8.68    0.97
   0   3   2    6.47    0.86
   0   3  -2    8.12    0.90
   0   3   2    6.31    0.66
   0   3   2    6.94    0.43
   0   3  -2    8.08    0.97
   0   3  -2    7.09    0.84
   0   3   2    7.86    0.45
   1  -3   2  182.24    5.25
  -1  -3  -2  189.43    4.96
  -1  -3  -2  196.58    4.77
  -1  -3  -2  194.08    4.75
   1  -3   2  187.52    5.40
   1  -3   2  181.00    5.31
  -1  -3  -2  189.23    4.65
   1  -3   2  182.74    5.61
  -1   3  -2  181.29    5.34
   1   3   2  183.12    4.60
   1   3   2  180.63    5.13
  -1   3  -2  170.51    4.90
   1   3   2  183.65    4.16
   1   3   2  176.09    5.37
   1   3   2  180.22    4.61
  -1   3  -2  167.84    5.10
  -1   3  -2  173.13    5.02
  -2  -3  -2  276.26    7.61
   2  -3   2  288.78    7.74
   2  -3   2  278.87    7.78
   2  -3   2  279.98    8.12
  -2  -3  -2  276.01    7.27
  -2  -3  -2  282.64    7.26
  -2   3  -2  273.52    7.36
  -2   3  -2  266.04    7.13
  -2   3  -2  260.01    7.45
   2   3   2  269.68    7.43
   2   3   2  277.98    6.79
  -2   3  -2  268.48    7.76
  -3  -3  -2  111.22    4.06
   3  -3   2  109.80    4.34
   3  -3   2  114.11    4.40
  -3  -3  -2  111.73    4.08
  -3  -3  -2  111.73    4.27
   3   3   2  120.57    4.44
   3   3   2  116.86    4.37
  -3   3  -2  117.33    4.51
  -3   3  -2  108.40    4.08
  -3   3  -2  111.41    4.33
   3   3   2  105.01    3.78
  -3   3  -2  107.22    4.11
   4  -3   2   42.17    2.75
   4  -3   2   47.12    2.96
  -4  -3  -2   42.28    2.60
  -4  -3  -2   42.95    2.75
  -4  -3  -2   49.70    2.79
   4   3   2   48.94    2.96
  -4   3  -2   44.02    2.68
   4   3   2   49.23    2.82
   4   3   2   44.91    2.69
  -4   3  -2   50.84    3.02
   4   3   2   48.82    2.65
  -4   3  -2   47.16    2.80
  -4   3  -2   49.17    2.98
  -5  -3  -2   46.92    3.25
  -5  -3  -2   42.16    2.90
   5  -3   2   40.67    3.10
   5  -3   2   35.64    2.84
   5   3   2   50.49    3.27
   5   3   2   45.47    2.92
   5   3   2   46.94    2.89
  -5   3  -2   42.61    3.14
  -5   3  -2   48.33    3.11
  -5   3  -2   51.00    3.15
   6  -3   2   32.94    3.49
   6  -3   2   44.83    4.29
  -6  -3  -2   41.20    3.73
  -6  -3  -2   30.01    3.45
  -6  -3  -2   37.51    3.63
   6   3   2   25.14    2.78
   6   3   2   34.16    3.70
  -6   3  -2   30.95    3.53
  -6   3  -2   36.05    3.55
  -6   3  -2   27.68    3.13
  -7   4   2   25.25    3.19
   6  -4  -2   98.90    5.12
  -6  -4   2  111.29    5.58
  -6  -4   2  106.04    5.34
  -6   4   2   88.08    4.79
  -6   4   2   92.12    4.34
   6   4  -2   95.13    4.82
  -6   4   2   88.95    4.65
   5  -4  -2  131.80    5.63
  -5  -4   2  152.85    6.39
  -5  -4   2  145.04    6.12
  -5  -4   2  148.01    6.00
  -5   4   2  133.97    5.05
   5   4  -2  141.04    5.88
   5   4  -2  142.74    5.24
  -5   4   2  137.20    5.62
  -5   4   2  140.77    5.53
   5   4  -2  132.34    5.52
  -4  -4   2   67.39    3.65
  -4  -4   2   64.04    3.41
  -4  -4   2   67.93    3.52
   4  -4  -2   65.24    3.24
  -4   4   2   76.27    3.46
   4   4  -2   69.35    3.60
   4   4  -2   67.10    3.33
  -4   4   2   65.42    3.27
  -4   4   2   71.24    3.01
   4   4  -2   70.15    3.28
   3  -4  -2   36.62    2.03
  -3  -4   2   38.74    2.30
   3  -4  -2   37.05    2.06
  -3  -4   2   38.71    2.45
  -3  -4   2   37.79    2.35
   3   4  -2   31.96    2.18
   3   4  -2   32.23    2.05
  -3   4   2   35.53    2.05
  -3   4   2   35.40    1.71
  -3   4   2   36.59    2.02
  -3   4   2   36.64    1.41
   3   4  -2   33.46    2.04
   2  -4  -2  125.96    3.82
  -2  -4   2  120.74    4.24
  -2  -4   2  124.50    4.51
  -2  -4   2  123.08    4.34
   2  -4  -2  123.00    3.73
   2  -4  -2  122.53    3.95
   2   4  -2  116.44    3.78
   2   4  -2  111.57    4.00
  -2   4   2  123.52    3.76
  -2   4   2  120.02    3.26
  -2   4   2  119.29    3.88
   2   4  -2  121.18    4.29
  -2   4   2  119.60    3.66
   2   4  -2  121.01    4.29
  -1  -4   2  165.47    4.99
  -1  -4   2  157.49    5.24
   1  -4  -2  168.32    4.43
  -1  -4   2  168.22    5.06
   1  -4  -2  165.45    4.27
  -1  -4   2  166.44    4.96
   1   4  -2  160.55    4.94
   1   4  -2  163.15    4.88
  -1   4   2  161.90    4.84
  -1   4   2  164.44    4.21
   1   4  -2  152.38    5.06
  -1   4   2  159.34    4.48
   1   4  -2  155.98    4.78
   1   4  -2  162.61    4.29
  -1   4   2  157.36    4.17
   0  -4   2  108.56    3.68
   0  -4   2  111.46    3.75
   0  -4  -2  107.71    2.92
   0  -4   2  112.53    3.68
   0  -4  -2  110.00    3.02
   0  -4   2  104.23    3.85
   0   4   2   98.48    3.50
   0   4  -2  107.62    3.53
   0   4  -2  105.35    3.45
   0   4   2   98.85    3.63
   0   4  -2  101.26    3.57
   0   4  -2   98.82    3.55
   0   4   2   97.66    3.16
   0   4   2  103.15    2.83
   0   4   2  107.32    2.88
   1  -4   2  129.64    4.31
  -1  -4  -2  132.53    3.58
  -1  -4  -2  128.79    3.64
   1  -4   2  126.15    4.48
   1  -4   2  123.98    4.20
  -1  -4  -2  129.68    3.81
   1  -4   2  125.77    4.16
  -1  -4  -2  130.33    3.60
  -1   4  -2  137.64    4.42
  -1   4  -2  141.27    4.58
  -1   4  -2  138.43    4.42
   1   4   2  142.63    3.35
   1   4   2  138.68    4.56
   1   4   2  137.07    3.97
   1   4   2  139.09    4.77
   1   4   2  148.01    3.38
  -1   4  -2  147.75    4.73
   1   4   2  145.04    4.01
  -2  -4  -2  110.97    3.68
  -2  -4  -2  111.03    3.65
  -2  -4  -2  108.92    3.86
   2  -4   2  108.53    4.06
   2  -4   2  108.67    4.12
   2  -4   2  113.11    4.35
   2   4   2  121.47    3.48
  -2   4  -2  107.96    4.14
   2   4   2  113.33    4.37
  -2   4  -2  120.56    4.14
  -2   4  -2  118.90    4.32
   2   4   2  113.00    3.82
  -2   4  -2  120.78    4.16
   2   4   2  113.88    4.25
  -3  -4  -2   93.14    3.66
   3  -4   2   87.03    3.87
  -3  -4  -2   95.43    3.73
   3  -4   2   89.10    4.17
   3  -4   2   93.17    4.06
  -3  -4  -2   92.08    3.88
   3   4   2   86.85    3.81
  -3   4  -2   80.69    3.52
  -3   4  -2   87.05    3.80
   3   4   2   84.63    3.18
   3   4   2   76.20    3.64
  -3   4  -2   88.49    3.85
  -3   4  -2   81.69    3.56
  -4  -4  -2   23.48    2.33
  -4  -4  -2   21.20    2.32
   4  -4   2   17.24    2.19
   4  -4   2   20.27    2.36
   4  -4   2   18.69    2.44
  -4   4  -2   17.90    2.11
  -4   4  -2   15.01    2.00
   4   4   2   17.91    2.14
   4   4   2   18.49    1.90
   4   4   2   19.86    2.38
  -4   4  -2   14.51    1.87
  -5  -4  -2    4.54    1.22
   5  -4   2    5.54    1.47
   5  -4   2    3.70    1.19
  -5  -4  -2    5.20    1.34
   5   4   2    6.46    1.47
   5   4   2    6.85    1.48
   5   4   2    7.46    1.52
  -5   4  -2    6.84    1.47
  -5   4  -2    5.97    1.52
  -5   4  -2    5.65    1.35
   5   4   2    6.52    1.33
   6  -4   2   13.51    2.41
  -6  -4  -2   16.39    2.73
  -6  -4  -2   16.57    2.49
   6   4   2   13.00    2.32
   6   4   2   14.32    2.40
  -6   4  -2   15.48    2.52
  -6   4  -2   10.53    1.93
   6   4   2   14.29    2.14
  -6   4  -2   11.60    2.08
  -6  -5   2    1.89    1.09
   6  -5  -2    2.92    1.15
  -6   5   2    1.39    0.70
  -6   5   2    2.61    1.11
  -6   5   2    2.41    1.04
   6   5  -2    3.80    1.19
  -5  -5   2   12.40    2.06
  -5  -5   2   13.80    2.20
  -5  -5   2    9.35    1.78
   5  -5  -2    9.09    1.63
   5   5  -2   10.59    1.77
  -5   5   2   10.03    1.69
   5   5  -2   12.82    1.90
  -5   5   2   10.91    1.78
  -5   5   2    7.97    1.29
   5   5  -2    9.08    1.72
  -4  -5   2   16.92    2.16
   4  -5  -2   15.83    1.89
  -4  -5   2   18.68    2.22
  -4  -5   2   18.59    2.26
   4   5  -2   19.40    2.35
  -4   5   2   19.84    1.49
   4   5  -2   21.03    2.31
  -4   5   2   18.48    2.08
   4   5  -2   19.28    2.08
  -4   5   2   16.65    1.91
   4   5  -2   20.19    2.26
  -3  -5   2   24.23    1.91
   3  -5  -2   23.76    1.71
  -3  -5   2   26.19    2.01
  -3  -5   2   24.85    2.05
  -3   5   2   29.59    1.97
   3   5  -2   32.33    2.18
  -3   5   2   29.60    1.49
   3   5  -2   25.00    1.81
  -3   5   2   27.95    1.84
   3   5  -2   27.83    2.09
  -3   5   2   27.83    1.50
   3   5  -2   28.20    1.92
   2  -5  -2   45.63    2.16
  -2  -5   2   44.66    2.47
  -2  -5   2   43.91    2.37
  -2  -5   2   43.49    2.42
   2  -5  -2   48.96    2.07
   2  -5  -2   49.10    2.17
  -2  -5   2   45.15    2.58
   2   5  -2   40.89    2.07
  -2   5   2   43.19    2.05
  -2   5   2   43.45    2.23
   2   5  -2   40.82    2.21
  -2   5   2   39.65    1.95
   2   5  -2   41.67    2.46
   2   5  -2   42.53    2.39
  -2   5   2   42.36    1.51
   1  -5  -2  145.13    4.12
  -1  -5   2  150.43    4.87
   1  -5  -2  145.82    4.29
  -1  -5   2  140.04    5.07
  -1  -5   2  154.17    4.84
  -1  -5   2  154.57    4.95
   1   5  -2  137.02    4.60
   1   5  -2  136.23    4.61
   1   5  -2  131.79    3.92
   1   5  -2  131.09    4.35
  -1   5   2  124.37    4.43
  -1   5   2  133.37    3.83
  -1   5   2  132.00    4.24
  -1   5   2  132.37    3.85
   1   5  -2  135.60    4.82
   0  -5  -2   71.74    2.41
   0  -5   2   75.09    3.25
   0  -5  -2   72.11    2.48
   0  -5   2   77.99    3.10
   0  -5  -2   74.99    2.32
   0  -5   2   74.99    3.08
   0  -5   2   80.18    3.13
   0  -5  -2   71.78    2.49
   0   5  -2   76.20    3.08
   0   5   2   69.57    2.38
   0   5  -2   73.66    2.90
   0   5   2   72.23    3.01
   0   5  -2   73.83    3.08
   0   5   2   71.10    2.76
   0   5  -2   74.02    3.03
   0   5   2   72.53    3.16
   0   5   2   74.52    2.45
   0   5  -2   66.97    3.10
   1  -5   2   97.37    3.79
  -1  -5  -2   94.89    3.13
  -1  -5  -2  100.96    3.09
  -1  -5  -2   95.32    3.27
   1  -5   2   99.67    3.72
   1  -5   2   92.49    3.67
   1  -5   2  101.19    4.01
   1   5   2   99.96    3.22
  -1   5  -2  103.55    3.81
   1   5   2  100.01    3.82
  -1   5  -2   98.99    3.79
   1   5   2   98.16    2.36
  -1   5  -2  101.19    3.76
   1   5   2   94.37    3.94
   1   5   2   99.15    2.36
  -1   5  -2   92.62    3.52
   1   5   2   98.70    3.24
   1   5   2   94.83    3.45
   2  -5   2   62.31    2.97
  -2  -5  -2   59.33    2.55
   2  -5   2   55.43    2.80
   2  -5   2   54.33    2.94
  -2  -5  -2   53.21    2.59
   2  -5   2   56.71    2.88
   2   5   2   56.91    2.09
  -2   5  -2   62.21    2.99
  -2   5  -2   60.99    2.92
   2   5   2   55.78    2.53
  -2   5  -2   53.12    2.65
  -2   5  -2   54.96    2.81
   2   5   2   58.62    3.07
   3  -5   2   48.73    2.89
  -3  -5  -2   54.89    2.91
   3  -5   2   52.67    3.21
   3  -5   2   54.93    3.08
  -3  -5  -2   55.32    2.82
  -3   5  -2   42.03    2.52
   3   5   2   47.71    2.20
  -3   5  -2   42.24    2.60
   3   5   2   44.97    2.76
  -3   5  -2   46.07    2.79
   3   5   2   44.35    2.80
   4  -5   2   60.61    3.57
  -4  -5  -2   66.34    3.44
   4  -5   2   61.56    3.83
   4  -5   2   57.72    3.55
  -4  -5  -2   59.38    3.48
   4   5   2   51.41    3.23
  -4   5  -2   54.24    3.35
   4   5   2   56.78    3.41
   4   5   2   52.53    2.72
  -4   5  -2   54.17    3.19
  -4   5  -2   52.41    3.06
   5  -5   2   25.53    3.23
  -5  -5  -2   22.57    2.78
  -5  -5  -2   29.79    3.02
   5  -5   2   20.58    2.64
   5   5   2   26.46    3.12
  -5   5  -2   23.36    2.65
  -5   5  -2   25.08    2.79
   5   5   2   26.57    2.97
   5   5   2   21.23    2.25
  -5   5  -2   24.40    2.94
  -6  -5  -2   30.96    3.42
  -6  -5  -2   31.80    3.60
   6  -5   2   32.97    3.69
   6   5   2   30.65    3.04
   6   5   2   25.15    3.32
   6   5   2   39.29    4.00
  -6   5  -2   32.66    3.44
  -6   5  -2   34.80    3.92
  -6   5  -2   30.68    3.45
  -6  -6   2   34.64    3.71
  -6   6   2   30.50    3.35
  -6   6   2   23.60    2.44
   6   6  -2   31.84    3.34
  -6   6   2   23.32    2.94
   6   6  -2   29.33    3.37
  -5  -6   2   75.46    4.36
   5  -6  -2   73.21    4.18
  -5  -6   2   82.55    4.81
  -5   6   2   70.87    3.33
  -5   6   2   72.24    3.95
  -5   6   2   61.11    3.72
   5   6  -2   69.19    3.90
   5   6  -2   76.18    4.36
   5   6  -2   62.00    3.70
   5   6  -2   69.98    3.98
  -4  -6   2   93.38    4.72
  -4  -6   2  103.56    4.78
   4  -6  -2   99.09    4.45
  -4  -6   2  105.32    5.05
  -4   6   2   92.58    3.52
  -4   6   2   87.09    4.17
  -4   6   2  100.42    4.33
   4   6  -2   91.24    4.55
   4   6  -2   96.72    4.34
   4   6  -2   90.00    4.17
   4   6  -2   94.17    4.48
  -3  -6   2  102.68    4.50
  -3  -6   2  108.29    4.58
  -3  -6   2   98.68    4.65
   3  -6  -2  108.31    4.16
  -3   6   2   98.46    3.25
  -3   6   2  106.53    4.07
   3   6  -2  102.02    4.12
   3   6  -2  101.58    4.54
   3   6  -2   99.42    4.43
  -3   6   2  101.83    4.19
   3   6  -2   98.32    4.05
  -3   6   2  100.15    3.58
  -2  -6   2   70.75    3.57
  -2  -6   2   76.37    3.53
   2  -6  -2   74.09    3.00
  -2  -6   2   83.08    3.57
  -2  -6   2   74.53    3.40
   2   6  -2   69.99    2.96
   2   6  -2   65.85    3.30
   2   6  -2   66.40    3.47
   2   6  -2   70.44    3.13
  -2   6   2   69.86    3.13
  -2   6   2   73.90    3.09
  -2   6   2   69.97    2.86
   1  -6  -2  132.67    4.04
   1  -6  -2  130.96    4.18
  -1  -6   2  124.37    4.61
  -1  -6   2  138.71    4.79
  -1  -6   2  126.58    4.93
   1  -6  -2  127.48    4.18
  -1  -6   2  129.01    4.59
  -1   6   2  124.15    3.88
  -1   6   2  123.50    4.60
   1   6  -2  118.23    4.60
  -1   6   2  127.84    3.97
  -1   6   2  126.55    4.33
   1   6  -2  128.55    4.33
   1   6  -2  129.34    4.01
   1   6  -2  115.66    4.75
   1   6  -2  123.12    4.60
   0  -6   2  173.72    5.55
   0  -6  -2  171.65    4.64
   0  -6   2  161.02    5.45
   0  -6   2  167.59    5.81
   0  -6  -2  161.85    4.93
   0  -6  -2  160.09    4.68
   0  -6  -2  166.21    4.90
   0  -6   2  158.93    5.43
   0   6  -2  155.35    5.29
   0   6   2  159.34    5.58
   0   6  -2  154.65    5.53
   0   6   2  152.04    4.94
   0   6   2  159.17    4.57
   0   6   2  156.21    5.27
   0   6   2  149.15    4.46
   0   6  -2  156.92    5.31
   1  -6   2   48.50    2.62
  -1  -6  -2   53.76    2.28
   1  -6   2   52.13    2.73
   1  -6   2   44.13    2.66
  -1  -6  -2   49.76    2.30
   1  -6   2   50.39    2.62
  -1  -6  -2   54.49    2.21
  -1   6  -2   46.95    2.41
   1   6   2   51.45    2.71
  -1   6  -2   52.07    2.73
  -1   6  -2   49.08    2.68
   1   6   2   48.82    2.82
  -1   6  -2   46.27    2.60
   1   6   2   47.44    2.14
   1   6   2   47.27    2.47
   2  -6   2   96.38    4.10
   2  -6   2   96.80    4.08
   2  -6   2   90.87    3.90
  -2  -6  -2   87.72    3.51
  -2  -6  -2   84.48    3.61
   2  -6   2   88.69    4.18
   2   6   2   81.64    3.37
   2   6   2   87.17    4.10
  -2   6  -2   89.07    3.65
   2   6   2   86.32    2.70
  -2   6  -2   85.33    3.81
  -2   6  -2   87.95    3.90
   2   6   2   81.93    3.83
   3  -6   2  104.68    4.85
   3  -6   2   99.51    4.52
  -3  -6  -2   99.97    4.14
   3  -6   2  101.78    4.61
  -3  -6  -2   99.68    4.34
  -3   6  -2   96.70    4.45
   3   6   2   94.27    4.56
   3   6   2  105.23    3.51
  -3   6  -2   96.01    4.13
   3   6   2   91.02    3.93
   3   6   2   91.13    4.35
  -3   6  -2  101.63    4.46
   4  -6   2    5.49    1.39
  -4  -6  -2    7.05    1.52
  -4  -6  -2    6.32    1.33
   4  -6   2    4.75    1.38
  -4   6  -2    3.05    1.06
   4   6   2    3.94    1.17
   4   6   2    3.59    0.85
   4   6   2    4.82    1.32
  -4   6  -2    3.10    1.06
  -4   6  -2    3.03    0.93
   5  -6   2    2.09    1.12
  -5  -6  -2    2.74    1.13
   5  -6   2    3.00    1.23
  -5  -6  -2    3.35    1.22
   5   6   2    3.78    1.03
   5   6   2    3.86    1.44
   5   6   2    4.15    1.32
  -5   6  -2    1.63    0.90
  -5   6  -2    4.67    1.27
  -5   6  -2    4.07    1.26
  -5  -7   2    6.25    1.60
  -5  -7   2    8.71    1.88
   5   7  -2    7.30    1.53
   5   7  -2   10.78    2.03
   5   7  -2    7.21    1.64
  -5   7   2   10.01    1.84
  -5   7   2   10.29    1.93
   5   7  -2   11.77    2.12
  -5   7   2    9.70    1.41
  -4  -7   2    3.46    1.21
  -4  -7   2    6.27    1.51
   4   7  -2    2.47    0.99
   4   7  -2    3.42    1.13
   4   7  -2    2.07    0.96
   4   7  -2    3.31    0.98
  -4   7   2    3.05    0.95
  -4   7   2    2.75    0.68
  -4   7   2    2.16    0.88
  -3  -7   2    5.38    1.25
  -3   7   2    3.89    1.02
   3   7  -2    1.47    0.89
   3   7  -2    3.06    0.92
   3   7  -2    3.72    0.98
  -3   7   2    3.35    0.59
   3   7  -2    2.37    0.94
  -3   7   2    3.50    0.83
  -3   7   2    3.32    0.87
   2  -7  -2   10.01    1.38
  -2  -7   2   11.74    1.70
  -2  -7   2   13.88    1.96
  -2  -7   2   11.86    1.65
   2   7  -2   10.67    1.65
   2   7  -2   14.62    1.65
  -2   7   2   13.24    1.69
  -2   7   2   13.53    1.49
   2   7  -2   13.22    1.58
   2   7  -2   12.54    1.82
  -2   7   2   13.76    1.78
   2   7  -2   13.74    1.87
  -1  -7   2   71.37    3.44
  -1  -7   2   71.76    3.41
  -1  -7   2   71.84    3.65
   1  -7  -2   68.97    3.00
  -1  -7   2   70.88    3.33
   1   7  -2   78.02    3.08
   1   7  -2   70.49    3.71
   1   7  -2   75.61    3.58
  -1   7   2   69.98    3.46
  -1   7   2   72.67    3.30
  -1   7   2   75.44    2.95
   1   7  -2   63.44    3.42
   1   7  -2   67.06    3.09
   0  -7   2  165.85    6.24
   0  -7   2  176.92    5.97
   0  -7   2  173.42    5.99
   0  -7   2  185.83    6.08
   0  -7  -2  174.86    5.51
   0   7  -2  161.83    6.00
   0   7  -2  167.42    5.36
   0   7   2  158.15    5.93
   0   7   2  157.30    5.58
   0   7  -2  161.66    5.73
   0   7   2  159.05    5.42
   0   7  -2  156.86    5.69
   0   7   2  157.23    4.87
   1  -7   2   56.44    3.02
  -1  -7  -2   54.60    2.62
   1  -7   2   49.88    2.87
   1  -7   2   54.84    3.14
   1  -7   2   52.21    2.87
  -1   7  -2   47.59    2.84
  -1   7  -2   45.51    2.74
  -1   7  -2   46.09    2.71
  -1   7  -2   44.01    2.46
   1   7   2   45.01    2.91
   1   7   2   46.29    2.75
   1   7   2   46.52    2.64
   1   7   2   47.55    2.30
   2  -7   2   10.97    1.74
  -2  -7  -2    9.75    1.40
   2  -7   2   12.56    1.80
   2  -7   2   13.90    1.86
  -2   7  -2   18.51    1.92
   2   7   2   15.96    1.70
  -2   7  -2   21.02    2.19
   2   7   2   11.45    1.78
  -2   7  -2   15.55    2.00
   2   7   2   14.45    1.97
  -2   7  -2   18.41    2.15
   2   7   2   15.65    0.88
   3  -7   2   44.17    3.01
   3  -7   2   51.45    3.43
  -3  -7  -2   51.98    3.11
   3  -7   2   51.48    3.27
   3   7   2   50.15    2.88
   3   7   2   56.35    2.30
  -3   7  -2   56.00    2.97
  -3   7  -2   58.04    3.43
  -3   7  -2   47.63    3.13
  -3   7  -2   54.26    3.03
   3   7   2   44.63    3.12
   3   7   2   45.60    3.25
   4  -7   2   76.47    4.56
  -4  -7  -2   75.64    4.24
   4  -7   2   66.38    4.08
   4  -7   2   70.06    4.16
  -4   7  -2   78.01    4.35
   4   7   2   82.04    3.39
   4   7   2   78.77    4.45
   4   7   2   78.02    4.40
  -4   7  -2   76.61    4.37
  -4   7  -2   71.04    3.87
   5  -7   2   36.04    3.83
  -5  -7  -2   40.98    3.40
   5  -7   2   38.74    4.35
  -5   7  -2   36.69    2.89
   5   7   2   43.72    2.67
   5   7   2   32.59    3.60
   5   7   2   33.30    3.73
  -5   7  -2   33.89    3.62
  -5   7  -2   34.66    3.79
   5  -8  -2   43.78    3.58
  -5  -8   2   38.61    4.07
  -5  -8   2   36.72    4.03
   5   8  -2   36.03    2.82
   5   8  -2   27.44    3.07
  -5   8   2   31.73    3.28
  -5   8   2   34.04    3.62
   5   8  -2   34.53    3.84
   5   8  -2   33.85    3.70
  -4  -8   2   49.02    3.72
   4  -8  -2   48.20    3.38
  -4  -8   2   48.21    3.47
   4   8  -2   37.21    2.80
   4   8  -2   33.80    3.42
  -4   8   2   33.19    2.57
   4   8  -2   35.20    2.61
   4   8  -2   36.92    3.74
  -4   8   2   38.79    3.52
  -3  -8   2   82.40    4.51
   3  -8  -2   76.78    3.96
  -3  -8   2   78.89    4.21
   3   8  -2   81.83    3.89
   3   8  -2   77.43    3.72
   3   8  -2   74.23    4.36
   3   8  -2   75.39    4.17
  -3   8   2   80.19    4.04
  -3   8   2   78.56    3.69
  -2  -8   2   91.29    4.28
   2  -8  -2   89.90    3.95
  -2  -8   2   98.25    4.69
  -2  -8   2   82.71    4.10
   2   8  -2   94.57    4.03
   2   8  -2   97.06    4.56
   2   8  -2   96.21    4.58
  -2   8   2  102.79    4.35
   2   8  -2   95.47    4.00
  -2   8   2  103.34    4.44
   2   8  -2   97.90    4.86
  -2   8   2   88.87    3.79
  -1  -8   2   23.74    2.46
   1  -8  -2   20.48    1.68
  -1  -8   2   23.09    2.47
  -1  -8   2   25.50    2.54
  -1   8   2   26.99    2.19
   1   8  -2   22.16    1.71
   1   8  -2   21.34    2.43
  -1   8   2   21.68    1.59
   1   8  -2   19.38    2.20
   1   8  -2   17.93    2.36
   1   8  -2   21.41    2.00
  -1   8   2   23.24    2.33
   0  -8   2   16.34    1.97
   0  -8   2   17.56    2.12
   0  -8   2   20.24    2.37
   0  -8  -2   23.20    1.74
   0   8   2   17.50    1.70
   0   8  -2   20.03    2.37
   0   8  -2   19.26    1.93
   0   8  -2   21.81    2.56
   0   8  -2   16.00    1.97
   0   8   2   19.65    2.22
   0   8   2   18.41    2.26
   0   8   2   19.44    2.25
   1  -8   2   59.78    3.30
  -1  -8  -2   49.94    2.76
   1  -8   2   56.92    3.42
   1  -8   2   54.09    3.12
  -1   8  -2   50.36    3.14
  -1   8  -2   48.75    2.62
   1   8   2   52.05    3.01
  -1   8  -2   45.54    2.96
   1   8   2   43.19    2.39
  -1   8  -2   45.32    2.90
   1   8   2   49.99    3.29
   1   8   2   48.46    3.04
  -2  -8  -2   55.43    3.15
   2  -8   2   66.32    3.60
   2  -8   2   61.89    3.75
   2  -8   2   53.77    3.34
   2   8   2   46.72    3.30
  -2   8  -2   60.85    3.34
  -2   8  -2   53.02    3.31
   2   8   2   50.44    2.74
   2   8   2   54.33    3.33
  -2   8  -2   42.71    2.66
  -2   8  -2   50.15    3.19
   3  -8   2   23.39    2.89
  -3  -8  -2   24.37    2.59
   3  -8   2   22.91    2.66
   3  -8   2   29.16    3.12
   3   8   2   19.70    2.75
   3   8   2   20.19    2.53
  -3   8  -2   21.81    2.37
  -3   8  -2   20.09    2.52
   3   8   2   23.84    2.46
  -3   8  -2   22.79    2.33
  -3   8  -2   19.57    2.57
  -4  -8  -2   13.58    2.13
   4  -8   2   13.29    2.27
   4  -8   2   12.33    2.36
   4  -8   2   15.17    2.42
  -4   8  -2    9.56    1.86
   4   8   2   12.41    2.19
   4   8   2   13.90    2.44
  -4   8  -2   11.62    1.81
  -4   8  -2   17.04    2.49
   5   8   2    8.77    2.08
   5   8   2    6.53    1.75
  -5   8  -2   11.51    2.16
  -5   8  -2    9.53    1.83
   4  -9  -2    9.24    1.82
  -4  -9   2   13.28    2.27
  -4  -9   2   12.33    2.34
   4   9  -2   10.55    2.03
   4   9  -2   15.33    2.62
  -4   9   2   12.15    1.89
   4   9  -2   10.82    1.72
   4   9  -2   11.85    1.99
  -4   9   2    9.32    1.83
  -3  -9   2   14.72    2.26
   3  -9  -2   14.81    2.04
  -3  -9   2   18.74    2.67
   3   9  -2   14.49    2.42
   3   9  -2   14.05    2.18
   3   9  -2   19.43    2.31
  -3   9   2   18.83    2.15
  -3   9   2   15.79    2.25
   3   9  -2   18.75    2.13
  -2  -9   2   22.58    2.58
   2  -9  -2   19.37    2.27
  -2  -9   2   21.87    2.63
  -2  -9   2   22.89    2.80
   2   9  -2   19.65    2.70
  -2   9   2   24.98    1.92
   2   9  -2   24.18    2.39
   2   9  -2   26.13    2.85
  -2   9   2   23.66    2.58
  -2   9   2   21.20    2.38
   2   9  -2   21.18    2.60
   2   9  -2   24.24    2.33
  -1  -9   2    4.95    1.24
  -1  -9   2    5.34    1.34
  -1  -9   2    3.84    1.16
   1  -9  -2    2.71    0.85
   1   9  -2    5.85    1.46
  -1   9   2    2.28    0.77
  -1   9   2    4.31    1.22
   1   9  -2    4.17    1.02
   1   9  -2    2.88    0.97
   1   9  -2    4.47    1.01
   1   9  -2    2.74    1.11
  -1   9   2    3.34    1.06
   0  -9  -2   10.36    1.52
   0  -9   2    9.53    1.66
   0  -9   2   13.07    1.91
   0  -9   2   11.49    1.78
   0   9  -2    7.44    1.68
   0   9  -2    8.33    1.33
   0   9  -2   10.24    1.82
   0   9  -2    7.98    1.58
   0   9   2    7.13    1.44
   0   9   2    7.25    1.20
   0   9   2    7.72    1.68
   1  -9   2   60.43    3.51
   1  -9   2   55.26    3.38
  -1  -9  -2   55.03    3.13
   1  -9   2   65.24    3.89
  -1   9  -2   49.58    3.30
   1   9   2   55.20    3.65
  -1   9  -2   44.10    3.07
  -1   9  -2   52.65    3.47
   1   9   2   45.75    3.10
  -1   9  -2   54.82    2.90
   1   9   2   50.42    3.28
   1   9   2   47.98    2.65
   2  -9   2   47.81    3.44
   2  -9   2   41.31    3.09
  -2  -9  -2   43.97    2.95
   2  -9   2   46.80    3.18
   2   9   2   38.16    2.50
   2   9   2   40.69    3.01
  -2   9  -2   43.69    3.15
  -2   9  -2   42.77    2.64
  -2   9  -2   37.93    2.86
   2   9   2   33.45    3.50
  -2   9  -2   41.32    3.00
   3  -9   2   14.87    2.36
  -3  -9  -2   14.51    2.20
   3  -9   2   12.60    2.18
   3  -9   2   13.66    2.31
   3   9   2   10.86    2.12
  -3   9  -2   14.30    2.28
  -3   9  -2   13.09    2.14
  -3   9  -2   16.67    1.99
   3   9   2   13.33    1.93
  -3   9  -2   19.90    2.45
   3   9   2   14.11    2.23
  -4  -9  -2   25.77    3.09
   4  -9   2   30.02    3.93
   4  -9   2   33.84    3.78
   4  -9   2   28.98    3.53
  -4   9  -2   30.47    3.01
  -4   9  -2   27.36    3.27
   4   9   2   31.63    3.75
  -4   9  -2   26.10    3.27
  -3 -10   2   20.33    2.90
   3 -10  -2   21.69    2.73
  -3 -10   2   23.44    3.00
  -3  10   2   19.31    2.33
   3  10  -2   20.53    3.08
   3  10  -2   20.04    2.27
  -3  10   2   17.54    2.53
   3  10  -2   18.50    2.66
  -2 -10   2   26.52    2.96
   2 -10  -2   33.37    2.62
  -2 -10   2   32.66    3.51
  -2 -10   2   27.67    3.04
  -2  10   2   38.81    2.96
   2  10  -2   41.32    4.27
   2  10  -2   42.60    2.60
  -2  10   2   37.20    2.52
  -2  10   2   33.46    2.72
   2  10  -2   30.62    3.30
  -1 -10   2   47.51    3.30
  -1 -10   2   49.83    3.55
  -1 -10   2   43.95    3.23
   1 -10  -2   48.66    3.09
   1  10  -2   46.11    3.45
  -1  10   2   42.42    3.10
   1  10  -2   50.97    2.83
  -1  10   2   48.22    3.43
  -1  10   2   50.77    2.81
   1  10  -2   46.78    3.33
   1  10  -2   47.92    3.69
   0 -10   2   65.41    3.86
   0 -10   2   65.99    4.09
   0 -10  -2   63.42    3.49
   0 -10   2   64.67    3.91
   0  10   2   57.18    3.02
   0  10   2   59.35    3.65
   0  10  -2   59.63    3.68
   0  10  -2   54.25    3.84
   0  10  -2   55.79    3.77
   0  10   2   66.10    4.12
   0  10  -2   58.40    3.03
   1 -10   2   40.55    3.31
   1 -10   2   49.16    3.38
   1 -10   2   50.85    3.43
  -1 -10  -2   41.25    2.91
   1  10   2   33.25    3.64
  -1  10  -2   29.95    3.13
  -1  10  -2   40.10    3.17
  -1  10  -2   44.61    4.04
   1  10   2   41.55    3.08
   1  10   2   37.17    2.46
   1  10   2   41.00    3.02
  -1  10  -2   33.76    2.38
   2 -10   2    1.44    0.96
   2 -10   2    1.02    0.84
  -2 -10  -2    0.35    0.65
   2 -10   2    1.45    1.04
   2  10   2    1.65    0.79
   2  10   2    1.26    0.92
   2  10   2    1.77    1.01
  -2  10  -2    2.34    1.12
  -2  10  -2    1.79    0.92
  -2  10  -2    2.38    1.17
   3 -10   2    2.25    1.16
   3 -10   2    3.19    1.30
   3 -10   2    2.82    1.26
  -3 -10  -2    3.67    1.27
   3  10   2    3.55    1.13
   3  10   2    5.40    1.76
  -3  10  -2    7.46    1.72
  -3  10  -2    7.06    1.83
   3  10   2    3.54    1.33
  -3  10  -2    3.23    0.97
  -2 -11   2    5.28    1.59
   2 -11  -2    3.77    1.21
  -2 -11   2    3.72    1.34
   2  11  -2    2.56    1.12
  -2  11   2    3.08    1.21
  -2  11   2    2.17    1.08
   2  11  -2    1.07    1.03
   2  11  -2    2.14    0.89
  -2  11   2    1.40    0.83
  -1 -11   2    8.56    1.83
  -1 -11   2    8.58    1.84
   1 -11  -2    5.11    1.31
   1  11  -2    5.44    1.16
   1  11  -2    6.33    1.83
   1  11  -2    4.32    1.51
  -1  11   2    3.18    1.28
  -1  11   2    5.59    1.48
  -1  11   2    5.84    1.26
   1  11  -2    4.79    1.42
   0 -11  -2   11.01    1.84
   0 -11   2   14.64    2.39
   0 -11   2   14.59    2.31
   0  11  -2   13.90    1.76
   0  11   2   11.25    2.04
   0  11   2   12.67    2.31
   0  11  -2   12.71    2.13
   0  11   2   15.19    1.93
   0  11  -2   13.83    2.54
   0  11  -2   17.94    2.70
   1 -11   2    7.10    1.83
  -1 -11  -2    6.05    1.48
   1 -11   2    6.22    1.61
  -1  11  -2    9.63    2.00
  -1  11  -2    4.97    1.54
  -1  11  -2    6.65    1.23
   1  11   2    6.97    1.63
  -1  11  -2    7.86    1.78
   1  11   2    6.42    1.81
   1  11   2    6.70    1.35
  -7   0   3    1.59    0.84
  -7   0   3    2.68    1.15
  -7   0   3    1.96    1.14
   7   0  -3    1.21    0.94
   6   0  -3   21.86    2.63
   6   0  -3   23.63    2.82
  -6   0   3   22.96    2.64
  -6   0   3   25.03    2.70
  -6   0   3   20.63    2.58
  -5   0   3   41.57    2.66
  -5   0   3   42.95    2.83
  -5   0   3   40.22    2.60
   5   0  -3   42.25    2.73
   4   0  -3   37.98    2.26
   4   0  -3   37.04    1.30
  -4   0   3   41.22    2.42
  -4   0   3   36.61    2.27
  -4   0   3   39.71    2.23
   3   0  -3  231.19    6.52
   3   0  -3  233.69    5.70
  -3   0   3  221.36    6.55
  -3   0   3  227.95    6.39
  -3   0   3  239.95    6.75
  -2   0   3  291.00    7.33
   2   0  -3  306.36    7.88
   2   0  -3  296.67    7.44
   2   0  -3  293.64    7.49
  -2   0   3  300.56    7.71
  -2   0   3  299.34    7.55
  -1   0   3   82.48    2.53
   1   0  -3   83.50    2.56
   1   0  -3   83.91    2.56
  -1   0   3   79.75    2.48
  -1   0   3   81.77    2.36
   1   0  -3   82.08    2.48
   1   0  -3   83.85    2.43
   0   0  -3   75.54    1.82
   0   0  -3   78.42    2.20
   0   0   3   69.02    2.22
   0   0   3   72.51    2.12
   0   0  -3   76.71    2.23
   0   0  -3   75.23    2.32
   0   0   3   75.29    1.81
   0   0  -3   75.27    2.29
   0   0   3   74.20    2.00
   0   0   3   74.32    2.11
  -1   0  -3   39.19    1.57
  -1   0  -3   35.67    1.61
  -1   0  -3   36.86    1.58
   1   0   3   38.19    1.47
  -1   0  -3   37.52    1.68
   1   0   3   37.66    1.54
   1   0   3   38.51    1.64
   1   0   3   40.45    1.57
   1   0   3   37.20    1.61
  -1   0  -3   38.90    1.40
  -2   0  -3  367.29    8.53
  -2   0  -3  356.92    9.06
   2   0   3  368.84    9.44
   2   0   3  350.84    8.94
   2   0   3  353.19    9.14
  -2   0  -3  345.38    9.42
  -2   0  -3  356.26    9.02
   3   0   3  631.40   15.45
  -3   0  -3  629.72   14.74
  -3   0  -3  646.99   15.63
  -3   0  -3  630.35   15.49
  -3   0  -3  648.06   16.32
   3   0   3  634.74   15.74
  -4   0  -3  128.75    5.02
   4   0   3  135.85    5.11
  -4   0  -3  134.62    5.35
  -4   0  -3  125.60    4.71
  -4   0  -3  132.71    5.14
   4   0   3  124.13    5.16
  -5   0  -3   11.15    1.82
   5   0   3   11.60    1.98
  -5   0  -3   11.56    1.77
  -5   0  -3   15.67    2.28
   5   0   3   10.38    1.75
  -5   0  -3   14.28    2.12
   6   0   3   83.15    4.85
   6   0   3   79.11    4.51
  -6   0  -3   76.66    4.49
  -6   0  -3   71.72    4.21
  -7  -1   3   39.90    3.88
  -7  -1   3   41.62    3.98
  -7  -1   3   43.15    4.36
   7  -1  -3   39.05    3.93
  -7   1   3   45.59    4.51
   7   1  -3   44.16    3.51
  -7   1   3   43.80    4.05
  -7   1   3   43.56    3.31
  -6  -1   3   22.22    2.63
  -6  -1   3   22.92    2.64
   6  -1  -3   20.49    2.57
  -6  -1   3   20.79    2.72
  -6   1   3   21.26    2.52
   6   1  -3   21.50    2.56
  -6   1   3   22.49    2.82
  -6   1   3   23.78    2.59
   5  -1  -3   10.77    1.69
  -5  -1   3    7.48    1.45
  -5  -1   3    9.08    1.47
   5  -1  -3    8.78    1.48
  -5   1   3    6.67    1.24
  -5   1   3    3.81    1.06
   5   1  -3    3.77    0.98
  -5   1   3    4.58    1.07
  -4  -1   3   95.30    4.10
  -4  -1   3   95.63    3.89
  -4  -1   3   96.04    4.10
   4  -1  -3   95.59    3.86
   4  -1  -3   95.83    3.87
   4   1  -3   98.73    3.09
  -4   1   3   91.07    3.85
  -4   1   3   90.77    3.67
   4   1  -3   95.08    3.89
  -4   1   3   92.89    3.65
  -3  -1   3  292.03    8.26
  -3  -1   3  276.25    7.81
   3  -1  -3  293.96    7.74
  -3  -1   3  287.90    8.04
   3  -1  -3  303.33    8.25
  -3   1   3  282.01    7.64
   3   1  -3  282.09    7.66
  -3   1   3  285.27    7.30
   3   1  -3  281.76    7.15
   3   1  -3  267.71    7.74
  -3   1   3  292.48    7.75
  -3   1   3  277.54    7.35
  -2  -1   3  201.80    5.73
   2  -1  -3  200.72    5.23
   2  -1  -3  195.87    5.47
  -2  -1   3  193.76    5.42
  -2  -1   3  204.18    5.61
   2   1  -3  180.51    5.15
   2   1  -3  192.00    5.13
  -2   1   3  176.99    4.64
  -2   1   3  178.32    4.66
  -2   1   3  178.58    4.90
   1  -1  -3  155.01    3.93
  -1  -1   3  158.05    4.31
   1  -1  -3  150.18    3.80
   1  -1  -3  149.99    3.93
  -1  -1   3  162.85    4.44
  -1  -1   3  158.52    4.23
  -1   1   3  138.03    3.54
   1   1  -3  140.96    4.13
  -1   1   3  141.44    3.28
  -1   1   3  141.99    3.22
   1   1  -3  140.01    3.89
  -1   1   3  139.23    3.22
   1   1  -3  147.51    4.18
   1   1  -3  138.78    3.96
  -1   1   3  140.66    3.56
   0  -1   3  196.30    4.92
   0  -1  -3  194.47    4.61
   0  -1   3  196.27    4.24
   0  -1  -3  190.44    4.41
   0  -1   3  194.85    4.98
   0  -1   3  195.46    5.09
   0  -1   3  194.26    5.21
   0  -1  -3  185.67    4.58
   0   1   3  198.23    5.65
   0   1  -3  201.92    5.56
   0   1  -3  206.36    4.86
   0   1  -3  216.86    5.34
   0   1  -3  215.99    5.67
   0   1   3  215.11    4.86
   0   1   3  207.81    4.86
   0   1   3  210.98    5.20
   1  -1   3   78.14    2.65
   1  -1   3   77.12    2.59
   1  -1   3   83.14    2.86
   1  -1   3   80.45    2.75
  -1  -1  -3   71.80    2.37
  -1  -1  -3   73.89    2.47
  -1  -1  -3   76.69    2.38
   1   1   3   80.29    2.42
  -1   1  -3   90.15    2.85
   1   1   3   83.81    2.81
  -1   1  -3   88.77    2.91
   1   1   3   86.49    3.11
   1   1   3   77.72    2.59
  -1   1  -3   89.13    3.00
  -1   1  -3   94.27    2.64
   1   1   3   82.22    2.24
  -2  -1  -3   47.93    2.10
   2  -1   3   52.60    2.42
  -2  -1  -3   49.00    2.22
  -2  -1  -3   49.14    2.14
   2  -1   3   49.61    2.34
   2  -1   3   45.72    2.17
  -2   1  -3   43.88    2.15
   2   1   3   40.74    2.01
  -2   1  -3   42.00    2.19
   2   1   3   38.95    1.83
  -2   1  -3   47.13    2.14
   2   1   3   46.82    2.26
   2   1   3   47.42    2.03
  -2   1  -3   41.23    1.91
   2   1   3   45.93    2.12
  -3  -1  -3   62.79    2.71
   3  -1   3   63.85    3.05
  -3  -1  -3   59.09    2.94
  -3  -1  -3   65.67    2.90
   3  -1   3   65.78    3.01
  -3  -1  -3   60.17    2.84
   3  -1   3   61.54    3.09
   3   1   3   60.87    2.85
   3   1   3   62.00    2.92
  -3   1  -3   61.47    3.01
  -3   1  -3   64.81    2.78
  -3   1  -3   61.31    2.85
   3   1   3   54.51    2.64
  -4  -1  -3   17.55    2.00
   4  -1   3   14.43    1.87
  -4  -1  -3   16.58    1.99
   4  -1   3   19.28    2.12
  -4  -1  -3   20.24    2.16
  -4  -1  -3   16.97    1.83
  -4   1  -3   19.63    2.03
   4   1   3   15.52    1.78
   4   1   3   20.41    2.01
  -4   1  -3   21.94    2.26
   4   1   3   18.80    2.11
  -4   1  -3   17.89    2.00
  -4   1  -3   24.87    2.55
   5  -1   3    1.74    0.81
  -5  -1  -3    1.55    0.72
  -5  -1  -3    0.64    0.65
  -5  -1  -3    1.30    0.80
   5  -1   3    2.33    1.05
  -5  -1  -3    3.67    1.04
  -5   1  -3    2.10    0.92
   5   1   3    2.21    0.97
  -5   1  -3    1.50    0.84
  -5   1  -3    2.86    1.03
   5   1   3    1.37    0.77
  -5   1  -3    1.61    0.78
  -6  -1  -3   10.90    1.90
  -6  -1  -3   11.69    2.09
   6  -1   3    8.91    1.81
   6  -1   3   15.65    2.54
  -6   1  -3   11.12    2.04
   6   1   3    9.13    1.89
  -6   1  -3    7.22    1.61
  -6   1  -3   10.32    2.03
   6   1   3    9.82    1.87
  -7  -2   3    0.40    0.86
  -7  -2   3   -0.10    0.68
   7  -2  -3    2.95    1.24
  -7  -2   3    0.86    0.92
  -7   2   3    3.11    1.17
   7   2  -3    3.30    1.33
  -7   2   3    2.69    1.16
   7   2  -3    1.69    1.23
  -7   2   3    2.22    1.15
  -6  -2   3   32.67    3.19
   6  -2  -3   24.37    2.85
  -6  -2   3   38.51    3.72
   6   2  -3   28.47    2.97
  -6   2   3   33.17    2.53
  -6   2   3   32.95    3.23
  -6   2   3   29.07    3.13
   5  -2  -3   54.11    3.12
  -5  -2   3   51.83    3.12
  -5  -2   3   54.08    3.36
  -5   2   3   46.71    2.85
  -5   2   3   49.34    3.03
   5   2  -3   49.99    3.03
  -5   2   3   47.83    2.74
   4  -2  -3  137.06    4.97
  -4  -2   3  145.47    5.43
  -4  -2   3  141.22    5.29
   4  -2  -3  137.96    4.91
  -4  -2   3  134.80    5.07
  -4   2   3  121.62    4.41
   4   2  -3  122.69    4.67
  -4   2   3  119.24    4.26
  -4   2   3  121.32    4.58
   4   2  -3  126.39    4.08
   4   2  -3  116.06    4.71
   3  -2  -3  128.54    4.29
   3  -2  -3  113.04    3.95
  -3  -2   3  118.90    4.27
  -3  -2   3  126.98    4.51
   3  -2  -3  124.82    4.09
  -3  -2   3  121.23    4.50
  -3   2   3  110.15    3.52
  -3   2   3  107.32    3.67
  -3   2   3  100.66    3.72
   3   2  -3  116.32    4.05
   3   2  -3  111.45    4.09
   3   2  -3  110.15    3.65
   2  -2  -3  457.16   10.74
   2  -2  -3  453.23   11.26
   2  -2  -3  462.32   10.75
  -2  -2   3  457.00   11.31
  -2  -2   3  481.64   11.51
  -2  -2   3  479.56   11.96
  -2   2   3  457.84   10.45
  -2   2   3  464.41   10.39
  -2   2   3  476.52   10.85
  -2   2   3  463.20   10.80
   2   2  -3  471.01   11.41
   2   2  -3  455.80   11.24
  -1  -2   3  274.83    7.07
   1  -2  -3  282.24    6.42
  -1  -2   3  274.68    7.22
  -1  -2   3  282.46    7.15
  -1  -2   3  290.03    7.55
   1  -2  -3  280.58    6.41
  -1   2   3  302.10    6.68
  -1   2   3  294.40    6.56
  -1   2   3  297.48    7.50
  -1   2   3  302.92    6.68
   1   2  -3  300.19    7.58
   1   2  -3  285.93    7.06
   0  -2   3  293.04    7.45
   0  -2   3  305.98    7.95
   0  -2   3  304.19    7.55
   0  -2   3  296.24    7.60
   0   2  -3  258.92    6.81
   0   2   3  279.66    5.87
   0   2   3  271.77    7.22
   0   2   3  272.96    6.77
   0   2  -3  266.03    6.43
   0   2   3  271.46    5.86
   0   2  -3  261.60    7.19
   0   2  -3  270.84    6.92
   0   2   3  274.33    5.84
   1  -2   3  575.07   13.52
   1  -2   3  574.49   13.44
   1  -2   3  579.32   14.21
   1  -2   3  559.33   13.36
  -1  -2  -3  550.42   12.67
  -1  -2  -3  591.08   12.73
  -1  -2  -3  569.78   13.34
  -1   2  -3  523.43   13.08
   1   2   3  523.90   11.38
   1   2   3  537.23   12.29
   1   2   3  530.18   11.89
  -1   2  -3  507.61   12.47
   1   2   3  538.62   13.12
  -1   2  -3  540.49   12.44
   1   2   3  532.75   11.85
  -1   2  -3  514.75   11.75
   1   2   3  510.63   11.36
  -2  -2  -3  226.06    6.08
   2  -2   3  229.17    6.51
  -2  -2  -3  224.58    6.40
  -2  -2  -3  218.93    6.10
   2  -2   3  230.94    6.88
   2  -2   3  225.98    6.65
  -2   2  -3  228.99    6.07
  -2   2  -3  227.23    6.48
   2   2   3  217.18    6.11
   2   2   3  223.92    6.68
  -2   2  -3  214.84    6.64
   2   2   3  219.43    6.34
   2   2   3  219.98    5.76
  -2   2  -3  220.07    6.31
  -3  -2  -3   83.34    3.62
   3  -2   3   97.00    4.10
  -3  -2  -3   88.42    3.56
  -3  -2  -3   91.06    3.55
   3  -2   3   91.26    3.80
   3  -2   3   89.06    3.88
   3   2   3   93.81    3.84
  -3   2  -3   90.48    3.77
  -3   2  -3  100.13    3.72
   3   2   3   95.91    3.82
  -3   2  -3   93.92    3.92
   3   2   3   86.73    3.43
   3   2   3   98.49    3.91
  -3   2  -3   99.26    4.07
   4  -2   3   87.40    4.23
   4  -2   3   88.67    4.16
  -4  -2  -3   81.16    3.87
  -4  -2  -3   84.96    4.09
   4  -2   3   95.28    4.50
  -4  -2  -3   87.22    3.94
   4   2   3   80.46    3.61
  -4   2  -3   76.09    3.61
   4   2   3   87.53    3.86
  -4   2  -3   81.23    3.96
   4   2   3   74.71    3.78
  -4   2  -3   85.48    4.14
  -4   2  -3   83.69    3.86
   5  -2   3  107.28    5.28
  -5  -2  -3  111.87    5.32
  -5  -2  -3  101.87    4.83
   5  -2   3  111.58    5.20
  -5  -2  -3  112.85    4.84
  -5   2  -3  104.03    4.72
   5   2   3  101.84    4.55
  -5   2  -3  102.21    4.79
   5   2   3   94.34    4.49
   5   2   3  104.24    4.95
   6  -2   3   31.55    3.51
  -6  -2  -3   37.07    3.58
  -6  -2  -3   33.16    3.28
   6  -2   3   36.34    3.88
  -6  -2  -3   41.98    4.13
   6   2   3   31.05    3.33
  -6   2  -3   37.45    3.98
  -6   2  -3   33.02    3.41
   6   2   3   37.08    3.83
  -6   2  -3   35.67    3.54
  -7  -3   3   32.85    3.56
  -7  -3   3   36.20    4.11
   7  -3  -3   34.69    3.72
   7   3  -3   43.38    4.07
  -7   3   3   36.42    3.68
  -7   3   3   34.28    3.32
  -7   3   3   39.78    3.98
   6  -3  -3   68.14    4.01
  -6  -3   3   69.64    4.31
  -6  -3   3   68.48    4.12
  -6   3   3   75.88    4.11
  -6   3   3   64.85    3.54
   6   3  -3   56.86    3.74
  -6   3   3   79.68    4.38
  -5  -3   3   56.24    3.52
   5  -3  -3   59.26    3.33
  -5  -3   3   55.18    3.31
  -5   3   3   48.60    2.95
   5   3  -3   51.19    3.26
  -5   3   3   52.22    2.76
   5   3  -3   50.08    3.09
  -5   3   3   52.16    3.12
   5   3  -3   49.88    2.87
  -4  -3   3   33.02    2.41
  -4  -3   3   30.70    2.29
  -4  -3   3   32.46    2.29
   4  -3  -3   37.30    2.25
   4   3  -3   38.33    2.46
  -4   3   3   42.44    2.47
   4   3  -3   41.72    2.24
   4   3  -3   41.53    2.64
  -4   3   3   38.44    2.06
  -4   3   3   41.56    2.39
   3  -3  -3   40.67    2.04
  -3  -3   3   38.55    2.33
  -3  -3   3   41.77    2.33
  -3  -3   3   40.80    2.43
   3  -3  -3   40.52    2.12
   3  -3  -3   40.84    2.04
  -3   3   3   49.48    2.29
   3   3  -3   44.13    2.50
  -3   3   3   45.03    1.89
  -3   3   3   46.81    2.24
   3   3  -3   44.09    2.40
   3   3  -3   46.90    2.30
  -2  -3   3  225.49    6.51
   2  -3  -3  225.52    5.69
  -2  -3   3  214.98    6.35
   2  -3  -3  220.42    5.62
   2  -3  -3  218.90    5.89
  -2  -3   3  227.30    6.76
  -2   3   3  203.63    4.75
  -2   3   3  203.57    4.74
   2   3  -3  211.13    5.99
  -2   3   3  206.55    5.46
   2   3  -3  207.36    6.15
  -2   3   3  209.58    5.41
  -2   3   3  200.24    5.38
  -1  -3   3  144.17    4.55
  -1  -3   3  144.95    4.48
  -1  -3   3  138.73    4.65
   1  -3  -3  149.85    3.41
  -1  -3   3  145.37    4.46
   1   3  -3  142.56    3.53
  -1   3   3  142.73    4.29
  -1   3   3  141.67    3.40
   1   3  -3  139.09    4.58
   1   3  -3  138.01    4.41
  -1   3   3  141.02    3.72
   0  -3   3  100.27    3.50
   0  -3   3  102.73    3.48
   0  -3   3  104.42    3.72
   0  -3   3  101.82    3.43
   0   3  -3  110.51    3.56
   0   3  -3  108.13    3.76
   0   3   3  108.01    3.59
   0   3   3  106.24    2.92
   0   3  -3  106.22    3.38
   0   3   3  110.05    2.49
   0   3   3   98.80    3.65
   0   3  -3  107.64    3.63
   1  -3   3   70.66    2.80
  -1  -3  -3   71.76    2.17
   1  -3   3   62.05    2.64
   1  -3   3   65.00    2.79
  -1  -3  -3   70.84    2.24
   1  -3   3   66.85    2.93
  -1   3  -3   64.88    2.56
  -1   3  -3   60.16    2.65
  -1   3  -3   64.53    2.65
   1   3   3   61.45    2.80
   1   3   3   68.65    2.79
   1   3   3   67.54    2.15
  -1   3  -3   67.14    2.83
  -2  -3  -3    5.97    0.84
   2  -3   3    6.15    1.06
  -2  -3  -3    4.04    0.69
   2  -3   3    4.90    0.96
  -2  -3  -3    3.45    0.66
   2  -3   3    5.65    0.96
   2  -3   3    5.64    0.96
   2   3   3    6.06    1.03
  -2   3  -3    5.14    0.88
   2   3   3    6.35    0.44
  -2   3  -3    6.09    1.03
  -2   3  -3    7.78    1.10
   2   3   3    8.15    1.21
   2   3   3    5.06    0.64
  -2   3  -3    4.69    0.88
   3  -3   3   11.43    1.62
  -3  -3  -3    8.74    1.28
  -3  -3  -3    9.40    1.31
  -3  -3  -3   10.59    1.31
   3  -3   3    6.85    1.33
   3  -3   3   10.84    1.52
  -3   3  -3    9.31    1.35
   3   3   3    6.88    1.10
   3   3   3    8.56    1.08
  -3   3  -3   11.18    1.63
  -3   3  -3    8.29    1.41
   3   3   3    9.99    1.45
  -3   3  -3    9.28    1.31
   3   3   3    8.37    1.36
   4  -3   3   26.21    2.82
   4  -3   3   30.88    2.92
  -4  -3  -3   28.96    2.13
  -4  -3  -3   28.12    2.23
   4  -3   3   31.51    2.97
   4   3   3   27.07    2.64
  -4   3  -3   26.94    2.68
   4   3   3   25.64    1.89
   4   3   3   24.47    2.57
   4   3   3   28.10    2.18
  -4   3  -3   27.93    2.83
  -4   3  -3   22.32    2.29
  -4   3  -3   28.04    2.14
  -5  -3  -3   19.73    2.48
   5  -3   3   13.24    2.13
  -5  -3  -3   13.57    2.05
   5  -3   3   14.63    2.34
  -5   3  -3   10.81    1.81
  -5   3  -3   12.47    1.98
   5   3   3   15.26    2.03
   5   3   3   17.10    2.39
   5   3   3   16.09    2.29
   5   3   3   17.75    2.23
  -5   3  -3   14.17    2.19
  -6  -3  -3    6.97    1.58
   6  -3   3    4.19    1.56
   6  -3   3    5.48    1.56
  -6  -3  -3    5.90    1.57
  -6  -3  -3    4.11    1.44
  -6   3  -3    3.80    1.43
   6   3   3    3.76    1.29
   6   3   3    5.48    1.61
  -6   3  -3    5.13    1.35
   6   3   3    6.07    1.44
  -6   3  -3    3.11    1.16
  -6  -4   3   24.01    2.92
  -6  -4   3   20.94    2.87
   6  -4  -3   28.06    3.15
  -6   4   3   26.24    2.91
  -6   4   3   22.26    2.32
   6   4  -3   18.17    2.46
  -6   4   3   24.30    2.73
  -5  -4   3   10.22    1.89
  -5  -4   3   12.02    1.97
   5  -4  -3   12.34    1.85
  -5   4   3    9.76    1.37
  -5   4   3   10.30    1.65
   5   4  -3   12.02    1.98
   5   4  -3   14.44    1.84
  -5   4   3   12.43    1.87
   5   4  -3   13.08    1.89
  -4  -4   3   51.20    3.00
  -4  -4   3   50.58    3.15
   4  -4  -3   45.41    2.61
  -4  -4   3   55.58    3.19
   4   4  -3   39.61    2.54
   4   4  -3   34.31    2.51
  -4   4   3   37.60    2.33
  -4   4   3   34.73    2.25
  -4   4   3   39.31    1.99
   4   4  -3   34.06    2.23
   3  -4  -3   45.83    2.23
  -3  -4   3   47.84    2.77
   3  -4  -3   42.28    2.28
  -3  -4   3   44.03    2.57
  -3  -4   3   41.54    2.47
  -3   4   3   42.27    2.20
   3   4  -3   42.75    2.52
  -3   4   3   42.68    1.72
   3   4  -3   40.12    2.35
   3   4  -3   41.09    2.37
  -3   4   3   37.25    2.03
  -3   4   3   40.82    1.62
  -2  -4   3   62.27    2.88
  -2  -4   3   61.50    2.94
   2  -4  -3   67.23    2.36
   2  -4  -3   64.12    2.36
  -2  -4   3   66.86    3.11
  -2   4   3   66.73    2.53
  -2   4   3   60.58    2.42
   2   4  -3   60.34    2.87
   2   4  -3   67.03    2.85
   2   4  -3   62.79    2.40
  -2   4   3   61.01    2.27
   2   4  -3   58.86    2.83
  -1  -4   3  110.14    3.97
  -1  -4   3  112.96    3.92
  -1  -4   3  107.98    4.10
  -1  -4   3  102.12    3.77
   1  -4  -3  113.22    2.91
   1  -4  -3  109.26    2.90
  -1   4   3   92.76    2.53
   1   4  -3   90.80    3.40
  -1   4   3   94.28    2.55
   1   4  -3   91.60    2.66
  -1   4   3   93.63    2.97
   1   4  -3   93.30    3.44
  -1   4   3   93.91    3.40
   1   4  -3   89.59    3.49
   0  -4   3  193.50    5.72
   0  -4  -3  196.12    4.50
   0  -4   3  187.74    5.71
   0  -4   3  187.85    5.77
   0  -4   3  190.21    6.06
   0   4   3  209.71    5.96
   0   4  -3  200.94    6.02
   0   4   3  193.09    6.08
   0   4   3  199.79    4.68
   0   4  -3  204.56    6.17
   0   4  -3  196.03    5.67
   0   4   3  202.88    5.19
   0   4  -3  193.01    5.79
   0   4   3  206.50    4.71
  -1  -4  -3  114.21    3.23
  -1  -4  -3  113.34    3.34
  -1  -4  -3  114.31    3.10
   1  -4   3  112.21    4.04
   1  -4   3  110.11    3.95
   1  -4   3  107.09    4.20
   1  -4   3  105.67    4.01
   1   4   3  122.97    3.39
   1   4   3  122.00    4.41
  -1   4  -3  113.80    4.15
  -1   4  -3  111.36    3.92
   1   4   3  111.29    4.10
   1   4   3  117.20    3.35
  -1   4  -3  116.07    4.07
  -1   4  -3  114.85    4.24
   2  -4   3   39.06    2.36
   2  -4   3   35.45    2.19
   2  -4   3   36.13    2.15
  -2  -4  -3   38.96    1.84
   2  -4   3   35.12    2.30
  -2  -4  -3   37.29    1.87
  -2  -4  -3   34.65    1.88
   2   4   3   30.46    1.27
  -2   4  -3   24.06    1.75
  -2   4  -3   26.13    1.88
  -2   4  -3   25.73    1.89
  -2   4  -3   30.41    1.89
   2   4   3   28.14    2.03
   2   4   3   27.97    1.95
  -3  -4  -3   95.69    3.72
   3  -4   3   93.80    4.36
   3  -4   3   96.94    4.28
  -3  -4  -3   85.59    3.79
   3  -4   3   87.55    4.01
  -3   4  -3   87.21    3.97
  -3   4  -3   75.94    3.50
   3   4   3   81.19    3.02
   3   4   3   74.42    3.73
   3   4   3   77.16    3.73
  -3   4  -3   84.09    3.86
  -3   4  -3   78.00    3.58
  -4  -4  -3  169.85    6.08
   4  -4   3  174.28    6.73
   4  -4   3  165.83    6.45
   4  -4   3  173.98    6.92
  -4  -4  -3  161.94    6.32
   4   4   3  154.13    5.29
  -4   4  -3  154.42    5.93
   4   4   3  162.21    6.21
  -4   4  -3  156.93    6.18
   4   4   3  156.95    6.16
  -4   4  -3  159.45    5.89
   4   4   3  153.96    5.83
  -5  -4  -3   79.39    4.28
  -5  -4  -3   86.83    4.68
   5  -4   3   89.87    4.76
   5  -4   3   88.21    4.92
   5   4   3   81.28    3.92
  -5   4  -3   74.29    4.18
   5   4   3   82.93    4.58
  -5   4  -3   82.49    4.33
   5   4   3   74.25    4.23
   5   4   3   83.63    4.35
  -5   4  -3   93.63    4.87
  -6  -4  -3   25.09    3.17
   6  -4   3   20.78    3.13
  -6  -4  -3   20.81    3.02
  -6  -4  -3   19.10    2.60
   6  -4   3   21.21    2.97
  -6   4  -3   28.66    3.57
  -6   4  -3   22.71    2.86
  -6   4  -3   23.64    2.98
   6   4   3   21.60    2.55
   6   4   3   25.69    3.28
   6   4   3   30.31    3.54
   6  -5  -3   54.75    3.75
  -6  -5   3   56.48    3.92
  -6   5   3   65.00    3.96
  -6   5   3   53.63    3.07
  -6   5   3   56.04    3.66
   6   5  -3   51.92    3.62
  -5  -5   3   57.36    4.27
  -5  -5   3   38.72    3.05
   5  -5  -3   38.49    2.84
  -5  -5   3   41.54    3.18
   5   5  -3   42.81    2.96
   5   5  -3   39.58    3.04
  -5   5   3   38.75    2.75
  -5   5   3   36.57    2.21
   5   5  -3   42.03    2.77
  -5   5   3   36.83    2.68
  -4  -5   3   38.33    2.77
  -4  -5   3   32.62    2.48
   4  -5  -3   35.06    2.34
  -4  -5   3   35.41    2.75
  -4   5   3   26.23    1.99
   4   5  -3   28.26    2.19
   4   5  -3   24.80    2.52
   4   5  -3   27.95    2.79
  -4   5   3   26.26    2.45
  -4   5   3   27.72    1.62
   3  -5  -3   28.63    1.81
  -3  -5   3   31.57    2.26
  -3  -5   3   26.37    2.20
  -3  -5   3   24.89    2.41
   3   5  -3   22.93    2.28
   3   5  -3   22.42    1.63
  -3   5   3   22.77    1.11
  -3   5   3   20.60    1.96
  -3   5   3   20.03    1.50
   3   5  -3   21.36    2.20
  -3   5   3   21.94    1.32
   3   5  -3   23.71    1.85
  -2  -5   3   82.09    3.51
  -2  -5   3   80.82    3.53
   2  -5  -3   80.18    2.94
   2  -5  -3   83.62    2.89
  -2  -5   3   88.39    3.76
  -2  -5   3   85.23    3.82
  -2   5   3   91.38    3.31
   2   5  -3   88.27    3.10
   2   5  -3   85.35    3.49
   2   5  -3   88.88    3.76
   2   5  -3   84.23    3.72
  -2   5   3   79.01    3.16
  -2   5   3   78.81    2.85
  -2   5   3   80.69    2.89
  -1  -5   3   92.23    3.69
   1  -5  -3   95.62    2.77
  -1  -5   3   96.95    3.83
   1  -5  -3   91.38    2.81
  -1  -5   3   94.70    3.95
  -1  -5   3   88.44    3.58
   1   5  -3   90.85    3.60
  -1   5   3   94.51    2.80
  -1   5   3   96.39    3.71
  -1   5   3   94.38    3.27
   1   5  -3   97.87    3.75
   1   5  -3   93.67    2.90
  -1   5   3   95.65    2.79
   1   5  -3   93.70    3.79
   0  -5   3   74.17    3.38
   0  -5   3   73.60    3.21
   0  -5   3   63.99    3.01
   0  -5   3   71.83    3.11
   0  -5  -3   71.62    2.24
   0  -5  -3   71.86    2.20
   0   5  -3   57.50    2.87
   0   5   3   64.45    2.52
   0   5   3   63.95    2.93
   0   5   3   63.22    2.01
   0   5  -3   59.64    2.76
   0   5  -3   66.48    2.91
   0   5   3   65.52    3.07
   0   5  -3   63.32    2.94
   0   5   3   67.07    2.07
  -1  -5  -3   25.96    1.38
  -1  -5  -3   27.00    1.36
   1  -5   3   25.61    1.82
   1  -5   3   28.43    2.02
   1  -5   3   28.34    1.98
   1  -5   3   30.88    1.94
  -1  -5  -3   26.88    1.30
   1   5   3   25.14    1.84
  -1   5  -3   25.02    1.83
  -1   5  -3   24.34    1.71
   1   5   3   27.57    1.38
   1   5   3   25.84    1.33
   1   5   3   23.50    1.88
  -1   5  -3   26.90    1.89
  -1   5  -3   27.32    1.83
   2  -5   3   25.27    1.95
   2  -5   3   27.47    2.16
   2  -5   3   26.84    2.03
  -2  -5  -3   24.61    1.63
   2  -5   3   22.40    1.80
  -2  -5  -3   25.11    1.56
  -2   5  -3   29.02    2.10
  -2   5  -3   29.34    2.03
  -2   5  -3   29.69    2.00
   2   5   3   26.00    2.02
   2   5   3   31.23    2.22
   2   5   3   26.68    1.07
  -2   5  -3   26.46    2.01
  -3  -5  -3    8.25    1.33
   3  -5   3   10.38    1.63
   3  -5   3    9.55    1.58
   3  -5   3   13.84    1.99
  -3  -5  -3   10.21    1.42
   3  -5   3   11.18    1.79
  -3   5  -3    9.13    1.46
  -3   5  -3    9.60    1.60
   3   5   3    9.75    1.65
   3   5   3   14.85    2.04
   3   5   3   10.82    1.14
  -3   5  -3    9.70    1.53
  -4  -5  -3    0.52    0.58
   4  -5   3    0.72    0.74
   4  -5   3    1.41    0.77
  -4  -5  -3    1.24    0.71
   4  -5   3    0.31    0.61
  -4   5  -3    0.56    0.65
  -4   5  -3    0.74    0.61
  -4   5  -3    0.61    0.63
   4   5   3    1.37    0.59
   4   5   3    0.79    0.67
   4   5   3    1.07    0.78
   5  -5   3    0.65    0.88
   5  -5   3    0.18    0.76
  -5  -5  -3    0.60    0.66
  -5  -5  -3    0.82    0.71
   5   5   3    0.18    0.53
   5   5   3    0.55    0.85
  -5   5  -3    1.18    0.90
  -5   5  -3    1.14    0.80
   5   5   3    0.38    0.72
  -5   5  -3   -0.39    0.44
   5   5   3    0.36    0.69
  -6  -5  -3    0.41    0.82
  -6  -5  -3    1.57    1.09
   6  -5   3    0.33    0.82
  -6   5  -3    0.10    0.77
   6   5   3    1.74    1.14
   6   5   3    0.72    0.79
  -6   5  -3    1.29    1.11
   6   5   3   -0.17    0.75
  -6   5  -3    0.83    0.85
  -6  -6   3    8.91    1.96
  -6   6   3    5.24    1.14
   6   6  -3    7.93    1.86
  -6   6   3    7.35    1.65
   6   6  -3    5.23    1.56
  -6   6   3    6.86    1.66
   6   6  -3    4.53    1.40
  -5  -6   3    5.97    1.54
   5   6  -3    7.42    1.56
   5   6  -3    5.36    1.30
   5   6  -3    5.66    1.51
   5   6  -3    7.13    1.54
  -5   6   3    8.80    1.25
  -5   6   3    6.26    1.40
  -5   6   3    8.06    1.57
  -4  -6   3   75.45    4.17
  -4  -6   3   80.70    4.49
  -4  -6   3   86.56    4.34
   4   6  -3   82.50    4.28
   4   6  -3   70.73    3.77
   4   6  -3   81.48    4.13
   4   6  -3   79.87    3.80
  -4   6   3   74.21    3.59
  -4   6   3   75.29    2.81
  -4   6   3   74.46    3.71
  -3  -6   3   25.70    2.60
  -3  -6   3   20.66    2.46
  -3  -6   3   17.31    2.10
   3   6  -3   13.22    1.84
  -3   6   3   12.72    0.68
   3   6  -3   12.21    1.80
   3   6  -3   12.66    1.56
   3   6  -3   13.12    1.72
  -3   6   3   14.38    1.73
  -3   6   3   14.38    1.46
  -3   6   3   13.45    1.50
  -2  -6   3   20.60    2.21
   2  -6  -3   27.33    1.61
  -2  -6   3   20.86    2.10
  -2  -6   3   26.56    2.50
  -2  -6   3   25.35    1.94
  -2   6   3   15.62    1.19
  -2   6   3   19.00    1.86
   2   6  -3   16.08    1.91
   2   6  -3   16.73    2.06
   2   6  -3   13.90    1.63
  -2   6   3   16.24    1.64
   2   6  -3   16.92    1.31
   2   6  -3   17.34    2.01
   1  -6  -3  196.85    5.49
  -1  -6   3  200.93    6.39
   1  -6  -3  191.28    5.50
  -1  -6   3  202.49    6.87
  -1  -6   3  200.36    6.50
  -1  -6   3  203.67    6.49
  -1   6   3  193.93    5.16
   1   6  -3  190.13    6.13
   1   6  -3  193.99    5.25
   1   6  -3  202.97    6.76
   1   6  -3  194.18    6.43
  -1   6   3  188.90    5.73
  -1   6   3  195.28    5.16
   1   6  -3  198.14    6.36
  -1   6   3  183.02    6.25
   0  -6   3  188.78    6.59
   0  -6  -3  188.62    5.30
   0  -6   3  198.01    6.24
   0  -6   3  189.66    6.24
   0  -6  -3  190.49    5.29
   0  -6   3  189.42    6.27
   0   6   3  181.76    6.15
   0   6   3  193.69    5.00
   0   6  -3  178.34    5.91
   0   6   3  186.16    6.45
   0   6   3  199.24    5.08
   0   6  -3  182.04    6.07
   0   6   3  193.56    5.67
   0   6  -3  194.54    6.33
   1  -6   3   31.53    2.14
   1  -6   3   28.60    2.21
  -1  -6  -3   31.16    1.69
   1  -6   3   32.44    2.21
   1  -6   3   31.30    2.17
   1   6   3   38.85    2.42
   1   6   3   35.97    2.47
  -1   6  -3   33.97    2.15
  -1   6  -3   31.27    2.16
  -1   6  -3   39.96    2.46
   1   6   3   35.87    1.72
   2  -6   3   27.72    2.79
  -2  -6  -3   27.26    1.83
   2  -6   3   27.59    2.13
   2  -6   3   27.99    2.21
   2  -6   3   30.76    2.23
   2   6   3   21.11    2.37
   2   6   3   34.89    2.43
  -2   6  -3   26.78    2.49
  -2   6  -3   27.10    2.02
   2   6   3   26.60    1.69
  -2   6  -3   24.12    2.47
   3  -6   3   58.61    3.67
   3  -6   3   54.19    3.35
   3  -6   3   56.68    3.31
  -3  -6  -3   57.13    3.11
   3  -6   3   59.41    3.49
   3   6   3   43.84    2.97
   3   6   3   46.90    3.20
  -3   6  -3   55.11    3.21
   3   6   3   49.09    2.02
  -3   6  -3   51.39    3.20
  -3   6  -3   46.02    2.86
   4  -6   3   53.10    3.57
   4  -6   3   50.30    3.41
   4  -6   3   50.77    3.65
  -4  -6  -3   53.32    3.38
   4  -6   3   51.69    3.69
   4   6   3   49.80    3.42
  -4   6  -3   49.40    3.42
   4   6   3   41.39    3.19
   4   6   3   48.50    2.43
  -4   6  -3   42.11    3.04
  -4   6  -3   48.92    3.17
   5  -6   3   20.99    2.83
  -5  -6  -3   20.88    2.74
   5   6   3   21.65    2.22
   5   6   3   22.66    3.01
   5   6   3   23.32    2.82
  -5   6  -3   25.90    3.03
  -5   6  -3   20.85    2.70
   5   6   3   26.14    3.25
  -5   6  -3   25.16    3.11
  -5  -7   3   59.53    4.08
   5   7  -3   47.95    3.31
   5   7  -3   51.76    3.54
  -5   7   3   56.07    3.53
   5   7  -3   45.87    3.24
   5   7  -3   49.36    3.69
  -5   7   3   46.08    3.17
  -4  -7   3   49.10    3.36
  -4  -7   3   43.46    3.42
   4   7  -3   51.41    3.45
  -4   7   3   46.02    3.04
   4   7  -3   52.36    3.08
   4   7  -3   48.48    3.37
   4   7  -3   43.97    2.99
  -4   7   3   46.77    2.87
  -3  -7   3   58.93    3.54
  -3  -7   3   50.95    3.27
  -3  -7   3   62.19    3.74
   3   7  -3   52.19    3.08
   3   7  -3   57.54    3.47
   3   7  -3   55.99    3.49
  -3   7   3   57.59    2.86
   3   7  -3   66.58    3.17
  -3   7   3   61.46    3.23
  -3   7   3   58.11    2.82
  -2  -7   3   57.93    3.28
  -2  -7   3   59.69    3.26
   2  -7  -3   53.37    2.67
  -2  -7   3   56.38    3.39
  -2  -7   3   59.38    3.22
   2   7  -3   61.30    2.72
   2   7  -3   52.47    3.28
  -2   7   3   53.68    2.89
   2   7  -3   54.86    2.94
  -2   7   3   49.21    2.37
   2   7  -3   57.09    3.23
  -2   7   3   58.70    2.98
   2   7  -3   50.90    3.09
   1  -7  -3   26.71    1.60
  -1  -7   3   25.79    2.54
  -1  -7   3   29.61    2.21
  -1  -7   3   24.73    2.40
  -1  -7   3   28.66    2.29
   1   7  -3   18.09    2.11
   1   7  -3   23.05    2.43
  -1   7   3   17.82    1.22
   1   7  -3   18.87    1.94
   1   7  -3   22.90    2.50
  -1   7   3   19.70    2.16
  -1   7   3   22.09    1.67
   1   7  -3   20.93    1.38
   0  -7   3    3.95    1.00
   0  -7  -3    2.73    0.60
   0  -7   3    2.82    0.88
   0  -7   3    2.86    0.85
   0  -7   3    1.72    0.76
   0  -7  -3    2.97    0.63
   0   7   3    1.03    0.60
   0   7   3    2.46    0.88
   0   7   3    3.58    0.64
   0   7  -3    0.25    0.44
   0   7  -3    0.92    0.58
   0   7  -3    1.59    0.75
   0   7   3    1.28    0.58
   1  -7   3   37.55    2.56
  -1  -7  -3   36.71    2.03
   1  -7   3   39.42    2.55
   1  -7   3   31.69    2.35
   1  -7   3   33.50    2.57
   1   7   3   36.15    1.88
  -1   7  -3   42.92    2.70
   1   7   3   32.93    3.02
   1   7   3   30.85    2.47
  -1   7  -3   34.35    2.43
  -1   7  -3   30.86    2.30
  -1   7  -3   36.08    2.32
   2  -7   3   27.81    2.90
  -2  -7  -3   30.70    2.06
   2  -7   3   28.41    2.83
   2  -7   3   29.58    2.91
   2  -7   3   29.68    2.86
   2   7   3   26.47    2.87
  -2   7  -3   26.25    2.69
   2   7   3   26.64    2.71
  -2   7  -3   23.65    2.41
  -2   7  -3   25.07    2.59
   2   7   3   25.20    1.75
   3  -7   3    3.88    1.21
   3  -7   3    5.32    1.47
   3  -7   3    2.60    1.03
  -3  -7  -3    2.46    0.82
   3   7   3    4.15    1.29
  -3   7  -3    3.24    1.07
  -3   7  -3    4.88    1.33
  -3   7  -3    3.14    0.97
   3   7   3    2.86    1.04
   4  -7   3    3.41    1.29
   4  -7   3    3.21    1.15
   4  -7   3    3.46    1.31
  -4  -7  -3    1.59    0.84
  -4   7  -3    4.60    1.47
  -4   7  -3    2.10    0.92
   4   7   3    3.79    1.23
   4   7   3    3.88    1.30
  -4   7  -3    3.44    1.18
   5  -7   3    8.98    2.00
  -5  -7  -3    6.87    1.70
   5  -7   3   10.48    2.13
  -5   7  -3   11.34    2.26
   5   7   3    6.24    1.71
   5   7   3    9.62    1.81
   5   7   3   11.66    2.37
  -5   7  -3    5.80    1.58
  -5   7  -3    9.06    1.77
  -5  -8   3    5.44    1.62
   5   8  -3    5.96    1.51
  -5   8   3    7.32    1.60
   5   8  -3    5.79    1.47
   5   8  -3    6.27    1.66
   5   8  -3    6.29    1.69
  -5   8   3    5.23    1.55
  -4  -8   3    5.13    1.52
  -4  -8   3    3.30    1.19
   4   8  -3    5.21    1.32
  -4   8   3    7.37    1.60
   4   8  -3    4.82    1.46
   4   8  -3    5.97    1.62
  -4   8   3    7.11    1.37
   4   8  -3    7.64    1.53
  -3  -8   3   20.14    2.50
  -3  -8   3   19.73    2.71
   3  -8  -3   19.88    2.20
  -3   8   3   17.04    1.87
  -3   8   3   17.81    2.16
   3   8  -3   16.24    2.30
   3   8  -3   18.29    2.15
   3   8  -3   17.50    2.49
   3   8  -3   16.70    1.98
  -2  -8   3   42.64    3.06
   2  -8  -3   37.70    2.35
  -2  -8   3   40.69    2.81
  -2  -8   3   38.87    2.77
   2   8  -3   32.34    2.38
  -2   8   3   34.00    2.42
   2   8  -3   38.18    2.81
   2   8  -3   37.32    2.21
   2   8  -3   38.22    2.79
   2   8  -3   35.50    2.84
  -2   8   3   35.68    2.04
  -2   8   3   34.98    2.44
   1  -8  -3   24.36    1.71
  -1  -8   3   22.31    2.50
  -1  -8   3   23.86    2.52
  -1  -8   3   24.63    2.60
  -1   8   3   26.80    2.22
   1   8  -3   27.65    1.75
  -1   8   3   26.31    1.61
   1   8  -3   24.24    1.94
   1   8  -3   28.10    2.80
  -1   8   3   24.63    2.35
   1   8  -3   21.33    2.41
   1   8  -3   26.55    2.90
   0  -8  -3   17.08    1.43
   0  -8   3   25.81    2.68
   0  -8   3   23.27    2.50
   0  -8   3   15.06    2.06
   0   8   3   22.47    2.60
   0   8  -3   24.73    1.97
   0   8  -3   29.12    2.85
   0   8   3   26.93    2.49
   0   8  -3   23.35    2.46
   0   8  -3   27.38    2.96
   0   8   3   25.26    2.70
   0   8   3   25.54    1.56
   1  -8   3   47.75    3.26
   1  -8   3   46.74    3.04
  -1  -8  -3   48.04    2.59
   1  -8   3   46.40    3.00
  -1   8  -3   43.18    2.65
  -1   8  -3   45.65    3.00
   1   8   3   41.89    3.11
   1   8   3   44.40    2.25
  -1   8  -3   44.42    3.03
   1   8   3   39.84    2.88
  -1   8  -3   44.61    3.01
   2  -8   3   66.44    4.03
   2  -8   3   65.11    3.82
  -2  -8  -3   69.05    3.45
   2  -8   3   69.51    3.85
   2   8   3   57.56    3.56
   2   8   3   64.14    3.02
   2   8   3   57.82    3.82
  -2   8  -3   55.43    3.50
  -2   8  -3   56.48    3.51
  -2   8  -3   59.90    3.29
  -2   8  -3   63.67    3.59
   3  -8   3   25.23    2.90
   3  -8   3   27.36    3.07
   3  -8   3   32.00    3.61
  -3  -8  -3   26.87    2.75
  -3   8  -3   29.79    2.42
  -3   8  -3   26.43    2.98
  -3   8  -3   28.83    3.10
   3   8   3   28.26    3.20
  -3   8  -3   26.78    2.72
   3   8   3   25.29    3.08
  -4  -8  -3   29.39    3.17
   4  -8   3   29.12    3.37
   4  -8   3   32.30    3.59
   4  -8   3   42.33    4.39
   4   8   3   28.12    3.48
   4   8   3   35.50    3.72
  -4   8  -3   37.27    3.74
  -4   8  -3   35.55    3.79
  -4   8  -3   35.37    3.42
  -4  -9   3   22.69    3.08
   4  -9  -3   22.65    2.70
  -4  -9   3   18.88    2.83
  -4   9   3   23.40    2.57
   4   9  -3   26.29    2.83
  -4   9   3   21.50    2.72
   4   9  -3   25.57    3.41
   4   9  -3   22.33    2.97
   3  -9  -3   12.65    1.87
  -3  -9   3   15.15    2.40
  -3  -9   3   12.47    2.27
  -3   9   3    6.74    1.30
   3   9  -3    6.32    1.36
   3   9  -3    7.00    1.65
  -3   9   3    8.28    1.61
   3   9  -3    5.47    1.64
  -2  -9   3    7.38    1.59
   2  -9  -3    6.18    1.21
  -2  -9   3    5.16    1.39
  -2  -9   3    6.37    1.52
   2   9  -3    6.39    1.32
  -2   9   3    8.06    1.26
   2   9  -3    9.07    1.75
  -2   9   3    9.26    1.73
   2   9  -3   12.29    2.18
   2   9  -3   10.27    1.85
  -2   9   3    8.28    1.49
   1  -9  -3   35.64    2.29
  -1  -9   3   36.32    2.96
  -1  -9   3   35.90    2.74
  -1  -9   3   36.98    3.43
   1   9  -3   39.00    2.98
  -1   9   3   40.84    2.72
   1   9  -3   35.79    2.82
  -1   9   3   39.68    2.90
  -1   9   3   37.44    2.09
   1   9  -3   37.52    3.05
   1   9  -3   29.62    2.28
   0  -9   3   30.44    3.15
   0  -9   3   37.25    2.76
   0  -9   3   38.87    3.55
   0  -9  -3   30.63    2.10
   0   9  -3   30.87    2.33
   0   9  -3   37.83    3.75
   0   9  -3   30.74    3.15
   0   9   3   32.47    1.94
   0   9  -3   27.84    3.00
   0   9   3   33.09    2.48
   0   9   3   30.58    3.16
  -1  -9  -3    3.78    0.97
   1  -9   3    3.16    1.06
   1  -9   3    3.32    1.16
   1  -9   3    3.18    1.14
  -1   9  -3    2.48    1.05
   1   9   3    1.09    0.84
   1   9   3    2.02    0.67
  -1   9  -3    2.72    1.06
   1   9   3    1.35    0.86
  -1   9  -3    2.90    1.11
   2  -9   3    7.10    1.73
  -2  -9  -3    5.37    1.20
   2  -9   3    8.08    1.75
   2  -9   3    3.74    1.27
  -2   9  -3    7.99    1.64
   2   9   3    6.13    1.65
  -2   9  -3    7.57    1.50
   2   9   3    7.24    1.66
  -2   9  -3    7.21    1.64
   2   9   3    7.02    1.27
  -2   9  -3    7.74    1.70
  -3  -9  -3   13.45    2.09
   3  -9   3   10.12    1.99
   3  -9   3   14.42    2.60
   3  -9   3   13.40    2.28
   3   9   3   11.42    1.70
   3   9   3   11.31    2.13
  -3   9  -3   14.47    2.33
  -3   9  -3   10.32    1.80
  -3   9  -3   11.47    1.94
  -3   9  -3   12.18    2.18
   3   9   3   14.95    2.60
  -4  -9  -3    2.12    1.10
   4  -9   3    5.63    1.78
   4  -9   3    3.25    1.38
  -4   9  -3    2.26    1.19
  -4   9  -3    3.32    1.14
  -4   9  -3    1.45    1.08
   4   9   3    5.22    1.59
   4   9   3    3.47    1.49
   3 -10  -3   14.64    2.19
  -3 -10   3   16.59    2.66
  -3 -10   3   12.16    2.22
   3  10  -3   17.72    2.63
   3  10  -3   13.77    2.54
   3  10  -3   15.69    2.09
  -3  10   3    9.27    1.86
  -3  10   3   13.43    1.80
  -2 -10   3   30.92    3.49
  -2 -10   3   19.30    2.65
   2 -10  -3   25.94    2.63
  -2 -10   3   20.74    2.75
  -2  10   3   21.67    2.60
   2  10  -3   25.67    2.58
  -2  10   3   25.87    2.97
   2  10  -3   21.22    2.82
   2  10  -3   21.57    3.01
  -2  10   3   21.08    2.12
   2  10  -3   23.18    2.95
   1 -10  -3   32.00    2.37
  -1 -10   3   28.55    3.04
  -1 -10   3   31.59    3.48
  -1 -10   3   31.92    3.41
  -1  10   3   31.91    3.44
   1  10  -3   33.36    2.44
   1  10  -3   33.08    3.53
  -1  10   3   31.68    3.13
   1  10  -3   29.95    3.20
  -1  10   3   29.11    1.99
   1  10  -3   33.72    3.73
   0 -10   3   35.09    3.52
   0 -10   3   31.82    3.29
   0 -10  -3   33.84    2.40
   0 -10   3   33.18    3.46
   0  10  -3   34.89    3.69
   0  10  -3   31.19    3.22
   0  10   3   33.40    3.24
   0  10  -3   32.63    3.57
   0  10   3   33.85    2.14
   0  10   3   24.81    3.08
   0  10  -3   37.73    2.54
   1 -10   3   46.12    3.39
  -1 -10  -3   41.36    2.83
   1 -10   3   51.43    3.56
   1 -10   3   52.68    3.85
  -1  10  -3   46.55    4.20
  -1  10  -3   41.99    3.31
  -1  10  -3   44.30    2.90
  -1  10  -3   45.85    3.54
   1  10   3   51.71    3.83
   1  10   3   44.24    3.36
   1  10   3   43.35    2.55
  -2 -10  -3   44.60    3.08
   2 -10   3   39.68    3.97
   2 -10   3   48.84    3.60
   2 -10   3   47.56    3.82
   2  10   3   48.20    3.59
  -2  10  -3   40.17    3.92
   2  10   3   43.69    4.54
  -2  10  -3   46.07    3.49
  -2  10  -3   40.66    2.83
  -2  10  -3   47.95    3.59
   2  10   3   43.99    2.72
   3 -10   3   26.92    3.61
   3 -10   3   29.43    3.66
  -3 -10  -3   27.71    3.10
   3 -10   3   34.71    3.87
   3  10   3   28.39    3.58
  -3  10  -3   31.70    3.60
   3  10   3   27.45    3.46
  -3  10  -3   27.32    3.35
   3  10   3   29.70    2.81
  -3  10  -3   26.41    2.88
  -2  11   3   11.28    2.15
  -2  11   3    8.26    1.85
   2  11  -3    9.89    2.19
  -1 -11   3    5.98    1.74
  -1 -11   3    7.25    1.78
   1 -11  -3    5.18    1.34
  -1 -11   3    5.87    1.64
   1  11  -3    6.98    1.93
   1  11  -3    8.54    1.57
   1  11  -3    9.64    2.02
   1  11  -3    5.71    1.71
  -1  11   3    6.42    1.69
  -1  11   3    7.85    1.73
  -1  11   3    7.10    1.29
   0 -11  -3   10.37    1.69
   0 -11   3   11.20    2.13
   0 -11   3   13.37    2.37
   0 -11   3   11.07    2.11
   0  11  -3   10.29    1.63
   0  11  -3   12.16    2.25
   0  11   3    9.74    2.14
   0  11   3    9.07    1.94
   0  11  -3    7.70    1.84
   0  11  -3   10.83    2.27
   0  11   3   10.66    1.51
  -1 -11  -3    8.03    1.59
   1 -11   3    9.90    2.06
   1 -11   3    5.80    1.70
   1 -11   3    6.34    1.76
   1  11   3    6.24    1.66
  -1  11  -3    5.34    1.60
   1  11   3    7.77    1.92
  -1  11  -3    5.18    1.28
   1  11   3    5.81    1.19
  -1  11  -3    8.13    1.86
  -1  11  -3    5.79    1.70
  -7   0   4    8.08    1.94
  -7   0   4    5.66    1.44
  -7   0   4    5.15    1.53
   7   0  -4    5.22    1.55
  -6   0   4   48.75    3.22
   6   0  -4   49.89    3.35
  -6   0   4   53.45    3.29
  -6   0   4   42.29    3.24
  -5   0   4   49.08    2.89
   5   0  -4   52.22    3.06
  -5   0   4   45.17    2.96
  -5   0   4   48.22    2.81
  -4   0   4   15.92    1.81
   4   0  -4   20.09    1.99
  -4   0   4   17.77    1.79
   4   0  -4   16.92    0.94
  -3   0   4  202.22    6.05
  -3   0   4  205.77    5.99
   3   0  -4  191.88    5.82
   3   0  -4  199.26    5.93
  -3   0   4  200.59    5.74
  -2   0   4  246.61    6.18
   2   0  -4  245.37    6.69
   2   0  -4  233.05    6.26
   2   0  -4  246.49    6.35
  -2   0   4  226.91    6.32
   1   0  -4   13.81    0.86
   1   0  -4   12.36    0.82
  -1   0   4   11.55    0.83
   1   0  -4   12.83    0.87
   1   0  -4   12.98    0.88
  -1   0   4   13.04    0.77
   0   0   4    2.00    0.43
   0   0  -4    3.28    0.51
   0   0  -4    0.93    0.29
   0   0   4    1.05    0.24
   0   0   4    1.20    0.31
   0   0  -4    2.29    0.27
   0   0   4    1.68    0.34
   0   0  -4    1.70    0.38
   0   0  -4    1.30    0.35
  -1   0  -4  183.82    5.49
  -1   0  -4  198.97    4.74
   1   0   4  196.72    5.17
   1   0   4  195.32    5.10
   1   0   4  191.61    5.00
  -1   0  -4  194.78    5.23
  -1   0  -4  206.84    5.63
   1   0   4  190.92    5.35
  -1   0  -4  190.38    5.28
   2   0   4   14.99    1.08
   2   0   4   15.01    1.16
   2   0   4   13.46    1.40
  -2   0  -4   16.78    1.13
   2   0   4   16.35    1.24
   2   0   4   16.52    1.20
  -2   0  -4   16.80    1.26
  -2   0  -4   13.51    1.42
  -2   0  -4   15.61    1.24
  -3   0  -4    6.48    1.12
   3   0   4    5.84    1.09
  -3   0  -4    6.79    1.07
   3   0   4    4.03    0.85
   3   0   4    8.70    1.35
  -3   0  -4    6.35    1.15
  -3   0  -4    4.94    1.02
   4   0   4    1.28    0.64
  -4   0  -4    0.84    0.56
  -4   0  -4    0.71    0.53
   4   0   4    2.16    0.84
  -4   0  -4    0.95    0.63
  -4   0  -4    0.87    0.61
  -5   0  -4    1.61    0.84
   5   0   4    1.93    0.93
  -5   0  -4    1.28    0.82
  -5   0  -4    0.66    0.61
   5   0   4    0.75    0.73
   6   0   4   16.70    2.60
   6   0   4   10.86    1.95
  -6   0  -4   13.55    2.29
  -6   0  -4   12.68    2.06
  -7  -1   4    9.34    2.03
  -7  -1   4   11.38    2.12
  -7  -1   4    6.42    1.60
   7  -1  -4    8.76    1.95
  -7   1   4   11.17    2.03
   7   1  -4   11.13    2.17
  -7   1   4   10.95    2.17
  -7   1   4    9.32    1.91
  -6  -1   4   13.73    2.06
  -6  -1   4   16.59    2.39
   6  -1  -4   15.92    2.25
  -6   1   4   12.84    2.11
  -6   1   4   13.82    1.95
  -6   1   4   11.84    1.90
   6   1  -4   13.81    2.17
  -5  -1   4  102.01    4.40
   5  -1  -4   90.74    4.27
  -5  -1   4  104.13    4.77
   5   1  -4   87.55    4.14
  -5   1   4   87.53    3.97
  -5   1   4   86.15    3.84
  -5   1   4   91.77    4.27
   4  -1  -4  163.77    5.54
  -4  -1   4  184.20    6.08
  -4  -1   4  167.11    5.87
  -4  -1   4  155.90    5.53
  -4   1   4  143.02    5.29
   4   1  -4  156.01    5.50
  -4   1   4  161.22    5.13
   4   1  -4  157.76    5.50
  -4   1   4  156.82    5.14
   4   1  -4  161.68    4.63
  -3  -1   4   85.51    3.57
   3  -1  -4   97.41    3.61
   3  -1  -4   86.20    3.28
  -3  -1   4   91.35    3.48
  -3  -1   4  100.87    3.73
   3   1  -4   83.99    3.37
  -3   1   4   87.68    3.11
  -3   1   4   86.58    3.04
  -3   1   4   84.17    3.30
   3   1  -4   93.93    3.57
  -2  -1   4  122.90    4.01
   2  -1  -4  121.15    3.59
   2  -1  -4  119.74    3.57
  -2  -1   4  118.62    3.98
  -2  -1   4  121.50    3.83
   2  -1  -4  122.16    3.77
   2   1  -4  125.21    4.06
  -2   1   4  127.55    3.81
   2   1  -4  125.81    3.98
  -2   1   4  125.82    3.46
  -2   1   4  129.50    3.52
   1  -1  -4  101.50    2.93
   1  -1  -4  103.30    2.96
  -1  -1   4  104.16    3.36
  -1  -1   4  103.86    3.21
   1  -1  -4  106.38    3.02
   1  -1  -4  104.45    2.85
  -1  -1   4  103.77    3.35
  -1   1   4  102.69    2.90
  -1   1   4  101.05    2.89
   1   1  -4  110.68    3.53
   1   1  -4   98.66    3.39
  -1   1   4  104.17    2.41
  -1   1   4  104.14    2.45
  -1   1   4  104.02    2.40
   1   1  -4  101.35    3.27
   1   1  -4  105.96    3.29
   0  -1   4  170.80    4.83
   0  -1   4  168.17    3.90
   0  -1   4  170.27    4.63
   0  -1  -4  168.24    4.11
   0  -1  -4  164.26    4.30
   0  -1   4  158.94    4.71
   0  -1  -4  161.89    4.31
   0  -1   4  172.57    4.51
   0   1   4  162.23    4.26
   0   1  -4  178.82    5.04
   0   1  -4  170.84    4.17
   0   1  -4  171.27    4.69
   0   1   4  163.65    4.56
   0   1  -4  169.49    4.74
   0   1  -4  178.22    4.97
   0   1   4  159.19    5.08
   0   1   4  171.88    4.27
  -1  -1  -4  508.33   12.35
  -1  -1  -4  512.36   10.93
  -1  -1  -4  504.31   12.26
  -1  -1  -4  509.29   11.72
   1  -1   4  519.34   12.09
   1  -1   4  516.90   12.24
  -1  -1  -4  507.01   11.70
   1  -1   4  480.88   12.59
   1  -1   4  535.78   11.32
   1  -1   4  499.31   11.94
   1   1   4  505.00   11.91
   1   1   4  511.10   13.02
   1   1   4  513.59   11.57
  -1   1  -4  535.75   11.41
  -1   1  -4  515.76   12.88
  -1   1  -4  529.58   12.33
  -1   1  -4  513.68   12.19
   1   1   4  504.32   11.17
   1   1   4  507.80   11.93
   2  -1   4  389.36   10.05
   2  -1   4  368.40    9.62
  -2  -1  -4  398.55    9.09
   2  -1   4  398.60   10.38
  -2  -1  -4  380.83   10.11
   2  -1   4  372.19    9.78
  -2  -1  -4  382.79    9.66
  -2  -1  -4  376.13    9.57
   2   1   4  364.46   10.15
   2   1   4  376.63    9.17
   2   1   4  362.91    9.50
  -2   1  -4  360.12    8.97
   2   1   4  365.92    8.88
  -2   1  -4  377.49    9.66
  -2   1  -4  388.58   10.21
  -2   1  -4  382.07    9.77
   2   1   4  371.86    9.45
  -3  -1  -4  117.16    4.31
  -3  -1  -4  111.64    4.19
   3  -1   4  118.60    4.61
  -3  -1  -4  108.77    4.39
  -3  -1  -4  119.56    4.02
   3  -1   4  107.97    4.26
   3  -1   4  115.01    4.58
   3   1   4  119.45    4.17
  -3   1  -4  116.24    4.12
   3   1   4  109.50    4.24
  -3   1  -4  115.12    4.36
   3   1   4  113.26    4.42
  -3   1  -4  116.28    4.68
   3   1   4  110.52    4.44
  -3   1  -4  120.23    4.53
  -4  -1  -4   50.77    2.98
   4  -1   4   61.81    3.45
  -4  -1  -4   46.22    2.66
   4  -1   4   48.71    2.95
  -4  -1  -4   54.86    3.18
  -4  -1  -4   50.47    2.94
  -4   1  -4   55.41    3.17
  -4   1  -4   65.64    3.59
   4   1   4   62.16    3.22
   4   1   4   54.34    3.01
  -4   1  -4   60.72    3.13
  -4   1  -4   62.73    3.45
   4   1   4   62.48    3.43
  -5  -1  -4   18.79    2.18
   5  -1   4   22.65    2.65
  -5  -1  -4   19.02    2.42
  -5  -1  -4   19.39    2.48
   5  -1   4   14.91    2.25
   5   1   4   18.12    2.20
  -5   1  -4   18.98    2.38
  -5   1  -4   28.38    3.11
  -5   1  -4   17.22    2.40
   5   1   4   25.40    2.93
  -5   1  -4   22.85    2.50
   6  -1   4   37.16    3.96
  -6  -1  -4   36.33    3.46
  -6  -1  -4   39.88    3.88
   6  -1   4   35.68    3.69
   6   1   4   32.20    3.23
  -6   1  -4   37.26    3.77
   6   1   4   31.09    3.63
  -6   1  -4   32.91    3.31
  -7  -2   4   28.14    3.34
  -7  -2   4   24.75    2.95
   7  -2  -4   25.85    3.17
  -7  -2   4   34.55    3.93
  -7   2   4   24.23    2.97
   7   2  -4   26.26    3.20
  -7   2   4   26.51    3.29
  -7   2   4   28.77    3.06
   6  -2  -4   54.45    3.53
  -6  -2   4   57.04    3.84
  -6  -2   4   54.43    3.49
  -6   2   4   52.45    3.50
  -6   2   4   52.14    3.12
  -6   2   4   50.06    3.30
   6   2  -4   45.83    3.29
  -5  -2   4   28.07    2.74
  -5  -2   4   27.08    2.88
   5  -2  -4   29.49    2.26
  -5   2   4   24.51    2.29
  -5   2   4   25.20    2.47
   5   2  -4   22.85    2.44
  -5   2   4   25.68    2.63
  -4  -2   4   21.47    2.15
   4  -2  -4   22.71    1.75
  -4  -2   4   27.26    2.09
  -4  -2   4   23.86    1.97
  -4   2   4   16.51    1.79
   4   2  -4   19.71    2.09
   4   2  -4   18.40    1.35
   4   2  -4   19.73    2.01
  -4   2   4   18.39    1.79
  -4   2   4   21.18    1.49
  -3  -2   4   95.02    3.81
   3  -2  -4   84.87    3.36
   3  -2  -4   89.98    3.24
  -3  -2   4   85.46    3.49
  -3  -2   4   91.65    3.71
   3  -2  -4   87.65    3.23
  -3   2   4   86.65    2.88
   3   2  -4   93.26    3.69
   3   2  -4   80.67    3.42
  -3   2   4   86.89    3.23
  -3   2   4   82.93    3.07
   2  -2  -4  127.34    3.57
   2  -2  -4  127.30    3.74
  -2  -2   4  114.98    4.04
  -2  -2   4  121.90    4.23
  -2  -2   4  125.73    4.33
  -2   2   4  115.34    2.81
  -2   2   4  111.02    2.80
  -2   2   4  115.25    3.42
  -2   2   4  117.08    3.42
  -2   2   4  112.57    3.24
   2   2  -4  109.21    3.91
   2   2  -4  109.83    3.84
   1  -2  -4  141.34    3.46
  -1  -2   4  140.37    4.30
  -1  -2   4  143.73    4.47
   1  -2  -4  146.20    3.47
  -1  -2   4  139.61    4.21
  -1  -2   4  136.31    4.48
  -1   2   4  131.02    3.28
   1   2  -4  128.76    4.11
   1   2  -4  129.81    4.32
  -1   2   4  134.73    3.14
  -1   2   4  136.57    4.20
  -1   2   4  133.91    3.29
   1   2  -4  133.45    4.18
   1   2  -4  127.69    3.75
   0  -2   4  143.96    4.43
   0  -2  -4  131.61    3.19
   0  -2   4  134.33    4.09
   0  -2   4  132.34    4.27
   0  -2  -4  136.29    2.97
   0  -2   4  131.43    4.13
   0  -2  -4  135.99    3.19
   0   2  -4  143.51    3.90
   0   2  -4  139.49    4.32
   0   2   4  138.97    4.54
   0   2   4  137.44    4.21
   0   2  -4  136.18    4.24
   0   2  -4  145.30    4.52
   0   2   4  138.89    3.37
   0   2   4  136.22    3.37
  -1  -2  -4  100.26    2.87
   1  -2   4   90.42    3.27
   1  -2   4  100.21    3.62
   1  -2   4   97.54    3.54
   1  -2   4   97.21    2.59
  -1  -2  -4   89.82    2.89
   1  -2   4   88.30    3.32
   1   2   4   95.18    3.43
   1   2   4   98.45    2.33
   1   2   4   99.40    2.97
  -1   2  -4  100.53    3.66
  -1   2  -4   99.43    3.45
   1   2   4   95.91    2.31
   1   2   4   96.20    3.71
  -1   2  -4   95.86    3.49
  -1   2  -4   94.23    3.11
   1   2   4   95.29    2.94
   2  -2   4   42.34    2.17
  -2  -2  -4   40.76    1.95
   2  -2   4   43.89    2.37
  -2  -2  -4   39.84    2.03
   2  -2   4   40.95    2.23
  -2  -2  -4   45.43    2.05
   2  -2   4   43.86    2.42
   2   2   4   42.14    2.39
  -2   2  -4   41.07    2.28
  -2   2  -4   41.13    2.34
   2   2   4   39.43    1.42
  -2   2  -4   46.09    2.13
   2   2   4   41.89    2.05
  -2   2  -4   43.07    2.24
   2   2   4   39.99    1.72
   2   2   4   42.43    2.24
   3  -2   4   64.97    3.41
  -3  -2  -4   67.81    3.22
   3  -2   4   71.23    3.33
   3  -2   4   71.81    3.49
  -3  -2  -4   68.49    3.07
   3  -2   4   65.42    3.16
  -3  -2  -4   71.46    3.12
  -3   2  -4   71.52    3.34
   3   2   4   74.35    3.42
   3   2   4   64.88    2.85
  -3   2  -4   77.40    3.22
  -3   2  -4   75.89    3.54
  -3   2  -4   68.52    3.48
   3   2   4   70.15    3.25
   3   2   4   71.12    3.47
   4  -2   4    6.13    1.34
  -4  -2  -4    8.79    1.36
  -4  -2  -4    7.85    1.37
  -4  -2  -4    7.15    1.38
   4  -2   4    9.07    1.62
   4   2   4    8.40    1.53
   4   2   4    6.54    1.14
   4   2   4    7.80    1.39
   4   2   4    7.35    1.39
  -4   2  -4    9.95    1.54
  -4   2  -4    9.07    1.55
  -4   2  -4    6.09    1.31
  -4   2  -4    9.08    1.59
  -5  -2  -4    4.06    1.17
  -5  -2  -4    6.66    1.36
   5  -2   4    4.77    1.27
   5  -2   4    5.85    1.56
  -5  -2  -4    4.59    1.33
   5   2   4    5.16    1.21
   5   2   4    4.80    1.35
  -5   2  -4    6.50    1.56
   5   2   4    4.85    1.28
   5   2   4    5.74    1.42
  -5   2  -4    4.70    1.33
  -5   2  -4    5.09    1.25
   6  -2   4   13.74    2.53
  -6  -2  -4   11.78    2.28
  -6  -2  -4   10.07    2.13
  -6  -2  -4   12.23    2.06
   6  -2   4   11.32    2.06
  -6   2  -4   10.96    2.02
   6   2   4    9.79    2.03
   6   2   4    9.93    2.05
  -6   2  -4    6.45    1.64
   6   2   4    6.73    1.53
   7  -3  -4    7.80    1.86
  -7  -3   4    6.76    1.70
  -7  -3   4   10.34    2.30
  -7   3   4    8.39    1.93
  -7   3   4    8.30    1.64
   7   3  -4   10.28    2.05
  -7   3   4   10.28    2.05
  -6  -3   4   85.18    4.61
   6  -3  -4   78.10    4.37
  -6  -3   4   84.31    4.87
  -6   3   4   75.77    4.10
  -6   3   4   73.77    3.68
  -6   3   4   70.57    4.16
   6   3  -4   82.07    4.50
  -5  -3   4   75.85    3.98
  -5  -3   4   75.93    4.14
   5  -3  -4   73.77    3.76
  -5   3   4   70.02    3.55
  -5   3   4   64.82    3.58
   5   3  -4   70.88    3.81
  -5   3   4   73.97    3.25
   5   3  -4   76.70    4.06
  -4  -3   4   22.74    2.42
  -4  -3   4   20.52    2.28
   4  -3  -4   22.66    1.73
  -4  -3   4   19.86    2.17
  -4   3   4   18.68    1.86
   4   3  -4   21.48    2.21
   4   3  -4   21.01    1.62
   4   3  -4   21.82    2.29
  -4   3   4   22.15    1.73
  -4   3   4   18.79    1.33
   3  -3  -4   55.97    2.45
  -3  -3   4   58.96    2.98
  -3  -3   4   56.38    2.84
   3  -3  -4   57.04    2.55
  -3  -3   4   58.46    3.05
   3  -3  -4   55.86    2.67
   3   3  -4   62.63    2.80
   3   3  -4   57.95    2.94
   3   3  -4   62.99    2.99
  -3   3   4   61.30    2.07
  -3   3   4   57.54    2.53
  -3   3   4   58.46    2.52
   2  -3  -4  242.61    5.97
   2  -3  -4  240.23    6.23
  -2  -3   4  229.54    6.97
  -2  -3   4  237.87    7.22
  -2  -3   4  236.44    6.86
   2   3  -4  249.70    7.19
  -2   3   4  246.35    6.20
  -2   3   4  251.97    6.26
  -2   3   4  250.39    6.16
   2   3  -4  244.99    7.06
  -2   3   4  241.64    6.63
  -1  -3   4  164.57    5.24
  -1  -3   4  162.81    5.37
  -1  -3   4  167.13    5.14
  -1  -3   4  170.62    5.09
   1   3  -4  158.56    5.16
  -1   3   4  159.13    3.60
   1   3  -4  154.98    3.66
  -1   3   4  156.29    4.87
  -1   3   4  151.32    3.59
   1   3  -4  150.29    4.55
   1   3  -4  157.43    4.87
  -1   3   4  153.22    3.88
   1   3  -4  159.53    4.97
   0  -3   4  347.46    9.61
   0  -3   4  353.58    9.12
   0  -3   4  356.58    9.25
   0  -3   4  348.05    9.03
   0   3  -4  336.34    8.64
   0   3   4  325.36    7.08
   0   3  -4  324.39    8.70
   0   3  -4  335.49    8.15
   0   3  -4  341.61    9.13
   0   3   4  318.23    8.99
   0   3   4  325.20    8.52
  -1  -3  -4  362.98    8.47
   1  -3   4  363.11    9.46
  -1  -3  -4  362.62    8.87
   1  -3   4  367.81    9.57
   1  -3   4  376.60   10.11
   1  -3   4  350.96    9.60
   1   3   4  374.21    8.48
  -1   3  -4  351.82    9.47
   1   3   4  365.27   10.07
  -1   3  -4  357.39    9.40
  -1   3  -4  364.71    8.92
   1   3   4  349.86    9.31
  -1   3  -4  353.96    9.89
   1   3   4  355.36    8.47
   2  -3   4   58.06    2.80
   2  -3   4   68.18    3.26
  -2  -3  -4   61.77    2.44
  -2  -3  -4   60.12    2.58
   2  -3   4   59.89    2.93
  -2  -3  -4   61.80    2.49
   2  -3   4   62.47    3.04
   2   3   4   56.42    2.45
  -2   3  -4   57.80    2.88
  -2   3  -4   60.81    2.84
   2   3   4   58.40    3.03
  -2   3  -4   58.71    2.96
  -2   3  -4   58.12    2.62
   2   3   4   54.57    2.78
   2   3   4   54.31    1.91
   3  -3   4   32.26    2.22
   3  -3   4   34.34    2.34
  -3  -3  -4   34.24    2.05
   3  -3   4   33.35    2.42
   3  -3   4   29.72    2.30
  -3  -3  -4   30.20    2.06
  -3   3  -4   25.64    1.96
   3   3   4   23.08    1.20
  -3   3  -4   24.18    1.82
   3   3   4   23.96    2.32
   3   3   4   22.64    1.48
   3   3   4   23.27    1.78
  -3   3  -4   27.42    2.15
   3   3   4   26.97    2.63
  -3   3  -4   22.58    2.28
  -4  -3  -4  102.69    4.44
   4  -3   4  102.78    4.94
   4  -3   4  100.06    4.68
  -4  -3  -4  100.60    4.61
   4   3   4  103.95    4.01
  -4   3  -4   99.34    4.35
   4   3   4   94.63    4.53
  -4   3  -4   92.26    4.68
   4   3   4  100.12    4.47
  -4   3  -4   94.64    4.41
   4   3   4   93.76    4.51
  -4   3  -4   98.90    4.66
   5  -3   4  105.17    5.43
   5  -3   4   91.99    4.95
  -5  -3  -4  103.81    4.72
  -5  -3  -4  105.49    5.25
  -5  -3  -4  104.39    4.95
  -5   3  -4   98.28    5.16
  -5   3  -4  108.57    5.11
  -5   3  -4  108.23    4.93
   5   3   4  104.61    4.55
   5   3   4  101.40    4.98
   5   3   4  100.42    5.12
   5   3   4   99.06    4.96
   6  -3   4   24.88    3.38
  -6  -3  -4   21.08    2.77
   6  -3   4   23.62    3.09
  -6  -3  -4   21.11    3.06
  -6  -3  -4   21.99    2.87
   6   3   4   26.64    2.83
  -6   3  -4   23.64    3.18
  -6   3  -4   21.44    2.81
   6   3   4   23.53    3.11
  -6   3  -4   23.35    2.94
   6   3   4   22.09    3.05
  -6  -4   4    5.28    1.57
   6  -4  -4    6.98    1.59
  -6  -4   4    8.92    1.93
  -6   4   4    8.47    1.37
  -6   4   4    9.40    1.73
   6   4  -4    9.52    1.81
  -6   4   4    7.80    1.62
  -5  -4   4   40.49    3.08
   5  -4  -4   46.07    2.92
  -5  -4   4   44.79    3.10
   5   4  -4   40.81    2.54
  -5   4   4   38.78    2.63
  -5   4   4   37.47    2.15
   5   4  -4   35.19    3.40
   5   4  -4   37.92    2.83
  -5   4   4   39.80    2.72
   4  -4  -4  128.50    4.79
  -4  -4   4  127.49    5.42
  -4  -4   4  139.90    5.70
  -4  -4   4  130.94    5.29
   4   4  -4  116.65    5.02
  -4   4   4  116.98    4.51
   4   4  -4  115.50    4.81
  -4   4   4  114.19    4.39
   4   4  -4  120.74    4.70
  -4   4   4  121.99    3.80
  -3  -4   4   12.97    1.72
   3  -4  -4   17.97    1.82
  -3  -4   4   16.13    2.03
  -3  -4   4   12.74    1.64
   3  -4  -4   15.61    1.24
  -3   4   4   10.76    0.86
  -3   4   4   14.24    1.44
  -3   4   4   12.08    1.34
   3   4  -4    8.71    1.33
  -3   4   4   11.94    0.64
   3   4  -4    7.64    1.31
   3   4  -4   10.50    1.54
  -2  -4   4   57.16    2.98
  -2  -4   4   63.55    3.06
   2  -4  -4   58.95    2.11
   2  -4  -4   55.55    2.12
  -2  -4   4   67.44    3.03
  -2   4   4   63.79    2.64
  -2   4   4   64.13    2.23
   2   4  -4   64.29    3.04
  -2   4   4   62.13    2.20
   2   4  -4   66.37    2.99
  -2   4   4   62.41    2.41
  -1  -4   4   97.15    3.78
  -1  -4   4  100.46    3.79
  -1  -4   4  105.33    4.09
  -1  -4   4  101.15    3.95
   1   4  -4  101.96    2.68
   1   4  -4  104.22    4.08
  -1   4   4  104.14    2.50
  -1   4   4  106.11    2.50
  -1   4   4  102.69    3.84
   1   4  -4   99.90    3.90
  -1   4   4  102.76    3.09
   1   4  -4   98.04    3.67
   0  -4   4   85.65    3.54
   0  -4   4   83.05    3.42
   0  -4   4   90.64    3.75
   0  -4   4   86.89    3.42
   0   4  -4   83.84    3.47
   0   4   4   87.86    3.60
   0   4   4   85.92    3.41
   0   4  -4   78.10    3.12
   0   4  -4   79.53    3.29
   0   4  -4   82.33    3.50
   0   4   4   86.20    2.64
  -1  -4  -4    4.05    0.57
   1  -4   4    3.25    0.80
   1  -4   4    3.85    0.87
  -1  -4  -4    2.50    0.46
   1  -4   4    3.56    0.86
   1  -4   4    3.87    0.89
  -1   4  -4    3.41    0.82
  -1   4  -4    4.93    0.92
   1   4   4    1.88    0.63
   1   4   4    3.72    0.54
   1   4   4    3.55    0.89
  -1   4  -4    3.90    0.90
  -1   4  -4    2.28    0.68
   2  -4   4    9.78    1.57
   2  -4   4    8.55    1.32
  -2  -4  -4   10.79    1.20
  -2  -4  -4    9.68    1.11
   2  -4   4    8.07    1.33
   2  -4   4    8.00    1.33
  -2   4  -4    7.98    1.37
   2   4   4    9.35    0.50
   2   4   4    8.43    1.09
   2   4   4    8.64    1.33
  -2   4  -4    7.15    1.21
  -2   4  -4    7.59    1.21
  -2   4  -4    9.17    1.43
   2   4   4   10.28    1.64
  -3  -4  -4   11.49    1.47
   3  -4   4   11.22    1.66
   3  -4   4   13.73    1.89
   3  -4   4   11.61    1.60
   3  -4   4   12.80    1.93
  -3  -4  -4   12.65    1.54
   3   4   4   14.23    1.94
   3   4   4   13.46    1.06
  -3   4  -4   15.08    1.99
   3   4   4   15.01    1.70
  -3   4  -4   12.77    1.86
  -3   4  -4   10.57    1.53
  -3   4  -4   12.28    1.66
   3   4   4   16.37    2.11
   4  -4   4    5.73    1.46
  -4  -4  -4    4.32    1.06
   4  -4   4    3.61    1.13
   4  -4   4    5.61    1.38
  -4  -4  -4    3.46    0.99
  -4   4  -4    2.30    0.86
   4   4   4    5.63    0.98
  -4   4  -4    4.80    1.20
   4   4   4    8.01    1.63
  -4   4  -4    6.13    1.38
   4   4   4    4.68    1.27
   4   4   4    7.21    1.40
  -5  -4  -4    4.97    1.37
   5  -4   4    8.17    1.78
   5  -4   4    8.96    1.98
  -5  -4  -4    6.59    1.51
  -5   4  -4    6.40    1.48
  -5   4  -4    4.62    1.31
   5   4   4    6.21    1.62
   5   4   4    5.46    1.16
   5   4   4    6.17    1.63
   5   4   4    6.53    1.53
  -5   4  -4    4.22    1.35
   6  -4   4   13.72    2.45
   6  -4   4   16.83    2.79
  -6  -4  -4   21.31    2.92
  -6  -4  -4   13.97    2.42
  -6  -4  -4   14.53    2.33
   6   4   4   13.03    1.98
   6   4   4   16.72    2.64
  -6   4  -4   18.68    2.95
   6   4   4   15.23    2.62
  -6   4  -4   15.78    2.46
  -6   4  -4   14.01    2.32
  -6  -5   4   10.00    2.09
  -6  -5   4   13.60    2.51
   6   5  -4    6.42    1.69
   6   5  -4    9.04    1.77
  -6   5   4    7.75    1.62
  -6   5   4    5.82    1.43
  -6   5   4    6.07    1.14
  -5  -5   4   28.99    3.17
  -5  -5   4   27.60    3.06
   5   5  -4   29.76    3.12
   5   5  -4   28.07    2.31
  -5   5   4   26.25    2.66
  -5   5   4   27.02    2.66
   5   5  -4   27.41    3.11
  -5   5   4   29.63    1.80
  -4  -5   4   99.15    4.80
  -4  -5   4   84.72    4.47
  -4  -5   4   91.73    4.44
  -4   5   4   82.51    3.64
   4   5  -4   79.17    3.90
  -4   5   4   83.86    2.73
   4   5  -4   85.12    4.28
  -4   5   4   84.59    3.71
   4   5  -4   74.90    3.86
  -3  -5   4   47.95    3.07
  -3  -5   4   51.56    3.08
  -3  -5   4   48.47    2.89
  -3   5   4   41.13    2.09
   3   5  -4   40.11    2.15
   3   5  -4   35.92    2.46
   3   5  -4   45.61    2.78
   3   5  -4   37.67    2.47
  -3   5   4   39.41    2.21
  -3   5   4   40.58    1.96
  -2  -5   4   43.31    2.63
  -2  -5   4   45.15    2.58
  -2  -5   4   50.80    2.89
  -2  -5   4   41.30    2.45
   2  -5  -4   42.98    1.88
  -2   5   4   50.62    2.49
  -2   5   4   49.14    1.96
   2   5  -4   56.66    2.98
   2   5  -4   52.66    2.16
  -2   5   4   51.57    2.34
   2   5  -4   54.66    2.94
   2   5  -4   50.63    2.70
  -1  -5   4  322.62    9.70
   1  -5  -4  320.20    7.70
  -1  -5   4  334.20    9.18
  -1  -5   4  330.97    9.34
  -1  -5   4  326.79    9.17
   1   5  -4  341.01    9.10
  -1   5   4  327.84    7.52
   1   5  -4  341.70    9.50
  -1   5   4  330.70    9.45
   1   5  -4  346.92    9.85
   1   5  -4  339.44    7.64
  -1   5   4  325.38    8.19
  -1   5   4  330.47    7.52
   0  -5   4  248.03    7.55
   0  -5   4  260.52    7.75
   0  -5  -4  250.90    6.07
   0  -5   4  252.50    8.04
   0  -5   4  266.27    7.64
   0   5  -4  251.01    7.18
   0   5   4  244.96    6.40
   0   5   4  259.13    7.84
   0   5  -4  240.47    7.32
   0   5  -4  245.26    7.55
   0   5   4  244.40    7.39
   0   5   4  248.43    5.66
   0   5   4  246.65    5.66
   0   5  -4  256.58    7.79
   1  -5   4   16.07    1.77
   1  -5   4   14.20    1.76
   1  -5   4   15.18    1.85
  -1  -5  -4   15.03    0.99
   1  -5   4   15.13    1.75
  -1   5  -4   14.96    1.79
   1   5   4   23.22    2.41
   1   5   4   15.93    1.89
  -1   5  -4   17.67    1.87
  -1   5  -4   16.93    1.80
   1   5   4   18.48    1.05
   2  -5   4   73.22    3.58
   2  -5   4   74.95    3.88
   2  -5   4   75.73    3.72
  -2  -5  -4   68.75    2.96
   2  -5   4   80.06    3.67
  -2   5  -4   69.76    3.35
   2   5   4   72.68    3.75
   2   5   4   69.83    3.54
  -2   5  -4   78.16    3.76
  -2   5  -4   66.81    3.49
  -2   5  -4   70.45    3.42
   3  -5   4  154.45    5.83
   3  -5   4  139.67    5.76
   3  -5   4  146.54    6.00
   3  -5   4  153.87    6.31
  -3  -5  -4  135.78    5.26
  -3   5  -4  135.61    5.59
   3   5   4  138.85    5.82
  -3   5  -4  141.82    5.35
   3   5   4  123.85    4.74
   3   5   4  135.89    3.85
   3   5   4  133.84    5.51
  -3   5  -4  132.79    5.36
  -4  -5  -4   53.87    3.33
   4  -5   4   55.26    3.58
   4  -5   4   52.39    3.44
   4  -5   4   53.39    3.65
  -4   5  -4   55.03    3.36
  -4   5  -4   54.49    3.38
   4   5   4   61.27    3.80
  -4   5  -4   59.94    3.73
   4   5   4   52.08    3.48
   4   5   4   54.03    2.54
   4   5   4   47.85    3.03
   5  -5   4   37.29    3.77
  -5  -5  -4   38.02    3.82
   5  -5   4   39.85    3.94
   5  -5   4   37.52    4.00
   5   5   4   37.09    3.82
  -5   5  -4   40.88    3.80
   5   5   4   42.95    2.58
  -5   5  -4   43.12    4.21
   5   5   4   39.23    3.70
   5   5   4   39.40    3.19
  -5   5  -4   39.09    3.10
  -6  -6   4   17.95    2.83
  -6   6   4   15.06    2.23
   6   6  -4   13.64    2.30
  -6   6   4   15.04    2.32
   6   6  -4   13.41    2.44
   6   6  -4   18.39    2.60
  -5  -6   4   13.52    2.40
  -5  -6   4   12.00    2.10
   5   6  -4   13.78    2.19
   5   6  -4    9.88    1.82
   5   6  -4   10.31    1.75
  -5   6   4   10.68    1.76
   5   6  -4   11.03    2.12
  -5   6   4   10.31    1.73
  -4  -6   4   12.50    2.12
  -4  -6   4   13.17    1.96
  -4  -6   4   11.47    1.97
  -4   6   4    7.37    1.32
  -4   6   4    9.33    1.44
   4   6  -4    5.22    1.39
   4   6  -4    7.73    1.52
   4   6  -4    7.68    1.49
   4   6  -4    9.26    1.51
  -3  -6   4    0.56    0.54
  -3  -6   4   -0.11    0.47
  -3  -6   4    0.51    0.60
  -3   6   4    0.49    0.40
   3   6  -4   -0.01    0.36
  -3   6   4    0.40    0.41
  -3   6   4    0.58    0.44
   3   6  -4    0.95    0.71
   3   6  -4    0.01    0.38
   3   6  -4   -0.18    0.39
  -2  -6   4    0.36    0.52
   2  -6  -4    0.60    0.36
  -2  -6   4    0.50    0.51
  -2  -6   4    0.14    0.44
  -2  -6   4    0.24    0.40
   2   6  -4    0.03    0.41
   2   6  -4    0.81    0.58
   2   6  -4    0.41    0.35
   2   6  -4    0.27    0.50
  -2   6   4    1.07    0.54
  -2   6   4    0.10    0.26
   2   6  -4    0.52    0.47
  -2   6   4    0.48    0.40
  -1  -6   4   20.55    2.14
  -1  -6   4   18.08    1.97
   1  -6  -4   18.53    1.03
  -1  -6   4   16.58    1.96
  -1  -6   4   23.57    2.52
   1   6  -4   19.28    1.96
  -1   6   4   18.20    1.38
  -1   6   4   20.63    2.08
   1   6  -4   23.24    2.35
  -1   6   4   20.15    0.99
  -1   6   4   20.92    1.00
   1   6  -4   21.36    1.13
   1   6  -4   17.78    1.96
   0  -6  -4   16.18    0.96
   0  -6   4   18.03    2.00
   0  -6   4   17.11    2.05
   0  -6   4   17.17    1.96
   0  -6   4   19.01    2.12
   0   6   4   17.56    2.07
   0   6   4   17.46    1.60
   0   6   4   16.32    1.93
   0   6  -4   17.63    1.91
   0   6   4   17.10    0.89
   0   6   4   17.98    0.92
   0   6  -4   20.36    2.23
   0   6  -4   15.84    1.82
   1  -6   4   19.22    2.05
   1  -6   4   21.09    2.29
   1  -6   4   17.58    2.04
  -1  -6  -4   17.58    1.19
   1  -6   4   22.91    2.32
   1   6   4   15.43    2.02
   1   6   4   18.68    1.13
  -1   6  -4   19.46    2.03
  -1   6  -4   20.91    2.09
  -1   6  -4   23.53    2.36
   1   6   4   17.71    2.10
  -2  -6  -4   24.38    1.73
   2  -6   4   30.18    2.34
   2  -6   4   29.55    2.46
   2  -6   4   23.70    2.43
   2  -6   4   33.50    2.49
  -2   6  -4   29.45    2.21
  -2   6  -4   30.13    2.25
   2   6   4   25.58    2.82
   2   6   4   25.87    2.67
  -2   6  -4   30.79    2.41
   3  -6   4    3.23    1.15
   3  -6   4    2.78    1.15
  -3  -6  -4    1.88    0.73
   3  -6   4    4.85    1.30
   3  -6   4    2.52    1.00
   3   6   4    2.42    1.04
  -3   6  -4    2.04    0.88
  -3   6  -4    1.90    0.77
   3   6   4    2.20    1.00
  -3   6  -4    3.51    1.08
   4  -6   4    8.91    1.85
   4  -6   4    6.77    1.57
  -4  -6  -4   12.62    1.99
   4  -6   4    7.01    1.62
   4   6   4    9.33    1.88
  -4   6  -4    7.11    1.55
   4   6   4    6.97    1.40
  -4   6  -4    6.39    1.47
   4   6   4   11.56    2.16
  -4   6  -4    9.83    1.96
   5  -6   4    9.37    2.07
   5  -6   4    9.82    2.08
  -5  -6  -4   10.24    1.98
   5   6   4    8.48    1.96
   5   6   4    7.47    1.62
   5   6   4    8.92    2.10
  -5   6  -4   10.96    2.03
  -5   6  -4    6.24    1.70
  -5   6  -4    7.05    1.68
  -5  -7   4    6.67    1.67
   5   7  -4    8.45    1.82
   5   7  -4    6.29    1.59
  -5   7   4    7.87    1.61
   5   7  -4    8.84    1.97
  -5   7   4    6.59    1.44
   5   7  -4    8.15    1.69
  -4  -7   4   67.95    4.05
  -4  -7   4   66.58    4.34
   4   7  -4   65.66    3.76
  -4   7   4   68.10    3.40
   4   7  -4   69.12    4.05
  -4   7   4   64.25    3.58
   4   7  -4   73.55    4.33
   4   7  -4   69.49    3.54
  -3  -7   4  150.37    6.46
  -3  -7   4  149.04    6.11
  -3  -7   4  150.52    6.27
  -3   7   4  147.94    5.43
   3   7  -4  153.33    5.90
   3   7  -4  150.85    6.30
   3   7  -4  152.51    5.20
   3   7  -4  151.91    6.26
  -3   7   4  148.15    4.97
  -2  -7   4   57.38    3.33
  -2  -7   4   62.22    3.55
  -2  -7   4   61.06    3.38
  -2  -7   4   53.24    3.42
   2   7  -4   57.97    3.40
  -2   7   4   56.82    2.33
   2   7  -4   50.18    2.97
  -2   7   4   54.72    3.02
   2   7  -4   58.40    2.53
   2   7  -4   58.43    3.34
  -2   7   4   55.84    2.84
   2   7  -4   52.85    3.36
  -1  -7   4   22.98    2.42
   1  -7  -4   16.99    1.15
  -1  -7   4   17.85    2.21
   1  -7  -4   17.44    1.17
  -1  -7   4   17.71    2.04
  -1  -7   4   18.13    2.22
  -1   7   4   18.87    2.13
   1   7  -4   19.32    2.22
   1   7  -4   20.01    2.29
  -1   7   4   19.87    1.88
  -1   7   4   19.85    1.10
   1   7  -4   19.42    2.31
   1   7  -4   19.71    2.10
   0  -7   4   52.64    3.17
   0  -7   4   54.99    3.13
   0  -7  -4   54.32    2.23
   0  -7   4   50.65    3.12
   0  -7  -4   54.52    2.26
   0  -7   4   62.01    3.52
   0   7   4   59.03    2.79
   0   7   4   53.68    3.24
   0   7   4   57.38    3.23
   0   7  -4   50.60    3.13
   0   7  -4   51.44    3.06
   0   7   4   55.57    2.00
   0   7  -4   56.58    3.01
   1  -7   4   79.81    4.04
   1  -7   4   84.89    4.16
  -1  -7  -4   75.15    3.07
   1  -7   4   83.28    4.03
   1  -7   4   81.95    4.30
  -1   7  -4   73.20    3.70
  -1   7  -4   68.02    3.49
  -1   7  -4   68.34    3.71
   1   7   4   71.28    2.65
   1   7   4   68.97    3.87
   1   7   4   75.92    3.90
   2  -7   4   76.17    4.08
   2  -7   4   81.97    4.28
  -2  -7  -4   72.77    3.36
   2  -7   4   76.56    3.99
   2  -7   4   77.15    4.31
  -2   7  -4   71.02    3.77
   2   7   4   60.52    3.83
   2   7   4   67.50    3.82
  -2   7  -4   63.23    3.48
  -2   7  -4   67.48    3.86
   3  -7   4   69.80    4.04
  -3  -7  -4   68.47    3.58
   3  -7   4   70.50    4.41
   3  -7   4   64.99    3.96
   3   7   4   59.45    3.83
  -3   7  -4   61.92    3.64
   3   7   4   62.51    4.02
  -3   7  -4   61.80    3.83
  -3   7  -4   67.18    3.86
   4  -7   4   31.94    3.56
  -4  -7  -4   32.26    3.24
   4  -7   4   33.03    3.65
   4   7   4   29.27    3.57
  -4   7  -4   32.14    3.32
  -4   7  -4   27.89    3.14
  -4   7  -4   30.79    3.53
   4   7   4   29.25    3.48
   4   7   4   31.09    2.94
  -5  -7  -4    8.79    1.91
   5   7   4    8.27    2.02
   5   7   4    7.65    1.88
  -5   7  -4    8.67    1.93
  -5   7  -4    8.14    1.84
  -5  -8   4   10.22    2.10
  -5   8   4   13.54    2.04
   5   8  -4   14.96    2.29
   5   8  -4   10.45    2.09
   5   8  -4   10.90    2.21
  -5   8   4   15.03    2.40
  -4  -8   4   21.66    2.83
  -4  -8   4   16.59    2.68
   4   8  -4   18.96    2.70
   4   8  -4   17.50    2.61
  -4   8   4   23.79    2.35
   4   8  -4   20.14    2.47
  -4   8   4   18.86    2.37
  -3  -8   4    5.92    1.52
  -3  -8   4    4.68    1.35
   3   8  -4    3.88    1.14
  -3   8   4    4.38    1.13
   3   8  -4    4.69    1.33
  -3   8   4    3.27    0.82
   3   8  -4    2.87    1.04
   2  -8  -4    8.97    1.25
  -2  -8   4    7.29    1.65
  -2  -8   4    8.05    1.64
  -2  -8   4    7.21    1.50
  -2   8   4    5.18    1.21
   2   8  -4    6.99    1.35
  -2   8   4    6.67    0.95
   2   8  -4    4.70    1.31
  -2   8   4    4.19    1.00
   2   8  -4    4.05    1.22
   2   8  -4    8.51    1.62
  -1  -8   4   18.91    2.44
  -1  -8   4   18.42    2.37
  -1  -8   4   16.60    2.17
   1  -8  -4   22.06    1.53
   1   8  -4   22.86    2.60
  -1   8   4   18.48    1.20
   1   8  -4   20.22    2.27
   1   8  -4   20.53    2.48
   1   8  -4   21.36    2.68
  -1   8   4   21.66    2.11
  -1   8   4   19.61    2.39
   0  -8   4    6.16    1.36
   0  -8   4    4.83    1.26
   0  -8  -4    5.14    0.85
   0  -8   4    5.34    1.32
   0   8  -4    2.63    0.99
   0   8   4    4.59    1.27
   0   8   4    5.09    1.33
   0   8  -4    4.41    1.19
   0   8   4    5.82    1.12
   0   8   4    6.33    0.81
   0   8  -4    6.58    1.50
   1  -8   4   -0.30    0.47
  -1  -8  -4   -0.13    0.30
   1  -8   4    0.59    0.53
   1  -8   4    0.09    0.59
  -1   8  -4    0.12    0.58
  -1   8  -4   -0.02    0.48
   1   8   4    0.38    0.34
  -1   8  -4    0.39    0.51
   1   8   4    0.32    0.58
   1   8   4    0.52    0.64
  -1   8  -4   -0.11    0.52
   2  -8   4    0.31    0.64
   2  -8   4    0.74    0.71
  -2  -8  -4    0.29    0.45
   2  -8   4    0.58    0.67
  -2   8  -4    0.11    0.53
  -2   8  -4   -0.04    0.52
   2   8   4    0.19    0.56
  -2   8  -4    0.67    0.60
  -2   8  -4   -0.31    0.42
   2   8   4    0.14    0.62
   3  -8   4    6.88    1.64
  -3  -8  -4    5.69    1.23
   3  -8   4    5.37    1.56
   3  -8   4    6.73    1.68
  -3   8  -4    7.32    1.66
  -3   8  -4    7.90    1.54
   3   8   4    8.43    1.87
  -3   8  -4    7.19    1.59
   3   8   4    7.57    1.87
  -3   8  -4    7.25    1.56
   4  -8   4   15.81    2.51
  -4  -8  -4   15.06    2.24
   4  -8   4   19.12    2.76
  -4   8  -4   10.96    2.22
   4   8   4   15.09    2.57
  -4   8  -4   13.86    2.39
   4   8   4   14.68    2.57
  -4   8  -4   16.17    2.33
   4  -9  -4    6.17    1.46
  -4  -9   4    7.08    1.72
  -4   9   4    9.24    1.51
  -4   9   4    9.56    1.83
   4   9  -4   12.14    2.34
   4   9  -4    9.53    1.81
   4   9  -4    7.27    1.84
  -3  -9   4   36.01    3.76
   3  -9  -4   35.35    2.57
  -3  -9   4   40.37    3.90
   3   9  -4   29.91    3.36
   3   9  -4   34.62    2.75
   3   9  -4   35.99    3.81
  -3   9   4   33.27    2.18
  -3   9   4   39.35    2.83
  -2  -9   4   54.71    3.57
  -2  -9   4   51.89    3.76
  -2  -9   4   51.53    3.52
   2  -9  -4   51.66    2.86
   2   9  -4   43.75    3.47
  -2   9   4   42.76    2.84
   2   9  -4   43.93    2.97
  -2   9   4   43.65    3.00
   2   9  -4   47.39    3.42
  -2   9   4   45.79    2.27
   2   9  -4   43.88    3.29
   1  -9  -4   39.90    2.33
  -1  -9   4   44.54    3.20
  -1  -9   4   44.89    3.39
  -1  -9   4   43.92    3.15
   1   9  -4   37.86    3.64
  -1   9   4   38.95    2.97
   1   9  -4   45.24    3.25
   1   9  -4   40.31    2.76
  -1   9   4   38.11    2.65
  -1   9   4   46.69    2.09
   1   9  -4   38.29    3.15
   0  -9   4   60.42    3.81
   0  -9  -4   59.72    2.89
   0  -9   4   63.04    3.80
   0  -9   4   66.09    4.10
   0   9  -4   75.57    4.25
   0   9  -4   61.39    4.04
   0   9   4   64.39    4.06
   0   9   4   72.47    2.74
   0   9   4   70.64    3.63
   0   9  -4   61.53    3.86
   0   9  -4   65.67    3.63
   1  -9   4   53.25    3.55
   1  -9   4   56.44    3.68
   1  -9   4   55.75    3.92
  -1  -9  -4   49.79    2.78
   1   9   4   47.86    2.36
  -1   9  -4   44.36    2.94
   1   9   4   46.36    3.38
   1   9   4   51.63    3.66
  -1   9  -4   50.17    3.55
  -1   9  -4   49.36    3.42
  -1   9  -4   54.13    3.59
  -2  -9  -4   28.78    2.29
   2  -9   4   29.35    3.35
   2  -9   4   29.75    3.29
   2  -9   4   33.03    3.72
   2   9   4   24.05    3.01
  -2   9  -4   29.09    3.26
  -2   9  -4   27.82    2.94
  -2   9  -4   24.91    2.99
   2   9   4   30.34    3.66
  -2   9  -4   26.37    3.06
   3  -9   4   22.38    3.09
  -3  -9  -4   16.92    2.23
   3  -9   4   18.96    2.71
  -3   9  -4   19.21    2.75
   3   9   4   15.15    2.49
   3   9   4   20.68    3.18
  -3   9  -4   14.96    2.15
  -3   9  -4   20.18    2.78
  -3   9  -4   16.07    2.45
  -3 -10   4   15.46    2.58
   3 -10  -4    8.75    1.59
  -3 -10   4    9.47    2.06
   3  10  -4   10.34    1.85
  -3  10   4    7.67    1.33
   3  10  -4    6.78    1.81
  -3  10   4    7.85    1.71
   3  10  -4    7.40    1.80
  -2 -10   4    5.00    1.49
  -2 -10   4    4.93    1.49
   2 -10  -4    5.95    1.27
  -2 -10   4    6.70    1.72
   2  10  -4    5.47    1.34
   2  10  -4    3.55    1.30
  -2  10   4    5.18    0.96
  -2  10   4    6.24    1.47
   2  10  -4    6.51    1.66
  -2  10   4    6.33    1.53
   2  10  -4    2.67    1.24
  -1 -10   4    6.69    1.62
   1 -10  -4    7.67    1.37
  -1 -10   4    9.32    1.93
  -1 -10   4    8.46    1.84
  -1  10   4   10.50    1.77
  -1  10   4    9.22    1.15
   1  10  -4    7.54    1.79
  -1  10   4    8.14    1.73
   1  10  -4    9.68    1.69
   1  10  -4   10.45    2.02
   1  10  -4    5.65    1.64
   0 -10   4    0.70    0.88
   0 -10   4    1.56    0.97
   0 -10  -4    2.59    0.83
   0 -10   4    1.82    0.97
   0  10  -4    0.74    0.75
   0  10  -4    0.28    0.76
   0  10  -4    1.00    0.95
   0  10   4    1.56    0.86
   0  10   4    0.70    0.47
   0  10  -4    0.86    0.85
   0  10   4    2.48    1.14
  -1 -10  -4    2.10    0.80
   1 -10   4    0.92    0.91
   1 -10   4    1.07    0.82
   1 -10   4    2.94    1.24
   1  10   4    1.55    1.13
   1  10   4    2.56    0.76
  -1  10  -4    1.50    0.94
  -1  10  -4    1.26    0.82
  -1  10  -4    0.97    0.91
   1  10   4    1.68    1.00
  -1  10  -4    1.51    1.15
   2 -10   4    9.27    1.98
   2 -10   4    6.87    1.74
   2 -10   4    7.43    2.02
  -2 -10  -4    7.12    1.50
  -2  10  -4    4.71    1.51
   2  10   4    4.66    1.48
  -2  10  -4    4.48    1.45
  -2  10  -4    3.92    1.14
   2  10   4    6.50    1.86
  -2  10  -4    4.64    1.41
  -1 -11   4   31.41    3.70
  -1 -11   4   40.48    4.00
  -1 -11   4   41.92    4.33
   1 -11  -4   40.26    2.78
  -1  11   4   34.31    2.03
   1  11  -4   32.81    3.73
  -1  11   4   32.72    3.35
   1  11  -4   31.38    3.74
  -1  11   4   32.81    3.63
   1  11  -4   32.30    3.08
   1  11  -4   33.47    3.79
   0 -11   4   21.88    3.03
   0 -11   4   24.91    3.36
   0 -11   4   29.80    3.47
   0 -11  -4   26.35    2.62
   0  11   4   24.68    1.74
   0  11  -4   19.85    3.03
   0  11  -4   28.35    2.90
   0  11  -4   26.24    3.36
   0  11   4   20.47    2.88
   0  11   4   28.43    3.60
   0  11  -4   23.45    3.09
   7   0  -5    4.02    1.37
  -7   0   5    2.00    0.99
  -7   0   5    2.00    1.11
  -7   0   5    2.14    1.03
  -6   0   5    3.34    1.11
  -6   0   5    3.47    1.09
   6   0  -5    3.68    1.20
  -6   0   5    3.73    1.07
  -5   0   5  108.71    4.45
  -5   0   5  102.05    4.41
   5   0  -5  109.01    4.69
  -5   0   5  100.70    4.71
  -4   0   5  161.50    5.75
  -4   0   5  166.38    5.41
   4   0  -5  169.05    5.69
  -3   0   5   14.30    1.55
   3   0  -5   12.07    1.36
   3   0  -5   18.04    1.82
  -3   0   5   10.53    1.20
   3   0  -5   13.00    1.40
  -2   0   5   60.59    2.28
  -2   0   5   57.52    2.46
   2   0  -5   60.10    2.42
   2   0  -5   63.78    2.49
   2   0  -5   62.11    2.58
   1   0  -5  572.55   13.11
  -1   0   5  556.48   13.18
   1   0  -5  564.22   13.11
   1   0  -5  567.51   13.78
   1   0  -5  573.21   13.82
  -1   0   5  584.75   12.84
   0   0  -5  152.31    4.24
   0   0   5  147.75    4.01
   0   0  -5  149.54    3.47
   0   0   5  148.62    4.04
   0   0   5  145.95    4.33
   0   0  -5  154.21    4.53
   0   0  -5  143.44    4.22
   0   0  -5  147.34    4.41
  -1   0  -5   56.62    2.28
   1   0   5   50.64    2.29
  -1   0  -5   52.87    2.28
  -1   0  -5   52.81    2.34
  -1   0  -5   55.73    1.87
   1   0   5   52.56    1.95
  -1   0  -5   57.67    2.48
   1   0   5   56.67    2.19
   1   0   5   58.56    2.22
  -2   0  -5  194.57    5.16
  -2   0  -5  188.14    5.73
   2   0   5  178.46    5.72
   2   0   5  178.23    5.44
  -2   0  -5  181.62    5.88
   2   0   5  185.54    5.22
   2   0   5  186.19    5.45
  -2   0  -5  186.06    5.63
  -3   0  -5   51.18    2.82
  -3   0  -5   45.79    2.74
   3   0   5   51.64    2.46
   3   0   5   57.70    2.77
  -3   0  -5   56.11    2.58
   3   0   5   47.98    2.56
   3   0   5   53.19    2.93
  -3   0  -5   52.89    2.75
  -4   0  -5   -0.15    0.39
  -4   0  -5    0.14    0.50
  -4   0  -5    0.41    0.49
   4   0   5    0.04    0.44
   4   0   5    0.21    0.49
   4   0   5    0.04    0.46
   4   0   5    0.23    0.47
  -5   0  -5    2.19    1.06
   5   0   5    1.45    0.82
   5   0   5    2.13    0.87
  -5   0  -5    4.06    1.24
  -5   0  -5    4.68    1.20
   5   0   5    2.68    1.13
   6   0   5   43.51    4.44
   6   0   5   31.49    3.51
   6   0   5   41.64    3.93
  -6   0  -5   37.24    3.55
   6   0   5   39.47    2.99
  -6   0  -5   44.92    4.21
  -7  -1   5   16.86    2.78
  -7  -1   5   14.49    2.40
  -7  -1   5   13.67    2.39
   7  -1  -5   14.41    2.37
   7   1  -5   12.68    2.30
  -7   1   5   18.52    2.46
  -7   1   5   13.39    2.15
  -7   1   5   18.86    2.85
   6  -1  -5   27.78    2.90
  -6  -1   5   23.01    2.65
  -6  -1   5   19.40    2.60
  -6   1   5   25.39    2.59
   6   1  -5   23.96    2.79
  -6   1   5   28.61    3.15
  -6   1   5   21.52    2.51
   5  -1  -5   17.09    2.01
  -5  -1   5   15.67    2.17
  -5  -1   5   16.67    2.01
  -5   1   5   14.54    1.76
  -5   1   5   15.81    1.90
  -5   1   5   17.22    2.16
   5   1  -5   22.47    2.46
  -4  -1   5   23.56    1.81
   4  -1  -5   28.60    1.97
  -4  -1   5   28.41    2.12
  -4   1   5   27.20    1.76
  -4   1   5   25.52    1.95
   4   1  -5   29.74    1.62
  -4   1   5   27.90    1.85
   4   1  -5   29.41    2.12
   4   1  -5   29.64    2.08
   3  -1  -5    8.34    1.13
  -3  -1   5   10.37    1.30
  -3  -1   5   10.00    1.33
  -3  -1   5    8.40    1.21
   3  -1  -5   12.35    1.42
  -3   1   5    9.83    1.06
   3   1  -5   11.24    1.41
  -3   1   5    8.58    1.13
   3   1  -5    9.76    1.29
  -3   1   5    8.89    1.06
  -2  -1   5   14.77    1.12
  -2  -1   5   14.38    1.16
  -2  -1   5   11.39    1.28
   2  -1  -5   16.14    1.11
   2  -1  -5   15.02    1.01
   2  -1  -5   16.16    1.05
  -2   1   5   13.44    0.84
   2   1  -5   15.54    1.49
  -2   1   5   14.30    1.03
   2   1  -5   12.80    1.36
  -2   1   5   13.47    0.79
   1  -1  -5   29.45    1.29
   1  -1  -5   31.15    1.36
  -1  -1   5   28.68    1.62
   1  -1  -5   28.49    1.33
  -1  -1   5   29.47    1.51
  -1  -1   5   28.14    1.53
   1   1  -5   33.71    1.76
  -1   1   5   31.74    1.39
   1   1  -5   28.73    1.59
   1   1  -5   29.75    1.59
  -1   1   5   30.34    0.84
  -1   1   5   29.24    1.33
   1   1  -5   29.22    1.66
  -1   1   5   29.72    0.86
  -1   1   5   29.73    0.84
  -1   1   5   29.74    0.85
   0  -1  -5    3.63    0.53
   0  -1   5    3.08    0.57
   0  -1  -5    4.08    0.58
   0  -1   5    2.68    0.51
   0  -1   5    4.13    0.72
   0  -1   5    4.20    0.72
   0  -1  -5    3.37    0.50
   0   1  -5    3.70    0.69
   0   1  -5    3.04    0.65
   0   1  -5    3.49    0.50
   0   1   5    3.01    0.27
   0   1   5    2.75    0.48
   0   1   5    2.37    0.47
   0   1  -5    2.73    0.58
   0   1   5    3.39    0.60
   0   1   5    2.91    0.23
   0   1  -5    3.09    0.64
   1  -1   5   23.66    1.52
  -1  -1  -5   26.60    1.39
   1  -1   5   23.39    1.45
  -1  -1  -5   22.23    1.27
   1  -1   5   22.38    1.35
   1  -1   5   23.31    1.20
  -1  -1  -5   25.60    1.06
  -1  -1  -5   21.71    1.33
   1  -1   5   23.01    1.55
  -1  -1  -5   26.73    1.46
  -1   1  -5   23.31    1.22
  -1   1  -5   24.55    1.50
   1   1   5   25.19    1.50
   1   1   5   23.20    1.12
   1   1   5   23.42    1.71
  -1   1  -5   22.45    1.48
  -1   1  -5   21.16    1.50
   1   1   5   21.52    1.32
   2  -1   5   58.92    2.88
  -2  -1  -5   55.16    2.52
   2  -1   5   58.87    2.54
   2  -1   5   61.49    2.44
  -2  -1  -5   60.49    2.60
  -2  -1  -5   64.65    2.36
  -2  -1  -5   54.82    2.63
   2  -1   5   57.49    2.80
   2  -1   5   57.64    2.67
  -2   1  -5   62.52    2.53
   2   1   5   61.00    2.75
   2   1   5   55.93    2.66
   2   1   5   63.28    3.14
  -2   1  -5   68.99    2.94
  -2   1  -5   68.21    2.99
  -2   1  -5   61.29    2.98
   2   1   5   64.90    2.22
   2   1   5   60.33    2.44
  -3  -1  -5  107.57    3.77
   3  -1   5  105.71    4.20
  -3  -1  -5   97.17    4.04
   3  -1   5  103.55    3.97
   3  -1   5   97.56    4.31
  -3  -1  -5  102.12    4.28
  -3   1  -5  104.43    4.58
  -3   1  -5  111.59    4.52
  -3   1  -5  112.98    4.08
  -3   1  -5  106.30    4.38
   3   1   5  112.98    4.07
   3   1   5  123.93    4.59
   3   1   5  111.37    3.76
   3   1   5  111.68    4.36
  -4  -1  -5    9.45    1.40
   4  -1   5   11.06    1.66
   4  -1   5   12.56    1.97
  -4  -1  -5    6.97    1.42
  -4  -1  -5   11.76    1.69
   4  -1   5    8.24    1.44
  -4   1  -5    9.24    1.54
   4   1   5    8.10    1.52
   4   1   5   11.41    1.78
   4   1   5   10.82    1.44
   4   1   5    7.33    1.26
  -4   1  -5    8.65    1.61
  -4   1  -5    8.81    1.41
  -4   1  -5    8.91    1.68
  -5  -1  -5    7.55    1.69
   5  -1   5    9.30    1.77
  -5  -1  -5    7.05    1.38
  -5  -1  -5    7.66    1.56
   5  -1   5   10.55    1.79
   5  -1   5    7.09    1.65
  -5   1  -5    8.44    1.67
  -5   1  -5    6.42    1.57
  -5   1  -5    6.24    1.39
   5   1   5    7.72    1.43
   5   1   5    8.23    1.74
   5   1   5    5.14    1.34
   5   1   5    8.14    1.59
   6  -1   5   21.54    2.87
  -6  -1  -5   26.63    3.42
  -6  -1  -5   21.34    2.75
   6  -1   5   18.66    2.49
  -6  -1  -5   22.68    2.93
   6  -1   5   22.74    3.15
  -6   1  -5   22.12    2.71
  -6   1  -5   20.92    2.86
   6   1   5   20.14    2.59
   6   1   5   23.70    3.05
   6   1   5   21.97    3.08
   6   1   5   21.55    2.50
   7  -2  -5   45.14    4.28
  -7  -2   5   39.09    3.79
  -7  -2   5   49.45    3.91
   7   2  -5   49.75    3.77
  -7   2   5   47.45    3.20
  -7   2   5   46.75    3.72
  -7   2   5   39.94    3.82
  -6  -2   5   44.38    3.20
   6  -2  -5   53.22    3.47
  -6  -2   5   56.68    3.88
   6   2  -5   45.57    3.28
  -6   2   5   48.58    3.20
  -6   2   5   41.52    2.73
  -6   2   5   44.96    3.25
  -5  -2   5   26.31    2.87
   5  -2  -5   23.81    2.41
  -5  -2   5   22.50    2.40
   5   2  -5   30.50    3.02
  -5   2   5   28.32    2.15
  -5   2   5   32.09    2.41
  -5   2   5   30.58    2.06
   5   2  -5   32.55    2.52
  -4  -2   5   99.20    4.18
  -4  -2   5   93.85    4.31
   4  -2  -5   99.90    3.95
  -4   2   5  110.31    4.34
   4   2  -5  116.60    4.80
  -4   2   5  110.95    4.12
   4   2  -5  126.22    4.80
   4   2  -5  110.42    4.06
  -4   2   5  118.85    3.96
  -3  -2   5   96.47    4.01
   3  -2  -5   99.81    3.70
  -3  -2   5  100.69    4.07
   3  -2  -5   99.56    3.49
  -3  -2   5   96.46    3.82
  -3   2   5   95.31    3.48
  -3   2   5   98.39    3.30
   3   2  -5   92.12    3.83
   3   2  -5   90.26    3.73
  -3   2   5   93.65    2.90
  -2  -2   5  179.84    5.73
   2  -2  -5  176.33    4.83
  -2  -2   5  185.48    5.58
   2  -2  -5  181.56    5.11
  -2  -2   5  193.56    5.92
  -2   2   5  153.93    4.36
   2   2  -5  156.97    5.04
  -2   2   5  154.10    4.05
  -2   2   5  153.96    4.35
   2   2  -5  160.16    5.10
  -1  -2   5  172.52    5.22
   1  -2  -5  175.07    4.31
  -1  -2   5  168.42    5.07
  -1  -2   5  188.46    5.53
   1  -2  -5  178.22    4.47
   1  -2  -5  174.68    4.46
  -1  -2   5  182.88    5.55
   1   2  -5  186.44    5.61
  -1   2   5  189.75    4.64
   1   2  -5  191.27    5.07
   1   2  -5  189.15    5.57
  -1   2   5  178.89    5.71
   1   2  -5  194.80    5.91
  -1   2   5  191.67    4.07
  -1   2   5  187.91    4.64
   0  -2   5  146.08    4.64
   0  -2   5  153.98    4.88
   0  -2   5  156.00    4.86
   0  -2  -5  150.76    3.88
   0  -2  -5  144.36    3.70
   0  -2  -5  148.91    3.84
   0  -2   5  138.62    4.41
   0   2   5  163.94    4.08
   0   2  -5  163.31    4.45
   0   2  -5  161.14    5.20
   0   2  -5  162.66    5.00
   0   2   5  160.02    5.38
   0   2  -5  160.07    5.04
   0   2   5  163.33    4.11
   0   2   5  160.39    4.86
  -1  -2  -5   75.57    2.17
   1  -2   5   66.66    2.92
   1  -2   5   72.44    2.94
  -1  -2  -5   79.71    2.54
  -1  -2  -5   74.56    2.62
   1  -2   5   67.79    3.06
   1  -2   5   73.07    3.18
   1  -2   5   76.60    2.24
  -1   2  -5   68.18    2.96
   1   2   5   70.42    2.45
   1   2   5   70.21    2.47
  -1   2  -5   64.23    3.00
   1   2   5   75.55    3.00
  -1   2  -5   66.66    2.56
   1   2   5   70.58    3.27
  -1   2  -5   66.62    2.88
  -2  -2  -5  124.72    3.75
   2  -2   5  124.68    4.36
  -2  -2  -5  124.24    4.09
   2  -2   5  123.83    4.51
   2  -2   5  122.23    4.67
  -2  -2  -5  120.40    4.27
   2  -2   5  128.92    4.81
  -2   2  -5  137.63    4.79
   2   2   5  134.73    4.45
   2   2   5  137.25    5.22
  -2   2  -5  134.56    4.32
   2   2   5  132.48    3.84
  -2   2  -5  131.61    4.83
   2   2   5  130.70    4.69
  -2   2  -5  132.74    5.01
   3  -2   5   66.32    3.55
   3  -2   5   64.95    3.29
  -3  -2  -5   70.72    3.17
  -3  -2  -5   61.58    3.18
  -3  -2  -5   68.05    2.88
   3  -2   5   62.16    3.10
   3   2   5   70.40    2.52
  -3   2  -5   74.31    3.50
   3   2   5   67.22    2.84
   3   2   5   71.75    3.47
   3   2   5   71.15    3.71
  -3   2  -5   70.05    3.19
  -3   2  -5   71.82    3.68
   3   2   5   73.54    3.41
   4  -2   5   34.82    3.39
   4  -2   5   36.42    2.55
  -4  -2  -5   34.87    2.59
  -4  -2  -5   31.09    2.18
   4  -2   5   34.69    2.62
  -4  -2  -5   43.88    2.72
   4   2   5   35.02    1.93
   4   2   5   33.11    2.50
  -4   2  -5   27.48    2.14
  -4   2  -5   31.86    2.65
  -4   2  -5   32.33    3.16
   4   2   5   32.56    2.15
   4   2   5   32.48    3.03
   4   2   5   38.38    2.76
  -4   2  -5   34.33    2.53
   5  -2   5   51.56    3.65
  -5  -2  -5   41.58    2.82
   5  -2   5   46.02    3.33
  -5  -2  -5   44.68    3.34
  -5  -2  -5   40.56    3.05
   5  -2   5   40.51    3.03
   5   2   5   42.65    2.55
   5   2   5   44.27    2.87
  -5   2  -5   41.47    3.15
  -5   2  -5   40.98    2.91
   5   2   5   45.89    3.28
   5   2   5   46.29    3.36
  -6  -2  -5   25.31    3.18
  -6  -2  -5   23.61    3.23
  -6  -2  -5   27.85    3.08
   6  -2   5   31.55    3.49
   6  -2   5   31.19    3.75
   6   2   5   28.78    3.00
   6   2   5   34.34    3.86
  -6   2  -5   36.02    3.72
  -6   2  -5   27.24    3.11
   6   2   5   30.05    3.56
   6   2   5   31.52    2.45
  -7   3   5    1.21    0.93
  -7   3   5    0.87    0.76
  -6  -3   5   -0.12    0.67
   6  -3  -5    1.11    0.76
  -6  -3   5    0.21    0.58
  -6   3   5   -0.12    0.57
   6   3  -5    0.61    0.70
  -6   3   5   -0.06    0.41
  -6   3   5   -0.28    0.53
   5  -3  -5   22.23    2.41
  -5  -3   5   19.09    2.36
  -5  -3   5   15.90    2.26
  -5   3   5   18.94    1.82
   5   3  -5   13.87    2.05
  -5   3   5   18.86    2.17
  -5   3   5   21.32    2.40
   5   3  -5   18.56    2.33
  -4  -3   5   30.83    2.30
  -4  -3   5   30.67    2.93
   4  -3  -5   32.56    2.10
   4   3  -5   28.12    2.69
   4   3  -5   29.73    2.00
   4   3  -5   30.20    2.30
  -4   3   5   30.73    1.97
  -4   3   5   30.30    2.04
  -4   3   5   28.37    1.54
  -3  -3   5    4.43    1.01
   3  -3  -5    4.26    0.78
  -3  -3   5    5.45    1.06
  -3  -3   5    6.45    1.24
   3  -3  -5    6.50    0.92
   3   3  -5    6.46    1.12
  -3   3   5    5.01    0.83
   3   3  -5    3.82    0.92
  -3   3   5    5.74    0.90
  -3   3   5    5.02    0.39
   2  -3  -5   13.02    0.87
  -2  -3   5   16.39    1.80
  -2  -3   5   14.02    1.62
  -2  -3   5   13.50    1.53
   2  -3  -5   13.08    0.87
   2   3  -5   11.54    1.46
  -2   3   5   11.89    0.84
   2   3  -5   11.13    1.41
  -2   3   5   13.28    0.88
  -2   3   5   14.21    1.45
  -2   3   5   13.63    0.87
  -1  -3   5    3.27    0.72
  -1  -3   5    2.88    0.74
  -1  -3   5    4.13    0.90
  -1  -3   5    2.80    0.70
  -1   3   5    3.24    0.32
   1   3  -5    2.27    0.57
   1   3  -5    2.67    0.72
  -1   3   5    2.68    0.30
  -1   3   5    2.43    0.35
   1   3  -5    3.53    0.76
   1   3  -5    2.77    0.72
  -1   3   5    2.68    0.72
   0  -3   5   19.47    1.52
   0  -3   5   25.72    1.74
   0  -3   5   22.82    1.66
   0  -3   5   23.28    1.55
   0   3   5   24.05    1.63
   0   3  -5   26.03    1.69
   0   3  -5   24.88    1.74
   0   3   5   24.38    0.86
   0   3  -5   24.50    1.76
   0   3   5   24.49    1.77
   0   3   5   25.63    0.89
   0   3  -5   22.98    1.44
  -1  -3  -5   29.26    1.39
   1  -3   5   26.75    1.81
   1  -3   5   31.31    2.07
   1  -3   5   28.21    1.82
  -1  -3  -5   29.53    1.35
   1  -3   5   28.53    1.96
   1  -3   5   30.09    1.04
  -1   3  -5   27.09    1.63
   1   3   5   25.76    1.27
  -1   3  -5   21.86    1.74
   1   3   5   25.89    1.28
   1   3   5   26.33    1.80
  -1   3  -5   28.86    1.92
  -1   3  -5   26.63    1.78
   1   3   5   25.54    1.93
   2  -3   5    5.15    1.04
   2  -3   5    4.96    1.04
   2  -3   5    5.24    1.06
  -2  -3  -5    5.91    0.89
   2  -3   5    4.74    1.06
  -2  -3  -5    3.62    0.73
   2   3   5    7.07    0.53
   2   3   5    5.85    0.95
  -2   3  -5    8.55    1.21
  -2   3  -5    7.10    1.17
  -2   3  -5    6.21    1.19
  -2   3  -5    7.41    1.25
   2   3   5    6.84    1.35
   2   3   5    8.58    1.31
   3  -3   5   17.03    2.01
   3  -3   5   16.35    2.06
   3  -3   5   15.49    1.91
  -3  -3  -5   20.84    1.73
  -3  -3  -5   18.51    1.85
  -3   3  -5   20.72    2.23
   3   3   5   20.93    2.41
   3   3   5   22.65    2.42
  -3   3  -5   21.63    2.39
   3   3   5   24.58    1.84
   3   3   5   21.61    1.37
  -3   3  -5   20.32    1.99
  -3   3  -5   19.81    2.27
  -4  -3  -5   62.68    3.18
  -4  -3  -5   62.22    3.39
   4  -3   5   58.85    3.59
  -4  -3  -5   64.45    3.62
   4  -3   5   62.75    3.50
   4  -3   5   61.18    3.85
   4   3   5   54.47    3.28
   4   3   5   61.26    2.87
   4   3   5   54.15    3.49
   4   3   5   59.26    2.35
  -4   3  -5   51.28    3.10
  -4   3  -5   55.58    3.40
  -4   3  -5   59.64    3.73
   4   3   5   57.31    3.48
  -4   3  -5   61.10    3.67
  -5  -3  -5   30.30    3.23
   5  -3   5   33.70    3.42
   5  -3   5   37.33    3.65
   5  -3   5   40.22    4.10
  -5  -3  -5   33.31    3.04
  -5  -3  -5   35.74    2.83
   5   3   5   31.43    3.32
   5   3   5   32.08    3.35
  -5   3  -5   27.97    2.89
   5   3   5   32.11    3.41
   5   3   5   31.34    1.94
  -5   3  -5   26.94    3.02
   5   3   5   33.86    2.39
  -5   3  -5   32.11    3.49
  -6  -3  -5   11.70    2.01
  -6   3  -5    7.69    1.79
   6   3   5    7.64    1.91
  -6  -4   5   21.76    2.78
  -6  -4   5   25.92    3.32
  -6   4   5   25.74    2.84
  -6   4   5   21.66    2.67
   6   4  -5   19.04    2.66
  -6   4   5   26.70    1.94
   6   4  -5   23.32    2.84
  -5  -4   5   47.09    3.39
  -5  -4   5   50.05    3.37
   5   4  -5   46.07    2.80
   5   4  -5   45.01    3.17
  -5   4   5   48.72    2.90
   5   4  -5   45.39    3.32
  -5   4   5   47.51    2.27
  -5   4   5   45.45    2.89
  -4  -4   5   73.93    3.79
  -4  -4   5   71.40    3.92
  -4   4   5   68.82    3.17
   4   4  -5   67.64    3.36
   4   4  -5   68.92    3.74
  -4   4   5   60.95    2.97
  -4   4   5   65.12    2.23
   4   4  -5   64.44    3.54
  -3  -4   5  178.62    6.41
  -3  -4   5  177.38    6.53
  -3  -4   5  181.79    6.28
  -3   4   5  173.58    5.06
  -3   4   5  166.80    4.96
  -3   4   5  159.36    4.95
   3   4  -5  158.91    5.76
   3   4  -5  170.23    6.03
  -2  -4   5  229.73    7.38
  -2  -4   5  242.01    7.68
  -2  -4   5  235.25    7.25
   2  -4  -5  236.02    6.13
  -2   4   5  257.76    6.21
  -2   4   5  255.69    6.39
  -2   4   5  243.96    7.22
   2   4  -5  247.99    7.60
  -2   4   5  246.33    6.15
   2   4  -5  252.17    7.69
  -1  -4   5  105.85    4.11
  -1  -4   5  110.33    4.21
  -1  -4   5  118.56    4.54
  -1  -4   5  104.27    4.26
   1   4  -5  112.70    4.50
  -1   4   5  116.80    3.20
  -1   4   5  117.13    4.35
   1   4  -5  107.19    4.29
   1   4  -5  112.82    4.26
   1   4  -5  109.27    4.01
   0  -4   5  271.76    8.02
   0  -4   5  277.31    7.93
   0  -4   5  268.99    8.34
   0  -4   5  286.69    8.21
   0   4  -5  259.07    7.82
   0   4  -5  249.15    6.94
   0   4   5  251.09    7.36
   0   4  -5  245.08    7.34
   0   4  -5  247.29    7.53
   0   4   5  245.71    7.77
   1  -4   5  236.66    7.34
   1  -4   5  249.89    7.97
   1  -4   5  250.65    7.70
   1  -4   5  250.75    7.52
  -1  -4  -5  246.24    6.41
   1   4   5  230.48    7.80
  -1   4  -5  244.93    7.75
  -1   4  -5  248.16    7.61
  -1   4  -5  245.71    6.95
   1   4   5  237.73    7.33
   1   4   5  246.17    6.07
   1   4   5  243.05    6.06
  -1   4  -5  247.21    7.43
   2  -4   5   89.57    3.87
  -2  -4  -5   84.67    3.34
   2  -4   5   85.94    4.05
   2  -4   5   89.53    4.20
   2  -4   5   89.09    3.99
  -2   4  -5  100.85    4.28
  -2   4  -5   99.97    4.05
   2   4   5  101.59    4.65
   2   4   5  106.06    4.43
  -2   4  -5  106.07    4.48
   2   4   5  106.32    3.67
  -2   4  -5  104.15    4.57
   3  -4   5   16.09    2.04
   3  -4   5   24.92    2.75
  -3  -4  -5   15.93    1.84
   3   4   5   30.47    2.06
   3   4   5   20.93    2.42
  -3   4  -5   24.36    2.46
  -3   4  -5   29.07    2.95
  -3   4  -5   24.43    2.35
   3   4   5   27.48    1.36
  -3   4  -5   23.13    2.56
   3   4   5   21.63    2.50
   4  -4   5   53.09    3.50
   4  -4   5   54.63    3.69
  -4  -4  -5   52.06    3.27
   4  -4   5   50.37    3.31
   4   4   5   51.79    2.47
  -4   4  -5   44.32    3.27
   4   4   5   49.95    3.09
  -4   4  -5   45.05    3.10
   4   4   5   52.03    3.49
   4   4   5   48.84    3.35
  -4   4  -5   49.00    3.13
  -5  -4  -5   52.83    3.72
   5  -4   5   47.78    4.59
  -5  -4  -5   50.78    3.26
   5  -4   5   57.29    3.76
   5  -4   5   53.07    3.82
   5   4   5   53.15    3.59
  -5   4  -5   49.76    3.41
   5   4   5   53.26    3.75
  -5   4  -5   46.05    3.61
  -5   4  -5   50.22    3.58
   5   4   5   49.49    2.83
   5   4   5   53.49    3.78
  -6  -5   5   12.23    2.36
   6   5  -5   10.19    2.05
  -6   5   5   12.16    2.01
  -6   5   5   12.80    2.05
   6   5  -5   14.32    2.39
  -5  -5   5    1.06    0.86
  -5  -5   5    2.81    1.11
  -5   5   5    2.50    0.90
   5   5  -5    2.07    0.91
   5   5  -5    2.13    1.10
   5   5  -5    4.12    1.24
  -5   5   5    3.28    0.97
  -4  -5   5   -0.17    0.47
  -4  -5   5    0.30    0.59
   4   5  -5    0.38    0.57
  -4   5   5   -0.06    0.39
   4   5  -5    0.39    0.55
   4   5  -5    1.00    0.74
  -4   5   5    0.44    0.43
  -3  -5   5   10.16    1.65
  -3  -5   5    8.15    1.51
  -3  -5   5   10.80    1.69
   3   5  -5    8.78    1.54
  -3   5   5    8.34    1.07
   3   5  -5    9.63    1.23
  -3   5   5    8.43    1.20
   3   5  -5   10.07    1.54
  -3   5   5   10.44    1.29
   3   5  -5   10.48    1.68
  -2  -5   5   19.37    2.11
  -2  -5   5   20.84    2.27
  -2  -5   5   20.32    2.24
   2  -5  -5   20.46    1.13
  -2  -5   5   21.45    2.20
  -2   5   5   20.95    1.07
  -2   5   5   22.63    1.13
   2   5  -5   17.14    1.95
   2   5  -5   20.18    1.19
  -2   5   5   22.58    1.69
   2   5  -5   23.99    2.37
  -2   5   5   22.99    1.43
  -1  -5   5    3.94    0.95
  -1  -5   5    7.57    1.32
  -1  -5   5    6.77    1.25
  -1  -5   5    6.35    1.16
   1   5  -5    4.42    1.02
   1   5  -5    5.69    1.08
  -1   5   5    4.07    0.96
   1   5  -5    5.55    1.11
  -1   5   5    5.69    0.78
   0  -5   5   52.24    2.82
   0  -5   5   54.56    2.96
   0  -5   5   53.72    3.04
   0  -5   5   53.61    2.96
   0   5   5   54.82    3.11
   0   5  -5   56.84    3.06
   0   5   5   54.80    2.96
   0   5  -5   51.92    2.96
   0   5  -5   56.25    2.80
   0   5  -5   60.00    3.01
   1  -5   5   12.63    1.77
   1  -5   5   15.91    1.91
  -1  -5  -5   16.04    1.03
   1  -5   5   18.10    2.09
   1  -5   5   12.92    1.76
  -1   5  -5   19.45    2.07
   1   5   5   17.00    1.02
   1   5   5   16.50    2.00
  -1   5  -5   17.48    2.01
   1   5   5   16.95    1.00
  -1   5  -5   18.50    2.10
  -1   5  -5   15.16    1.76
   1   5   5   19.27    2.27
   2  -5   5   27.20    2.14
   2  -5   5   28.45    2.36
   2  -5   5   26.65    2.68
   2  -5   5   30.45    2.33
  -2  -5  -5   25.64    1.68
  -2   5  -5   25.79    2.68
  -2   5  -5   25.63    2.56
   2   5   5   27.36    1.67
   2   5   5   25.05    2.59
  -2   5  -5   28.41    2.17
  -2   5  -5   20.38    2.11
   2   5   5   27.08    2.86
   3  -5   5   12.15    1.84
   3  -5   5   16.06    2.25
  -3  -5  -5   15.94    1.84
   3  -5   5   15.04    2.09
  -3   5  -5   13.84    1.94
   3   5   5   15.43    2.26
   3   5   5   13.32    1.97
  -3   5  -5   16.52    2.26
   3   5   5   15.25    1.79
  -3   5  -5   17.43    2.16
   4  -5   5   13.37    2.18
   4  -5   5   18.79    2.67
   4  -5   5   15.65    2.32
  -4  -5  -5   14.96    2.03
   4   5   5   17.13    2.16
   4   5   5   16.89    2.50
  -4   5  -5   14.63    2.07
  -4   5  -5   17.01    2.37
   4   5   5   15.81    2.30
  -4   5  -5   16.05    2.47
   5  -5   5   23.25    3.01
   5  -5   5   24.51    3.17
  -5  -5  -5   21.27    2.80
   5  -5   5   22.99    3.19
  -5   5  -5   19.02    2.88
   5   5   5   25.90    2.97
  -5   5  -5   25.48    3.10
   5   5   5   18.02    2.72
   5   5   5   20.44    3.02
  -5   5  -5   15.53    2.34
  -6  -6   5   16.56    2.77
  -6   6   5   12.83    2.03
   6   6  -5   16.19    2.41
   6   6  -5   14.93    2.63
  -6   6   5   14.04    2.23
   6   6  -5   11.23    2.19
  -5  -6   5   38.82    3.96
  -5  -6   5   32.20    3.44
   5   6  -5   31.61    3.03
  -5   6   5   30.20    2.93
  -5   6   5   29.27    2.32
   5   6  -5   25.94    3.16
   5   6  -5   30.48    3.21
   5   6  -5   25.97    2.98
  -4  -6   5   85.83    4.62
  -4  -6   5   81.33    4.41
   4   6  -5   83.87    3.73
  -4   6   5   81.53    3.74
   4   6  -5   80.54    4.46
   4   6  -5   78.47    4.23
   4   6  -5   82.05    4.30
  -4   6   5   77.85    3.50
  -3  -6   5  143.80    5.97
  -3  -6   5  130.98    5.64
  -3  -6   5  147.89    6.23
   3   6  -5  141.26    5.86
  -3   6   5  148.98    5.01
  -3   6   5  142.28    4.97
   3   6  -5  156.21    6.14
   3   6  -5  142.35    5.68
  -3   6   5  139.52    4.51
   3   6  -5  141.42    4.72
  -2  -6   5   71.84    3.76
   2  -6  -5   83.09    2.87
  -2  -6   5   81.58    4.10
  -2  -6   5   82.46    3.92
  -2  -6   5   84.17    4.27
  -2   6   5   80.36    2.57
   2   6  -5   86.84    4.24
  -2   6   5   86.74    3.81
   2   6  -5   82.54    3.90
   2   6  -5   77.55    3.84
  -2   6   5   84.69    3.30
  -1  -6   5   46.25    2.85
  -1  -6   5   47.03    3.05
  -1  -6   5   52.37    3.08
  -1  -6   5   44.67    2.78
   1  -6  -5   50.56    1.65
   1   6  -5   48.02    2.81
   1   6  -5   43.89    2.83
  -1   6   5   45.17    2.79
  -1   6   5   47.37    2.22
   0  -6  -5   74.91    2.36
   0  -6   5   83.47    3.97
   0  -6   5   76.61    3.84
   0  -6   5   87.66    4.19
   0  -6   5   80.22    3.80
   0   6  -5   85.81    4.00
   0   6   5   69.70    3.61
   0   6  -5   70.07    3.65
   0   6   5   74.86    3.86
   0   6   5   68.57    2.79
   0   6  -5   71.50    3.52
   0   6  -5   72.18    3.49
   1  -6   5   65.24    3.55
  -1  -6  -5   72.46    2.62
   1  -6   5   63.06    3.59
   1  -6   5   71.21    3.89
   1  -6   5   64.88    3.52
  -1   6  -5   70.80    3.52
   1   6   5   73.50    3.77
  -1   6  -5   69.09    3.68
  -1   6  -5   67.94    3.51
   1   6   5   73.33    3.98
   1   6   5   76.10    2.46
   2  -6   5   74.48    3.98
  -2  -6  -5   72.75    3.16
   2  -6   5   70.13    4.10
   2  -6   5   75.54    3.90
   2  -6   5   78.50    4.15
   2   6   5   73.97    3.99
  -2   6  -5   71.89    3.97
  -2   6  -5   82.63    3.92
  -2   6  -5   75.91    3.89
   2   6   5   73.71    4.22
   2   6   5   80.87    3.12
  -3  -6  -5  110.61    4.61
   3  -6   5  108.22    5.09
   3  -6   5  100.04    5.05
   3  -6   5  108.73    5.32
  -3   6  -5  101.43    4.81
   3   6   5  117.72    4.49
   3   6   5  104.76    5.41
   3   6   5  117.50    5.39
  -3   6  -5  106.74    4.99
  -3   6  -5  103.58    5.16
  -4  -6  -5   56.55    3.50
   4  -6   5   58.72    4.12
   4  -6   5   53.13    3.71
   4  -6   5   53.34    3.80
   4   6   5   50.00    3.63
  -4   6  -5   55.51    3.66
   4   6   5   47.53    3.71
  -4   6  -5   52.11    3.58
  -4   6  -5   49.01    3.67
   4   6   5   53.27    3.26
  -5  -6  -5   17.84    2.52
   5  -6   5   16.83    2.69
   5  -6   5   18.55    2.94
  -5   6  -5   15.79    2.49
   5   6   5   17.08    2.46
   5   6   5   16.69    2.73
  -5   6  -5   16.51    2.62
   5   6   5   18.54    2.91
  -5   6  -5   13.36    2.58
  -5  -7   5    2.14    1.12
   5   7  -5    2.79    1.28
  -5   7   5    2.43    1.03
  -5   7   5    2.26    0.94
   5   7  -5    0.27    0.71
   5   7  -5    1.09    0.92
  -4  -7   5    0.50    0.68
  -4  -7   5    1.69    0.97
   4   7  -5    1.55    0.85
  -4   7   5    0.90    0.58
   4   7  -5    0.64    0.73
   4   7  -5    0.72    0.73
  -4   7   5    1.68    0.82
  -3  -7   5    6.13    1.47
  -3  -7   5    6.34    1.53
  -3  -7   5    7.13    1.54
  -3   7   5    4.97    0.83
  -3   7   5    3.91    0.99
   3   7  -5    7.49    1.63
   3   7  -5    6.96    1.48
   3   7  -5    3.60    1.12
  -2  -7   5    6.99    1.40
  -2  -7   5    9.87    1.80
  -2  -7   5    8.20    1.55
  -2  -7   5   11.82    1.90
   2   7  -5    6.80    1.38
  -2   7   5    9.12    0.88
   2   7  -5   10.04    1.64
  -2   7   5    7.31    1.18
  -2   7   5    9.22    1.53
   2   7  -5    6.02    1.40
   2   7  -5    6.31    1.41
  -1  -7   5   22.04    2.47
  -1  -7   5   16.85    2.22
  -1  -7   5   15.70    2.10
  -1  -7   5   15.38    2.14
   1  -7  -5   17.67    1.05
   1  -7  -5   16.32    1.03
  -1   7   5   20.26    1.54
   1   7  -5   16.31    2.14
   1   7  -5   19.16    2.23
  -1   7   5   15.31    2.02
   1   7  -5   18.05    2.23
   0  -7   5   15.05    2.15
   0  -7  -5   15.04    0.99
   0  -7   5   13.70    1.95
   0  -7   5   11.36    1.78
   0  -7   5   16.12    2.11
   0   7   5   19.54    2.53
   0   7   5   17.61    1.75
   0   7  -5   12.04    1.93
   0   7  -5   14.05    1.99
   0   7  -5   15.04    1.98
   0   7   5   12.78    1.96
   1  -7   5   31.30    2.49
   1  -7   5   34.58    2.67
   1  -7   5   25.14    2.76
   1  -7   5   29.60    2.93
  -1  -7  -5   25.99    1.59
   1   7   5   23.92    2.71
  -1   7  -5   29.37    2.82
  -1   7  -5   33.16    2.50
  -1   7  -5   32.70    2.58
   1   7   5   29.88    3.13
   2  -7   5   40.83    2.98
  -2  -7  -5   42.18    2.39
   2  -7   5   38.45    2.95
   2  -7   5   38.67    3.03
   2  -7   5   47.64    3.46
  -2   7  -5   40.16    2.86
   2   7   5   34.66    3.35
  -2   7  -5   40.36    3.08
  -2   7  -5   43.47    3.02
   2   7   5   39.55    3.15
   3  -7   5   19.12    2.74
   3  -7   5   13.17    2.18
  -3  -7  -5   14.31    1.88
   3  -7   5   16.49    2.46
   3   7   5   12.28    2.15
  -3   7  -5    8.68    1.72
   3   7   5   12.12    2.22
   3   7   5   12.42    1.64
  -3   7  -5   10.63    1.91
  -3   7  -5    9.16    1.88
  -4  -7  -5    5.47    1.34
   4  -7   5    8.86    1.98
   4  -7   5    4.81    1.46
  -4   7  -5    4.38    1.37
   4   7   5    2.96    1.06
   4   7   5    3.52    1.39
   4   7   5    5.55    1.61
  -4   7  -5    3.60    1.32
  -4   7  -5    5.09    1.54
  -5  -8   5   20.85    2.97
  -5   8   5   28.88    3.20
   5   8  -5   28.22    3.40
   5   8  -5   29.95    3.71
  -5   8   5   23.43    2.56
   5   8  -5   33.28    3.90
  -4  -8   5   43.31    3.46
  -4   8   5   41.15    2.90
   4   8  -5   37.49    3.66
   4   8  -5   44.85    3.56
  -4   8   5   47.14    2.67
   4   8  -5   45.78    3.53
  -3  -8   5   88.21    5.59
  -3  -8   5   82.44    4.68
  -3   8   5   79.20    3.19
  -3   8   5   82.41    3.93
   3   8  -5   76.73    4.57
   3   8  -5   91.10    4.57
   3   8  -5   82.50    4.73
  -2  -8   5   82.51    4.39
  -2  -8   5   86.34    4.79
  -2  -8   5   78.08    4.47
   2  -8  -5   79.64    3.30
  -2  -8   5   87.56    4.48
   2   8  -5   74.40    3.97
  -2   8   5   71.19    3.85
   2   8  -5   74.52    4.15
  -2   8   5   74.82    3.49
   2   8  -5   79.37    4.48
   2   8  -5   68.99    4.14
  -2   8   5   74.13    2.58
  -1  -8   5   62.72    3.81
  -1  -8   5   71.26    3.96
   1  -8  -5   66.53    2.71
  -1  -8   5   67.87    3.95
  -1  -8   5   74.03    4.30
   1   8  -5   55.27    3.36
  -1   8   5   58.33    3.57
   1   8  -5   54.50    3.62
   1   8  -5   59.34    3.63
  -1   8   5   54.30    1.78
   1   8  -5   58.67    3.69
  -1   8   5   56.73    2.92
   0  -8  -5   86.52    3.18
   0  -8   5   90.26    4.80
   0  -8   5   84.77    4.39
   0  -8   5   93.39    4.72
   0  -8   5   84.56    4.50
   0   8  -5   87.91    4.60
   0   8   5   92.91    3.87
   0   8   5   89.48    2.52
   0   8   5   86.42    4.56
   0   8  -5   87.06    4.68
   0   8   5   76.70    4.44
   0   8  -5   91.45    4.50
  -1  -8  -5  101.34    3.83
   1  -8   5  109.74    5.08
   1  -8   5   97.48    5.27
   1  -8   5  102.87    5.07
   1  -8   5   98.74    5.11
  -1   8  -5  118.62    5.56
   1   8   5  113.62    5.40
   1   8   5  116.57    5.73
  -1   8  -5  119.11    5.18
  -1   8  -5  106.85    5.06
   2  -8   5   30.90    3.57
  -2  -8  -5   30.97    2.16
   2  -8   5   25.25    2.96
   2  -8   5   27.75    3.20
  -2   8  -5   28.54    3.08
   2   8   5   25.98    3.07
   2   8   5   21.52    3.01
  -2   8  -5   25.74    2.81
  -2   8  -5   24.49    2.92
   3  -8   5   29.94    3.31
  -3  -8  -5   28.75    2.37
   3  -8   5   28.03    3.27
  -3   8  -5   30.44    3.34
   3   8   5   23.13    3.29
  -3   8  -5   28.73    3.10
  -3   8  -5   25.65    3.21
   3   8   5   22.28    2.24
   3   8   5   21.67    3.00
   4  -8   5   37.09    3.97
  -4  -8  -5   31.68    3.31
   4  -8   5   31.66    3.71
  -4   8  -5   25.91    3.22
   4   8   5   27.75    3.51
   4   8   5   34.42    3.19
  -4   8  -5   38.14    3.94
   4   8   5   29.18    3.76
  -4   8  -5   30.58    3.71
   4  -9  -5   12.39    1.99
  -4  -9   5   12.97    2.49
   4   9  -5   14.82    2.33
   4   9  -5   15.51    2.67
   4   9  -5   11.55    2.25
  -4   9   5   11.93    1.62
  -4   9   5   15.24    2.26
  -3  -9   5    7.50    1.78
   3  -9  -5    8.29    1.43
   3   9  -5    6.05    1.67
  -3   9   5    8.11    1.17
  -3   9   5    6.36    1.39
   3   9  -5    4.95    1.48
   3   9  -5    7.58    1.73
   2  -9  -5    3.76    0.91
  -2  -9   5    2.36    1.06
  -2  -9   5    2.73    1.15
  -2  -9   5    4.49    1.48
  -2   9   5    4.38    0.72
   2   9  -5    3.78    1.38
   2   9  -5    1.93    0.95
  -2   9   5    4.57    1.16
  -2   9   5    4.09    1.24
   2   9  -5    4.02    1.32
   2   9  -5    2.53    1.08
   1  -9  -5    6.97    1.05
  -1  -9   5    5.48    1.53
  -1  -9   5   10.61    1.94
  -1  -9   5    7.05    1.65
  -1   9   5    7.85    1.47
  -1   9   5    7.21    0.75
   1   9  -5    6.36    1.65
   1   9  -5    8.80    1.86
   1   9  -5    5.76    1.34
   1   9  -5   11.77    2.07
  -1   9   5    7.56    1.68
   0  -9   5    2.08    1.01
   0  -9   5    2.90    1.13
   0  -9   5    1.72    1.08
   0  -9  -5    2.03    0.65
   0   9  -5    1.60    0.82
   0   9  -5    1.91    0.96
   0   9   5    2.47    1.14
   0   9   5    2.13    0.46
   0   9  -5    2.09    0.99
   0   9  -5    1.50    0.93
   1  -9   5    4.95    1.60
  -1  -9  -5    7.76    1.22
   1  -9   5    7.14    1.63
   1  -9   5    6.22    1.53
  -1   9  -5    6.46    1.71
   1   9   5    6.59    1.63
  -1   9  -5    5.33    1.51
   1   9   5    6.98    1.82
  -1   9  -5    5.78    1.53
  -1   9  -5    4.94    1.27
  -2  -9  -5    4.44    1.05
   2  -9   5    5.01    1.48
   2  -9   5    5.47    1.62
   2   9   5    4.49    1.52
  -2   9  -5    3.06    1.27
  -2   9  -5    5.13    1.51
  -2   9  -5    3.78    1.31
   2   9   5    5.30    1.58
  -2   9  -5    6.12    1.46
   3  -9   5    0.18    0.85
   3  -9   5    1.35    1.01
  -3  -9  -5    1.10    0.80
   3   9   5    0.50    0.65
   3   9   5    1.41    1.05
  -3   9  -5    2.66    1.13
  -3   9  -5    1.33    0.89
  -3   9  -5    1.59    1.21
   3   9   5    0.02    0.74
  -3   9  -5    0.43    0.84
   3  10  -5    5.23    1.73
  -2 -10   5   32.67    3.59
   2 -10  -5   36.18    2.43
  -2 -10   5   34.96    3.75
  -2  10   5   27.38    3.11
   2  10  -5   37.13    3.56
   2  10  -5   31.35    3.57
  -2  10   5   25.99    1.72
   2  10  -5   26.99    3.39
   2  10  -5   29.89    3.71
  -1 -10   5   55.97    3.91
  -1 -10   5   46.98    3.62
   1 -10  -5   52.07    2.80
  -1 -10   5   48.14    3.91
   1  10  -5   43.17    3.12
  -1  10   5   44.87    3.50
   1  10  -5   44.67    3.54
   1  10  -5   36.80    4.07
   1  10  -5   42.69    4.12
   0 -10   5   27.46    3.28
   0 -10   5   28.15    3.37
   0 -10   5   42.26    4.37
   0 -10  -5   26.81    1.99
   0  10  -5   33.37    3.52
   0  10  -5   26.28    2.95
   0  10  -5   29.80    3.61
   0  10  -5   28.63    3.41
   0  10   5   32.65    3.78
   1 -10   5   18.64    2.81
   1 -10   5   21.48    2.92
  -1 -10  -5   18.18    1.99
  -1  10  -5   21.82    3.10
   1  10   5   22.90    3.17
   1  10   5   27.19    3.61
  -1  10  -5   22.81    3.00
  -1  10  -5   18.99    2.86
  -2  10  -5   19.49    2.84
  -2  10  -5   25.18    3.33
   2  10   5   19.96    3.08
   2  10   5   20.78    3.03
  -2  10  -5   22.27    2.84
  -7   0   6   17.28    2.40
   7   0  -6   18.79    2.73
  -7   0   6   12.95    2.22
  -7   0   6   11.74    2.33
  -6   0   6   13.35    2.24
   6   0  -6    9.66    1.83
  -6   0   6    8.01    1.54
  -6   0   6    6.33    1.39
  -5   0   6   19.89    2.19
  -5   0   6   18.59    2.38
   5   0  -6   15.95    2.08
  -5   0   6   17.54    1.94
   4   0  -6   27.90    2.03
  -4   0   6   29.00    2.14
  -4   0   6   28.39    1.86
   3   0  -6   28.40    1.82
  -3   0   6   22.24    1.69
   3   0  -6   26.60    1.75
  -3   0   6   23.47    1.51
  -2   0   6   39.60    1.77
  -2   0   6   42.50    2.09
   2   0  -6   38.93    1.95
   2   0  -6   39.57    2.10
   2   0  -6   41.04    2.02
   2   0  -6   39.14    2.07
   1   0  -6   26.58    1.48
  -1   0   6   29.39    1.34
   1   0  -6   28.32    1.62
  -1   0   6   28.25    1.59
   1   0  -6   30.39    1.57
   1   0  -6   26.68    1.57
   0   0  -6   97.70    3.53
   0   0  -6  104.18    2.60
   0   0  -6  108.23    3.48
   0   0  -6  103.10    3.43
   0   0   6  100.01    3.52
   0   0   6  104.76    3.16
   0   0   6  106.66    3.25
   0   0  -6  104.14    3.66
  -1   0  -6  131.99    4.59
  -1   0  -6  137.58    3.69
   1   0   6  134.14    3.82
   1   0   6  142.27    4.62
   1   0   6  138.71    4.20
  -1   0  -6  146.12    4.52
   1   0   6  140.66    4.24
  -1   0  -6  139.58    4.43
  -1   0  -6  141.25    4.77
  -2   0  -6   43.93    1.95
   2   0   6   37.15    2.04
  -2   0  -6   42.13    2.41
   2   0   6   41.10    1.94
   2   0   6   42.55    2.41
  -2   0  -6   41.05    2.28
   2   0   6   43.23    2.21
  -2   0  -6   44.38    2.39
   3   0   6   71.43    3.25
   3   0   6   65.89    2.89
  -3   0  -6   72.69    3.72
   3   0   6   69.61    3.55
   3   0   6   73.36    3.32
  -3   0  -6   73.43    3.47
  -3   0  -6   70.38    3.05
   4   0   6   45.52    2.88
  -4   0  -6   46.41    3.00
  -4   0  -6   39.51    2.53
   4   0   6   47.02    3.20
   4   0   6   47.22    2.63
   4   0   6   42.97    2.75
  -4   0  -6   48.83    3.28
  -5   0  -6    6.37    1.51
  -5   0  -6    5.26    1.56
  -5   0  -6    5.60    1.35
   5   0   6    3.67    1.06
   5   0   6    4.95    1.30
   5   0   6    3.72    1.27
   5   0   6    4.37    1.45
  -7  -1   6   33.66    3.89
  -7  -1   6   32.18    3.38
  -7  -1   6   27.69    3.22
   7  -1  -6   27.44    3.35
  -7   1   6   26.94    2.93
  -7   1   6   34.21    3.51
   7   1  -6   31.40    3.57
  -7   1   6   38.55    4.09
  -6  -1   6   87.97    4.87
  -6  -1   6   87.70    4.43
   6  -1  -6   87.72    4.61
  -6   1   6   84.00    3.97
  -6   1   6   77.68    4.40
   6   1  -6   80.62    4.45
  -6   1   6   76.35    4.08
  -5  -1   6   46.13    3.12
  -5  -1   6   50.06    2.95
   5  -1  -6   42.86    2.83
   5   1  -6   52.14    3.23
  -5   1   6   50.50    2.72
  -5   1   6   47.81    2.80
  -5   1   6   54.61    3.23
  -4  -1   6   49.44    2.92
  -4  -1   6   43.35    2.52
   4  -1  -6   50.83    2.70
   4   1  -6   59.33    3.16
   4   1  -6   58.14    3.12
  -4   1   6   56.35    2.70
  -4   1   6   59.27    3.08
  -4   1   6   59.72    2.65
   3  -1  -6  109.12    3.93
  -3  -1   6  115.03    4.09
  -3  -1   6  110.63    4.30
  -3   1   6  113.98    3.56
   3   1  -6  120.61    4.33
  -3   1   6  110.93    4.07
  -3   1   6  114.81    3.66
   3   1  -6  113.38    4.29
   2  -1  -6  190.28    5.61
  -2  -1   6  185.46    5.52
  -2  -1   6  196.92    5.95
   2  -1  -6  190.28    5.28
   2  -1  -6  197.24    5.42
   2  -1  -6  187.90    5.63
   2   1  -6  174.47    5.76
   2   1  -6  173.34    5.44
  -2   1   6  174.74    4.41
  -2   1   6  175.24    5.14
  -2   1   6  180.84    4.44
   2   1  -6  179.75    5.78
   2   1  -6  185.54    5.55
   1  -1  -6  197.09    5.56
  -1  -1   6  197.75    5.58
  -1  -1   6  192.31    5.87
   1  -1  -6  200.33    5.29
   1  -1  -6  210.76    5.61
  -1   1   6  204.29    5.38
   1   1  -6  203.63    6.12
   1   1  -6  202.78    5.80
   1   1  -6  200.36    5.81
   1   1  -6  188.04    6.00
  -1   1   6  195.73    5.33
   0  -1  -6  115.06    3.67
   0  -1   6  115.25    3.72
   0  -1   6  113.79    3.99
   0  -1   6  111.42    3.47
   0  -1  -6  108.69    3.39
   0  -1  -6  114.22    3.59
   0   1   6  108.85    2.61
   0   1  -6  109.10    3.77
   0   1   6  115.76    3.71
   0   1   6  107.65    3.43
   0   1  -6  113.96    4.07
   0   1  -6  105.02    3.92
   0   1  -6  112.38    3.87
   0   1  -6  107.89    3.11
   0   1   6  110.08    2.61
   0   1   6  110.14    3.48
   1  -1   6   25.86    1.33
   1  -1   6   24.21    1.68
  -1  -1  -6   24.18    1.04
  -1  -1  -6   23.38    1.42
   1  -1   6   23.28    1.41
  -1  -1  -6   25.11    1.54
  -1  -1  -6   25.45    1.58
  -1  -1  -6   23.52    1.41
   1  -1   6   22.40    1.50
  -1   1  -6   23.20    1.58
   1   1   6   24.16    1.56
  -1   1  -6   20.50    1.61
  -1   1  -6   24.95    1.32
  -1   1  -6   21.34    1.56
   1   1   6   23.29    1.15
   1   1   6   22.92    1.46
  -2  -1  -6   65.20    2.44
   2  -1   6   61.96    2.71
  -2  -1  -6   64.48    2.84
   2  -1   6   65.85    2.66
   2  -1   6   62.65    2.91
  -2  -1  -6   64.91    2.99
   2  -1   6   65.00    3.18
   2   1   6   65.75    2.57
   2   1   6   65.25    2.14
  -2   1  -6   69.52    3.19
  -2   1  -6   67.30    3.07
  -2   1  -6   65.24    2.62
   2   1   6   61.69    2.91
  -2   1  -6   60.03    3.12
   2   1   6   64.56    2.94
  -3  -1  -6   82.61    3.25
   3  -1   6   79.45    3.38
   3  -1   6   81.09    3.42
   3  -1   6   68.67    3.44
  -3  -1  -6   84.57    3.68
  -3  -1  -6   78.39    3.79
   3  -1   6   74.50    3.85
   3   1   6   73.38    3.49
  -3   1  -6   73.96    3.21
   3   1   6   77.78    3.71
   3   1   6   76.55    3.21
  -3   1  -6   75.96    3.64
   3   1   6   74.83    2.82
  -3   1  -6   75.21    3.84
  -3   1  -6   75.81    3.71
   4  -1   6   12.23    1.78
  -4  -1  -6   13.87    1.74
  -4  -1  -6   12.99    1.84
   4  -1   6    9.77    1.52
   4  -1   6   15.22    2.27
  -4  -1  -6   17.37    2.31
   4  -1   6   14.44    1.85
   4   1   6   11.94    1.62
   4   1   6   13.22    1.93
   4   1   6   11.54    1.90
   4   1   6   11.41    1.44
  -4   1  -6   11.03    1.75
  -4   1  -6    9.77    1.81
  -4   1  -6    9.32    1.53
  -5  -1  -6    8.74    1.60
  -5  -1  -6    8.27    1.72
  -5  -1  -6    8.26    1.72
   5  -1   6    5.63    1.34
   5  -1   6    6.78    1.63
   5  -1   6    4.79    1.38
   5  -1   6    5.42    1.35
  -5   1  -6    5.27    1.53
   5   1   6    5.79    1.51
  -5   1  -6    6.42    1.44
   5   1   6    4.93    1.40
   5   1   6    4.50    1.25
   5   1   6    4.43    1.09
  -5   1  -6    4.52    1.41
  -7   2   6   11.02    2.08
   6  -2  -6    4.28    1.20
  -6  -2   6    4.33    1.24
  -6  -2   6    2.66    1.19
   6   2  -6    2.11    1.08
  -6   2   6    3.89    1.02
  -6   2   6    6.97    1.55
  -6   2   6    3.91    1.18
  -5  -2   6    7.44    1.55
   5  -2  -6    5.17    1.19
  -5  -2   6    3.90    1.07
  -5   2   6    5.22    0.96
  -5   2   6    3.25    0.92
   5   2  -6    4.54    1.16
  -5   2   6    6.61    1.31
  -4  -2   6    2.18    0.81
  -4  -2   6    1.39    0.73
   4  -2  -6    1.54    0.68
  -4   2   6    1.98    0.53
   4   2  -6    1.78    0.79
  -4   2   6    2.46    0.75
  -4   2   6    1.58    0.58
   4   2  -6    1.66    0.70
  -3  -2   6   15.67    1.86
   3  -2  -6   14.29    1.43
  -3  -2   6   15.75    1.69
  -3   2   6   13.70    0.79
   3   2  -6   13.37    1.69
  -3   2   6   13.21    1.39
  -3   2   6   14.23    1.09
   3   2  -6   13.27    1.59
  -2  -2   6   52.31    2.67
   2  -2  -6   51.31    2.01
   2  -2  -6   48.14    2.06
  -2  -2   6   48.01    2.42
  -2  -2   6   46.09    2.47
   2   2  -6   40.56    2.30
  -2   2   6   42.72    1.86
   2   2  -6   41.82    2.45
  -2   2   6   42.63    1.84
  -2   2   6   42.90    1.53
   2   2  -6   44.65    2.37
  -1  -2   6   44.50    2.22
  -1  -2   6   48.84    2.46
   1  -2  -6   48.66    1.75
   1  -2  -6   44.83    1.66
   1  -2  -6   44.67    1.71
  -1  -2   6   46.06    2.35
   1   2  -6   40.42    2.29
  -1   2   6   41.34    1.60
   1   2  -6   43.01    2.26
  -1   2   6   43.17    1.63
   1   2  -6   40.28    2.19
   1   2  -6   40.88    1.85
   0  -2   6   90.78    3.49
   0  -2  -6   79.49    2.49
   0  -2   6   75.01    3.00
   0  -2  -6   82.42    2.67
   0  -2  -6   76.95    2.57
   0  -2   6   80.79    3.38
   0  -2   6   85.65    3.27
   0   2  -6   90.39    3.53
   0   2   6   84.16    2.64
   0   2  -6   84.42    2.87
   0   2   6   81.74    3.27
   0   2  -6   92.68    3.50
   0   2   6   87.39    2.71
   0   2   6   83.22    3.74
   0   2  -6   82.74    3.50
  -1  -2  -6   52.52    2.23
   1  -2   6   57.06    2.85
  -1  -2  -6   51.35    2.25
   1  -2   6   52.18    2.69
   1  -2   6   48.74    2.39
  -1  -2  -6   52.89    2.13
   1  -2   6   49.41    2.52
   1  -2   6   56.36    1.86
  -1  -2  -6   52.91    1.65
  -1   2  -6   57.87    2.38
  -1   2  -6   59.62    2.86
   1   2   6   60.09    2.77
  -1   2  -6   57.91    2.78
   1   2   6   54.35    2.28
   1   2   6   55.29    2.31
  -1   2  -6   58.47    2.93
   1   2   6   61.74    3.22
   2  -2   6   44.36    2.66
  -2  -2  -6   39.42    2.12
   2  -2   6   37.87    2.20
   2  -2   6   37.30    2.31
  -2  -2  -6   38.42    2.16
   2  -2   6   40.94    1.89
  -2  -2  -6   39.34    1.77
   2   2   6   30.56    2.06
   2   2   6   32.47    1.46
  -2   2  -6   35.46    2.23
   2   2   6   32.92    2.42
  -2   2  -6   32.28    1.87
  -2   2  -6   29.50    2.14
  -2   2  -6   35.96    2.42
   2   2   6   30.68    1.92
  -3  -2  -6  105.12    4.41
  -3  -2  -6   96.35    4.13
   3  -2   6   98.97    4.38
   3  -2   6  101.81    4.21
  -3  -2  -6  105.04    3.76
   3  -2   6  104.70    3.86
   3  -2   6  104.32    4.75
  -3   2  -6   92.23    3.79
  -3   2  -6   91.40    4.19
   3   2   6   84.92    4.01
  -3   2  -6   95.09    4.38
   3   2   6   93.46    2.78
   3   2   6   97.58    4.67
   3   2   6   94.89    3.44
  -3   2  -6   88.51    4.41
   3   2   6   91.87    4.04
  -4  -2  -6   96.71    4.76
   4  -2   6   97.14    4.75
  -4  -2  -6  100.53    4.65
   4  -2   6  107.10    5.24
  -4  -2  -6  105.53    4.23
   4  -2   6  108.95    4.67
   4   2   6   94.19    4.58
   4   2   6   94.09    3.93
  -4   2  -6   96.47    4.67
   4   2   6   95.30    4.57
  -4   2  -6  107.01    5.18
  -4   2  -6  100.83    4.39
   4   2   6   95.70    3.40
  -5  -2  -6   33.44    3.45
   5  -2   6   43.27    3.27
   5  -2   6   34.81    3.46
   5  -2   6   42.32    4.23
  -5  -2  -6   40.89    3.12
  -5  -2  -6   37.14    2.74
   5   2   6   37.93    2.45
  -5   2  -6   40.41    3.15
   5   2   6   30.80    3.33
   5   2   6   41.69    3.90
   5   2   6   36.28    2.59
  -5   2  -6   37.52    2.86
  -6  -3   6   16.50    2.30
  -6  -3   6   21.67    2.99
   6   3  -6   21.33    2.73
  -6   3   6   24.72    1.87
  -6   3   6   21.87    2.67
  -6   3   6   23.93    2.62
  -5  -3   6   45.64    3.30
  -5  -3   6   50.86    3.27
   5   3  -6   46.14    3.14
  -5   3   6   45.28    2.25
  -5   3   6   46.76    2.79
   5   3  -6   47.55    3.28
  -5   3   6   49.73    3.01
  -4  -3   6  115.97    4.98
  -4  -3   6  130.64    5.43
  -4   3   6  112.71    4.11
   4   3  -6  110.66    4.82
  -4   3   6  111.52    3.28
   4   3  -6  112.31    4.88
   4   3  -6  116.94    4.52
  -4   3   6  106.55    4.25
  -3  -3   6  147.45    5.38
  -3  -3   6  153.86    5.72
  -3   3   6  145.70    4.43
  -3   3   6  152.15    4.68
   3   3  -6  152.51    5.48
   3   3  -6  151.43    5.58
   2  -3  -6   98.49    3.13
  -2  -3   6   98.29    4.14
  -2  -3   6   99.25    4.13
  -2  -3   6   97.29    3.92
   2   3  -6  100.66    4.11
  -2   3   6  101.35    3.07
  -2   3   6  101.48    2.91
   2   3  -6  105.08    4.14
  -2   3   6  101.96    3.11
  -1  -3   6   31.96    2.02
   1  -3  -6   35.47    1.20
  -1  -3   6   29.96    1.89
   1  -3  -6   35.63    1.20
  -1  -3   6   35.67    2.21
  -1  -3   6   33.58    2.16
   1   3  -6   38.73    2.24
  -1   3   6   35.99    1.21
   1   3  -6   33.45    2.22
   1   3  -6   37.56    2.24
  -1   3   6   36.31    2.24
   1   3  -6   33.63    1.86
  -1   3   6   36.22    1.22
   0  -3  -6   56.28    1.78
   0  -3   6   52.14    2.80
   0  -3  -6   56.60    1.81
   0  -3   6   61.49    2.94
   0  -3   6   53.12    2.57
   0  -3   6   51.25    2.68
   0   3   6   58.33    3.12
   0   3  -6   67.11    3.23
   0   3  -6   59.08    2.98
   0   3   6   63.65    1.91
   0   3   6   63.22    1.89
   0   3  -6   63.31    2.98
   0   3  -6   64.85    2.64
   0   3   6   61.20    2.91
  -1  -3  -6  120.24    3.86
   1  -3   6  119.45    4.58
   1  -3   6  122.80    4.85
  -1  -3  -6  129.99    3.28
   1  -3   6  124.47    4.81
   1  -3   6  128.07    4.53
  -1   3  -6  135.15    5.08
   1   3   6  125.05    3.75
   1   3   6  126.27    4.65
   1   3   6  121.28    5.09
   1   3   6  126.38    3.79
  -1   3  -6  125.64    4.21
  -1   3  -6  126.74    4.84
  -1   3  -6  124.39    4.66
   2  -3   6   93.33    3.93
  -2  -3  -6   95.37    3.16
   2  -3   6  101.77    4.21
   2  -3   6   91.09    4.23
  -2  -3  -6   92.07    3.65
   2   3   6   97.94    4.20
   2   3   6   97.51    4.63
  -2   3  -6  103.37    4.42
  -2   3  -6  101.87    3.90
   2   3   6   97.48    3.66
  -2   3  -6  105.58    4.35
  -2   3  -6   99.55    4.50
   3  -3   6   37.03    2.54
   3  -3   6   43.98    2.86
  -3  -3  -6   41.23    2.60
   3  -3   6   44.69    3.03
  -3  -3  -6   45.95    2.32
   3   3   6   49.60    2.78
   3   3   6   50.34    2.06
  -3   3  -6   51.27    2.79
  -3   3  -6   44.40    2.87
   3   3   6   42.28    2.82
  -3   3  -6   46.47    3.17
   3   3   6   53.02    3.41
  -3   3  -6   43.08    2.95
   4  -3   6   29.59    3.22
   4  -3   6   23.75    2.64
  -4  -3  -6   22.72    2.52
  -4  -3  -6   23.42    2.26
   4  -3   6   22.49    2.57
  -4   3  -6   22.66    2.79
  -4   3  -6   26.00    2.88
  -4   3  -6   24.66    2.52
   4   3   6   22.12    1.65
   4   3   6   24.77    2.77
   4   3   6   22.85    2.60
   4   3   6   25.33    3.03
  -4   3  -6   22.79    2.74
  -5  -3  -6    7.72    1.49
  -5  -3  -6    8.04    1.82
   5  -3   6    9.99    2.18
   5  -3   6    9.36    1.87
   5  -3   6    8.91    1.84
  -5   3  -6    4.12    1.24
   5   3   6    8.28    1.89
   5   3   6    5.38    1.18
  -5   3  -6    8.21    1.84
   5   3   6    6.61    1.65
   5   3   6   10.40    2.07
  -6  -4   6    4.69    1.67
  -6  -4   6    4.41    1.42
  -6   4   6    4.04    1.30
  -6   4   6    4.78    1.32
   6   4  -6    6.56    1.64
  -5  -4   6    7.19    1.68
  -5  -4   6    3.72    1.25
   5   4  -6    5.19    1.44
  -5   4   6    3.51    1.02
   5   4  -6    4.21    1.20
  -5   4   6    3.20    1.02
  -4  -4   6    5.38    1.32
  -4  -4   6    5.90    1.29
   4   4  -6    6.11    1.25
   4   4  -6    4.29    1.24
  -4   4   6    5.30    1.02
  -4   4   6    5.25    1.02
   4   4  -6    5.41    1.24
  -3  -4   6   -0.05    0.40
  -3  -4   6    0.97    0.58
  -3   4   6    0.27    0.31
   3   4  -6    0.57    0.60
   3   4  -6    0.68    0.51
  -3   4   6    0.50    0.37
  -2  -4   6   23.97    2.02
  -2  -4   6   23.13    2.34
  -2  -4   6   24.52    1.92
   2  -4  -6   24.35    1.20
  -2   4   6   22.70    1.10
   2   4  -6   23.84    2.35
  -2   4   6   25.38    1.15
   2   4  -6   27.25    2.60
  -2   4   6   28.14    1.35
  -2   4   6   23.21    1.76
  -1  -4   6   67.01    3.22
  -1  -4   6   65.32    3.37
  -1  -4   6   58.76    2.96
  -1  -4   6   67.24    3.35
  -1   4   6   56.82    1.80
  -1   4   6   54.26    2.97
   1   4  -6   62.52    3.08
   1   4  -6   57.67    3.12
   1   4  -6   64.15    3.20
   0  -4  -6   48.79    1.40
   0  -4   6   48.77    2.80
   0  -4   6   47.45    2.80
   0  -4   6   49.08    2.73
   0  -4   6   46.94    2.57
   0   4  -6   50.25    2.83
   0   4   6   53.35    2.85
   0   4  -6   49.59    2.48
   0   4  -6   50.83    2.75
   0   4  -6   49.46    2.89
   0   4   6   49.83    2.92
   1  -4   6   43.48    2.60
  -1  -4  -6   38.82    1.74
   1  -4   6   37.27    2.35
   1  -4   6   44.07    2.76
   1  -4   6   40.66    2.67
  -1   4  -6   37.27    2.21
   1   4   6   38.52    1.60
  -1   4  -6   36.90    2.47
  -1   4  -6   40.45    2.62
  -1   4  -6   37.49    2.43
   1   4   6   35.90    2.58
   1   4   6   34.73    2.33
   2  -4   6   59.67    3.30
   2  -4   6   53.57    3.04
   2  -4   6   60.72    3.44
  -2  -4  -6   60.65    2.73
   2   4   6   37.94    2.65
  -2   4  -6   45.51    2.91
   2   4   6   53.17    3.31
  -2   4  -6   48.80    2.95
   2   4   6   49.87    2.35
  -2   4  -6   54.58    3.24
  -2   4  -6   48.68    2.69
   3  -4   6   14.30    1.98
   3  -4   6   14.44    2.03
   3  -4   6   13.52    2.08
  -3  -4  -6   14.08    1.75
   3   4   6   16.70    1.87
  -3   4  -6   19.01    2.14
  -3   4  -6   15.90    2.22
   3   4   6   18.41    2.33
  -3   4  -6   17.98    2.34
   3   4   6   16.64    2.38
  -3   4  -6   17.28    2.16
   4  -4   6   29.05    3.10
   4  -4   6   21.22    2.67
   4  -4   6   27.11    3.26
  -4  -4  -6   25.82    2.72
   4   4   6   33.26    3.36
  -4   4  -6   30.63    3.33
   4   4   6   26.39    3.16
   4   4   6   33.23    2.58
  -4   4  -6   26.87    2.77
  -4   4  -6   33.69    3.30
  -5  -4  -6   29.75    3.38
   5  -4   6   35.74    3.98
   5  -4   6   30.12    3.55
   5  -4   6   24.39    2.99
   5   4   6   21.15    2.78
  -5   4  -6   19.96    2.59
  -5   4  -6   20.97    2.78
   5   4   6   25.40    3.30
   5   4   6   16.82    2.62
  -6  -5   6   10.61    2.20
  -6  -5   6    9.03    2.05
   6   5  -6   12.60    2.39
  -6   5   6   11.37    1.95
   6   5  -6   10.69    2.14
  -6   5   6   12.79    2.08
  -5  -5   6   44.32    3.52
  -5  -5   6   41.79    3.96
  -5   5   6   40.51    2.67
   5   5  -6   37.05    2.81
   5   5  -6   40.32    3.14
  -5   5   6   42.13    2.75
   5   5  -6   38.00    3.86
  -4  -5   6  122.02    5.49
  -4  -5   6  129.68    5.77
  -4   5   6  118.88    4.46
  -4   5   6  128.06    4.51
   4   5  -6  116.97    5.31
   4   5  -6  111.04    5.35
   4   5  -6  118.83    5.19
  -3  -5   6  107.00    4.80
  -3  -5   6  109.95    5.02
   3   5  -6  104.86    4.92
   3   5  -6  108.21    4.79
  -3   5   6  111.58    4.18
  -3   5   6  121.76    3.79
   3   5  -6  108.20    3.77
  -3   5   6  116.07    3.97
  -2  -5   6   71.62    3.62
   2  -5  -6   74.86    2.48
  -2  -5   6   72.08    3.79
  -2  -5   6   76.99    3.96
  -2   5   6   89.10    3.86
  -2   5   6   81.19    2.96
   2   5  -6   89.18    4.24
  -2   5   6   87.40    2.49
   2   5  -6   85.45    4.03
  -2   5   6   87.12    2.41
  -1  -5   6   37.97    2.50
  -1  -5   6   33.73    2.50
  -1  -5   6   36.86    2.57
  -1  -5   6   34.40    2.35
   1   5  -6   37.79    2.63
   1   5  -6   37.12    2.33
  -1   5   6   42.34    2.62
  -1   5   6   34.29    1.55
   1   5  -6   34.41    2.44
   1   5  -6   33.62    2.32
   0  -5   6   81.66    3.95
   0  -5   6   85.00    3.94
   0  -5   6   82.83    4.05
   0  -5   6   77.00    3.67
   0   5   6   68.92    3.70
   0   5  -6   67.43    3.53
   0   5  -6   72.31    3.53
   0   5  -6   71.08    3.71
   0   5  -6   67.02    3.21
   0   5   6   69.58    3.54
   1  -5   6   59.90    3.28
   1  -5   6   61.85    3.25
   1  -5   6   55.91    3.34
   1  -5   6   61.54    3.55
  -1  -5  -6   58.83    2.25
   1   5   6   54.76    3.19
  -1   5  -6   57.50    3.39
  -1   5  -6   63.40    3.41
  -1   5  -6   50.49    2.80
   1   5   6   55.26    1.95
  -1   5  -6   58.49    3.21
   1   5   6   55.25    3.41
   2  -5   6   59.17    3.32
  -2  -5  -6   62.11    2.77
   2  -5   6   53.73    3.42
   2  -5   6   57.22    3.42
   2   5   6   61.32    3.54
  -2   5  -6   63.23    3.56
  -2   5  -6   63.44    3.29
   2   5   6   61.66    3.79
  -2   5  -6   64.78    3.77
   2   5   6   66.33    2.75
  -2   5  -6   65.94    3.69
   3  -5   6   45.00    3.20
  -3  -5  -6   45.83    2.74
   3  -5   6   47.10    3.37
   3  -5   6   46.98    3.15
   3   5   6   53.49    3.64
  -3   5  -6   54.83    3.58
  -3   5  -6   46.95    3.23
   3   5   6   52.93    2.84
   3   5   6   51.35    3.39
  -3   5  -6   48.75    3.12
   4  -5   6   12.93    2.10
   4  -5   6   12.79    2.19
  -4  -5  -6   13.06    2.00
   4  -5   6   18.58    2.86
   4   5   6   10.89    1.77
  -4   5  -6   13.39    2.33
   4   5   6   14.20    2.30
   4   5   6   15.14    2.58
  -4   5  -6    9.38    1.83
  -4   5  -6   11.26    1.91
   5  -5   6    1.75    1.26
   5  -5   6    1.25    1.05
  -5  -5  -6    4.85    1.51
   5  -5   6    3.30    1.39
  -5   5  -6    1.61    1.20
  -5   5  -6    2.08    1.02
   5   5   6    0.95    0.78
  -5   5  -6    0.08    0.77
   5   5   6   -0.37    0.72
   5   5   6    1.41    1.19
  -5  -6   6    1.12    0.98
  -5  -6   6    3.01    1.22
  -5   6   6    0.92    0.64
   5   6  -6    0.30    0.70
   5   6  -6    0.96    0.82
   5   6  -6    0.84    0.77
  -5   6   6    0.45    0.54
  -4  -6   6    0.27    0.64
  -4  -6   6    1.25    0.90
  -4   6   6    0.98    0.56
   4   6  -6    2.11    0.97
  -4   6   6    0.07    0.45
   4   6  -6    1.50    0.83
   4   6  -6    0.18    0.63
  -3  -6   6    2.59    0.99
  -3  -6   6    5.66    1.36
   3   6  -6    4.58    1.31
   3   6  -6    3.72    1.21
  -3   6   6    4.25    0.76
  -3   6   6    2.56    0.92
   3   6  -6    2.58    0.92
  -3   6   6    4.26    0.90
  -2  -6   6    4.48    1.19
  -2  -6   6    3.70    1.04
  -2  -6   6    5.73    1.25
  -2  -6   6    5.02    1.30
   2  -6  -6    4.67    0.65
  -2   6   6    6.80    0.97
  -2   6   6    5.56    1.18
   2   6  -6    8.44    1.50
  -2   6   6    7.76    0.48
   2   6  -6    7.82    1.52
   2   6  -6    5.61    1.32
  -1  -6   6   26.70    2.74
  -1  -6   6   25.27    2.71
  -1  -6   6   21.09    2.32
  -1  -6   6   23.80    2.51
  -1   6   6   29.20    2.34
   1   6  -6   27.13    2.83
   1   6  -6   30.50    2.47
   1   6  -6   26.97    2.58
  -1   6   6   28.03    1.60
   0  -6   6    7.85    1.44
   0  -6   6    6.34    1.41
   0  -6   6    4.24    1.12
   0  -6   6    6.62    1.38
   0  -6  -6    6.72    0.49
   0   6  -6    4.17    1.14
   0   6  -6    4.66    1.14
   0   6   6    3.68    1.05
   0   6   6    4.04    1.21
   0   6  -6    4.42    1.11
   0   6  -6    3.85    1.10
   1  -6   6   24.26    2.55
   1  -6   6   28.97    2.96
  -1  -6  -6   21.92    1.32
   1  -6   6   23.10    2.44
  -1   6  -6   21.46    2.49
   1   6   6   20.42    2.65
  -1   6  -6   18.55    2.15
   1   6   6   18.19    0.96
   1   6   6   16.93    2.24
  -1   6  -6   17.94    2.15
  -2  -6  -6  110.77    4.16
   2  -6   6  117.25    5.25
   2  -6   6  113.02    5.42
   2  -6   6  106.78    4.99
   2   6   6  110.44    3.80
   2   6   6  106.42    5.05
  -2   6  -6  107.51    5.19
   2   6   6  111.28    5.50
  -2   6  -6  114.64    5.10
  -2   6  -6  100.37    4.65
  -3  -6  -6   40.75    2.68
   3  -6   6   48.10    3.42
   3  -6   6   46.69    3.29
   3  -6   6   46.34    3.51
  -3   6  -6   50.11    3.56
   3   6   6   45.90    3.36
  -3   6  -6   46.84    3.32
  -3   6  -6   47.58    3.18
   3   6   6   46.76    2.68
   3   6   6   43.27    3.46
   4  -6   6    0.01    0.70
   4  -6   6    0.21    0.74
  -4  -6  -6    0.22    0.64
   4  -6   6    0.39    0.88
  -4   6  -6    0.51    0.80
   4   6   6   -0.10    0.61
  -4   6  -6    0.18    0.68
   4   6   6    0.56    0.66
   4   6   6   -0.19    0.67
  -4   6  -6    0.23    0.63
  -5  -7   6   49.63    3.83
  -5  -7   6   45.55    4.60
   5   7  -6   34.43    3.87
   5   7  -6   43.79    4.16
   5   7  -6   37.85    3.85
  -5   7   6   39.36    2.68
  -4  -7   6   29.12    3.36
  -4  -7   6   31.96    3.44
   4   7  -6   30.88    3.33
  -4   7   6   31.65    2.37
   4   7  -6   32.96    3.52
  -4   7   6   29.18    1.99
   4   7  -6   33.47    3.61
  -3  -7   6   13.67    2.18
  -3  -7   6   20.78    2.70
   3   7  -6   15.72    2.35
  -3   7   6   20.09    1.31
   3   7  -6   18.65    2.53
   3   7  -6   16.38    2.30
  -2  -7   6   75.96    4.12
  -2  -7   6   74.38    4.24
  -2  -7   6   72.83    3.99
   2   7  -6   71.67    3.89
   2   7  -6   65.74    3.97
   2   7  -6   65.51    3.70
  -2   7   6   63.79    3.56
   2   7  -6   62.61    3.84
   1  -7  -6   82.53    2.58
  -1  -7   6   83.16    4.29
  -1  -7   6   95.08    4.82
  -1  -7   6   93.17    4.66
   1  -7  -6   84.58    2.61
  -1  -7   6   82.80    4.32
  -1   7   6   83.52    4.36
   1   7  -6   89.30    4.32
   1   7  -6   89.40    4.57
   1   7  -6   84.73    4.27
   0  -7   6   57.31    3.45
   0  -7   6   54.60    3.46
   0  -7   6   62.39    3.70
   0  -7   6   58.45    3.74
   0  -7  -6   54.64    2.01
   0   7   6   64.80    3.99
   0   7  -6   70.91    4.02
   0   7  -6   71.55    3.77
   0   7   6   57.81    3.64
   0   7  -6   73.60    3.88
   1  -7   6   48.72    3.22
   1  -7   6   45.27    3.30
  -1  -7  -6   46.58    2.16
   1  -7   6   51.27    3.38
   1   7   6   46.43    3.27
  -1   7  -6   47.22    3.30
   1   7   6   46.27    3.44
  -1   7  -6   44.33    2.96
  -1   7  -6   41.31    2.94
   1   7   6   50.17    1.68
   2  -7   6   26.76    3.01
   2  -7   6   27.05    3.20
   2  -7   6   28.07    3.09
  -2  -7  -6   24.66    1.82
  -2   7  -6   24.60    2.74
  -2   7  -6   20.74    2.71
   2   7   6   23.54    1.55
   2   7   6   27.21    3.10
  -2   7  -6   25.38    2.82
   2   7   6   25.92    3.26
  -3  -7  -6    7.11    1.38
   3  -7   6   11.41    2.19
   3  -7   6    9.21    1.98
   3  -7   6    6.12    1.57
  -3   7  -6    6.97    1.60
   3   7   6    8.34    2.00
   3   7   6    7.70    1.75
  -3   7  -6    7.93    1.75
   3   7   6    5.91    1.14
  -3   7  -6    8.01    1.69
  -4  -7  -6   25.22    2.88
   4  -7   6   26.86    3.42
   4  -7   6   34.40    3.89
   4   7   6   29.19    2.85
  -4   7  -6   27.26    3.48
   4   7   6   27.72    3.71
  -4   7  -6   24.90    3.08
  -4   7  -6   16.81    2.58
   4   7   6   32.27    3.83
  -4  -8   6    5.32    1.57
   4   8  -6    6.11    1.55
  -4   8   6    4.52    1.01
   4   8  -6    5.00    1.65
   4   8  -6    4.59    1.52
  -3  -8   6   18.86    2.70
  -3  -8   6   16.49    2.62
   3   8  -6   16.22    2.55
   3   8  -6   15.10    2.47
   3   8  -6   15.12    2.32
  -3   8   6   15.64    1.16
  -2  -8   6   15.86    2.25
  -2  -8   6   17.00    2.41
   2  -8  -6   10.73    1.22
  -2  -8   6    8.57    1.79
   2   8  -6   13.76    2.04
   2   8  -6   15.56    2.26
   2   8  -6   16.16    2.43
  -2   8   6   21.27    2.58
   2   8  -6   14.42    2.28
  -1  -8   6    3.03    1.08
   1  -8  -6    3.41    0.60
  -1  -8   6    2.93    1.20
  -1  -8   6    2.85    1.15
   1   8  -6    3.50    1.16
   1   8  -6    4.12    1.22
   1   8  -6    5.48    1.49
   1   8  -6    3.98    1.28
  -1   8   6    4.49    1.32
   0  -8   6   23.52    2.83
   0  -8   6   21.04    2.65
   0  -8  -6   16.53    1.15
   0  -8   6   18.25    2.47
   0   8  -6   15.58    2.18
   0   8  -6   17.13    2.50
   0   8   6   13.97    2.30
   0   8  -6   15.65    2.24
   1  -8   6   40.76    3.11
   1  -8   6   40.83    3.14
   1  -8   6   40.91    3.24
  -1  -8  -6   39.59    2.13
   1   8   6   36.60    3.65
  -1   8  -6   41.90    3.95
   1   8   6   31.73    3.56
  -1   8  -6   35.11    2.81
  -1   8  -6   42.39    3.05
  -2  -8  -6   10.66    1.46
   2  -8   6   15.46    2.36
   2  -8   6   13.15    2.21
  -2   8  -6   11.28    2.03
   2   8   6   12.12    2.13
  -2   8  -6   16.63    2.56
  -2   8  -6   15.23    2.33
   2   8   6   16.29    1.53
   2   8   6   12.12    2.39
   3  -8   6    2.56    1.25
  -3  -8  -6    1.16    0.72
   3  -8   6    2.77    1.24
  -3   8  -6    5.96    1.81
  -3   8  -6    2.65    1.14
  -3   8  -6    4.78    1.48
   3   8   6    2.16    1.31
   3   8   6    5.43    1.60
   3   8   6    3.58    1.01
  -3  -9   6   51.37    3.88
   3  -9  -6   54.71    3.01
   3   9  -6   49.05    4.67
   3   9  -6   47.93    3.80
   3   9  -6   44.38    3.48
   2  -9  -6   30.97    1.93
  -2  -9   6   34.00    3.60
  -2  -9   6   28.21    3.21
   2   9  -6   37.96    4.00
   2   9  -6   28.79    3.21
  -2   9   6   36.79    2.98
   2   9  -6   34.36    3.53
   2   9  -6   34.75    3.79
  -1  -9   6   14.25    2.33
  -1  -9   6   15.53    2.45
   1  -9  -6   15.71    1.27
   1   9  -6   14.82    2.48
   1   9  -6   15.01    2.36
   1   9  -6   11.31    2.11
  -1   9   6   12.38    2.18
   1   9  -6   14.69    2.20
   0  -9   6   26.96    3.08
   0  -9  -6   27.82    1.71
   0  -9   6   28.78    3.28
   0   9  -6   31.16    3.52
   0   9  -6   24.30    2.91
   0   9   6   30.66    3.60
   0   9  -6   18.80    2.69
   1  -9   6   38.56    3.94
   1  -9   6   36.17    3.83
  -1  -9  -6   36.26    2.20
  -1   9  -6   29.18    3.23
  -1   9  -6   37.67    3.88
   1   9   6   34.03    3.97
  -1   9  -6   27.75    3.26
   1   9   6   40.46    4.04
  -1   9  -6   29.81    3.18
  -2  -9  -6   12.70    1.68
   2  -9   6   14.11    2.53
   2  -9   6   11.66    2.17
  -2   9  -6    9.99    2.02
  -2   9  -6    9.31    2.06
   2   9   6   13.28    2.66
  -2   9  -6   13.04    2.32
   2   9   6    9.49    2.10
   2   9   6   13.49    1.38
  -2 -10   6    4.02    1.45
   2 -10  -6    2.58    0.81
  -2 -10   6    3.91    1.42
   2  10  -6    4.97    1.56
   2  10  -6    3.86    1.26
   2  10  -6    2.08    1.13
  -2  10   6    2.47    1.20
   2  10  -6    2.17    1.17
  -1 -10   6    7.63    1.83
   1 -10  -6    8.12    1.22
  -1 -10   6   10.20    2.11
   1  10  -6    9.12    2.05
  -1  10   6    7.06    1.83
   1  10  -6   10.07    2.08
   1  10  -6    7.46    1.65
   1  10  -6    9.07    2.13
   0 -10   6   12.32    2.32
   0 -10   6   12.86    2.37
   0 -10  -6    9.84    1.35
   0  10  -6    9.90    2.13
   0  10  -6   14.00    2.44
   0  10  -6   10.18    2.15
   0  10   6   15.05    2.66
   0  10  -6   15.52    2.39
   1 -10   6    6.48    1.85
   1 -10   6    9.53    2.02
  -1 -10  -6    5.23    1.07
   1  10   6    4.72    1.74
  -1  10  -6    7.47    1.88
  -1  10  -6    4.18    1.45
  -1  10  -6    6.80    1.78
   1  10   6    6.60    1.91
   6   0  -7   63.75    3.93
  -6   0   7   62.52    4.05
  -6   0   7   64.82    3.59
  -6   0   7   67.81    3.80
  -5   0   7   49.69    2.83
   5   0  -7   56.09    3.36
  -5   0   7   53.45    3.02
  -5   0   7   48.92    3.25
  -4   0   7    8.31    1.19
   4   0  -7    9.73    1.52
  -4   0   7    7.33    1.32
  -3   0   7    3.54    0.71
   3   0  -7    3.95    0.87
  -3   0   7    3.75    0.86
  -2   0   7  138.78    4.73
  -2   0   7  147.11    4.24
   2   0  -7  142.46    4.92
   1   0  -7  323.10    9.00
  -1   0   7  328.70    8.00
   1   0  -7  341.19    8.63
  -1   0   7  328.48    8.72
   1   0  -7  320.87    8.99
   1   0  -7  338.20    8.60
   0   0   7  116.92    4.05
   0   0  -7  117.35    4.20
   0   0  -7  118.76    3.94
   0   0  -7  117.31    2.85
   0   0   7  114.50    3.47
   0   0  -7  107.43    4.02
   0   0  -7  113.83    4.10
   1   0   7    0.62    0.41
   1   0   7    0.39    0.33
  -1   0  -7    0.23    0.32
   1   0   7    0.54    0.26
  -1   0  -7    0.60    0.42
  -1   0  -7    0.46    0.26
   1   0   7   -0.01    0.25
  -2   0  -7   -0.05    0.27
  -2   0  -7    0.29    0.43
   2   0   7    0.18    0.26
  -2   0  -7    0.07    0.35
   2   0   7    0.60    0.48
   2   0   7    0.27    0.39
   2   0   7    0.18    0.36
  -3   0  -7   51.23    2.98
  -3   0  -7   50.26    2.49
   3   0   7   47.88    2.36
   3   0   7   49.75    2.67
   3   0   7   45.81    2.67
   3   0   7   47.11    3.00
  -3   0  -7   49.00    3.03
  -4   0  -7   62.24    3.24
   4   0   7   62.08    3.02
  -4   0  -7   60.89    3.81
   4   0   7   58.87    3.32
   4   0   7   62.42    3.47
   4   0   7   58.45    3.78
  -4   0  -7   65.02    3.76
  -5   0  -7    7.82    1.81
  -5   0  -7   11.66    2.26
  -5   0  -7   10.60    1.83
   5   0   7    9.71    1.81
   5   0   7    4.39    1.08
   5   0   7    7.08    1.78
   5   0   7    4.99    1.26
  -6  -1   7    0.91    0.70
   6  -1  -7    0.40    0.73
  -6  -1   7   -0.22    0.50
  -6   1   7    1.00    0.79
   6   1  -7    0.86    0.79
  -6   1   7    0.21    0.48
  -6   1   7    0.03    0.57
  -5  -1   7   37.70    2.57
   5  -1  -7   38.54    2.72
  -5  -1   7   37.02    2.85
  -5   1   7   41.57    2.57
  -5   1   7   40.13    2.84
   5   1  -7   39.93    2.87
  -5   1   7   41.64    2.39
  -4  -1   7   41.45    2.43
   4  -1  -7   35.92    2.34
  -4  -1   7   40.79    2.73
   4   1  -7   41.56    2.69
  -4   1   7   41.81    2.11
  -4   1   7   43.61    2.62
  -4   1   7   44.34    2.32
  -3  -1   7   19.34    1.82
  -3  -1   7   16.78    1.87
   3  -1  -7   21.24    1.56
  -3   1   7   14.63    1.00
   3   1  -7   15.26    1.78
  -3   1   7   14.95    1.34
  -3   1   7   13.57    1.52
  -2  -1   7   72.32    3.23
   2  -1  -7   71.98    2.96
   2  -1  -7   71.95    2.83
   2  -1  -7   70.89    2.96
  -2  -1   7   74.89    2.94
   2   1  -7   65.06    3.16
  -2   1   7   69.60    2.08
   2   1  -7   72.32    3.11
  -2   1   7   68.10    1.98
  -2   1   7   67.85    2.78
  -1  -1   7  209.85    5.86
   1  -1  -7  210.54    5.68
  -1  -1   7  194.38    6.20
   1  -1  -7  205.11    5.97
   1  -1  -7  207.77    5.99
   1   1  -7  205.78    6.12
   1   1  -7  193.58    6.01
   1   1  -7  206.71    6.41
  -1   1   7  208.83    5.68
  -1   1   7  199.68    5.65
   0  -1   7   63.99    2.96
   0  -1  -7   64.94    2.70
   0  -1  -7   63.01    2.61
   0  -1  -7   69.59    2.61
   0  -1   7   67.95    2.73
   0   1  -7   60.32    2.80
   0   1  -7   62.39    2.84
   0   1   7   62.30    2.57
   0   1  -7   68.65    2.23
   0   1  -7   65.48    3.02
   0   1   7   68.13    2.76
   1  -1   7   25.54    1.64
   1  -1   7   20.24    1.33
   1  -1   7   19.16    1.98
  -1  -1  -7   23.86    1.54
  -1  -1  -7   21.79    1.55
   1  -1   7   23.02    1.33
   1   1   7   27.71    1.76
  -1   1  -7   27.62    1.97
  -1   1  -7   27.76    1.91
   1   1   7   29.44    1.78
  -1   1  -7   29.24    1.48
   1   1   7   25.18    1.21
  -1   1  -7   24.76    1.77
  -2  -1  -7   50.62    2.77
  -2  -1  -7   46.53    2.52
   2  -1   7   49.67    2.57
   2  -1   7   48.75    2.32
  -2  -1  -7   53.18    2.11
   2  -1   7   43.91    2.73
   2  -1   7   47.55    2.34
   2   1   7   45.83    2.52
   2   1   7   42.91    2.01
   2   1   7   43.59    2.51
  -2   1  -7   47.71    2.21
  -2   1  -7   41.49    2.52
  -2   1  -7   46.36    2.78
  -3  -1  -7   83.46    4.05
   3  -1   7   84.27    3.85
   3  -1   7   81.34    4.17
   3  -1   7   84.63    3.57
  -3  -1  -7   83.22    3.86
  -3  -1  -7   83.41    3.34
   3  -1   7   84.34    3.54
   3   1   7   72.35    2.63
   3   1   7   68.88    3.52
  -3   1  -7   80.44    3.37
   3   1   7   74.04    3.76
  -3   1  -7   77.77    4.05
  -3   1  -7   72.52    3.72
   3   1   7   75.66    3.20
  -4  -1  -7   66.45    3.66
  -4  -1  -7   71.33    3.90
   4  -1   7   80.67    4.04
   4  -1   7   76.14    3.62
   4  -1   7   70.07    4.22
  -4  -1  -7   75.14    4.19
   4  -1   7   70.62    3.67
  -4   1  -7   69.14    3.53
   4   1   7   68.94    3.81
  -4   1  -7   71.05    4.23
  -4   1  -7   64.32    3.80
   4   1   7   67.56    3.40
   4   1   7   75.05    3.01
   4   1   7   70.92    4.01
   5  -1   7   44.63    2.98
  -5  -1  -7   40.44    3.82
  -5  -1  -7   43.86    4.31
   5  -1   7   41.88    4.29
   5  -1   7   43.18    4.31
   5  -1   7   53.86    3.55
  -5   1  -7   44.79    3.08
   5   1   7   42.09    2.90
   5   1   7   39.50    3.88
   5   1   7   40.55    3.16
  -5   1  -7   40.20    3.83
  -5   1  -7   39.36    4.03
  -6  -2   7   42.48    3.15
  -6  -2   7   45.16    3.59
  -6   2   7   45.44    2.62
  -6   2   7   42.37    3.18
  -6   2   7   36.86    2.79
   6   2  -7   42.97    3.36
  -5  -2   7   71.76    3.83
  -5  -2   7   71.86    4.18
  -5   2   7   72.44    3.77
  -5   2   7   77.09    3.13
   5   2  -7   70.04    3.95
  -5   2   7   70.46    3.47
  -4  -2   7   50.75    3.20
  -4  -2   7   52.26    2.99
  -4   2   7   46.74    1.98
  -4   2   7   49.40    2.47
  -4   2   7   48.20    2.72
   4   2  -7   53.60    3.12
  -3  -2   7   72.30    3.30
  -3  -2   7   66.96    3.46
  -3   2   7   67.64    2.51
   3   2  -7   70.58    3.40
  -3   2   7   72.92    2.99
   3   2  -7   64.29    3.31
   2  -2  -7  128.38    4.09
   2  -2  -7  125.47    4.08
  -2  -2   7  125.79    4.77
  -2  -2   7  119.13    4.43
   2   2  -7  124.29    4.60
  -2   2   7  121.31    3.02
  -2   2   7  116.92    3.76
   2   2  -7  120.82    4.81
  -1  -2   7   74.30    3.36
   1  -2  -7   76.10    2.64
   1  -2  -7   77.71    2.67
  -1  -2   7   69.33    3.03
  -1   2   7   74.82    2.56
   1   2  -7   66.92    3.33
   1   2  -7   76.94    2.76
   1   2  -7   78.65    3.35
   1   2  -7   75.75    3.33
  -1   2   7   78.17    2.58
   0  -2  -7   95.72    3.24
   0  -2   7   96.03    3.53
   0  -2   7   97.65    3.97
   0  -2   7   97.90    3.74
   0  -2  -7  102.23    3.34
   0   2  -7   91.09    3.99
   0   2  -7  105.73    4.07
   0   2   7  100.36    3.16
   0   2   7   97.10    3.18
   0   2  -7  103.74    3.98
   0   2   7   94.52    3.74
   0   2  -7  102.18    3.32
   1  -2   7   72.16    3.20
   1  -2   7   69.38    3.39
  -1  -2  -7   67.17    2.80
   1  -2   7   70.23    2.96
  -1   2  -7   70.76    2.75
  -1   2  -7   72.38    3.49
   1   2   7   66.89    3.10
  -1   2  -7   76.59    3.45
  -1   2  -7   59.87    3.09
   1   2   7   67.54    2.75
   2  -2   7   23.13    2.37
   2  -2   7   23.27    1.85
   2  -2   7   20.22    1.64
  -2  -2  -7   23.50    1.76
  -2   2  -7   20.48    2.24
  -2   2  -7   17.12    1.72
  -2   2  -7   17.95    1.98
   2   2   7   16.88    1.77
   2   2   7   20.97    2.19
   2   2   7   19.14    1.03
  -2   2  -7   14.67    1.86
   3  -2   7   16.30    1.98
   3  -2   7   18.56    2.31
  -3  -2  -7   24.45    2.04
   3  -2   7   24.79    1.95
  -3   2  -7   22.12    2.13
   3   2   7   22.07    2.42
   3   2   7   24.93    1.55
  -3   2  -7   31.96    3.00
   3   2   7   25.99    2.50
  -3   2  -7   22.41    2.54
   4  -2   7    8.64    1.88
   4  -2   7    6.00    1.40
   4  -2   7    5.44    1.26
  -4  -2  -7    6.32    1.42
  -4   2  -7    6.99    1.35
   4   2   7    5.38    1.37
   4   2   7    7.18    1.54
   4   2   7   10.00    1.38
  -4   2  -7    7.31    1.70
  -4   2  -7   12.78    2.10
   5  -2   7   25.99    3.38
   5  -2   7   20.75    2.69
  -5  -2  -7   20.27    2.80
   5  -2   7   20.98    2.57
  -5   2  -7   18.54    2.67
  -5   2  -7   16.66    2.29
   5   2   7   22.01    3.00
   5   2   7   21.94    2.32
   5   2   7   15.08    2.39
  -6  -3   7    3.95    1.51
  -6  -3   7    3.24    1.12
  -6   3   7    2.19    0.93
   6   3  -7    6.09    1.60
  -6   3   7    2.68    1.11
  -5  -3   7    4.86    1.48
  -5  -3   7    4.81    1.27
  -5   3   7    5.90    1.30
   5   3  -7    8.45    1.67
  -5   3   7    3.60    0.96
  -4  -3   7   12.22    1.75
  -4  -3   7    9.64    1.71
  -4   3   7   11.84    1.51
   4   3  -7   14.60    2.06
   4   3  -7   12.65    1.90
  -4   3   7   11.55    1.40
  -3  -3   7   99.10    4.47
  -3  -3   7   94.90    4.16
  -3   3   7   82.65    3.19
   3   3  -7   90.45    4.06
   3   3  -7   82.95    3.96
  -3   3   7   88.91    2.98
   2  -3  -7   68.72    2.58
  -2  -3   7   72.53    3.37
  -2  -3   7   69.45    3.49
   2   3  -7   55.72    3.05
  -2   3   7   57.35    2.16
   2   3  -7   64.74    3.22
   2   3  -7   65.42    3.43
   1  -3  -7   34.60    1.42
  -1  -3   7   34.18    2.16
  -1  -3   7   36.76    2.12
  -1  -3   7   35.12    2.34
   1  -3  -7   33.25    1.41
  -1   3   7   39.75    2.55
   1   3  -7   46.01    2.22
   1   3  -7   45.40    2.57
  -1   3   7   41.26    1.48
   1   3  -7   45.80    2.72
  -1   3   7   41.74    1.50
   0  -3  -7  141.38    4.08
   0  -3   7  148.05    5.16
   0  -3   7  136.60    5.25
   0  -3   7  147.48    4.98
   0  -3  -7  145.51    4.12
   0   3   7  160.50    5.53
   0   3   7  159.62    6.09
   0   3   7  164.97    4.28
   0   3  -7  159.23    5.94
   0   3   7  161.45    4.24
   0   3  -7  165.68    5.68
   0   3  -7  156.70    5.66
   0   3  -7  168.65    5.04
   1  -3   7  129.19    4.93
  -1  -3  -7  133.06    4.24
   1  -3   7  129.88    5.20
   1  -3   7  131.66    4.77
   1   3   7  138.35    5.11
  -1   3  -7  141.53    5.22
   1   3   7  136.80    5.73
  -1   3  -7  132.01    5.20
  -1   3  -7  138.94    4.59
   1   3   7  132.63    4.13
  -1   3  -7  141.56    5.53
   2  -3   7   21.46    2.23
   2  -3   7   20.66    2.11
  -2  -3  -7   22.69    1.68
   2  -3   7   20.19    2.32
  -2   3  -7   16.42    2.00
   2   3   7   17.28    2.37
  -2   3  -7   16.43    2.09
   2   3   7   18.21    1.72
  -2   3  -7   15.25    1.72
   2   3   7   17.13    2.04
  -2   3  -7   15.58    2.01
   3  -3   7   13.88    2.16
   3  -3   7   21.17    2.36
   3  -3   7   17.22    2.23
  -3  -3  -7   15.33    1.95
   3   3   7   13.68    1.76
   3   3   7   13.93    2.21
  -3   3  -7   12.89    1.98
   3   3   7   14.70    2.02
  -3   3  -7   12.93    1.72
  -3   3  -7   20.75    2.64
   4  -3   7   81.11    4.42
   4  -3   7   73.30    4.02
  -4  -3  -7   80.65    4.34
   4  -3   7   85.89    4.90
   4   3   7   79.48    4.23
  -4   3  -7   78.19    4.02
  -4   3  -7   79.52    4.43
   4   3   7   75.92    4.31
   4   3   7   80.84    4.71
  -4   3  -7   80.28    4.90
   5  -3   7   48.24    3.45
  -5  -3  -7   52.07    3.81
   5  -3   7   36.89    3.78
   5  -3   7   48.90    4.82
   5   3   7   48.58    3.73
  -5   3  -7   49.80    3.42
  -5   3  -7   50.36    3.79
   5   3   7   47.52    3.57
  -6  -4   7   19.48    2.76
  -6  -4   7   16.87    2.64
   6   4  -7   24.38    3.18
  -6   4   7   28.03    2.88
  -6   4   7   26.65    2.89
  -5  -4   7   25.04    3.09
  -5  -4   7   26.49    2.91
   5   4  -7   37.66    3.64
  -5   4   7   30.83    2.37
  -5   4   7   31.91    2.26
  -4  -4   7   43.81    3.00
  -4  -4   7   45.13    3.19
   4   4  -7   37.26    2.85
  -4   4   7   39.22    2.30
  -4   4   7   39.63    2.21
   4   4  -7   42.33    3.07
  -3  -4   7   45.20    3.03
  -3  -4   7   44.43    2.87
   3   4  -7   46.06    2.93
  -3   4   7   44.14    2.06
   3   4  -7   45.07    2.98
  -2  -4   7   35.53    2.55
   2  -4  -7   35.20    1.57
  -2  -4   7   33.13    2.35
  -2   4   7   38.70    2.43
   2   4  -7   34.63    2.46
   2   4  -7   40.36    2.67
  -2   4   7   38.62    1.45
  -1  -4   7   20.52    2.29
  -1  -4   7   18.72    1.95
   1  -4  -7   21.14    0.86
   1  -4  -7   21.84    0.86
  -1  -4   7   21.45    2.24
   1   4  -7   20.40    2.17
   1   4  -7   17.07    1.77
   1   4  -7   19.22    2.09
   1   4  -7   18.40    2.15
  -1   4   7   16.67    2.02
   0  -4  -7   22.55    1.06
   0  -4   7   23.68    2.52
   0  -4   7   22.23    2.17
   0  -4   7   24.65    2.40
   0  -4  -7   23.32    1.04
   0   4   7   19.03    2.25
   0   4  -7   14.98    1.89
   0   4  -7   16.91    2.00
   0   4  -7   14.40    1.90
   0   4  -7   14.81    1.65
   0   4   7   15.16    1.86
   1  -4   7   29.74    2.15
  -1  -4  -7   31.47    1.65
   1  -4   7   31.00    2.42
   1  -4   7   31.30    2.31
  -1   4  -7   28.28    1.97
   1   4   7   34.58    2.72
  -1   4  -7   34.61    2.46
   1   4   7   33.37    2.40
   1   4   7   33.58    1.56
  -1   4  -7   34.98    2.49
   2  -4   7   75.66    3.91
   2  -4   7   74.63    3.79
   2  -4   7   80.14    4.23
  -2  -4  -7   80.64    3.40
  -2   4  -7   79.30    4.27
  -2   4  -7   78.62    3.99
   2   4   7   75.74    3.94
  -2   4  -7   79.96    4.13
   2   4   7   82.82    4.51
  -2   4  -7   77.60    3.57
   2   4   7   75.30    3.12
  -3  -4  -7   13.02    1.75
   3  -4   7   12.81    1.99
   3  -4   7   12.24    2.19
   3  -4   7   11.22    1.84
  -3   4  -7   13.19    2.21
  -3   4  -7   13.04    1.81
   3   4   7   10.95    1.55
   3   4   7   12.37    2.20
  -3   4  -7    9.16    1.69
  -3   4  -7    9.59    1.79
   3   4   7    8.35    1.68
  -4  -4  -7    1.60    0.90
   4  -4   7    3.93    1.42
   4  -4   7    0.96    0.83
   4  -4   7    1.45    0.91
  -4   4  -7    1.21    0.88
  -4   4  -7    0.53    0.76
   4   4   7    0.87    0.90
   4   4   7    1.53    0.82
   4   4   7    1.27    0.86
  -6  -5   7    8.62    2.04
  -6  -5   7    4.26    1.54
  -6   5   7    6.67    1.52
   6   5  -7    9.16    2.01
  -5  -5   7    4.51    1.38
  -5  -5   7    3.63    1.34
   5   5  -7    3.25    1.27
  -5   5   7    4.72    1.14
   5   5  -7    4.91    1.42
   5   5  -7    4.25    1.46
  -4  -5   7    7.09    1.65
  -4  -5   7    3.11    1.10
   4   5  -7    6.91    1.58
  -4   5   7    4.91    0.95
   4   5  -7    5.58    1.41
   4   5  -7    5.98    1.39
  -3  -5   7   17.22    2.29
  -3  -5   7   20.19    2.36
   3   5  -7   21.66    2.59
   3   5  -7   20.76    2.41
  -3   5   7   22.53    1.33
  -2  -5   7   24.08    2.50
  -2  -5   7   21.42    2.47
   2  -5  -7   30.89    1.36
  -2   5   7   29.01    2.23
   2   5  -7   29.93    2.39
   2   5  -7   32.68    2.56
  -1  -5   7   45.22    2.73
  -1  -5   7   39.43    2.81
  -1  -5   7   39.32    2.69
   1   5  -7   39.86    2.68
   1   5  -7   42.02    2.82
  -1   5   7   38.21    2.72
   1   5  -7   41.03    2.51
   1   5  -7   36.44    2.75
   0  -5  -7   57.40    1.75
   0  -5   7   56.34    3.38
   0  -5  -7   56.55    1.74
   0  -5   7   59.52    3.18
   0  -5   7   54.67    3.22
   0   5  -7   54.25    3.24
   0   5   7   47.01    2.97
   0   5  -7   47.94    2.97
   0   5  -7   49.81    2.80
   0   5  -7   52.15    3.28
   0   5   7   50.71    3.28
   1  -5   7   34.04    2.46
  -1  -5  -7   34.54    1.70
   1  -5   7   36.85    2.79
   1  -5   7   35.02    2.58
   1   5   7   26.01    2.71
  -1   5  -7   35.68    2.35
   1   5   7   28.27    3.05
  -1   5  -7   33.90    2.70
  -1   5  -7   34.49    3.22
  -1   5  -7   30.99    2.46
   1   5   7   33.06    1.39
   2  -5   7   73.74    3.90
   2  -5   7   70.18    4.14
  -2  -5  -7   66.48    3.07
   2  -5   7   70.08    3.93
   2   5   7   59.73    4.01
   2   5   7   71.50    3.95
  -2   5  -7   69.79    3.91
  -2   5  -7   70.86    3.59
  -2   5  -7   63.65    3.91
   2   5   7   74.55    2.93
   3  -5   7   43.60    3.38
  -3  -5  -7   41.63    2.69
   3  -5   7   40.08    3.13
   3  -5   7   40.28    3.00
  -3   5  -7   34.79    2.66
   3   5   7   45.11    3.57
   3   5   7   35.97    2.32
  -3   5  -7   38.52    3.70
   3   5   7   34.84    3.42
  -3   5  -7   33.51    3.30
   4  -5   7    2.92    1.21
  -4  -5  -7    4.60    1.29
   4  -5   7    6.20    1.87
   4  -5   7    5.93    1.53
   4   5   7    7.28    1.74
   4   5   7    8.09    2.00
  -4   5  -7    5.72    1.40
   4   5   7    8.20    1.65
  -4   5  -7    5.91    1.87
  -4   5  -7    8.13    1.84
  -5  -6   7   15.11    2.42
  -5  -6   7   13.97    2.59
   5   6  -7   18.47    2.82
   5   6  -7   15.25    2.46
   5   6  -7   17.84    2.66
  -5   6   7   15.92    2.00
  -4  -6   7   32.11    3.55
  -4  -6   7   25.69    2.93
  -4   6   7   26.89    1.78
   4   6  -7   23.01    2.87
   4   6  -7   27.45    3.24
   4   6  -7   23.63    2.84
  -3  -6   7   31.45    3.32
  -3  -6   7   39.31    2.99
   3   6  -7   36.31    2.83
  -3   6   7   35.86    1.61
   3   6  -7   33.17    3.36
   2  -6  -7   23.50    1.23
  -2  -6   7   25.02    2.67
  -2  -6   7   23.95    2.80
   2   6  -7   26.23    2.77
  -2   6   7   23.68    2.57
   2   6  -7   31.54    3.21
  -1  -6   7   23.52    2.55
  -1  -6   7   26.25    2.65
  -1  -6   7   27.33    2.93
   1   6  -7   25.23    2.51
   1   6  -7   27.89    2.88
   1   6  -7   25.08    2.54
  -1   6   7   28.98    2.96
   0  -6   7   26.90    2.79
   0  -6   7   27.58    2.79
   0  -6   7   29.81    3.04
   0  -6  -7   30.57    1.12
   0   6   7   25.48    2.77
   0   6  -7   30.43    2.82
   0   6  -7   27.96    2.84
   0   6   7   27.59    3.03
   0   6  -7   23.89    2.68
   1  -6   7   17.29    2.25
   1  -6   7   20.17    2.35
   1  -6   7   22.24    2.71
  -1  -6  -7   21.57    1.32
   1   6   7   18.70    2.44
  -1   6  -7   19.61    2.24
   1   6   7   19.24    2.69
  -1   6  -7   22.21    2.73
  -1   6  -7   17.09    2.24
   1   6   7   19.96    0.85
  -2  -6  -7    7.45    1.14
   2  -6   7    9.78    1.94
   2  -6   7    6.69    1.44
   2  -6   7    6.89    1.54
   2   6   7    3.81    1.28
  -2   6  -7    4.39    1.40
  -2   6  -7    5.24    1.25
   2   6   7    6.76    1.69
   2   6   7    5.68    0.90
  -2   6  -7    7.26    1.56
   3  -6   7    5.81    1.61
   3  -6   7    8.04    1.83
  -3  -6  -7    6.54    1.33
   3  -6   7    6.61    1.58
   3   6   7    9.69    2.18
  -3   6  -7    8.74    1.93
   3   6   7    8.66    1.35
  -3   6  -7    6.86    1.71
  -3   6  -7    6.44    1.48
   3   6   7    7.74    1.80
   4  -6   7    1.66    1.09
  -4  -6  -7    2.98    1.10
   4  -6   7    2.09    1.19
   4  -6   7    3.66    1.50
   4   6   7    3.03    1.56
   4   6   7    2.38    1.28
   4   6   7    3.72    1.18
  -4   6  -7    1.98    1.01
  -4   6  -7    3.98    1.47
  -4   6  -7    2.60    1.17
  -5  -7   7    9.34    2.30
  -5  -7   7   12.43    2.23
   5   7  -7   11.96    2.29
   5   7  -7   11.41    2.22
   5   7  -7    6.33    1.78
  -5   7   7   10.70    1.60
  -4  -7   7    0.29    0.86
  -4  -7   7    0.33    0.75
   4   7  -7    1.00    0.80
  -4   7   7    0.03    0.42
   4   7  -7    0.35    0.64
   4   7  -7    0.29    0.63
  -3  -7   7    3.44    1.26
  -3  -7   7    2.33    1.12
   3   7  -7    1.06    0.78
   3   7  -7    3.36    1.28
   3   7  -7    1.59    0.97
  -2  -7   7   25.43    2.81
  -2  -7   7   30.33    3.11
  -2  -7   7   23.60    2.96
   2   7  -7   26.77    2.78
   2   7  -7   24.96    2.99
  -2   7   7   21.70    2.50
   2   7  -7   24.31    2.78
  -1  -7   7   51.40    3.52
  -1  -7   7   51.33    3.31
   1  -7  -7   43.03    1.41
   1  -7  -7   42.03    1.41
  -1  -7   7   45.78    3.21
  -1   7   7   45.21    3.22
   1   7  -7   41.34    2.95
   1   7  -7   47.33    3.36
   0  -7   7   43.20    3.11
   0  -7   7   41.70    3.00
   0  -7   7   48.36    3.40
   0  -7  -7   40.51    1.55
   0   7  -7   43.39    3.24
   0   7  -7   44.51    3.00
   0   7  -7   48.91    3.31
   0   7   7   49.12    3.53
   0   7   7   41.32    3.89
   1  -7   7   36.79    2.89
   1  -7   7   34.18    3.56
  -1  -7  -7   35.01    1.82
   1  -7   7   39.60    3.02
   1   7   7   40.09    4.13
   1   7   7   35.70    3.56
  -1   7  -7   40.24    3.17
  -1   7  -7   30.96    3.14
  -1   7  -7   37.89    2.78
   2  -7   7   22.75    2.84
  -2  -7  -7   21.26    1.73
   2  -7   7   22.21    2.78
   2  -7   7   20.31    2.78
   2   7   7   25.40    3.23
  -2   7  -7   21.61    2.90
   2   7   7   21.39    2.84
  -2   7  -7   22.75    2.79
   2   7   7   22.60    1.42
  -2   7  -7   26.45    2.92
   3  -7   7   24.16    3.13
  -3  -7  -7   21.48    2.30
   3  -7   7   17.89    2.62
   3  -7   7   19.61    3.00
  -3   7  -7   16.36    2.47
   3   7   7   20.45    2.04
   3   7   7   23.60    3.37
   3   7   7   19.14    2.84
  -3   7  -7   17.12    2.43
  -3   7  -7   17.19    2.79
  -4  -8   7   15.70    2.55
   4   8  -7   20.78    2.92
   4   8  -7   16.62    2.53
  -4   8   7   18.10    1.41
   4   8  -7   23.55    3.34
  -3  -8   7   17.93    2.66
  -3  -8   7   19.99    2.95
   3   8  -7   15.81    2.58
   3   8  -7   22.50    3.10
   3   8  -7   22.01    2.88
  -2  -8   7    7.75    1.68
  -2  -8   7    8.01    1.86
  -2  -8   7   12.92    2.21
   2   8  -7    7.92    1.81
   2   8  -7   11.51    2.01
   2   8  -7    9.01    1.88
   2   8  -7   10.69    1.94
  -2   8   7    8.91    1.72
   1  -8  -7   11.67    0.83
  -1  -8   7   13.15    2.18
  -1  -8   7   11.89    2.02
  -1  -8   7   17.11    2.49
   1   8  -7   17.93    2.44
   1   8  -7   17.45    2.56
  -1   8   7   20.55    2.83
   1   8  -7   15.25    2.35
   0  -8   7   14.73    2.30
   0  -8   7   16.65    2.60
   0  -8  -7   13.71    0.97
   0  -8   7   17.69    2.51
   0   8  -7   13.30    2.29
   0   8  -7   12.58    2.02
   0   8  -7   13.42    2.10
   0   8   7   13.67    2.37
   1  -8   7    7.31    1.67
   1  -8   7    9.25    2.01
  -1  -8  -7    6.81    0.97
   1  -8   7    4.29    1.43
  -1   8  -7    7.65    1.64
  -1   8  -7    7.27    1.75
   1   8   7    5.18    1.58
   1   8   7    6.95    1.67
  -1   8  -7    8.68    1.81
   2  -8   7    4.59    1.50
   2  -8   7    4.10    1.50
   2  -8   7    1.11    1.06
  -2  -8  -7    2.85    0.84
   2   8   7    6.70    1.81
   2   8   7    3.85    1.51
  -2   8  -7    1.53    0.91
  -2   8  -7    2.89    1.22
  -2   8  -7    1.46    0.96
   3  -9  -7   28.01    2.04
  -3  -9   7   24.95    3.34
   3   9  -7   21.17    3.09
   3   9  -7   25.37    3.20
   3   9  -7   23.88    3.31
   2  -9  -7    8.18    1.08
  -2  -9   7    9.83    2.05
  -2  -9   7    7.54    1.85
   2   9  -7    8.47    1.85
   2   9  -7    5.79    1.71
   2   9  -7    6.28    1.69
  -2   9   7    7.96    1.84
   2   9  -7    8.68    1.91
  -1  -9   7    4.18    1.45
  -1  -9   7    5.10    1.44
   1  -9  -7    6.23    0.86
  -1   9   7    4.54    1.45
   1   9  -7    6.89    1.87
   1   9  -7    3.32    1.35
   1   9  -7    4.48    1.42
   1   9  -7    3.37    1.29
   0  -9   7   19.15    2.74
   0  -9  -7   19.01    1.32
   0  -9   7   21.64    2.87
   0   9   7   20.07    3.12
   0   9  -7   11.22    2.23
   0   9  -7   16.44    2.44
   1  -9   7   22.80    3.05
  -1  -9  -7   17.37    1.44
   1  -9   7   19.79    2.93
  -1   9  -7   18.63    2.79
  -1   9  -7   16.16    2.53
   1   9   7   17.75    2.81
  -1   9  -7   15.25    2.36
   1   9   7   17.58    2.87
  -6   0   8   17.32    2.28
  -6   0   8   13.59    1.89
   6   0  -8   10.43    1.95
  -6   0   8   12.08    2.20
  -5   0   8   16.80    2.30
  -5   0   8   15.25    1.89
  -5   0   8   12.64    1.59
   5   0  -8   11.71    1.84
  -4   0   8   20.20    1.54
  -4   0   8   18.67    2.20
   4   0  -8   21.57    2.30
  -3   0   8   14.83    1.42
  -3   0   8   14.09    1.70
   3   0  -8   14.24    1.67
   2   0  -8   39.84    2.37
  -2   0   8   41.73    1.86
  -2   0   8   44.64    2.42
  -1   0   8   93.92    2.96
  -1   0   8   95.74    3.69
   1   0  -8   91.32    3.75
   1   0  -8   89.81    3.53
   0   0  -8   15.25    1.69
   0   0  -8   18.54    1.76
   0   0   8   16.69    1.10
   0   0   8   16.18    1.69
   1   0   8   33.72    1.92
  -1   0  -8   33.37    2.21
  -1   0  -8   29.68    1.99
   1   0   8   33.46    1.75
   1   0   8   32.71    2.14
   2   0   8  103.78    3.21
   2   0   8  101.44    3.78
  -2   0  -8   97.53    4.20
   2   0   8   98.48    3.90
   2   0   8  100.52    4.40
  -2   0  -8   99.56    4.46
   3   0   8   58.01    2.94
  -3   0  -8   52.58    3.38
   3   0   8   57.07    3.07
   3   0   8   59.10    3.50
   3   0   8   61.23    2.55
  -3   0  -8   54.94    3.26
   4   0   8   49.07    3.13
  -4   0  -8   44.20    3.40
   4   0   8   48.54    2.96
   4   0   8   42.76    3.32
  -4   0  -8   47.35    3.28
   4   0   8   42.98    2.43
  -5   0  -8   54.63    4.17
  -5   0  -8   58.74    4.02
  -6  -1   8   15.96    2.16
  -6  -1   8   13.40    2.35
  -6  -1   8   19.09    2.52
  -6   1   8   12.88    1.70
   6   1  -8   11.88    2.10
  -6   1   8   13.76    2.22
  -6   1   8   13.49    1.96
  -5  -1   8   28.29    3.10
  -5  -1   8   28.12    2.21
  -5   1   8   34.44    2.08
  -5   1   8   31.31    3.05
  -5   1   8   31.68    2.26
   5   1  -8   32.21    3.12
  -4  -1   8   33.12    2.54
  -4  -1   8   37.48    2.32
   4   1  -8   32.68    2.48
  -4   1   8   37.23    2.07
  -4   1   8   34.96    2.42
  -4   1   8   34.07    1.81
  -3  -1   8   22.55    2.32
  -3  -1   8   26.97    1.81
  -3   1   8   17.72    1.84
   3   1  -8   19.60    2.02
  -3   1   8   18.26    1.03
  -2  -1   8   50.87    2.40
   2  -1  -8   50.54    2.53
  -2  -1   8   49.12    2.72
  -2   1   8   45.43    2.29
   2   1  -8   44.94    2.66
  -1  -1   8  115.16    3.86
   1  -1  -8  106.68    3.95
  -1  -1   8  109.57    4.29
   1   1  -8  124.77    4.71
  -1   1   8  115.60    4.04
   1   1  -8  127.44    4.53
   0  -1  -8    6.26    0.95
   0  -1   8    5.50    0.89
   0  -1   8    6.13    1.14
   0   1  -8    8.72    1.29
   0   1   8    8.39    1.12
   0   1  -8    7.53    1.26
   1  -1   8   16.60    1.87
   1  -1   8   22.62    1.57
  -1  -1  -8   15.50    1.63
   1  -1   8   19.25    1.28
   1  -1   8   18.47    1.76
  -1   1  -8   19.19    2.00
  -1   1  -8   16.12    1.87
   1   1   8   15.44    1.69
   1   1   8   18.07    0.95
   1   1   8   17.01    1.71
   2  -1   8    1.35    0.52
  -2  -1  -8    3.38    0.92
   2  -1   8    1.61    0.63
   2  -1   8    2.27    0.89
   2   1   8    3.43    0.91
  -2   1  -8    2.66    0.88
   2   1   8    3.44    0.94
   2   1   8    2.45    0.59
  -2   1  -8    2.48    0.87
   3  -1   8   12.30    1.97
   3  -1   8   19.17    1.85
  -3  -1  -8   15.46    2.11
   3  -1   8   14.53    1.81
   3   1   8   18.04    1.71
  -3   1  -8   14.92    2.01
  -3   1  -8   16.60    2.21
   3   1   8   20.59    2.40
   3   1   8   13.96    1.90
   4  -1   8    8.47    1.59
   4  -1   8    8.47    1.86
   4  -1   8    8.04    1.39
  -4  -1  -8    7.71    1.72
   4   1   8    6.66    1.23
   4   1   8    6.53    1.49
  -4   1  -8   10.29    1.90
  -4   1  -8   11.13    2.07
   4   1   8    9.28    1.89
  -6  -2   8    3.55    1.35
  -6  -2   8    3.27    1.17
   6   2  -8    2.64    1.19
  -6   2   8    4.13    1.31
  -5  -2   8   14.30    1.98
  -5  -2   8   17.45    2.44
   5   2  -8   11.44    1.95
  -5   2   8   14.35    1.96
  -4  -2   8  102.32    4.48
  -4  -2   8  106.55    4.93
   4   2  -8  104.81    4.80
  -4   2   8  104.59    4.35
  -3  -2   8  140.36    5.10
  -3  -2   8  139.11    5.53
   3   2  -8  132.73    5.23
  -3   2   8  140.10    4.71
  -2  -2   8   10.57    1.44
  -2  -2   8   13.56    1.77
   2  -2  -8   11.08    1.27
  -2   2   8    9.24    1.12
   2   2  -8   13.92    1.91
  -1  -2   8   15.10    1.78
  -1  -2   8   15.76    1.64
   1  -2  -8   15.81    1.18
   1  -2  -8   15.48    1.18
   1   2  -8   23.14    2.34
  -1   2   8   21.96    1.32
   1   2  -8   23.32    1.84
   0  -2   8  158.89    5.24
   0  -2   8  143.35    5.45
   0  -2   8  156.55    4.88
   0  -2  -8  149.65    4.79
   0   2  -8  169.83    5.81
   0   2  -8  170.06    4.86
   0   2   8  168.71    5.61
   0   2   8  163.69    4.92
   0   2  -8  168.80    6.11
   1  -2   8  116.49    4.10
   1  -2   8  109.60    4.71
  -1  -2  -8  107.54    4.05
   1  -2   8  110.58    4.37
  -1   2  -8  123.24    4.77
  -1   2  -8  110.80    3.84
   1   2   8  113.64    4.04
   1   2   8  122.76    4.62
  -1   2  -8  114.08    4.89
  -2  -2  -8   37.16    2.44
   2  -2   8   42.27    2.86
   2  -2   8   37.62    2.26
   2  -2   8   40.17    2.54
  -2   2  -8   38.04    2.80
  -2   2  -8   43.10    2.77
  -2   2  -8   36.88    2.16
   2   2   8   38.97    2.37
   2   2   8   37.24    2.51
  -3  -2  -8   26.72    2.25
   3  -2   8   28.24    3.08
   3  -2   8   26.10    2.62
   3  -2   8   29.59    2.17
  -3   2  -8   25.16    2.35
   3   2   8   27.94    2.81
  -3   2  -8   29.10    2.97
  -3   2  -8   24.89    2.93
   3   2   8   29.21    2.32
   4  -2   8   21.32    2.59
   4  -2   8   26.61    3.21
  -4  -2  -8   23.29    2.75
   4  -2   8   23.07    2.48
  -4   2  -8   24.52    3.02
   4   2   8   16.82    2.29
   4   2   8   24.49    2.84
  -4   2  -8   25.77    3.22
  -6  -3   8   13.86    2.45
  -6  -3   8   14.28    2.28
  -6   3   8   10.85    1.92
   6   3  -8   11.80    2.26
  -5  -3   8   35.11    3.66
  -5  -3   8   32.46    3.26
  -5   3   8   35.02    2.56
   5   3  -8   33.72    3.47
  -4  -3   8   39.09    2.77
  -4  -3   8   35.72    3.38
  -4   3   8   30.61    2.06
   4   3  -8   29.25    2.92
  -3  -3   8   32.46    3.06
  -3  -3   8   30.26    2.27
   3   3  -8   28.30    2.26
  -3   3   8   27.61    1.72
   2  -3  -8   22.92    1.43
  -2  -3   8   20.00    2.20
  -2  -3   8   27.95    2.05
   2   3  -8   26.27    2.73
  -2   3   8   26.94    1.40
   2   3  -8   24.23    2.42
  -1  -3   8   26.74    2.59
   1  -3  -8   29.35    1.47
  -1  -3   8   23.25    1.86
   1  -3  -8   24.83    1.35
   1   3  -8   32.50    2.28
   1   3  -8   29.76    1.84
   1   3  -8   29.94    2.32
   1   3  -8   27.31    2.17
  -1   3   8   28.99    1.32
   0  -3  -8   11.96    0.97
   0  -3   8   15.65    2.02
   0  -3   8   11.84    1.56
   0  -3  -8   13.48    1.06
   0  -3   8   11.98    1.47
   0   3  -8   11.66    1.82
   0   3   8    9.44    1.49
   0   3   8   10.58    0.84
   0   3  -8    9.71    1.51
   0   3  -8   10.13    1.27
   0   3  -8    9.46    1.56
   1  -3   8    3.88    1.11
  -1  -3  -8    1.50    0.50
   1  -3   8    1.40    0.68
   1  -3   8    1.75    0.69
   1   3   8    0.73    0.69
  -1   3  -8    1.57    0.57
   1   3   8    0.45    0.53
  -1   3  -8    2.38    0.82
  -1   3  -8    1.20    0.74
   1   3   8    1.29    0.49
   2  -3   8    5.26    1.18
   2  -3   8    3.34    1.09
   2  -3   8    3.86    1.04
  -2  -3  -8    4.38    0.95
  -2   3  -8    4.08    1.16
   2   3   8    6.47    1.33
   2   3   8    3.62    0.84
   2   3   8    5.60    1.56
  -2   3  -8    5.88    1.11
  -2   3  -8    3.65    1.17
  -3  -3  -8    0.18    0.44
   3  -3   8    0.45    0.61
   3  -3   8    0.88    0.77
   3  -3   8   -0.28    0.44
   3   3   8    0.43    0.56
  -3   3  -8   -0.15    0.50
  -3   3  -8    0.02    0.60
  -3   3  -8    0.28    0.65
   3   3   8    0.15    0.66
   4  -3   8   -0.08    0.68
   4  -3   8    1.83    1.10
  -4  -3  -8    1.37    0.83
   4  -3   8    1.29    0.85
   4   3   8    1.21    0.95
  -4   3  -8    1.04    0.76
  -4   3  -8    0.08    0.64
   4   3   8    1.05    0.80
  -6  -4   8    2.80    1.23
  -6  -4   8    5.23    1.70
  -6   4   8    3.31    1.13
   6   4  -8    5.30    1.65
  -5  -4   8   33.23    3.41
  -5  -4   8   26.24    3.31
   5   4  -8   25.81    3.11
  -5   4   8   27.60    2.19
  -4  -4   8   42.43    3.21
  -4  -4   8   45.01    3.09
  -4   4   8   40.32    2.33
   4   4  -8   49.02    3.34
  -3  -4   8   33.91    2.57
  -3  -4   8   36.47    2.80
  -3   4   8   34.66    1.79
   3   4  -8   37.57    2.70
   3   4  -8   35.15    2.76
  -2  -4   8   33.15    2.41
   2  -4  -8   29.44    1.52
  -2  -4   8   29.73    3.00
  -2   4   8   31.69    1.27
   2   4  -8   30.34    2.94
   2   4  -8   32.79    2.52
   2   4  -8   26.59    2.83
  -1  -4   8   33.25    2.53
   1  -4  -8   30.45    1.35
  -1  -4   8   32.44    2.23
  -1  -4   8   36.10    2.47
   1  -4  -8   32.50    1.38
   1   4  -8   35.39    2.20
   1   4  -8   34.82    2.56
   1   4  -8   41.84    2.91
   1   4  -8   36.00    2.63
  -1   4   8   40.37    2.83
   0  -4   8   58.57    3.47
   0  -4  -8   61.55    2.29
   0  -4   8   65.91    3.42
   0  -4   8   63.41    3.25
   0  -4  -8   60.76    2.25
   0   4  -8   66.97    3.58
   0   4  -8   67.96    3.82
   0   4   8   69.88    1.92
   0   4  -8   68.09    3.13
   0   4   8   68.05    3.94
   0   4   8   61.55    3.43
   0   4  -8   68.05    3.71
   1  -4   8   93.56    4.15
  -1  -4  -8   94.75    3.45
   1  -4   8   96.37    4.70
   1  -4   8   91.10    4.36
  -1   4  -8  106.73    5.07
  -1   4  -8  103.82    4.17
  -1   4  -8  101.52    4.70
   1   4   8  106.13    4.77
   1   4   8  104.52    5.29
  -1   4  -8  106.94    4.87
   1   4   8  107.56    3.40
   2  -4   8   78.20    4.08
  -2  -4  -8   78.29    3.48
   2  -4   8   79.87    3.92
   2  -4   8   73.60    4.29
   2   4   8   83.72    3.34
   2   4   8   75.53    4.06
   2   4   8   81.16    4.74
  -2   4  -8   79.08    3.70
  -2   4  -8   79.21    4.48
  -2   4  -8   74.62    4.12
   3  -4   8   69.15    4.01
  -3  -4  -8   63.89    3.52
   3  -4   8   59.36    3.65
   3  -4   8   67.19    4.26
   3   4   8   59.47    4.20
  -3   4  -8   69.67    4.40
  -3   4  -8   66.58    3.59
   3   4   8   61.73    3.26
  -3   4  -8   65.84    4.04
   3   4   8   61.86    3.82
   4  -4   8   50.04    4.70
  -4  -4  -8   43.93    3.25
   4  -4   8   40.65    3.13
   4  -4   8   40.67    3.89
   4   4   8   43.99    4.10
   4   4   8   41.99    3.04
  -4   4  -8   41.41    4.00
  -4   4  -8   41.74    3.78
   4   4   8   45.34    4.77
  -5  -5   8   17.01    2.80
   5   5  -8   15.50    2.43
  -5   5   8   19.12    2.22
  -4  -5   8    6.76    1.73
  -4  -5   8    6.90    1.56
  -4   5   8    6.91    1.12
   4   5  -8    6.43    1.55
  -3  -5   8   55.81    3.52
  -3  -5   8   55.51    3.66
  -3   5   8   45.72    1.89
   3   5  -8   46.76    3.29
   3   5  -8   43.61    3.07
  -2  -5   8   17.61    2.35
  -2  -5   8   20.81    2.37
   2  -5  -8   17.62    1.08
   2   5  -8   14.35    2.14
  -2   5   8   17.95    2.29
   2   5  -8   16.51    2.23
  -1  -5   8    3.49    1.11
  -1  -5   8    4.28    1.11
   1  -5  -8    4.91    0.41
   1  -5  -8    5.00    0.42
  -1  -5   8    5.16    1.16
   1   5  -8    7.12    1.55
   1   5  -8    7.51    1.58
   1   5  -8    5.99    1.19
   1   5  -8    5.29    1.27
  -1   5   8    6.34    1.41
   0  -5  -8   43.38    1.66
   0  -5   8   45.90    2.98
   0  -5   8   44.43    3.09
   0  -5  -8   43.75    1.66
   0  -5   8   44.69    2.87
   0   5  -8   49.29    3.16
   0   5   8   53.06    3.31
   0   5  -8   48.88    2.82
   0   5  -8   48.92    3.28
   0   5   8   45.82    3.33
   0   5  -8   50.73    3.41
   1  -5   8   28.15    2.92
   1  -5   8   30.71    2.38
   1  -5   8   27.96    3.08
  -1  -5  -8   27.64    1.62
  -1   5  -8   35.45    2.81
   1   5   8   34.65    3.63
   1   5   8   31.26    1.38
   1   5   8   33.04    3.21
  -1   5  -8   32.40    3.19
  -1   5  -8   30.21    2.25
  -1   5  -8   28.99    3.07
   2  -5   8    2.60    0.98
  -2  -5  -8    2.98    0.80
   2  -5   8    2.30    0.93
   2  -5   8    1.96    1.11
  -2   5  -8    3.07    1.15
  -2   5  -8    4.85    1.40
   2   5   8    2.58    0.69
  -2   5  -8    4.23    1.19
   2   5   8    3.99    1.36
   2   5   8    2.25    0.98
   3  -5   8   12.49    2.19
  -3  -5  -8   11.75    1.76
   3  -5   8   12.04    2.10
   3  -5   8   12.06    2.29
  -3   5  -8    8.16    1.75
  -3   5  -8   13.51    2.04
   3   5   8   15.54    1.79
   3   5   8   10.25    2.25
   3   5   8   11.98    2.20
   4  -5   8    0.59    0.94
   4  -5   8    1.00    1.11
  -4  -5  -8    0.59    0.67
   4  -5   8    1.77    1.12
  -4   5  -8    1.05    1.03
   4   5   8    0.84    1.05
   4   5   8    0.47    0.72
  -4   5  -8    1.82    1.04
   4   5   8    0.39    0.91
  -5  -6   8   58.32    4.38
  -5  -6   8   53.87    4.00
  -5   6   8   44.28    2.69
   5   6  -8   53.68    3.92
   5   6  -8   45.68    3.50
  -4  -6   8   10.06    1.92
  -4  -6   8    8.33    1.93
   4   6  -8   11.31    2.08
   4   6  -8    9.30    1.94
   4   6  -8    9.93    2.00
  -4   6   8   10.15    1.25
  -3  -6   8   11.57    2.09
  -3  -6   8   11.68    2.00
  -3   6   8    9.03    0.65
   3   6  -8   12.58    2.23
   3   6  -8    9.05    1.77
  -2  -6   8  108.47    5.36
   2  -6  -8  102.06    3.45
  -2  -6   8  117.56    5.33
   2   6  -8   97.11    5.18
  -2   6   8  136.11    5.57
   2   6  -8  101.07    5.08
  -1  -6   8  138.70    5.72
  -1  -6   8  141.16    6.17
  -1  -6   8  132.27    5.82
   1   6  -8  143.02    5.95
   1   6  -8  143.12    5.59
   1   6  -8  142.98    6.21
  -1   6   8  129.96    6.01
   0  -6  -8   55.54    1.87
   0  -6   8   61.27    3.57
   0  -6   8   57.00    3.72
   0  -6   8   53.65    3.47
   0   6  -8   59.45    3.70
   0   6   8   56.00    3.86
   0   6   8   59.15    3.71
   0   6  -8   65.41    3.97
   0   6  -8   67.69    3.57
   1  -6   8   29.23    2.91
  -1  -6  -8   27.66    1.61
   1  -6   8   27.57    2.99
   1  -6   8   25.68    3.06
   1   6   8   32.51    3.32
  -1   6  -8   24.84    2.56
   1   6   8   26.98    3.30
  -1   6  -8   26.49    3.08
  -1   6  -8   31.23    3.17
   2  -6   8   40.05    3.20
  -2  -6  -8   43.45    2.49
   2  -6   8   45.33    3.26
   2  -6   8   42.55    4.23
  -2   6  -8   29.61    3.32
  -2   6  -8   44.50    3.03
   2   6   8   39.17    1.96
   2   6   8   36.85    4.02
   2   6   8   47.34    3.43
  -2   6  -8   40.57    3.17
   3  -6   8   33.90    3.61
   3  -6   8   32.79    3.48
  -3  -6  -8   33.64    2.53
   3  -6   8   35.33    3.97
   3   6   8   37.81    3.86
   3   6   8   39.25    2.41
  -3   6  -8   35.08    3.48
  -3   6  -8   35.54    3.76
   3   6   8   32.33    3.90
  -4  -7   8   20.61    3.13
  -4  -7   8   16.70    2.66
   4   7  -8   17.33    2.69
  -4   7   8   19.39    1.36
   4   7  -8   18.40    2.91
   4   7  -8   21.03    2.94
  -3  -7   8   17.29    2.65
  -3  -7   8   22.88    2.93
   3   7  -8   19.02    2.74
   3   7  -8   19.92    2.88
   3   7  -8   20.85    2.77
  -2  -7   8    8.33    1.67
  -2  -7   8    8.04    1.85
   2   7  -8    6.46    1.58
   2   7  -8    7.49    1.78
  -2   7   8    5.98    1.48
  -1  -7   8    0.51    0.77
  -1  -7   8    0.34    0.60
  -1  -7   8    1.67    0.95
   1   7  -8    0.12    0.67
   1   7  -8    0.77    0.73
  -1   7   8    1.00    0.89
   0  -7   8    8.90    1.84
   0  -7  -8    4.42    0.54
   0  -7   8    7.41    1.62
   0  -7   8    5.29    1.47
   0   7  -8    6.53    1.47
   0   7   8    5.70    1.62
   0   7  -8    5.30    1.50
   0   7  -8    5.29    1.42
   1  -7   8    5.39    1.44
   1  -7   8    6.95    1.66
   1  -7   8    5.40    1.51
  -1  -7  -8    5.58    0.86
   1   7   8    4.25    1.50
  -1   7  -8    5.64    1.39
  -1   7  -8    4.56    1.42
   1   7   8    4.45    1.35
  -1   7  -8    4.25    1.35
   2  -7   8    4.01    1.36
   2  -7   8    7.64    1.88
   2  -7   8    4.03    1.38
  -2  -7  -8    5.66    1.08
  -2   7  -8    4.12    1.37
   2   7   8    3.10    1.41
   2   7   8    2.61    1.25
  -2   7  -8    4.31    1.46
  -2   7  -8    4.07    1.23
   3   7   8    2.83    1.45
  -3  -8   8   29.39    3.67
  -3  -8   8   26.52    3.25
   3   8  -8   19.45    2.92
   3   8  -8   22.76    3.28
   3   8  -8   21.93    2.96
  -2  -8   8   50.53    3.72
  -2  -8   8   46.14    4.49
  -2   8   8   47.32    3.50
   2   8  -8   40.01    4.02
   2   8  -8   43.11    4.15
  -1  -8   8   35.59    3.73
  -1  -8   8   45.31    3.39
  -1  -8   8   36.08    3.82
   1   8  -8   37.73    3.77
   1   8  -8   39.45    4.04
  -1   8   8   32.52    3.56
   1   8  -8   37.42    3.65
   0  -8   8   41.96    4.16
   0  -8  -8   39.05    1.61
   0  -8   8   35.19    3.62
   0  -8   8   40.89    3.26
   0   8   8   29.22    3.53
   0   8  -8   38.22    3.68
   0   8  -8   30.10    3.25
   0   8  -8   37.32    3.90
   1  -8   8   34.12    3.82
  -1  -8  -8   32.38    1.88
   1  -8   8   39.86    4.21
   1  -8   8   40.23    3.94
   1   8   8   32.06    4.02
  -1   8  -8   31.59    3.49
  -1   8  -8   36.03    3.57
  -1   8  -8   27.97    3.43
   1   8   8   35.11    3.80
   2  -8   8   20.12    2.85
  -2  -8  -8   19.64    2.00
   2  -8   8   16.49    2.81
   2  -8   8   23.53    3.15
   2   8   8   16.94    2.73
  -2   8  -8   15.83    2.53
   2   8   8   21.91    3.44
  -2   8  -8   19.65    2.72
  -2   8  -8   22.75    3.32
   2  -9  -8   18.35    1.28
  -2  -9   8   17.77    2.65
   2   9  -8   16.56    2.63
   2   9  -8   18.78    2.92
  -2   9   8   20.83    2.90
   2   9  -8   16.63    2.80
   1  -9  -8    5.18    0.69
  -1  -9   8    5.14    1.60
  -1  -9   8    7.40    1.85
   1   9  -8    6.07    1.63
   1   9  -8    4.85    1.55
  -1   9   8    6.52    1.67
   1   9  -8    4.10    1.46
   1   9  -8    4.52    1.51
   0  -9  -8    2.08    0.52
   0  -9   8    0.84    0.96
   0  -9   8    1.57    1.06
   0   9  -8   -0.01    0.80
   0   9   8    1.54    1.08
   0   9  -8    1.62    1.27
  -6   0   9    0.19    0.78
  -6   0   9   -0.61    0.47
  -5   0   9   -0.01    0.46
  -5   0   9    1.23    0.75
  -4   0   9  103.72    3.77
  -4   0   9   96.15    4.53
  -3   0   9   48.54    2.86
  -3   0   9   54.98    2.32
  -2   0   9   67.28    3.27
   2   0  -9   72.91    3.50
  -2   0   9   72.68    2.56
   1   0  -9   32.25    2.20
  -1   0   9   34.43    1.53
  -1   0   9   32.80    2.14
   0   0   9   12.98    1.63
   0   0  -9   15.72    1.78
   0   0   9   16.46    1.09
   1   0   9    0.60    0.53
   1   0   9    0.04    0.28
  -1   0  -9    0.12    0.40
   1   0   9    0.09    0.39
   2   0   9    8.90    1.51
   2   0   9   10.54    1.32
  -2   0  -9    7.83    1.45
  -3   0  -9    7.66    1.70
   3   0   9    8.05    1.71
   3   0   9   10.85    1.49
  -4   0  -9   20.97    2.82
   4   0   9   18.94    2.68
   4   0   9   18.64    2.12
  -6  -1   9   36.98    3.90
  -6  -1   9   37.98    2.80
  -6   1   9   26.18    3.06
   6   1  -9   31.04    3.47
  -5  -1   9   35.31    3.52
  -5  -1   9   29.38    2.26
   5   1  -9   26.04    2.97
  -5   1   9   25.55    2.80
  -4  -1   9   37.01    2.79
  -4  -1   9   44.23    2.54
  -4   1   9   39.08    2.63
   4   1  -9   43.28    2.94
  -3  -1   9   67.99    3.57
  -3  -1   9   64.73    2.99
  -3   1   9   69.04    3.27
   3   1  -9   68.45    3.52
  -2  -1   9   37.25    2.45
  -2  -1   9   35.14    1.98
   2  -1  -9   34.68    2.19
   2   1  -9   38.38    2.60
  -2   1   9   37.23    2.16
  -1  -1   9   44.04    2.18
   1  -1  -9   42.69    2.36
  -1  -1   9   38.96    2.54
   1   1  -9   44.15    2.76
   1   1  -9   48.88    2.72
  -1   1   9   49.66    2.45
   0  -1  -9  117.86    4.53
   0  -1   9  122.29    4.88
   0  -1   9  133.78    4.33
   0   1  -9  129.30    5.11
   0   1  -9  130.28    4.90
   0   1   9  124.03    4.49
  -1  -1  -9  107.42    4.42
   1  -1   9  101.71    4.58
   1  -1   9  102.93    3.95
   1  -1   9  111.72    3.46
   1   1   9  101.36    4.15
  -1   1  -9  102.94    4.63
   1   1   9  105.06    4.15
  -1   1  -9  104.11    4.43
   2  -1   9   34.22    1.86
   2  -1   9   31.75    2.16
   2  -1   9   35.92    2.67
  -2  -1  -9   31.10    2.41
   2   1   9   31.61    2.28
   2   1   9   33.24    2.40
  -2   1  -9   32.87    2.64
  -2   1  -9   33.40    2.51
  -3  -1  -9   27.62    2.94
   3  -1   9   26.66    1.81
   3  -1   9   28.73    3.13
   3  -1   9   28.74    2.21
   3   1   9   31.08    2.94
  -3   1  -9   31.18    3.29
  -3   1  -9   29.04    3.04
   3   1   9   33.34    3.22
   4  -1   9   19.62    2.84
   4  -1   9   15.13    2.05
  -4  -1  -9   19.53    2.75
  -4   1  -9   14.84    2.57
   4   1   9   24.39    2.99
  -4   1  -9   14.88    2.35
  -6  -2   9    6.94    1.55
  -6  -2   9    9.76    2.10
  -6   2   9    6.65    1.58
   6   2  -9    7.06    1.82
  -5  -2   9   11.04    2.01
  -5  -2   9   11.65    1.84
   5   2  -9   10.10    1.99
  -5   2   9    9.70    1.68
  -4  -2   9    5.07    1.10
  -4  -2   9    4.55    1.19
   4   2  -9    6.85    1.48
  -4   2   9    8.52    1.44
  -3  -2   9    1.34    0.66
  -3  -2   9    2.82    0.98
  -3   2   9    1.98    0.66
   3   2  -9    2.33    0.86
  -2  -2   9    1.55    0.64
   2  -2  -9    4.15    0.84
  -2  -2   9    1.32    0.73
   2   2  -9    2.59    0.95
  -2   2   9    1.76    0.56
  -1  -2   9    5.16    1.03
  -1  -2   9    3.46    1.00
   1  -2  -9    3.67    0.76
   1   2  -9    5.20    1.13
   1   2  -9    3.90    1.06
  -1   2   9    4.31    0.78
   0  -2  -9   12.58    1.40
   0  -2   9    9.56    1.52
   0  -2   9   12.38    1.53
   0   2  -9   14.42    1.98
   0   2  -9   14.04    1.84
   0   2   9   11.90    1.31
   1  -2   9    1.87    0.68
   1  -2   9    1.99    0.62
   1  -2   9    0.16    0.51
  -1  -2  -9    1.36    0.57
  -1   2  -9    1.36    0.69
  -1   2  -9    1.63    0.82
   1   2   9    2.05    0.67
   1   2   9    2.03    0.80
   2  -2   9    1.13    0.60
   2  -2   9    1.38    0.79
  -2  -2  -9    2.15    0.74
   2  -2   9    0.84    0.59
   2   2   9    0.92    0.69
  -2   2  -9    0.55    0.64
  -2   2  -9    1.30    0.74
   2   2   9    1.44    0.72
   3  -2   9    1.26    0.97
  -3  -2  -9    2.23    0.91
   3  -2   9    2.81    1.02
   3  -2   9    2.81    0.86
   3   2   9    1.87    0.92
   3   2   9    0.82    0.70
  -3   2  -9    1.95    0.97
  -3   2  -9    1.11    0.91
   4  -2   9    1.39    0.73
   4  -2   9    2.38    1.23
   4  -2   9    0.62    0.79
  -4  -2  -9    0.47    0.73
  -4   2  -9    1.14    1.06
   4   2   9    0.53    0.74
   4   2   9    0.78    0.78
  -4   2  -9    1.08    0.96
  -5  -3   9   18.15    2.37
  -5  -3   9   23.14    3.00
   5   3  -9   15.45    2.49
  -5   3   9   20.47    2.35
  -4  -3   9   54.25    3.34
  -4  -3   9   52.72    3.56
  -4   3   9   53.02    2.79
   4   3  -9   48.52    3.31
  -3  -3   9   94.67    4.72
  -3  -3   9  105.02    4.54
  -3   3   9  114.39    4.07
   3   3  -9  118.50    5.23
   2  -3  -9   39.16    2.05
  -2  -3   9   39.10    2.76
  -2  -3   9   34.15    2.40
  -2   3   9   39.69    1.86
   2   3  -9   42.93    3.04
   1  -3  -9   62.23    2.60
  -1  -3   9   63.51    3.23
  -1  -3   9   65.04    3.64
   1   3  -9   48.02    2.98
   1   3  -9   51.50    3.24
  -1   3   9   49.13    1.95
   0  -3   9   64.42    3.64
   0  -3  -9   62.97    2.71
   0  -3   9   64.11    3.32
   0  -3   9   66.06    3.09
   0   3  -9   70.51    3.88
   0   3   9   62.21    2.46
   0   3  -9   71.40    3.69
   1  -3   9   87.93    3.78
   1  -3   9   78.78    4.29
   1  -3   9   86.58    4.08
  -1  -3  -9   88.39    3.58
   1   3   9   88.08    4.20
  -1   3  -9   97.96    4.75
   1   3   9   87.75    3.40
  -1   3  -9   85.21    4.32
   2  -3   9   62.73    3.23
   2  -3   9   57.93    3.39
   2  -3   9   59.24    3.78
  -2  -3  -9   61.96    3.29
   2   3   9   59.20    3.48
  -2   3  -9   65.33    4.01
   2   3   9   60.36    3.04
  -2   3  -9   52.54    3.41
   3  -3   9   24.36    3.10
   3  -3   9   21.80    2.58
  -3  -3  -9   24.26    2.70
   3  -3   9   25.92    2.61
   3   3   9   32.65    2.46
   3   3   9   21.42    2.70
  -3   3  -9   33.04    3.65
  -3   3  -9   24.26    2.93
   4  -3   9   14.66    2.17
  -4  -3  -9   14.52    2.40
   4  -3   9   15.91    2.34
   4  -3   9    9.83    2.19
   4   3   9   15.76    2.47
   4   3   9   21.02    2.67
  -4   3  -9   16.97    2.76
  -5  -4   9   19.20    2.67
  -5  -4   9   23.60    3.18
  -5   4   9   21.24    2.33
   5   4  -9   16.87    2.53
  -4  -4   9    4.45    1.27
  -4  -4   9    3.81    1.35
   4   4  -9    3.54    1.23
  -4   4   9    5.23    1.00
  -3  -4   9    1.56    0.81
  -3  -4   9    1.84    1.01
   3   4  -9    1.85    0.86
  -3   4   9    1.44    0.51
  -2  -4   9   11.52    1.90
  -2  -4   9   10.67    1.74
   2   4  -9    9.06    1.76
   2   4  -9    7.75    1.52
  -2   4   9    8.68    0.65
  -1  -4   9   15.48    2.01
   1  -4  -9   15.14    1.05
  -1  -4   9   12.47    1.98
   1   4  -9   16.47    1.83
   1   4  -9   12.65    1.99
   1   4  -9   15.15    2.16
   0  -4   9   22.15    2.36
   0  -4   9   19.74    2.41
   0  -4   9   21.17    2.19
   0  -4  -9   22.27    1.37
   0   4   9   22.52    1.02
   0   4  -9   26.38    2.82
   0   4  -9   21.19    2.06
   0   4  -9   24.63    2.84
  -1  -4  -9    2.85    0.74
   1  -4   9    2.58    1.08
   1  -4   9    2.79    1.03
   1  -4   9    2.43    0.86
  -1   4  -9    2.67    0.98
   1   4   9    2.22    0.60
   1   4   9    2.33    1.07
   1   4   9    1.41    0.77
  -1   4  -9    3.55    1.17
  -1   4  -9    2.36    0.78
   2  -4   9    7.57    1.79
  -2  -4  -9    5.14    1.07
   2  -4   9    5.40    1.27
   2  -4   9    7.21    1.52
   2   4   9    5.52    1.69
  -2   4  -9    7.28    1.61
   2   4   9    9.11    1.80
   2   4   9    6.79    1.13
  -2   4  -9    9.16    1.95
  -3  -4  -9   10.15    1.72
   3  -4   9    8.11    1.85
   3  -4   9    6.58    1.52
   3  -4   9    6.53    1.51
   3   4   9    8.96    1.80
   3   4   9    7.32    1.41
  -3   4  -9    8.50    1.77
  -5  -5   9   20.67    2.84
  -5  -5   9   27.42    3.53
   5   5  -9   33.86    3.68
  -5   5   9   27.75    2.17
  -4  -5   9   12.81    2.35
  -4  -5   9   11.34    2.01
  -4   5   9   10.18    1.32
   4   5  -9    7.25    1.77
  -3  -5   9   22.52    2.75
  -3  -5   9   22.77    2.96
  -3   5   9   21.26    1.12
   3   5  -9   18.57    2.49
  -2  -5   9  100.06    4.79
  -2  -5   9   88.96    4.79
   2   5  -9   95.26    4.82
  -1  -5   9   83.25    4.64
  -1  -5   9   91.22    4.54
   1  -5  -9   95.25    2.86
   1  -5  -9   88.21    2.81
  -1  -5   9   95.11    4.36
   1   5  -9   93.65    4.93
   1   5  -9   85.91    4.52
   1   5  -9   93.26    4.15
  -1   5   9   91.19    4.83
   0  -5   9   34.26    3.37
   0  -5   9   30.17    2.43
   0  -5   9   30.81    2.98
   0  -5  -9   35.67    1.62
   0   5   9   45.91    3.44
   0   5  -9   37.06    2.55
   0   5  -9   40.37    3.01
   0   5  -9   39.74    3.85
   1  -5   9   42.92    3.11
   1  -5   9   31.17    3.32
  -1  -5  -9   40.50    2.13
   1  -5   9   41.67    2.85
  -1   5  -9   39.32    3.33
   1   5   9   52.19    3.89
  -1   5  -9   50.34    2.98
   1   5   9   45.95    3.27
   1   5   9   45.10    1.72
  -1   5  -9   49.13    3.40
   2  -5   9   55.27    3.93
   2  -5   9   47.40    3.38
  -2  -5  -9   46.65    2.71
   2  -5   9   45.92    3.18
   2   5   9   51.21    4.01
   2   5   9   42.84    2.25
   2   5   9   42.51    3.93
  -2   5  -9   46.37    3.45
  -2   5  -9   46.17    3.00
   3  -5   9   30.20    3.19
  -3  -5  -9   27.11    2.73
   3  -5   9   33.77    3.90
   3  -5   9   30.49    3.27
   3   5   9   25.60    3.14
  -3   5  -9   28.68    3.40
   3   5   9   26.80    2.08
   3   5   9   25.67    3.68
  -4  -6   9    3.79    1.52
  -4  -6   9    1.69    1.01
  -4   6   9    5.15    0.85
   4   6  -9    4.57    1.50
   4   6  -9    5.33    1.59
  -3  -6   9    5.38    1.57
  -3  -6   9    4.70    1.37
   3   6  -9    4.98    1.46
  -2  -6   9    2.06    0.99
  -2  -6   9    2.78    1.10
  -2   6   9    1.59    0.92
   2   6  -9    3.58    1.27
  -1  -6   9    3.60    1.24
  -1  -6   9    2.33    1.03
  -1  -6   9    2.54    1.05
   1   6  -9    3.25    1.03
  -1   6   9    2.95    1.23
   1   6  -9    3.28    1.21
   1   6  -9    3.08    1.09
   0  -6   9    2.16    0.97
   0  -6   9    1.71    0.96
   0  -6  -9    2.65    0.47
   0  -6   9    2.89    1.18
   0   6   9    2.20    1.26
   0   6  -9    1.11    0.77
   0   6  -9    1.61    0.83
   1  -6   9    6.12    1.69
  -1  -6  -9    4.31    0.81
   1  -6   9    6.62    1.52
   1  -6   9    2.74    1.16
   1   6   9    6.51    1.82
  -1   6  -9    3.87    1.27
   1   6   9    6.73    1.59
  -1   6  -9    6.78    1.50
  -2  -6  -9    1.31    0.64
   2  -6   9    1.36    0.88
   2  -6   9    1.83    1.14
   2  -6   9    1.86    1.00
  -2   6  -9    1.00    0.84
   2   6   9    0.31    0.93
   2   6   9    1.30    0.52
   2   6   9    0.88    1.02
  -2   6  -9    1.48    0.86
  -3  -7   9   16.31    2.51
  -3  -7   9   20.01    2.93
   3   7  -9   14.98    2.52
  -2  -7   9   48.23    4.57
  -2  -7   9   48.36    3.63
   2   7  -9   52.06    3.78
   2   7  -9   54.29    3.98
  -2   7   9   50.94    3.62
  -1  -7   9   70.20    4.23
  -1  -7   9   78.51    4.58
  -1  -7   9   80.39    4.87
   1   7  -9   66.20    3.95
   1   7  -9   76.02    4.66
  -1   7   9   69.77    4.50
   0  -7   9   27.47    3.12
   0  -7   9   22.95    3.10
   0  -7   9   20.16    2.66
   0  -7  -9   22.79    1.11
   0   7  -9   16.34    2.33
   0   7  -9   18.17    2.68
   0   7  -9   14.37    2.48
   0   7   9   20.32    3.01
  -1  -7  -9   13.45    1.39
   1  -7   9   12.61    2.33
   1  -7   9   16.80    2.48
  -1   7  -9   10.14    1.89
   1   7   9    5.68    1.61
   1   7   9   11.62    2.44
  -1   7  -9    8.52    1.86
   2  -7   9   40.99    4.36
   2  -7   9   37.70    3.91
   2  -7   9   37.46    3.91
  -2  -7  -9   37.48    2.44
  -2   7  -9   35.58    3.48
   2   7   9   36.37    4.32
   2   7   9   43.44    4.34
  -2   7  -9   33.87    3.62
  -2  -8   9   12.08    2.45
  -2  -8   9   10.94    2.15
   2   8  -9   10.90    2.19
   2   8  -9   11.33    2.24
  -2   8   9   13.64    2.47
  -1  -8   9   -0.49    0.56
  -1  -8   9   -0.59    0.65
  -1  -8   9   -0.30    0.84
   1   8  -9   -0.40    0.63
  -1   8   9    0.22    0.80
   1   8  -9    0.15    0.92
   1   8  -9   -0.41    0.69
   0  -8   9    5.02    1.56
   0  -8   9    4.95    1.58
   0  -8  -9    3.72    0.53
   0  -8   9    7.49    1.86
   0   8  -9    7.60    1.74
   0   8  -9    2.68    1.32
   0   8   9    4.22    1.68
   0   8  -9    2.62    1.16
  -5   0  10   47.49    3.37
  -4   0  10   89.39    4.46
  -3   0  10   83.18    3.96
  -2   0  10   90.37    4.02
   2   0 -10   85.49    4.10
  -1   0  10   42.58    2.61
   1   0 -10   42.06    2.67
   0   0  10   31.59    2.26
   0   0 -10   31.52    2.33
  -1   0 -10   82.55    4.10
   1   0  10   78.53    3.94
   2   0  10   69.87    3.91
   2   0  10   70.00    3.24
  -2   0 -10   72.92    4.05
  -3   0 -10    9.15    1.84
   3   0  10    6.43    1.54
  -5  -1  10    1.35    0.86
  -5  -1  10    1.04    0.64
  -5   1  10    1.41    0.84
  -4  -1  10    4.90    1.31
  -4  -1  10    6.99    1.20
  -4   1  10    7.97    1.54
  -3  -1  10    0.88    0.71
  -3  -1  10    1.92    0.65
  -3   1  10    1.36    0.70
  -2  -1  10   22.31    2.39
   2  -1 -10   21.83    2.21
  -2  -1  10   26.70    1.69
  -2   1  10   26.46    1.91
   2   1 -10   26.22    2.71
  -1  -1  10   22.94    1.58
   1  -1 -10   22.66    1.86
  -1  -1  10   21.74    2.32
   1   1 -10   23.21    2.54
  -1   1  10   24.40    1.78
   0  -1  10    3.78    0.79
   0  -1  10    2.26    0.82
   0  -1 -10    3.50    0.90
   0   1  10    3.72    0.88
   0   1 -10    3.11    1.05
  -1  -1 -10    4.43    1.06
   1  -1  10    3.42    0.82
   1  -1  10    3.92    1.09
   1   1  10    8.49    1.47
  -1   1 -10    6.00    1.33
   2  -1  10   28.04    2.02
  -2  -1 -10   29.13    2.90
   2  -1  10   25.55    2.85
   2   1  10   28.13    2.80
  -2   1 -10   26.66    2.96
   3  -1  10   16.76    2.55
  -3  -1 -10   16.05    2.44
   3  -1  10   13.45    1.80
  -3   1 -10   13.22    2.23
   3   1  10   10.43    1.87
  -5  -2  10   21.57    2.46
  -5  -2  10   21.90    2.93
  -5   2  10   21.96    2.53
   5   2 -10   20.50    2.70
  -4  -2  10   13.55    1.83
  -4  -2  10   12.77    2.04
   4   2 -10   15.28    2.24
  -4   2  10   12.82    1.78
  -3  -2  10   55.44    2.99
  -3  -2  10   48.69    3.26
  -3   2  10   51.08    2.70
   3   2 -10   51.10    3.30
  -2  -2  10  104.62    4.19
  -2  -2  10  101.75    4.76
   2  -2 -10  100.52    4.13
   2   2 -10  111.81    5.20
  -2   2  10  110.04    4.01
  -1  -2  10   45.23    3.02
  -1  -2  10   41.88    2.49
   1  -2 -10   47.59    2.53
  -1   2  10   45.73    2.30
   1   2 -10   44.31    2.90
   1   2 -10   44.83    3.08
   0  -2 -10   53.30    2.77
   0  -2  10   50.38    3.21
   0  -2  10   52.89    2.81
   0   2  10   43.88    2.33
   0   2 -10   48.98    3.24
   0   2 -10   43.13    2.89
  -1  -2 -10   54.28    3.04
   1  -2  10   58.29    3.04
   1  -2  10   53.10    3.40
   1  -2  10   56.09    2.57
   1   2  10   48.85    2.72
  -1   2 -10   52.60    3.48
  -1   2 -10   54.23    3.36
   1   2  10   51.14    3.07
  -2  -2 -10   29.24    2.39
   2  -2  10   31.05    2.00
   2  -2  10   29.60    2.32
   2  -2  10   29.02    3.10
  -2   2 -10   35.77    3.58
   2   2  10   39.44    2.80
  -2   2 -10   37.09    3.50
   2   2  10   37.04    2.54
   3  -2  10   33.65    2.58
  -3  -2 -10   30.86    3.20
   3  -2  10   29.80    3.52
  -3   2 -10   34.49    3.49
   3   2  10   38.76    3.91
   3   2  10   34.02    3.31
  -3   2 -10   38.07    3.93
  -5  -3  10    1.90    0.99
  -5  -3  10    3.13    1.32
  -5   3  10    2.55    0.98
   5   3 -10    2.82    1.20
  -4  -3  10   10.16    2.05
  -4  -3  10    8.40    1.60
  -4   3  10    8.73    1.42
   4   3 -10   10.69    1.93
  -3  -3  10    4.61    1.15
  -3  -3  10    3.39    1.13
  -3   3  10    4.00    0.86
   3   3 -10    6.82    1.55
  -2  -3  10    5.32    1.31
   2  -3 -10    4.38    0.87
  -2  -3  10    5.88    1.24
   2   3 -10    6.82    1.58
  -2   3  10    6.10    0.88
   1  -3 -10    3.29    0.75
  -1  -3  10    4.26    1.22
  -1  -3  10    4.46    1.12
   1   3 -10    4.47    1.19
   1   3 -10    2.96    1.09
  -1   3  10    3.41    0.64
   0  -3  10   34.76    2.42
   0  -3 -10   28.33    1.87
   0  -3  10   27.24    2.88
   0   3 -10   24.53    2.68
   0   3  10   29.05    1.65
   0   3 -10   24.41    2.77
   1  -3  10   16.32    2.04
  -1  -3 -10   13.55    1.66
   1  -3  10   15.00    1.78
   1  -3  10   14.79    2.22
  -1   3 -10   12.27    2.04
   1   3  10   12.63    1.47
  -1   3 -10   11.29    1.92
   1   3  10   11.34    1.83
   2  -3  10   11.93    2.12
   2  -3  10   16.03    2.21
   2  -3  10   14.62    1.85
  -2  -3 -10   12.97    1.83
   2   3  10   16.77    2.33
  -2   3 -10   15.46    2.46
   2   3  10   16.22    1.89
  -2   3 -10   19.73    2.67
   3  -3  10   14.27    2.42
   3  -3  10   17.24    2.12
  -3  -3 -10   17.26    2.35
   3  -3  10   16.44    2.28
  -3   3 -10   24.36    3.33
   3   3  10   19.72    2.35
  -3   3 -10   17.37    2.61
   3   3  10   15.38    2.35
  -5  -4  10   22.40    3.19
  -5  -4  10   24.42    2.97
   5   4 -10   17.39    2.72
  -5   4  10   14.24    1.89
  -4  -4  10   60.01    3.77
  -4  -4  10   59.66    4.13
  -4   4  10   45.17    2.48
   4   4 -10   52.58    3.67
  -3  -4  10   66.15    4.16
  -3  -4  10   69.96    3.91
   3   4 -10   65.86    4.09
  -3   4  10   70.31    2.68
  -2  -4  10   44.93    3.30
  -2  -4  10   52.22    3.26
  -2   4  10   51.66    1.75
   2   4 -10   55.94    3.84
  -1  -4  10   67.16    4.10
   1  -4 -10   68.51    2.79
  -1  -4  10   69.80    3.73
   1   4 -10   58.57    3.70
   1   4 -10   58.90    3.90
   0  -4  10   36.86    2.74
   0  -4  10   33.58    3.36
   0  -4 -10   35.71    1.99
   0  -4  10   37.64    2.51
   0   4  10   34.86    1.42
   0   4 -10   28.00    3.01
   0   4 -10   37.21    3.10
  -1  -4 -10    9.25    1.33
   1  -4  10    7.88    1.69
   1  -4  10    6.50    1.36
   1  -4  10    8.07    1.47
   1   4  10   11.81    1.98
  -1   4 -10    7.03    1.52
  -1   4 -10   13.61    2.38
   1   4  10   13.97    1.34
   2  -4  10   10.82    2.07
   2  -4  10   12.55    1.86
  -2  -4 -10   13.02    1.79
   2  -4  10   16.31    2.28
   2   4  10   14.13    2.32
  -2   4 -10    9.72    1.95
   2   4  10   12.16    1.52
  -2   4 -10   11.29    2.15
  -3  -4 -10   26.02    2.91
  -3   4 -10   27.94    3.49
   3   4  10   22.43    2.97
  -4  -5  10    1.12    0.85
  -4  -5  10    0.75    0.94
  -4   5  10    0.64    0.50
   4   5 -10    0.66    0.88
  -3  -5  10    8.04    1.76
  -3  -5  10   14.82    2.43
   3   5 -10    7.32    1.67
  -2  -5  10    0.06    0.69
  -2  -5  10   -0.20    0.64
   2   5 -10   -0.27    0.69
   2   5 -10    0.34    0.59
   1  -5 -10   14.57    1.07
  -1  -5  10   15.53    2.43
  -1  -5  10   13.38    2.02
   1   5 -10   13.85    2.29
   1   5 -10   16.15    2.38
   0  -5  10   12.28    1.95
   0  -5  10   16.82    2.55
   0  -5 -10   14.20    1.15
   0  -5  10   16.38    2.18
   0   5 -10   16.74    2.58
   0   5 -10   14.44    2.22
  -1  -5 -10    6.67    1.05
   1  -5  10    6.11    1.45
   1  -5  10    8.95    1.97
   1  -5  10    5.58    1.36
   1   5  10    5.70    1.83
  -1   5 -10    5.24    1.48
  -1   5 -10    5.60    1.57
   1   5  10    4.30    1.32
  -2  -5 -10    7.06    1.27
   2  -5  10    6.58    1.66
   2  -5  10    6.61    1.86
   2  -5  10    9.94    1.80
  -2   5 -10    4.58    1.48
   2   5  10   10.58    2.10
   2   5  10    6.94    1.09
  -3  -6  10   24.36    3.26
  -3  -6  10   21.54    2.81
   3   6 -10   19.27    2.72
  -2  -6  10   24.72    2.92
  -2  -6  10   24.24    3.14
   2   6 -10   20.14    2.79
  -1  -6  10   27.75    3.40
   1  -6 -10   29.35    1.32
  -1  -6  10   31.70    3.33
   1   6 -10   26.04    3.03
  -1   6  10   28.63    3.51
   0  -6  10   19.03    2.50
   0  -6  10   20.68    2.55
   0  -6 -10   20.34    1.24
   0  -6  10   16.43    2.60
   0   6  10   18.68    2.98
   0   6 -10   18.02    2.65
   1  -6  10    6.37    1.53
  -1  -6 -10    7.17    1.10
   1  -6  10    5.84    1.78
   1  -6  10    9.32    1.80
  -1   6 -10   11.93    2.18
   1   6  10    8.81    1.93
   1   6  10   10.91    2.45
  -2  -7  10    2.99    1.24
  -2  -7  10    3.48    1.40
   2   7 -10    1.93    1.15
  -1  -7  10    3.55    1.41
  -1  -7  10    4.27    1.42
  -1  -7  10    1.88    1.06
  -1   7  10    2.02    1.16
   1   7 -10    4.60    1.39
   0  -7  10    0.07    0.76
   0  -7  10    0.52    0.87
   0  -7 -10    1.08    0.38
   0  -7  10    1.28    0.94
   0   7 -10    1.48    1.15
   0   7  10    1.74    1.14
  -5   0  11    4.18    1.33
  -4   0  11    0.64    0.74
  -3   0  11    2.62    0.92
  -2   0  11   10.40    1.67
   2   0 -11   12.68    1.89
  -1   0  11   25.40    2.47
   1   0 -11   24.24    2.59
   0   0 -11    7.12    1.42
   0   0  11    7.60    1.40
   1   0  11    9.76    1.69
  -1   0 -11    7.39    1.54
   2   0  11   16.78    2.35
  -2   0 -11   19.43    2.58
  -5  -1  11   21.16    2.86
  -5   1  11   21.54    2.76
  -4  -1  11   42.21    3.17
  -4   1  11   42.56    2.93
  -3  -1  11   25.10    2.72
  -3   1  11   29.66    2.26
   2  -1 -11   16.75    2.02
  -2  -1  11   14.54    2.02
   2   1 -11   15.11    2.14
  -2   1  11   17.28    1.91
   1  -1 -11   24.69    2.07
  -1  -1  11   21.33    2.39
   1   1 -11   23.73    2.64
  -1   1  11   23.92    1.90
   0  -1 -11   34.20    2.50
   0  -1  11   39.45    2.17
   0  -1  11   34.38    2.62
   0   1 -11   35.52    2.81
   0   1  11   32.70    2.28
   1  -1  11   53.36    3.43
  -1  -1 -11   49.36    3.20
   1  -1  11   55.57    2.77
  -1   1 -11   50.04    3.47
   1   1  11   51.60    3.05
   2  -1  11   21.20    2.83
  -2  -1 -11   23.46    2.72
  -2   1 -11   22.81    2.86
   2   1  11   24.73    2.69
  -4  -2  11    5.57    1.23
  -4  -2  11    5.17    1.48
  -4   2  11    6.10    1.31
  -3  -2  11    3.84    1.28
  -3  -2  11    3.07    0.90
  -3   2  11    5.20    1.10
  -2  -2  11    3.32    1.12
   2  -2 -11    1.79    0.69
  -2  -2  11    3.91    0.95
  -2   2  11    2.35    0.70
   2   2 -11    2.09    1.03
  -1  -2  11   22.79    2.63
   1  -2 -11   24.03    1.95
  -1  -2  11   25.03    1.89
  -1   2  11   19.02    1.86
   1   2 -11   26.51    2.90
   0  -2  11   44.13    3.14
   0  -2  11   44.61    2.61
   0  -2 -11   46.02    2.76
   0   2  11   45.46    2.52
   0   2 -11   47.29    3.39
  -1  -2 -11    9.47    1.60
   1  -2  11    9.25    1.43
   1  -2  11    5.87    1.44
  -1   2 -11    6.86    1.52
   1   2  11    9.32    1.46
   2  -2  11    7.41    1.34
  -2  -2 -11    5.59    1.38
   2  -2  11    3.66    1.30
  -2   2 -11   12.92    2.29
   2   2  11   13.20    1.88
  -4  -3  11   11.84    2.17
  -4  -3  11    8.72    1.68
  -4   3  11    8.54    1.40
   4   3 -11   11.31    2.08
  -3  -3  11   18.01    2.60
  -3  -3  11   18.85    2.20
   3   3 -11   19.38    2.63
  -3   3  11   17.36    1.72
   2  -3 -11   43.48    2.54
  -2  -3  11   41.08    3.19
  -2  -3  11   45.40    2.88
   2   3 -11   34.65    3.54
  -2   3  11   44.71    2.13
   1  -3 -11   46.62    2.63
  -1  -3  11   57.54    3.19
  -1  -3  11   45.66    3.35
   1   3 -11   52.30    3.49
  -1   3  11   51.27    2.26
   1   3 -11   50.62    3.63
   0  -3 -11   20.39    2.06
   0  -3  11   19.09    2.50
   0  -3  11   20.92    2.26
   0   3  11   22.95    1.56
   0   3 -11   18.56    2.52
   0   3 -11   24.54    2.99
  -1  -3 -11    4.70    1.10
   1  -3  11    5.42    1.08
   1  -3  11    4.34    1.29
   1  -3  11    5.43    1.23
  -1   3 -11    7.68    1.79
   1   3  11    6.68    1.15
  -1   3 -11    5.16    1.52
   1   3  11    6.17    1.51
  -2  -3 -11   10.26    1.79
   2  -3  11    8.23    1.89
   2  -3  11   10.28    1.73
   2   3  11    9.64    1.54
   2   3  11    7.06    1.65
  -2   3 -11    9.14    1.97
  -2   3 -11   12.34    2.41
  -4  -4  11    8.10    1.91
  -4  -4  11   10.79    1.99
   4   4 -11    9.81    1.98
  -4   4  11   10.99    1.43
  -3  -4  11    5.85    1.45
  -3  -4  11    7.15    1.73
  -3   4  11    6.39    0.89
   3   4 -11    7.24    1.75
  -2  -4  11    8.61    1.60
  -2  -4  11   10.92    2.04
   2   4 -11    9.01    1.82
   2   4 -11    8.06    1.85
   1  -4 -11   21.80    1.62
  -1  -4  11   21.45    2.47
  -1  -4  11   20.79    2.82
   1   4 -11   25.47    3.05
   1   4 -11   21.33    2.70
   0  -4  11   23.47    2.96
   0  -4 -11   22.96    1.73
   0  -4  11   20.35    2.41
   0   4 -11   25.70    3.25
   0   4 -11   32.36    3.49
  -1  -4 -11   25.97    2.03
   1  -4  11   27.58    2.21
   1  -4  11   30.03    3.10
   1  -4  11   24.85    3.23
  -1   4 -11   26.26    3.34
  -1   4 -11   25.01    3.11
   1   4  11   23.33    2.97
   1   4  11   24.07    1.57
  -2  -4 -11   16.04    2.09
  -2   4 -11   13.52    2.39
  -2   4 -11   18.98    2.89
  -3  -5  11   21.37    2.74
  -3  -5  11   25.45    3.39
   3   5 -11   25.78    3.24
  -2  -5  11   25.45    2.86
  -2  -5  11   24.73    3.16
   2   5 -11   34.01    3.76
   2   5 -11   31.51    3.52
  -1  -5  11   15.90    2.57
  -1  -5  11   19.87    2.54
   1  -5 -11   20.39    1.42
   1   5 -11   21.77    2.85
   1   5 -11   18.76    2.78
   0  -5 -11   11.14    1.33
   0  -5  11   14.96    2.48
   0  -5  11   11.62    1.95
   0  -5  11   12.25    1.85
   0   5 -11    7.80    1.94
   0   5 -11   10.12    2.11
  -1  -5 -11    9.05    1.33
   1  -5  11    6.35    1.58
   1  -5  11    8.89    1.64
   1  -5  11   11.25    2.28
  -1   5 -11    7.48    1.78
   1   5  11    3.67    1.33
  -2  -6  11   14.23    2.61
  -2  -6  11   14.24    2.32
   2   6 -11   14.41    2.56
   1  -6 -11    7.71    0.89
  -1  -6  11    4.84    1.39
  -1  -6  11    8.88    2.04
   1   6 -11    8.11    1.87
   0  -6 -11   11.19    1.22
   0  -6  11    9.38    2.09
   0  -6  11    9.06    1.86
   0  -6  11   10.31    1.91
   0   6 -11   13.92    2.49
  -4   0  12    1.86    0.99
  -3   0  12    6.35    1.37
  -2   0  12    6.27    1.45
   2   0 -12    4.55    1.25
   1   0 -12   25.04    2.78
  -1   0  12   28.12    2.73
   0   0 -12   33.27    2.77
   0   0  12   34.38    2.65
   1   0  12    2.55    1.00
  -1   0 -12    0.58    0.74
  -4  -1  12    8.38    1.83
  -4   1  12    7.97    1.63
  -3  -1  12   25.39    2.91
  -3   1  12   23.88    2.51
   2  -1 -12   33.92    2.65
  -2  -1  12   32.18    3.21
   2   1 -12   33.97    3.37
  -2   1  12   32.82    2.38
  -1  -1  12   10.69    1.81
   1  -1 -12    6.31    1.39
   1   1 -12    8.26    1.71
  -1   1  12    8.42    1.47
   0  -1 -12   15.13    2.07
   0  -1  12   11.80    2.01
   0   1  12    9.47    1.55
   0   1 -12    8.87    1.79
   1  -1  12   32.16    3.30
  -1  -1 -12   29.45    3.13
   1   1  12   31.14    2.98
  -1   1 -12   23.68    2.89
  -3  -2  12   16.17    2.45
  -3   2  12   12.46    1.70
  -2  -2  12   28.40    3.17
   2  -2 -12   20.15    2.29
   2   2 -12   24.24    2.91
  -2   2  12   24.50    1.87
   1  -2 -12   17.40    2.12
  -1  -2  12   14.57    2.25
   1   2 -12   19.37    2.64
  -1   2  12   19.67    1.97
   0  -2  12    3.29    1.26
   0  -2 -12    3.65    1.03
   0   2 -12    6.40    1.69
   0   2  12    5.66    1.12
   1  -2  12    3.70    1.32
  -1  -2 -12    3.33    1.03
   1   2  12    1.12    0.77
  -1   2 -12    1.68    1.08
  -3  -3  12   21.23    2.41
  -3  -3  12   19.41    2.72
  -3   3  12   20.21    1.90
  -2  -3  12   12.54    2.20
   2  -3 -12   11.66    1.63
  -2  -3  12   12.16    1.79
   2   3 -12   15.78    2.57
  -2   3  12   14.63    1.48
  -1  -3  12   34.51    3.59
  -1  -3  12   34.59    2.51
   1  -3 -12   32.68    2.33
  -1   3  12   36.71    1.97
   1   3 -12   36.36    3.83
   0  -3 -12   33.54    2.41
   0  -3  12   35.55    3.66
   0  -3  12   36.79    2.62
   0   3  12   42.79    2.26
   0   3 -12   42.60    4.11
   1  -3  12   12.69    1.86
   1  -3  12   11.93    2.18
  -1  -3 -12   12.54    1.87
   1   3  12   19.07    1.94
  -1   3 -12   15.74    2.59
  -2  -4  12   14.88    2.45
  -2  -4  12   17.32    2.32
   2   4 -12   16.06    2.69
   2   4 -12   12.47    2.27
   1  -4 -12   18.46    1.87
  -1  -4  12   18.21    2.39
  -1  -4  12   20.34    2.87
   1   4 -12   19.97    2.98
   1   4 -12   14.29    2.44
   0  -4 -12    9.33    1.42
   0  -4  12   11.75    1.88
   0  -4  12   10.38    2.10
   0   4 -12   13.43    2.43
   0   4 -12   11.47    2.09
   2   0 -13   23.54    2.93
  -2   0  13   21.53    2.59
   1   0 -13   17.38    2.43
  -1   0  13   24.80    2.74
  -2  -1  13    8.92    1.79
   2  -1 -13    7.33    1.57
   2   1 -13   12.45    2.26
  -2   1  13   11.87    1.81
   1  -1 -13    0.83    0.77
  -1  -1  13   -0.10    0.65
   1   1 -13    1.46    0.93
  -1   1  13    0.62    0.63
   0   0   0    0.00    0.00
;
_shelx_hkl_checksum              95411
_shelx_res_file
;
REM  P2(1) in P2(1)
REM R1 =  0.0418 for   2296 Fo > 4sig(Fo)  and  0.0427 for all   2356 data
REM     61 parameters refined using      1 restraints
REM Highest difference peak  1.023,  deepest hole -0.607,  1-sigma level  0.132
REM  P2(1) in P2(1)
REM R1 =  0.0381 for   2296 Fo > 4sig(Fo)  and  0.0390 for all   2356 data
REM     61 parameters refined using      1 restraints
REM Highest difference peak  0.666,  deepest hole -0.535,  1-sigma level  0.117
REM  P2(1) in P2(1)
REM R1 =  0.0381 for   2296 Fo > 4sig(Fo)  and  0.0390 for all   2356 data
REM     61 parameters refined using      1 restraints
REM Highest difference peak  0.666,  deepest hole -0.535,  1-sigma level  0.117
REM  P2(1) in P2(1)
REM R1 =  0.0381 for   2296 Fo > 4sig(Fo)  and  0.0390 for all   2356 data
REM     61 parameters refined using      1 restraints
REM Highest difference peak  0.666,  deepest hole -0.535,  1-sigma level  0.117
REM  P2(1) in P2(1)
REM R1 =  0.0227 for   2293 Fo > 4sig(Fo)  and  0.0235 for all   2353 data
REM    137 parameters refined using      1 restraints
REM Highest difference peak  0.242,  deepest hole -0.495,  1-sigma level  0.055
REM  P2(1) in P2(1)
REM R1 =  0.0228 for   2293 Fo > 4sig(Fo)  and  0.0235 for all   2353 data
REM    137 parameters refined using      1 restraints
REM Highest difference peak  0.242,  deepest hole -0.495,  1-sigma level  0.055
REM  P2(1) in P2(1)
REM R1 =  0.0228 for   2293 Fo > 4sig(Fo)  and  0.0235 for all   2353 data
REM    137 parameters refined using      1 restraints
REM Highest difference peak  0.242,  deepest hole -0.495,  1-sigma level  0.055
REM  P2(1) in P2(1)
REM R1 =  0.0228 for   2293 Fo > 4sig(Fo)  and  0.0235 for all   2353 data
REM    137 parameters refined using      1 restraints
REM Highest difference peak  0.242,  deepest hole -0.495,  1-sigma level  0.055
REM  P2(1) in P2(1)
REM R1 =  0.0210 for   2293 Fo > 4sig(Fo)  and  0.0218 for all   2353 data
REM    140 parameters refined using      1 restraints
REM Highest difference peak  0.229,  deepest hole -0.199,  1-sigma level  0.049
REM  P2(1) in P2(1)
REM R1 =  0.0210 for    2293 Fo > 4sig(Fo)  and  0.0217 for all    2353 data
REM    140 parameters refined using      1 restraints
REM Highest difference peak  0.228,  deepest hole -0.200,  1-sigma level  0.049
TITL P2(1) in P2(1)
    C:\CHRIST~2\mof3\p2(1).res
    created by SHELXL-2017/1 at 15:59:22 on 20-Sep-2017
CELL 0.71073 5.5666 8.7105 9.8314 90.000 100.311 90.000
ZERR 2.0000 0.0004 0.0006 0.0007 0.000 0.001 0.000
LATT -1
SYMM -X, 0.5+Y, -Z
SFAC C H N O CO
UNIT 12 24 4 12 2
MERG 2
FMAP 2
GRID
PLAN 5
TEMP -100
SIZE 0.22 0.24 0.24
OMIT         1 1 0
OMIT         1 -1 0
OMIT         -1 0 1
L.S. 20
ACTA
WGHT    0.027700
FVAR       0.39144
CO1   5    0.484479    0.833821    0.194076    11.00000    0.01072    0.01198 =
         0.01185    0.00012    0.00152    0.00105
O1B   4    0.250140    0.913495    0.325394    11.00000    0.01640    0.01969 =
         0.01558   -0.00116    0.00162    0.00552
N1A   3    0.229718    0.656109    0.128961    11.00000    0.01118    0.01482 =
         0.01284    0.00033    0.00313    0.00032
AFIX  23
H1A1  2    0.215527    0.595708    0.202630    11.00000   -1.20000
H1A2  2    0.080814    0.698107    0.096482    11.00000   -1.20000
AFIX   0
O2A   4    0.682711    0.477667   -0.038445    11.00000    0.01139    0.01960 =
         0.02038   -0.00806    0.00176    0.00087
O2B   4    0.168810    0.910697    0.538585    11.00000    0.02153    0.03388 =
         0.02221   -0.00479    0.00969    0.00095
C2B   1    0.501406    0.757465    0.496444    11.00000    0.01915    0.01566 =
         0.01516    0.00007    0.00476   -0.00130
AFIX  13
H2B   2    0.425786    0.654164    0.502740    11.00000   -1.20000
AFIX   0
C1B   1    0.292854    0.871214    0.451794    11.00000    0.01496    0.01499 =
         0.01670   -0.00311    0.00319   -0.00225
C2A   1    0.304884    0.561246    0.020169    11.00000    0.01034    0.01471 =
         0.01335   -0.00015    0.00217    0.00064
AFIX  13
H2A   2    0.261472    0.451547    0.033510    11.00000   -1.20000
AFIX   0
O3B   4    0.755336    0.942811    0.640852    11.00000    0.01953    0.02837 =
         0.02870   -0.01407    0.00566   -0.00304
AFIX 147
H3B   2    0.880303    0.937581    0.604197    11.00000   -1.20000
AFIX   0
N1B   3    0.658703    0.746491    0.390583    11.00000    0.01754    0.01727 =
         0.01369   -0.00081    0.00236    0.00370
AFIX  23
H1B1  2    0.699717    0.646471    0.380866    11.00000   -1.20000
H1B2  2    0.798857    0.799991    0.419787    11.00000   -1.20000
AFIX   0
C3B   1    0.644549    0.794928    0.638616    11.00000    0.02474    0.02568 =
         0.01321    0.00156    0.00160    0.00154
AFIX  23
H3B1  2    0.533739    0.792153    0.706907    11.00000   -1.20000
H3B2  2    0.772685    0.716300    0.665458    11.00000   -1.20000
AFIX   0
O1A   4    0.689837    0.687336    0.090822    11.00000    0.00997    0.01826 =
         0.02202   -0.00744    0.00204   -0.00089
C1A   1    0.579933    0.575031    0.025826    11.00000    0.01032    0.01481 =
         0.01131    0.00036    0.00149    0.00160
O3A   4    0.220448    0.508256   -0.226851    11.00000    0.01331    0.01977 =
         0.01600   -0.00478    0.00055    0.00026
H3A2  2    0.099483    0.477287   -0.251332    11.00000   -1.20000
C3A   1    0.178313    0.615717   -0.122328    11.00000    0.01334    0.01634 =
         0.01476   -0.00128    0.00083    0.00228
AFIX  23
H1    2    0.000691    0.625528   -0.123775    11.00000   -1.20000
H2    2    0.242032    0.717924   -0.141951    11.00000   -1.20000
AFIX   0
HKLF 4
REM  P2(1) in P2(1)
REM R1 =  0.0210 for    2293 Fo > 4sig(Fo)  and  0.0217 for all    2353 data
REM    140 parameters refined using      1 restraints
END
WGHT      0.0277      0.0000
REM Highest difference peak  0.228,  deepest hole -0.200,  1-sigma level  0.049
Q1    1   0.3817  0.8057  0.4671  11.00000  0.05    0.23
Q2    1   0.6124  0.8372  0.7239  11.00000  0.05    0.23
Q3    1   0.2440  0.5757 -0.0450  11.00000  0.05    0.21
Q4    1   0.4320  0.5713  0.0268  11.00000  0.05    0.21
Q5    1   0.5027  0.7710  0.1211  11.00000  0.05    0.20
;
_shelx_res_checksum              31282
loop_
_space_group_symop_operation_xyz
'x, y, z'
'-x, y+1/2, -z'
loop_
_atom_site_type_symbol
_atom_site_label
_atom_site_fract_x
_atom_site_fract_y
_atom_site_fract_z
_atom_site_U_iso_or_equiv
_atom_site_adp_type
_atom_site_calc_flag
_atom_site_occupancy
_atom_site_disorder_assembly
_atom_site_disorder_group
Co Co1 0.48448(5) 0.83382(4) 0.19408(3) 0.01158(9) Uani d 1 . .
O O1B 0.2501(3) 0.9135(2) 0.32539(18) 0.0174(4) Uani d 1 . .
N N1A 0.2297(4) 0.6561(2) 0.1290(2) 0.0128(4) Uani d 1 . .
H H1A1 0.215527 0.595708 0.202630 0.015 Uiso calc 1 . .
H H1A2 0.080814 0.698107 0.096482 0.015 Uiso calc 1 . .
O O2A 0.6827(3) 0.4777(2) -0.03844(19) 0.0173(4) Uani d 1 . .
O O2B 0.1688(4) 0.9107(3) 0.5386(2) 0.0252(4) Uani d 1 . .
C C2B 0.5014(5) 0.7575(3) 0.4964(3) 0.0164(5) Uani d 1 . .
H H2B 0.425786 0.654164 0.502740 0.020 Uiso calc 1 . .
C C1B 0.2929(5) 0.8712(3) 0.4518(3) 0.0155(5) Uani d 1 . .
C C2A 0.3049(4) 0.5612(3) 0.0202(3) 0.0128(5) Uani d 1 . .
H H2A 0.261472 0.451547 0.033510 0.015 Uiso calc 1 . .
O O3B 0.7553(4) 0.9428(2) 0.6409(2) 0.0254(5) Uani d 1 . .
H H3B 0.880303 0.937581 0.604197 0.030 Uiso calc 1 . .
N N1B 0.6587(4) 0.7465(3) 0.3906(2) 0.0162(5) Uani d 1 . .
H H1B1 0.699717 0.646471 0.380866 0.019 Uiso calc 1 . .
H H1B2 0.798857 0.799991 0.419787 0.019 Uiso calc 1 . .
C C3B 0.6445(5) 0.7949(3) 0.6386(3) 0.0214(6) Uani d 1 . .
H H3B1 0.533739 0.792153 0.706907 0.026 Uiso calc 1 . .
H H3B2 0.772685 0.716300 0.665458 0.026 Uiso calc 1 . .
O O1A 0.6898(3) 0.6873(2) 0.09082(19) 0.0168(4) Uani d 1 . .
C C1A 0.5799(5) 0.5750(3) 0.0258(3) 0.0122(5) Uani d 1 . .
O O3A 0.2204(4) 0.5083(2) -0.22685(19) 0.0166(4) Uani d 1 . .
H H3A2 0.099(7) 0.477(4) -0.251(3) 0.020 Uiso d 1 . .
C C3A 0.1783(5) 0.6157(3) -0.1223(3) 0.0150(5) Uani d 1 . .
H H1 0.000691 0.625528 -0.123775 0.018 Uiso calc 1 . .
H H2 0.242032 0.717924 -0.141951 0.018 Uiso calc 1 . .
loop_
_atom_site_aniso_label
_atom_site_aniso_U_11
_atom_site_aniso_U_22
_atom_site_aniso_U_33
_atom_site_aniso_U_12
_atom_site_aniso_U_13
_atom_site_aniso_U_23
Co1 0.01072(14) 0.01198(13) 0.01185(15) 0.00105(14) 0.00152(10) 0.00012(15)
O1B 0.0164(9) 0.0197(9) 0.0156(9) 0.0055(7) 0.0016(7) -0.0012(7)
N1A 0.0112(10) 0.0148(9) 0.0128(11) 0.0003(8) 0.0031(8) 0.0003(8)
O2A 0.0114(8) 0.0196(9) 0.0204(9) 0.0009(7) 0.0018(7) -0.0081(8)
O2B 0.0215(10) 0.0339(11) 0.0222(10) 0.0010(9) 0.0097(8) -0.0048(9)
C2B 0.0192(12) 0.0157(12) 0.0152(12) -0.0013(10) 0.0048(10) 0.0001(10)
C1B 0.0150(11) 0.0150(13) 0.0167(12) -0.0023(8) 0.0032(9) -0.0031(9)
C2A 0.0103(11) 0.0147(11) 0.0133(12) 0.0006(9) 0.0022(9) -0.0001(9)
O3B 0.0195(10) 0.0284(11) 0.0287(11) -0.0030(8) 0.0057(9) -0.0141(9)
N1B 0.0175(10) 0.0173(11) 0.0137(11) 0.0037(9) 0.0024(8) -0.0008(8)
C3B 0.0247(14) 0.0257(16) 0.0132(13) 0.0015(10) 0.0016(10) 0.0016(10)
O1A 0.0100(8) 0.0183(8) 0.0220(10) -0.0009(7) 0.0020(7) -0.0074(7)
C1A 0.0103(11) 0.0148(11) 0.0113(12) 0.0016(9) 0.0015(9) 0.0004(9)
O3A 0.0133(9) 0.0198(9) 0.0160(9) 0.0003(8) 0.0006(7) -0.0048(7)
C3A 0.0133(12) 0.0163(12) 0.0148(13) 0.0023(9) 0.0008(10) -0.0013(10)
loop_
_atom_type_symbol
_atom_type_description
_atom_type_scat_dispersion_real
_atom_type_scat_dispersion_imag
_atom_type_scat_source
C C 0.0033 0.0016 'International Tables Vol C Tables 4.2.6.8 and 6.1.1.4'
H H 0.0000 0.0000 'International Tables Vol C Tables 4.2.6.8 and 6.1.1.4'
N N 0.0061 0.0033 'International Tables Vol C Tables 4.2.6.8 and 6.1.1.4'
O O 0.0106 0.0060 'International Tables Vol C Tables 4.2.6.8 and 6.1.1.4'
Co Co 0.3494 0.9721 'International Tables Vol C Tables 4.2.6.8 and 6.1.1.4'
loop_
_geom_angle_atom_site_label_1
_geom_angle_atom_site_label_2
_geom_angle_atom_site_label_3
_geom_angle_site_symmetry_1
_geom_angle_site_symmetry_3
_geom_angle
_geom_angle_publ_flag
O1A Co1 N1A . . 78.60(8) y
O1B Co1 N1B . . 78.14(8) y
O2A Co1 O3A 2_655 2_655 85.17(7) y
O1A Co1 O1B . . 161.50(7) y
N1A Co1 O3A . 2_655 169.15(8) y
O2A Co1 N1B 2_655 . 162.83(8) y
O2A Co1 O1A 2_655 . 102.90(7) ?
O2A Co1 O1B 2_655 . 90.45(7) ?
O2A Co1 N1A 2_655 . 91.77(8) ?
O1B Co1 N1A . . 88.37(8) ?
O1A Co1 N1B . . 91.29(8) ?
N1A Co1 N1B . . 100.58(8) ?
O1A Co1 O3A . 2_655 91.92(7) ?
O1B Co1 O3A . 2_655 102.04(7) ?
N1B Co1 O3A . 2_655 84.73(8) ?
C1B O1B Co1 . . 118.21(16) ?
C2A N1A Co1 . . 111.59(15) ?
C1A O2A Co1 . 2_645 126.67(16) ?
N1B C2B C3B . . 112.5(2) ?
N1B C2B C1B . . 110.8(2) ?
C3B C2B C1B . . 111.8(2) ?
O2B C1B O1B . . 124.1(2) ?
O2B C1B C2B . . 118.0(2) ?
O1B C1B C2B . . 117.8(2) ?
N1A C2A C3A . . 110.4(2) ?
N1A C2A C1A . . 110.1(2) ?
C3A C2A C1A . . 107.7(2) ?
C2B N1B Co1 . . 112.50(16) ?
O3B C3B C2B . . 111.3(2) ?
C1A O1A Co1 . . 117.37(17) ?
O2A C1A O1A . . 123.7(2) ?
O2A C1A C2A . . 118.2(2) ?
O1A C1A C2A . . 118.1(2) ?
C3A O3A Co1 . 2_645 123.54(15) ?
O3A C3A C2A . . 110.21(19) ?
loop_
_geom_bond_atom_site_label_1
_geom_bond_atom_site_label_2
_geom_bond_site_symmetry_2
_geom_bond_distance
_geom_bond_publ_flag
Co1 O1A . 2.0930(19) y
Co1 O1B . 2.1102(19) y
Co1 O2A 2_655 2.0658(18) y
Co1 O3A 2_655 2.2183(19) y
Co1 N1A . 2.119(2) y
Co1 N1B . 2.140(2) y
O1B C1B . 1.277(3) ?
N1A C2A . 1.470(3) ?
O2A C1A . 1.255(3) ?
O2B C1B . 1.239(3) ?
C2B N1B . 1.478(4) ?
C2B C3B . 1.515(4) ?
C2B C1B . 1.530(4) ?
C2A C3A . 1.527(3) ?
C2A C1A . 1.527(4) ?
O3B C3B . 1.427(3) ?
O1A C1A . 1.265(3) ?
O3A C3A . 1.440(3) ?

_cod_database_fobs_code 2022500
