#------------------------------------------------------------------------------
#$Date: 2020-08-14 07:45:47 +0300 (Fri, 14 Aug 2020) $
#$Revision: 255315 $
#$URL: file:///home/coder/svn-repositories/cod/cif/2/02/22/2022235.cif $
#------------------------------------------------------------------------------
#
# This file is available in the Crystallography Open Database (COD),
# http://www.crystallography.net/. The original data for this entry
# were provided by IUCr Journals, http://journals.iucr.org/.
#
# The file may be used within the scientific community so long as
# proper attribution is given to the journal article from which the
# data were obtained.
#
data_2022235
loop_
_publ_author_name
'Cong, Nguyen Tien'
'Trang, Huynh Thi Xuan'
'Dung, Pham Duc'
'Phuong, Tran Hoang'
'Trung, Vu Quoc'
'Dat, Nguyen Dang'
'Anh, Dang Thi Tuyet'
'Tuyen, Nguyen Van'
'Van Meervelt, Luc'
_publ_section_title
;
 Synthesis, structure and <i>in vitro</i> cytotoxicity testing of some
 2-aroylbenzofuran-3-ols
;
_journal_coeditor_code           SK3753
_journal_issue                   9
_journal_name_full               'Acta Crystallographica Section C'
_journal_page_first
;
;
_journal_paper_doi               10.1107/S2053229620011018
_journal_volume                  76
_journal_year                    2020
_chemical_formula_iupac          'C15 H8 Br2 O3'
_chemical_formula_moiety         'C15 H8 Br2 O3'
_chemical_formula_sum            'C15 H8 Br2 O3'
_chemical_formula_weight         396.03
_chemical_name_systematic
;
(5-Bromo-3-hydroxybenzofuran-2-yl)(4-bromophenyl)methanone
;
_space_group_crystal_system      triclinic
_space_group_IT_number           2
_space_group_name_Hall           '-P 1'
_space_group_name_H-M_alt        'P -1'
_atom_sites_solution_hydrogens   mixed
_audit_creation_method
;
Olex2 1.2
(compiled 2018.05.29 svn.r3510 for OlexSys, GUI svn.r5506)
;
_cell_angle_alpha                92.230(5)
_cell_angle_beta                 103.091(5)
_cell_angle_gamma                101.219(6)
_cell_formula_units_Z            2
_cell_length_a                   7.0725(4)
_cell_length_b                   7.0884(5)
_cell_length_c                   14.6069(8)
_cell_measurement_reflns_used    3969
_cell_measurement_temperature    294(2)
_cell_measurement_theta_max      25.0150
_cell_measurement_theta_min      2.8510
_cell_volume                     696.98(8)
_computing_cell_refinement
;
CrysAlis PRO (Rigaku OD, 2018)
;
_computing_data_collection
;
CrysAlis PRO (Rigaku OD, 2018)
;
_computing_data_reduction
;
CrysAlis PRO (Rigaku OD, 2018)
;
_computing_molecular_graphics
;
OLEX2 (Dolomanov <i>et al.</i>,  2009)
;
_computing_publication_material
;
OLEX2 (Dolomanov <i>et al.</i>,  2009)
;
_computing_structure_refinement
;
SHELXL2016 (Sheldrick, 2015b)
;
_computing_structure_solution
;
SHELXT (Sheldrick, 2015a)
;
_diffrn_ambient_temperature      294.15
_diffrn_detector                 'CCD plate'
_diffrn_detector_area_resol_mean 15.9631
_diffrn_measured_fraction_theta_full 0.998
_diffrn_measured_fraction_theta_max 0.998
_diffrn_measurement_device       'four-circle diffractometer'
_diffrn_measurement_device_type
'Rigaku OD SuperNova Single source diffractometer with an Eos detector'
_diffrn_measurement_method       '\w scans'
_diffrn_radiation_monochromator  mirror
_diffrn_radiation_probe          x-ray
_diffrn_radiation_type           MoK\a
_diffrn_radiation_wavelength     0.71073
_diffrn_reflns_av_R_equivalents  0.0456
_diffrn_reflns_av_unetI/netI     0.0416
_diffrn_reflns_limit_h_max       8
_diffrn_reflns_limit_h_min       -8
_diffrn_reflns_limit_k_max       8
_diffrn_reflns_limit_k_min       -8
_diffrn_reflns_limit_l_max       18
_diffrn_reflns_limit_l_min       -18
_diffrn_reflns_number            14183
_diffrn_reflns_theta_full        25.242
_diffrn_reflns_theta_max         26.357
_diffrn_reflns_theta_min         2.874
_diffrn_source                   'micro-focus sealed X-ray tube'
_exptl_absorpt_coefficient_mu    5.818
_exptl_absorpt_correction_T_max  1.00000
_exptl_absorpt_correction_T_min  0.52317
_exptl_absorpt_correction_type   multi-scan
_exptl_absorpt_process_details
;
(CrysAlis PRO; Rigaku OD, 2018)
;
_exptl_crystal_colour            yellow
_exptl_crystal_density_diffrn    1.887
_exptl_crystal_description       plate
_exptl_crystal_F_000             384
_exptl_crystal_size_max          0.35
_exptl_crystal_size_mid          0.15
_exptl_crystal_size_min          0.05
_refine_diff_density_max         0.444
_refine_diff_density_min         -0.400
_refine_ls_extinction_method     none
_refine_ls_goodness_of_fit_ref   1.035
_refine_ls_hydrogen_treatment    mixed
_refine_ls_matrix_type           full
_refine_ls_number_parameters     185
_refine_ls_number_reflns         2840
_refine_ls_number_restraints     0
_refine_ls_restrained_S_all      1.035
_refine_ls_R_factor_all          0.0798
_refine_ls_R_factor_gt           0.0462
_refine_ls_shift/su_max          0.001
_refine_ls_shift/su_mean         0.000
_refine_ls_structure_factor_coef Fsqd
_refine_ls_weighting_details
'w=1/[\s^2^(Fo^2^)+(0.0415P)^2^+0.4345P] where P=(Fo^2^+2Fc^2^)/3'
_refine_ls_weighting_scheme      calc
_refine_ls_wR_factor_gt          0.0959
_refine_ls_wR_factor_ref         0.1093
_reflns_number_gt                1867
_reflns_number_total             2840
_reflns_threshold_expression     'I > 2\s(I)'
_iucr_refine_instructions_details
;
TITL TR1013 in P-1 #2
 tr1013.res created by SHELXL-2016/4 at 12:21:56 on 08-Mar-2019
REM reset to P-1 #2
CELL 0.71073 7.07252 7.08836 14.606918 92.2304 103.0914 101.2191
ZERR 2 0.000447 0.000543 0.000818 0.0053 0.0053 0.006
LATT 1
SFAC C H Br O
UNIT 30 16 4 6
L.S. 10
PLAN  5
SIZE 0.35 0.15 0.05
TEMP 21
conf
htab
fmap 2
acta
SHEL 999 0.8
OMIT -6 3 0
OMIT 6 0 0
OMIT 7 0 0
OMIT -3 6 12
REM <olex2.extras>
REM <HklSrc "%./TR1013.hkl">
REM </olex2.extras>
WGHT    0.041500    0.434500
FVAR       0.50359
O1    4    0.269850    0.550280    0.386003    11.00000    0.05326    0.04705 =
         0.04746    0.00849    0.01748    0.00616
C2    1    0.223593    0.369889    0.420514    11.00000    0.04412    0.04400 =
         0.04827    0.00850    0.01354    0.00821
C3    1    0.189264    0.226866    0.349590    11.00000    0.05060    0.04838 =
         0.05305    0.01017    0.02025    0.01075
C4    1    0.213250    0.314692    0.265659    11.00000    0.03803    0.05297 =
         0.05183    0.00897    0.01467    0.01057
C5    1    0.194968    0.246533    0.172121    11.00000    0.05063    0.05626 =
         0.05507    0.00208    0.01489    0.01049
AFIX  43
H5    2    0.162112    0.115376    0.152601    11.00000   -1.20000
AFIX   0
C6    1    0.228263    0.384151    0.111003    11.00000    0.05387    0.08394 =
         0.04397    0.00591    0.01232    0.01602
C7    1    0.274469    0.581543    0.138044    11.00000    0.06412    0.07501 =
         0.05643    0.02065    0.01939    0.01129
AFIX  43
H7    2    0.294088    0.668302    0.093245    11.00000   -1.20000
AFIX   0
C8    1    0.291898    0.651700    0.230221    11.00000    0.06712    0.05749 =
         0.05170    0.01353    0.02105    0.00681
AFIX  43
H8    2    0.322333    0.783073    0.249141    11.00000   -1.20000
AFIX   0
C9    1    0.260547    0.511282    0.292451    11.00000    0.03967    0.05703 =
         0.04568    0.00711    0.01418    0.00809
C10   1    0.211733    0.341198    0.515699    11.00000    0.04507    0.04943 =
         0.04802    0.01336    0.01228    0.00962
O11   4    0.167862    0.168865    0.532462    11.00000    0.09912    0.04528 =
         0.05652    0.01455    0.02272    0.00695
C12   1    0.244461    0.495695    0.591989    11.00000    0.03642    0.05212 =
         0.04318    0.01295    0.01160    0.01038
C13   1    0.224257    0.439297    0.680248    11.00000    0.05564    0.05364 =
         0.05278    0.01762    0.01833    0.01110
AFIX  43
H13   2    0.190559    0.308580    0.688378    11.00000   -1.20000
AFIX   0
C14   1    0.252918    0.571989    0.754955    11.00000    0.05590    0.06895 =
         0.04685    0.01355    0.01831    0.01134
AFIX  43
H14   2    0.239823    0.532483    0.813584    11.00000   -1.20000
AFIX   0
C15   1    0.301507    0.765201    0.742180    11.00000    0.04577    0.05965 =
         0.04857    0.00231    0.01257    0.00776
C16   1    0.321791    0.827204    0.656412    11.00000    0.05452    0.04694 =
         0.05827    0.00791    0.01348    0.00597
AFIX  43
H16   2    0.354165    0.958359    0.648961    11.00000   -1.20000
AFIX   0
C17   1    0.293436    0.692075    0.581465    11.00000    0.05003    0.05222 =
         0.04391    0.01094    0.01309    0.00859
AFIX  43
H17   2    0.307233    0.732746    0.523116    11.00000   -1.20000
AFIX   0
BR18  3    0.341423    0.949072    0.846455    11.00000    0.08375    0.07740 =
         0.06307   -0.01117    0.02478    0.00502
O19   4    0.138542    0.036454    0.355201    11.00000    0.10168    0.04612 =
         0.05859    0.00826    0.03123    0.01284
BR20  3    0.208574    0.301109   -0.016433    11.00000    0.11667    0.11314 =
         0.04618    0.00716    0.02272    0.03029
H19   2    0.126712    0.030396    0.410638    11.00000    0.10039
HKLF 4
REM  TR1013 in P-1 #2
REM R1 =  0.0462 for    1867 Fo > 4sig(Fo)  and  0.0798 for all    2840 data
REM    185 parameters refined using      0 restraints
END
WGHT      0.0415      0.4346
REM Instructions for potential hydrogen bonds
EQIV $1 x, y, z+
HTAB C14 BR20_$1
EQIV $2 x, y+1,
HTAB C16 O11_$2
HTAB O19 O11
EQIV $3 -x, -y, -z+
HTAB O19 O11_$3
REM Highest difference peak  0.444,  deepest hole -0.400,  1-sigma level  0.071
Q1    1   0.2968  0.8205  0.8555  11.00000  0.05    0.44
Q2    1   0.2620  0.8238  0.2456  11.00000  0.05    0.44
Q3    1   0.1493  0.1648 -0.0043  11.00000  0.05    0.39
Q4    1   0.2029  0.9384  0.8750  11.00000  0.05    0.38
Q5    1   0.0880  0.3192 -0.0016  11.00000  0.05    0.34
  REM The information below was added by Olex2.
  REM
  REM R1 = 0.0462 for 1867 Fo > 4sig(Fo) and 0.0798 for all 15195 data
  REM n/a parameters refined using n/a restraints
  REM Highest difference peak 0.44, deepest hole -0.40
  REM Mean Shift 0, Max Shift 0.001.
  REM +++ Tabular Listing of Refinement Information +++
  REM R1_all = 0.0798
  REM R1_gt = 0.0462
  REM wR_ref = 0.1093
  REM GOOF = 1.035
  REM Shift_max = 0.001
  REM Shift_mean = 0
  REM Reflections_all = 15195
  REM Reflections_gt = 1867
  REM Parameters = n/a
  REM Hole = -0.40
  REM Peak = 0.44
  REM Flack = n/a
;
_cod_data_source_file            sk3753sup1.cif
_cod_data_source_block           4c
_cod_database_code               2022235
_shelx_space_group_comment
;
The symmetry employed for this shelxl refinement is uniquely defined
by the following loop, which should always be used as a source of
symmetry information in preference to the above space-group names.
They are only intended as comments.
;
_shelx_estimated_absorpt_t_min   0.235
_shelx_estimated_absorpt_t_max   0.760
loop_
_space_group_symop_operation_xyz
'x, y, z'
'-x, -y, -z'
loop_
_atom_site_type_symbol
_atom_site_label
_atom_site_fract_x
_atom_site_fract_y
_atom_site_fract_z
_atom_site_U_iso_or_equiv
_atom_site_adp_type
_atom_site_calc_flag
_atom_site_occupancy
_atom_site_disorder_assembly
_atom_site_disorder_group
O O1 0.2698(4) 0.5503(4) 0.38600(19) 0.0488(7) Uani d 1 . .
C C2 0.2236(6) 0.3699(6) 0.4205(3) 0.0451(10) Uani d 1 . .
C C3 0.1893(6) 0.2269(6) 0.3496(3) 0.0492(10) Uani d 1 . .
C C4 0.2133(6) 0.3147(6) 0.2657(3) 0.0467(10) Uani d 1 . .
C C5 0.1950(6) 0.2465(7) 0.1721(3) 0.0538(11) Uani d 1 . .
H H5 0.162112 0.115376 0.152601 0.065 Uiso calc 1 . .
C C6 0.2283(6) 0.3842(8) 0.1110(3) 0.0603(13) Uani d 1 . .
C C7 0.2745(7) 0.5815(8) 0.1380(3) 0.0644(13) Uani d 1 . .
H H7 0.294088 0.668302 0.093245 0.077 Uiso calc 1 . .
C C8 0.2919(7) 0.6517(7) 0.2302(3) 0.0583(12) Uani d 1 . .
H H8 0.322333 0.783073 0.249141 0.070 Uiso calc 1 . .
C C9 0.2605(6) 0.5113(6) 0.2925(3) 0.0470(10) Uani d 1 . .
C C10 0.2117(6) 0.3412(6) 0.5157(3) 0.0471(10) Uani d 1 . .
O O11 0.1679(5) 0.1689(4) 0.5325(2) 0.0672(9) Uani d 1 . .
C C12 0.2445(5) 0.4957(6) 0.5920(3) 0.0432(10) Uani d 1 . .
C C13 0.2243(6) 0.4393(7) 0.6802(3) 0.0528(11) Uani d 1 . .
H H13 0.190559 0.308580 0.688378 0.063 Uiso calc 1 . .
C C14 0.2529(6) 0.5720(7) 0.7550(3) 0.0562(12) Uani d 1 . .
H H14 0.239823 0.532483 0.813584 0.067 Uiso calc 1 . .
C C15 0.3015(6) 0.7652(7) 0.7422(3) 0.0516(11) Uani d 1 . .
C C16 0.3218(6) 0.8272(7) 0.6564(3) 0.0538(11) Uani d 1 . .
H H16 0.354165 0.958359 0.648961 0.065 Uiso calc 1 . .
C C17 0.2934(6) 0.6921(6) 0.5815(3) 0.0485(10) Uani d 1 . .
H H17 0.307233 0.732746 0.523116 0.058 Uiso calc 1 . .
Br Br18 0.34142(8) 0.94907(8) 0.84645(4) 0.0757(2) Uani d 1 . .
O O19 0.1385(5) 0.0365(5) 0.3552(3) 0.0671(9) Uani d 1 . .
Br Br20 0.20857(10) 0.30111(10) -0.01643(4) 0.0906(3) Uani d 1 . .
H H19 0.127(9) 0.030(8) 0.411(4) 0.10(2) Uiso d 1 . .
loop_
_atom_site_aniso_label
_atom_site_aniso_U_11
_atom_site_aniso_U_22
_atom_site_aniso_U_33
_atom_site_aniso_U_12
_atom_site_aniso_U_13
_atom_site_aniso_U_23
O1 0.0533(18) 0.0470(17) 0.0475(16) 0.0062(14) 0.0175(13) 0.0085(13)
C2 0.044(2) 0.044(3) 0.048(2) 0.008(2) 0.0135(19) 0.009(2)
C3 0.051(3) 0.048(3) 0.053(3) 0.011(2) 0.020(2) 0.010(2)
C4 0.038(2) 0.053(3) 0.052(3) 0.011(2) 0.0147(19) 0.009(2)
C5 0.051(3) 0.056(3) 0.055(3) 0.010(2) 0.015(2) 0.002(2)
C6 0.054(3) 0.084(4) 0.044(2) 0.016(3) 0.012(2) 0.006(3)
C7 0.064(3) 0.075(4) 0.056(3) 0.011(3) 0.019(2) 0.021(3)
C8 0.067(3) 0.057(3) 0.052(3) 0.007(2) 0.021(2) 0.014(2)
C9 0.040(2) 0.057(3) 0.046(2) 0.008(2) 0.0142(19) 0.007(2)
C10 0.045(3) 0.049(3) 0.048(2) 0.010(2) 0.0123(19) 0.013(2)
O11 0.099(3) 0.0453(19) 0.0565(19) 0.0070(18) 0.0227(17) 0.0145(15)
C12 0.036(2) 0.052(3) 0.043(2) 0.010(2) 0.0116(18) 0.013(2)
C13 0.056(3) 0.054(3) 0.053(3) 0.011(2) 0.018(2) 0.018(2)
C14 0.056(3) 0.069(3) 0.047(3) 0.011(2) 0.018(2) 0.014(2)
C15 0.046(3) 0.060(3) 0.049(3) 0.008(2) 0.013(2) 0.002(2)
C16 0.055(3) 0.047(3) 0.058(3) 0.006(2) 0.013(2) 0.008(2)
C17 0.050(3) 0.052(3) 0.044(2) 0.009(2) 0.0131(19) 0.011(2)
Br18 0.0838(4) 0.0774(4) 0.0631(3) 0.0050(3) 0.0248(3) -0.0112(3)
O19 0.102(3) 0.046(2) 0.059(2) 0.0128(18) 0.031(2) 0.0083(16)
Br20 0.1167(5) 0.1131(5) 0.0462(3) 0.0303(4) 0.0227(3) 0.0072(3)
loop_
_atom_type_symbol
_atom_type_description
_atom_type_scat_dispersion_real
_atom_type_scat_dispersion_imag
_atom_type_scat_source
C C 0.0033 0.0016 'International Tables Vol C Tables 4.2.6.8 and 6.1.1.4'
H H 0.0000 0.0000 'International Tables Vol C Tables 4.2.6.8 and 6.1.1.4'
Br Br -0.2901 2.4595 'International Tables Vol C Tables 4.2.6.8 and 6.1.1.4'
O O 0.0106 0.0060 'International Tables Vol C Tables 4.2.6.8 and 6.1.1.4'
loop_
_geom_angle_atom_site_label_1
_geom_angle_atom_site_label_2
_geom_angle_atom_site_label_3
_geom_angle_site_symmetry_1
_geom_angle_site_symmetry_3
_geom_angle
_geom_angle_publ_flag
C9 O1 C2 . . 105.3(3) ?
O1 C2 C10 . . 124.7(4) ?
C3 C2 O1 . . 109.8(3) ?
C3 C2 C10 . . 125.5(4) ?
C2 C3 C4 . . 108.2(4) ?
O19 C3 C2 . . 127.2(4) ?
O19 C3 C4 . . 124.6(4) ?
C5 C4 C3 . . 135.0(4) ?
C9 C4 C3 . . 104.4(4) ?
C9 C4 C5 . . 120.6(4) ?
C6 C5 C4 . . 116.2(4) ?
C5 C6 C7 . . 123.1(4) ?
C5 C6 Br20 . . 118.2(4) ?
C7 C6 Br20 . . 118.7(4) ?
C8 C7 C6 . . 121.5(4) ?
C7 C8 C9 . . 115.2(5) ?
O1 C9 C4 . . 112.3(3) ?
O1 C9 C8 . . 124.3(4) ?
C4 C9 C8 . . 123.4(4) ?
C2 C10 C12 . . 125.6(4) ?
O11 C10 C2 . . 114.9(4) ?
O11 C10 C12 . . 119.5(4) ?
C13 C12 C10 . . 117.3(4) ?
C17 C12 C10 . . 124.5(3) ?
C17 C12 C13 . . 118.2(4) ?
C14 C13 C12 . . 121.3(4) ?
C13 C14 C15 . . 119.0(4) ?
C14 C15 Br18 . . 118.7(3) ?
C16 C15 C14 . . 121.6(4) ?
C16 C15 Br18 . . 119.6(3) ?
C15 C16 C17 . . 119.0(4) ?
C16 C17 C12 . . 120.8(4) ?
loop_
_geom_bond_atom_site_label_1
_geom_bond_atom_site_label_2
_geom_bond_site_symmetry_2
_geom_bond_distance
_geom_bond_publ_flag
O1 C2 . 1.399(5) ?
O1 C9 . 1.368(5) ?
C2 C3 . 1.367(6) ?
C2 C10 . 1.432(5) ?
C3 C4 . 1.425(5) ?
C3 O19 . 1.338(5) ?
C4 C5 . 1.400(6) ?
C4 C9 . 1.387(6) ?
C5 C6 . 1.370(6) ?
C6 C7 . 1.393(7) ?
C6 Br20 . 1.896(4) ?
C7 C8 . 1.387(6) ?
C8 C9 . 1.394(6) ?
C10 O11 . 1.248(5) ?
C10 C12 . 1.478(6) ?
C12 C13 . 1.394(5) ?
C12 C17 . 1.391(6) ?
C13 C14 . 1.365(6) ?
C14 C15 . 1.376(6) ?
C15 C16 . 1.372(6) ?
C15 Br18 . 1.899(4) ?
C16 C17 . 1.379(6) ?
loop_
_geom_hbond_atom_site_label_D
_geom_hbond_atom_site_label_H
_geom_hbond_atom_site_label_A
_geom_hbond_site_symmetry_D
_geom_hbond_site_symmetry_H
_geom_hbond_site_symmetry_A
_geom_hbond_distance_DH
_geom_hbond_distance_HA
_geom_hbond_distance_DA
_geom_hbond_angle_DHA
_geom_hbond_publ_flag
O19 H19 O11 1_555 1_555 1_555 0.84(6) 1.93(6) 2.669(5) 146(5) yes
C17 H17 O1 1_555 1_555 1_555 0.93 2.28 2.948(5) 129 yes
O19 H19 O11 1_555 1_555 2_556 0.84(6) 2.60(6) 3.174(5) 127 yes
C14 H14 Br20 1_555 1_555 1_556 0.93 3.05 3.959(5) 165 yes
C16 H16 O11 1_555 1_555 1_565 0.93 2.61 3.287(6) 130 yes
loop_
_geom_torsion_atom_site_label_1
_geom_torsion_atom_site_label_2
_geom_torsion_atom_site_label_3
_geom_torsion_atom_site_label_4
_geom_torsion_site_symmetry_1
_geom_torsion_site_symmetry_2
_geom_torsion_site_symmetry_3
_geom_torsion_site_symmetry_4
_geom_torsion
_geom_torsion_publ_flag
O1 C2 C3 C4 . . . . 0.0(5) ?
O1 C2 C3 O19 . . . . -179.0(4) ?
O1 C2 C10 O11 . . . . 179.8(4) ?
O1 C2 C10 C12 . . . . 0.5(6) ?
C2 O1 C9 C4 . . . . -0.8(4) ?
C2 O1 C9 C8 . . . . 178.3(4) ?
C2 C3 C4 C5 . . . . -178.7(4) ?
C2 C3 C4 C9 . . . . -0.4(4) ?
C2 C10 C12 C13 . . . . 179.3(4) ?
C2 C10 C12 C17 . . . . -0.6(6) ?
C3 C2 C10 O11 . . . . 0.7(6) ?
C3 C2 C10 C12 . . . . -178.6(4) ?
C3 C4 C5 C6 . . . . 178.7(4) ?
C3 C4 C9 O1 . . . . 0.8(4) ?
C3 C4 C9 C8 . . . . -178.4(4) ?
C4 C5 C6 C7 . . . . -1.1(6) ?
C4 C5 C6 Br20 . . . . 179.3(3) ?
C5 C4 C9 O1 . . . . 179.4(3) ?
C5 C4 C9 C8 . . . . 0.2(6) ?
C5 C6 C7 C8 . . . . 0.7(7) ?
C6 C7 C8 C9 . . . . 0.2(7) ?
C7 C8 C9 O1 . . . . -179.7(4) ?
C7 C8 C9 C4 . . . . -0.6(6) ?
C9 O1 C2 C3 . . . . 0.5(4) ?
C9 O1 C2 C10 . . . . -178.7(4) ?
C9 C4 C5 C6 . . . . 0.6(6) ?
C10 C2 C3 C4 . . . . 179.2(4) ?
C10 C2 C3 O19 . . . . 0.2(7) ?
C10 C12 C13 C14 . . . . 179.6(4) ?
C10 C12 C17 C16 . . . . -179.9(4) ?
O11 C10 C12 C13 . . . . 0.0(6) ?
O11 C10 C12 C17 . . . . -179.9(4) ?
C12 C13 C14 C15 . . . . 0.4(6) ?
C13 C12 C17 C16 . . . . 0.2(6) ?
C13 C14 C15 C16 . . . . 0.0(6) ?
C13 C14 C15 Br18 . . . . -179.9(3) ?
C14 C15 C16 C17 . . . . -0.3(6) ?
C15 C16 C17 C12 . . . . 0.2(6) ?
C17 C12 C13 C14 . . . . -0.5(6) ?
Br18 C15 C16 C17 . . . . 179.7(3) ?
O19 C3 C4 C5 . . . . 0.3(7) ?
O19 C3 C4 C9 . . . . 178.6(4) ?
Br20 C6 C7 C8 . . . . -179.7(3) ?
loop_
_refln_index_h
_refln_index_k
_refln_index_l
_refln_F_squared_meas
_refln_F_squared_sigma
0 0 -2 11.06 1.28
0 0 -2 10.18 1.42
0 0 -2 9.46 1.76
0 0 -2 9.94 1.63
0 0 2 9.14 1.34
0 0 2 9.69 1.32
0 0 -2 10.8 1.46
0 0 2 8.94 1.79
0 0 2 10.45 1.17
0 0 2 9.06 1.55
0 0 2 8.75 1.26
0 0 -2 8.98 1.29
0 0 -2 10.12 1.33
0 0 -3 33.56 3.26
0 0 3 32.4 3.02
0 0 3 32.01 3.02
0 0 -3 34.12 3.26
0 0 -3 34.4 4.13
0 0 3 29.85 2.88
0 0 3 28.22 3.8
0 0 -3 31.87 3
0 0 3 30.05 3.57
0 0 3 32.11 2.54
0 0 -3 28.99 3.46
0 0 -4 16.32 2.78
0 0 4 16.08 2.48
0 0 4 16.29 3.47
0 0 -4 15.05 2.88
0 0 4 15.97 2.12
0 0 4 16.65 2.52
0 0 -4 20.76 3.85
0 0 -4 16.73 2.53
0 0 -4 20.04 3.01
0 0 4 16.74 3.22
0 0 4 16.54 1.79
0 0 4 16.91 2.57
0 0 5 632.98 11.73
0 0 -5 650.98 17.75
0 0 5 668.26 14.76
0 0 5 640.07 16.95
0 0 5 659.65 21.29
0 0 -5 650.32 16.49
0 0 5 655.2 23.67
0 0 5 633.16 16.6
0 0 -5 645.72 20.35
0 0 5 656.28 16.86
0 0 -5 690.3 19.3
0 0 6 1289.32 32.21
0 0 6 1246.99 17.82
0 0 -6 1245.41 25.07
0 0 -6 1291.28 27.29
0 0 6 1265.29 26.23
0 0 6 1247.12 25.49
0 0 6 1273.42 22.67
0 0 6 1273.26 36.71
0 0 6 1261.53 25.45
0 0 -6 1281.13 28.91
0 0 7 1136.02 26.17
0 0 7 1152.85 18.03
0 0 -7 1183.72 26.45
0 0 7 1185.41 27.47
0 0 7 1192.65 33.73
0 0 7 1165.98 23.8
0 0 -7 1203.81 28.65
0 0 -7 1134.22 29.72
0 0 8 597.05 13.58
0 0 -8 601.99 21.97
0 0 -8 600.26 20.25
0 0 8 627.55 18.85
0 0 8 598 25.57
0 0 9 2.21 2.12
0 0 -9 1.7 2.43
0 0 -9 2.63 2.03
0 0 9 1.08 1.3
0 0 9 1.64 1.17
0 0 10 52.86 8.9
0 0 10 58.73 4.69
0 0 10 44.39 5.54
0 0 -10 56.12 7.09
0 0 -10 52.35 7.65
0 0 11 -3.88 2.83
0 0 -11 0.37 1.75
0 0 -11 4.12 3.22
0 0 -11 0.65 1.71
0 0 11 0.95 1.23
0 0 11 1.52 2.47
0 0 -12 141.24 13.69
0 0 -12 135.67 13.4
0 0 -12 148.99 12.65
0 0 12 138.89 15.85
0 0 12 135.02 11.33
0 0 12 146.62 7.91
0 0 -13 58.93 9.22
0 0 -13 66.86 8.93
0 0 -13 44.18 7.94
0 0 13 52.64 8
0 0 -14 21.11 5.78
0 0 14 15.41 5.07
0 0 -14 16.89 5.83
0 0 -14 12.26 4.71
0 0 -15 3.56 3.18
0 0 -15 9.42 4.81
0 0 15 4.59 3.64
0 0 -15 1.75 2.74
0 0 -16 33.47 8.36
0 0 -16 26.44 6.71
0 0 -16 29.21 7.54
0 0 16 26.17 6.36
0 0 17 6.45 3.87
0 0 -17 5.66 4.24
0 0 -17 4.33 3.51
0 0 -17 0.71 2.94
0 0 -18 10.65 5.48
0 0 -18 3.88 4.9
0 0 -18 5.25 3.58
0 0 18 4.61 3.46
0 0 19 -2.44 3.92
1 0 -19 6.1 4.07
-1 0 19 -2.26 4.82
1 0 -19 10.84 5.97
-1 0 18 -0.46 3.81
1 0 -18 7.66 5.21
1 0 -18 -1.21 3.63
1 0 -17 2.9 3.06
-1 0 17 0.86 4.11
1 0 -17 6.77 4.07
1 0 -16 40.33 8.36
1 0 -16 30.15 7.38
-1 0 16 29.04 6.65
1 0 -15 113.53 13.01
1 0 -15 99.57 12.26
-1 0 15 93.06 11.38
1 0 -14 148.11 14.36
1 0 -14 129.9 13.54
-1 0 14 130.06 12.58
1 0 -13 363.31 21.56
1 0 -13 321.24 19.88
-1 0 13 313.46 18.44
-1 0 12 4.43 2.61
1 0 -12 6.27 3.46
1 0 -12 7.19 3.5
-1 0 11 18.94 4.31
1 0 -11 23 5.05
1 0 -11 19.85 4.79
1 0 -10 15.44 3.88
1 0 -10 18.24 4.4
-1 0 10 14.99 3.81
-1 0 10 16.07 4.87
1 0 -9 141.45 10.19
-1 0 9 144.44 10.06
-1 0 9 149.79 13.45
-1 0 9 146.42 9.54
1 0 -9 158.43 11.59
-1 0 8 441.19 21.53
1 0 -8 397.22 7.84
-1 0 8 383.41 14.33
1 0 -8 426.26 18.03
-1 0 8 407.09 15.78
1 0 -8 415.18 16.02
-1 0 8 417.06 14.93
-1 0 7 1446.5 25.87
-1 0 7 1509.17 26.01
-1 0 7 1575.26 37.86
1 0 -7 1461.31 17.17
1 0 -7 1591.28 32.61
-1 0 7 1456.72 28.14
1 0 -7 1523.86 27.95
-1 0 7 1533.67 17.48
-1 0 7 1566.06 39.89
1 0 -6 6 2.16
-1 0 6 7.37 2.25
-1 0 6 5.13 1.71
1 0 -6 4.94 1.1
-1 0 6 6.42 2.43
1 0 -6 4.52 1.37
1 0 -6 6.06 1.82
-1 0 6 7.02 1.35
1 0 -6 5.96 2.26
-1 0 6 7.59 1.85
-1 0 6 5.36 1.58
1 0 -6 5.18 1.29
-1 0 6 6.7 2.6
-1 0 5 40.77 5.13
-1 0 5 39.74 3.1
1 0 -5 39.28 3.57
-1 0 5 37.63 3.99
1 0 -5 36.86 4.37
1 0 -5 30.7 3.13
-1 0 5 39.81 3.34
1 0 -5 39.36 4.97
-1 0 5 39.53 4.54
-1 0 5 37.23 3.49
1 0 -5 38.55 3.77
1 0 -5 35.01 2.91
1 0 -4 594.44 11.92
-1 0 4 605.54 15.74
-1 0 4 598.14 12.66
1 0 -4 565.88 10.9
1 0 -4 595.57 12.13
1 0 -4 592.44 15.48
-1 0 4 595.94 17.09
-1 0 4 569.22 14.21
-1 0 4 589.76 10.44
1 0 -4 616.6 14.04
-1 0 4 593.77 12.04
1 0 -4 589.04 16.96
-1 0 3 119.51 6.1
1 0 -3 121.88 6.64
-1 0 3 123.27 5.52
-1 0 3 123.91 6.37
1 0 -3 122.92 3.84
1 0 -3 117.05 5.87
1 0 -3 122.32 6.24
-1 0 3 124.2 3.78
-1 0 3 123.29 6.64
1 0 -3 126.67 5.02
1 0 -3 124.72 5.56
-1 0 2 2.04 0.81
1 0 -2 1.93 0.78
1 0 -2 1.91 0.78
1 0 -2 1.59 0.73
1 0 -2 2.33 0.96
-1 0 2 2.74 0.9
-1 0 2 2.49 0.89
-1 0 1 280.81 8.36
-1 0 1 275.95 6.38
1 0 -1 277.74 8.27
-1 0 1 279.27 8.66
-1 0 1 295.54 8.65
1 0 -1 276.48 8.58
1 0 -1 271.3 6.3
1 0 0 2.24 0.93
1 0 0 1.53 0.66
-1 0 0 1.55 0.75
-1 0 0 1.59 0.66
-1 0 0 1.45 0.59
1 0 0 1.83 0.8
1 0 0 2.61 0.83
-1 0 0 1.68 0.81
-1 0 -1 3.44 1.07
1 0 1 3.75 0.81
1 0 1 3.07 1.2
-1 0 -1 2.88 0.74
-1 0 -1 3.73 1.06
1 0 1 3.66 1.06
-1 0 -1 2.88 0.88
1 0 1 4.65 1.17
1 0 1 3.54 1.08
-1 0 -1 3.54 0.92
-1 0 -1 3.6 1.25
1 0 1 3.76 1.02
1 0 2 1208.73 18.88
1 0 2 1208.53 21.86
1 0 2 1201.72 16.98
-1 0 -2 1238.05 20.53
-1 0 -2 1180.4 17.22
1 0 2 1294.73 21.89
-1 0 -2 1157.64 18.32
-1 0 -2 1313.71 21.18
-1 0 -2 1181.37 10.74
1 0 2 1195.24 27.34
1 0 2 1203.51 17.35
-1 0 -2 1255.49 22.56
1 0 2 1181.93 11.2
1 0 2 1263.99 20.45
-1 0 -2 1193.36 27.13
1 0 3 953.68 15.39
1 0 3 944.67 27.73
-1 0 -3 913.52 15.09
-1 0 -3 975.7 22.11
-1 0 -3 928.35 19.46
1 0 3 910.54 20.28
-1 0 -3 1067.84 22.39
1 0 3 929.54 20.03
1 0 3 905.19 13.16
-1 0 -3 952.57 26.64
1 0 3 1053.6 20.36
-1 0 -3 927.08 12.97
-1 0 -3 956.71 19.33
1 0 3 953.05 21.17
1 0 3 916.39 14.78
1 0 3 880.3 22.92
1 0 4 57.96 5.6
-1 0 -4 41.06 3.15
-1 0 -4 47.09 5.87
1 0 4 45.29 5.02
1 0 4 42.26 5.01
-1 0 -4 44.03 5.33
1 0 4 46.76 6.79
-1 0 -4 43.39 3.43
1 0 4 42.75 3.17
-1 0 -4 42.96 4.83
-1 0 -4 46.07 4.54
1 0 4 31.52 4.44
1 0 4 47.1 5.05
1 0 4 42.82 3.51
-1 0 -4 50.08 6.68
-1 0 -5 75.97 8.93
-1 0 -5 71.67 4.03
1 0 5 80.26 9.69
1 0 5 71.58 6.78
1 0 5 70.22 7.07
-1 0 -5 81.15 6.58
-1 0 -5 73.03 6.97
1 0 5 74.69 5.19
-1 0 -5 77.87 5.14
-1 0 -5 80.53 7.68
1 0 5 81.21 7.3
1 0 5 75.01 4.11
1 0 5 79.25 7.55
-1 0 -5 74.8 8.02
1 0 6 2.06 1.75
-1 0 -6 2.81 2.9
-1 0 -6 0.87 0.52
-1 0 -6 1.32 1.14
-1 0 -6 1.52 0.97
-1 0 -6 3.01 2.22
-1 0 -6 1.32 1.29
1 0 6 1.88 1.12
1 0 6 0.92 0.41
1 0 6 1.72 1.84
-1 0 -7 376.87 18.64
-1 0 -7 371.65 13.84
1 0 7 358.58 7.01
1 0 7 405.63 18.65
1 0 7 376.2 19.47
1 0 7 363.42 13.94
-1 0 -7 364.38 16.31
-1 0 -7 372.48 7.56
-1 0 -7 385.89 23.03
-1 0 -8 372.2 19.79
1 0 8 391.8 21.29
-1 0 -8 368.74 17.13
-1 0 -8 412.69 25.35
-1 0 -8 378.62 15.02
1 0 8 400.98 18.9
1 0 8 409.66 17.12
1 0 9 583.89 20.81
1 0 9 570.37 23.47
1 0 9 560.11 18.89
-1 0 -9 582.63 19.97
1 0 9 586.9 27.58
-1 0 -9 543.24 22.1
-1 0 -9 619.9 32.68
-1 0 -9 579.07 26.2
-1 0 -10 232.18 15.42
1 0 10 252.91 12.88
1 0 10 264.6 19.73
1 0 10 252.63 14.31
-1 0 -10 254.09 14.06
-1 0 -10 246.08 17.87
1 0 11 27.65 7.17
-1 0 -11 30.67 5.37
-1 0 -11 25.08 6.44
1 0 11 30.3 4.79
-1 0 -11 26.55 5.47
1 0 11 23.35 4.64
1 0 12 2.38 2.99
-1 0 -12 0.52 2.05
1 0 12 -0.45 1.99
1 0 12 4.34 2.43
-1 0 -12 2.8 2.9
-1 0 -12 0.88 1.78
-1 0 -13 60 7.98
-1 0 -13 54.6 8.62
1 0 13 64.68 8.59
-1 0 -13 62.42 10.34
-1 0 -14 33.21 6.2
-1 0 -14 25.66 7.16
1 0 14 25.6 5.7
-1 0 -14 29.02 6.98
-1 0 -15 79.53 9.95
-1 0 -15 60.18 9.7
-1 0 -15 76.02 12.64
1 0 15 61.13 9.02
1 0 16 53.95 9.52
-1 0 -16 48.62 8.24
-1 0 -16 39.9 9.74
-1 0 -16 28.97 7.17
-1 0 -17 19.98 6.76
-1 0 -17 12.77 4.91
1 0 17 28.43 8.14
-1 0 -18 -3.83 5.03
-1 0 -18 -5.05 4.75
1 0 18 4.4 4.09
-2 0 20 3.56 4.55
-2 0 19 17.39 7.13
-2 0 18 11.15 5.79
2 0 -18 7.45 4.41
2 0 -17 25.12 7.47
-2 0 17 18.67 5.83
2 0 -16 -1.58 2.57
2 0 -16 1.02 2.71
-2 0 16 -4.05 3.78
2 0 -15 7.28 4.37
2 0 -15 6.72 3.49
-2 0 15 -2.24 4.54
2 0 -14 7.3 3.8
-2 0 14 -2.69 3.94
2 0 -14 7.27 4.1
2 0 -13 99.4 12.04
-2 0 13 74.18 9.38
2 0 -13 81.96 9.64
2 0 -12 186.75 13.2
-2 0 12 186.6 14.34
2 0 -12 220.24 16.61
2 0 -11 410.17 18.28
2 0 -11 417.97 11.89
-2 0 11 425.36 20.91
2 0 -11 485.15 23.29
-2 0 11 473.02 12.89
-2 0 10 78.84 6.36
2 0 -10 77.82 5.62
2 0 -10 83.86 9.48
-2 0 10 74.3 8.28
-2 0 10 81.94 5.81
2 0 -10 76.5 7.33
-2 0 9 4.71 1.55
2 0 -9 2.3 1.04
2 0 -9 3.35 1.45
2 0 -9 4.34 2.55
-2 0 9 2.96 1.33
-2 0 9 1.34 1.5
2 0 -8 79.59 8.15
2 0 -8 70.8 5.73
-2 0 8 70.04 5.04
-2 0 8 75.76 6.07
2 0 -8 65.12 3.29
-2 0 8 75.73 7.8
2 0 -8 76.87 6.3
2 0 -8 62.64 5.15
2 0 -7 623.86 16.18
2 0 -7 569.76 13.66
2 0 -7 620.92 17.18
-2 0 7 619.82 21.15
-2 0 7 640.8 17.82
2 0 -7 641.06 21.79
-2 0 7 607.16 13.41
2 0 -6 490.67 10.98
-2 0 6 528.77 16.36
2 0 -6 522.74 14.02
2 0 -6 500.84 7.74
2 0 -6 528.62 19.45
2 0 -6 527.26 18.56
2 0 -6 511.82 15.7
-2 0 6 494.03 11.52
-2 0 6 492.28 18
2 0 -6 525.54 16.07
2 0 -5 2992.6 40.65
2 0 -5 3030.01 42.13
-2 0 5 2931.7 42.8
2 0 -5 3026.73 40.94
2 0 -5 3042.77 38.73
-2 0 5 3059.76 41.55
2 0 -5 2947.71 22.41
-2 0 5 3055.96 39.41
2 0 -5 2915.34 24.75
2 0 -5 2978.93 38.28
-2 0 4 448.77 14.64
-2 0 4 448.99 15.16
-2 0 4 439.35 15.99
2 0 -4 452.89 8.38
2 0 -4 455.36 14.52
2 0 -4 452.16 15.63
2 0 -4 457.15 14.99
2 0 -4 446.17 14.43
-2 0 3 56.32 5.41
2 0 -3 56.44 5.32
2 0 -3 58.38 5.6
2 0 -3 53.6 4.24
2 0 -3 54.89 4.62
-2 0 3 56.8 4.75
-2 0 3 55.88 5.64
-2 0 2 49.39 5.11
-2 0 2 45.01 5.01
-2 0 2 43.97 3.71
2 0 -2 44.67 4.87
2 0 -2 45.31 4.73
2 0 -2 42.29 3.6
-2 0 2 49.96 5.12
-2 0 1 591.2 17.34
2 0 -1 559.03 16.63
2 0 -1 556.41 16.38
-2 0 1 546.78 17.01
2 0 -1 571.14 17.37
2 0 -1 573.44 17.24
-2 0 1 569.74 11.19
2 0 -1 571.13 10.9
2 0 -1 573.69 17.71
-2 0 1 574.54 17.47
-2 0 0 9922.84 71.33
2 0 0 9999 69.54
-2 0 0 9620.65 75.03
2 0 0 9796.23 34.79
2 0 0 9790.02 73.48
2 0 0 9726.58 66.42
2 0 0 9637.99 77.69
-2 0 0 9565.24 78.37
-2 0 0 9591.12 67.71
2 0 0 9260.78 69.61
-2 0 0 9503.94 34.36
2 0 1 1309.39 31.86
2 0 1 1311.32 16.85
-2 0 -1 1268.45 16.27
-2 0 -1 1286.31 25.73
2 0 1 1324.06 26.97
2 0 1 1301.04 27.44
-2 0 -1 1281.18 28.02
-2 0 -1 1233.67 24.64
-2 0 -1 1287.7 31.46
2 0 1 1315.23 25.27
2 0 1 1279.28 24.66
-2 0 -2 255.99 15.41
-2 0 -2 266.09 11.66
-2 0 -2 239.4 8.78
2 0 2 254.92 15.46
-2 0 -2 248.17 11.35
2 0 2 269.57 12.92
2 0 2 247.74 11.2
2 0 2 266.8 11.8
-2 0 -2 252.85 12.61
2 0 2 265.34 12.91
2 0 2 256 11.24
2 0 2 252.43 9.29
2 0 3 153.61 8.82
-2 0 -3 141.83 7.92
2 0 3 146.85 8.42
-2 0 -3 145.1 9.91
2 0 3 167.12 10.28
2 0 3 153.15 12.96
-2 0 -3 157.95 13.06
2 0 3 147.3 8.57
-2 0 -3 150.72 8.77
2 0 3 156.37 9.94
2 0 3 153.87 10.38
2 0 3 141.45 3.91
-2 0 -3 150.33 10.61
-2 0 -3 159.54 9.69
-2 0 -4 28.69 3.85
-2 0 -4 28.98 5.02
2 0 4 36.81 5.89
2 0 4 33.1 4.14
2 0 4 29.64 3.89
-2 0 -4 29.3 4.15
-2 0 -4 32.67 6.25
-2 0 -4 33.61 5.02
-2 0 -4 34.08 4.85
2 0 4 29.36 2.39
2 0 4 29.03 4.19
2 0 5 170.39 11.31
-2 0 -5 179.55 15.88
2 0 5 161.54 6.72
2 0 5 168.44 8.96
-2 0 -5 184.23 12.1
-2 0 -5 176.63 12.86
-2 0 -5 166.45 9.1
-2 0 -5 164.63 10.61
2 0 5 154.29 12.76
-2 0 -5 169.72 6.56
-2 0 -6 19.16 3.07
2 0 6 16.79 2.52
2 0 6 20.3 3.06
-2 0 -6 22.73 4.86
-2 0 -6 20.56 4.81
2 0 6 6.5 2.77
-2 0 -6 19.73 2.55
-2 0 -6 19.83 5.52
2 0 6 18.34 4.04
2 0 7 245.65 10.57
-2 0 -7 245.6 10.56
2 0 7 217.99 15.94
-2 0 -7 265.16 21.09
-2 0 -7 241.85 14.9
2 0 7 252.56 16.27
2 0 7 254.15 10.6
-2 0 -7 245.84 10.13
-2 0 -7 256.39 17.34
-2 0 -8 362.31 25.79
-2 0 -8 323.93 11.5
2 0 8 333.45 11.46
2 0 8 324.7 20.2
-2 0 -8 343.69 20.99
-2 0 -8 340.38 18.31
2 0 8 329.68 19.88
2 0 8 318.96 13.26
-2 0 -8 322.86 12.74
-2 0 -9 11.26 2.02
2 0 9 13.12 4.53
-2 0 -9 12.35 2.77
2 0 9 18.27 5.71
-2 0 -9 15.88 4.24
-2 0 -9 12.65 4.59
-2 0 -9 17.22 6.01
2 0 9 13.67 2.2
-2 0 -10 16.06 5.38
2 0 10 15.64 5.52
-2 0 -10 15.14 4.5
-2 0 -10 15.04 3.41
-2 0 -10 19.57 7.41
2 0 10 24.59 6.68
2 0 11 177.15 14.09
2 0 11 183.36 13.51
-2 0 -11 166.52 17
-2 0 -11 165.37 14.64
2 0 11 181.56 17.6
2 0 11 171.96 15.99
-2 0 -11 193.86 21.85
-2 0 -11 172.33 11.5
-2 0 -12 8.25 4.07
2 0 12 5.01 2.8
2 0 12 4.25 3.51
-2 0 -12 11.11 4.05
2 0 12 5.03 3.3
-2 0 -12 7.4 3.08
-2 0 -13 1.32 3.16
-2 0 -13 1.69 1.93
2 0 13 4.14 3.36
-2 0 -13 6.82 3.66
-2 0 -14 3.59 2.95
2 0 14 -1.04 2.42
2 0 15 -1.79 3.21
-2 0 -15 0.28 3.73
2 0 16 3.64 2.65
-2 0 -16 14.09 6.95
-2 0 -16 3.55 4.12
2 0 17 -5.82 5.23
-2 0 -17 2.84 4.14
-3 0 19 6.92 4.91
3 0 -18 12.22 5.94
-3 0 18 14.8 6.23
-3 0 17 -0.69 2.47
3 0 -17 3.04 4.16
-3 0 16 2.2 3.17
3 0 -16 0.93 3.56
3 0 -15 5.65 3.84
3 0 -15 5.56 3.99
-3 0 15 10.65 5.13
-3 0 14 38.99 7.8
3 0 -14 32.91 6.06
3 0 -14 47.65 8.82
-3 0 13 250.16 18.8
-3 0 13 290.72 13.3
3 0 -13 228.77 14.59
3 0 -13 296.46 20.69
3 0 -12 72.35 7.77
3 0 -12 94.6 11.23
-3 0 12 83.53 7.78
-3 0 12 85.49 10.83
3 0 -11 33.51 5.07
-3 0 11 33.63 6.63
3 0 -11 40 7.24
-3 0 11 36.62 5.32
-3 0 10 24.42 3.42
-3 0 10 30.75 4.96
-3 0 10 23.46 4.05
3 0 -10 31.83 6.22
3 0 -10 27.62 4.33
-3 0 10 27.56 5.8
3 0 -9 67.24 6.27
-3 0 9 67.69 6.12
-3 0 9 72.39 8.98
3 0 -9 77.27 8.8
-3 0 9 77.09 7.77
-3 0 8 4.66 2.43
3 0 -8 0.88 0.6
-3 0 8 3.22 2.43
3 0 -8 3.3 1.75
3 0 -8 4.4 2.44
-3 0 8 2.72 1
3 0 -8 2.12 0.82
-3 0 7 362.82 16.91
3 0 -7 360.33 17.03
3 0 -7 358.73 10.38
3 0 -7 348.77 13.92
-3 0 7 351.29 18.24
-3 0 7 347.67 9.25
3 0 -7 318.45 8.12
3 0 -6 48.02 5.78
-3 0 6 50.67 6.29
3 0 -6 46.25 4.22
-3 0 6 50.44 6.79
3 0 -6 44.05 2.89
3 0 -6 48.86 5.92
-3 0 5 75.52 8.18
3 0 -5 70.86 6.29
3 0 -5 69.57 6.66
3 0 -5 73.51 4.72
-3 0 5 72.88 7.53
-3 0 4 354.79 17.47
-3 0 4 329.55 16.13
3 0 -4 316.88 11.69
-3 0 4 319.76 13.38
3 0 -4 307.79 12.79
-3 0 4 315.93 16.37
-3 0 3 756.86 18.73
3 0 -3 728.8 17.97
3 0 -3 745.15 15.17
-3 0 3 776.04 24.68
-3 0 3 758.8 25.29
-3 0 3 758.07 24.49
-3 0 2 1025.76 28.65
-3 0 2 973.02 27.53
-3 0 2 994.05 19.18
3 0 -2 1041.47 29.6
-3 0 2 1003.67 28.16
3 0 -2 971.12 18.59
3 0 -2 1042.79 27.47
3 0 -1 3.82 2
-3 0 1 2.64 1.8
3 0 -1 3.85 1.23
-3 0 1 2.19 1.5
3 0 -1 6.14 2.41
-3 0 1 3.69 1.11
3 0 0 0.84 1.7
3 0 0 1.66 2.01
-3 0 0 1.6 1.5
3 0 0 0.3 0.47
-3 0 0 0.47 1.34
3 0 0 0.54 1.14
-3 0 0 -0.7 2.11
3 0 0 1.04 0.61
-3 0 -1 88.11 4.99
3 0 1 90.45 10.03
3 0 1 89.99 4.84
-3 0 -1 88.98 10.03
3 0 1 94.21 8.11
-3 0 -1 92.82 9.23
-3 0 -1 87.34 8.4
3 0 2 235.12 9.55
-3 0 -2 242.56 13.75
-3 0 -2 232.94 9.29
3 0 2 266.68 14.01
-3 0 -2 239.88 15.16
-3 0 -2 245.61 17.71
-3 0 -3 522.33 22.3
-3 0 -3 546.96 27.81
3 0 3 507.36 16.24
-3 0 -3 496.34 15.4
-3 0 -3 510.38 19.92
3 0 3 574.34 21.7
3 0 4 502.29 18.21
-3 0 -4 538.33 29.06
-3 0 -4 497.02 19.72
-3 0 -4 500.08 17.18
-3 0 -4 494.2 22.4
-3 0 -5 134.26 15.17
-3 0 -5 122.67 11.47
3 0 5 158.42 13.98
-3 0 -5 120.12 9.72
3 0 5 126.56 10.15
-3 0 -6 82.63 10.99
3 0 6 66.67 4.11
3 0 6 60.84 9.38
3 0 6 67.45 8.09
-3 0 -6 70.42 11.55
-3 0 -6 67.94 9.06
-3 0 -6 73.09 7.66
-3 0 -7 -1.29 2.68
-3 0 -7 -0.27 2.42
3 0 7 -2.17 4.08
-3 0 -7 1.64 2.69
3 0 7 3.91 2.97
-3 0 -7 4.65 2.42
3 0 7 1.01 1.05
3 0 8 4.64 1.54
-3 0 -8 4.93 3.78
-3 0 -8 9.97 5.51
3 0 8 -1.11 5.09
3 0 8 9.44 3.98
-3 0 -8 3.2 1.67
-3 0 -8 8.52 4.08
3 0 9 84.45 11.91
-3 0 -9 107.92 8.39
-3 0 -9 122.77 17.29
-3 0 -9 107.36 12.09
-3 0 -9 124.75 14.58
3 0 9 121.62 13.16
-3 0 -10 169.24 20.84
-3 0 -10 135.98 13.92
3 0 10 137.65 15.82
-3 0 -10 152.28 16.53
3 0 10 167.05 16.15
-3 0 -11 63.16 13.63
-3 0 -11 47.8 10.07
3 0 11 57.27 10.83
-3 0 -11 52.77 9.33
-3 0 -12 7.89 6.41
3 0 12 6.5 4.34
3 0 12 11.96 6.54
3 0 12 -1.49 3.13
-3 0 -12 3.37 3.64
-3 0 -12 2.86 3.6
-3 0 -13 4.15 3.25
-3 0 -13 4.64 3.26
3 0 13 7.64 4.57
3 0 13 10.67 6.4
3 0 14 3.5 3.71
-3 0 -14 0.16 3.07
3 0 15 5.26 4.34
-3 0 -15 6.58 3.82
-3 0 -16 1.53 3.45
3 0 16 8.76 4.74
-4 0 19 6.03 4.58
-4 0 18 8 4.6
4 0 -17 40.95 9.49
-4 0 17 34.51 8.87
4 0 -16 63.72 11.18
-4 0 16 46.48 9.71
4 0 -15 -0.98 3.28
-4 0 15 0.23 2.79
-4 0 14 -0.19 3.51
4 0 -14 0.22 2.77
4 0 -14 -1.29 1.96
-4 0 13 4.78 3.88
4 0 -13 2.29 1.93
4 0 -13 1.94 2.68
-4 0 13 0.59 1.99
-4 0 12 14.58 4.95
-4 0 12 12.81 3.8
4 0 -12 15.52 5.52
4 0 -12 15.75 3.96
4 0 -11 317.54 20.24
4 0 -11 261.43 13.64
-4 0 11 312.39 21.46
-4 0 11 330.66 18.69
-4 0 10 414.13 21.19
-4 0 10 399.21 23.62
4 0 -10 427.18 22.27
4 0 -10 358.51 15.65
4 0 -9 28.91 2.28
4 0 -9 49.9 7.36
4 0 -9 46.54 5.77
4 0 -9 45.88 4.16
-4 0 9 52.58 7.69
-4 0 9 43.46 7.6
4 0 -8 -0.42 1.71
4 0 -8 -0.09 0.81
-4 0 8 0.5 2.12
-4 0 8 0.63 1.9
4 0 -8 0.98 0.75
4 0 -7 44.6 3.16
-4 0 7 47.78 7.21
-4 0 7 59.52 8.47
4 0 -7 53.53 6.94
4 0 -7 50.15 5.3
-4 0 6 15.97 4.5
-4 0 6 12.33 3.68
4 0 -6 12.24 3.21
4 0 -6 10.63 1.95
4 0 -6 11.18 2.79
-4 0 6 12.68 3.97
-4 0 5 524.13 23.94
-4 0 5 519.97 24.65
4 0 -5 482.5 15.84
4 0 -5 519.04 18.65
-4 0 5 529.07 23.85
4 0 -4 498.36 22.38
-4 0 4 468.58 23.26
4 0 -4 452.63 13.33
4 0 -4 461.5 16.55
-4 0 4 482.22 22.74
-4 0 4 460.79 22.32
-4 0 3 204.16 10.37
-4 0 3 206.19 14.78
4 0 -3 226.87 14.81
4 0 -3 193.52 7.18
4 0 -3 195.65 10.17
-4 0 3 219.74 15.58
-4 0 3 205.6 15.01
4 0 -3 205.07 7.64
-4 0 2 0.58 2.02
4 0 -2 -0.82 2.55
-4 0 2 0.82 1.57
4 0 -2 1.69 1.2
4 0 -2 2.06 1.39
-4 0 2 2.3 1.36
4 0 -2 0.91 1.84
4 0 -2 1.09 0.56
4 0 -2 1.23 0.5
4 0 -1 261.98 15.97
-4 0 1 253.44 16.55
4 0 -1 250.36 8.96
-4 0 1 240.97 17.3
4 0 0 121.87 4.33
-4 0 0 137.8 12.11
-4 0 0 138.08 13.78
4 0 0 136.4 5.41
4 0 0 150.26 12.2
-4 0 0 130.82 12.82
-4 0 -1 85.44 11.39
4 0 1 92.19 9.53
-4 0 -1 81.97 10.25
-4 0 -1 79.35 9.28
4 0 1 77.82 4.63
-4 0 -2 78.09 5.88
-4 0 -2 78.6 9.02
-4 0 -2 75.89 9.91
4 0 2 87.35 9.61
-4 0 -2 88.71 11.94
4 0 2 73.12 5.5
4 0 3 105.7 10.78
-4 0 -3 106.54 11.95
-4 0 -3 95.99 7.15
-4 0 -3 108.57 13.78
-4 0 -3 96.54 10.16
4 0 3 91.12 7.13
-4 0 -4 2.86 3.6
4 0 4 2.26 3.51
4 0 4 -0.05 1.04
-4 0 -4 -1.19 2.04
-4 0 -4 1.63 1.99
-4 0 -4 0.28 0.97
4 0 5 55.6 6.89
-4 0 -5 62.83 8.37
4 0 5 85.04 11.41
-4 0 -5 66.02 11.71
-4 0 -5 58.45 9.43
4 0 6 137.18 15.31
4 0 6 121.87 10.97
-4 0 -6 129.99 16.86
-4 0 -6 125.72 11.63
-4 0 -6 124.21 13.44
4 0 7 -3.27 4.38
-4 0 -7 3.39 4.48
-4 0 -7 -2.33 3.39
-4 0 -7 3.16 2.5
4 0 7 1.62 2.08
-4 0 -8 21 4.77
4 0 8 21.37 5.85
-4 0 -8 18.74 7.22
-4 0 -8 17.45 5.1
-4 0 -9 -1.86 3.9
4 0 9 -5.81 7.05
-4 0 -9 -2.81 2.69
-4 0 -9 1.6 4.26
4 0 9 1.04 2.53
-4 0 -10 7.12 5.68
4 0 10 -8.98 6.6
-4 0 -10 -4.11 3.68
4 0 11 55.23 11.36
-4 0 -11 61.92 11.15
-4 0 -11 75.06 15.86
-4 0 -12 1.44 3.19
-4 0 -12 10.03 7.65
4 0 12 4.97 4.71
4 0 13 15.85 7.21
-4 0 -13 21.04 10.24
-4 0 -13 6.82 3.84
-4 0 -14 3.96 3.04
4 0 14 9.12 5.91
4 0 14 18.47 8.08
4 0 15 4.62 3.85
-4 0 -15 -4.47 5.76
-5 0 18 8.68 5.56
-5 0 17 -1.77 4.33
-5 0 16 -8.97 6.09
5 0 -16 1.14 3.47
-5 0 15 -0.6 3.5
5 0 -15 4.98 4.44
5 0 -14 0.53 2.95
-5 0 14 -2.1 3.71
-5 0 13 25.37 5.72
5 0 -13 29.87 7.11
-5 0 13 29.42 8
5 0 -12 15.66 3.87
-5 0 12 20.75 5.59
-5 0 12 18.08 6.23
5 0 -12 18.05 5.33
5 0 -11 0.91 1.84
5 0 -11 1.77 2.59
-5 0 11 0.18 2.14
-5 0 11 1.11 3.37
-5 0 10 1.94 2.72
-5 0 10 3.39 2.84
5 0 -10 0.66 2.23
5 0 -10 5.27 3.22
-5 0 9 70.4 11.21
-5 0 9 68.6 9.95
-5 0 9 72.28 10.89
5 0 -9 71.27 9.23
5 0 -8 62.11 3.81
5 0 -8 91.25 9.8
-5 0 8 92.99 12.18
-5 0 8 94.22 12.18
-5 0 8 93.82 11.52
5 0 -7 20.58 4.84
-5 0 7 23.45 5.96
5 0 -7 16.57 2.98
-5 0 7 23.4 5.98
-5 0 7 19.17 5.61
5 0 -6 2.59 1.41
-5 0 6 4.18 2.69
-5 0 6 2.53 2.25
-5 0 6 1.89 2.93
5 0 -6 3.26 2.33
5 0 -6 1.62 2.4
5 0 -5 57.51 8.54
5 0 -5 54.19 6.52
-5 0 5 53.35 9.2
5 0 -5 45.65 4.47
-5 0 5 55.76 8.67
-5 0 5 49.73 8.28
5 0 -4 4.24 3.25
5 0 -4 3.51 1.08
5 0 -4 4.28 1.11
-5 0 4 3.52 2.83
5 0 -4 5.49 2.32
-5 0 4 4.4 2.72
-5 0 3 89.69 7.27
5 0 -3 113.87 11.95
5 0 -3 96.88 6.64
5 0 -3 98.56 7.6
-5 0 3 96.98 11.77
-5 0 3 106.33 12.02
5 0 -2 374.42 21.55
-5 0 2 348.57 22.6
5 0 -2 323.58 14.4
-5 0 2 364.99 22.1
5 0 -2 324.22 12.51
5 0 -1 172.53 14.88
-5 0 1 171.6 15.47
5 0 -1 156.37 7.48
-5 0 1 169.29 16.37
-5 0 0 25.33 6.94
-5 0 0 25.56 6.28
5 0 0 27.39 6.53
-5 0 0 29.31 7.48
-5 0 -1 18.62 6.13
5 0 1 17.3 5.24
-5 0 -1 14.93 5.59
-5 0 -1 12.73 4.6
-5 0 -2 1.42 2.57
5 0 2 -0.01 2.32
-5 0 -2 -1.97 3.76
-5 0 -2 -1.09 2.31
5 0 3 6.94 3.65
-5 0 -3 9.18 4.53
-5 0 -3 5.16 3.13
-5 0 -3 10.5 5.5
5 0 4 104.08 12.46
-5 0 -4 85.12 10.86
-5 0 -4 88.3 14.53
-5 0 -4 97 12.89
5 0 5 66.3 11
-5 0 -5 44.47 10.48
-5 0 -5 47.84 8.49
-5 0 -5 46.72 9.06
-5 0 -6 62.17 10.79
-5 0 -6 67.13 13.19
5 0 6 82.64 13.44
-5 0 -6 66.2 9.52
5 0 7 -0.38 3.35
-5 0 -7 1.93 3.69
-5 0 -7 2.96 2.86
-5 0 -7 -1.4 3.06
-5 0 -8 -4.17 3.54
-5 0 -8 7.54 4.31
-5 0 -8 3.16 4.55
5 0 8 -5.16 6.12
-5 0 -9 1.18 4.16
-5 0 -9 -1.44 3.3
-5 0 -10 10.87 5.46
-5 0 -10 13.77 7.2
-5 0 -11 5.05 6.36
-5 0 -11 9.94 5.71
5 0 11 -2.02 5.46
-5 0 -12 15.39 9.59
-5 0 -12 4.97 5.33
5 0 12 3.43 4.48
-5 0 -13 4.88 5.14
5 0 13 4.52 6.11
6 0 -16 40.61 9.53
-6 0 16 30 9.34
6 0 -15 29.11 8.18
-6 0 15 27.68 8.63
-6 0 14 8.92 5.09
-6 0 14 6.08 3.54
6 0 -14 11.3 5.56
6 0 -13 1.22 2.83
-6 0 13 2.75 2.91
-6 0 13 -4.66 4.04
6 0 -12 20.47 6.08
-6 0 12 24.78 6.74
-6 0 12 24.55 7.79
6 0 -11 8.09 2.91
6 0 -11 19.06 5.48
-6 0 11 17.04 6.05
-6 0 11 19.78 7.7
6 0 -10 127.25 13.21
-6 0 10 128.92 15.01
-6 0 10 112.72 15.37
-6 0 9 56.36 10.35
-6 0 9 55.1 9.83
-6 0 9 51.91 9.64
6 0 -9 59.82 8.81
-6 0 8 7.58 5.06
-6 0 8 5.23 3.48
6 0 -8 0.17 3.02
6 0 -8 8.99 3.83
-6 0 8 8.09 4.96
6 0 -7 10.32 4.32
-6 0 7 9.05 5.25
-6 0 7 7.87 4.16
-6 0 7 5.08 3.7
6 0 -7 9.09 3.32
-6 0 6 42.89 8.8
6 0 -6 48.53 9.06
6 0 -6 45.59 6.72
-6 0 6 41.5 8.24
-6 0 5 5.06 3.44
-6 0 5 2.09 2.68
6 0 -5 4.22 3.52
6 0 -5 4.26 2.77
6 0 -4 32.19 7.47
-6 0 4 29.09 7.07
6 0 -4 27.17 4.51
-6 0 4 28.61 6.94
6 0 -3 59.27 6.23
-6 0 3 68.3 10.82
-6 0 3 60.09 10.65
6 0 -3 63.57 10.26
6 0 -2 10.68 2.54
-6 0 2 11.63 4.6
6 0 -2 15.48 5.38
-6 0 2 11.9 4.91
-6 0 1 10.36 4.09
6 0 -1 10.17 4.61
6 0 -1 8.85 1.73
-6 0 1 9.81 4.55
-6 0 0 46.83 10.54
6 0 0 60.99 10.43
-6 0 0 64.44 11.1
-6 0 -1 10.47 5.31
-6 0 -1 15.56 5.28
6 0 1 17.25 6.09
-6 0 -1 15.92 6.25
-6 0 -2 1.07 2.86
6 0 2 -3.44 4
-6 0 -2 1.88 3.08
-6 0 -2 -1.54 3.09
-6 0 -3 15.64 6.02
-6 0 -3 12.78 6.89
-6 0 -3 13.7 5.46
6 0 3 12.54 5.43
-6 0 -4 0.75 3.96
6 0 4 2.07 4.22
-6 0 -4 2.13 2.84
-6 0 -4 2.38 3.17
-6 0 -5 1.92 3.11
-6 0 -5 1.69 3.14
-6 0 -5 -1.57 4.16
-6 0 -6 30.46 8.7
6 0 6 51.62 11.66
-6 0 -6 35.43 8.03
-6 0 -6 30.52 9.97
-6 0 -7 5.8 4.94
-6 0 -7 6.37 4.58
-6 0 -7 0.02 2.46
6 0 7 1.76 3.84
-6 0 -8 -4.87 5.37
-6 0 -8 1.67 3.09
-6 0 -9 1.9 4.48
-6 0 -9 -2.65 3.87
-6 0 -10 6.28 5.34
6 0 10 -6.92 6.6
-6 0 -10 4.44 5.54
6 0 11 -1.13 5.89
-6 0 -11 4.11 4.99
7 0 -15 0.92 3.42
-7 0 14 -0.15 4.21
7 0 -14 4.02 3.61
-7 0 14 6.38 5.12
-7 0 13 3.6 4.51
7 0 -13 2.01 3.55
7 0 -12 2.54 5.05
7 0 -12 3.66 3.36
-7 0 12 8.23 4.62
-7 0 12 6.46 5.04
7 0 -11 1.14 2.5
-7 0 11 2.29 4.07
7 0 -11 -2.02 3.38
-7 0 11 2.37 3.4
7 0 -10 1.19 2.61
-7 0 10 5.61 5.05
7 0 -10 1.06 3.18
-7 0 10 -0.19 3.03
7 0 -9 1.86 3.59
-7 0 9 -1.79 3.48
7 0 -9 -0.63 3.04
-7 0 9 2.89 3.66
7 0 -8 7.89 4.88
7 0 -8 12.15 4.48
-7 0 8 13.71 6.07
7 0 -7 32.22 8.23
-7 0 7 25.42 7.81
7 0 -7 29.12 5.85
7 0 -6 7.73 3.27
-7 0 6 9.66 5.33
7 0 -6 7.98 4.83
-7 0 6 11.77 5.46
7 0 -5 3.14 3.48
7 0 -5 4.35 2.76
-7 0 5 2.94 3.83
-7 0 5 2.69 3.84
-7 0 4 0.92 2.87
-7 0 4 -4.45 4.39
7 0 -4 -2.34 3.16
-7 0 3 -1.43 3.49
-7 0 3 -1.09 2.7
7 0 -3 3.64 4.63
7 0 -2 7.56 4.26
-7 0 2 9.65 5.59
-7 0 2 5.49 4.1
7 0 -1 32.76 8.42
-7 0 1 29.83 8.82
-7 0 1 34.5 8.57
7 0 0 67.51 11.61
-7 0 0 65.85 13.7
-7 0 0 85.78 13.65
7 0 1 2.98 3.93
-7 0 -1 0.76 3.38
-7 0 -1 0.97 3.28
-7 0 -2 -0.31 3.04
7 0 2 -0.83 3.51
-7 0 -2 4.53 3.61
-7 0 -3 4.9 5.21
-7 0 -3 4.89 4.3
-7 0 -3 5.42 4.49
7 0 3 6.75 4.99
-7 0 -4 4.78 4.36
-7 0 -4 0.9 4.08
7 0 4 9.82 6.35
-7 0 -4 2.41 4.7
-7 0 -5 -1.2 4.54
-7 0 -5 -3.47 5.9
7 0 5 11.83 6.69
-7 0 -5 6.99 4.58
-7 0 -6 2.93 3.38
7 0 6 16.89 8.29
-7 0 -6 9.92 6.5
-7 0 -6 5.15 4.79
7 0 7 4.39 4.6
-7 0 -7 0.55 3.52
-7 0 -7 2.4 4.35
7 0 8 -13.05 9.43
-7 0 -8 2.32 5.25
7 0 9 -32.64 11.27
-8 0 14 -2.98 5.11
-8 0 13 -8.42 7.07
8 0 -13 3.22 3.67
-8 0 12 16.11 6.46
8 0 -12 13.06 5.45
8 0 -11 -0.12 3.62
-8 0 11 3.09 3.26
8 0 -11 3.08 3.76
8 0 -10 -0.92 4.36
8 0 -10 0.62 2.98
-8 0 10 10.05 6.42
8 0 -9 1.32 3.49
-8 0 9 5.15 4.15
8 0 -8 5.09 5.28
-8 0 8 8.37 5.59
-8 0 7 10.02 5.47
8 0 -7 9.68 5.35
8 0 -6 4.55 5.22
-8 0 6 5.45 5.17
8 0 -5 23.69 7.5
-8 0 5 19.76 7.67
8 0 -4 -0.35 3.6
-8 0 4 11.14 6.45
-8 0 3 2.45 4.07
8 0 -3 -0.89 4.22
8 0 -2 2.64 4.14
-8 0 2 7.42 4.73
-8 0 1 5.42 5.02
-8 0 1 6.67 5.68
8 0 -1 5.21 4.51
-8 0 0 14.75 7.73
-8 0 0 25.72 8.1
8 0 0 14.19 6.83
-8 0 -1 3.14 3.81
8 0 1 6.84 6.14
-8 0 -1 5.47 5.44
-8 0 -2 8.31 6.1
-8 0 -2 -3.34 3.88
8 0 2 8.7 6.49
-8 0 -3 -4.73 6.13
-8 0 -3 3.49 5.1
8 0 3 -6.19 5.55
-8 0 -4 7.66 4.67
-8 0 -4 -2.34 4.55
-8 0 -5 -14.84 6.63
-8 0 -5 -0.86 4.95
-8 1 -6 1.14 4.8
-8 1 -6 -2.11 3.77
-8 1 -5 -6.09 4.63
-8 1 -5 -2.24 4
-8 1 -4 -1.04 4.38
-8 1 -4 -7.27 4.96
-8 1 -4 2.72 4.79
8 -1 4 -6.41 4.23
-8 1 -3 3.39 4.45
-8 1 -3 0.51 3.3
8 -1 3 0.08 3.87
-8 1 -3 -2.01 4.35
8 -1 2 0.48 4.04
-8 1 -2 -0.49 3.46
-8 1 -2 -10.6 7.03
-8 1 -1 -8.07 6.63
8 -1 1 5.86 4.94
-8 1 0 9.9 4.31
8 -1 0 25.44 8.03
-8 1 1 0.37 4.3
8 -1 -1 6.21 4.52
-8 1 2 -5.79 5.67
8 -1 -2 0.35 3.41
8 -1 -3 3.44 4.23
-8 1 3 -5.05 3.9
-8 1 4 2.15 4.26
8 -1 -4 6.79 5.03
-8 1 5 4.67 3.77
8 -1 -5 12.92 6.2
-8 1 6 -5.53 5.36
8 -1 -6 2.62 3.45
8 -1 -7 5.71 4.65
-8 1 7 -4.68 5.83
8 -1 -8 -0.56 3.73
-8 1 8 -4.1 6.59
8 -1 -9 1.28 3.15
8 -1 -9 -0.07 3.65
-8 1 9 7.09 5.34
-8 1 9 -5.24 6.11
8 -1 -10 0.83 4.37
8 -1 -10 10.06 4.74
-8 1 10 9.28 6.07
-8 1 10 2.42 3.41
8 -1 -11 16.17 6.72
-8 1 11 16.15 7.18
8 -1 -11 15.19 5.41
-8 1 11 18.46 7.13
8 -1 -12 2.67 3.66
-8 1 12 -2.35 4.28
-8 1 13 -2.97 4.48
8 -1 -13 -3.32 3.78
-8 1 14 -2.44 4.05
7 -1 9 -28.96 10.32
7 -1 8 -12.06 7.18
-7 1 -8 0.3 4.11
-7 1 -8 -0.22 3.8
-7 1 -7 6.48 5.84
-7 1 -7 2.2 4.37
7 -1 7 5.11 6.12
-7 1 -7 -0.97 3.15
-7 1 -6 1.14 3.64
-7 1 -6 -2.31 4.45
7 -1 6 9.28 6.66
-7 1 -6 3.96 5.52
-7 1 -5 -0.4 3.31
-7 1 -5 0 3.95
-7 1 -5 -2.88 4.31
-7 1 -4 -4.66 4.65
-7 1 -4 2.12 3.66
-7 1 -4 5.94 5.7
7 -1 4 5.4 4.17
-7 1 -3 -1.8 4.38
7 -1 3 13.1 5.98
-7 1 -3 10.55 5.8
-7 1 -3 4 3.55
-7 1 -2 1.52 3.61
7 -1 2 9.53 5.37
-7 1 -2 4.23 4.03
-7 1 -2 8.16 4.92
-7 1 -1 -2.78 3.8
-7 1 -1 2.87 4.44
-7 1 -1 0.64 2.6
7 -1 1 2.93 3.99
-7 1 0 0.95 3.6
-7 1 0 3.8 3.68
7 -1 0 4.38 4.37
-7 1 1 1.7 3.44
7 -1 -1 -0.3 3.22
-7 1 1 1.95 3.43
-7 1 2 6.09 4.79
-7 1 2 5 4.44
7 -1 -2 4.34 4.24
-7 1 3 18.45 6.73
7 -1 -3 17.5 6.86
-7 1 3 13.65 5.37
-7 1 4 20.91 7.06
7 -1 -4 26.27 7.28
7 -1 -4 17.28 3.94
7 -1 -5 1.03 1.79
-7 1 5 2.64 2.82
7 -1 -5 -0.35 3.64
7 -1 -6 1.79 1.9
7 -1 -6 -0.11 3.12
-7 1 6 6.89 4
-7 1 7 31.24 8.23
7 -1 -7 29.74 7.86
7 -1 -7 33.17 6.64
-7 1 7 32.9 8.88
-7 1 8 1.63 3.08
7 -1 -8 0.01 3.42
-7 1 8 0.44 3.71
7 -1 -8 3.84 2.98
7 -1 -9 1.44 2.79
-7 1 9 -8.51 5.54
7 -1 -9 -5.21 4.91
-7 1 9 -0.57 3.34
-7 1 10 0.67 3.06
7 -1 -10 3.4 3.77
-7 1 10 -4.86 4.8
7 -1 -11 10.89 4.28
-7 1 11 5.54 2.9
-7 1 11 6.75 5.06
-7 1 12 -2.42 4.61
7 -1 -12 -3.07 3.2
-7 1 12 1.77 4.38
7 -1 -13 41.03 9.39
-7 1 13 35.98 8.65
-7 1 13 43.42 11.04
-7 1 14 10.51 5.37
7 -1 -14 8.49 5.63
-7 1 14 13.03 6.79
6 -1 12 0.35 3.98
6 -1 11 1.05 4.34
6 -1 10 -4.76 5.65
-6 1 -10 11.42 8.06
-6 1 -10 1.52 4.32
6 -1 10 -4.63 7.15
-6 1 -9 1.8 3.59
-6 1 -9 5.9 6.91
6 -1 8 -1.51 5.06
-6 1 -8 15.55 7.69
-6 1 -8 14.71 6.92
-6 1 -7 11.28 4.31
-6 1 -7 19.44 7.51
6 -1 7 28.21 9.02
-6 1 -7 22.81 8.19
-6 1 -6 -3.04 3.46
-6 1 -6 0.52 3.42
-6 1 -6 2.9 4.92
-6 1 -5 3.5 4.17
6 -1 5 9.98 5.45
-6 1 -5 -1.87 3.52
-6 1 -5 0.15 3.09
-6 1 -4 3.19 3.68
-6 1 -4 -2.13 3.9
6 -1 4 2.47 2.94
-6 1 -4 5.45 4
-6 1 -3 1.54 3.75
-6 1 -3 3.35 2.89
6 -1 3 -1.63 2.6
-6 1 -3 -5.25 4.27
6 -1 2 1.59 2.93
6 -1 2 1.93 1.31
-6 1 -2 1.47 2.59
-6 1 -2 2.24 4.45
-6 1 -2 -0.96 3.49
-6 1 -1 21.22 7.42
-6 1 -1 18.86 6.52
-6 1 -1 28.07 7.33
6 -1 1 27.34 6.9
6 -1 1 14.18 2.81
-6 1 0 474.22 29.67
6 -1 0 526.07 27.62
6 -1 0 398.23 11.65
6 -1 0 403.41 13.5
-6 1 0 480.31 28
-6 1 0 473.42 30.5
6 -1 -1 10.79 5.04
-6 1 1 4.84 4.33
6 -1 -1 1.23 0.87
6 -1 -1 1.63 1.46
-6 1 1 4.59 3.93
-6 1 2 12.41 5.39
6 -1 -2 7.81 1.78
-6 1 2 9.85 4.23
6 -1 -2 13.02 5.05
6 -1 -2 10.65 2.6
6 -1 -3 1.77 1.66
-6 1 3 1.67 2.71
6 -1 -3 1.96 1.22
-6 1 3 -0.26 1.82
6 -1 -3 1.97 2.54
6 -1 -4 3.43 3.41
6 -1 -4 4.71 1.96
6 -1 -4 -1.13 1.77
-6 1 4 1.99 2.19
-6 1 4 2.29 3.11
-6 1 5 122.14 14.13
-6 1 5 109.62 11.83
6 -1 -5 111.53 9.84
6 -1 -5 114.84 13.45
-6 1 5 128.31 14.79
-6 1 6 49.7 9.65
6 -1 -6 41.07 6.45
-6 1 6 34.31 6.53
6 -1 -6 46.45 8.9
-6 1 6 42.09 8.95
-6 1 7 69.49 8.86
-6 1 7 77.24 11.8
-6 1 7 78.09 11.31
6 -1 -7 76.37 9.22
6 -1 -8 10.4 4.04
-6 1 8 11.78 5.32
-6 1 8 7.84 3.74
-6 1 9 5.32 2.95
-6 1 9 11.71 5.33
6 -1 -9 13.61 4.58
6 -1 -10 -0.75 2.27
-6 1 10 -3.87 3.84
-6 1 10 3.8 3.85
-6 1 11 23.55 7.21
6 -1 -11 24.05 6.6
-6 1 11 14.78 4.91
6 -1 -12 28.86 7.4
-6 1 12 27.11 6.71
-6 1 12 31.8 8.45
-6 1 13 9.78 4.32
6 -1 -13 16.29 6.04
-6 1 13 8.28 4.79
6 -1 -14 5.25 3.92
-6 1 14 5.93 5.45
-6 1 14 3.12 3.05
6 -1 -15 15.43 6.67
-6 1 15 2.51 3.76
-6 1 16 3.94 3.83
6 -1 -16 2.38 3.82
-5 1 -13 3.2 3.45
5 -1 13 0.55 3.76
-5 1 -12 -5 5.81
5 -1 12 3.03 3.63
5 -1 12 -4.86 4.83
-5 1 -11 0.1 5.27
5 -1 11 -2.5 3.76
5 -1 11 -6.86 5.57
-5 1 -11 -9.17 6.46
5 -1 11 -5.87 5.82
5 -1 10 -1.17 3.79
-5 1 -10 -0.35 3.77
-5 1 -10 12.66 7.55
5 -1 10 3.56 3.48
-5 1 -9 20.69 8.99
5 -1 9 0.44 5.29
-5 1 -9 13.45 5.88
5 -1 9 15.8 5.28
-5 1 -8 15.17 4.54
5 -1 8 18.83 5.72
-5 1 -8 27.94 8.38
5 -1 8 5.7 3.97
-5 1 -8 27.53 9.24
5 -1 7 21.98 5.66
-5 1 -7 26.37 7.88
-5 1 -7 23.55 8.42
5 -1 7 28.99 8.07
-5 1 -7 20.22 5.04
-5 1 -6 -2.07 2.75
5 -1 6 0.4 1.78
-5 1 -6 -0.68 3.39
-5 1 -6 0.87 3.35
-5 1 -5 1.76 2.68
-5 1 -5 -4.5 3.74
-5 1 -5 1.9 3.6
5 -1 5 1.89 1.83
5 -1 5 5.96 4.36
-5 1 -4 1.47 2.57
5 -1 4 -0.83 3.03
5 -1 4 1.78 1.36
-5 1 -4 0.32 2.64
-5 1 -4 5.37 3.74
5 -1 3 12.55 4.43
-5 1 -3 10.61 4.47
5 -1 3 12.65 3.22
-5 1 -3 12.81 4.23
-5 1 -3 12.8 4.72
5 -1 2 52.11 8.22
-5 1 -2 49.97 8.12
5 -1 2 33.37 2.23
-5 1 -2 54.25 9.83
-5 1 -2 44.84 8.77
5 -1 2 46.92 5.55
-5 1 -1 10.64 4.3
-5 1 -1 10.66 4.75
5 -1 1 8.43 1.59
5 -1 1 7.55 2.18
-5 1 -1 9.48 3.69
5 -1 1 9.41 3.82
-5 1 0 2.09 2.64
5 -1 0 1.11 1.01
5 -1 0 0.9 2.73
5 -1 0 1.79 1.44
-5 1 0 2.8 2.54
-5 1 0 1.65 2.59
-5 1 1 27.41 6.17
-5 1 1 32.81 7.37
5 -1 -1 25.26 3.64
5 -1 -1 24.48 3.41
-5 1 1 30.1 6.56
5 -1 -1 36.69 6.99
5 -1 -2 45.15 4.7
-5 1 2 51.53 7.88
-5 1 2 45.59 7.89
5 -1 -2 46.07 5.36
5 -1 -2 54.16 8.18
-5 1 3 8.89 3.98
-5 1 3 10.25 4.02
5 -1 -3 6.89 2.1
5 -1 -3 8.33 2.63
5 -1 -3 6.42 2.78
-5 1 3 6.19 2.69
5 -1 -4 39.35 6.64
-5 1 4 38.43 7.26
5 -1 -4 35.16 3.58
-5 1 4 33.79 5.8
5 -1 -4 37.65 5.3
5 -1 -4 33.3 4.09
-5 1 4 34.19 7.36
5 -1 -5 -0.44 1.49
-5 1 5 1.94 2.54
-5 1 5 1.52 1.84
-5 1 5 0.45 1.32
5 -1 -5 0.43 0.81
-5 1 6 11.75 3.44
-5 1 6 14.25 4.76
5 -1 -6 7.76 2.84
5 -1 -6 8.33 1.32
-5 1 6 10.93 4.35
-5 1 7 155.11 11.68
-5 1 7 176.03 15.38
5 -1 -7 179.55 13.39
-5 1 7 177.72 16.29
5 -1 -8 131.68 12.01
-5 1 8 135.99 14.35
-5 1 8 124.29 10.98
-5 1 8 129.65 13.1
-5 1 9 86.7 10.05
-5 1 9 88.31 10.54
-5 1 9 93.18 12.24
5 -1 -9 96.08 10.79
5 -1 -9 66.99 6.21
-5 1 10 26.68 6.71
5 -1 -10 28.1 3.95
5 -1 -10 33.09 6.72
-5 1 10 26.24 5.82
-5 1 11 6.69 3.89
5 -1 -11 13.15 4.59
-5 1 11 6.82 2.66
5 -1 -12 15.23 5.44
-5 1 12 8.4 3.67
-5 1 12 10.72 4.92
-5 1 13 76.14 10.01
-5 1 13 78.48 12.39
5 -1 -13 88.64 12.21
5 -1 -14 52.43 10.06
-5 1 14 44.92 9.66
-5 1 15 54.97 10.98
5 -1 -15 51.22 10.16
-5 1 16 15.36 6.17
5 -1 -16 24.01 7.6
-5 1 17 -1.69 4.17
-4 1 -14 1.99 3.9
4 -1 14 -0.03 3.04
4 -1 14 -0.07 2.8
-4 1 -14 -2.59 4.91
4 -1 13 0.36 2.88
4 -1 13 0.29 3.68
4 -1 13 4.48 4.04
-4 1 -13 2.52 3.44
-4 1 -13 0.12 4.44
4 -1 12 24.98 8.07
-4 1 -12 24.87 8.34
-4 1 -12 21.71 7.46
4 -1 12 30.29 8.35
4 -1 12 27.49 7.04
-4 1 -11 3.94 4.86
4 -1 11 2.18 2.87
4 -1 11 4.69 3.76
4 -1 11 2.68 3.65
-4 1 -11 1.3 2.85
-4 1 -10 -1.7 3.74
4 -1 10 -6.65 5.08
-4 1 -10 7.9 6.73
4 -1 10 -1.69 2.31
4 -1 10 -8.13 5.88
-4 1 -10 -0.4 4.04
4 -1 9 3.42 3.22
-4 1 -9 -0.3 3.35
-4 1 -9 1.19 3.13
4 -1 9 -8.07 6.52
-4 1 -9 3.81 2.58
-4 1 -9 5.62 5.32
4 -1 8 16.67 5.21
-4 1 -8 20.76 4.6
4 -1 8 0.73 4.83
-4 1 -8 21.26 6.71
-4 1 -8 20.44 5.85
-4 1 -8 21.18 7.92
4 -1 7 111.41 12
-4 1 -7 111.58 13.62
4 -1 7 96.06 12.43
-4 1 -7 101.08 12.64
-4 1 -7 119.26 16.49
-4 1 -7 107.57 10.08
-4 1 -6 136.02 11.42
4 -1 6 137.62 12.33
-4 1 -6 149.54 14.85
4 -1 6 153.35 14.81
4 -1 6 113.46 5.47
-4 1 -6 123.59 13.7
-4 1 -6 136.22 16.47
4 -1 5 125.6 5.15
-4 1 -5 145.47 11.82
-4 1 -5 153.31 17.12
-4 1 -5 155.88 14.54
4 -1 5 170.68 14.29
-4 1 -5 148.36 14.66
4 -1 5 154.57 12.15
-4 1 -4 3.5 2.57
4 -1 4 4.74 1
-4 1 -4 4.53 3.89
4 -1 4 5.83 2.91
-4 1 -4 3.46 3.23
4 -1 4 4.15 2.13
-4 1 -4 -2.51 3.23
-4 1 -3 2.38 1.53
4 -1 3 1.95 1.67
-4 1 -3 0.72 2.44
4 -1 3 1.29 0.69
-4 1 -3 -0.92 2.67
-4 1 -3 0.9 2.03
4 -1 3 4.39 2.92
4 -1 2 3.63 0.97
-4 1 -2 2.99 2.21
4 -1 2 3.42 1.31
-4 1 -2 2.66 1.93
4 -1 2 8.21 3.17
-4 1 -2 5.07 2.6
4 -1 1 25.68 2.52
-4 1 -1 34.04 6.1
4 -1 1 31.29 5.52
4 -1 1 30.41 4.14
-4 1 -1 30.76 6.42
-4 1 -1 40.13 7.87
-4 1 0 3612.55 67.39
4 -1 0 3440.16 34.44
4 -1 0 3398.5 61.06
4 -1 0 3634.33 57.58
-4 1 0 3561.56 59.35
-4 1 0 3550.05 63.36
4 -1 0 3436.26 39.78
4 -1 -1 254.91 15.56
4 -1 -1 267.42 15.33
-4 1 1 254.66 16.34
4 -1 -1 242.52 10.22
4 -1 -1 244.41 10.58
4 -1 -1 258.32 12.49
-4 1 1 258.02 17.83
-4 1 1 254.85 15.89
-4 1 2 29.81 5.91
4 -1 -2 27.89 3.89
4 -1 -2 30.91 5.17
4 -1 -2 30.48 4.69
4 -1 -2 30.09 5.12
-4 1 2 29.03 5.02
4 -1 -2 31.96 4.01
-4 1 2 31.82 5.75
-4 1 3 5.37 2.61
4 -1 -3 5.99 2.02
-4 1 3 7.17 3.04
4 -1 -3 3.26 1.21
4 -1 -3 5.87 1.53
4 -1 -3 4.06 1.74
-4 1 3 5.1 2.04
4 -1 -4 63.69 4.38
-4 1 4 59.96 6.28
4 -1 -4 65.42 6.59
4 -1 -4 55.33 3.79
-4 1 4 59.37 7.82
-4 1 4 63.85 8.52
4 -1 -5 9.66 1.33
-4 1 5 12.96 3.98
-4 1 5 10.51 2.63
4 -1 -5 9.39 2.73
-4 1 5 11.17 3.57
-4 1 6 157.03 10.28
4 -1 -6 152.96 11.3
-4 1 6 150.85 12.38
-4 1 6 152.19 13.2
-4 1 7 361.21 20.75
4 -1 -7 374.8 18.76
-4 1 7 364.44 19.12
-4 1 8 336.87 18.51
4 -1 -8 301.58 11.02
-4 1 8 337.85 20.46
4 -1 -8 312.16 11.38
4 -1 -8 352.72 18.97
-4 1 9 -0.92 2.27
4 -1 -9 2.01 1.38
4 -1 -9 1.65 1.18
4 -1 -9 0.21 2.04
-4 1 9 -1.81 1.91
-4 1 9 -0.35 2.54
-4 1 10 70.33 9.97
4 -1 -10 76.34 9.9
4 -1 -10 62.55 5.35
-4 1 10 68.36 8.31
-4 1 11 46.05 8.49
4 -1 -11 34.89 4.32
-4 1 11 49.6 6.89
4 -1 -11 45.59 8.21
-4 1 12 21.97 4.82
-4 1 12 23.76 6.35
4 -1 -12 22.82 5.76
4 -1 -12 12.75 2.75
-4 1 13 23.09 4.87
4 -1 -13 22.73 6.42
-4 1 13 20.27 6.26
4 -1 -14 13.5 5.83
-4 1 14 13.21 6.13
4 -1 -15 9.39 5.36
-4 1 15 2.84 4.26
4 -1 -16 31.33 8.15
-4 1 16 26.67 7.83
-4 1 17 12.19 5.82
4 -1 -17 8.14 4.77
-4 1 18 8.67 5.32
-3 1 -16 14.09 7
-3 1 -15 16.31 6.82
3 -1 15 12.69 7.11
3 -1 15 6.11 3.91
-3 1 -15 0.96 4.52
3 -1 14 13.55 4.76
-3 1 -14 16.91 6.92
3 -1 14 9.97 6.11
-3 1 -14 3.9 4.36
3 -1 13 77.2 9.85
-3 1 -13 72.58 12.08
3 -1 13 70.99 13.12
-3 1 -13 64.17 12.3
3 -1 13 85.1 10.96
-3 1 -12 11.15 5.64
3 -1 12 8.35 4.27
3 -1 12 5.96 4.5
3 -1 12 8.1 4.34
-3 1 -12 7.95 5.06
3 -1 12 13.88 5.73
3 -1 11 2.22 3.03
3 -1 11 9.62 4.91
-3 1 -11 3.43 3.26
-3 1 -11 8.65 5.09
3 -1 11 5.85 3.5
3 -1 10 -2.65 2.48
3 -1 10 1.3 3.32
3 -1 10 0.79 2.33
-3 1 -10 6.58 4.62
-3 1 -10 3.92 3.84
-3 1 -9 3.61 3.45
-3 1 -9 6.67 5.41
3 -1 9 -3.23 3.93
-3 1 -9 3.51 3.34
3 -1 9 3.12 2.8
3 -1 9 -1.05 3.26
-3 1 -8 27.29 7.87
-3 1 -8 28.69 6.6
-3 1 -8 34.05 7.63
3 -1 8 25.95 6.12
3 -1 8 22.19 3.71
3 -1 8 19.3 4.35
-3 1 -8 28.87 4.57
-3 1 -7 258.01 13.19
3 -1 7 268.25 17.59
-3 1 -7 273.18 18.88
-3 1 -7 287.36 23.21
-3 1 -7 272.55 19.56
3 -1 7 237.15 10.66
-3 1 -6 7.13 2.41
3 -1 6 7.55 2.89
-3 1 -6 10.87 4.32
3 -1 6 3.23 2.61
3 -1 6 8.35 1.97
-3 1 -6 7.94 4.51
-3 1 -6 7.41 3.59
-3 1 -5 21.81 6.1
3 -1 5 18.86 4.19
-3 1 -5 15.59 3.32
-3 1 -5 16.91 4.58
-3 1 -5 18.4 4.71
3 -1 5 32 6.35
3 -1 5 20 2.66
-3 1 -4 196.1 16.51
3 -1 4 180.88 11.73
-3 1 -4 190.41 14.17
3 -1 4 177.7 6.97
3 -1 4 199.99 12.48
-3 1 -4 174.1 11.16
-3 1 -4 179.8 13.9
-3 1 -4 175.99 11.04
-3 1 -3 185.72 15.14
3 -1 3 183.13 10.71
-3 1 -3 180.36 10.34
-3 1 -3 167.94 10.6
3 -1 3 189.88 11.5
-3 1 -3 178.57 13.38
-3 1 -3 176.32 11.16
-3 1 -3 198.36 13.36
-3 1 -2 102.84 8.79
-3 1 -2 107.03 9.37
3 -1 2 95.73 10.39
-3 1 -2 106.39 7.56
3 -1 2 107.06 7.48
-3 1 -2 105.68 8.6
-3 1 -2 112.93 10.54
-3 1 -2 115.04 10.96
3 -1 2 107.79 8.22
-3 1 -2 100.72 8.05
3 -1 2 99.61 8.43
3 -1 1 14.75 2.75
3 -1 1 13.35 3.08
-3 1 -1 16.88 4.06
3 -1 1 15.07 3.76
3 -1 1 13.68 2.8
-3 1 -1 15.34 3.52
3 -1 1 16 3.42
-3 1 -1 15.54 3.24
-3 1 -1 14.46 3.41
3 -1 1 17.87 3.62
-3 1 -1 16.08 4.2
3 -1 0 17.95 2.81
3 -1 0 18.38 3.32
-3 1 0 17.77 4.31
-3 1 0 19.37 3.84
3 -1 0 17.86 3.64
3 -1 0 17.46 3.6
3 -1 0 16.25 2.28
3 -1 0 17.56 2.99
-3 1 0 17.7 3.85
-3 1 0 18.56 3.77
3 -1 0 18.14 3.86
3 -1 -1 27.49 3.13
-3 1 1 29.19 4.78
-3 1 1 28.96 5.09
3 -1 -1 29.6 3.48
-3 1 1 25.26 4.53
-3 1 1 24.62 3.94
3 -1 -1 26.72 4.06
3 -1 -1 29.07 4.52
-3 1 1 30.28 4.74
3 -1 -1 28.16 3.86
3 -1 -2 520.28 12.47
-3 1 2 559.92 16.96
-3 1 2 545.32 20.19
-3 1 2 580.36 21.17
3 -1 -2 544.25 19.89
3 -1 -2 572.56 17.9
3 -1 -2 565.28 13.42
-3 1 2 567.9 20.45
3 -1 -2 579.42 16.45
3 -1 -2 547.01 15.39
3 -1 -2 571.01 16.97
-3 1 3 835.74 20.67
-3 1 3 842.75 24.87
3 -1 -3 833.59 13.42
3 -1 -3 810.77 20.43
-3 1 3 842.77 25.77
-3 1 3 831.13 24.49
-3 1 3 799.02 18.17
3 -1 -3 855.75 21.1
3 -1 -3 831.5 15.85
3 -1 -4 197.27 6.5
3 -1 -4 212.88 10
-3 1 4 223.36 13.41
-3 1 4 207.28 9.02
-3 1 4 217.32 12.62
3 -1 -4 207 10.98
-3 1 4 214.33 11.35
3 -1 -5 178.7 10.81
-3 1 5 175.16 12.15
3 -1 -5 177.45 8.43
-3 1 5 167.99 11.11
-3 1 5 164.24 5.95
-3 1 6 4.3 1.78
3 -1 -6 5.8 2.23
-3 1 6 2.68 1.1
-3 1 6 4.08 1.81
3 -1 -6 3.76 0.96
3 -1 -6 5.89 1.28
-3 1 7 123.63 7.67
3 -1 -7 112.56 5.67
-3 1 7 111.68 9.09
3 -1 -7 103.56 5.35
-3 1 7 115.76 10.51
3 -1 -7 115.7 10.03
3 -1 -8 180.15 7.74
-3 1 8 189.82 12.43
-3 1 8 201.62 10.4
3 -1 -8 200.61 7.49
3 -1 -8 203.94 14.12
-3 1 8 191.77 13.99
-3 1 8 199.3 11.9
-3 1 9 513.61 22.49
-3 1 9 582.88 20.24
3 -1 -9 500.35 14.39
-3 1 9 529.88 18.49
-3 1 9 537.09 10.02
3 -1 -9 584.45 24.62
-3 1 9 552.14 24.34
-3 1 10 481.3 23.59
3 -1 -10 530.33 24.59
3 -1 -10 421.14 14.58
-3 1 10 480.54 11.03
-3 1 10 453.98 18.85
-3 1 10 527.79 18.86
-3 1 11 108.93 11.83
3 -1 -11 119.09 12.16
3 -1 -11 94.15 7.68
-3 1 11 121.54 9.03
3 -1 -12 10.86 3
3 -1 -12 7.55 3.5
-3 1 12 9.62 4.33
3 -1 -13 29.6 6.92
3 -1 -13 25.4 4.64
-3 1 13 29.79 6.95
3 -1 -14 12.18 3.78
-3 1 14 19.12 6.01
3 -1 -14 17.16 5.88
3 -1 -15 87.35 12.29
-3 1 15 76.53 11.59
3 -1 -16 80.89 12.42
-3 1 16 84.71 13.23
-3 1 17 66.86 11.87
3 -1 -17 65.2 11.43
-3 1 18 6.85 5.44
3 -1 -18 1.88 3.68
-3 1 19 3.25 5.09
-2 1 -17 19.07 7.55
-2 1 -17 12.62 7.05
2 -1 16 6.6 5.45
-2 1 -16 0.8 3.44
-2 1 -16 2.27 3.93
2 -1 15 -7.93 4.3
-2 1 -15 -9.81 6.19
2 -1 15 -1.46 3.62
-2 1 -15 -2.16 3.99
2 -1 14 1.68 4.35
-2 1 -14 1.16 3.53
2 -1 14 -0.12 2.44
-2 1 -14 -7 5.79
2 -1 13 10.44 5.2
-2 1 -13 9.99 5.39
-2 1 -13 2.78 3.87
2 -1 13 16.06 4.65
2 -1 13 8.62 3.53
2 -1 12 58.49 10.96
2 -1 12 60.79 7.96
-2 1 -12 52.1 9.9
2 -1 12 57.91 7.59
-2 1 -12 38.71 7.81
-2 1 -11 200.95 16.62
2 -1 11 231.39 20.07
2 -1 11 245.28 15.52
-2 1 -11 224.35 19.35
2 -1 11 226.15 13.66
-2 1 -10 125.37 13.67
-2 1 -10 120.02 12.36
2 -1 10 129.79 14.46
2 -1 10 139.85 10.81
2 -1 10 144.25 11.63
2 -1 10 138.34 12.05
2 -1 9 9.97 4.32
2 -1 9 17.88 4.94
-2 1 -9 9.88 3.73
-2 1 -9 6.12 2.05
2 -1 9 13.56 3.89
2 -1 9 11.65 2.49
2 -1 8 21.88 4.83
2 -1 8 16.84 4.82
2 -1 8 18.54 3.91
-2 1 -8 14.94 4.28
-2 1 -8 15.28 3.94
2 -1 8 15.29 2.82
-2 1 -7 194.05 13.66
2 -1 7 197.3 8.44
-2 1 -7 232.52 19.45
2 -1 7 206.16 14.91
2 -1 7 207.57 12.93
2 -1 7 186.07 9.73
2 -1 7 196 10.44
-2 1 -7 203.52 15.28
2 -1 7 192.19 13.21
2 -1 6 129.62 7.81
-2 1 -6 136.77 9.23
-2 1 -6 133.73 11.4
2 -1 6 132.21 11.13
-2 1 -6 150.96 14.8
-2 1 -6 132.11 11.44
2 -1 6 119.41 7.85
2 -1 6 133.62 7.33
-2 1 -6 137.87 7.76
2 -1 6 114.37 10.04
-2 1 -5 1676.1 45.63
2 -1 5 1516.2 27.99
2 -1 5 1602.65 26.15
2 -1 5 1469.86 34.77
-2 1 -5 1642.02 37.33
-2 1 -5 1673.01 38.31
-2 1 -5 1563.83 28.26
2 -1 5 1621.8 36.13
-2 1 -5 1596.46 29.05
2 -1 5 1610.23 24.98
-2 1 -5 1628.08 27.13
-2 1 -4 555.89 16.08
-2 1 -4 602.46 25.73
-2 1 -4 581.59 20.74
-2 1 -4 567.5 16.99
2 -1 4 570.26 13.42
-2 1 -4 597.69 21.73
2 -1 4 575.77 16.1
2 -1 4 612.92 19.24
-2 1 -4 577.95 19.07
-2 1 -4 592.92 16.41
2 -1 4 565.94 16.97
-2 1 -4 600.76 21.56
2 -1 4 581.79 19.88
2 -1 3 245.25 15.48
2 -1 3 247.06 12.05
-2 1 -3 249.97 15.17
2 -1 3 265.85 12.91
2 -1 3 259.02 12.79
-2 1 -3 255.28 12.5
-2 1 -3 247.92 10.75
-2 1 -3 232.72 10.9
2 -1 3 246.48 11.69
2 -1 3 235.87 10.97
-2 1 -3 268.81 13.39
-2 1 -3 242.21 13.48
2 -1 3 239.97 10.52
-2 1 -3 227.33 9.77
-2 1 -3 239.33 11.3
2 -1 3 239.99 10.56
-2 1 -2 0.27 1.08
-2 1 -2 0.35 0.7
2 -1 2 1.06 1.39
2 -1 2 0.18 0.79
-2 1 -2 -0.76 1.35
2 -1 2 0.89 1.1
2 -1 2 0.15 0.88
2 -1 2 0.67 0.85
-2 1 -2 -0.13 0.85
-2 1 -2 0.39 1.13
2 -1 2 0.34 1.05
-2 1 -2 0.19 0.74
-2 1 -2 0.3 1.35
-2 1 -2 0.29 0.94
2 -1 2 0.27 0.83
2 -1 2 -0.06 1.06
2 -1 1 1682.18 27.61
-2 1 -1 1527.99 27.9
2 -1 1 1557.24 28.19
2 -1 1 1568.15 25.16
2 -1 1 1609.16 25.75
2 -1 1 1551.38 26.19
-2 1 -1 1627.94 26.58
2 -1 1 1629.64 30.01
-2 1 -1 1690.18 28.93
2 -1 1 1596.78 27.14
-2 1 -1 1613.5 32.04
2 -1 1 1553.41 24.9
2 -1 1 1572.14 31.79
-2 1 -1 1547.09 30.83
-2 1 -1 1602.66 27.46
2 -1 0 6070.02 44.43
2 -1 0 6205.45 48.15
2 -1 0 5808.52 54.55
2 -1 0 5785.63 52.34
2 -1 0 5994.66 52.84
-2 1 0 6096.7 45.88
2 -1 0 6066.87 51.05
2 -1 0 5871.6 55.14
-2 1 0 6233.05 49.96
-2 1 0 6009.67 53.25
-2 1 0 6043.54 53.05
-2 1 0 5957.21 54.25
-2 1 0 5972.4 51.59
-2 1 0 6192.24 60.95
2 -1 -1 1517.32 27.69
-2 1 1 1540.49 29.66
2 -1 -1 1484.48 27.48
2 -1 -1 1552.47 26.76
2 -1 -1 1556.5 24.79
-2 1 1 1550.75 27.09
2 -1 -1 1509.25 26.31
-2 1 1 1565.07 27.74
2 -1 -1 1557.96 19.3
2 -1 -1 1489.73 21.15
-2 1 1 1535.92 21.64
2 -1 -1 1537.68 21.4
-2 1 1 1534.35 27.31
-2 1 1 1543.85 19.93
2 -1 -1 1488.7 21.37
2 -1 -2 402.75 10.77
2 -1 -2 377.34 13.94
-2 1 2 387.26 8.1
2 -1 -2 389.2 11.96
2 -1 -2 392.48 14.16
-2 1 2 389.73 13.93
-2 1 2 399.07 14.1
2 -1 -2 396.59 7.74
2 -1 -2 401.89 13.61
2 -1 -2 386.28 13.59
2 -1 -2 378.26 9.31
-2 1 2 395.59 13.81
2 -1 -2 395.19 11.78
2 -1 -3 488.31 11.85
2 -1 -3 484.49 14.77
-2 1 3 480.62 15.28
2 -1 -3 479.12 15.17
-2 1 3 477.38 15.46
2 -1 -3 472.01 11.33
2 -1 -3 491.75 15.71
-2 1 3 486.68 16.08
-2 1 3 492.09 14.81
-2 1 3 471.32 13.02
2 -1 -3 475.53 14.54
-2 1 3 491.12 11.68
-2 1 4 9.34 2.83
-2 1 4 7.47 2.18
-2 1 4 8.33 2.29
2 -1 -4 6.61 2.12
-2 1 4 8.89 1.84
2 -1 -4 6.53 1.55
2 -1 -4 6.54 1.94
2 -1 -4 7.48 1.89
2 -1 -4 5.98 1.19
-2 1 4 5.87 1.47
-2 1 4 5.97 1.79
2 -1 -4 6.87 1.85
-2 1 5 632.92 17.86
-2 1 5 632.64 16.59
-2 1 5 632.61 19.85
2 -1 -5 630.52 19.37
-2 1 5 653.04 20.06
-2 1 5 608.03 13.9
2 -1 -5 619.11 17.65
2 -1 -5 591.4 11.61
-2 1 5 643.45 16.08
-2 1 5 634.16 17.49
2 -1 -5 630.02 9.79
2 -1 -5 652.16 11.87
2 -1 -5 631.61 16.74
-2 1 6 58.52 5.96
2 -1 -6 57.64 5.38
-2 1 6 54.73 6.12
2 -1 -6 58.1 5.1
2 -1 -6 60.91 6.55
-2 1 6 57.44 4.07
-2 1 6 61.91 5.48
2 -1 -6 59.14 3.71
-2 1 6 59.19 3.2
-2 1 6 61.61 5.58
2 -1 -6 58.98 2.82
-2 1 6 59.18 5.5
-2 1 7 85.38 7.38
-2 1 7 88.84 6.53
-2 1 7 88.74 8.27
2 -1 -7 89.49 6.12
2 -1 -7 86.44 6.59
2 -1 -7 85.8 5.33
-2 1 7 89.26 4.84
2 -1 -7 92.53 8.41
-2 1 7 83.6 7.83
-2 1 7 83.53 4.72
-2 1 8 561.29 23.26
-2 1 8 538.23 20.36
-2 1 8 556.57 13.74
2 -1 -8 595.78 22.87
-2 1 8 500.6 11.05
2 -1 -8 551.39 16.58
-2 1 8 547.62 21.22
2 -1 -8 560.05 14.75
2 -1 -8 540.87 15.29
-2 1 9 97.12 6.44
2 -1 -9 96.77 9.74
-2 1 9 83.45 4.42
-2 1 9 95.15 9.24
2 -1 -9 95.43 7.21
-2 1 9 92.88 6.7
2 -1 -9 90.7 5.68
2 -1 -9 89.44 6.61
2 -1 -10 4.62 1.63
-2 1 10 5.45 1.88
2 -1 -10 5.73 2.41
-2 1 10 4.46 2.15
-2 1 10 5.62 1.37
-2 1 10 4.04 1.74
2 -1 -10 8.39 4.19
-2 1 11 498 17.16
2 -1 -11 464.98 18.49
-2 1 11 490.61 23.08
-2 1 12 11.45 1.42
2 -1 -12 19.62 4.23
2 -1 -12 21.12 5.49
-2 1 12 14.1 4.28
-2 1 13 24.25 5.75
2 -1 -13 37.75 7.58
2 -1 -13 24.69 4.97
2 -1 -14 8.36 3.28
-2 1 14 3.38 2.23
2 -1 -14 9.97 4.42
-2 1 15 0.65 3.47
2 -1 -15 0.8 2.14
2 -1 -15 7.55 4.26
2 -1 -16 17.33 6.12
-2 1 16 8.13 3.19
2 -1 -17 25.77 7.49
-2 1 17 8.31 2.9
-2 1 18 33.73 8.68
2 -1 -18 44.37 9.54
-2 1 19 7.43 4.8
2 -1 -19 39.48 9.91
-1 1 -18 7.02 5.53
-1 1 -17 1.8 4.06
-1 1 -17 6.64 5.19
1 -1 16 0.3 3.84
-1 1 -16 3.47 3.76
-1 1 -16 3.52 4.11
-1 1 -16 2.82 3.13
1 -1 16 6.57 3.93
1 -1 15 -0.09 3.77
-1 1 -15 -1.72 4.54
1 -1 15 6.84 3.86
-1 1 -15 2.25 2.94
-1 1 -15 -3.29 3.51
-1 1 -14 6.63 4.38
1 -1 14 8.06 3.51
1 -1 14 1.62 3.03
-1 1 -14 2.3 2.49
-1 1 -14 5.76 4.56
1 -1 13 100.77 9.38
-1 1 -13 103.81 12.48
-1 1 -13 118.94 11.49
1 -1 13 118.31 15.89
1 -1 13 104.85 9.22
-1 1 -13 99.07 13.19
-1 1 -12 73.27 10.64
1 -1 12 71.48 7.5
-1 1 -12 68.54 9.88
1 -1 12 77.58 12.03
-1 1 -12 74.1 8.72
1 -1 12 63.53 7.11
-1 1 -11 9.78 4.29
1 -1 11 10.52 4.74
-1 1 -11 11.19 4.53
1 -1 11 8.16 2.4
-1 1 -11 11.44 3.4
1 -1 11 12.5 3.41
1 -1 10 18.82 3.85
1 -1 10 22.44 3.88
-1 1 -10 15.69 5.06
-1 1 -10 21.71 4.4
1 -1 10 20.9 5.52
-1 1 -10 21.38 5.72
1 -1 10 15.29 2.93
1 -1 9 128.51 8.28
-1 1 -9 133.81 9.86
-1 1 -9 136.74 12.65
-1 1 -9 121.95 11.3
1 -1 9 141.08 13.8
1 -1 9 132.56 8.65
1 -1 9 135.1 9.39
-1 1 -8 132.36 11.57
1 -1 8 113.63 5.21
-1 1 -8 134 11.29
1 -1 8 130.24 12.42
-1 1 -8 120.05 10.93
1 -1 8 136.7 9.15
-1 1 -8 139.51 9.33
1 -1 8 131.45 8.01
-1 1 -8 126.26 11.12
-1 1 -7 84.58 8.86
1 -1 7 85.84 9.35
-1 1 -7 78.95 8.28
-1 1 -7 87.81 8.94
1 -1 7 92.25 6.46
1 -1 7 90.29 7.17
-1 1 -7 91.71 8.64
-1 1 -7 91.39 7.13
-1 1 -7 80.49 4.73
1 -1 7 90.55 7.23
1 -1 7 71.92 4.46
-1 1 -6 8.25 3.12
1 -1 6 7.55 2.33
-1 1 -6 7.02 1.51
-1 1 -6 6.64 1.98
1 -1 6 5.86 1.34
-1 1 -6 9.57 2.96
-1 1 -6 7.17 2.81
1 -1 6 7.9 3.08
-1 1 -6 4.91 2.21
1 -1 6 7.59 2.32
1 -1 6 7.73 2.17
-1 1 -5 178.24 10.94
-1 1 -5 171.13 8.26
-1 1 -5 167.61 7.01
1 -1 5 170.74 11.19
-1 1 -5 166.85 10.42
1 -1 5 159.97 6.89
1 -1 5 177.06 10.5
-1 1 -5 195.23 9.46
1 -1 5 167.8 8.57
1 -1 5 172.08 10.31
1 -1 5 182.23 8.89
1 -1 5 168.27 9.16
-1 1 -5 170.13 10.5
-1 1 -5 175.48 11.01
1 -1 4 188.61 8.2
-1 1 -4 207.63 10.82
1 -1 4 206.6 10.54
1 -1 4 185.36 8.14
1 -1 4 195.34 10.02
1 -1 4 188.33 8.49
1 -1 4 196.83 13.2
-1 1 -4 196.64 7.46
-1 1 -4 198.45 10.53
-1 1 -4 202.48 10.73
-1 1 -4 189.61 10.62
1 -1 4 196.27 10.94
1 -1 4 196.14 9.48
-1 1 -4 211.98 8.3
1 -1 4 185.93 7.39
1 -1 3 1408.51 21.26
1 -1 3 1381.36 31.53
1 -1 3 1443.79 24.07
1 -1 3 1372.2 19.82
1 -1 3 1441.2 25.08
-1 1 -3 1396.34 25.97
1 -1 3 1369.15 19.73
-1 1 -3 1449.04 26.12
-1 1 -3 1376.1 17.63
1 -1 3 1355.66 25.98
1 -1 3 1313.57 20.75
-1 1 -3 1443.94 26
-1 1 -3 1479.34 26.71
-1 1 -3 1417.08 19.64
1 -1 3 1447.54 25.68
1 -1 2 4285.5 48.57
1 -1 2 4295.42 40.99
1 -1 2 4289.21 34.46
1 -1 2 4460.72 28.4
-1 1 -2 4486.52 40.99
1 -1 2 4450.07 39.75
-1 1 -2 4549 40.73
1 -1 2 4527.94 40.09
-1 1 -2 4266.98 40.08
1 -1 2 4286.68 31.26
-1 1 -2 4370.4 34.14
-1 1 -2 4349.31 41.67
1 -1 2 4542.73 36.34
1 -1 2 4542.15 40.29
1 -1 2 4612.4 39.53
-1 1 -1 566.16 11.99
-1 1 -1 582.54 14.13
1 -1 1 593.19 12.51
1 -1 1 591.16 13.19
-1 1 -1 572.79 13.27
1 -1 1 587.64 12.2
-1 1 -1 583.83 12.65
1 -1 1 565.83 13.65
-1 1 -1 565.14 12.45
-1 1 -1 577.04 12.63
1 -1 1 579.51 12.6
1 -1 1 557.75 10.31
1 -1 1 564.3 11.46
1 -1 1 567.22 14.53
1 -1 1 554.95 12.21
-1 1 -1 569.2 13.89
1 -1 1 545.96 9.59
1 -1 1 598.17 13.65
1 -1 0 232.23 7.01
-1 1 0 226.87 6.69
-1 1 0 229 7.33
1 -1 0 218.96 6.54
1 -1 0 218.41 6.64
1 -1 0 222.51 7.31
1 -1 0 234.62 6.44
-1 1 0 229.36 7.64
1 -1 0 224.51 7.71
1 -1 0 230.37 7.72
-1 1 0 232.6 6.51
-1 1 0 235.24 8.34
1 -1 0 235.39 7.51
-1 1 0 222.11 6.85
-1 1 0 228.49 7.71
1 -1 0 235.14 7.83
-1 1 1 419.35 10.5
1 -1 -1 416.05 8.64
1 -1 -1 411.01 10.01
1 -1 -1 440.14 10.18
1 -1 -1 424.56 10.65
1 -1 -1 420.45 9.51
-1 1 1 403.07 8.82
1 -1 -1 417.84 11.41
1 -1 -1 422.44 9.5
-1 1 1 435.33 10.92
-1 1 1 419.22 9.86
1 -1 -1 420.42 8.65
-1 1 1 418.69 9.6
-1 1 1 423.82 10.34
-1 1 1 416.18 7.9
1 -1 -2 348.13 8.91
-1 1 2 362.17 11.33
1 -1 -2 321.22 7.32
-1 1 2 335.44 9.31
-1 1 2 332.66 9.61
1 -1 -2 338.53 7.4
1 -1 -2 323.89 9.87
1 -1 -2 338.15 9.24
1 -1 -2 333.22 9.5
-1 1 2 327.48 7.62
-1 1 2 331.66 7.58
1 -1 -2 334.84 10.22
1 -1 -3 1350.15 19.19
-1 1 3 1350.51 18.81
1 -1 -3 1270.22 21.25
-1 1 3 1369.45 15.32
-1 1 3 1337.21 21.1
1 -1 -3 1355.02 17.2
1 -1 -3 1341.84 19.24
-1 1 3 1358.75 22.54
1 -1 -3 1330.55 22.33
-1 1 3 1288.71 13.48
-1 1 3 1301.39 21.58
1 -1 -3 1360.11 19.75
1 -1 -3 1355.14 13.44
-1 1 3 1335.6 20.48
1 -1 -4 2325.49 31.51
-1 1 4 2248.01 31.78
-1 1 4 2387.87 21.2
1 -1 -4 2306.38 25.58
-1 1 4 2320.64 32.57
1 -1 -4 2308.73 32.36
1 -1 -4 2343.09 22.32
-1 1 4 2283.86 33.06
-1 1 4 2393.43 30.97
-1 1 4 2285.94 24.88
1 -1 -4 2229.41 20.78
-1 1 4 2288.41 18.8
1 -1 -4 2339.52 28.19
-1 1 5 1215.69 25.49
-1 1 5 1186.52 27.77
-1 1 5 1185.67 26.08
-1 1 5 1202.17 23.87
-1 1 5 1217 16.34
1 -1 -5 1169.33 18.25
1 -1 -5 1187.62 25.03
-1 1 5 1188.02 16.73
1 -1 -5 1157.87 18.26
1 -1 -5 1217.3 26.61
1 -1 -5 1214.79 21.72
-1 1 5 1177.52 18.09
1 -1 -6 772.09 14.91
-1 1 6 786.81 15.75
-1 1 6 820.64 21.3
1 -1 -6 787.15 21.74
-1 1 6 797.75 23.61
-1 1 6 797.14 25.75
-1 1 6 774.84 14.48
1 -1 -6 776.77 17.19
-1 1 7 21.82 3.47
-1 1 7 26.99 5.32
-1 1 7 25.28 2.54
-1 1 7 31.84 4.76
-1 1 7 25.42 3.23
-1 1 7 25.88 4.56
1 -1 -7 27.27 4.45
1 -1 -7 24.06 3.48
1 -1 -7 24.53 2.62
-1 1 8 4.3 1.65
1 -1 -8 2.33 1.46
1 -1 -8 0.93 1.03
1 -1 -8 1.46 0.64
-1 1 8 3.52 2.29
-1 1 8 2.28 1.43
1 -1 -9 210.52 6.46
-1 1 9 233.83 11.43
1 -1 -9 266.84 15.28
-1 1 9 247.37 14.35
-1 1 9 245.23 12.88
1 -1 -9 231.76 12.94
1 -1 -10 718.68 26.28
-1 1 10 675.74 24.64
1 -1 -10 641.91 22.98
-1 1 11 434.14 20.95
1 -1 -11 414.27 19.97
1 -1 -11 449.96 21.89
-1 1 12 59.03 8.57
1 -1 -12 55.16 8.17
-1 1 12 49.67 4.42
1 -1 -12 54.16 7.74
1 -1 -13 8.79 4.15
1 -1 -13 12.3 4.27
-1 1 13 9.05 4.23
-1 1 14 11.48 4.63
1 -1 -14 4.55 3.22
1 -1 -14 6.88 3.74
-1 1 15 7.14 4.18
1 -1 -15 7.68 3.8
1 -1 -15 10.15 4.66
-1 1 16 15.23 5.54
1 -1 -16 10.71 4.69
1 -1 -16 24.46 6.79
1 -1 -16 16.6 5.28
1 -1 -17 57.08 10.01
-1 1 17 58.61 10.35
1 -1 -17 66.73 10.99
1 -1 -18 9.4 5.33
-1 1 18 1.91 3.14
1 -1 -18 9.82 5.13
-1 1 19 -3.4 5.17
1 -1 -19 4.76 4.38
1 -1 -19 0.29 3.39
0 1 -19 -0.39 3.43
0 1 -19 3.12 3.32
0 1 -18 9.38 4.93
0 1 -18 14.94 5.88
0 1 -18 11.73 6.45
0 1 -17 32.51 8.43
0 1 -17 45.02 8.73
0 1 -17 37.77 9.53
0 -1 17 31.62 6.76
0 -1 16 82.79 10.41
0 1 -16 88.77 13.24
0 -1 16 101.4 16.13
0 1 -16 86.65 13.27
0 1 -16 114.11 13.22
0 1 -15 37.79 7.48
0 1 -15 28.33 7.11
0 -1 15 35.33 9.35
0 -1 15 27.24 5.95
0 1 -15 36.32 8.68
0 1 -14 12.62 4.86
0 1 -14 17.49 6.5
0 1 -14 18.3 5.17
0 -1 14 22.96 7.36
0 -1 14 18.21 4.82
0 -1 13 12.02 5.23
0 1 -13 13.28 4.23
0 1 -13 8.86 4.36
0 1 -13 18.47 6.72
0 -1 13 10.5 3.61
0 1 -12 5.12 3.2
0 -1 12 4.41 3.35
0 1 -12 3.2 2.73
0 -1 12 7.74 3.23
0 1 -11 387.89 19.63
0 -1 11 347.56 16.02
0 -1 11 376.04 24.84
0 -1 11 367.15 10.06
0 1 -11 352.12 20.54
0 -1 10 891.43 23.57
0 1 -10 912.52 30.28
0 1 -10 908.96 30.95
0 -1 10 918.18 22.43
0 1 -10 1000.12 29.98
0 -1 10 981.85 16.34
0 -1 10 996.47 37.31
0 -1 9 387.37 10.01
0 1 -9 392.9 17.78
0 1 -9 353.97 18
0 -1 9 374.12 14.28
0 -1 9 387.7 22.42
0 1 -9 361.44 18.23
0 -1 9 366.62 13.54
0 -1 8 44.93 3.33
0 -1 8 43.88 4.69
0 -1 8 40.64 6.77
0 1 -8 38.74 2.43
0 1 -8 47.45 5.99
0 1 -8 37.57 5.32
0 1 -8 37.3 5.58
0 -1 8 37.64 4.26
0 1 -8 39.01 5.65
0 -1 7 285.02 16.56
0 -1 7 288.04 7.94
0 1 -7 279.21 13.98
0 1 -7 269.24 13.83
0 -1 7 277.64 10.63
0 -1 7 276.71 10.35
0 1 -7 294.43 13.66
0 1 -7 278.02 13.01
0 1 -6 200.85 9.78
0 -1 6 208.17 10.74
0 -1 6 186.26 12.43
0 1 -6 194.1 10.89
0 -1 6 188.11 7.74
0 1 -6 195.87 10.41
0 -1 6 191.89 10.46
0 -1 6 197.61 6.16
0 1 -6 195.58 10.85
0 1 -6 178.84 8.32
0 -1 6 191.58 8.44
0 -1 6 195.01 10.45
0 1 -5 945.52 17.89
0 1 -5 947.51 16.24
0 -1 5 931.52 21.01
0 -1 5 923.96 21.07
0 -1 5 964.11 21.27
0 1 -5 943.62 24.97
0 -1 5 904.14 12.07
0 -1 5 884.09 14.76
0 -1 5 933.56 17.6
0 -1 5 938.59 25.06
0 1 -5 958.96 21.78
0 1 -5 924.72 20.8
0 1 -5 896.01 17.36
0 1 -5 920.68 21.62
0 1 -4 1480.68 16.61
0 -1 4 1550.67 24.74
0 -1 4 1471.73 24.19
0 1 -4 1494.42 23.95
0 1 -4 1442.2 20.59
0 -1 4 1514.9 28.71
0 -1 4 1438.24 13.84
0 -1 4 1505.34 21.4
0 1 -4 1514.73 24.75
0 -1 4 1456.58 16.43
0 1 -4 1573.6 16.96
0 -1 4 1551.75 24.57
0 1 -4 1507.77 24.75
0 1 -4 1521.36 28.59
0 -1 3 1382.47 13.3
0 1 -3 1447.55 24.94
0 -1 3 1430.77 24.72
0 -1 3 1403.83 21.13
0 -1 3 1469.47 21.7
0 1 -3 1444.15 21.51
0 1 -3 1447.77 21.68
0 1 -3 1517.36 13.03
0 1 -3 1419.51 21.1
0 1 -3 1403.51 14.28
0 -1 3 1480.73 21.99
0 -1 3 1384.39 12.73
0 1 -3 1405.1 19.31
0 -1 3 1483.31 20.36
0 1 -2 253.6 8.23
0 1 -2 249.03 9.04
0 -1 2 254.41 9.06
0 -1 2 242.47 8.36
0 -1 2 250.68 8.27
0 -1 2 238.92 7.86
0 1 -2 251.85 8.38
0 1 -2 249.08 5.54
0 1 -2 243.08 8.09
0 -1 2 252.38 5.56
0 -1 1 1383.71 19.36
0 1 -1 1382.97 14.96
0 1 -1 1403.03 18.84
0 1 -1 1380.51 19.12
0 -1 1 1409.03 20.37
0 -1 1 1390.72 18.72
0 1 -1 1419.83 19.87
0 1 0 176.67 7.93
0 -1 0 162.34 6.47
0 -1 0 172 7.95
0 1 0 152.14 6.13
0 1 1 193.73 8.08
0 -1 -1 201.17 8.41
0 -1 -1 208.9 8.31
0 -1 -1 207.6 8.34
0 1 1 199.03 8.09
0 1 1 203.72 8.31
0 1 2 73.41 5.67
0 -1 -2 60.28 4.97
0 -1 -2 65.51 5.54
0 1 2 65.02 5.2
0 -1 -2 70.49 5.39
0 1 2 64.87 5.58
0 -1 -2 86.11 3.07
0 -1 -3 629.61 19.72
0 -1 -3 630.9 13.87
0 1 3 667.19 20.24
0 1 3 626.05 14.58
0 1 3 710.6 16.17
0 -1 -3 679.41 18.56
0 1 3 713.37 19.27
0 1 3 659.58 18.49
0 -1 -4 176.1 10.13
0 -1 -4 184.26 8.74
0 -1 -4 193.65 10.86
0 1 4 187.03 10.91
0 1 4 185.05 8.5
0 -1 -4 182.93 11.68
0 1 4 177.28 8.53
0 -1 -4 178.31 8.28
0 1 4 207.78 11.21
0 1 4 188.32 12.09
0 1 4 198.09 9.34
0 -1 -5 333.63 17.15
0 -1 -5 320.68 12.96
0 1 5 341.49 18.03
0 -1 -5 322.77 15.01
0 1 5 356.01 16.42
0 1 5 361.98 13.33
0 1 5 332.32 12.49
0 1 5 323.5 12.44
0 -1 -5 328.44 12.14
0 -1 -5 346.26 15.89
0 1 5 352.68 15.82
0 -1 -6 1370.22 37.38
0 1 6 1356.71 27.15
0 -1 -6 1341.18 28.64
0 1 6 1337.12 27.22
0 -1 -6 1361.97 26.92
0 1 6 1395.15 39.69
0 1 6 1412.92 28.09
0 -1 -7 272.66 17.9
0 1 7 257.44 12.75
0 1 7 273.4 13.31
0 -1 -7 270.3 13
0 -1 -7 264.76 13.86
0 -1 -8 3.11 1.99
0 -1 -8 4.37 2.79
0 -1 -8 4.16 2.06
0 -1 -8 1.82 0.53
0 1 8 5 2.25
0 -1 -9 2.08 1.88
0 -1 -9 6.15 3.07
0 -1 -9 1.05 2.04
0 1 9 -0.8 1.52
0 -1 -9 0.55 1.72
0 -1 -10 94.03 12.64
0 1 10 82.26 5.67
0 1 10 83.67 8.77
0 -1 -10 89.87 9.93
0 -1 -10 92.92 9.09
0 -1 -10 99.62 9.33
0 -1 -11 404.91 19.82
0 -1 -11 370.41 20.86
0 1 11 382.74 19.74
0 -1 -11 360.83 18.51
0 1 11 386.97 12.23
0 -1 -12 51.58 8.41
0 1 12 48.3 7.47
0 -1 -12 53.7 7.62
0 -1 -12 51.59 7.65
0 -1 -13 123.66 13.3
0 -1 -13 145.87 13.13
0 -1 -13 121.63 11.81
0 1 13 121.02 12.27
0 -1 -14 133.43 14.58
0 -1 -14 118.28 12.19
0 1 14 131.83 13.72
0 -1 -14 135.21 13.2
0 1 15 8.72 4.98
0 -1 -15 9.56 4.38
0 -1 -15 5.83 3.42
0 -1 -15 6.81 3.98
0 -1 -16 1.54 2.71
0 -1 -16 -1.4 2.64
0 -1 -16 0.89 2.64
0 -1 -17 9.34 4.67
0 -1 -17 6.92 3.93
0 1 17 9.37 4.93
0 -1 -17 3.34 3.15
0 -1 -18 6.99 3.8
0 1 18 18.72 7.2
0 -1 -19 9.2 4.26
1 1 -19 0.52 3.88
1 1 -19 -2.39 4.04
1 1 -18 14.68 8.24
1 1 -18 3.54 3.54
1 1 -18 3.09 3.81
1 1 -17 21.17 6.5
1 1 -17 29.37 9.2
-1 -1 17 6.71 2.86
1 1 -17 16.33 6.27
1 1 -16 2.39 3.44
1 1 -16 0.47 2.97
-1 -1 16 -6.14 4.58
1 1 -15 11.06 4.94
1 1 -15 15.23 5.56
-1 -1 15 14.11 5.99
-1 -1 15 7.07 2.08
1 1 -14 25.97 6.45
-1 -1 14 16.6 4.23
-1 -1 14 21.93 6.71
1 1 -14 20.77 5.83
-1 -1 13 -3.92 3.16
1 1 -13 3.18 2.94
-1 -1 13 -2.93 3.63
1 1 -13 0.63 2.21
-1 -1 12 8.32 2.39
1 1 -12 10.13 3.49
-1 -1 12 11.81 5.07
1 1 -12 15.03 4.65
-1 -1 11 7.79 1.83
1 1 -11 10.18 3.5
-1 -1 11 7.63 1.07
1 1 -11 7.9 1.31
1 1 -11 9.19 3.64
-1 -1 11 10 3.87
1 1 -11 9.18 3.09
1 1 -10 9.35 3.95
-1 -1 10 -0.76 2.06
-1 -1 10 3.19 1.08
1 1 -10 2.48 2.09
1 1 -10 1.11 1.58
-1 -1 10 6.78 3.79
-1 -1 9 263.95 17.63
-1 -1 9 247.24 12.8
1 1 -9 240.99 13.79
-1 -1 9 243.59 8.93
1 1 -9 273.71 15.64
1 1 -9 251.05 13.65
1 1 -9 224.82 9.41
-1 -1 8 552.91 13.88
1 1 -8 554.67 19
-1 -1 8 572.08 24.55
1 1 -8 550.48 16.22
1 1 -8 612.13 22.06
1 1 -8 500.87 13.36
1 1 -8 542.76 19.3
-1 -1 8 530.65 17.66
-1 -1 8 540.93 17.85
-1 -1 7 652.4 15.14
1 1 -7 638.19 19.38
-1 -1 7 611.73 17.85
1 1 -7 647.03 16.66
-1 -1 7 643.57 24
-1 -1 7 628.54 18
1 1 -7 642.92 18.84
1 1 -7 680.09 22.01
1 1 -7 609.51 14.38
1 1 -6 170.88 10.36
1 1 -6 168.37 11.16
1 1 -6 160.66 9.15
-1 -1 6 158.14 11.03
-1 -1 6 154.3 8.34
1 1 -6 159.23 8.58
1 1 -6 167.53 8.09
1 1 -6 157.59 7.66
-1 -1 6 156.09 8.53
-1 -1 5 46.84 4.35
-1 -1 5 46.21 5.39
-1 -1 5 47.33 4.53
1 1 -5 49.67 4.41
1 1 -5 48.11 4.77
1 1 -5 49.43 2.06
1 1 -5 48.28 5.49
-1 -1 5 46.06 4.98
1 1 -5 48.57 5.18
1 1 -5 46.21 4.13
-1 -1 4 2.14 0.86
-1 -1 4 3.47 1.5
1 1 -4 4.06 1.4
1 1 -4 2.61 1.04
1 1 -4 2.41 1.1
-1 -1 4 2.91 1.36
1 1 -4 3.12 1.34
-1 -1 4 2.74 1.28
1 1 -4 3.62 1.43
-1 -1 3 552.73 11.93
1 1 -3 564.6 14.07
-1 -1 3 582.19 17.15
1 1 -3 582.5 14.72
-1 -1 3 579.17 14.31
1 1 -3 591.39 14.84
-1 -1 3 578.17 14.48
1 1 -3 584.99 14.63
-1 -1 3 581.74 14.51
1 1 -2 4140.64 33.21
1 1 -2 4155.48 35.26
1 1 -2 4053.4 34.48
-1 -1 2 4079.14 37.16
1 1 -2 4154.91 33.91
-1 -1 2 4047.03 32.32
-1 -1 2 4041.36 36.23
-1 -1 2 4014.2 33.98
1 1 -1 3149.93 33.44
1 1 -1 3118.01 30.24
-1 -1 1 3208.67 47.09
-1 -1 1 3234.38 33.38
-1 -1 1 3051.05 26.59
-1 -1 1 3055.68 31.14
-1 -1 1 3168.64 24.8
1 1 0 1337.94 21.76
1 1 0 1405.28 28.59
1 1 0 1456.89 22.08
1 1 0 1390.25 21.14
-1 -1 0 1397.53 29.58
-1 -1 0 1377.97 22.57
-1 -1 0 1454.44 23.34
1 1 1 7.18 1.58
-1 -1 -1 6.56 1.85
-1 -1 -1 7.1 2.39
1 1 1 9.92 2.43
-1 -1 -1 6.84 1.51
-1 -1 -1 8.2 2.13
1 1 1 6.83 1.92
1 1 1 7.52 2.33
-1 -1 -2 18.61 3.95
1 1 2 22.21 2.91
-1 -1 -2 21 2.68
1 1 2 25.35 4.25
-1 -1 -2 20.91 3.72
1 1 2 20.27 3.49
1 1 2 20.64 4.17
1 1 3 1.62 1.29
-1 -1 -3 2.07 1.48
-1 -1 -3 1.1 0.83
1 1 3 1.12 1.13
1 1 3 0.49 0.86
-1 -1 -3 0.98 0.85
1 1 3 1.04 0.83
-1 -1 -3 1.58 0.91
-1 -1 -3 1.09 1.62
1 1 3 -2.4 2.83
1 1 4 1132.31 35.03
1 1 4 1139.13 30.43
1 1 4 1133.56 22.69
-1 -1 -4 1064.19 21.13
1 1 4 1088.33 26.89
-1 -1 -4 1025.34 24.82
-1 -1 -4 1050.84 17.93
-1 -1 -4 911.15 28.68
1 1 4 959.23 30.24
-1 -1 -4 1078.41 34.2
-1 -1 -5 716.17 29.75
-1 -1 -5 695.59 16.16
-1 -1 -5 685.1 22.11
1 1 5 713.92 16.59
1 1 5 720.54 22.88
-1 -1 -5 702.41 18.39
1 1 6 1736.59 28.39
-1 -1 -6 1633.88 23.87
1 1 6 1602 42.41
-1 -1 -6 1755.41 28.3
-1 -1 -6 1781.5 48.97
-1 -1 -6 1668.32 30.25
-1 -1 -6 1737.77 38.6
-1 -1 -7 145.58 11.84
-1 -1 -7 130.54 6.6
-1 -1 -7 154.86 15.45
1 1 7 138.38 8.76
-1 -1 -7 136.73 9.15
1 1 7 141.52 13.41
-1 -1 -7 155.93 9.2
-1 -1 -8 44.69 3.7
1 1 8 50.98 7.21
-1 -1 -8 53.77 9.44
-1 -1 -8 51.23 7.59
1 1 8 61.65 9.41
-1 -1 -8 50.14 6.02
-1 -1 -8 54.86 5.92
-1 -1 -9 14.17 5.36
-1 -1 -9 14.25 3.49
-1 -1 -9 14.62 4.25
1 1 9 26.43 6.73
1 1 9 14.47 1.78
1 1 9 19.2 4.85
-1 -1 -9 13.05 1.8
-1 -1 -9 18.99 3.86
-1 -1 -10 92.87 13.66
-1 -1 -10 71.75 7.94
1 1 10 78.34 9.17
-1 -1 -10 77.14 10.08
-1 -1 -10 86.87 8.29
1 1 10 90.38 11.71
-1 -1 -11 104.62 15.23
-1 -1 -11 83.62 11.2
1 1 11 89.97 10.24
-1 -1 -11 78.44 8.71
-1 -1 -11 95.76 9.21
-1 -1 -12 119.29 17.15
-1 -1 -12 103.77 10.05
1 1 12 99.44 11.17
-1 -1 -12 84.85 9.49
-1 -1 -12 103.22 12.83
-1 -1 -13 16.57 5.94
-1 -1 -13 9.38 3.21
1 1 13 13.61 4.85
-1 -1 -13 19.83 4.92
-1 -1 -14 0.71 3.04
-1 -1 -14 7.04 3.88
1 1 14 9.26 4.42
-1 -1 -14 11.29 5.38
-1 -1 -15 -0.25 3.1
-1 -1 -15 9.16 4.03
1 1 15 -2.24 3.79
-1 -1 -16 -5.1 5.21
1 1 16 -4.02 4.66
-1 -1 -17 -10.57 5.44
1 1 17 10.9 4.83
-1 -1 -18 6.01 4.1
1 1 18 13.42 6.67
-2 -1 18 7.79 3.95
2 1 -18 7.17 5.03
2 1 -18 8.46 5.25
2 1 -17 20.65 6.2
2 1 -17 22.19 7.15
-2 -1 17 25.29 7.24
2 1 -16 116.9 13.92
2 1 -16 149.21 16.12
-2 -1 16 132.19 14.52
2 1 -15 126.69 14.4
-2 -1 15 112.14 12.73
2 1 -15 107.86 12.54
2 1 -14 107.53 13.08
-2 -1 14 107.38 14.7
-2 -1 14 97.52 11.39
2 1 -14 85.65 10.51
-2 -1 13 7.05 3.28
2 1 -13 11.26 4.4
-2 -1 13 12.44 4.79
2 1 -13 5.62 2.88
2 1 -12 37.65 5.73
2 1 -12 38.41 6.34
-2 -1 12 48.33 9.08
-2 -1 12 43.57 4.61
-2 -1 12 46.92 7.44
2 1 -12 40.66 7.68
2 1 -11 7.7 1.98
-2 -1 11 10.3 4.15
2 1 -11 7.9 2.65
2 1 -11 8.61 3.39
-2 -1 11 9.96 3.54
2 1 -11 7.81 2.14
-2 -1 11 8.83 2.3
2 1 -11 13.8 4.64
-2 -1 10 522.52 25.87
-2 -1 10 521.98 17.43
2 1 -10 480.1 19.74
2 1 -10 555.68 24.31
2 1 -10 482.86 18.61
-2 -1 10 507.25 21.86
-2 -1 9 496.67 17.36
-2 -1 9 547.31 24.79
2 1 -9 566.7 23.23
-2 -1 9 554.98 18.2
-2 -1 9 535.93 21.59
2 1 -9 508.26 19.3
2 1 -9 480.36 14.68
2 1 -9 498.1 17.57
2 1 -8 191.38 12.87
-2 -1 8 182.91 10.52
2 1 -8 178.85 9.64
-2 -1 8 171.84 13.05
-2 -1 8 175.51 10.28
2 1 -8 171.34 10.81
-2 -1 8 181.73 12.11
-2 -1 7 304.67 13.57
-2 -1 7 300.33 14.97
2 1 -7 278.04 11.16
2 1 -7 303.97 14.05
-2 -1 7 303.44 16
-2 -1 7 281.1 13.02
2 1 -7 319.17 15.67
2 1 -6 281.44 13.14
2 1 -6 291.97 14.1
-2 -1 6 248.97 12.99
-2 -1 6 286.17 14.24
2 1 -6 276.32 13.71
-2 -1 6 283.46 12.97
2 1 -6 281.31 13.63
-2 -1 6 270.91 13.71
2 1 -6 276.93 10.63
-2 -1 5 282.87 12.92
-2 -1 5 271.2 12.47
2 1 -5 274.13 10.92
-2 -1 5 277.67 13.5
2 1 -5 274.54 12.95
2 1 -5 279.06 12.92
-2 -1 5 268.87 8.74
2 1 -5 275.86 12.38
-2 -1 4 19.39 2.44
2 1 -4 21.41 3.09
-2 -1 4 25.19 4.07
-2 -1 4 21.86 3.21
2 1 -4 20.94 3.56
2 1 -4 21.11 3.47
2 1 -4 22.66 3.83
-2 -1 4 21.49 3.71
-2 -1 4 21.73 3.39
-2 -1 3 655.97 19.21
2 1 -3 664.61 14.4
-2 -1 3 636.92 13.97
2 1 -3 674.99 19.07
-2 -1 3 673.08 14.91
2 1 -3 640.07 13.37
2 1 -3 639.24 19.98
-2 -1 3 640.31 19.76
-2 -1 3 622.85 16.16
2 1 -3 636.25 16.55
2 1 -2 234.94 9.35
-2 -1 2 247.99 15.42
-2 -1 2 236.43 6.66
-2 -1 2 246.82 9.05
2 1 -2 239.96 12.25
-2 -1 2 250.01 11.93
2 1 -2 249.92 11.5
-2 -1 2 230.55 8.83
2 1 -2 239.4 6.82
2 1 -2 235.77 9.07
-2 -1 1 15.08 3.94
-2 -1 1 16.8 3.14
-2 -1 1 15.57 2.04
2 1 -1 14.41 3.08
-2 -1 1 15.88 2.59
2 1 -1 16.96 3.89
-2 -1 1 17.68 3.18
2 1 -1 16.55 3.01
2 1 -1 16.02 2.53
2 1 0 315.09 13.1
2 1 0 292.4 12.11
2 1 0 294.54 16.04
-2 -1 0 310.96 13.27
-2 -1 0 294.19 13.24
2 1 0 295.21 13.59
-2 -1 0 293.05 7.49
-2 -1 0 292.69 16.54
2 1 1 608.02 19.2
2 1 1 620.83 19.69
-2 -1 -1 599.04 18.85
-2 -1 -1 590.61 11.6
-2 -1 -1 672.44 20.83
2 1 1 656.58 19.7
-2 -1 -1 620.17 18.92
2 1 1 623.57 24.59
-2 -1 -1 588.7 24.91
2 1 2 283.44 14.6
-2 -1 -2 273.48 9.79
-2 -1 -2 277.85 12.89
2 1 2 293.79 17.94
-2 -1 -2 278.29 17.77
-2 -1 -2 283.76 13.4
2 1 2 318.86 15
2 1 2 290.76 13.48
-2 -1 -2 307.57 15.17
2 1 3 6.4 2.51
-2 -1 -3 5.42 2.09
-2 -1 -3 5.13 3.1
2 1 3 8.07 3.67
-2 -1 -3 4.14 1.49
-2 -1 -3 5.79 2.29
-2 -1 -3 5.2 0.96
2 1 4 0.68 1.08
-2 -1 -4 3.26 1.86
-2 -1 -4 4.52 1.05
-2 -1 -4 4.54 1.73
-2 -1 -4 3.4 1.82
2 1 4 3.19 2.17
-2 -1 -4 2.91 2.42
-2 -1 -5 83.65 4.85
-2 -1 -5 72.93 7.35
-2 -1 -5 81.45 11.33
-2 -1 -5 75.05 6.74
2 1 5 57.34 8.32
-2 -1 -5 75.56 7.38
-2 -1 -6 510.55 17.41
2 1 6 502.03 26.71
-2 -1 -6 580.85 31.45
-2 -1 -6 538.6 13.89
-2 -1 -6 512.46 20.15
-2 -1 -7 375.01 26.29
-2 -1 -7 332.95 13.95
-2 -1 -7 351.87 12.34
-2 -1 -7 338.23 17.17
2 1 7 309.82 21.9
-2 -1 -8 163.83 12.37
-2 -1 -8 181.06 19.23
2 1 8 150.77 15.36
-2 -1 -8 167.15 9.26
2 1 8 150.03 8.97
-2 -1 -8 148.4 9.14
-2 -1 -9 147.2 17.68
-2 -1 -9 148.85 9.4
-2 -1 -9 124.85 7.99
2 1 9 125.54 7.95
-2 -1 -9 143.13 12.09
2 1 9 133.5 15.14
-2 -1 -10 23.82 5.51
2 1 10 22.13 7.45
-2 -1 -10 23.11 4.13
-2 -1 -10 20.62 7.58
-2 -1 -11 52.68 8.32
2 1 11 53.81 10.36
-2 -1 -11 51.99 11.98
-2 -1 -11 44.29 5.78
2 1 11 45.07 8.17
-2 -1 -12 6.51 5.65
2 1 12 0.66 2.95
2 1 12 12.65 6.36
-2 -1 -12 10.45 4.95
-2 -1 -12 2.2 2.14
-2 -1 -13 36.23 11.23
-2 -1 -13 25.64 6.59
2 1 13 22.27 6.6
-2 -1 -14 95.2 17.99
-2 -1 -14 81.18 11.65
2 1 14 76.74 11.28
2 1 15 24.67 6.76
-2 -1 -15 30.87 7.77
2 1 16 -2.22 3.63
-2 -1 -16 6.22 4.61
-2 -1 -17 0.31 3.47
2 1 17 -6.59 5.98
-3 -1 18 -3.32 4.22
3 1 -18 0.51 3.74
3 1 -17 3.39 3.47
3 1 -17 5.78 4.24
-3 -1 17 3.1 3.25
-3 -1 16 1.52 2.41
3 1 -16 2.35 3.55
3 1 -16 -3.3 3.3
-3 -1 15 9.46 4.16
3 1 -15 3.11 2.5
3 1 -15 11.55 4.98
-3 -1 14 30.5 7.1
3 1 -14 28.27 5.8
3 1 -14 37.14 7.83
3 1 -13 33.44 7.35
-3 -1 13 27.9 6.41
3 1 -13 27.06 4.79
-3 -1 13 32.25 5.27
3 1 -13 28.58 5.71
-3 -1 12 120.89 10.09
-3 -1 12 120.82 12.76
3 1 -12 129.62 13.25
3 1 -12 105.91 10.31
3 1 -12 104.31 8.84
-3 -1 11 52.34 6.73
3 1 -11 51.67 7.14
3 1 -11 60.27 8.87
-3 -1 11 55.67 8.84
3 1 -11 46.62 5.58
-3 -1 11 50.59 8.22
3 1 -11 39.59 4.89
-3 -1 10 3.25 2.86
-3 -1 10 -0.51 2.53
3 1 -10 0.73 2.18
-3 -1 10 0.59 1.57
3 1 -10 2.03 1.56
3 1 -10 1.86 2.69
-3 -1 9 27.91 5.62
3 1 -9 24.48 2.16
3 1 -9 33.88 5.54
3 1 -9 27.97 3.91
-3 -1 9 31.72 5.25
3 1 -9 34.62 6.07
-3 -1 9 30.68 5.76
3 1 -8 99.71 6.81
-3 -1 8 96.91 5.95
3 1 -8 110.81 10.24
-3 -1 8 107.53 9.75
-3 -1 8 99.89 9.58
3 1 -8 100.83 9.17
-3 -1 8 105.82 10.61
-3 -1 7 811.92 16.45
-3 -1 7 782.76 24.61
3 1 -7 769.76 18.88
-3 -1 7 816.87 26.47
-3 -1 7 837.3 28.84
3 1 -7 829.48 26.09
-3 -1 6 589.22 22.44
3 1 -6 591.49 17.97
-3 -1 6 582.6 19.38
3 1 -6 579.25 19.14
-3 -1 6 610.8 24.13
3 1 -6 607.08 21.11
-3 -1 6 515.61 13.31
3 1 -5 52.36 6.03
3 1 -5 57.56 5.45
-3 -1 5 60.07 5.53
-3 -1 5 58.5 7.61
3 1 -5 61.85 6.5
-3 -1 5 60.11 7.23
-3 -1 5 63.4 3.99
-3 -1 4 8.97 1.56
-3 -1 4 7.67 3.45
3 1 -4 9.73 2.98
3 1 -4 6.82 1.67
3 1 -4 8.14 1.51
-3 -1 4 8.74 3.02
-3 -1 4 9.77 3.1
-3 -1 4 8.52 2.33
3 1 -4 6.9 2.04
-3 -1 3 10.09 3.13
3 1 -3 12.16 3.4
3 1 -3 9.55 1.6
-3 -1 3 10.87 2.37
3 1 -3 8.25 1.71
3 1 -3 10.17 2.45
-3 -1 3 11.27 3.84
3 1 -2 72.04 5.56
3 1 -2 83.26 8.23
-3 -1 2 76.77 7.95
-3 -1 2 77.8 5.53
3 1 -2 77.41 5.57
-3 -1 2 78.98 9.94
3 1 -1 863.31 21.6
3 1 -1 948.67 27.01
-3 -1 1 896.48 27.26
-3 -1 1 863.64 16.14
-3 -1 1 885.95 32.7
-3 -1 0 719.7 12.45
3 1 0 757.32 22.84
3 1 0 817.97 25.2
-3 -1 0 736.65 24.91
-3 -1 0 765 31.41
-3 -1 -1 298.31 16.31
-3 -1 -1 282.55 7.16
3 1 1 325.26 16.4
3 1 1 311.14 15.95
-3 -1 -1 291.8 15.87
-3 -1 -1 305.72 20.45
-3 -1 -1 274.69 5.81
3 1 2 66.63 7.89
-3 -1 -2 58.86 7.2
-3 -1 -2 57.94 4.32
-3 -1 -2 60.16 7.55
-3 -1 -2 61.39 9.74
-3 -1 -3 117.26 7.35
-3 -1 -3 118.23 14.08
-3 -1 -3 112.3 9.9
-3 -1 -3 118.46 10.67
3 1 3 148.42 12.41
3 1 4 9.98 5.02
-3 -1 -4 2.5 1.54
-3 -1 -4 4.8 3.97
-3 -1 -4 2.38 2.27
-3 -1 -4 2.52 1.55
-3 -1 -5 12.1 5.29
3 1 5 8.9 4.21
-3 -1 -5 10.79 2.99
-3 -1 -5 7.36 2.48
-3 -1 -5 14.67 4.51
-3 -1 -5 9.97 1.04
-3 -1 -6 350.71 19.44
-3 -1 -6 347.82 17.21
-3 -1 -6 389.08 28.41
-3 -1 -6 352.47 8.36
3 1 6 335.54 23.26
3 1 7 98.27 12.85
-3 -1 -7 139.59 17.69
-3 -1 -7 114.12 9.85
-3 -1 -7 127.65 5.93
-3 -1 -7 118.71 11.59
-3 -1 -8 0.88 1.04
-3 -1 -8 -3.11 2.99
3 1 8 -6.28 5.52
-3 -1 -8 0.5 1.6
-3 -1 -8 -1.65 2.88
-3 -1 -9 29.96 4.94
3 1 9 31.12 8.18
-3 -1 -9 32.34 9.54
-3 -1 -9 35.55 7.06
-3 -1 -10 4.07 3.11
-3 -1 -10 2.89 2.5
3 1 10 6.57 4.74
-3 -1 -11 7.22 4.21
-3 -1 -11 5.56 4.58
3 1 11 4.16 3.66
-3 -1 -12 7.85 3.89
3 1 12 10.34 5.19
3 1 12 13.15 7.26
-3 -1 -12 11.41 6.81
-3 -1 -13 2.75 2.84
-3 -1 -13 5.89 6.34
3 1 13 6.36 4.46
3 1 13 13.73 7.27
-3 -1 -14 5.4 6.33
3 1 14 14.39 7.17
3 1 14 2.48 3.65
-3 -1 -14 -1.21 3.32
-3 -1 -15 3.95 3.63
3 1 15 3.67 4.36
-3 -1 -16 3.3 3.61
-4 -1 19 1.54 3.29
-4 -1 18 -4.14 4.62
-4 -1 17 0.36 3.16
4 1 -17 1.43 3.23
4 1 -16 20.05 6.51
-4 -1 16 14.06 5.61
4 1 -15 47.63 9.55
4 1 -15 34.44 6.88
-4 -1 15 37.18 8.55
4 1 -14 100.03 13.06
4 1 -14 77.42 9.56
-4 -1 14 85.41 12.46
-4 -1 13 39.52 6.79
-4 -1 13 38.87 8.25
4 1 -13 39.54 8.13
4 1 -13 35.03 6.4
4 1 -12 42.5 6.88
4 1 -12 32.05 4.57
-4 -1 12 44.04 7.2
4 1 -12 49.79 8.67
-4 -1 12 51.99 9.35
4 1 -11 32.48 5.9
-4 -1 11 37.55 7.72
-4 -1 11 30.26 5.86
4 1 -11 27 3.89
4 1 -11 31.68 6.76
-4 -1 10 3.42 3.26
-4 -1 10 1.52 1.91
4 1 -10 1.23 2.33
4 1 -10 1.93 1.61
4 1 -10 2.31 2.97
-4 -1 9 39.31 6.81
4 1 -9 31.32 3.98
-4 -1 9 38.99 7.41
-4 -1 9 26.87 2.52
4 1 -9 38 6.63
-4 -1 8 88.82 10.93
-4 -1 8 87.62 10.14
4 1 -8 80.47 6.49
4 1 -8 88.53 9.45
4 1 -7 152.36 10.4
4 1 -7 167.73 10.49
4 1 -7 170.69 12.38
-4 -1 7 171.66 13.9
-4 -1 7 185.03 15.29
4 1 -6 0.85 1.6
-4 -1 6 0.56 1.75
-4 -1 6 0 2.75
4 1 -6 1.21 1.22
-4 -1 6 0.09 1.91
4 1 -6 -0.51 2.26
4 1 -6 -2.62 3.1
4 1 -5 421.27 21.13
-4 -1 5 383.91 20.8
-4 -1 5 406.51 22.18
4 1 -5 402 16.85
4 1 -5 379.03 12.66
-4 -1 5 395.72 25.96
4 1 -4 243.68 8
4 1 -4 207.14 8.78
4 1 -4 265.59 16.79
4 1 -4 258.09 12.78
-4 -1 4 238.52 16.56
-4 -1 4 252.06 20.33
-4 -1 3 7.77 3.87
-4 -1 3 6.75 2.16
4 1 -3 5.83 3.01
4 1 -3 6.85 2.04
-4 -1 3 5.47 2.98
4 1 -3 5.52 2.28
-4 -1 2 4.38 2.73
4 1 -2 5.68 1.86
-4 -1 2 5.82 3.11
4 1 -2 4.51 1.86
-4 -1 2 6.6 1.76
4 1 -2 8.68 3.54
-4 -1 1 74.57 9.17
4 1 -1 82.42 7.77
-4 -1 1 73.23 4.97
4 1 -1 87.53 9.57
-4 -1 1 90.39 12.04
4 1 0 6.44 3.37
-4 -1 0 0 2.57
-4 -1 0 1.05 1.82
-4 -1 0 2.76 0.9
-4 -1 -1 220.21 16.32
-4 -1 -1 208.29 15.64
4 1 1 244.24 16.21
-4 -1 -1 224.99 19.75
4 1 2 247.65 16.75
-4 -1 -2 206.54 15.25
-4 -1 -2 215.88 20.05
-4 -1 -2 205.38 7.83
-4 -1 -2 218.15 16.46
-4 -1 -3 68.36 9.5
-4 -1 -3 72.85 12.27
-4 -1 -3 72.89 5.69
4 1 3 84.6 10.43
-4 -1 -3 74.19 9.4
-4 -1 -4 71.58 9.19
-4 -1 -4 66.75 6.32
4 1 4 97.02 12.17
-4 -1 -4 74.94 10.19
-4 -1 -4 73.51 12.75
-4 -1 -5 49.1 7.63
-4 -1 -5 54.21 8.77
4 1 5 60.62 10.65
-4 -1 -5 56.43 11.91
-4 -1 -6 5.71 2.56
4 1 6 8.95 4.74
-4 -1 -6 9.85 3.91
-4 -1 -6 14.5 6.94
-4 -1 -7 28.69 5.88
-4 -1 -7 27.13 8.52
4 1 7 19.4 6.12
-4 -1 -7 32.24 7.19
-4 -1 -8 51.43 9.36
-4 -1 -8 47.94 11.37
-4 -1 -8 44.42 7.06
4 1 8 27.75 7.28
-4 -1 -9 88.4 16.77
4 1 9 60.35 11.95
-4 -1 -9 74.9 11.3
4 1 10 -3.08 4.93
-4 -1 -10 0.53 2.73
-4 -1 -10 -0.28 3.22
-4 -1 -11 -4.22 4.1
-4 -1 -11 6.84 6.83
4 1 11 1.9 4.11
-4 -1 -12 0.95 5.33
-4 -1 -12 -5.9 5.08
4 1 12 6.9 6.11
-4 -1 -13 -7.15 5.68
4 1 13 6.22 7.24
-4 -1 -13 6.98 6.66
-4 -1 -14 -5.45 5.34
4 1 14 12.75 7.83
4 1 14 6.86 5.44
-4 -1 -15 -5.61 5.16
-5 -1 18 2.25 3.66
-5 -1 17 4.74 4.18
-5 -1 16 2.53 4.43
5 1 -16 2.97 3.78
-5 -1 15 3.37 4.18
5 1 -15 6.18 4.86
-5 -1 14 3.25 3.02
5 1 -14 3.71 2.87
5 1 -14 4.67 4.27
-5 -1 14 3.02 3.69
-5 -1 13 2.92 3.69
5 1 -13 4.75 3.57
-5 -1 13 0.63 2.97
5 1 -13 1.55 3.2
5 1 -12 121.55 12.05
-5 -1 12 149.15 14.8
-5 -1 12 142.4 16.6
5 1 -12 148.16 15.03
5 1 -11 80.49 9.9
-5 -1 11 101.89 12.19
-5 -1 11 109.69 14.26
5 1 -11 108.46 12.41
-5 -1 10 7.3 4.7
-5 -1 10 4.11 2.94
5 1 -10 4.37 3.31
-5 -1 9 -0.21 2.57
-5 -1 9 0.73 2.78
5 1 -9 0.72 2.46
-5 -1 9 -2.91 2.88
5 1 -9 -0.11 1.23
5 1 -9 -2.91 2.76
5 1 -8 2.47 2.32
5 1 -8 -1.3 2.81
5 1 -8 7.59 3.26
-5 -1 8 2.26 2.3
-5 -1 8 0.43 3.44
-5 -1 8 2.65 2.5
5 1 -7 36.26 4.83
-5 -1 7 44.97 8.16
-5 -1 7 41.4 9.26
5 1 -7 45.01 6.72
5 1 -7 47.4 8.01
5 1 -7 34.35 5.79
-5 -1 7 48.23 8.71
5 1 -6 143.95 11.27
5 1 -6 121.03 7.43
5 1 -6 151.1 14.3
-5 -1 6 137.54 13.92
-5 -1 6 146.37 17.03
5 1 -5 73.55 4.22
-5 -1 5 87.08 11.08
-5 -1 5 86.77 13.12
5 1 -5 87.73 8.35
5 1 -5 90.36 11.14
-5 -1 4 53.73 8.97
5 1 -4 44.98 4.73
5 1 -4 73.01 10.33
-5 -1 4 61.07 10.95
5 1 -4 60.61 6.66
5 1 -3 1.7 1.7
5 1 -3 2.5 3.4
-5 -1 3 1.87 2.3
-5 -1 3 2.81 3.3
5 1 -3 1.5 1.19
5 1 -2 45.65 7.9
-5 -1 2 44.79 8.11
-5 -1 2 47.5 9.82
5 1 -2 37.57 5.36
-5 -1 2 39.45 4.33
5 1 -1 -1.89 2.64
-5 -1 1 1.16 2.9
-5 -1 1 1.75 2.52
-5 -1 1 0.28 0.75
-5 -1 0 58.25 9.22
5 1 0 64.12 9.73
-5 -1 0 58.9 10.97
-5 -1 -1 91.99 14.03
5 1 1 102.77 11.98
-5 -1 -1 95.39 11.72
-5 -1 -2 52.88 9.26
-5 -1 -2 48.18 8.59
-5 -1 -2 54.28 11.1
5 1 2 70.12 10.46
5 1 3 4.31 3.3
-5 -1 -3 2.03 2.93
-5 -1 -3 -3.12 4.51
-5 -1 -3 7.95 4.26
-5 -1 -4 47.26 11.17
-5 -1 -4 31.4 6.93
5 1 4 57.35 10.63
-5 -1 -4 34.1 7.8
5 1 5 42.56 9.87
-5 -1 -5 31.61 7.73
-5 -1 -5 29.5 6.7
-5 -1 -5 39.48 10.86
-5 -1 -6 10.29 6.61
5 1 6 2.17 3.82
-5 -1 -6 2.21 2.44
-5 -1 -6 2.18 3.11
-5 -1 -7 6.63 3.22
5 1 7 3.6 4.06
-5 -1 -7 7.25 4.17
-5 -1 -7 0.33 3.45
-5 -1 -8 2.46 2.62
-5 -1 -8 2.31 3.88
-5 -1 -8 1.94 2.72
5 1 9 -9.57 6.97
-5 -1 -9 -1.83 4.53
-5 -1 -9 3.81 4.46
-5 -1 -10 1.65 3.89
5 1 10 -10.29 7.58
-5 -1 -10 7.48 6.78
-5 -1 -11 16.98 8.27
-5 -1 -11 14.36 6.35
5 1 11 0.93 4.86
-5 -1 -12 -1.06 3.41
5 1 12 9.26 7.39
5 1 13 0.04 5.22
-5 -1 -13 2.25 3.7
-6 -1 17 -5.22 4.42
-6 -1 16 -0.63 3.98
-6 -1 15 -6.06 4.51
6 1 -15 -2.66 3.45
6 1 -14 5.02 4.42
-6 -1 14 10.66 5.82
-6 -1 14 4.67 4.07
-6 -1 13 29.64 7.58
-6 -1 13 24.92 7.65
6 1 -13 27.28 7.38
-6 -1 12 6.71 4.42
-6 -1 12 3.8 4.33
-6 -1 12 -1.15 3.97
6 1 -12 1.05 2.68
6 1 -12 5.34 5.07
6 1 -12 2.84 3.27
-6 -1 11 4.51 5.16
-6 -1 11 1.11 3.01
-6 -1 11 5.26 4
6 1 -11 4.93 4.82
6 1 -11 2.65 2.81
-6 -1 10 9.02 5.85
-6 -1 10 12.87 5.06
-6 -1 10 12.82 5.07
6 1 -10 18.75 6.31
6 1 -10 15.71 5.13
6 1 -9 18.75 5.93
-6 -1 9 20.34 6.77
-6 -1 9 15.63 6.01
-6 -1 9 13.87 6.73
6 1 -9 14.04 4.6
-6 -1 8 4.79 4.53
-6 -1 8 -0.13 2.43
6 1 -8 3.48 3.83
6 1 -8 0.43 2.07
-6 -1 7 31.73 8.97
6 1 -7 30.48 6
-6 -1 7 27.59 7.01
6 1 -7 30.77 7.49
-6 -1 6 17.83 7.11
-6 -1 6 14.36 4.93
6 1 -6 16.75 5.96
6 1 -6 20.21 4.64
6 1 -5 24 7.15
-6 -1 5 26.09 7.9
-6 -1 5 21.99 6.61
6 1 -5 26.84 5.16
-6 -1 4 51.09 11.15
6 1 -4 67.24 11.08
6 1 -4 51.15 6.4
-6 -1 4 52.2 9.56
-6 -1 3 46.75 10.59
6 1 -3 51.75 9.44
-6 -1 3 43.44 8.91
6 1 -2 33.33 7.52
-6 -1 2 24.56 7.58
-6 -1 2 24.48 6.7
-6 -1 1 2.92 2.88
-6 -1 1 9.05 5.37
6 1 -1 9.4 4.77
-6 -1 0 2.93 2.58
6 1 0 4.44 3.23
-6 -1 0 3.27 3.92
6 1 1 9.81 5.12
-6 -1 -1 2.58 3.72
-6 -1 -1 3.61 3.17
6 1 2 1.53 3.81
-6 -1 -2 2.56 3.23
-6 -1 -2 6.25 5.08
6 1 3 19.29 7.25
-6 -1 -3 10.35 4.33
-6 -1 -3 19.56 7.53
-6 -1 -3 12.44 5.41
-6 -1 -4 41.87 9.81
-6 -1 -4 45.33 11.88
-6 -1 -4 36.04 8.5
6 1 4 63.86 12.12
-6 -1 -5 2.17 3.43
-6 -1 -5 1.46 2.94
-6 -1 -5 4.14 4.99
6 1 5 11.61 7.12
-6 -1 -6 0.19 3.57
6 1 6 8.06 6.27
-6 -1 -6 1.89 3.12
-6 -1 -6 4.26 5.7
6 1 7 -4.57 6.13
-6 -1 -7 0.67 2.58
-6 -1 -7 -9.03 6.13
-6 -1 -7 2.07 3.11
-6 -1 -8 -0.1 3.2
-6 -1 -8 1.04 4.51
-6 -1 -9 8.65 7.42
-6 -1 -9 6.09 4.27
6 1 10 -16.1 8.41
-6 -1 -10 3.14 3.81
-6 -1 -11 3.28 3.76
7 1 -14 -3.27 4.2
-7 -1 14 4.5 4.08
-7 -1 14 -1.74 4.08
7 1 -14 -1.67 3.32
7 1 -13 7.4 4.13
7 1 -13 8.98 5.41
-7 -1 13 9.78 5.56
-7 -1 13 10.27 6.62
7 1 -12 14.74 5.78
7 1 -12 12.32 5.87
-7 -1 12 16.29 6.68
-7 -1 12 14.71 6.04
-7 -1 11 27.82 7.95
7 1 -11 19.73 7.53
7 1 -11 28.27 7.13
7 1 -10 11.88 5.93
7 1 -10 7.8 4.53
-7 -1 10 9.55 5.12
-7 -1 9 2.99 3.69
7 1 -9 -3.06 3.52
7 1 -9 1.07 2.17
-7 -1 8 2.46 4.58
7 1 -8 0.87 3.8
7 1 -8 2.68 2.78
-7 -1 8 1.07 2.87
-7 -1 7 -0.57 3.44
-7 -1 7 -1.69 3.79
7 1 -7 4.46 4.63
7 1 -7 -0.83 2.16
7 1 -6 3.63 4.81
-7 -1 6 4.55 3.72
-7 -1 6 0.13 3.47
7 1 -6 2.47 2.25
7 1 -5 9.39 5.92
-7 -1 5 3.05 4.06
-7 -1 5 9.42 5.17
-7 -1 4 20 7.43
7 1 -4 22.17 6.62
-7 -1 4 25.25 7.26
-7 -1 3 4.89 4.76
-7 -1 3 5.58 3.49
7 1 -3 4.27 3.79
-7 -1 2 3.17 3.98
7 1 -2 6.04 5.03
-7 -1 2 5.93 5.64
-7 -1 1 18.15 5.83
7 1 -1 26.4 8.66
-7 -1 1 21.67 8.87
-7 -1 0 -0.6 2.91
-7 -1 0 0.4 2.91
7 1 0 7.5 5.12
-7 -1 -1 0.36 2.93
-7 -1 -1 4.76 4.52
7 1 1 2.48 3.97
7 1 2 14.21 6.6
-7 -1 -2 7.15 4.76
-7 -1 -2 3.6 4.61
-7 -1 -3 3.51 5.3
7 1 3 15.4 6.96
-7 -1 -3 2.77 3.38
-7 -1 -4 3.17 4.82
-7 -1 -4 1.64 3.46
-7 -1 -5 8.2 4.94
-7 -1 -5 12.94 7.81
-7 -1 -5 2.31 3.73
7 1 5 20.84 8.85
7 1 6 6.86 6.7
-7 -1 -6 -0.12 3.22
-7 -1 -6 1.46 3.73
-7 -1 -6 3.55 4.01
7 1 7 -0.47 5.64
-7 -1 -7 4.03 4.74
-7 -1 -8 1.45 3.63
-8 -1 13 1.95 4.21
8 1 -13 2.12 3.25
-8 -1 12 2.51 4.56
8 1 -12 1.4 3.81
-8 -1 11 -0.07 3.3
-8 -1 10 3.02 4.6
8 1 -10 10.31 5.95
8 1 -9 6.15 5.26
-8 -1 9 1.63 3.8
-8 -1 8 3.74 4.64
8 1 -8 16.58 7.21
-8 -1 7 1.59 3.18
8 1 -7 5.69 5.14
8 1 -6 -1.26 4.1
-8 -1 6 7.68 5.23
-8 -1 5 -0.98 3.75
8 1 -5 0.67 4.52
-8 -1 4 -2.59 3.95
-8 -1 4 4.33 3.87
8 1 -4 0 3.82
-8 -1 3 2.51 4.08
-8 -1 3 0.87 3.38
8 1 -3 2.34 4.53
-8 -1 2 5.98 5.14
8 1 -2 12 6.64
-8 -1 2 9.99 6.06
-8 -1 1 2.06 4.44
8 1 -1 3.61 4.81
-8 -1 1 1.28 3.9
-8 -1 0 -1.87 3.39
-8 -1 0 0.5 5.18
8 1 0 0.96 3.73
-8 -1 -1 1.86 3.65
-8 -1 -1 1.27 3.87
8 1 1 4.05 5.09
-8 -1 -2 2.99 4.11
-8 -1 -2 5.18 5.99
-8 -1 -3 4.66 4.6
-8 -1 -3 2.3 3.99
-8 -1 -4 5.87 4.79
9 -2 1 6.91 6.75
9 -2 0 -1.41 3.85
9 -2 -1 -5.46 5.57
9 -2 -2 -0.72 4.98
9 -2 -3 8.83 6.53
9 -2 -4 4.08 5.92
-8 2 -6 3.53 4.02
8 -2 5 21.57 8.45
-8 2 -5 3.47 3.73
-8 2 -4 1.52 3.28
8 -2 4 -5.51 5.48
-8 2 -3 5.34 5.18
-8 2 -3 2.2 3.49
8 -2 3 2.45 3.45
-8 2 -2 -1.05 3.95
-8 2 -2 0.1 3.55
8 -2 2 3.15 4.64
-8 2 -1 9.4 5.57
8 -2 1 26.47 8.5
-8 2 0 48.47 10.59
8 -2 0 68.2 12.63
8 -2 -1 9.33 5.74
-8 2 1 2.5 3.52
-8 2 2 -6.53 5.81
8 -2 -2 5.72 4.45
8 -2 -3 0.77 3.97
-8 2 3 -5.95 5.11
-8 2 4 -1.98 4.59
8 -2 -4 1.47 3.31
-8 2 5 -2.5 4.49
8 -2 -5 4.04 3.76
8 -2 -6 2.75 3.55
-8 2 6 -1.82 4.76
8 -2 -7 2.51 3.75
-8 2 7 7.4 5.13
8 -2 -7 2.28 3.02
-8 2 8 16.75 7.61
-8 2 8 15.62 6.62
8 -2 -8 7.83 5.48
8 -2 -8 10.15 4.28
8 -2 -9 -0.28 3.41
-8 2 9 1.03 3.32
8 -2 -9 0.4 3.08
-8 2 9 0.8 4.04
-8 2 10 1.72 4.12
-8 2 10 2.85 4.84
8 -2 -10 2.64 3.54
8 -2 -10 4.33 5.57
-8 2 11 6.68 4.21
-8 2 11 9.79 5.65
8 -2 -11 13.13 5.72
-8 2 12 -0.88 3.54
8 -2 -12 0.99 3.93
-8 2 13 -3.03 3.32
8 -2 -13 -0.27 3.93
7 -2 8 -18.47 7.64
-7 2 -7 7.24 4.9
7 -2 7 13.96 7.28
-7 2 -7 8.87 6.39
-7 2 -7 10.8 8.21
7 -2 7 -10.74 7.41
7 -2 6 14.52 7.22
-7 2 -6 8.29 6.96
-7 2 -6 5.1 3.89
-7 2 -6 2.7 4.88
7 -2 6 -7.4 6.75
-7 2 -5 1.88 3.14
7 -2 5 2.29 4.6
-7 2 -5 2.11 4.21
-7 2 -5 4.23 4.82
7 -2 4 -2.89 4.02
-7 2 -4 0.2 2.71
-7 2 -4 3.55 5.1
-7 2 -4 1.08 4.04
-7 2 -3 2.62 3.59
-7 2 -3 8.77 5.54
7 -2 3 8.65 5.15
-7 2 -3 6.19 4.76
-7 2 -2 13.43 6.35
-7 2 -2 9.04 6.87
7 -2 2 10.92 5.37
-7 2 -2 7.98 4.28
7 -2 1 2.5 3.83
-7 2 -1 -1.68 2.79
-7 2 -1 -1.11 3.47
-7 2 -1 5.29 5.58
-7 2 0 2.76 3.92
-7 2 0 2.93 4.64
-7 2 0 0.57 3.43
7 -2 0 3.81 3.98
7 -2 -1 3.86 4.41
-7 2 1 5.43 3.37
-7 2 2 2.7 2.8
7 -2 -2 7.59 5.15
7 -2 -3 26.7 7.67
-7 2 3 23.65 7.01
7 -2 -3 20.12 4.44
7 -2 -4 11.47 5.23
7 -2 -4 10 3.61
-7 2 4 4.87 3.88
-7 2 5 13.11 5.26
-7 2 5 17.38 7.13
7 -2 -5 9.13 4.34
7 -2 -5 14.25 4.26
-7 2 6 -1.92 4.53
7 -2 -6 -2.61 3.87
-7 2 6 -1.07 3.22
7 -2 -6 -0.81 2.42
-7 2 7 1.76 2.78
-7 2 7 -2.71 4.46
7 -2 -7 0.27 2.43
-7 2 8 -5.02 4.17
-7 2 8 -0.21 2.78
7 -2 -8 -0.68 2.2
-7 2 9 7.61 3.77
-7 2 9 9.28 5.66
7 -2 -9 6.25 3.83
7 -2 -10 47.64 9.09
-7 2 10 42.97 9.28
-7 2 10 44.38 10.65
-7 2 11 14.54 7.07
-7 2 11 14.97 5.84
7 -2 -11 15.24 5.55
-7 2 12 2.96 3.31
-7 2 12 8.51 5.56
7 -2 -12 3.99 3.82
-7 2 13 2.17 3.35
7 -2 -13 1.04 3.52
-7 2 13 5.9 5.88
7 -2 -14 -1.13 3.77
6 -2 11 3.24 4.99
6 -2 10 7.06 4.89
-6 2 -10 1.62 4.53
-6 2 -9 1.37 4.79
6 -2 9 1.07 4.4
-6 2 -8 1.68 3.97
-6 2 -8 5.37 3.92
6 -2 8 -5.64 6.11
6 -2 8 -9.27 6.42
-6 2 -7 4.89 5.06
-6 2 -7 3.94 3.5
6 -2 7 16.81 7.24
-6 2 -7 7.91 6.19
6 -2 7 4.24 3.1
6 -2 7 -2.69 5.33
6 -2 6 9.25 5.65
-6 2 -6 -1.11 4.39
-6 2 -6 6.16 5.09
-6 2 -6 -0.3 2.63
6 -2 6 2.1 2.67
6 -2 5 30.65 7.68
-6 2 -5 32.51 9.12
-6 2 -5 30.19 9.08
6 -2 5 21.07 5.48
-6 2 -5 25.87 6.63
-6 2 -4 20.26 6
6 -2 4 13.57 4.22
-6 2 -4 26.12 8
6 -2 4 22.61 6.84
-6 2 -4 21.7 7.66
6 -2 3 17.2 4.59
-6 2 -3 15.89 4.95
-6 2 -3 21.78 7.71
6 -2 3 22.41 6.37
-6 2 -3 15.31 6.1
6 -2 2 1.57 3.3
-6 2 -2 1.84 2.65
-6 2 -2 6 4.65
-6 2 -2 2.03 2.76
6 -2 2 0.57 1.5
-6 2 -1 125.62 14.63
6 -2 1 112.19 7.48
6 -2 1 144.74 14.47
-6 2 -1 133.08 14.27
-6 2 -1 130.63 16.75
6 -2 1 108.55 9.77
-6 2 0 92.9 11.95
-6 2 0 98.55 14.74
6 -2 0 78.98 8.11
6 -2 0 97.14 12.11
6 -2 0 78.64 6.91
-6 2 0 102.34 12.63
6 -2 -1 33.36 7.16
-6 2 1 32.84 8.24
-6 2 1 33.18 7.12
6 -2 -1 30 5.13
-6 2 1 34.1 6.83
6 -2 -1 31.35 4.58
6 -2 -2 9.37 2.91
6 -2 -2 14.49 3.9
6 -2 -2 11.45 4.34
-6 2 2 8.05 3.82
6 -2 -2 10.24 2.99
-6 2 2 9.71 3.9
-6 2 3 32.88 5.67
-6 2 3 28.49 6.58
6 -2 -3 32.79 5.11
6 -2 -3 28.73 5.08
6 -2 -3 31.95 5.22
6 -2 -3 40.79 7.77
-6 2 4 -2.05 2.07
6 -2 -4 -0.29 2.71
-6 2 4 -1.39 3.5
-6 2 4 -1.14 2.58
6 -2 -4 2.22 2.29
6 -2 -4 -0.96 1.51
6 -2 -5 34.45 4.23
-6 2 5 33.02 7.18
-6 2 5 37.55 8.37
6 -2 -5 37.89 6.18
-6 2 6 48.63 8.69
6 -2 -6 51.77 7.75
-6 2 6 46.98 9.43
-6 2 7 -0.13 2.48
-6 2 7 2.54 3.38
6 -2 -7 0.61 2.62
-6 2 8 33.21 8.03
-6 2 8 28.97 7.03
6 -2 -8 33.92 6.67
-6 2 9 17.51 6.67
-6 2 9 9.74 3.81
6 -2 -9 18.11 5.01
6 -2 -9 7.48 2.58
-6 2 10 4.71 3.75
-6 2 10 5.86 3.83
6 -2 -10 4.25 3.47
6 -2 -11 95.24 12.72
-6 2 11 99.5 14.5
-6 2 11 103.44 12.82
-6 2 12 2.19 2.9
-6 2 12 8.09 4.22
6 -2 -12 9.57 4.62
-6 2 13 23.34 6.55
6 -2 -13 14.65 5.8
-6 2 13 17.85 6.95
-6 2 14 4.02 4.11
6 -2 -14 3.74 3.4
-6 2 15 -1.34 5.18
6 -2 -15 2.05 3.17
5 -2 14 -2.95 3.45
5 -2 13 13.3 6.71
5 -2 13 1.31 3.17
5 -2 12 8.83 5.3
-5 2 -12 -0.38 3.52
-5 2 -12 -1.9 3.71
5 -2 12 3.43 4.58
5 -2 11 -0.96 3.29
5 -2 11 2.87 3.77
-5 2 -11 -3.43 5.77
-5 2 -11 -4.77 4.67
5 -2 10 2.83 4.31
-5 2 -10 -3.4 4.06
-5 2 -10 -4.12 4.56
5 -2 10 -0.13 2.83
-5 2 -9 1.91 3.16
-5 2 -9 5.02 4.05
5 -2 9 -7.34 6.08
5 -2 9 7.17 4.59
5 -2 9 4.63 3.21
5 -2 8 9.1 4.79
-5 2 -8 16.43 5.96
-5 2 -8 15.59 5.07
5 -2 8 16.65 5.47
5 -2 8 12.49 5.5
-5 2 -7 -2.93 3.08
-5 2 -7 6.57 5.89
-5 2 -7 2.84 3.2
5 -2 7 5.17 4.49
5 -2 7 -0.88 2.03
-5 2 -7 -2.75 3.05
5 -2 7 -3.74 4.42
-5 2 -6 0.41 3.16
-5 2 -6 1.42 2.59
5 -2 6 -1.01 1.83
-5 2 -6 1.29 3.45
-5 2 -6 -0.19 2.65
5 -2 6 -6.47 4.77
-5 2 -5 17.34 6.99
-5 2 -5 17.56 6.32
-5 2 -5 16.56 4.63
5 -2 5 16.01 4.57
5 -2 5 19.77 5.48
-5 2 -5 13.92 5.19
-5 2 -4 1.85 2.41
-5 2 -4 1.32 2.64
-5 2 -4 -0.74 3.56
5 -2 4 3.01 2.41
-5 2 -4 2.55 2.63
5 -2 4 2.9 3.04
5 -2 3 44.53 7.57
-5 2 -3 36.56 7.25
-5 2 -3 35.49 6.75
-5 2 -3 30.89 7.9
-5 2 -3 39.34 8.31
5 -2 3 34.54 5.76
-5 2 -2 236.45 19.14
-5 2 -2 248.81 21.15
5 -2 2 255.98 17.27
-5 2 -2 246.72 17.53
5 -2 2 222.99 13.84
5 -2 2 208.21 9.69
-5 2 -1 114.9 12.33
5 -2 1 107.82 9.42
-5 2 -1 115.59 11.93
5 -2 1 102.97 7.22
5 -2 1 116.69 11.5
-5 2 -1 119.05 14.55
-5 2 0 44.31 7.25
5 -2 0 42.79 7.33
-5 2 0 40.04 6.96
5 -2 0 39.43 5.72
5 -2 0 37.33 4.74
-5 2 0 41.34 8.52
-5 2 1 33.69 5.93
5 -2 -1 30.06 5.01
-5 2 1 35.66 7.72
5 -2 -1 30.61 5.86
-5 2 1 34.35 6.67
5 -2 -1 39.11 6.97
5 -2 -1 34.12 4.71
5 -2 -2 0.02 1.16
5 -2 -2 -0.18 2.47
5 -2 -2 1.5 1.83
-5 2 2 -0.78 2.98
5 -2 -2 2.36 1.67
-5 2 2 0.06 1.38
-5 2 2 -0.93 2.24
5 -2 -3 48.13 5.84
-5 2 3 51.19 8.56
-5 2 3 42.28 7.48
-5 2 3 43.84 5.56
5 -2 -3 45.22 5.04
5 -2 -3 47.5 6.01
-5 2 4 178.62 14.98
5 -2 -4 177.2 10.61
5 -2 -4 175.35 8.57
5 -2 -4 162.87 10.38
-5 2 4 157.76 9.33
-5 2 4 187.4 16.09
5 -2 -4 186.34 12.52
5 -2 -5 168.93 9.9
5 -2 -5 171.8 9.54
5 -2 -5 184.14 7.23
-5 2 5 155.39 7.67
-5 2 5 192.19 15.66
-5 2 5 203.84 16.87
5 -2 -5 195.23 13.34
5 -2 -6 139.38 8.09
-5 2 6 165.63 14.59
5 -2 -6 133.51 7.07
5 -2 -6 161.05 12.64
-5 2 6 177.93 16.1
5 -2 -7 2.38 0.98
-5 2 7 4.4 2.76
-5 2 7 3.28 2.11
-5 2 7 2.31 0.71
5 -2 -7 5.15 3.01
5 -2 -7 4.34 1.79
-5 2 8 20.42 5.81
-5 2 8 18.63 4.97
5 -2 -8 22.35 5.33
5 -2 -8 15.42 1.99
5 -2 -8 24.65 4.43
5 -2 -9 0.74 1.57
-5 2 9 -1.27 2.34
5 -2 -9 -3.64 3.39
-5 2 9 -1.54 2.97
-5 2 10 101.99 11.52
-5 2 10 96.68 12.88
5 -2 -10 112.46 12.63
5 -2 -10 101.34 7.71
-5 2 11 129.34 12.96
-5 2 11 116.7 14.59
5 -2 -11 141.4 14.65
-5 2 12 26.37 6.32
5 -2 -12 23.96 6.65
-5 2 12 22.45 6.68
-5 2 13 -1.81 3.5
5 -2 -13 -1.86 3.5
-5 2 14 11.79 5.82
5 -2 -14 12.1 5.3
-5 2 15 4.16 4.07
5 -2 -15 -0.75 3.03
-5 2 16 -1.34 3.6
5 -2 -16 0.2 3.61
4 -2 15 5.29 5.25
-4 2 -14 3.2 4.38
4 -2 14 6.42 5.16
-4 2 -14 10.73 6.94
4 -2 13 11.86 5.99
-4 2 -13 -0.04 3.93
4 -2 13 2.69 4.46
-4 2 -13 2.05 3.53
4 -2 12 5.2 4.08
-4 2 -12 3.31 3.5
-4 2 -12 2.96 4.13
4 -2 12 4.67 4.69
4 -2 11 18.54 5.85
4 -2 11 16.95 6.48
-4 2 -11 14.85 6.39
-4 2 -11 18.44 7.31
4 -2 10 80.4 12.4
-4 2 -10 91.8 14.03
-4 2 -10 74.08 12.42
4 -2 10 95.48 12.38
4 -2 10 83.43 10.59
4 -2 9 53.59 9.18
-4 2 -9 47.87 9.91
-4 2 -9 51.37 10.19
4 -2 9 30.93 6.75
4 -2 9 45.69 8.95
-4 2 -8 8.99 4.73
4 -2 8 7.05 3.32
-4 2 -8 11.49 5.03
4 -2 8 -1.58 4.53
4 -2 8 9.33 4.31
4 -2 7 31.61 6.86
4 -2 7 39.92 7.56
-4 2 -7 38.61 8.1
-4 2 -7 39.3 8.2
4 -2 7 37.04 7.25
-4 2 -6 37.18 6.17
4 -2 6 31.45 6.39
-4 2 -6 38.01 7.77
4 -2 6 36.31 6.95
-4 2 -6 36.98 7.82
4 -2 6 41.36 7.41
4 -2 6 29.96 4.05
4 -2 5 8.14 3.04
-4 2 -5 11.63 3.7
-4 2 -5 8.38 3.43
-4 2 -5 14.27 5.96
4 -2 5 6.97 3.06
-4 2 -5 10.59 4.43
-4 2 -5 5.78 3.21
4 -2 5 9.88 2.3
4 -2 5 7.54 3
-4 2 -4 61.82 8.88
4 -2 4 56.1 7.35
-4 2 -4 59.06 9.46
-4 2 -4 61.32 10.09
-4 2 -4 58.36 8.29
4 -2 4 64.54 7.77
-4 2 -4 58.61 7.64
-4 2 -3 163.56 15.07
-4 2 -3 177.3 16.3
-4 2 -3 173.31 13.52
-4 2 -3 169.8 13.83
4 -2 3 178.28 12.55
-4 2 -3 174.76 13.03
4 -2 3 166.37 12.11
-4 2 -2 111.36 11.57
-4 2 -2 116.03 12.87
4 -2 2 103.95 9.4
-4 2 -2 103.46 10.51
-4 2 -2 108.47 10.7
-4 2 -2 105.08 10.12
4 -2 2 112.42 9.98
-4 2 -1 171.03 13.47
-4 2 -1 172.37 12.97
4 -2 1 173.76 12.57
-4 2 -1 167.56 13.48
-4 2 -1 166.61 12.32
-4 2 -1 185.04 15.94
4 -2 1 164.02 11.46
4 -2 1 155.56 13.34
-4 2 0 2.99 2.36
4 -2 0 3.2 1.82
-4 2 0 4.18 2.33
4 -2 0 2.35 2.04
4 -2 0 3.26 2.21
-4 2 0 3.3 1.93
-4 2 0 4.83 2.31
-4 2 0 4.14 2.31
-4 2 1 6.1 2.75
-4 2 1 4.39 3.13
4 -2 -1 5.18 2
-4 2 1 2.93 1.85
4 -2 -1 5.64 2.43
4 -2 -1 3.29 1.63
-4 2 1 6.65 2.98
4 -2 -1 4.5 2
4 -2 -1 4.78 2.05
-4 2 1 4.73 1.82
-4 2 2 11.12 3.45
4 -2 -2 9.28 2.35
-4 2 2 8.89 3.46
-4 2 2 9.98 2.43
-4 2 2 7.2 2.79
4 -2 -2 10.17 2.53
-4 2 2 9.06 3.21
4 -2 -2 11.51 2.66
4 -2 -2 10.84 2.54
4 -2 -2 9.05 2.7
-4 2 3 67.29 4.75
4 -2 -3 72.47 5.25
-4 2 3 74.56 8.96
4 -2 -3 68.78 5.85
-4 2 3 68.07 8.41
4 -2 -3 73.29 6.76
-4 2 3 72.85 8.91
4 -2 -3 73.58 7.1
-4 2 4 63.19 8.3
4 -2 -4 65.36 5.02
4 -2 -4 56.16 5.89
4 -2 -4 62.91 4.31
-4 2 4 65.68 8.05
-4 2 4 68.6 8.69
4 -2 -4 61.72 6.97
-4 2 5 10.75 3.89
-4 2 5 11.75 3.67
4 -2 -5 10.51 1.91
-4 2 5 13 4.24
4 -2 -5 11.47 2.83
4 -2 -5 14.9 3.74
4 -2 -5 9.55 2.69
-4 2 6 405.82 19.93
-4 2 6 427.97 21.32
4 -2 -6 361.9 13.17
-4 2 6 428.84 22.33
4 -2 -6 418.36 19.62
4 -2 -6 421.94 16.4
-4 2 7 276.83 17.15
-4 2 7 266.57 16.15
-4 2 7 218.34 10.47
4 -2 -7 266.3 16.49
-4 2 7 265.77 18.06
4 -2 -7 285.35 12.7
-4 2 8 24.43 4.41
-4 2 8 42.64 7.58
-4 2 8 37.35 6.43
4 -2 -8 28.15 5.88
4 -2 -8 38.75 4.48
-4 2 8 27.88 3.57
4 -2 -9 11 2.21
-4 2 9 6.69 2.32
-4 2 9 13.99 4.51
-4 2 9 10.16 3.75
4 -2 -9 14.42 4.27
-4 2 10 94.72 9.88
4 -2 -10 90.92 11
-4 2 10 89.07 11.51
4 -2 -10 91.41 4.9
-4 2 11 141.77 14.86
4 -2 -11 158.41 15
-4 2 12 24.21 6.91
4 -2 -12 19.24 5.61
4 -2 -13 81.86 11.67
-4 2 13 82.21 12.47
-4 2 14 148.08 16.93
4 -2 -14 169.52 17.41
-4 2 15 21.68 7.14
4 -2 -15 18.8 6.17
-4 2 16 -0.21 2.9
4 -2 -16 -0.15 3.35
-4 2 17 0.47 4.09
4 -2 -17 4.84 4.66
3 -2 16 0.26 3.63
-3 2 -15 2.27 3.52
3 -2 15 -0.12 3.66
-3 2 -15 4.64 5.04
3 -2 14 6.13 5.13
-3 2 -14 10.82 5.58
-3 2 -14 9.69 7.38
3 -2 13 6.57 3.72
-3 2 -13 5.12 5.43
-3 2 -13 -5.83 5.6
3 -2 13 -0.47 3.44
3 -2 13 -1.2 1.65
3 -2 12 2.47 3.47
-3 2 -12 4.97 4.95
3 -2 12 -2.37 4.33
-3 2 -12 -4.18 4.63
3 -2 12 2.4 2.38
3 -2 11 15.5 5.2
3 -2 11 13.88 4.53
3 -2 11 8.87 4.9
-3 2 -11 11.99 5.09
-3 2 -11 13.58 5.71
3 -2 11 12.83 4.09
3 -2 10 1.43 3.1
-3 2 -10 0.96 3.34
3 -2 10 7.09 3.63
-3 2 -10 4.94 4.55
3 -2 10 -1.77 2.76
3 -2 9 28.59 5.4
-3 2 -9 24.65 6.35
3 -2 9 32.2 7.29
3 -2 9 33.21 6.68
-3 2 -9 33.63 8.23
3 -2 8 139.42 12.76
-3 2 -8 112.85 12.95
3 -2 8 120.77 13.13
-3 2 -8 111.11 9.66
-3 2 -8 117.11 13.87
3 -2 8 112.66 10.34
-3 2 -7 184.4 12.37
-3 2 -7 198.22 17.16
-3 2 -7 185 16.06
3 -2 7 191.63 15.64
3 -2 7 159.03 12.57
3 -2 7 201.09 14.94
-3 2 -6 144.1 10.99
3 -2 6 151.56 13.23
-3 2 -6 145.81 12.99
-3 2 -6 126.34 8.99
-3 2 -6 152.33 13.36
3 -2 6 138.02 8.93
3 -2 6 140.14 11.42
-3 2 -6 162.96 15.11
3 -2 6 164.56 12.94
-3 2 -5 1.59 2.03
3 -2 5 0.86 1.61
-3 2 -5 1.31 1.14
-3 2 -5 2.61 2.03
3 -2 5 7.19 3.27
-3 2 -5 0.42 1.65
-3 2 -5 1.75 2.62
3 -2 5 1.32 1.25
3 -2 5 -0.27 2.35
-3 2 -4 -1.59 1.99
3 -2 4 -1.95 2.38
3 -2 4 -1.38 1.46
-3 2 -4 1.87 2.21
-3 2 -4 -0.61 1.62
-3 2 -4 0.26 2.42
-3 2 -4 2.22 2.16
3 -2 4 0.96 1.96
3 -2 4 -0.49 1.23
3 -2 3 30.05 5.08
-3 2 -3 31.4 5.26
-3 2 -3 31.1 5.87
-3 2 -3 30.07 5.05
-3 2 -3 26.54 4.86
3 -2 3 29.65 5.09
-3 2 -3 30.98 5.22
3 -2 3 28.46 4.29
3 -2 3 30.42 4.39
3 -2 2 648.28 26.12
-3 2 -2 719.3 24.01
-3 2 -2 721.1 27.68
-3 2 -2 704.2 23.43
-3 2 -2 727.9 22.88
3 -2 2 710.55 23.19
-3 2 -2 716.09 23.04
3 -2 2 702.66 20.38
3 -2 2 683.92 20.93
3 -2 2 760.19 24.8
-3 2 -1 1046.02 32.64
-3 2 -1 1050.86 26.75
3 -2 1 1024.88 24.89
-3 2 -1 1048.23 29.02
-3 2 -1 1054.82 27.8
3 -2 1 1044.88 27.47
-3 2 -1 1057.11 26.21
3 -2 1 1055.21 25.49
3 -2 1 1005.93 24.78
3 -2 1 1014.85 25.27
3 -2 1 1044.98 28.38
3 -2 1 962.9 28.59
-3 2 0 936.9 26.06
3 -2 0 902.89 23.84
-3 2 0 948.65 27.34
3 -2 0 935.86 22.16
-3 2 0 918.33 23.35
3 -2 0 929.8 26.48
-3 2 0 926.76 22.76
3 -2 0 913.56 21.64
-3 2 0 933.19 25.84
-3 2 0 939.07 30
3 -2 0 929.66 25.88
3 -2 0 856.25 24.04
-3 2 1 69.23 5.9
-3 2 1 75.34 8.26
-3 2 1 76.34 7.78
-3 2 1 74.27 5.92
-3 2 1 75.42 7.64
3 -2 -1 70.43 5.47
3 -2 -1 65.76 5.67
3 -2 -1 74.78 5.67
3 -2 -1 71.54 6.13
3 -2 -1 63.72 6.61
-3 2 1 74.08 7.3
3 -2 -1 71.39 6.96
3 -2 -2 9.82 1.6
-3 2 2 10.04 3.04
-3 2 2 10.02 2.96
3 -2 -2 9.15 2.53
-3 2 2 10 2.66
-3 2 2 13.21 3.46
3 -2 -2 8.81 1.67
-3 2 2 8.8 2.46
3 -2 -2 14.21 3.26
-3 2 2 10.22 1.94
3 -2 -2 10.89 2.1
3 -2 -2 10.01 2.43
3 -2 -2 8.09 2.48
3 -2 -3 49.65 4.07
-3 2 3 44.85 6.12
-3 2 3 43.8 5.45
3 -2 -3 40.76 5.14
3 -2 -3 44.76 3.3
-3 2 3 48.15 6.11
-3 2 3 49.06 6.32
-3 2 3 47.44 3.76
3 -2 -3 49.54 5.68
3 -2 -3 48.52 5.34
3 -2 -3 42.4 5.78
-3 2 4 197.99 12.67
-3 2 4 183.36 9.52
3 -2 -4 179.71 10.6
-3 2 4 207.04 12.96
-3 2 4 189.17 10.55
3 -2 -4 193.23 4.85
-3 2 4 175.68 6.02
3 -2 -4 194.5 11.68
-3 2 4 193.86 12.24
3 -2 -4 196.7 10.13
3 -2 -5 213 10.89
-3 2 5 218.05 11.13
-3 2 5 225.84 13.43
-3 2 5 237.21 13.32
-3 2 5 197.32 11.22
-3 2 5 224.63 14.09
3 -2 -5 217.3 12.94
3 -2 -5 240.14 10.52
3 -2 -6 1269.66 22.35
-3 2 6 1319.21 32.49
3 -2 -6 1207.87 26.8
-3 2 6 1258.85 26.36
-3 2 6 1344.63 31.65
-3 2 6 1312.66 34.83
-3 2 6 1290.3 31.79
3 -2 -6 1328.44 33.53
3 -2 -6 1359.17 22.81
-3 2 6 1194.88 18.51
-3 2 7 324.97 18
-3 2 7 314.84 15.9
3 -2 -7 308.57 11.38
-3 2 7 283.49 12.19
-3 2 7 326.58 16.56
3 -2 -7 319.23 10
3 -2 -7 312.13 17.01
-3 2 7 286.04 12.02
-3 2 8 22.32 2.06
-3 2 8 15.02 1.58
-3 2 8 23.66 3.58
-3 2 8 33.47 6.07
-3 2 8 26.43 4.96
-3 2 8 26.3 4.84
3 -2 -8 24.37 5.24
-3 2 8 24.87 4.23
-3 2 9 88.65 6.78
-3 2 9 84.78 4.33
-3 2 9 107.82 11.21
-3 2 9 104.45 9.33
3 -2 -9 111.41 11.35
-3 2 9 99.06 9.44
-3 2 10 -3.65 3.63
-3 2 10 2.66 1.46
-3 2 10 2.91 1.99
3 -2 -10 1.76 2.32
-3 2 11 18.27 2.99
3 -2 -11 17.86 2.78
3 -2 -11 19.48 5.09
-3 2 11 21.79 5.32
3 -2 -12 86.32 6.79
-3 2 12 84.73 6.28
-3 2 12 107.79 12.52
3 -2 -12 121.41 12.92
-3 2 13 31.26 6.73
3 -2 -13 36.19 7.57
-3 2 14 -0.84 4.71
3 -2 -14 10.32 5.17
-3 2 15 10.83 4.52
3 -2 -15 26.88 7.48
3 -2 -16 46.07 9.5
-3 2 16 27.81 7.3
-3 2 17 -6.08 4.84
3 -2 -17 -3 3.02
-3 2 18 6.39 4.32
-2 2 -16 13.1 6
-2 2 -16 5.92 4.7
-2 2 -15 33.91 9.12
-2 2 -15 9.41 5.01
2 -2 15 41.76 10.98
-2 2 -14 42.42 9.73
2 -2 14 51.39 11.4
-2 2 -14 31.3 7.69
2 -2 13 15.09 4.5
-2 2 -13 12.97 5.37
2 -2 13 16.36 6.38
-2 2 -13 3.01 4.45
2 -2 13 12.14 3.17
2 -2 12 24.7 5.55
-2 2 -12 19.6 6.57
2 -2 12 17.24 6.45
-2 2 -12 10.55 4.23
2 -2 12 17.02 3.61
2 -2 11 2.42 2.14
-2 2 -11 -0.57 2.65
2 -2 11 2.66 2.56
2 -2 11 2.55 1.63
-2 2 -11 -1.32 4.08
-2 2 -10 89.68 7.16
-2 2 -10 91.56 11.91
2 -2 10 103.8 13.12
2 -2 10 97.82 7.49
-2 2 -10 85.31 11.23
2 -2 10 101.66 10.02
-2 2 -9 144.5 9.27
2 -2 9 159.86 15.49
2 -2 9 123.58 8.6
-2 2 -9 158.16 14.72
-2 2 -9 136.46 13.52
-2 2 -9 154.82 14.27
-2 2 -9 124.89 8.81
2 -2 9 159.76 9.23
2 -2 9 160.88 12.45
-2 2 -8 66.21 9.36
-2 2 -8 70.48 9.45
2 -2 8 85.3 7.11
2 -2 8 59.34 6.08
2 -2 8 74.19 10.1
-2 2 -8 74.14 9.29
-2 2 -8 69.72 6.6
-2 2 -8 60.23 5.74
2 -2 8 80.34 8.67
-2 2 -7 257.06 16.85
-2 2 -7 248.13 12.29
2 -2 7 279.13 12.42
2 -2 7 260.66 17.52
-2 2 -7 254.11 16.56
-2 2 -7 213.62 9.84
-2 2 -7 220.24 16.24
2 -2 7 227.53 11.85
2 -2 7 270.73 15.17
-2 2 -6 61.49 8.15
-2 2 -6 66.07 6.27
2 -2 6 55.97 5.47
2 -2 6 64.31 8.19
-2 2 -6 54.02 4.68
-2 2 -6 63.17 7.94
2 -2 6 54.3 5.74
2 -2 6 69.33 7.72
-2 2 -6 60.45 7.86
2 -2 5 316.37 17.11
-2 2 -5 299.49 13.19
-2 2 -5 307.79 16.62
2 -2 5 283.73 13.08
-2 2 -5 300.91 17.21
-2 2 -5 281.39 10.01
-2 2 -5 322.6 16.72
2 -2 5 309.17 12.89
2 -2 5 292.66 12.62
2 -2 5 340.87 16.16
-2 2 -4 85.71 8.81
-2 2 -4 89.83 8.42
-2 2 -4 90.12 8.42
-2 2 -4 80.77 6.84
2 -2 4 75.69 6.73
2 -2 4 84.36 8.39
2 -2 4 86.47 5.93
2 -2 4 98.42 8.46
2 -2 3 91.79 9.42
-2 2 -3 96.32 8.24
-2 2 -3 103.84 8.29
-2 2 -3 100.85 7.49
2 -2 3 92.74 7.35
2 -2 3 102.86 7.42
2 -2 3 98.91 8.67
-2 2 -3 101.97 8.26
-2 2 -3 105.45 9.47
2 -2 3 98.25 5.79
2 -2 3 96.75 6.08
2 -2 3 107.42 8.65
2 -2 2 111.68 9.49
2 -2 2 128.03 7.68
2 -2 2 125.28 8.04
-2 2 -2 123.59 8.39
2 -2 2 118.68 8.27
-2 2 -2 123.38 8.19
2 -2 2 124.59 9.36
2 -2 2 121.09 6.58
-2 2 -2 128.64 9.78
-2 2 -2 119.72 8.16
2 -2 2 132.12 8.53
2 -2 2 128.35 8.36
2 -2 2 119 6.68
2 -2 2 125.96 8.4
-2 2 -2 130.4 8.74
2 -2 2 130.3 9.14
2 -2 1 55.59 5.88
2 -2 1 61.12 5.36
2 -2 1 60.65 5.36
2 -2 1 60.8 5.47
-2 2 -1 61.46 5.74
-2 2 -1 60.06 5.48
-2 2 -1 58.08 5.55
2 -2 1 64.85 5.34
2 -2 1 60.07 6.46
-2 2 -1 60.87 5.35
-2 2 -1 59.71 6.53
2 -2 1 55.96 4.6
-2 2 -1 61.05 5.09
2 -2 1 57.58 5.72
2 -2 1 61.99 5.77
2 -2 1 68.37 6.36
2 -2 0 155.89 8.32
-2 2 0 165.02 8.63
-2 2 0 164.46 8.19
-2 2 0 161.74 9.28
2 -2 0 175.51 9.01
2 -2 0 165.83 7.65
-2 2 0 168.07 7.93
2 -2 0 166.38 8.44
-2 2 0 166.76 9.3
2 -2 0 171.21 9.29
-2 2 0 170.54 10.48
2 -2 0 155.81 7.73
2 -2 0 164.55 8.33
2 -2 0 165.12 9.11
2 -2 0 153.56 9.27
2 -2 0 165.71 9.46
-2 2 1 673.91 15.14
-2 2 1 696.57 17.78
-2 2 1 696.95 14.1
2 -2 -1 723.98 16.64
2 -2 -1 678.35 19.33
-2 2 1 692.5 19.36
-2 2 1 716.3 18.34
2 -2 -1 739.73 18.38
2 -2 -1 726.51 19.86
2 -2 -1 677.17 16.62
2 -2 -1 681.05 16.08
-2 2 1 698.45 18.31
2 -2 -1 717.09 13.42
2 -2 -1 693.35 18.3
-2 2 1 727.68 20.78
-2 2 1 684.29 18.33
2 -2 -1 738.65 18.76
2 -2 -2 930.84 20.52
-2 2 2 853.45 15.76
-2 2 2 833.35 12.76
-2 2 2 863.5 21.09
2 -2 -2 897.46 19.67
2 -2 -2 837.71 24.09
-2 2 2 880.7 21.79
-2 2 2 881.26 21.75
2 -2 -2 868.08 21.81
2 -2 -2 862.44 12.04
2 -2 -2 884.43 19.28
2 -2 -2 897.19 17.64
-2 2 2 848.35 18.79
2 -2 -2 850.81 20.04
-2 2 2 850.96 19.7
2 -2 -2 907.76 19.58
2 -2 -3 118.15 7.64
-2 2 3 118.26 8.91
2 -2 -3 135.89 6.78
2 -2 -3 137.98 7.92
-2 2 3 127.26 8.28
2 -2 -3 130.72 7.71
2 -2 -3 127.38 8.51
-2 2 3 125.27 6.97
-2 2 3 133.84 8.63
-2 2 3 123.19 5.95
2 -2 -3 127.88 8.57
2 -2 -3 124.93 9.26
-2 2 3 126.79 7.22
2 -2 -3 120.43 7.01
2 -2 -4 70.55 5.79
2 -2 -4 61.47 6.34
2 -2 -4 61.46 6.03
2 -2 -4 57.79 4.56
-2 2 4 60.01 3.59
-2 2 4 65.31 4.97
-2 2 4 66.9 7.14
2 -2 -4 63.74 6.36
-2 2 4 69.41 6.34
-2 2 4 62.81 4.86
-2 2 4 63.86 5.9
2 -2 -4 66.4 4.87
2 -2 -5 250.25 12.1
-2 2 5 235.5 9.28
2 -2 -5 252.93 13.34
-2 2 5 270.99 14.18
-2 2 5 266.31 13.28
2 -2 -5 242.52 12.65
-2 2 5 250.62 11.82
-2 2 5 245.92 10.19
-2 2 6 466.89 13.09
-2 2 6 475.97 16.42
-2 2 6 472.19 17.13
-2 2 6 482.71 19.15
2 -2 -6 470.64 16.56
-2 2 6 513.5 19.63
2 -2 -6 456.88 18.1
2 -2 -6 503.62 19.88
-2 2 7 637.41 23.34
2 -2 -7 611.73 22.94
-2 2 7 591.46 10.49
-2 2 7 595.43 18.68
2 -2 -7 571.17 18.41
-2 2 7 589.59 21.54
-2 2 7 558.03 14.39
-2 2 8 484.63 11.43
2 -2 -8 464.86 16.62
-2 2 8 478.18 16.69
-2 2 8 505.07 21.58
2 -2 -8 499.75 21.56
-2 2 8 461.27 13.3
-2 2 8 484.91 21.76
-2 2 9 590.98 14.98
-2 2 9 646.03 15.17
-2 2 9 605.66 18.47
2 -2 -9 681.61 26.09
-2 2 9 651.07 25.86
-2 2 9 634.79 19.15
2 -2 -9 600.78 18.86
-2 2 10 5.12 2.95
-2 2 10 7.11 1.97
-2 2 10 4.09 1.4
-2 2 10 3.5 1.76
-2 2 10 4.89 1.86
2 -2 -10 2.98 1.46
2 -2 -10 6.69 3.26
-2 2 11 58.33 4.8
2 -2 -11 60.12 6.55
-2 2 11 71.02 9.48
2 -2 -11 70.81 9.49
-2 2 12 -1.29 3.37
2 -2 -12 0.65 1.41
-2 2 12 0.07 1.29
2 -2 -12 -1.84 3.04
-2 2 13 24.38 6.2
2 -2 -13 29.14 6.89
2 -2 -14 219.72 18.16
-2 2 14 194.46 17.9
-2 2 15 124.61 15.01
2 -2 -15 147.85 15.59
-2 2 16 20.79 6.86
2 -2 -16 19.21 6.63
-2 2 17 1.29 3.34
2 -2 -17 4.29 4.59
-2 2 18 -4.44 5.68
2 -2 -18 7.79 5.26
2 -2 -18 -0.96 3.16
-1 2 -18 6.26 4.77
-1 2 -17 0.69 3.98
1 -2 17 1.16 4.22
-1 2 -17 -5.64 5.27
1 -2 16 5.36 4.81
-1 2 -16 4.62 4.48
-1 2 -16 -4.63 4.43
1 -2 15 7.95 5.49
-1 2 -15 1.7 2.81
-1 2 -15 1.82 3.59
1 -2 14 22.64 7.78
-1 2 -14 16.23 6.42
-1 2 -14 14.96 6.03
1 -2 14 18.52 4.49
1 -2 13 20.51 4.91
-1 2 -13 13.74 5.33
1 -2 13 20.47 4.43
1 -2 13 17.6 6.7
-1 2 -13 17.05 5.78
-1 2 -12 109.94 13.43
1 -2 12 133.79 9.88
1 -2 12 139.85 16.27
-1 2 -12 130.13 14.04
-1 2 -12 132.13 14.42
1 -2 12 125.68 11.11
1 -2 11 165.78 16.84
-1 2 -11 146.88 14.67
1 -2 11 149.02 9.61
-1 2 -11 153.57 14.44
-1 2 -11 135.24 6.87
1 -2 11 154.45 11.61
-1 2 -11 118.48 13.28
1 -2 10 14.86 3.73
-1 2 -10 19.34 4.31
-1 2 -10 13.5 4.19
-1 2 -10 15.55 2.46
-1 2 -10 17.78 5.29
1 -2 10 13.04 2.33
1 -2 10 13.12 5.23
-1 2 -10 15.17 4.52
1 -2 10 15.43 2.74
1 -2 10 13.94 2.68
1 -2 9 28.57 3.41
-1 2 -9 23.92 5.66
-1 2 -9 35.35 3.79
1 -2 9 40.16 4.29
1 -2 9 32.13 3.59
-1 2 -9 40.54 7.17
-1 2 -9 37.16 6.6
-1 2 -9 41.22 5.36
1 -2 9 37.66 7.19
1 -2 9 41.29 5.74
-1 2 -8 43.65 6.7
1 -2 8 54.11 4.85
-1 2 -8 34.5 6.38
1 -2 8 40.74 4.14
-1 2 -8 47.96 4.41
1 -2 8 53.31 8.04
-1 2 -8 53.21 5.28
1 -2 8 50.48 6.04
-1 2 -8 46.03 7.06
1 -2 8 46.28 4
1 -2 7 683.59 16.95
-1 2 -7 683.02 24.9
1 -2 7 686.46 21.06
1 -2 7 686.81 27.43
1 -2 7 641.06 13.43
-1 2 -7 654.74 24.39
-1 2 -7 649.14 15.41
-1 2 -7 644.12 15.97
-1 2 -6 874.01 26.73
1 -2 6 930.6 19.28
1 -2 6 908.23 23.52
1 -2 6 916.17 29.58
-1 2 -6 934.8 27.32
1 -2 6 876.76 13.54
-1 2 -6 846.76 14.64
-1 2 -6 875.96 18.38
1 -2 5 405.04 7.86
1 -2 5 392.65 18.31
1 -2 5 404.68 12.26
-1 2 -5 382.02 11.87
1 -2 5 388.35 15.08
-1 2 -5 390.28 16.62
-1 2 -5 343.87 7.35
-1 2 -5 323.7 15.85
1 -2 5 385.31 14.79
-1 2 -5 395.04 16.77
-1 2 -5 385.38 15.36
-1 2 -4 158.89 9.75
1 -2 4 156.41 7.41
-1 2 -4 154.63 8.19
1 -2 4 158.11 9.59
1 -2 4 160.21 10.94
-1 2 -4 168.91 10.9
1 -2 4 161.8 9.98
-1 2 -4 161.02 10.01
-1 2 -4 134.32 9.67
-1 2 -4 156.55 9.35
1 -2 4 157.09 9.14
-1 2 -3 59.63 6.15
-1 2 -3 61.97 5.76
1 -2 3 59.49 6.54
-1 2 -3 56.15 4.81
1 -2 3 59.28 5.54
1 -2 3 56.4 5.55
1 -2 3 54.94 4.17
-1 2 -3 55.41 5.55
1 -2 3 57.56 5.67
-1 2 -3 58.28 5.47
-1 2 -3 48.58 5.43
-1 2 -2 3.8 1.61
-1 2 -2 3.82 1.68
1 -2 2 3.03 1.48
-1 2 -2 2.8 1.35
1 -2 2 3.62 1.77
-1 2 -2 3.5 1.45
1 -2 2 5.98 1.94
1 -2 2 3.92 1.96
1 -2 2 2.98 0.98
-1 2 -2 2.35 1.34
1 -2 2 3.21 1.45
-1 2 -2 2.26 1.23
1 -2 2 3.6 1.47
1 -2 1 1035.32 25.8
1 -2 1 1077.7 17.63
1 -2 1 979.64 16.64
1 -2 1 985.31 10.86
-1 2 -1 990.64 17.92
-1 2 -1 977.11 18.46
1 -2 1 972.79 18.78
-1 2 -1 987.2 19.88
1 -2 1 1002.57 22.23
-1 2 -1 984.28 20.61
1 -2 1 988.16 21.04
-1 2 -1 982.7 13.24
-1 2 -1 974.66 20.62
1 -2 1 980.77 20.53
-1 2 0 1518.92 21.14
-1 2 0 1483.45 24.62
1 -2 0 1514.9 29.2
1 -2 0 1444.66 18.38
1 -2 0 1514.07 16.12
-1 2 0 1526.52 22.77
-1 2 0 1557.39 28.55
-1 2 0 1495.42 25.57
1 -2 0 1499.71 27.48
-1 2 0 1495.37 18.51
1 -2 0 1535.03 20.68
-1 2 0 1511.11 21.61
1 -2 0 1446.71 24.42
1 -2 -1 1357.45 16.99
-1 2 1 1443.02 21.42
-1 2 1 1437.91 27.39
-1 2 1 1441.29 19.62
-1 2 1 1386.36 23.34
1 -2 -1 1406.79 17.63
-1 2 1 1426.71 20.18
-1 2 1 1392.28 29.94
1 -2 -1 1364.07 30.97
-1 2 1 1436.23 19.86
1 -2 -1 1457.62 20.97
1 -2 -1 1415.83 23.59
-1 2 2 695.59 15.38
1 -2 -2 696.47 13.8
-1 2 2 713.59 16.1
-1 2 2 694.7 22.44
1 -2 -2 671.1 21.67
-1 2 2 697.24 21.68
1 -2 -2 666.57 11.83
-1 2 2 709.62 16.2
1 -2 -2 671.07 16.87
1 -2 -3 222.99 10.56
-1 2 3 239.58 10.13
-1 2 3 213.07 8.96
1 -2 -3 216.06 8.66
1 -2 -3 214.52 11.99
-1 2 3 239.93 12.9
-1 2 3 219.38 8.96
-1 2 3 218.56 9.92
1 -2 -3 216.34 10.47
1 -2 -4 98.8 7.79
-1 2 4 95.54 7.52
-1 2 4 99.61 6.06
-1 2 4 88.12 6.13
1 -2 -4 102.7 6.48
-1 2 4 98.65 7.04
-1 2 4 102.29 8.48
1 -2 -4 92.42 8.17
1 -2 -4 90.62 7.3
-1 2 4 79.08 4.88
-1 2 4 95.44 5.87
1 -2 -4 92.55 7.67
1 -2 -5 89.41 8.18
-1 2 5 86.97 5.62
1 -2 -5 86.54 8.18
-1 2 5 62.25 5.54
-1 2 5 91.29 7.38
-1 2 5 90.52 8.45
-1 2 5 82.76 5.26
1 -2 -5 89.8 7.7
-1 2 5 86.45 5.49
-1 2 5 85.05 8.17
-1 2 6 657.16 15.55
1 -2 -6 682.31 21.9
-1 2 6 715.31 22.12
1 -2 -6 683.54 24.06
-1 2 6 613.43 14.08
-1 2 6 682.56 25.16
-1 2 6 619.1 15.08
1 -2 -7 645.24 25.22
-1 2 7 634.61 16.59
-1 2 7 640.65 26.56
1 -2 -7 592.32 15.63
-1 2 7 594.61 15.03
1 -2 -7 629.19 22.04
-1 2 7 665.65 22.53
1 -2 -8 43.74 7.07
1 -2 -8 35.43 3.84
-1 2 8 39.15 4.46
-1 2 8 36.85 3.76
-1 2 8 37.86 5.76
1 -2 -8 43.8 6.3
1 -2 -9 130.15 13.02
-1 2 9 106.8 7.88
1 -2 -9 92.25 6.14
-1 2 9 97.42 6.17
-1 2 9 82.6 3.96
-1 2 9 120.7 11.11
1 -2 -9 117.53 10.5
1 -2 -10 66.55 10.04
1 -2 -10 45.12 4.18
-1 2 10 70.02 8.85
-1 2 10 50.07 4.19
1 -2 -10 59.69 8.01
1 -2 -11 164.68 13.75
-1 2 11 178.29 14.96
-1 2 12 9.71 4.77
1 -2 -12 0.33 2.12
1 -2 -13 8.74 3.93
-1 2 13 5.84 2.2
-1 2 13 10.35 4.92
1 -2 -14 10.42 4.7
1 -2 -14 0.47 2.48
-1 2 14 3.49 3.72
1 -2 -15 20.8 5.73
1 -2 -15 6.22 4.11
-1 2 15 8.37 5.09
1 -2 -16 43.71 7.84
1 -2 -16 45.73 9.02
-1 2 16 54.88 10.5
-1 2 17 47.07 10.5
1 -2 -17 42.8 8.08
1 -2 -17 50.36 9.69
-1 2 18 3.7 4.73
1 -2 -18 7.45 4.74
0 2 -18 3.58 4.31
0 2 -17 7.75 6.17
0 2 -17 2.23 3.78
0 -2 17 0.58 3.61
0 2 -16 9.04 5.48
0 2 -16 18.11 7.13
0 -2 16 13.02 6.67
0 -2 15 18.96 4.52
0 2 -15 30.9 8.59
0 -2 15 24.37 8.03
0 2 -15 18.22 6.41
0 2 -15 27.98 6.86
0 2 -14 73.38 11.42
0 -2 14 91.65 14.24
0 2 -14 71.63 12.82
0 -2 14 68.32 8.2
0 2 -14 86.67 11.13
0 -2 13 76.67 12.75
0 2 -13 83.71 10.38
0 2 -13 70.46 10.84
0 2 -13 65.36 9.63
0 -2 13 59.59 7.21
0 2 -13 65.14 11.5
0 -2 12 12.89 3.08
0 2 -12 8.33 4.01
0 2 -12 16 5.09
0 -2 12 16.14 5.69
0 2 -12 17.95 5.01
0 -2 11 55.93 3.7
0 2 -11 53.6 8.2
0 -2 11 35.47 3.25
0 -2 11 47.69 5.61
0 2 -11 48.54 3.85
0 2 -11 42.47 7.41
0 2 -11 55.82 7.96
0 -2 11 59.3 10.02
0 -2 10 8.92 2.22
0 -2 10 9.45 4.23
0 2 -10 4.02 1.71
0 2 -10 7.92 3.19
0 2 -10 10.53 3.65
0 -2 10 14.8 2.06
0 2 -10 14.56 4.15
0 -2 9 0.22 1.27
0 2 -9 0.92 1.95
0 2 -9 -2.02 2.14
0 -2 9 3.28 1.3
0 2 -9 -0.13 1.88
0 2 -9 0.18 2.05
0 -2 9 0.46 1.79
0 -2 8 29.34 5.89
0 2 -8 32.06 5.44
0 2 -8 28.35 5.36
0 -2 8 32.52 2.87
0 2 -8 20.42 3.54
0 -2 8 24.71 3.27
0 2 -8 29.46 5.04
0 -2 7 254.01 9.48
0 -2 7 265.8 16.49
0 -2 7 264.62 7.84
0 2 -7 257.72 13.97
0 2 -7 268.28 14.69
0 2 -7 263.88 12.42
0 2 -7 233.84 10.04
0 2 -6 68.19 4.56
0 2 -6 67.61 4.81
0 2 -6 68.76 7.04
0 2 -6 72.42 7.15
0 -2 6 72.29 8.15
0 -2 6 66.52 4.42
0 -2 6 70.92 4.13
0 2 -6 64.65 6.01
0 -2 5 987.29 27.85
0 -2 5 962.92 15.42
0 -2 5 1008.72 24.88
0 2 -5 989.26 24.79
0 2 -5 988.47 23.07
0 2 -5 916.34 12.34
0 2 -5 963.46 16.48
0 -2 5 951.47 14.57
0 2 -5 990.86 24.3
0 -2 4 1443.3 27.81
0 2 -4 1469.92 29.14
0 -2 4 1408.97 29.01
0 -2 4 1481.1 28.99
0 2 -4 1481.7 31.24
0 -2 4 1449.39 31.07
0 2 -4 1440.91 13.66
0 2 -4 1453.78 28.19
0 -2 4 1433.31 15.1
0 2 -4 1398.14 19.37
0 2 -4 1458.96 12.57
0 2 -4 1444.22 27.78
0 2 -3 387.09 14.78
0 -2 3 384.89 13.89
0 2 -3 388.33 14.6
0 2 -3 391.86 14.44
0 -2 3 377.77 15.25
0 2 -3 374.79 14.44
0 -2 3 378.67 14.59
0 2 -3 381.31 6.82
0 2 -3 380.66 10.25
0 -2 2 248.43 11.47
0 2 -2 227.73 8.58
0 2 -2 247.12 11.68
0 -2 2 230.52 6.65
0 2 -2 245.13 11.25
0 -2 2 237.47 12.25
0 2 -2 249.96 12.01
0 -2 2 241.98 11.67
0 2 -2 276.03 8.28
0 -2 1 153.95 9.93
0 2 -1 152.69 7.6
0 2 -1 159.2 9.75
0 2 -1 155.06 10.41
0 -2 1 138.34 6.68
0 2 0 -0.12 1.23
0 -2 0 0.87 1.03
0 2 0 -0.1 1.15
0 -2 0 0.74 1.05
0 2 0 -2.81 3.27
0 -2 -1 919.45 25.87
0 2 1 872.86 22.85
0 -2 -1 922.85 25.66
0 -2 -1 928.85 23.28
0 2 2 1593.77 32.44
0 -2 -2 1490.55 31.54
0 -2 -2 1561.01 33
0 2 2 1588.98 32.78
0 -2 -2 1567.43 34.05
0 2 3 887.63 25.48
0 -2 -3 835.51 10.17
0 -2 -3 854.23 25.47
0 -2 -3 858.96 25.36
0 2 3 888.11 25.99
0 -2 -3 878.89 27.03
0 -2 -4 2010.89 31.7
0 2 4 2095.18 43.62
0 -2 -4 1955.07 39.98
0 2 4 2071.79 40.44
0 -2 -4 1977.69 19.47
0 -2 -4 2058.79 44.43
0 2 5 152.83 12.28
0 -2 -5 158.78 13.32
0 -2 -5 160.37 6.55
0 2 5 133.24 9.72
0 2 5 152.66 9.8
0 -2 -5 148.03 9.22
0 2 5 165.98 13.53
0 -2 -6 44.93 7.86
0 2 6 40.46 7.19
0 -2 -6 45.75 4.1
0 2 6 36.69 5.52
0 2 6 45.82 5.61
0 -2 -6 43.42 5.38
0 2 7 97.59 9.15
0 -2 -7 109.75 6.92
0 2 7 104.34 8.74
0 -2 -7 113.63 12.57
0 -2 -7 103.76 8.68
0 -2 -8 311.62 21.49
0 -2 -8 283.07 12.03
0 2 8 277.34 15.94
0 -2 -8 292.48 15.02
0 -2 -9 801.67 36.12
0 2 9 732.55 27.07
0 -2 -9 721.53 20.69
0 -2 -9 796.02 25.88
0 -2 -10 168.5 17.36
0 -2 -10 154.87 10.26
0 2 10 172.13 13.86
0 -2 -10 171.86 12.69
0 -2 -11 85.46 13.19
0 -2 -11 70.23 7.5
0 2 11 79.22 10.02
0 -2 -11 78.97 9.15
0 -2 -12 0.99 1.8
0 -2 -12 4.76 4.84
0 -2 -12 0.35 2.27
0 2 12 -1.81 3.26
0 -2 -13 18.43 7.33
0 -2 -13 8.59 3.36
0 -2 -13 10.84 4.13
0 2 13 6.83 2.77
0 -2 -14 16.57 4.61
0 -2 -14 19.56 5.24
0 2 14 17 4.67
0 -2 -15 48.06 7.65
0 -2 -15 57.27 9.24
0 2 15 67.53 11.21
0 -2 -16 27.21 6.02
0 -2 -16 40.65 8.25
0 2 16 47.06 10.59
0 -2 -17 10.4 5.13
0 2 17 14.26 7.1
1 2 -19 16.83 7.34
1 2 -18 15.6 6.51
1 2 -18 26.69 7.64
-1 -2 17 35.1 10.3
1 2 -17 32.62 8.52
1 2 -17 28.23 7.68
1 2 -16 14.7 5.31
-1 -2 16 14.78 6.74
1 2 -16 11.6 5.74
1 2 -15 12.01 4.98
-1 -2 15 14.59 4.89
-1 -2 15 8.7 5.61
1 2 -15 4.49 2.54
1 2 -15 9.78 4.62
1 2 -14 8.28 3.79
1 2 -14 5.42 2.7
-1 -2 14 10.59 3.93
-1 -2 14 12.1 5.27
1 2 -14 12.54 4.7
-1 -2 13 4.12 2.93
1 2 -13 0.37 2.58
1 2 -13 0.21 2.2
-1 -2 13 3.95 3.59
1 2 -13 0.17 2.29
-1 -2 12 334.28 17.44
1 2 -12 308.43 19.75
1 2 -12 328.16 19.64
-1 -2 12 348.31 24.49
1 2 -12 369.86 21.5
-1 -2 12 272.89 11.05
-1 -2 11 413.92 14.32
1 2 -11 446.04 22.37
1 2 -11 459.73 21.87
1 2 -11 535.18 24.75
-1 -2 11 497.06 27.57
-1 -2 11 477.55 19.81
-1 -2 10 176.31 15.64
1 2 -10 169.58 13.27
1 2 -10 170.17 12.61
-1 -2 10 176.02 11.49
1 2 -10 185.26 14.02
1 2 -9 76.34 8.58
-1 -2 9 82.19 7.47
-1 -2 9 80.4 10.03
1 2 -9 77.55 6.23
1 2 -9 81.79 8.22
1 2 -9 86.54 9.34
-1 -2 8 0.7 1.06
1 2 -8 0.92 0.6
1 2 -8 1.67 2.06
-1 -2 8 2.28 2.13
1 2 -8 2.18 1.59
1 2 -8 2.04 1.62
1 2 -8 0.68 0.99
1 2 -8 4 2.41
1 2 -7 73.34 7.71
-1 -2 7 71.1 8.24
1 2 -7 72.48 7.82
-1 -2 7 69.24 6.11
1 2 -7 75.17 5.59
1 2 -7 69.78 7.03
1 2 -7 66.17 3.73
1 2 -7 70.05 6.92
1 2 -6 524.72 10.96
1 2 -6 509.57 19.61
1 2 -6 519 17.98
1 2 -6 523.73 14.33
-1 -2 6 523.27 15.88
1 2 -6 564.88 19.94
-1 -2 6 514.35 20.51
1 2 -5 550.05 20.3
1 2 -5 547.34 14.75
-1 -2 5 543.98 19.47
1 2 -5 583.52 20.4
1 2 -5 589.09 15.18
1 2 -5 555.34 18.58
-1 -2 5 534.16 19.91
-1 -2 5 553.33 17
-1 -2 5 557.75 15.73
1 2 -5 512.2 12.44
1 2 -4 849.23 22.62
1 2 -4 837.41 17.49
-1 -2 4 811.59 20.68
1 2 -4 854.69 23.6
-1 -2 4 779.64 25.76
1 2 -4 790.55 18.42
-1 -2 4 824.03 21.52
-1 -2 4 811.81 22.09
1 2 -3 521.25 13.48
1 2 -3 546.08 16.78
-1 -2 3 521.2 17.87
-1 -2 3 526.53 16.74
1 2 -3 533.74 20.28
1 2 -3 517.44 16.57
-1 -2 3 526.11 16.47
1 2 -3 516.14 15.13
-1 -2 2 396.88 13.98
1 2 -2 388.41 15.42
-1 -2 2 391.29 12.88
-1 -2 2 391.11 16.93
1 2 -2 404.39 19.16
1 2 -2 395.69 12.15
-1 -2 1 110.52 11.08
-1 -2 1 108.38 7.32
1 2 -1 99.86 8.46
-1 -2 1 94.71 8.63
1 2 -1 106.38 6.86
-1 -2 0 54.4 6.44
1 2 0 48.14 5.75
-1 -2 0 50.13 5.53
1 2 0 60.1 5.9
-1 -2 0 46.99 7.06
-1 -2 -1 696.3 22.79
1 2 1 652.68 21.06
-1 -2 -1 653.08 21.7
1 2 1 671.67 15.13
1 2 1 704.31 25.17
-1 -2 -1 671.31 26.31
-1 -2 -2 968.02 27.95
1 2 2 969.21 27.03
1 2 2 991.28 18.21
-1 -2 -2 947.23 17.37
-1 -2 -2 873.43 26.94
1 2 2 991.18 30.26
1 2 2 989.69 31.08
-1 -2 -2 966.78 32.55
1 2 3 36.3 3.5
-1 -2 -3 39.86 3.84
-1 -2 -3 40.56 6.01
1 2 3 37.06 5.94
-1 -2 -3 42 7.2
-1 -2 -4 307.81 11.23
1 2 4 332.08 11.62
-1 -2 -4 299.56 11.48
1 2 4 362.73 20.66
-1 -2 -4 327.5 20.84
-1 -2 -5 545.51 16.36
-1 -2 -5 572.01 16.24
1 2 5 615.53 28.2
-1 -2 -5 590.47 29.47
-1 -2 -6 60.3 5.93
1 2 6 71.11 10.41
-1 -2 -6 69.37 6.16
-1 -2 -6 65.6 10.64
1 2 7 18.39 5.79
-1 -2 -7 23.14 3.99
-1 -2 -7 21.8 6.47
-1 -2 -7 21.7 3.83
-1 -2 -8 35.23 5.01
1 2 8 30.48 6.15
-1 -2 -8 39.41 8.96
-1 -2 -8 37.28 5.26
1 2 8 28.46 7.06
-1 -2 -9 4.08 3.6
1 2 9 4.16 4.25
-1 -2 -9 6.56 2.79
1 2 9 5.25 3.05
-1 -2 -9 3.56 1.79
1 2 10 16.53 6.19
-1 -2 -10 14.16 2.62
-1 -2 -10 18.89 4.27
-1 -2 -10 26.71 8.14
-1 -2 -10 18.45 3.97
1 2 10 17.01 5.11
-1 -2 -11 236.13 23.57
-1 -2 -11 188.07 13.21
1 2 11 186.11 15.98
-1 -2 -11 214.25 14.21
-1 -2 -12 55.91 12.37
-1 -2 -12 55.31 7.68
1 2 12 56.46 9.32
-1 -2 -12 61.27 8.01
-1 -2 -13 37.99 10.91
-1 -2 -13 32.32 6.27
1 2 13 27.03 6.91
-1 -2 -13 32.82 6.25
-1 -2 -14 6.13 3.02
-1 -2 -14 2.99 5.69
1 2 14 0.15 2.62
-1 -2 -14 -1.58 2.26
-1 -2 -15 6.75 4.07
1 2 15 -8.38 6.12
1 2 16 3.41 3.27
2 2 -19 7.81 5.46
2 2 -18 10.26 6.06
2 2 -18 6.56 4.89
-2 -2 17 7.41 5.05
2 2 -17 1.64 2.77
2 2 -17 1.77 4.22
-2 -2 16 -4 3.82
2 2 -16 0.51 2.73
-2 -2 16 -1.99 3.16
2 2 -16 0.29 2.91
2 2 -15 1.07 2.34
2 2 -15 2.17 2.21
-2 -2 15 2 2.95
-2 -2 15 0.97 2.49
2 2 -15 5.3 3.71
2 2 -14 1.42 2.58
2 2 -14 -2.22 3.16
-2 -2 14 -0.34 1.84
2 2 -14 -1.29 2.28
-2 -2 14 -0.3 3.04
-2 -2 13 55.4 10.09
2 2 -13 47.96 7.57
-2 -2 13 58.87 8.33
2 2 -13 60.08 9.5
2 2 -13 48.32 8.12
-2 -2 12 4.6 2.49
2 2 -12 5.21 3.56
-2 -2 12 5.38 3.4
2 2 -12 2.22 2.51
-2 -2 12 4.33 2.05
2 2 -12 5.75 3.25
-2 -2 11 2.57 1.71
-2 -2 11 5.19 2.31
2 2 -11 9.33 3.95
-2 -2 11 7.53 3.81
2 2 -11 5.72 2.7
2 2 -11 5.4 3.58
-2 -2 10 106.16 8.99
2 2 -10 99.09 10.14
-2 -2 10 102.89 11.8
2 2 -10 106.1 9.44
-2 -2 10 108.8 10.21
2 2 -10 117.58 11.39
2 2 -9 277.01 16.39
-2 -2 9 278.63 14.45
-2 -2 9 280.53 17.97
2 2 -9 267.88 14.28
-2 -2 9 289.89 15.95
2 2 -9 307.59 17.88
2 2 -8 105.1 10.09
2 2 -8 101.94 8.52
-2 -2 8 100.16 10.13
-2 -2 8 103.1 8.07
-2 -2 8 104.06 9.29
2 2 -8 97.35 4.66
2 2 -8 113.34 10.41
-2 -2 7 0.84 1.22
-2 -2 7 2.04 1.55
2 2 -7 -1.34 2.43
-2 -2 7 2.51 1.68
2 2 -7 0.21 1.44
2 2 -7 -0.59 1.25
2 2 -6 149.6 10.37
-2 -2 6 146.48 10.47
2 2 -6 156.33 10.04
-2 -2 6 154.61 9.39
2 2 -6 151.45 10.18
-2 -2 6 148.66 10.47
2 2 -6 161.15 11.2
2 2 -5 144.22 9.69
-2 -2 5 141.94 9.63
2 2 -5 156.28 9.79
2 2 -5 138.37 9.92
2 2 -5 149.2 11.13
-2 -2 5 134.13 9.18
-2 -2 5 138.87 9.85
2 2 -5 145.13 10.07
2 2 -4 564.93 23.47
-2 -2 4 576.96 17.46
2 2 -4 607.85 18.02
2 2 -4 588.26 17.46
2 2 -4 621.4 19.23
-2 -2 4 576.12 20.39
2 2 -4 590.64 20.47
-2 -2 3 858.75 19.58
2 2 -3 893.01 20.29
-2 -2 3 876.94 24.01
2 2 -3 817.51 22.37
2 2 -3 872.82 22.6
-2 -2 3 814.87 24.45
2 2 -3 872.87 25.06
-2 -2 3 849.94 21.41
2 2 -2 1014.59 24.88
-2 -2 2 976.25 19.85
-2 -2 2 994.56 26.01
-2 -2 2 1016.91 26.96
2 2 -2 947.07 25.91
-2 -2 2 965.48 21.8
-2 -2 2 968.18 37.2
2 2 -1 119.98 9.15
-2 -2 1 122.77 7.1
-2 -2 1 125.67 9.55
-2 -2 1 119.17 9.42
2 2 -1 125.35 9.07
-2 -2 1 124.9 7.53
-2 -2 1 115.38 12.68
-2 -2 0 2.97 2.86
2 2 0 5.93 2.12
2 2 0 4.43 1.95
-2 -2 0 3.13 1.81
2 2 0 2.25 1.65
2 2 1 60.41 7
-2 -2 -1 58 7.02
2 2 1 64.86 6.42
2 2 1 74.46 7.92
-2 -2 -1 61.33 9.32
2 2 2 95.28 7.77
-2 -2 -2 89.56 7.41
2 2 2 110.49 10.6
-2 -2 -2 99.19 12.23
-2 -2 -3 260.89 13.02
2 2 3 274.13 18.18
2 2 3 270.62 13.18
-2 -2 -3 262.46 20.31
-2 -2 -4 1328.65 30.25
-2 -2 -4 1199.19 29.14
-2 -2 -4 1309.5 47.08
2 2 4 1251.79 28.42
-2 -2 -4 1208.61 21.1
2 2 4 1289.8 41.67
-2 -2 -5 82.46 7.84
2 2 5 80.11 7.49
-2 -2 -5 75.58 5.65
2 2 5 64.19 9.64
-2 -2 -5 87.41 12.98
-2 -2 -6 5.09 1.9
2 2 6 5 3.05
-2 -2 -6 5.54 3.5
-2 -2 -6 8.92 3
-2 -2 -6 7.58 2.02
-2 -2 -7 2.5 2.83
2 2 7 2.75 3.5
-2 -2 -7 1.05 1.63
-2 -2 -7 1.04 1.56
-2 -2 -7 2.98 1.53
-2 -2 -8 1.26 1.74
-2 -2 -8 3.37 4.41
-2 -2 -8 2.21 1.69
2 2 8 5.84 4.84
-2 -2 -8 1.56 1.33
-2 -2 -9 72.9 13.3
-2 -2 -9 53.06 6.25
-2 -2 -9 61.23 7.97
-2 -2 -9 66.28 6.7
2 2 9 68.25 11.97
-2 -2 -10 72.05 13.54
2 2 10 67.14 12.32
-2 -2 -10 66.24 8.45
-2 -2 -10 71.65 7.31
-2 -2 -11 60 13.3
2 2 11 50.24 11.31
-2 -2 -11 53.03 8.21
2 2 11 51.78 9.53
-2 -2 -11 56.06 6.75
-2 -2 -12 0.4 4.22
2 2 12 6.85 6.23
-2 -2 -12 3.32 2.98
2 2 12 6.4 4.38
-2 -2 -13 14.34 7.5
-2 -2 -13 14.29 4.87
2 2 13 13.87 5.46
-2 -2 -14 11.05 7.02
-2 -2 -14 3.75 3.6
2 2 14 4.25 3.46
-2 -2 -15 7.4 7.98
2 2 15 -2.81 3.97
3 2 -18 0.76 2.82
3 2 -17 34.23 8.07
3 2 -17 50.66 10.68
-3 -2 16 39.16 8.38
3 2 -16 29.73 7.27
-3 -2 16 41.94 10.02
3 2 -16 44.39 9.62
-3 -2 15 14.06 4.58
3 2 -15 17.61 5.67
-3 -2 15 24.64 7.7
3 2 -15 19.04 6.06
3 2 -14 2.41 2.88
-3 -2 14 5.17 4.18
-3 -2 14 -0.02 2.67
3 2 -14 7.3 3.22
3 2 -14 4.07 4.19
3 2 -13 27.56 6.52
-3 -2 13 25.82 6.3
3 2 -13 24.59 5.22
-3 -2 13 28.89 7.27
-3 -2 13 36.53 6.04
-3 -2 13 27.05 5.31
3 2 -13 27.01 6.43
3 2 -12 46.44 7.91
-3 -2 12 52.1 7.27
-3 -2 12 57.85 9.9
3 2 -12 52.13 7.07
-3 -2 12 58.67 6.93
-3 -2 12 62.55 9.32
3 2 -12 58.94 9.27
-3 -2 11 234.48 12.88
3 2 -11 204.74 13
3 2 -11 219.56 16.07
-3 -2 11 215.1 14.71
-3 -2 11 226.26 17.92
-3 -2 11 233.49 17.18
3 2 -11 249.14 17.99
3 2 -10 198.52 15.09
-3 -2 10 195.36 13.94
-3 -2 10 209.33 16.35
3 2 -10 183.5 11.96
-3 -2 10 193.2 11.3
-3 -2 10 214.32 16.01
3 2 -10 204.27 15.57
-3 -2 9 128.38 12.11
3 2 -9 116.11 11.65
-3 -2 9 122.8 11.04
-3 -2 9 124.76 11.64
-3 -2 9 127.18 9.03
3 2 -9 115.66 9.37
3 2 -9 138.76 12.56
3 2 -8 1.39 1.97
-3 -2 8 1.67 1.54
-3 -2 8 4.55 2.9
-3 -2 8 1.85 1.56
-3 -2 8 3.13 1.76
3 2 -8 1.41 1.39
3 2 -8 3.99 2.7
-3 -2 7 28.3 4.14
-3 -2 7 36.75 6.18
-3 -2 7 34.61 5.44
3 2 -7 38.36 5.82
3 2 -7 38.47 6.07
-3 -2 7 36.68 6.23
3 2 -7 34.62 5.8
-3 -2 6 18.31 4.66
-3 -2 6 18.27 3.67
-3 -2 6 18.18 4.33
3 2 -6 17.2 3.61
-3 -2 6 16.4 3.41
3 2 -6 19.75 4.3
3 2 -6 18.98 4.87
3 2 -6 16.38 3.91
3 2 -5 3.58 1.76
3 2 -5 9.37 3.31
-3 -2 5 10.83 3.89
3 2 -5 8.56 2.34
-3 -2 5 7.17 2.16
-3 -2 5 9.33 2.91
3 2 -5 10.07 3.07
-3 -2 4 377.13 19.13
-3 -2 4 368.14 12.85
3 2 -4 381.41 13.29
3 2 -4 410.41 18.51
3 2 -4 346.35 14.36
-3 -2 4 378.77 15.95
-3 -2 4 382.8 26.32
-3 -2 3 362.43 11.16
3 2 -3 343.4 15.6
-3 -2 3 374.8 16.07
3 2 -3 387.78 17.99
-3 -2 3 356.07 24.97
-3 -2 2 0.09 1.94
-3 -2 2 0.38 0.62
3 2 -2 0.22 1.74
3 2 -2 0.74 1.12
-3 -2 2 0.8 1.55
-3 -2 2 0.26 0.94
-3 -2 1 470.41 10.7
3 2 -1 443.36 18.46
3 2 -1 517.28 21.05
-3 -2 1 444.43 14.05
-3 -2 1 455.15 19.01
-3 -2 1 464.32 27.99
-3 -2 0 198.34 14.14
3 2 0 224.88 14.32
-3 -2 0 196.22 8.76
-3 -2 0 206.76 19.04
3 2 1 3.45 2.94
-3 -2 -1 0.31 2.04
-3 -2 -1 4.68 3.42
-3 -2 -1 1.57 1.06
-3 -2 -1 2.57 1.14
-3 -2 -2 64.06 8.28
-3 -2 -2 59.15 5.23
-3 -2 -2 64.42 7.78
3 2 2 78.08 9.82
-3 -2 -2 64.83 11.3
-3 -2 -3 101.63 10.15
-3 -2 -3 102.69 9.92
-3 -2 -3 96.52 7.38
3 2 3 130.58 13.37
-3 -2 -3 104.61 14.76
-3 -2 -4 1.59 2.33
-3 -2 -4 0.95 1.74
-3 -2 -4 3.3 2.68
3 2 4 2.83 3.07
-3 -2 -4 3.06 1.6
-3 -2 -4 2.04 0.98
-3 -2 -5 132.23 11.46
-3 -2 -5 156.13 12.79
-3 -2 -5 137.71 6.27
3 2 5 146.36 15.48
-3 -2 -5 158.22 19.02
-3 -2 -6 178.61 13.35
-3 -2 -6 192.02 14.45
-3 -2 -6 182.84 7.96
3 2 6 176.04 17.67
-3 -2 -6 215.87 22.94
-3 -2 -7 87.2 15.04
-3 -2 -7 76.16 5.49
-3 -2 -7 71.54 8.39
-3 -2 -7 76.09 9.71
3 2 7 73.47 12.27
-3 -2 -8 13.4 3.87
3 2 8 14.95 5.9
-3 -2 -8 13.12 7.3
-3 -2 -8 15.16 4.94
-3 -2 -9 19.63 7.56
-3 -2 -9 16.31 4.82
-3 -2 -9 21.07 4.68
3 2 9 25.97 8.65
-3 -2 -10 0.3 3.79
-3 -2 -10 -4.13 3.66
3 2 10 5.62 5.51
-3 -2 -11 21.44 5.66
-3 -2 -11 28.45 9.37
3 2 11 29.18 9.67
3 2 12 20.74 8.05
-3 -2 -12 9.62 3.8
-3 -2 -12 22.54 9.97
3 2 12 18.85 7.16
-3 -2 -13 42.58 12.76
3 2 13 36.83 10.47
3 2 13 32.08 8.75
-3 -2 -13 31.36 7.26
3 2 14 12.07 6.93
3 2 14 5.36 4.49
-3 -2 -14 11.39 8.17
-4 -2 17 4.31 3.73
4 2 -17 6.89 5.41
-4 -2 16 0.76 2.93
4 2 -16 -2.03 2.64
4 2 -16 1.77 4.52
-4 -2 15 14.46 5.63
4 2 -15 13 4.99
4 2 -15 12.25 5.38
4 2 -14 49.25 8.78
-4 -2 14 56.2 10.44
4 2 -14 50.89 9.67
-4 -2 13 1.79 3.26
-4 -2 13 -0.31 2.32
4 2 -13 2.68 3.24
-4 -2 13 1.29 2.24
4 2 -13 0.98 2.9
-4 -2 12 4.53 2.59
-4 -2 12 7.75 4.41
4 2 -12 9.66 4.45
-4 -2 12 7.21 3.76
4 2 -12 6.36 2.71
4 2 -12 11.36 4.68
-4 -2 11 7.07 4
-4 -2 11 9.76 3.9
-4 -2 11 6.98 3.82
4 2 -11 5.28 2.98
4 2 -11 10.99 3.3
4 2 -11 10.07 4.6
4 2 -10 10.68 4.15
-4 -2 10 13.22 4.17
-4 -2 10 13.97 5.04
-4 -2 10 13.91 4.52
4 2 -10 6.96 2.84
4 2 -10 12.78 3.48
4 2 -10 16.95 5.13
-4 -2 9 106.81 11.74
-4 -2 9 106.7 10.62
4 2 -9 116.09 11.78
-4 -2 9 86.93 7.5
4 2 -9 97.59 9.04
-4 -2 9 114.26 12.76
4 2 -9 109.91 11.37
-4 -2 8 172.44 14.73
-4 -2 8 186.47 12.9
4 2 -8 199.45 15.42
-4 -2 8 164.6 9.96
4 2 -8 170.7 12.56
-4 -2 8 184.28 16.03
4 2 -8 188.7 14.26
4 2 -7 89.36 10
-4 -2 7 89.21 7.09
-4 -2 7 81.41 10.22
-4 -2 7 90.35 8.29
4 2 -7 98.66 9.89
4 2 -7 97.01 10.71
-4 -2 6 1.22 3.32
-4 -2 6 -0.31 1.22
-4 -2 6 0.35 1.75
4 2 -6 0.64 1
-4 -2 6 1.02 1.31
4 2 -6 2.49 2.88
4 2 -6 -2.06 3.58
4 2 -6 2.5 2.3
-4 -2 5 -0.54 2.37
-4 -2 5 -0.57 2.39
4 2 -5 2.56 2.85
-4 -2 5 0.9 1.07
4 2 -5 0.95 0.99
4 2 -5 1.59 1.42
-4 -2 5 0.67 1.36
-4 -2 4 -1.34 3.05
4 2 -4 0.26 1.25
-4 -2 4 2.41 2.72
4 2 -4 6.2 3.73
-4 -2 3 41.88 9.49
-4 -2 3 40.55 7.26
4 2 -3 47.92 7.46
4 2 -3 38.37 5.57
-4 -2 2 378.21 21.52
4 2 -2 369.08 17.63
4 2 -2 432.18 22.04
-4 -2 2 355.82 13.74
-4 -2 2 409.05 28.93
-4 -2 1 131.22 12.84
4 2 -1 153.91 13.4
-4 -2 1 141.59 17.34
-4 -2 1 118.51 7.3
-4 -2 0 44.25 7.79
4 2 0 52.2 8.17
-4 -2 0 45.46 4.05
-4 -2 0 55.04 11.13
-4 -2 -1 14.64 6.31
-4 -2 -1 11.56 4.44
-4 -2 -1 9.27 1.29
-4 -2 -1 10.84 1.71
4 2 1 12.61 4.26
-4 -2 -2 34.89 6.78
-4 -2 -2 38.59 3.58
-4 -2 -2 42.29 10.03
4 2 2 42.14 8.09
-4 -2 -2 28.76 2.13
-4 -2 -3 2.17 2.67
-4 -2 -3 -0.16 1.77
-4 -2 -3 1.75 2.55
-4 -2 -4 87.18 10.57
-4 -2 -4 89.29 11
4 2 4 106.09 13.67
-4 -2 -4 101.29 16.14
-4 -2 -5 53.75 8.32
4 2 5 57.1 10.49
-4 -2 -5 54.4 8.7
-4 -2 -5 58.23 12.88
-4 -2 -6 16.7 5.37
-4 -2 -6 11.97 4.18
4 2 6 4.17 3.67
-4 -2 -6 21.19 8.12
-4 -2 -7 0.41 3.54
-4 -2 -7 -2.24 2.75
-4 -2 -7 1.07 2.58
4 2 8 0.53 4.85
-4 -2 -8 2.4 3.14
-4 -2 -8 -1.85 2.68
-4 -2 -8 4.55 5.88
4 2 9 0.56 4.52
-4 -2 -9 3.19 2.92
-4 -2 -9 -6.59 6.95
-4 -2 -10 1.61 4.45
-4 -2 -10 1.21 3.08
4 2 10 -0.87 4.52
-4 -2 -11 9.1 5.92
-4 -2 -11 5.35 3.32
4 2 11 4.75 4.84
-4 -2 -12 -2.63 5.91
4 2 12 4.85 5.62
-4 -2 -12 0.87 3.54
4 2 13 4.88 7.82
-5 -2 17 5.84 4.33
-5 -2 16 13.15 6.26
5 2 -16 16.26 6.71
-5 -2 15 19.35 7.2
5 2 -15 21.06 6.54
5 2 -15 24.98 7.29
5 2 -14 6.13 3.99
5 2 -14 3.64 3.61
-5 -2 14 2.97 3.55
-5 -2 14 5.35 3.26
5 2 -14 9.64 5.06
5 2 -13 7.89 3.93
-5 -2 13 7.58 3.6
-5 -2 13 11.6 5.55
5 2 -13 7.59 4.11
5 2 -13 9.81 4.6
5 2 -12 -1.93 3.23
-5 -2 12 5.54 4.66
5 2 -12 3.84 2.89
-5 -2 12 1.37 2.24
5 2 -12 -0.41 2.75
-5 -2 11 2.82 2.69
5 2 -11 4.89 3.19
-5 -2 11 0.42 2.81
5 2 -11 -3.53 4.38
5 2 -11 1.61 3.34
-5 -2 10 13.77 4.86
5 2 -10 19.53 6.14
-5 -2 10 18.37 6.28
5 2 -10 15.58 3.96
5 2 -10 22.32 5.74
-5 -2 9 51.91 12.76
-5 -2 9 52.72 9.14
5 2 -9 67.15 10.13
5 2 -9 44.89 6.75
5 2 -9 65.13 9.14
-5 -2 8 6.3 4.34
5 2 -8 10.36 4.59
-5 -2 8 6.85 3.67
5 2 -8 12.24 4.58
5 2 -8 7.21 3
-5 -2 7 -1.79 3.44
5 2 -7 5.36 3.67
-5 -2 7 -0.56 2.46
5 2 -7 -2.03 3.17
5 2 -7 4.11 3
-5 -2 6 97.83 12.43
5 2 -6 113.14 12.75
-5 -2 6 94.87 15.96
5 2 -5 93.02 11.88
-5 -2 5 74.38 10.59
-5 -2 5 85.21 14.75
-5 -2 4 14.41 6.57
-5 -2 4 10.51 4.33
5 2 -4 9.96 4.45
-5 -2 3 28.47 9.03
-5 -2 3 22.82 6
5 2 -3 28.81 6.82
-5 -2 2 43.5 8.22
5 2 -2 52.98 9.12
-5 -2 2 47.36 10.88
-5 -2 1 33.51 9.79
-5 -2 1 38.68 7.84
5 2 -1 41.21 7.97
-5 -2 0 68.81 10.44
-5 -2 0 74.92 13.92
5 2 0 86.27 11.4
-5 -2 -1 46.96 11.41
-5 -2 -1 40.2 8.04
5 2 1 47.12 8.98
5 2 2 18.04 6.67
-5 -2 -2 6.97 4.78
-5 -2 -2 12.25 4.81
-5 -2 -3 -1.05 3.02
-5 -2 -3 -1.5 3.36
5 2 4 17.26 7.19
-5 -2 -4 7.78 3.79
-5 -2 -4 6.16 4.99
-5 -2 -4 9.38 4.81
-5 -2 -5 -0.49 3.21
-5 -2 -5 2.69 4.97
5 2 5 2.41 4.02
-5 -2 -5 -0.42 2.5
-5 -2 -6 22.32 6.75
-5 -2 -6 21.4 6.03
5 2 6 8 4.76
-5 -2 -6 27.46 9.64
-5 -2 -7 35.63 11.67
-5 -2 -7 27.43 6.77
-5 -2 -7 31.73 8.07
5 2 7 12.39 4.8
-5 -2 -8 13.9 5.32
5 2 8 0.2 6.45
-5 -2 -8 12.31 5.32
-5 -2 -8 20.29 9.09
-5 -2 -9 4.4 4.18
-5 -2 -9 -0.37 4.64
5 2 9 -6.41 7
-5 -2 -10 -1.35 4.3
-5 -2 -10 2.55 4.09
5 2 10 -0.11 4.48
-5 -2 -11 2.67 2.94
5 2 11 2.63 5.91
-6 -2 17 3.7 4.15
6 2 -16 0.73 3.87
-6 -2 16 -2.32 4.12
6 2 -15 -1.17 3.5
-6 -2 15 -3.22 4.29
6 2 -15 6.28 4.65
6 2 -14 15.57 5.96
-6 -2 14 17.41 5.97
-6 -2 14 12.82 5.88
6 2 -14 19.41 6.54
-6 -2 13 12.66 8.52
6 2 -13 8.74 5.03
-6 -2 13 8.78 4.58
6 2 -13 9.84 5.06
-6 -2 13 12.45 5.76
6 2 -13 12.33 5.24
-6 -2 12 12.42 6.61
-6 -2 12 7.38 4.16
6 2 -12 2.43 2.98
6 2 -12 10.67 4.99
6 2 -12 8.46 4.7
-6 -2 11 1.47 3.63
-6 -2 11 1.93 2.74
6 2 -11 0.5 3.02
6 2 -11 4.46 3.54
-6 -2 10 -1.49 4.91
-6 -2 10 -1.2 2.74
6 2 -10 -1.05 3.04
6 2 -10 0.15 2.22
-6 -2 9 -3.32 5.09
6 2 -9 2.08 3.4
-6 -2 9 0.54 3.25
6 2 -9 2.25 2.69
-6 -2 8 5.85 4.81
6 2 -8 13.23 5.6
-6 -2 8 1.66 2.62
6 2 -8 9.38 4.44
6 2 -8 9.97 4.27
-6 -2 7 43.16 11.81
-6 -2 7 35.77 8.48
6 2 -7 50.24 9.69
6 2 -7 22.27 5.41
-6 -2 6 20.28 7.93
-6 -2 6 26.67 7.75
6 2 -6 28.52 7.54
-6 -2 5 3.54 4.88
-6 -2 5 1.74 3.27
6 2 -5 1.79 3.32
-6 -2 4 3.19 3.71
-6 -2 4 1.71 2.88
6 2 -4 1.09 3.19
6 2 -3 26.03 7.24
-6 -2 3 25.79 9.11
-6 -2 3 25.72 6.94
-6 -2 2 27.83 9.56
-6 -2 2 19.75 6.22
6 2 -2 23.83 7.34
-6 -2 1 8.2 5.13
-6 -2 1 2.12 3.37
6 2 -1 9.14 5.37
-6 -2 0 24.16 9.64
-6 -2 0 18.86 6.46
6 2 0 20.82 7.14
-6 -2 -1 14.82 5.81
-6 -2 -1 14.18 7.16
6 2 1 16.26 5.8
-6 -2 -2 2.87 4.9
-6 -2 -2 4.26 3.46
-6 -2 -3 12.47 5.37
-6 -2 -3 12.63 7.6
-6 -2 -4 3.04 4.92
6 2 4 8.78 6.51
-6 -2 -4 0.43 2.54
-6 -2 -5 -3.99 4.31
6 2 5 0.2 4.42
-6 -2 -5 7.8 4.53
-6 -2 -5 5.11 4.91
-6 -2 -6 0.32 3.65
-6 -2 -6 3.86 6
6 2 6 -4.26 6.11
-6 -2 -6 -1.72 2.54
-6 -2 -7 -2.54 3.57
-6 -2 -7 4.58 4.46
6 2 7 -12.74 9.46
-6 -2 -7 5.52 7.87
-6 -2 -8 2.82 4.93
-6 -2 -8 0.04 3.26
-6 -2 -9 -0.37 3.2
7 2 -14 6.3 5.4
-7 -2 14 4.67 4.09
7 2 -14 2.57 3.16
7 2 -13 0.15 3.58
-7 -2 13 -0.87 2.93
7 2 -13 5.19 4.6
7 2 -12 4.36 4.62
-7 -2 12 2.13 3.24
7 2 -12 -2.67 3.28
7 2 -11 11.01 6.14
-7 -2 11 5.86 4.5
7 2 -11 6.8 3.51
-7 -2 10 2.55 5.05
7 2 -10 8.45 5.77
-7 -2 10 1.3 3.36
7 2 -10 2.85 2.94
-7 -2 9 1.15 4.11
-7 -2 9 7.59 4.85
7 2 -9 12.14 5.55
-7 -2 8 2.43 5.05
-7 -2 8 -3.13 4.49
7 2 -8 5.81 5.43
-7 -2 7 30.46 10.08
-7 -2 7 26.87 8.37
7 2 -7 27.59 8.06
-7 -2 6 5.53 6.59
7 2 -6 12.69 6.24
-7 -2 6 11.27 5.75
-7 -2 5 18.84 6.9
7 2 -5 25.31 8.02
-7 -2 5 22.34 9.55
-7 -2 4 1.09 3.32
-7 -2 4 -0.55 4.39
7 2 -4 3.78 4.77
-7 -2 3 1.93 3.78
7 2 -3 9.74 5.58
-7 -2 3 1.73 3.12
-7 -2 2 7.6 5.84
-7 -2 2 0.26 3.34
7 2 -2 15.51 6.67
-7 -2 1 -2.91 4.33
-7 -2 1 1.06 2.9
7 2 -1 1.36 4.16
-7 -2 0 2.44 4.23
-7 -2 0 -2.8 3.75
7 2 0 5.33 4.3
7 2 1 -3.04 4.09
-7 -2 -1 -0.39 3.87
-7 -2 -1 2.48 5.34
-7 -2 -2 5.14 4.84
-7 -2 -2 0.23 2.87
-7 -2 -3 4.1 6.44
7 2 3 14.25 7.97
-7 -2 -3 2.96 3.99
-7 -2 -4 3.18 5.54
7 2 4 11.19 7.66
-7 -2 -4 -2.76 3.95
-7 -2 -5 0.43 3.48
-7 -2 -5 4.25 5.83
-7 -2 -6 1.7 3.31
-8 -2 8 1.94 4.2
8 2 -7 1.11 4.64
-8 -2 7 2.99 4
-8 -2 6 8.76 7.13
8 2 -6 5.17 5.46
-8 -2 6 5.43 4.39
-8 -2 5 -0.76 3.54
-8 -2 5 3.24 6.31
8 2 -5 10.81 6.49
-8 -2 4 1.07 4.84
-8 -2 4 -10.18 5.8
8 2 -4 -1.42 3.81
-8 -2 3 3.07 4.14
-8 -2 3 5.29 5.38
8 2 -3 7.77 5.65
-8 -2 2 -2.53 4.11
-8 -2 2 1.47 3.71
-8 -2 1 0.01 3.67
-8 -2 1 -5.85 6.62
-8 -2 0 0.68 4.95
-8 -2 -1 6.19 7.14
9 -3 2 8.83 5.92
9 -3 1 4.69 5.38
9 -3 0 -3.88 5.22
9 -3 -1 -3.22 4.53
9 -3 -2 -1.28 3.72
9 -3 -3 6.56 6.34
9 -3 -3 -2.07 4.95
9 -3 -4 3.86 4.9
9 -3 -4 -1.73 5.1
9 -3 -5 6.05 5.98
9 -3 -5 -8.63 5.48
9 -3 -6 5.06 4.21
9 -3 -7 -0.11 4.04
-8 3 -5 7.54 5.78
-8 3 -4 3.15 4.3
8 -3 4 -0.49 3.46
8 -3 3 5.88 5.36
-8 3 -3 6.3 6.18
-8 3 -3 4.85 4.63
8 -3 3 -6.22 5.66
-8 3 -2 3.99 4.61
8 -3 2 3.39 4.29
-8 3 -2 11.61 7
8 -3 2 -0.77 3.83
8 -3 1 10.19 5.47
-8 3 -1 9.59 5
-8 3 -1 17.69 8.45
8 -3 1 4.3 3.97
-8 3 0 -0.19 3.37
8 -3 0 -4.55 5.46
8 -3 0 -8.79 5.78
-8 3 1 3.69 4.28
8 -3 -1 2.15 4.47
8 -3 -1 -7.53 5.61
-8 3 2 -0.39 3.32
8 -3 -2 7.68 5.4
8 -3 -2 -0.27 4.54
-8 3 3 5.07 4.45
8 -3 -3 4.25 4.3
8 -3 -3 -9.06 6.04
8 -3 -4 1.47 3.2
-8 3 4 2.97 4.39
8 -3 -4 -8.43 6.08
-8 3 5 0.2 3.25
8 -3 -5 0.84 3.44
8 -3 -5 -5.3 5.35
-8 3 6 12.43 6.24
-8 3 6 10.2 6.28
8 -3 -6 12.66 6.55
8 -3 -6 7.84 3.8
8 -3 -6 3.04 4.1
8 -3 -7 9.14 5.52
-8 3 7 13.13 6.96
-8 3 7 13.12 6.18
8 -3 -7 7.16 4.08
8 -3 -7 9.97 4.79
8 -3 -8 0.81 3.66
-8 3 8 5.53 5.27
-8 3 8 3.19 4.81
8 -3 -8 -0.91 2.82
-8 3 9 8.22 5.91
-8 3 9 1.52 3.35
8 -3 -9 1.56 2.94
-8 3 10 16.81 7.43
-8 3 10 7.26 5.43
8 -3 -10 6.74 4.21
-8 3 11 13.33 6.56
8 -3 -11 12.03 5.39
-8 3 12 10.3 5.88
8 -3 -12 -0.77 2.99
7 -3 7 -2.08 4.02
-7 3 -7 0 4.27
7 -3 6 3.96 4.45
-7 3 -6 10.02 6.82
-7 3 -5 7.34 5.38
-7 3 -5 -1.27 4.07
7 -3 5 -3.34 4.11
7 -3 5 -5.16 5.82
-7 3 -4 5.75 4.62
-7 3 -4 -1.02 4.23
7 -3 4 -4.42 3.51
7 -3 4 -0.29 3.8
-7 3 -3 -2.07 4.06
-7 3 -3 7.67 5.22
7 -3 3 1.81 3.49
7 -3 3 -1.41 4.81
-7 3 -2 11.83 6.79
7 -3 2 0 3.1
-7 3 -2 7.83 4.72
7 -3 2 2.93 4.04
-7 3 -1 18.31 6.51
7 -3 1 15.02 6.22
-7 3 -1 18.69 7.78
7 -3 1 5.9 4.59
-7 3 0 37.88 10.69
-7 3 0 33.22 8.19
7 -3 0 40.36 9.12
7 -3 0 28.5 6.32
7 -3 0 29.26 7.43
7 -3 -1 3.18 3.9
-7 3 1 1.76 3.61
7 -3 -1 2.13 2.61
7 -3 -1 -5.02 4.52
7 -3 -2 2.49 2.91
-7 3 2 0.89 3.36
7 -3 -2 1.69 2.28
7 -3 -2 7.14 3.85
7 -3 -2 -1.17 2.04
-7 3 3 2.24 3.27
7 -3 -3 4.73 3.19
7 -3 -3 5.49 3.82
7 -3 -3 6.28 2.92
7 -3 -3 0.06 3.96
-7 3 4 4.28 4.22
-7 3 4 2.72 3.56
7 -3 -4 0.28 2.38
7 -3 -4 -2.14 3.82
7 -3 -4 0.03 2.15
7 -3 -4 -6.33 4.61
7 -3 -5 -0.73 2.9
-7 3 5 0.39 2.98
-7 3 5 3.38 4.21
7 -3 -5 1.1 2.38
7 -3 -5 -1.08 3.39
7 -3 -6 43.43 7.92
-7 3 6 43.33 10.3
-7 3 6 47.1 9.87
7 -3 -6 51.5 8.87
7 -3 -7 30.82 6.77
-7 3 7 26.84 8.21
-7 3 7 29.34 7.99
7 -3 -7 24.82 6.28
7 -3 -8 1.95 2.97
-7 3 8 6.2 4.73
-7 3 8 -2.51 4.22
7 -3 -8 2.07 2.78
-7 3 9 20.26 6.95
-7 3 9 21.74 7.25
7 -3 -9 14.08 5.56
-7 3 10 8.7 5.52
-7 3 10 -1.15 3.17
7 -3 -10 1.84 2.77
-7 3 11 -1.49 3.24
-7 3 11 8.5 5.25
7 -3 -11 0.17 3.06
-7 3 12 -0.21 3.8
7 -3 -12 1.74 3.37
-7 3 13 2.95 4.36
7 -3 -13 4.58 4.67
6 -3 11 10.13 6.1
6 -3 10 9.62 5.9
-6 3 -10 -1.5 5.07
-6 3 -10 6.75 6.68
6 -3 10 3.38 3.86
6 -3 9 5.04 4.94
-6 3 -9 10.45 6.01
-6 3 -9 3.74 4.92
6 -3 9 0.41 3.66
6 -3 8 1.31 3.38
-6 3 -8 -2.53 4.34
6 -3 8 1.85 2.51
-6 3 -8 1.15 4.55
6 -3 7 17.31 6.89
-6 3 -7 10.5 5.38
-6 3 -7 10.48 6.58
6 -3 7 11.21 4.62
6 -3 6 0.2 3.2
-6 3 -6 0.49 3.66
6 -3 6 5.34 3.67
-6 3 -6 0.04 3.59
6 -3 5 9.13 4.86
6 -3 5 12.33 4.89
-6 3 -5 13.43 5.79
-6 3 -5 22.47 6.51
-6 3 -5 12.26 5.75
6 -3 5 10.72 4.28
-6 3 -4 11.42 6.5
-6 3 -4 17.45 5.85
6 -3 4 12.17 4.65
-6 3 -4 10.79 4.86
6 -3 4 12.3 4.78
6 -3 4 10.67 5.17
-6 3 -3 11.66 5.14
6 -3 3 6.35 3.97
6 -3 3 4.47 3.33
-6 3 -3 4.85 4.99
6 -3 3 6.26 3.94
-6 3 -2 8.89 5.29
-6 3 -2 3.24 3.36
6 -3 2 0.89 2.33
6 -3 2 3.85 2.89
6 -3 2 2.22 1.95
6 -3 2 0.06 3
-6 3 -1 0.76 3.04
-6 3 -1 0.89 2.98
6 -3 1 1.75 2.4
-6 3 -1 0.64 2.42
6 -3 1 -1.94 2.6
6 -3 1 0.08 1.48
6 -3 1 -8.87 5.15
-6 3 0 48.14 9.56
-6 3 0 33.95 7.85
-6 3 0 22.03 8.09
6 -3 0 26.84 5.97
6 -3 0 31.66 7.53
6 -3 0 14.75 4.28
6 -3 0 25.02 4.89
6 -3 0 41.58 8.48
6 -3 -1 14.21 4.92
-6 3 1 20.11 6.86
6 -3 -1 15.87 4.49
-6 3 1 17.99 5.68
6 -3 -1 14.01 4.36
6 -3 -1 16 3.94
-6 3 1 26.89 7.09
6 -3 -1 20 5.57
-6 3 2 55.38 9.75
-6 3 2 58.72 9.66
6 -3 -2 45.04 7.49
6 -3 -2 61.72 8.13
6 -3 -2 51.81 9.09
6 -3 -2 51.16 6.92
6 -3 -2 52.19 8.6
-6 3 3 35.51 7.84
-6 3 3 33.83 7.64
-6 3 3 27.41 7.26
6 -3 -3 23.73 5.25
6 -3 -3 26.67 5.45
6 -3 -3 27.62 6.28
-6 3 4 17.11 6.03
-6 3 4 13.85 5.38
-6 3 4 17.15 5.95
6 -3 -4 6.43 1.71
6 -3 -4 15.43 4.27
6 -3 -4 18.77 5.21
6 -3 -5 23.15 5.59
-6 3 5 16.89 6.12
6 -3 -5 16.39 4.04
-6 3 5 15.5 5.26
6 -3 -5 21.54 5.29
-6 3 5 23.44 6.58
6 -3 -6 14.56 4.43
-6 3 6 13.62 5.62
-6 3 6 11.54 5.49
6 -3 -6 12.62 4.22
6 -3 -7 32.34 6.15
-6 3 7 34.01 8.28
-6 3 7 32.11 7.56
6 -3 -7 26.25 6.08
-6 3 8 42.6 8.68
-6 3 8 33.36 8.6
6 -3 -8 26.56 6.38
6 -3 -8 43.01 6.93
-6 3 9 122.37 14.32
-6 3 9 108.22 15.02
6 -3 -9 121.12 13.4
6 -3 -9 125.09 10.9
-6 3 10 -2.73 4.61
6 -3 -10 4.98 3.91
-6 3 11 9.78 5.24
6 -3 -11 17.43 6.1
-6 3 12 0.06 4.11
6 -3 -12 -2.01 3.85
-6 3 13 0.82 4.2
6 -3 -13 6.24 4.3
-6 3 14 9.45 5.64
6 -3 -14 22.33 6.95
6 -3 -15 22.65 7.12
5 -3 13 -5.55 4.62
5 -3 13 4.2 5.53
5 -3 12 5.43 4.78
-5 3 -12 2.06 4.32
5 -3 12 7.44 5.3
-5 3 -12 6.74 6.27
5 -3 11 18.63 7.38
-5 3 -11 5.97 5.32
-5 3 -11 11.93 6.17
5 -3 11 9.47 5.33
5 -3 10 6.1 5.77
-5 3 -10 1.23 4.27
-5 3 -10 2.52 4.34
5 -3 10 2.52 2.93
5 -3 9 4.71 4.96
-5 3 -9 -2.02 4.25
-5 3 -9 -0.46 3.82
5 -3 9 1.77 2.95
5 -3 8 2.43 3.12
-5 3 -8 -0.15 3.9
-5 3 -8 1.39 2.98
5 -3 8 2.12 2.75
5 -3 7 16.81 6.13
-5 3 -7 13.35 6.68
5 -3 7 15.07 5.45
-5 3 -7 11.93 5.08
5 -3 7 16.19 5.58
5 -3 6 38.58 8.09
-5 3 -6 35.16 7.56
-5 3 -6 41.55 8.44
5 -3 6 38.96 8.02
-5 3 -6 46.23 10.08
5 -3 6 51.73 8.39
5 -3 5 34.81 7.71
-5 3 -5 32.78 8.64
-5 3 -5 32.04 6.88
5 -3 5 28.82 5.93
5 -3 5 29.77 6.91
-5 3 -5 29.83 6.67
5 -3 4 26.96 6.75
-5 3 -4 16.8 5.08
-5 3 -4 21.61 5.7
5 -3 4 18.88 5.18
-5 3 -4 20 6.48
5 -3 4 19.43 5.19
5 -3 3 -4.77 3.72
-5 3 -3 -0.73 3.45
-5 3 -3 1.15 2.44
-5 3 -3 3.48 3.75
-5 3 -3 0.07 2.18
5 -3 3 0.92 1.89
5 -3 3 -0.13 2.1
5 -3 2 -1.25 3.28
-5 3 -2 4.41 3.21
-5 3 -2 1.23 2.93
-5 3 -2 4.55 3.24
-5 3 -2 2.66 2.6
5 -3 2 3.1 3.1
5 -3 2 3.26 2.67
-5 3 -1 8.68 4.15
-5 3 -1 5.31 2.77
-5 3 -1 13.52 5.2
5 -3 1 3.17 2.28
5 -3 1 5.56 2.99
-5 3 -1 9.51 4.15
5 -3 1 7.15 3.51
-5 3 0 67.84 8.39
5 -3 0 78.92 8.67
-5 3 0 66.9 9.97
-5 3 0 78.96 10.11
-5 3 0 81.9 12.2
5 -3 0 71.23 9.1
5 -3 0 70.65 9.07
5 -3 0 76.13 9.51
5 -3 0 55.36 8.06
-5 3 1 94.01 12.91
-5 3 1 96.93 11.86
-5 3 1 99.77 11.28
5 -3 -1 79.35 10.05
5 -3 -1 96.91 9.25
5 -3 -1 92.99 8.71
-5 3 1 109.81 12.03
5 -3 -1 93.9 10.51
5 -3 -1 103.11 10.88
5 -3 -1 83.73 8.93
-5 3 2 91.8 11.5
-5 3 2 94.71 12.87
5 -3 -2 90.77 9.39
-5 3 2 91.32 10.97
5 -3 -2 85.29 8.6
-5 3 2 97.91 11.43
5 -3 -2 97.26 10.3
5 -3 -2 77.17 7.22
5 -3 -3 5.26 2.97
-5 3 3 6.45 3.59
-5 3 3 10.68 4.42
-5 3 3 7.75 3.74
5 -3 -3 5.07 2.27
5 -3 -3 6.42 2.06
5 -3 -3 4.13 1.73
5 -3 -3 6.88 2.94
5 -3 -4 39.54 6.42
-5 3 4 36.24 7.11
5 -3 -4 34.25 4.58
5 -3 -4 27.13 4.88
-5 3 4 42.53 7.78
5 -3 -4 31.63 3.87
-5 3 4 35.49 7.28
5 -3 -4 31.85 5.65
-5 3 5 104.1 12.15
-5 3 5 96.62 11.21
-5 3 5 98.57 11.87
5 -3 -5 74.18 8.59
5 -3 -5 75 6.37
5 -3 -5 93.16 10.03
5 -3 -5 102.47 9.96
5 -3 -5 92.25 5.41
5 -3 -6 20.26 4.62
-5 3 6 18.67 5.5
-5 3 6 15.71 5.1
5 -3 -6 13.23 1.33
-5 3 6 21.84 6.05
5 -3 -6 13.57 3.84
5 -3 -6 18.53 4.96
-5 3 7 95.35 12.18
-5 3 7 96.45 11.73
-5 3 7 97.03 11.65
5 -3 -7 74.41 7.7
5 -3 -7 95.79 11.06
5 -3 -7 101.02 9.33
5 -3 -8 19.59 3.87
-5 3 8 21.47 5.98
5 -3 -8 15.76 3.49
5 -3 -8 20.73 5.58
-5 3 8 21.07 5.82
5 -3 -9 13.35 3.28
-5 3 9 16.49 5.78
-5 3 9 14.8 4.95
5 -3 -9 18.84 5.59
-5 3 10 13.48 4.92
5 -3 -10 14.82 5.18
-5 3 11 83.95 12.99
5 -3 -11 95.11 12.66
-5 3 12 8.98 4.87
5 -3 -12 10.36 4.34
-5 3 13 1.93 3.77
5 -3 -13 -0.85 2.91
-5 3 14 -2.05 3.99
5 -3 -14 5.47 4.18
-5 3 15 -0.13 3.39
5 -3 -15 1.83 3.6
-5 3 16 21.51 8.76
4 -3 14 4.09 4.23
4 -3 13 7.66 4.7
-4 3 -13 8.45 4.68
4 -3 13 11.41 6.69
-4 3 -13 5.46 5
4 -3 12 2 3.29
4 -3 12 1.8 2.84
-4 3 -12 -4.37 4.23
-4 3 -12 1.85 4.84
4 -3 11 9.66 4.38
-4 3 -11 11.68 5.99
-4 3 -11 1.99 4.13
4 -3 11 5.8 4.8
4 -3 10 10.84 4.69
-4 3 -10 2.77 5.58
-4 3 -10 0.42 3.56
4 -3 10 1.07 3.29
4 -3 9 4.08 4.12
-4 3 -9 2.79 3.3
4 -3 9 4.09 3.87
-4 3 -9 -1.5 4
-4 3 -9 2.27 2.13
4 -3 8 10.53 4.82
-4 3 -8 4.03 4.5
-4 3 -8 0.42 3.07
4 -3 8 5.16 3.74
-4 3 -8 4.56 2.73
4 -3 8 -1.17 2.79
4 -3 7 23.69 6.93
4 -3 7 19.87 4.43
-4 3 -7 18.07 6.59
-4 3 -7 19.65 5.15
-4 3 -7 23.13 6.25
4 -3 7 20.89 5.98
-4 3 -7 22.67 6.16
4 -3 6 15.13 5.07
-4 3 -6 12.03 3.83
-4 3 -6 9.95 3.96
4 -3 6 15.88 4.7
-4 3 -6 15.5 5.53
-4 3 -6 12.66 4.38
4 -3 6 17.09 4.83
-4 3 -5 53.11 7.92
4 -3 5 59.18 8.86
-4 3 -5 62.57 8.86
-4 3 -5 67.83 9.46
4 -3 5 55.05 7.09
-4 3 -5 60.23 10.45
4 -3 5 72.21 9.92
-4 3 -4 157.79 13.4
-4 3 -4 157.7 13.89
-4 3 -4 156.96 16.01
4 -3 4 155.08 13.89
-4 3 -4 159.27 13.47
4 -3 4 154.99 11.55
4 -3 4 175.37 14.58
-4 3 -3 109.61 11.28
-4 3 -3 107.66 10.74
4 -3 3 100.8 9.15
-4 3 -3 100.12 10.38
4 -3 3 106.25 11.16
-4 3 -3 105.1 13.03
4 -3 3 123.53 12.11
-4 3 -2 98.66 12.27
-4 3 -2 96.65 9.86
4 -3 2 102.85 10.87
-4 3 -2 93.79 9.59
4 -3 2 108.93 9.64
-4 3 -2 103.25 10.88
4 -3 2 115.71 11.29
4 -3 1 0.34 2.37
-4 3 -1 -2.86 3.31
-4 3 -1 0.41 1.79
-4 3 -1 0.86 2.53
4 -3 1 1.23 1.48
4 -3 1 0.24 1.68
4 -3 1 2.98 2.65
-4 3 -1 -0.59 1.63
4 -3 1 0.34 1.42
4 -3 0 4.2 2.55
-4 3 0 3.47 2.26
-4 3 0 6.34 2.74
-4 3 0 3 1.79
4 -3 0 2.18 1.56
4 -3 0 2.46 2.23
4 -3 0 3.95 2.39
-4 3 0 1.84 1.49
-4 3 0 4.65 3.5
-4 3 1 63.42 9.32
-4 3 1 60.22 8.27
-4 3 1 56.93 6.38
-4 3 1 52.82 5.98
4 -3 -1 58 7.11
-4 3 1 60.01 7.83
4 -3 -1 51.93 5.43
4 -3 -1 63.64 7.75
4 -3 -1 48.72 5.78
-4 3 2 184.07 15.46
-4 3 2 189.01 14.4
-4 3 2 165.53 10
4 -3 -2 178.61 9.16
-4 3 2 169.51 10.08
4 -3 -2 182.94 12.99
4 -3 -2 164.99 10.05
-4 3 2 190.85 14.15
4 -3 -2 198.36 13.31
4 -3 -2 168.85 8.4
4 -3 -3 179.6 10.26
-4 3 3 187.19 14.46
4 -3 -3 183.68 8.19
-4 3 3 175.75 9.48
-4 3 3 172.42 12.71
4 -3 -3 169.38 13.11
-4 3 3 192.95 14.5
4 -3 -3 179.1 12.47
4 -3 -3 204.22 12.95
-4 3 4 698.85 27.81
-4 3 4 699.45 24.6
4 -3 -4 662.02 12.5
-4 3 4 604.3 15.91
4 -3 -4 608.63 19.88
4 -3 -4 634.27 25.65
-4 3 4 723.91 28.37
4 -3 -4 690.3 25.08
4 -3 -4 766.41 24.31
4 -3 -5 3.52 2.5
-4 3 5 2.38 2.18
-4 3 5 2.39 2.28
-4 3 5 1.85 0.99
-4 3 5 2.01 1.89
-4 3 5 6.43 2.9
4 -3 -5 1.79 1.58
4 -3 -5 1.32 1.7
4 -3 -6 3.93 1.94
-4 3 6 3.28 2.47
-4 3 6 2.05 1.67
-4 3 6 1.44 0.76
4 -3 -6 2.65 2.02
-4 3 6 0.82 1.56
4 -3 -6 0.2 2.39
4 -3 -7 2.51 1.68
-4 3 7 1.27 0.44
-4 3 7 1.96 1.37
4 -3 -7 3.44 2.42
4 -3 -7 1.02 2.06
-4 3 7 3.54 2.87
-4 3 7 3.12 2.07
-4 3 8 15.07 3.61
4 -3 -8 19.55 4.31
-4 3 8 20.92 5.71
4 -3 -8 20.05 3.59
-4 3 8 22.2 5.34
4 -3 -8 18.21 5.1
-4 3 9 277.58 18.02
-4 3 9 248.64 14
-4 3 9 275.18 20.13
4 -3 -9 279.48 19.07
-4 3 10 90.86 12.19
-4 3 10 88.94 10.33
-4 3 10 76.04 7.7
4 -3 -10 101.04 12.04
-4 3 11 71.72 9.17
-4 3 11 63.13 6.98
-4 3 11 68.98 11.36
4 -3 -11 76.41 10.99
-4 3 12 -2.34 2.13
-4 3 12 3.48 2.88
4 -3 -12 3.13 3.37
-4 3 13 30.3 8.06
4 -3 -13 35.27 8.31
-4 3 14 1.47 3.27
4 -3 -14 6.02 4.42
-4 3 15 23.49 7.92
4 -3 -15 16.04 6.23
-4 3 16 29.43 9.24
4 -3 -16 22.88 7.54
-3 3 -15 0.47 3.78
3 -3 15 4.24 4.52
-3 3 -15 5.53 6.1
-3 3 -14 5.65 5.51
-3 3 -14 1.87 3.33
3 -3 14 -0.32 3.42
3 -3 13 6.07 4.3
-3 3 -13 5.99 5.29
-3 3 -13 2.24 3.19
3 -3 13 1.22 3.3
3 -3 12 35.54 7.62
-3 3 -12 27.31 8.74
-3 3 -12 28.81 7.74
3 -3 12 26.5 7.96
-3 3 -11 79.52 13.21
3 -3 11 93.99 14.06
-3 3 -11 86.73 12.86
3 -3 11 101.66 12.18
-3 3 -10 43.82 8.56
3 -3 10 50.55 5.6
-3 3 -10 47.23 9.32
3 -3 10 51.92 10.02
-3 3 -10 48.11 6.79
-3 3 -10 40.37 9.57
3 -3 10 59.44 9.26
3 -3 9 43.83 7.87
-3 3 -9 31.85 8.44
-3 3 -9 42.59 6.66
3 -3 9 42.87 8.83
-3 3 -9 52.79 9.04
-3 3 -9 42.66 8.49
3 -3 9 42.16 5.27
3 -3 8 -0.43 2.51
-3 3 -8 3.15 3.2
3 -3 8 1.78 3.07
-3 3 -8 1.88 3.75
3 -3 8 -0.73 1.52
-3 3 -8 1.29 2.57
-3 3 -8 -0.96 1.66
3 -3 7 1.93 2.97
-3 3 -7 1.41 2.43
-3 3 -7 0.78 1.71
3 -3 7 0.36 2.11
-3 3 -7 1.52 3.05
-3 3 -7 1.02 2.07
3 -3 7 0.73 1.18
3 -3 7 -3.56 2.66
-3 3 -6 78.11 8.68
-3 3 -6 81.74 10.42
3 -3 6 57.75 9.07
-3 3 -6 86.78 10.74
3 -3 6 56.39 5.9
3 -3 6 44.9 5.47
-3 3 -6 47.53 9.16
3 -3 6 67.58 9.27
-3 3 -5 71.82 7.92
3 -3 5 79.24 10.03
-3 3 -5 82.26 9.52
-3 3 -5 81.88 9.68
-3 3 -5 77.67 10.67
3 -3 5 79.74 6.7
3 -3 5 76.3 6.6
3 -3 5 89.81 10.08
-3 3 -4 202.06 16.41
-3 3 -4 219.68 13.76
3 -3 4 222.84 16.12
-3 3 -4 219.98 14.54
-3 3 -4 218.67 14.98
3 -3 4 213.8 10.54
3 -3 4 214.09 10.86
3 -3 4 240.83 15.52
-3 3 -3 205.22 13.4
-3 3 -3 213.19 13.8
3 -3 3 205.22 15.2
-3 3 -3 217.97 13.87
3 -3 3 207.8 10.47
-3 3 -3 204.8 16.13
3 -3 3 203.5 10.46
3 -3 3 247.34 15.46
3 -3 2 39.13 6.59
-3 3 -2 42.71 7.11
-3 3 -2 48.41 6.28
-3 3 -2 47.75 6.34
3 -3 2 46.87 5.23
-3 3 -2 47.68 6.17
3 -3 2 46.02 4.93
-3 3 -2 45.36 6.33
3 -3 2 47.25 7.12
3 -3 2 54.58 7.38
3 -3 1 100.85 9.24
-3 3 -1 122.38 11.57
-3 3 -1 123.88 9.18
3 -3 1 123.41 11.46
-3 3 -1 116.85 9.16
3 -3 1 127.77 10.32
3 -3 1 118.9 7.94
-3 3 -1 113.34 10.01
-3 3 -1 123.79 9.14
-3 3 -1 120.92 10.1
3 -3 1 125.6 10.61
3 -3 0 24.27 4.08
-3 3 0 27.29 4.98
-3 3 0 30.77 4.93
-3 3 0 27.95 4.21
3 -3 0 25.7 3.89
-3 3 0 26.16 5.5
-3 3 0 25.56 4.11
3 -3 0 28.46 5.25
3 -3 0 21.36 3.43
-3 3 0 29.53 4.77
3 -3 0 28.28 5.41
3 -3 -1 47.42 4.83
-3 3 1 54.09 7.21
-3 3 1 54.56 5.11
-3 3 1 61.82 6.85
-3 3 1 54.5 6.74
3 -3 -1 55.47 7.15
3 -3 -1 57.71 5.05
-3 3 1 57.03 5.77
3 -3 -1 53.78 5.49
3 -3 -1 56.89 6.09
-3 3 1 57.74 6.43
3 -3 -1 59.16 6.71
3 -3 -2 292.72 9.45
3 -3 -2 327.77 14.58
-3 3 2 353.21 17.91
-3 3 2 350.3 17.21
-3 3 2 359.29 16.09
-3 3 2 330.06 12.64
3 -3 -2 338.38 10.7
3 -3 -2 339.82 18.05
-3 3 2 365.17 16.77
-3 3 2 317.97 11.28
3 -3 -2 328.66 15.06
3 -3 -2 388.71 16.37
-3 3 3 91.36 8.77
3 -3 -3 76.31 7.38
-3 3 3 88.58 8.67
-3 3 3 76.91 4.81
-3 3 3 96.4 8.17
3 -3 -3 83.09 9.38
3 -3 -3 75.16 7.36
-3 3 3 84.85 6.07
3 -3 -3 94.62 7.92
3 -3 -4 65.46 6.96
-3 3 4 72.32 7.19
-3 3 4 66.84 7.57
-3 3 4 67.99 5.28
3 -3 -4 71.94 8.68
-3 3 4 76.66 8.32
3 -3 -4 73.39 8.13
3 -3 -4 74.47 6.81
3 -3 -5 433.55 17.81
-3 3 5 468.55 20.15
-3 3 5 470.23 17.32
-3 3 5 433.82 12.94
3 -3 -5 454.46 20.97
-3 3 5 488.17 21.5
3 -3 -5 478.83 21
3 -3 -5 463.13 16.26
-3 3 6 260.62 16.39
-3 3 6 256.03 12.84
-3 3 6 241.22 14.66
-3 3 6 231.94 9.85
3 -3 -6 249.74 15.44
3 -3 -6 269.34 16.54
3 -3 -6 239.91 11.46
-3 3 7 11.07 2.01
-3 3 7 6.81 2.13
-3 3 7 12.33 3.61
-3 3 7 14.1 3.49
3 -3 -7 9.65 3.39
-3 3 7 13.07 3
3 -3 -7 8.86 3.6
-3 3 8 4.97 2.34
-3 3 8 5.67 2.03
-3 3 8 5.31 2.68
-3 3 8 10.85 3.03
3 -3 -8 9.03 3.29
3 -3 -8 3.86 2.13
-3 3 8 2.39 1.21
-3 3 9 11.3 4.29
-3 3 9 14.66 3.94
-3 3 9 19.05 3.72
-3 3 9 8.63 2.89
3 -3 -9 17.47 5.38
-3 3 10 -2.23 3.22
-3 3 10 2.18 1.78
-3 3 10 0.95 1.62
3 -3 -10 0.61 2.23
-3 3 11 184.16 10.99
-3 3 11 196.01 13.47
-3 3 11 202.66 17.98
3 -3 -11 229.15 17.67
-3 3 12 121.97 8.9
-3 3 12 128.21 10.69
-3 3 12 127.78 14.86
3 -3 -12 151.4 15.13
-3 3 13 92.44 12.97
3 -3 -13 102.2 13.38
-3 3 14 0.72 2.93
3 -3 -14 1.34 2.97
-3 3 15 -0.42 3.52
3 -3 -15 0.52 2.89
-3 3 16 -2.37 4.32
3 -3 -16 2.28 4.17
-3 3 17 25.58 8.24
3 -3 -17 27.53 7.98
-2 3 -16 -1.77 4.71
2 -3 16 -3.39 4.83
-2 3 -15 -8.37 6.37
-2 3 -15 2.38 3.35
2 -3 15 -0.56 3.73
-2 3 -14 5.5 4.5
2 -3 14 2.63 4.46
-2 3 -14 -8.28 6.56
-2 3 -13 8.81 5.74
-2 3 -13 -4.44 5.89
-2 3 -13 3.64 3.52
2 -3 13 5.79 3.62
2 -3 13 3.49 4.11
2 -3 12 5.09 3.42
-2 3 -12 -5.7 5.45
-2 3 -12 9.13 4.79
2 -3 12 1.8 3.18
-2 3 -12 6.49 4.13
2 -3 11 3.18 2.84
-2 3 -11 3.07 3.43
2 -3 11 7.11 4.93
-2 3 -11 -2.56 3.27
-2 3 -11 -7.29 5.47
2 -3 11 1.18 1.28
2 -3 10 28.71 5.93
-2 3 -10 28.29 6.92
-2 3 -10 16.76 5.42
-2 3 -10 29.52 4.71
2 -3 10 23.35 3
-2 3 -10 33.11 7.2
2 -3 10 24.52 6.81
-2 3 -9 82.9 10.97
-2 3 -9 115.56 9.21
2 -3 9 126.62 14.62
-2 3 -9 121.69 12.97
2 -3 9 105.05 6.11
-2 3 -9 113.39 12.65
2 -3 9 126.11 11.69
-2 3 -8 124.9 9.53
-2 3 -8 127.89 12.69
2 -3 8 139.13 14.26
2 -3 8 118.7 5.88
-2 3 -8 136.23 13.22
-2 3 -8 94.86 5.43
-2 3 -8 88.46 11.21
2 -3 8 150.03 12.42
-2 3 -7 37.75 5.24
-2 3 -7 24.24 5.47
-2 3 -7 36.1 6.38
2 -3 7 43.75 7.93
2 -3 7 41.17 3.27
-2 3 -7 41.44 7
2 -3 7 43.64 6.72
2 -3 6 22.68 4.83
-2 3 -6 11.86 3.64
-2 3 -6 18.24 4.33
2 -3 6 19.8 4.65
-2 3 -6 16.47 4.05
-2 3 -6 19.87 3.83
2 -3 6 20.47 2.63
-2 3 -5 51.08 6.6
-2 3 -5 30.69 5.86
-2 3 -5 47.58 5.81
2 -3 5 51.6 7.6
-2 3 -5 49.36 6.92
2 -3 5 48.86 3.74
2 -3 5 46.66 2.94
2 -3 5 48.63 6.64
-2 3 -4 171.91 13.42
-2 3 -4 224.86 12.77
2 -3 4 226.43 15.63
-2 3 -4 217.9 13.51
2 -3 4 214.01 7.17
2 -3 4 208.01 6.69
-2 3 -4 211.84 11.81
-2 3 -4 216.25 13.19
2 -3 4 231.86 13.85
-2 3 -3 375.16 18.6
-2 3 -3 416.77 16.19
-2 3 -3 406.25 17.17
-2 3 -3 435.96 17.19
2 -3 3 436.47 21.13
2 -3 3 405.12 10.33
2 -3 3 451.28 19.51
-2 3 -3 411.54 17.75
2 -3 3 408.18 9.69
2 -3 3 457.39 18.88
-2 3 -2 960.6 28.48
2 -3 2 1027.24 23.56
-2 3 -2 954.86 24.43
-2 3 -2 977.9 24.75
-2 3 -2 987.61 25.04
2 -3 2 991.07 31.37
-2 3 -2 951.35 25.33
2 -3 2 993.05 27.83
2 -3 2 961.59 15.5
-2 3 -2 1009.7 18.83
2 -3 2 1026.78 27.28
-2 3 -1 423.92 17.94
-2 3 -1 437.83 16.62
-2 3 -1 450.54 16.4
-2 3 -1 426.96 15.11
2 -3 1 419.98 14.98
2 -3 1 416.82 20.64
2 -3 1 448.18 18.67
2 -3 1 426.2 10.89
-2 3 -1 423.06 16.15
-2 3 -1 442.95 13.65
2 -3 1 447.5 17.74
2 -3 1 430.71 14.6
2 -3 0 20.68 4
2 -3 0 20.46 2.92
-2 3 0 27.51 4.17
-2 3 0 25.28 3.47
2 -3 0 23.2 3.26
-2 3 0 24.4 4.18
2 -3 0 28.79 5.25
-2 3 0 24.82 3.87
2 -3 0 23.21 4.3
-2 3 0 25.87 3.53
-2 3 0 27.06 4.49
2 -3 0 22.65 2.79
-2 3 1 62.47 5.82
-2 3 1 68.08 6.83
2 -3 -1 64.23 5.34
-2 3 1 63.57 4.95
2 -3 -1 59.89 4.63
2 -3 -1 58.69 7.42
-2 3 1 62.65 6.08
2 -3 -1 56.51 6.89
-2 3 1 62.25 5.88
-2 3 1 61.82 6.2
2 -3 -1 64.2 6.53
-2 3 2 21.6 3.46
-2 3 2 21.85 2.7
2 -3 -2 20.38 2.96
-2 3 2 24.12 3.77
-2 3 2 22.77 3.6
2 -3 -2 19.3 4.2
-2 3 2 25.47 4.31
-2 3 2 22.64 3.71
2 -3 -2 22.04 3.1
-2 3 2 21.86 3.83
2 -3 -2 19.6 3.28
2 -3 -2 24.7 4.22
-2 3 3 55.85 5.55
-2 3 3 57.49 6.26
-2 3 3 50.15 3.42
2 -3 -3 47.92 7.07
-2 3 3 53.89 5.95
-2 3 3 54.83 6.21
2 -3 -3 49.05 4.58
-2 3 3 54.64 5.77
2 -3 -3 51.14 4.88
2 -3 -4 1523.97 25.98
-2 3 4 1636.33 29.55
-2 3 4 1540.8 31.2
-2 3 4 1512.4 16.59
-2 3 4 1666.96 34.86
-2 3 4 1523 34.81
2 -3 -4 1573.06 39.64
-2 3 4 1518.2 28.34
2 -3 -4 1602.36 28.32
-2 3 5 303.64 14.02
-2 3 5 263.93 7.23
2 -3 -5 297.15 11.91
-2 3 5 327.58 13.45
-2 3 5 333.43 16.41
2 -3 -5 319.15 17.79
-2 3 5 334.76 17.4
2 -3 -5 331.52 17.05
-2 3 5 300.31 12.17
-2 3 5 321.66 13.34
2 -3 -5 327.25 13.79
2 -3 -6 65.15 6.64
-2 3 6 70.24 6.91
-2 3 6 64.87 3.36
-2 3 6 76.83 8.41
2 -3 -6 70.62 8.64
-2 3 6 74.71 6.55
2 -3 -6 71.21 8.22
-2 3 6 64.8 5.5
-2 3 6 63.94 6.63
-2 3 7 1.59 1.23
-2 3 7 1.82 1.5
2 -3 -7 1.47 1.25
-2 3 7 0.72 1.14
-2 3 7 3.01 1.66
-2 3 7 0.34 0.5
2 -3 -7 2.36 1.84
2 -3 -7 2.16 2.37
-2 3 7 6.29 3.01
-2 3 8 10.68 3.52
-2 3 8 7.62 2.53
-2 3 8 12.18 3.25
2 -3 -8 13.48 3.73
-2 3 8 10.89 1.86
2 -3 -8 9.92 3.51
-2 3 8 13.54 4.42
-2 3 8 7.58 1.89
2 -3 -9 14.61 4.21
-2 3 9 12.63 2.84
-2 3 9 16.1 2.4
-2 3 9 17.4 3.59
2 -3 -9 10.51 3.67
-2 3 9 16.57 4.81
-2 3 10 91.69 8.12
-2 3 10 98.78 11.54
2 -3 -10 102.86 11.44
-2 3 10 91.66 7.75
-2 3 11 119.29 8.89
-2 3 11 110.69 8.92
-2 3 11 133.33 13.88
2 -3 -11 143.59 13.58
-2 3 12 37.6 5.14
2 -3 -12 46.96 8.37
-2 3 12 44 8.62
-2 3 13 22.7 7.05
-2 3 13 19.65 3.83
2 -3 -13 20.56 6.45
-2 3 14 25.84 7.87
2 -3 -14 22.15 6.1
-2 3 15 13.4 6.34
2 -3 -15 21.25 6.49
-2 3 16 7.13 4.77
2 -3 -16 4.48 3.76
-2 3 17 0.4 3.56
2 -3 -17 7.52 4.57
-1 3 -17 26.01 8.59
-1 3 -16 14.24 5.97
-1 3 -16 21.17 8.32
1 -3 16 29.92 10.09
-1 3 -15 18.89 7.15
-1 3 -15 11.85 5.93
1 -3 15 30.47 9.28
-1 3 -14 14.12 6.06
-1 3 -14 10.51 5.65
1 -3 14 17.15 6.94
-1 3 -14 11.91 4.8
-1 3 -13 15.23 6.02
1 -3 13 13.07 5.73
-1 3 -13 11.62 4.58
-1 3 -13 18 6.78
1 -3 12 5.34 1.68
-1 3 -12 17.97 6.7
-1 3 -12 14.33 6.17
1 -3 12 11.03 5.66
-1 3 -12 6.89 3.73
-1 3 -11 84.1 11.23
-1 3 -11 81.12 11.84
1 -3 11 92.06 13.41
-1 3 -11 90.74 11.84
1 -3 11 83.08 6.51
-1 3 -11 78.77 6.77
-1 3 -10 111.37 12.45
-1 3 -10 118.27 8.33
1 -3 10 82.69 7.16
1 -3 10 129.41 14.47
-1 3 -10 105.6 13.05
-1 3 -10 125.16 12.96
1 -3 10 110.7 6.92
1 -3 10 121.27 11.27
1 -3 9 139.17 7
-1 3 -9 148.23 9.34
-1 3 -9 161.39 13.92
1 -3 9 162.71 15.69
-1 3 -9 153.49 13.64
-1 3 -9 133.82 13.88
1 -3 9 142.73 11.79
1 -3 8 31.85 5.62
-1 3 -8 39.42 7.49
-1 3 -8 37.26 6.5
1 -3 8 36.97 7.33
1 -3 8 32.28 2.83
-1 3 -8 34.96 4.81
-1 3 -8 35.13 6.25
1 -3 7 18.71 4.21
-1 3 -7 22.02 5.7
-1 3 -7 18.58 4.56
-1 3 -7 18.1 3.25
1 -3 7 21.07 5.48
1 -3 7 19.06 1.78
-1 3 -7 19.65 4.71
-1 3 -6 59.37 7.67
-1 3 -6 56.14 8.15
-1 3 -6 61.07 6.14
1 -3 6 71.21 9.13
-1 3 -6 60.95 7.78
1 -3 6 60.14 7.19
-1 3 -5 50.07 5.32
-1 3 -5 44.08 6.34
1 -3 5 47.33 7.09
-1 3 -5 40.98 6.52
-1 3 -5 50.55 6.66
1 -3 5 51.1 6.6
-1 3 -4 153.63 10.91
-1 3 -4 154.57 10.79
1 -3 4 161.91 12.79
-1 3 -4 138.26 10.48
1 -3 4 169.6 11.8
-1 3 -4 163.45 9.19
1 -3 4 156.28 11
-1 3 -3 553.74 16.4
-1 3 -3 535.15 18.9
1 -3 3 564.87 23.53
1 -3 3 571.88 20.97
-1 3 -3 555.13 19.94
1 -3 3 554.68 20
1 -3 2 56.27 7.49
-1 3 -2 58.37 6.01
1 -3 2 60.76 7.4
-1 3 -2 54.58 6.37
-1 3 -2 54.63 2.98
1 -3 2 43.54 3.37
-1 3 -2 52.55 4.98
-1 3 -2 40.55 4.85
-1 3 -1 679.51 18.11
-1 3 -1 651.94 19.38
1 -3 1 682.33 23.99
-1 3 -1 647.69 12.61
-1 3 -1 680.38 22.21
1 -3 1 642.26 23.37
1 -3 1 632.53 14.6
-1 3 0 668.57 16.33
-1 3 0 706.18 18.81
-1 3 0 689.18 19.59
-1 3 0 697.71 15.15
1 -3 0 722.59 26.66
-1 3 0 710.06 23.79
1 -3 0 632.38 25.21
1 -3 0 708.9 17.24
-1 3 0 695.92 21.92
-1 3 1 258.41 8.84
1 -3 -1 274.58 7.1
-1 3 1 237.91 11.32
-1 3 1 243.1 9.96
1 -3 -1 267.59 17.13
-1 3 1 250.03 15.29
1 -3 -1 270.1 15.36
1 -3 -1 258.09 11.51
-1 3 1 246.72 13.27
1 -3 -2 1.69 1.48
1 -3 -2 0.7 1.25
1 -3 -2 1.02 0.44
-1 3 2 0.76 1.31
-1 3 2 0.91 1.03
1 -3 -2 0.39 1.81
-1 3 2 0.19 2.69
-1 3 2 1.33 1
-1 3 3 197.92 10.68
1 -3 -3 183.58 4.85
1 -3 -3 209.4 14.83
-1 3 3 184.8 11.36
1 -3 -3 205.16 13.08
-1 3 4 0.28 1.24
-1 3 4 -2.01 2.25
1 -3 -4 1.48 0.64
-1 3 4 1.85 1.9
1 -3 -4 1.33 2
1 -3 -4 1.96 1.69
-1 3 4 1.65 1.71
-1 3 5 203.85 12.23
-1 3 5 197.88 12.38
1 -3 -5 222.82 15.92
1 -3 -5 225.02 13.57
-1 3 5 221.26 14.17
1 -3 -5 221.24 15.01
-1 3 6 697.03 19.39
-1 3 6 646.91 23.6
1 -3 -6 706.36 28.55
1 -3 -6 714.67 24.66
-1 3 6 712.17 27.34
1 -3 -6 731.74 28.63
1 -3 -7 583.12 26.68
-1 3 7 528.26 17.12
-1 3 7 552.11 17.81
-1 3 7 507.89 22.14
1 -3 -7 578.07 26.5
1 -3 -7 563.64 22.72
1 -3 -8 292.92 19.8
-1 3 8 252.06 11.88
-1 3 8 286.33 13.3
-1 3 8 256.63 16.5
1 -3 -8 289.37 16.86
1 -3 -9 8.42 3.89
-1 3 9 7.49 2.44
-1 3 9 6.97 2.47
1 -3 -9 7.87 3.31
-1 3 9 1.02 2.4
1 -3 -10 14.94 5.03
-1 3 10 10.55 2.73
1 -3 -10 11.73 3.81
-1 3 10 3.66 2.34
1 -3 -11 48.11 9.57
1 -3 -11 47.19 6.04
-1 3 11 30.69 4.05
1 -3 -11 43.2 7.38
-1 3 11 34.92 7.26
1 -3 -12 81.98 12.94
1 -3 -12 67.88 7.35
-1 3 12 75.96 11.69
1 -3 -12 77.58 10.15
-1 3 12 72.11 8.4
1 -3 -13 207.57 21.11
1 -3 -13 167.87 11.9
-1 3 13 143.48 11.7
-1 3 13 205.43 19.27
1 -3 -13 201.78 17.09
1 -3 -14 65.51 7.96
-1 3 14 84.68 13.15
1 -3 -14 82.74 11.22
1 -3 -15 8.35 4.13
-1 3 15 7.42 4.95
1 -3 -16 -1.78 2.77
-1 3 16 1.03 4.55
1 -3 -17 4.36 4.09
1 -3 -18 5.4 4.06
0 3 -18 4.43 4.87
0 3 -17 10.37 7.45
0 3 -17 3.88 3.25
0 -3 17 6.73 5.67
0 -3 16 -0.03 3.91
0 3 -16 0.91 3.23
0 3 -16 4.58 4.64
0 -3 15 12.12 5.91
0 3 -15 17.75 6.74
0 3 -15 5.95 4.2
0 3 -14 115.71 16.49
0 3 -14 72.07 11.59
0 -3 14 86.08 14.31
0 3 -14 78.08 11.61
0 3 -13 10.02 4.55
0 3 -13 14.43 5.31
0 -3 13 16.4 6.2
0 3 -12 66.37 10.24
0 -3 12 74.73 12.03
0 3 -12 73.92 10.57
0 -3 12 72.2 7.32
0 3 -11 -0.62 2.55
0 -3 11 -0.09 2.63
0 -3 11 0.33 1.25
0 3 -11 -2.3 2.89
0 3 -10 26.54 5.9
0 -3 10 24.18 6.33
0 -3 10 21.31 3.39
0 3 -10 23.45 5.47
0 3 -9 163.92 13.48
0 -3 9 158.58 8.39
0 3 -9 165.47 14.02
0 -3 9 167.63 15.41
0 3 -9 149.35 8.07
0 3 -8 368.38 13.59
0 3 -8 367.33 19.73
0 -3 8 367.52 21.88
0 3 -8 372.24 19.19
0 -3 8 354.91 11.23
0 3 -8 355.09 10.87
0 3 -7 425.82 20.31
0 -3 7 423.99 22.19
0 3 -7 411.75 8.55
0 3 -7 424.75 19.76
0 -3 7 412.99 10.59
0 3 -7 431.03 14.17
0 3 -7 374.96 9.33
0 3 -6 128.91 7.56
0 3 -6 133.13 11.22
0 -3 6 135.98 12.02
0 -3 6 144.7 11.12
0 3 -6 126.02 4.06
0 3 -6 136.14 10.9
0 3 -5 88.84 6.23
0 3 -5 85.5 8.9
0 -3 5 89.02 9.51
0 -3 5 96.78 8.77
0 3 -5 88.98 8.7
0 3 -5 100 3.83
0 3 -4 3.89 0.82
0 3 -4 5.93 2.09
0 3 -4 2.02 0.78
0 3 -4 3.77 2.4
0 -3 4 4.02 2.41
0 -3 4 6.71 2.89
0 3 -4 5.17 2.37
0 -3 3 41.65 6.22
0 3 -3 40.06 4.57
0 3 -3 38.3 6.12
0 -3 3 43.18 6.51
0 -3 3 41.95 3.51
0 3 -3 43.32 6.19
0 3 -3 40.56 3.29
0 3 -3 37.34 3.68
0 3 -2 869.45 21.7
0 -3 2 1004.17 29.58
0 -3 2 1018.51 30.43
0 3 -2 1019.62 30.95
0 -3 2 914.33 18.89
0 3 -2 1100.92 22.81
0 -3 1 955.65 31.37
0 3 -1 961.54 31.86
0 -3 1 917.05 21.76
0 -3 0 650.14 26.96
0 3 0 680.73 28.27
0 -3 0 693.59 21.26
0 3 0 749.78 22.95
0 -3 0 663.97 27.97
0 -3 -1 322.39 18.87
0 -3 -1 362.73 16.97
0 -3 -1 322.54 19
0 -3 -2 111.07 11.4
0 -3 -2 103.24 9.71
0 -3 -2 106.96 11.14
0 3 2 116.04 10.75
0 3 3 106.16 8.86
0 -3 -3 100.91 10.82
0 3 3 95.53 9.94
0 -3 -3 99.05 11.06
0 3 3 102.95 10.77
0 3 4 109.99 11.52
0 3 4 121.82 10.13
0 -3 -4 125.03 12.22
0 -3 -4 119.79 12.45
0 3 5 269.32 18.64
0 -3 -5 340.64 20.32
0 3 5 302.7 16.19
0 -3 -5 304.68 8.1
0 -3 -5 336.68 15.95
0 -3 -5 358.25 22.34
0 3 6 159.03 14.64
0 -3 -6 234.47 17.45
0 -3 -6 222.13 13.34
0 -3 -6 199.56 7.66
0 3 6 180.34 13.1
0 -3 -6 237.02 18.91
0 -3 -7 37.86 7.78
0 3 7 21.84 5.72
0 -3 -7 32.24 5.42
0 -3 -7 22.38 2.84
0 3 7 27.79 5.68
0 -3 -8 10.59 4.9
0 -3 -8 5.47 1.13
0 3 8 7.7 3.38
0 -3 -8 8.67 3.36
0 -3 -9 87.56 12.91
0 -3 -9 61.49 5.66
0 3 9 57.18 8.53
0 -3 -9 76.12 8.81
0 -3 -10 24.91 3.89
0 -3 -10 36.47 8.74
0 -3 -10 29.32 5.84
0 3 10 18.18 5.14
0 -3 -11 0.91 1.79
0 -3 -11 9.56 5.07
0 -3 -11 7.83 3.52
0 3 11 1.9 2.86
0 -3 -12 24.35 4.4
0 -3 -12 36.89 9.65
0 -3 -12 37.8 7.08
0 3 12 20.12 5.6
0 -3 -13 2.11 3.48
0 -3 -13 -4.8 3
0 -3 -13 0.07 2.11
0 3 13 -5.45 5.86
0 -3 -14 11.08 6.61
0 -3 -14 6.57 3.98
0 3 14 -2.62 5.53
0 -3 -15 67.18 14.69
0 -3 -15 55.74 9.52
0 3 15 31.61 8.77
0 -3 -16 7.19 4.26
0 3 16 16.78 7.5
1 3 -18 3.07 4.86
1 3 -17 13.88 6.54
-1 -3 17 10.08 5.99
1 3 -17 5.87 3.75
1 3 -16 3.79 3.9
-1 -3 16 18.67 7.62
1 3 -16 10.67 4.57
1 3 -15 34.47 8.26
-1 -3 15 36.47 9.69
1 3 -15 34.03 7.46
1 3 -14 27.38 7.42
-1 -3 14 36.82 9.26
1 3 -14 32.95 7.37
1 3 -13 -0.75 2.68
-1 -3 13 -0.15 2.04
-1 -3 13 0.19 2.61
1 3 -13 -0.31 2.93
-1 -3 12 6.68 2.33
1 3 -12 5.53 4.14
-1 -3 12 4.85 3.47
1 3 -12 7.88 3.74
-1 -3 11 -0.99 1.46
1 3 -11 2.92 3.39
-1 -3 11 -1.54 2.4
1 3 -11 1.55 2.21
-1 -3 10 7.38 2.62
1 3 -10 5.74 3.66
-1 -3 10 9 4.25
1 3 -10 4.82 1.28
1 3 -10 7.64 3.24
1 3 -10 5.17 1.79
1 3 -9 86.44 5.94
1 3 -9 88.91 10.42
-1 -3 9 94.63 11.32
1 3 -9 78.38 5.93
-1 -3 9 106.22 10.21
1 3 -9 90.49 9.72
-1 -3 9 96.51 7.88
1 3 -8 66.85 9.01
-1 -3 8 74.63 9.59
1 3 -8 67.74 4.99
1 3 -8 72.92 6.03
1 3 -8 74.18 5.64
-1 -3 8 76.38 8.44
1 3 -8 69.27 8.23
-1 -3 8 70.58 6.44
1 3 -7 21 3.06
-1 -3 7 20.98 4.96
1 3 -7 19.96 4.89
1 3 -7 21.09 3.18
1 3 -7 19.83 2.92
-1 -3 7 21.49 4.54
1 3 -7 20.8 4.59
-1 -3 7 20.79 3.4
1 3 -6 243.87 10.46
1 3 -6 240.27 16.07
-1 -3 6 261.21 16.11
-1 -3 6 266.35 14.73
1 3 -6 258.66 10.33
1 3 -6 263.02 15.56
1 3 -6 258.67 10.67
1 3 -5 710.76 19.11
1 3 -5 695.29 16.71
1 3 -5 657.28 26.48
-1 -3 5 717.8 25.52
-1 -3 5 710.42 24.12
1 3 -5 710.93 25.95
1 3 -5 706.76 18.29
-1 -3 4 36.06 5.58
-1 -3 4 34.47 5.63
1 3 -4 37.03 6.86
1 3 -4 36.67 4.03
1 3 -4 34.57 4.32
-1 -3 3 1.97 1.44
1 3 -3 3.4 1.66
-1 -3 3 3.15 2.05
-1 -3 3 -0.27 2.44
1 3 -3 3.66 2.6
1 3 -3 2.27 1.31
-1 -3 2 362.18 17.02
-1 -3 2 377.34 20.4
1 3 -2 384.57 21.96
-1 -3 2 354.94 14.63
1 3 -2 377.86 14.36
-1 -3 1 142.83 12.61
-1 -3 1 133.24 9.75
1 3 -1 163.74 10.78
-1 -3 1 153.66 15.3
-1 -3 0 479.92 23.1
-1 -3 0 431.7 18.63
-1 -3 0 469.47 26.5
-1 -3 -1 561.79 25.19
1 3 1 524.71 13.98
1 3 1 536.93 23.22
-1 -3 -1 546.63 28.28
1 3 2 450.63 11.79
-1 -3 -2 497.92 24.23
1 3 2 502.04 23.7
-1 -3 -2 472.48 26.63
1 3 3 77.81 4.74
-1 -3 -3 89.35 10.67
1 3 3 85.45 10.36
-1 -3 -3 76.88 11.09
-1 -3 -4 16.78 2.54
-1 -3 -4 17.25 5.85
1 3 4 20.3 5.89
-1 -3 -4 17.36 5.04
-1 -3 -5 1.62 0.93
-1 -3 -5 3.57 3.61
1 3 5 2.2 3.37
-1 -3 -5 0.91 1.24
-1 -3 -6 108.15 7.43
-1 -3 -6 111.56 9.05
1 3 6 141.25 15.49
-1 -3 -6 114.44 15
-1 -3 -7 310.39 13.37
-1 -3 -7 321.71 15.66
1 3 7 354.46 25.2
-1 -3 -7 363.6 27.44
-1 -3 -8 549.9 34.89
1 3 8 525.95 31.21
-1 -3 -8 492.13 17.94
1 3 8 590.52 28.09
-1 -3 -8 514.75 20.65
-1 -3 -9 31.57 9.08
1 3 9 42.83 8.13
-1 -3 -9 25.93 4.49
1 3 9 29.01 7.5
-1 -3 -9 23.05 4.57
1 3 10 3.49 4.22
-1 -3 -10 -0.68 3.99
-1 -3 -10 3.63 2.12
1 3 10 12.66 5.6
-1 -3 -10 2.57 2.44
-1 -3 -11 0.38 1.61
-1 -3 -11 0.72 3.4
1 3 11 3.53 3.19
-1 -3 -11 0.04 1.89
-1 -3 -12 -0.15 3.6
-1 -3 -12 2.29 2.67
1 3 12 -1.91 2.64
-1 -3 -12 0.47 2.13
-1 -3 -13 29.24 10.02
1 3 13 19.36 6.12
-1 -3 -13 20 5.06
-1 -3 -14 60.65 14.55
1 3 14 40.92 9.16
-1 -3 -15 20.17 9.19
1 3 15 1.1 3.79
-1 -3 -16 14.1 8.67
2 3 -19 19.64 7.67
2 3 -18 5.21 4.85
2 3 -17 -3.9 4.31
-2 -3 17 4.08 4.93
-2 -3 16 -1.08 3.01
2 3 -16 -0.74 3.56
2 3 -16 -0.28 2.53
2 3 -15 1.93 3
2 3 -15 1.25 2.96
-2 -3 15 2.24 4.23
-2 -3 14 69.94 12.21
2 3 -14 70.16 9.96
-2 -3 14 88.41 11.04
-2 -3 14 82.06 10.18
2 3 -14 68.94 10.91
2 3 -13 66.74 10.51
-2 -3 13 63.67 7.84
-2 -3 13 80.99 12.47
2 3 -13 67.31 9.49
-2 -3 13 93.56 10.79
-2 -3 13 78.85 9.5
2 3 -12 129.98 13.86
-2 -3 12 121 10.92
-2 -3 12 138.79 15.81
2 3 -12 134.47 12.55
-2 -3 12 159.63 13.36
-2 -3 12 142.4 12.23
-2 -3 11 8.94 3.25
2 3 -11 8.33 4.08
-2 -3 11 10.39 4.39
-2 -3 11 11.35 3.87
2 3 -11 10.67 3.82
2 3 -10 22.67 4.36
2 3 -10 14.51 2.09
-2 -3 10 22.28 4.66
2 3 -10 21.41 6.04
-2 -3 10 19.58 5.52
-2 -3 10 21.65 4.71
2 3 -10 24.72 5.47
2 3 -9 6.65 1.72
-2 -3 9 5.03 2.54
2 3 -9 6.65 3.52
-2 -3 9 5.68 3.38
-2 -3 9 6.17 3.1
2 3 -9 6.95 3.15
2 3 -9 2.21 1.83
2 3 -8 50.26 4.94
2 3 -8 46.83 8.13
-2 -3 8 49.49 7.46
2 3 -8 59.21 6.55
-2 -3 8 55.62 7.22
2 3 -8 52.26 7.45
-2 -3 8 51.93 6.52
2 3 -7 210.89 16.52
-2 -3 7 248.86 16
2 3 -7 261.83 13.34
-2 -3 7 239.35 14.58
2 3 -7 233.57 15.43
-2 -3 6 378.27 18.56
2 3 -6 397.09 16.15
-2 -3 6 365.11 18.59
2 3 -6 375.97 20.1
2 3 -6 371.99 17.1
-2 -3 5 237.17 14.01
-2 -3 5 225.4 15.17
2 3 -5 240.15 12.66
2 3 -5 225.34 16.43
2 3 -5 236.23 13.91
-2 -3 4 5.92 2.43
2 3 -4 8.45 2.69
-2 -3 4 5.64 2.9
2 3 -4 5.83 2.65
-2 -3 3 268.2 14.04
-2 -3 3 230.65 16.12
2 3 -3 251.15 18.68
2 3 -3 253.74 13.3
-2 -3 2 104.5 8.58
-2 -3 2 101.08 10.8
2 3 -2 104.99 9.06
-2 -3 2 108.16 14.49
-2 -3 1 27.77 6.93
-2 -3 1 27.08 4.46
-2 -3 1 26.81 5.59
2 3 -1 36.31 5.75
2 3 0 323.4 15.49
-2 -3 0 362.73 20.54
2 3 0 363.73 18.15
-2 -3 0 347.88 25.22
2 3 1 539.4 19.15
-2 -3 -1 593.24 26.96
2 3 1 593.87 25.16
-2 -3 -1 545.51 31.57
-2 -3 -2 15.36 5.73
2 3 2 10.73 2.56
2 3 2 11.69 3.72
-2 -3 -2 9.74 3.69
2 3 3 133.99 9.1
-2 -3 -3 135.63 13.62
2 3 3 115.31 12.64
-2 -3 -3 132.81 16.74
-2 -3 -4 126.28 9.25
2 3 4 123.16 8.61
2 3 4 100.48 12.74
-2 -3 -4 130.59 16.88
2 3 5 6.46 2.82
-2 -3 -5 9.58 4.77
2 3 5 10.43 2.88
-2 -3 -5 10.03 2.96
-2 -3 -5 10.13 2.77
-2 -3 -6 22.2 7.66
-2 -3 -6 21.58 4.33
2 3 6 16.58 5.18
-2 -3 -6 17.23 3.52
2 3 7 64.04 11.3
-2 -3 -7 54.28 6.89
-2 -3 -7 55.01 6.31
-2 -3 -7 58.57 12.44
-2 -3 -8 11.98 3.73
-2 -3 -8 18.38 7.29
-2 -3 -8 13.01 3.24
2 3 8 16.8 7.92
-2 -3 -9 17.92 4.25
2 3 9 32.08 9.25
-2 -3 -9 20.88 4.71
-2 -3 -9 20.15 8.21
-2 -3 -9 20.59 4.09
-2 -3 -10 92.22 16.3
-2 -3 -10 88.76 9.73
2 3 10 116.55 14.4
-2 -3 -10 91.5 8.98
2 3 10 90.38 15.09
-2 -3 -11 29.87 6.05
-2 -3 -11 30.51 10.08
2 3 11 33.35 9.99
2 3 11 47.32 9.9
-2 -3 -12 -0.05 4.61
2 3 12 -1.59 4.21
2 3 12 12.77 6.18
-2 -3 -13 0.3 4.92
2 3 13 3.84 3.72
-2 -3 -14 5.84 6.45
2 3 14 1.8 3.72
3 3 -19 11.34 5.59
3 3 -18 -0.12 3.47
3 3 -17 -0.56 3.62
-3 -3 17 2.52 4.79
3 3 -16 1.91 3.27
-3 -3 16 1.66 2.78
3 3 -15 6.04 4.29
-3 -3 15 5.68 4.13
3 3 -15 0.95 2.68
-3 -3 14 15.43 5.22
-3 -3 14 13.71 6.14
3 3 -14 15.53 5.77
3 3 -14 13.72 4.34
3 3 -14 15.87 6.11
3 3 -13 6.08 3.38
-3 -3 13 5.71 3.01
3 3 -13 11.11 5.42
-3 -3 13 6.58 4
-3 -3 13 4.21 3.06
3 3 -13 2.93 2.83
3 3 -13 3.52 3.41
3 3 -12 2.9 2.34
-3 -3 12 -0.17 1.77
-3 -3 12 2.77 2.82
-3 -3 12 -0.76 2.35
3 3 -12 0.98 3.2
-3 -3 12 6.73 3.7
3 3 -12 -0.23 2.03
-3 -3 11 43.32 7.64
-3 -3 11 44.74 8.39
3 3 -11 37.84 8.17
3 3 -11 43.5 6.95
3 3 -11 37.16 6.51
-3 -3 11 51.14 7.23
-3 -3 11 47.6 7.71
3 3 -10 87.63 9.46
3 3 -10 68.62 5.42
3 3 -10 70.1 10.63
-3 -3 10 82.23 10.77
-3 -3 10 71.42 9.72
-3 -3 10 75.45 8.57
3 3 -10 75.84 9.13
-3 -3 10 82.82 10.03
3 3 -9 6.14 3.04
-3 -3 9 3.36 2.15
3 3 -9 -1.08 3.85
-3 -3 9 1.14 2.01
3 3 -9 1.38 2.22
3 3 -8 18.13 4.44
-3 -3 8 14.19 4.44
-3 -3 8 8.19 2.21
3 3 -8 13.24 4.11
-3 -3 7 167.44 12.69
3 3 -7 184.23 13.15
-3 -3 7 183.6 14.04
3 3 -7 161.29 14
-3 -3 6 33.54 5.69
-3 -3 6 18.14 4.78
3 3 -6 28.88 6.66
-3 -3 5 358.24 16.28
3 3 -5 374.85 18.47
3 3 -5 340.22 22.2
-3 -3 4 155.39 10.08
-3 -3 4 139.43 12.4
3 3 -4 125.24 13.61
3 3 -4 161.35 12.35
-3 -3 4 163.21 18.92
-3 -3 3 327 13.88
-3 -3 3 324.21 19.08
3 3 -3 349.97 18.23
-3 -3 3 307.07 26.19
-3 -3 2 4.18 3.16
-3 -3 2 5.88 2.01
-3 -3 2 4.95 3.11
3 3 -2 5.6 3.13
-3 -3 1 1.24 2.36
-3 -3 1 3.8 1.61
-3 -3 1 4.99 3.16
3 3 -1 5.15 2.93
3 3 0 26.08 5.91
-3 -3 0 16.34 6.73
-3 -3 0 16.98 5.09
-3 -3 0 13.22 3.18
3 3 1 63.23 9.31
-3 -3 -1 50.11 11.11
3 3 2 151.93 14.68
-3 -3 -2 135.28 18.34
-3 -3 -3 229.88 13.51
3 3 3 276.12 20.82
-3 -3 -3 273.49 25.86
-3 -3 -4 30.07 5.76
-3 -3 -4 31.16 9.33
3 3 4 16.18 5.02
-3 -3 -5 17.25 4.63
-3 -3 -5 22.13 8.3
-3 -3 -5 23.19 6.07
3 3 5 5.76 3.8
-3 -3 -5 15.05 3.12
3 3 6 -3.44 5.27
-3 -3 -6 4.32 3.09
-3 -3 -6 4.25 4.13
-3 -3 -6 3.12 2.22
-3 -3 -6 1.88 1.48
-3 -3 -7 14.24 4.3
-3 -3 -7 19.37 8.14
3 3 7 9.68 4.83
-3 -3 -7 14.64 4.41
-3 -3 -8 70.73 9.29
-3 -3 -8 54.55 8.21
3 3 8 74.64 13.36
-3 -3 -8 74.44 15.57
-3 -3 -9 29.45 6.32
-3 -3 -9 17.56 4.82
-3 -3 -9 38.27 11.36
3 3 9 26.04 8.98
-3 -3 -10 2.72 2.63
-3 -3 -10 0.66 4.54
3 3 10 2.17 4.86
3 3 11 15.72 8.44
-3 -3 -11 -0.95 3.97
3 3 12 10.35 7.05
-3 -3 -12 7.7 5.98
3 3 12 14.87 7.33
-3 -3 -13 2.38 4.97
3 3 13 5.38 6.27
3 3 13 14.55 7.52
4 3 -17 3.15 3.76
4 3 -16 2.69 3.9
-4 -3 16 -2.41 3.22
4 3 -15 2.17 3.89
-4 -3 15 1.68 3.45
4 3 -15 1.91 3.89
-4 -3 14 5.32 3.56
-4 -3 14 1.52 2.69
4 3 -14 3.33 4.39
4 3 -14 2.76 3.28
4 3 -13 25.45 6.54
-4 -3 13 22.38 5.97
-4 -3 13 26.35 6.85
-4 -3 13 26.49 7.19
4 3 -13 25.84 7.26
4 3 -13 27.18 5.86
4 3 -13 33.02 7.92
-4 -3 12 48.42 8.84
-4 -3 12 55.45 9.65
4 3 -12 45.99 9.37
4 3 -12 58.08 8.96
4 3 -12 45.34 7.32
-4 -3 12 57.76 9.91
4 3 -11 13.55 4.66
-4 -3 11 13.27 4.68
-4 -3 11 16.62 5.3
4 3 -11 12.12 4.73
4 3 -11 14.26 4.53
-4 -3 10 33.27 7.28
4 3 -10 38.69 7.32
-4 -3 10 33.48 6.97
4 3 -10 19.6 5.84
4 3 -10 28.67 6.15
4 3 -9 2.44 2.82
-4 -3 9 7.36 4.22
-4 -3 9 5.67 3.24
-4 -3 9 4.48 2.82
4 3 -9 2.49 2.34
4 3 -8 44.37 8.28
-4 -3 8 41.37 6.52
-4 -3 8 41.17 8.38
4 3 -8 49.81 8
-4 -3 8 23 4.78
-4 -3 7 4.62 5.3
4 3 -7 4.33 3.33
-4 -3 7 3.86 2.66
-4 -3 7 2.47 3.5
-4 -3 7 1.48 1.87
4 3 -7 4.77 3.4
-4 -3 6 76.73 10.93
-4 -3 6 72.95 7.39
4 3 -6 68.54 9.35
-4 -3 6 66.28 8.23
4 3 -6 60.09 9.67
-4 -3 6 71.54 14.41
-4 -3 5 93.97 12.18
-4 -3 5 85.61 7.3
-4 -3 5 86 9.66
4 3 -5 92.16 10.7
4 3 -5 62.93 9.82
-4 -3 5 81.16 14.95
-4 -3 4 52.72 11.94
-4 -3 4 65.27 9.91
-4 -3 4 56.87 5.27
-4 -3 4 61.12 8.39
4 3 -4 62.11 8.91
-4 -3 3 110.01 13.15
-4 -3 3 109.98 6.59
-4 -3 3 111 11.32
4 3 -3 118.67 12.35
-4 -3 3 95.51 15.74
-4 -3 2 1.95 4.1
-4 -3 2 -0.06 0.92
-4 -3 2 1.11 2.3
-4 -3 2 1.41 2.45
4 3 -2 0.94 2.5
-4 -3 1 51.98 11.95
-4 -3 1 61.67 9.68
-4 -3 1 55.49 4.28
4 3 -1 63.91 9.37
4 3 0 3.19 3.06
-4 -3 0 0.06 3.27
-4 -3 0 3.2 3.07
-4 -3 0 1.14 1.19
-4 -3 -1 86.16 11.68
4 3 1 102.42 12.78
-4 -3 -1 93.6 16.33
-4 -3 -2 20.74 8
4 3 2 34.62 8.35
-4 -3 -2 20.72 5.96
-4 -3 -3 3.44 3.69
-4 -3 -3 8.93 4.24
4 3 3 10.53 5.74
4 3 4 46.08 9.96
-4 -3 -4 40.81 11.27
-4 -3 -4 43.93 8.28
-4 -3 -5 69.98 9.91
-4 -3 -5 61.21 9.94
4 3 5 53.78 10.34
-4 -3 -5 65.87 14.88
-4 -3 -6 17.36 5.53
-4 -3 -6 21.88 8.9
-4 -3 -6 14.1 4.69
4 3 6 -3.18 6.55
4 3 7 -1.65 4.36
-4 -3 -7 0.94 2.87
-4 -3 -7 -0.59 3.31
-4 -3 -7 -0.13 2.23
-4 -3 -8 19.96 5.91
-4 -3 -8 24.69 10.34
4 3 8 15.46 6.43
-4 -3 -8 18.98 5.48
-4 -3 -9 -1.3 2.58
-4 -3 -9 7.92 6.21
-4 -3 -10 2.82 4.04
4 3 10 11.19 6.29
4 3 11 23.05 9.35
-4 -3 -11 5.95 5.94
5 3 -16 11.69 6.12
5 3 -15 11.88 6.13
-5 -3 15 5.02 4.6
5 3 -14 2.55 3.82
-5 -3 14 -0.34 2.41
-5 -3 14 4.22 4.26
5 3 -14 4.58 4.26
5 3 -13 3.05 3.72
5 3 -13 2.03 4.09
-5 -3 13 -1.08 2.41
5 3 -12 0.16 3.21
5 3 -12 3.62 3.29
-5 -3 12 4.25 3.92
5 3 -11 4.61 4.3
-5 -3 11 4.58 3.35
5 3 -11 -0.06 4.58
5 3 -11 3.25 2.87
-5 -3 10 49.91 9.58
5 3 -10 71.51 10.49
5 3 -10 46.46 7.73
-5 -3 10 71.01 15.32
-5 -3 9 11.79 6.65
5 3 -9 12.77 5.34
-5 -3 9 2.45 3.12
5 3 -9 9.1 4.18
-5 -3 8 95.64 13.26
5 3 -8 127.7 14.07
5 3 -8 92.82 12.25
-5 -3 8 102.86 18.07
-5 -3 7 35.42 10.25
-5 -3 7 37.3 8.49
5 3 -7 43.13 8.44
5 3 -7 32.69 7.67
-5 -3 6 6.61 4.96
-5 -3 6 10.73 5.21
5 3 -6 7.63 4.2
5 3 -6 0.01 4.64
-5 -3 5 -2.26 5.16
-5 -3 5 2.67 3.44
5 3 -5 1.2 2.82
-5 -3 4 15.13 6.73
-5 -3 4 19.37 6.32
5 3 -4 27.05 6.89
-5 -3 3 108.03 14.12
5 3 -3 115.36 13.72
-5 -3 3 110.66 18.63
-5 -3 2 38.01 8.87
-5 -3 2 35 11.19
5 3 -2 50.66 9.53
-5 -3 1 2.59 4.63
-5 -3 1 2.48 3.48
5 3 -1 1.06 3.33
5 3 0 0.09 3.16
-5 -3 0 1.83 4.62
-5 -3 0 3.53 3.34
-5 -3 -1 5.5 5.23
-5 -3 -1 4.44 2.52
-5 -3 -2 0.47 4.48
5 3 2 10.46 6.14
-5 -3 -2 -2.17 2.87
5 3 3 33.14 9.51
-5 -3 -3 16.35 5.97
-5 -3 -3 16.95 8.16
-5 -3 -4 43.41 9.1
5 3 4 51.94 11.24
-5 -3 -4 53.14 14.09
-5 -3 -5 5.93 3.85
-5 -3 -5 5.35 6.04
-5 -3 -6 1.12 4.54
-5 -3 -6 -0.33 2.35
-5 -3 -7 3.83 5.31
-5 -3 -7 1.62 3
-5 -3 -7 -0.59 3.09
5 3 7 -8.61 7.04
-5 -3 -8 7.31 7.98
5 3 8 -7.29 7.29
-5 -3 -9 0.38 4.36
5 3 9 -10.55 7.2
6 3 -14 -2.57 3.26
-6 -3 14 0.63 3.1
6 3 -14 -2.38 3.05
-6 -3 13 13.77 8.49
6 3 -13 3.52 4.27
-6 -3 13 -2.93 4.85
6 3 -13 3.32 3.7
-6 -3 12 6.27 6.46
6 3 -12 -0.52 3.14
-6 -3 12 -2.61 4.23
6 3 -12 -6.15 6.23
-6 -3 11 2.99 4.97
6 3 -11 5.94 4.33
-6 -3 11 5.97 3.92
-6 -3 10 8.05 6.98
-6 -3 10 10.93 5.69
6 3 -10 9.84 5.8
-6 -3 9 24.75 10.13
-6 -3 9 37.77 9.09
6 3 -9 46.74 9.48
-6 -3 8 18.29 8.17
-6 -3 8 20.89 6.49
6 3 -8 24.48 7.17
6 3 -8 29.27 7.72
-6 -3 7 4.21 3.99
-6 -3 7 7 4.63
6 3 -7 5.46 4.62
6 3 -7 -4.23 4.92
-6 -3 6 -2.88 5.51
-6 -3 6 0.82 3.13
6 3 -6 1.27 3.1
6 3 -6 -13.16 8.43
-6 -3 5 -1.38 4.03
-6 -3 5 2.71 3.44
6 3 -5 -1.22 3.04
-6 -3 4 10.47 7.54
-6 -3 4 6.86 4.38
6 3 -4 9.87 5.12
-6 -3 3 4.83 5.38
-6 -3 3 -0.56 2.74
6 3 -3 5.68 5.13
-6 -3 2 -2.42 5.5
-6 -3 2 -2.34 4.06
6 3 -2 6.99 5.21
-6 -3 1 14.21 8.7
-6 -3 1 13.16 5.97
6 3 -1 16.03 6.63
6 3 0 18.01 7.32
-6 -3 0 13.76 8.05
-6 -3 0 6.01 3.89
-6 -3 -1 -3.86 3.81
-6 -3 -1 -3.95 4.11
-6 -3 -2 1.08 2.8
-6 -3 -2 0.22 4.42
6 3 3 12.81 7.58
-6 -3 -3 3.07 3.79
-6 -3 -3 1.79 3.92
-6 -3 -4 -3.05 4.11
-6 -3 -4 4.99 4.46
6 3 4 5.4 5.42
-6 -3 -5 10.77 6.77
-6 -3 -5 4.67 3.57
6 3 5 -2.46 5.52
-6 -3 -6 4.56 6.3
-6 -3 -6 0.41 3.32
-7 -3 14 -3.26 4.68
7 3 -13 7.1 5.95
7 3 -13 -3.08 5.33
-7 -3 13 0.95 3.65
-7 -3 12 3.22 4.05
7 3 -12 4.75 4.6
-7 -3 11 -8.22 7.88
-7 -3 11 2.51 4.98
7 3 -11 4.58 4.51
-7 -3 10 -7.82 8.6
-7 -3 10 5.77 4.66
7 3 -10 -4.17 4.75
-7 -3 9 -2.62 5.29
-7 -3 9 3.1 4.19
7 3 -9 -1.43 4.32
-7 -3 8 30.81 11.72
-7 -3 8 31.13 9.29
7 3 -8 33.65 9.27
-7 -3 7 3.33 5.43
-7 -3 7 -0.45 4.36
7 3 -7 5.3 4.99
-7 -3 6 2.97 5.5
-7 -3 6 5.14 3.99
7 3 -6 4.51 4.02
-7 -3 5 7.07 6.14
-7 -3 5 -1.11 3.89
7 3 -5 4.37 5.08
-7 -3 4 0.67 5.78
-7 -3 4 1.01 4.56
7 3 -4 2.77 4.32
-7 -3 3 5.83 6.62
-7 -3 3 2.59 4.07
7 3 -3 11.65 5.97
-7 -3 2 4.76 7.64
-7 -3 2 7.06 5.49
7 3 -2 11.11 6.55
7 3 -1 0.84 4.19
-7 -3 1 -0.14 3.94
-7 -3 1 10.02 7.49
-7 -3 0 -4.13 5.32
-7 -3 0 -3.83 5.78
7 3 0 6.45 5.88
-7 -3 -1 4.38 4.14
-7 -3 -1 4.18 4.29
7 3 2 11.84 7.21
-7 -3 -2 4.86 4.33
-7 -3 -2 1.95 6.13
-7 -3 -3 4.62 7.42
-7 -3 -3 0.84 3.59
-7 -3 -4 -1.28 3.77
-7 -3 -5 -5.72 4.9
-8 -3 7 2.47 5.38
-8 -3 6 -0.43 4.46
-8 -3 5 6.03 8.21
-8 -3 4 7.51 8.78
-8 -3 3 4.38 7.64
-8 -3 2 -3.33 4.75
9 -4 0 -0.89 4.51
9 -4 -1 5.61 6
9 -4 -2 4.38 4.41
9 -4 -3 -2.72 4.67
9 -4 -4 0.77 4.23
9 -4 -4 -2.19 4.1
9 -4 -5 9.01 6.24
9 -4 -6 -0.35 3.62
8 -4 4 7.03 5.37
8 -4 2 7.32 5.8
-8 4 -2 3.77 5.74
8 -4 1 3.41 4.92
-8 4 -1 4.48 7.43
8 -4 1 1.98 3.9
8 -4 0 14.86 6.65
8 -4 0 6.24 4.57
8 -4 -1 -1.72 4.42
-8 4 1 7.41 6.2
8 -4 -1 4.74 4.86
8 -4 -2 -1.05 3.82
8 -4 -2 2.46 3.82
-8 4 2 11.71 6.67
8 -4 -3 0.44 3.88
8 -4 -3 2.36 3.45
-8 4 3 12.41 7
8 -4 -4 18.76 6.81
-8 4 4 32.93 9.99
8 -4 -4 22.92 8
8 -4 -5 -2.78 3.05
8 -4 -5 3.07 3.41
-8 4 5 8.35 6.32
-8 4 5 1.05 3.54
8 -4 -5 0.95 2.46
8 -4 -6 3.7 3.85
8 -4 -6 -3.19 4.21
-8 4 6 2.01 5.17
8 -4 -6 -0.15 2.47
8 -4 -7 5.55 3.93
-8 4 7 0.93 3.55
8 -4 -7 2.18 3.48
-8 4 8 5.1 4.59
8 -4 -8 4.66 4.59
-8 4 9 3.96 4.48
8 -4 -9 4.17 4.41
8 -4 -10 0.21 3.1
8 -4 -11 9.15 5.04
-7 4 -7 -4.33 4.6
7 -4 6 0.24 5.62
-7 4 -6 1.41 5.18
7 -4 5 4.48 4.56
-7 4 -5 -5.98 5.41
7 -4 4 8.99 5.09
-7 4 -4 1.39 4.26
7 -4 3 6.91 5.29
-7 4 -3 5.42 6.55
7 -4 3 1.71 2.83
7 -4 3 8.81 5.31
7 -4 3 3.72 3.23
7 -4 2 0.72 3.46
-7 4 -2 0.85 4.25
7 -4 2 -1.75 2.9
7 -4 2 5.69 3.99
7 -4 2 2.46 3.52
7 -4 1 10.2 5.55
-7 4 -1 2.39 4.01
7 -4 1 11.18 5.61
-7 4 -1 12.93 7.92
7 -4 1 5.67 3.97
7 -4 1 7.92 4.59
7 -4 0 8.95 5.3
-7 4 0 0.81 3.49
7 -4 0 3.65 3.99
7 -4 0 6.87 4.13
-7 4 0 3.61 5.88
7 -4 0 4.27 3.62
7 -4 -1 3.32 3.76
-7 4 1 -3.92 4.3
7 -4 -1 1.92 2.9
7 -4 -1 9.81 4.74
7 -4 -1 -3.58 3.22
-7 4 1 4.96 5.62
7 -4 -1 2.11 2.04
7 -4 -2 5.6 4.03
7 -4 -2 2.54 3.35
7 -4 -2 5.89 3.99
7 -4 -2 10.98 4.46
-7 4 2 -1.5 3.28
7 -4 -2 0.78 2.08
7 -4 -3 8.79 5.02
7 -4 -3 4.56 4.22
-7 4 3 3.76 3.44
-7 4 3 5.7 4.3
7 -4 -3 1.07 2.92
7 -4 -3 2.3 2.69
7 -4 -4 4.66 3.87
-7 4 4 0.02 3.21
-7 4 4 1.6 3.17
7 -4 -4 -2.58 2.83
7 -4 -5 24.73 6.81
-7 4 5 22.39 7.24
-7 4 5 20.88 7.75
7 -4 -5 18.16 5.29
7 -4 -6 25.38 6.87
-7 4 6 26.88 8.11
-7 4 6 19.88 7.61
7 -4 -6 19.38 5.73
7 -4 -7 10.19 4.44
-7 4 7 3.44 4.89
7 -4 -7 3.87 3.48
7 -4 -8 -1.02 2.64
-7 4 8 -0.66 3.58
7 -4 -8 1.57 3
-7 4 9 0 3.57
7 -4 -9 1.43 3.01
-7 4 10 2.9 3.62
7 -4 -10 5.06 4.39
-7 4 11 13.88 7.01
7 -4 -11 9.62 5.25
-7 4 12 6.54 5.31
7 -4 -12 4.45 4.02
6 -4 11 -1.55 3.98
6 -4 10 1.51 4.52
6 -4 10 0.65 2.81
6 -4 9 9.72 6.65
-6 4 -9 -0.41 3.32
6 -4 9 1.03 3.57
-6 4 -9 0.93 4.59
6 -4 8 7.76 4.95
-6 4 -8 4.53 5.71
-6 4 -8 7.66 4.78
6 -4 8 6.42 5.18
6 -4 7 5.91 5.46
-6 4 -7 0.51 4.08
-6 4 -7 -1.27 4.26
6 -4 7 1.95 3.11
6 -4 6 2.51 4.63
-6 4 -6 -1.59 2.72
-6 4 -6 -1.37 2.91
6 -4 6 -1.27 2.98
-6 4 -6 -2.8 4.64
6 -4 5 6.87 5.14
-6 4 -5 -1.52 3.27
-6 4 -5 0.52 2.73
6 -4 5 1.94 3.4
-6 4 -5 -1.15 5.94
6 -4 4 11.17 5.64
-6 4 -4 1.81 3.57
-6 4 -4 3.52 2.53
6 -4 4 3.69 3.26
-6 4 -4 7.9 4.94
6 -4 4 2.98 2.94
6 -4 3 7.67 5.28
-6 4 -3 4.91 3.64
-6 4 -3 2.3 2.56
6 -4 3 3.37 3.55
6 -4 3 4.62 3.93
6 -4 3 7.21 4.96
-6 4 -3 3.34 3.98
6 -4 2 46.33 9.4
-6 4 -2 37.13 10.34
-6 4 -2 33.9 8.19
-6 4 -2 30.24 6.89
6 -4 2 40.48 8.04
6 -4 2 32.99 7.8
6 -4 2 39.58 7.92
6 -4 1 19.67 6.45
-6 4 -1 15.03 5.32
6 -4 1 19.35 5.8
-6 4 -1 11.59 3.97
-6 4 -1 24.91 8.15
6 -4 1 18.8 6
6 -4 1 16.37 5.26
6 -4 0 11.87 5.3
-6 4 0 5.16 4.78
6 -4 0 3.31 2.94
6 -4 0 6.45 3.55
6 -4 0 7.43 3.85
6 -4 0 2.34 2.34
-6 4 0 2.09 2.85
6 -4 -1 5.78 4.15
-6 4 1 3.85 4.47
6 -4 -1 1.87 2.56
6 -4 -1 13.71 5.07
-6 4 1 5.03 3.5
6 -4 -1 5.49 3.86
6 -4 -1 6.29 3.55
6 -4 -2 3.77 3.64
-6 4 2 1.01 2.42
-6 4 2 2.57 2.89
6 -4 -2 -2.75 3.88
6 -4 -2 3.34 3.17
6 -4 -2 -0.92 2
6 -4 -3 9.04 4.56
-6 4 3 7.12 4.36
-6 4 3 6.23 4.12
6 -4 -3 2.66 2.55
6 -4 -3 8.4 3.9
-6 4 4 63.8 10.71
6 -4 -4 54.66 8.73
-6 4 4 73.76 11.81
6 -4 -4 61.2 8.99
6 -4 -4 83.23 10.74
6 -4 -5 28.59 6.28
-6 4 5 22.3 6.5
-6 4 5 19.71 6.14
6 -4 -5 18.04 5.14
6 -4 -5 20.27 5.63
6 -4 -6 7.35 3.87
-6 4 6 9.41 4.94
6 -4 -6 6.44 3.29
-6 4 6 9.02 4.51
6 -4 -6 5.82 3.9
6 -4 -7 -2.1 2.75
-6 4 7 2.39 2.48
-6 4 7 -3.16 3.38
6 -4 -7 0.84 2.46
6 -4 -8 9.19 3.73
-6 4 8 9.83 5.3
-6 4 8 2.22 3.13
6 -4 -8 6.66 4
-6 4 9 -0.52 3.04
-6 4 9 -0.71 2.86
6 -4 -9 1.18 2.94
-6 4 10 -0.18 2.81
-6 4 10 -2.61 3.9
6 -4 -10 -0.47 2.8
-6 4 11 8.67 4.52
6 -4 -11 8.09 4.85
-6 4 12 16.93 6.81
6 -4 -12 16.73 6.39
-6 4 13 2.71 3.64
6 -4 -13 3.78 4.16
6 -4 -14 12.63 6.41
5 -4 13 1.63 4.38
5 -4 13 0.96 3.89
5 -4 12 2.12 4.21
5 -4 12 4.31 4.53
5 -4 11 3.93 4.55
-5 4 -11 8.5 7.05
-5 4 -11 4.14 4.74
5 -4 11 -1.51 3.42
5 -4 10 0.04 3.34
-5 4 -10 3.78 5.92
-5 4 -10 -0.03 3.7
5 -4 10 5.01 4.25
5 -4 9 11.23 5.06
-5 4 -9 9.09 4.24
-5 4 -9 1.46 3.75
5 -4 9 10.52 6.21
-5 4 -9 5.1 5.51
5 -4 8 1.19 3.61
-5 4 -8 -1.54 5.34
-5 4 -8 0.96 2.25
-5 4 -8 2.51 3.15
5 -4 8 -0.01 2.54
5 -4 7 2.41 3.93
-5 4 -7 -3.06 4.69
-5 4 -7 -1.76 2.79
-5 4 -7 -1.58 3.61
5 -4 7 0.18 3.65
-5 4 -7 -2.15 3.58
5 -4 6 13.23 5.73
-5 4 -6 1.93 2.74
-5 4 -6 5.32 3.74
5 -4 6 8.11 4.63
-5 4 -6 6.9 3.81
-5 4 -6 13.83 6.25
5 -4 5 21.89 6.86
-5 4 -5 13.82 4.86
-5 4 -5 12.75 4.63
5 -4 5 13.26 5.44
-5 4 -5 9.21 4.4
5 -4 5 14.55 4.07
-5 4 -5 19.9 7.56
5 -4 4 4.62 4.62
-5 4 -4 -0.68 2.43
-5 4 -4 1.52 2.6
5 -4 4 1.32 2.5
5 -4 4 0.78 2.32
-5 4 -4 0.12 2.32
-5 4 -4 -0.56 3.83
5 -4 3 23.78 6.68
-5 4 -3 13.99 5.9
-5 4 -3 20.83 5.91
-5 4 -3 20.87 5.56
5 -4 3 21.69 5.16
5 -4 3 21.96 6.36
5 -4 3 26.79 6.72
-5 4 -3 18.69 5.38
5 -4 2 21.6 6.45
-5 4 -2 13.27 5.46
-5 4 -2 17.05 5.25
5 -4 2 14.85 4.33
-5 4 -2 11.67 4.53
5 -4 2 14.81 5.23
5 -4 2 17.31 4.97
-5 4 -2 15.06 4.67
5 -4 1 30.67 7.03
5 -4 1 28.05 5.76
-5 4 -1 33.39 7.22
-5 4 -1 27.1 5.71
-5 4 -1 27.53 7.64
5 -4 1 24.63 6.46
5 -4 1 32.87 6.82
-5 4 -1 27.28 5.65
-5 4 0 63.36 11.25
-5 4 0 61.68 9.61
-5 4 0 63.07 8.25
5 -4 0 53.98 9.32
5 -4 0 68 9.31
-5 4 0 61.05 7.87
5 -4 0 68.29 9.28
-5 4 0 71.12 9.86
5 -4 0 70.94 9.85
-5 4 1 54.8 10.33
-5 4 1 50.31 8.83
-5 4 1 52.93 7.11
5 -4 -1 44.44 8.63
-5 4 1 44.51 6.51
5 -4 -1 56.69 8.93
-5 4 1 64.09 9.43
5 -4 -1 55.4 8.74
5 -4 -2 17.32 5.64
-5 4 2 11.66 3.22
-5 4 2 15.34 4.73
-5 4 2 14.79 5.18
5 -4 -2 10.76 4.16
-5 4 2 11.72 3.17
-5 4 2 12.61 5.33
5 -4 -3 6.2 3.35
-5 4 3 3.68 3.39
-5 4 3 2.35 2.21
5 -4 -3 -4.52 4.11
-5 4 3 2.4 2.09
5 -4 -3 2.56 2.1
5 -4 -4 5.1 3.18
-5 4 4 2.31 2.17
-5 4 4 7.63 3.98
-5 4 4 3.68 1.74
5 -4 -4 6 3.54
5 -4 -4 5.96 3.18
5 -4 -5 2.63 2.63
-5 4 5 4.63 2.53
-5 4 5 10.24 4.46
-5 4 5 5.36 2.93
-5 4 5 3.02 1.28
5 -4 -5 3.07 2.95
5 -4 -5 5.18 3.07
-5 4 6 77.54 11.13
-5 4 6 71.66 9.12
5 -4 -6 67.41 9.32
-5 4 6 76.02 11.12
5 -4 -6 78.87 10.65
5 -4 -6 81.95 9.09
-5 4 7 113.04 13.28
-5 4 7 102.62 10.98
5 -4 -7 99.8 11.08
-5 4 7 117.32 14.49
5 -4 -7 118.1 13.07
5 -4 -7 110.99 10.46
-5 4 8 101.72 12.77
-5 4 8 98.8 10.59
5 -4 -8 97.5 10.85
-5 4 8 109.85 14.23
5 -4 -8 100.9 12.31
5 -4 -8 102.33 9.54
-5 4 9 1.23 2.5
-5 4 9 -0.73 2.61
5 -4 -9 1.26 2.13
-5 4 9 -2.42 2.65
5 -4 -9 -1.97 3.29
-5 4 10 11.1 5.43
-5 4 10 13.11 5.04
-5 4 10 7.07 2.77
5 -4 -10 16.23 5.61
-5 4 11 8.88 5.02
-5 4 11 1.56 3.12
-5 4 11 -3.84 3.18
5 -4 -11 3.72 4.54
-5 4 12 3.69 3.03
5 -4 -12 3.56 4.3
-5 4 12 4.64 4.56
-5 4 13 42.16 10.85
5 -4 -13 48.35 10.12
-5 4 14 48.59 11.95
5 -4 -14 41.6 9.76
-5 4 15 12.14 7.29
5 -4 -15 7.99 4.92
4 -4 14 4.84 4.65
4 -4 13 3.25 4.42
-4 4 -13 0.77 3.85
4 -4 13 -0.5 3.5
-4 4 -13 2.52 3.99
4 -4 12 13.63 5.81
-4 4 -12 3.53 3.91
-4 4 -12 11.54 5.52
4 -4 12 16.11 6.87
4 -4 11 2.36 3.36
-4 4 -11 0.79 3.59
-4 4 -11 2.56 4.03
4 -4 11 0.74 3.62
4 -4 10 11.41 5.59
-4 4 -10 3.32 5.19
-4 4 -10 0.46 2.88
4 -4 10 8.12 4.99
-4 4 -10 2.68 3.55
-4 4 -9 4.98 3.28
4 -4 9 10.34 4.71
-4 4 -9 10.14 6.01
-4 4 -9 8.01 4.74
4 -4 9 8.56 5.16
-4 4 -9 3.31 2.97
4 -4 8 41.36 8.5
-4 4 -8 27.51 8.65
-4 4 -8 35.95 7.06
-4 4 -8 38.58 8.7
4 -4 8 32.08 8.31
-4 4 -8 43.98 8.73
4 -4 7 51.06 9.12
-4 4 -7 41.73 9.83
-4 4 -7 44.52 7.82
-4 4 -7 46.61 8.99
4 -4 7 50.71 9.86
-4 4 -7 49.76 8.76
4 -4 6 27.63 6.8
-4 4 -6 19.49 6.71
-4 4 -6 22.04 5.77
-4 4 -6 27.76 6.6
4 -4 6 23.57 6.89
-4 4 -6 20.54 5.77
4 -4 6 32.05 5.08
4 -4 5 27.39 6.58
-4 4 -5 24.32 5.83
-4 4 -5 24.23 6.06
4 -4 5 20.76 6.21
-4 4 -5 24.23 6.21
-4 4 -5 21.07 6.73
4 -4 5 20.85 3.9
4 -4 4 8.33 3.73
4 -4 4 6.12 2.13
-4 4 -4 3.31 2.85
-4 4 -4 6.29 3.4
4 -4 4 4.57 3.41
4 -4 4 4.25 2.04
-4 4 -4 5.69 3.27
-4 4 -4 8.68 3.67
4 -4 3 5.21 3.14
4 -4 3 4.01 2.11
-4 4 -3 4.98 2.98
-4 4 -3 3.18 2.68
4 -4 3 7.83 4.31
4 -4 3 6.58 3.81
-4 4 -3 4.29 2.38
-4 4 -3 0.46 3.17
-4 4 -2 63.39 8.8
-4 4 -2 65.27 8.29
-4 4 -2 61.37 10.3
4 -4 2 68.23 10.22
4 -4 2 63.62 7.36
-4 4 -2 63.54 8
4 -4 2 67.39 9.12
4 -4 2 69 9.19
-4 4 -1 78.71 9.7
-4 4 -1 85.95 8.8
4 -4 1 76.85 10.81
-4 4 -1 85.15 9.66
-4 4 -1 85.74 9.15
4 -4 1 89.96 10.29
-4 4 -1 93.8 9.49
-4 4 -1 79.33 11.23
4 -4 1 94.49 10.44
4 -4 0 85.74 8.79
-4 4 0 109.65 11.4
-4 4 0 106.98 9.3
-4 4 0 114.16 11.04
4 -4 0 103.7 12.4
-4 4 0 109.86 9.76
4 -4 0 122.21 12.1
-4 4 0 118.21 10.97
-4 4 0 101.93 12.39
4 -4 0 127.33 12.03
4 -4 -1 100.93 8.41
-4 4 1 114.57 12.47
-4 4 1 123.5 12.04
-4 4 1 124.1 11.51
-4 4 1 113.48 9.49
4 -4 -1 130.07 12.67
-4 4 1 108.23 8.76
-4 4 1 128.86 11.54
4 -4 -1 133.03 11.82
4 -4 -2 6.82 3.29
-4 4 2 9.35 3.78
4 -4 -2 5.74 1.76
-4 4 2 1.9 2.13
-4 4 2 3.67 1.72
-4 4 2 7.86 3.2
-4 4 2 4.89 2.6
4 -4 -2 3.28 1.58
4 -4 -2 2.14 2.02
-4 4 2 6.07 2.41
-4 4 3 89.41 10.4
-4 4 3 78.26 6.22
-4 4 3 93.28 9.95
-4 4 3 79.51 7.21
4 -4 -3 86.44 10.77
-4 4 3 99.54 10.86
4 -4 -3 90.06 9.54
4 -4 -4 2.4 2.66
-4 4 4 -0.59 2.67
-4 4 4 0.09 1.79
-4 4 4 -0.44 2.13
4 -4 -4 1.84 2.87
-4 4 4 1.27 1.63
4 -4 -4 2.09 3.08
4 -4 -5 25.52 5.2
-4 4 5 22.94 5.82
-4 4 5 19.79 4.95
-4 4 5 26.24 5.18
-4 4 5 23.6 3.8
4 -4 -5 22.68 5.78
4 -4 -5 26.08 6.2
-4 4 6 40.83 7.37
-4 4 6 41.84 6.37
-4 4 6 39.74 4.42
4 -4 -6 47.48 7.92
-4 4 6 43.72 8.08
4 -4 -6 44.11 7.87
4 -4 -6 42.82 6.4
-4 4 7 27.35 6.59
-4 4 7 27.88 5.31
-4 4 7 22.94 3.22
-4 4 7 31.32 6.69
4 -4 -7 27.61 6
4 -4 -7 31.01 6.81
-4 4 8 7.43 4.39
-4 4 8 3.69 3.5
-4 4 8 4.47 2.89
4 -4 -8 2.18 2.26
4 -4 -8 1.78 2.58
-4 4 9 40.81 6.39
-4 4 9 42.08 7.56
-4 4 9 48.77 9.53
4 -4 -9 40.78 7.59
4 -4 -9 44.84 8.51
-4 4 10 66.3 8.12
-4 4 10 71.17 9.77
-4 4 10 74.8 12.05
4 -4 -10 72 10.96
-4 4 11 7.63 4.67
-4 4 11 4.66 2.82
-4 4 11 5.48 2.65
4 -4 -11 6.07 3.52
-4 4 12 12.74 5.74
-4 4 12 10.65 4.14
-4 4 12 9.42 3.41
4 -4 -12 12.88 5.6
-4 4 13 4.68 5.59
4 -4 -13 -0.01 2.84
-4 4 14 7.72 5.82
4 -4 -14 0.86 3.47
-4 4 15 38.99 10.83
4 -4 -15 39.8 9.99
-3 4 -14 3.82 4.2
3 -4 14 8.81 5.35
-3 4 -14 9.41 6.6
3 -4 14 -1.44 3.58
3 -4 13 0.12 2.82
-3 4 -13 0.18 3.17
3 -4 13 -4.18 4.21
-3 4 -13 7.46 6.12
-3 4 -13 -3.69 5.25
3 -4 12 1.43 3.89
-3 4 -12 3.9 5.5
-3 4 -12 2.49 3.79
3 -4 12 4.71 4.7
-3 4 -12 -1.62 3
3 -4 11 -1.66 3.64
-3 4 -11 6.01 5.68
-3 4 -11 1.79 3.45
3 -4 11 0.72 3.67
-3 4 -11 3.55 3.56
3 -4 10 2.78 3.36
-3 4 -10 4.78 4.59
-3 4 -10 2.15 2.53
-3 4 -10 0.02 3.34
3 -4 10 -3.16 3.94
-3 4 -10 -1.34 3.31
3 -4 9 2.91 3.11
-3 4 -9 5.85 5.02
-3 4 -9 3.99 2.2
-3 4 -9 11.28 5.2
3 -4 9 3.5 3.73
-3 4 -9 3.97 3.37
3 -4 8 0.62 2.83
-3 4 -8 0.11 2.27
-3 4 -8 1.88 3.02
3 -4 8 3.59 3.56
-3 4 -8 4.98 4.68
-3 4 -8 1.48 2.61
-3 4 -7 20.46 6.82
3 -4 7 14.4 4.65
-3 4 -7 15.23 4.04
3 -4 7 18.51 6.18
-3 4 -7 16.33 4.82
-3 4 -7 19.86 5.64
3 -4 6 29.98 6.34
-3 4 -6 29.12 7.46
-3 4 -6 30.41 5.78
3 -4 6 37.4 7.94
-3 4 -6 32.33 6.65
3 -4 6 27.43 3.04
-3 4 -6 34.22 6.74
3 -4 6 26.48 2.38
-3 4 -5 169.82 16.4
-3 4 -5 203.19 14.3
-3 4 -5 189.88 14.94
3 -4 5 216.9 18.42
-3 4 -5 196.44 15.24
3 -4 5 185.34 7.77
3 -4 5 208.06 8.35
3 -4 5 225.53 16.21
-3 4 -4 58.3 9.51
-3 4 -4 70.77 8.66
-3 4 -4 62.71 8.17
3 -4 4 82.51 11.31
-3 4 -4 74.64 8.98
-3 4 -4 66.83 8.26
3 -4 4 81.37 10.07
3 -4 4 58.77 4.9
3 -4 4 63.9 4.6
3 -4 4 77.74 9.59
-3 4 -3 36.25 7.2
-3 4 -3 45.12 6.87
-3 4 -3 40.46 6.34
-3 4 -3 38.06 6.09
3 -4 3 38.48 7.75
3 -4 3 41.08 4.55
-3 4 -3 43.26 6.62
3 -4 3 49.03 7.78
3 -4 3 42.5 3.94
3 -4 3 47.47 7.62
-3 4 -2 40.01 7.38
-3 4 -2 56.22 7.54
-3 4 -2 51.51 7.02
-3 4 -2 48.65 6.56
3 -4 2 52.25 8.93
-3 4 -2 48.6 7.1
3 -4 2 54.78 8
3 -4 2 53.2 4.63
3 -4 2 56.87 8.01
3 -4 1 17.9 4.66
-3 4 -1 15.89 4.42
-3 4 -1 18.16 4.43
-3 4 -1 22.46 4.01
-3 4 -1 16.14 3.62
-3 4 -1 13.35 3.7
3 -4 1 16.71 5.02
3 -4 1 18.89 3.02
3 -4 1 24.29 5.96
-3 4 -1 21.39 4.5
-3 4 0 107.06 10.81
-3 4 0 121.02 10.56
-3 4 0 109.96 8.51
3 -4 0 108.9 7.2
-3 4 0 108.74 9.44
3 -4 0 115.3 11.87
-3 4 0 108.83 10.35
-3 4 0 121.42 9.47
3 -4 0 111.34 10.85
-3 4 1 186.98 13.7
-3 4 1 195.55 13.81
-3 4 1 206.52 13.35
-3 4 1 173.93 9.92
-3 4 1 182.04 11.69
3 -4 -1 185.78 15.33
-3 4 1 192.56 12.38
3 -4 -1 199.39 13.66
-3 4 2 300.82 16.68
3 -4 -2 288.1 13.47
-3 4 2 320.53 16.47
-3 4 2 301.83 17.09
-3 4 2 277.53 11.36
-3 4 2 292.63 14.42
3 -4 -2 298.57 20.13
-3 4 2 313.25 16.54
3 -4 -2 311.36 16.73
3 -4 -3 153.29 9.89
-3 4 3 142.92 7.4
-3 4 3 172.2 11.97
-3 4 3 173.14 13
-3 4 3 159.56 10.82
3 -4 -3 183.61 16.07
-3 4 3 180.93 13.05
3 -4 -3 148.2 8.69
3 -4 -3 160.79 11.84
-3 4 4 4.57 2.33
3 -4 -4 3.5 1.38
3 -4 -4 -0.28 1.44
-3 4 4 0.93 1.51
-3 4 4 4.34 2.15
-3 4 4 3.25 1.07
3 -4 -4 5.15 3.25
-3 4 4 0.05 1.62
-3 4 5 3.36 1.85
3 -4 -5 6.73 2.4
-3 4 5 4.75 2.62
-3 4 5 6.61 2.46
3 -4 -5 5.88 1.58
3 -4 -5 5.96 3.25
-3 4 5 -0.29 2
3 -4 -5 5.63 3.3
-3 4 6 9.07 3.36
3 -4 -6 13.72 2.32
3 -4 -6 12.61 3.06
-3 4 6 12.91 3.91
-3 4 6 16.7 3.83
3 -4 -6 9.74 4
-3 4 6 15.22 4.18
3 -4 -6 14.51 5.11
3 -4 -7 128.11 8.03
-3 4 7 129.42 10.16
-3 4 7 118.11 11.07
3 -4 -7 125.98 13.46
-3 4 7 124.04 12.94
-3 4 7 100.25 9.69
3 -4 -7 127.93 13.02
-3 4 8 421.67 21.04
-3 4 8 428.49 24.8
3 -4 -8 438.38 25.22
-3 4 8 420.81 20.59
-3 4 8 443 19.14
3 -4 -8 459.96 24.89
-3 4 9 78.83 9.09
-3 4 9 83.19 11.59
3 -4 -9 78.13 10.85
-3 4 9 82.25 9.53
3 -4 -9 84.82 11.24
-3 4 9 74.82 7.97
-3 4 10 -0.61 2.47
-3 4 10 1.09 2.14
-3 4 10 2.59 2.32
3 -4 -10 2.3 2.73
-3 4 11 -1.09 2.93
-3 4 11 2.89 2.26
-3 4 11 -0.62 2.09
3 -4 -11 0.35 2.95
-3 4 12 8.94 4.67
-3 4 12 11.57 3.79
-3 4 12 4.62 2
3 -4 -12 10.96 4.82
-3 4 13 4.44 3.76
3 -4 -13 3.03 3.74
-3 4 14 45.19 10.88
3 -4 -14 56.4 10.56
-3 4 15 26.19 8.88
3 -4 -15 29.56 8.4
3 -4 -16 0.81 4.03
-2 4 -15 1.27 3.64
2 -4 15 5.35 5.24
-2 4 -15 -0.41 3.28
-2 4 -14 20.46 7.51
2 -4 14 18.43 8.34
-2 4 -14 8.72 4.92
-2 4 -13 16.4 6.35
2 -4 13 26.52 8.77
-2 4 -13 10.88 5.58
-2 4 -12 35.99 8.24
2 -4 12 57.51 11.81
-2 4 -12 50.2 9.64
-2 4 -12 56.83 10.89
2 -4 12 52.93 9.6
2 -4 11 4.93 3.46
-2 4 -11 -1.42 5.1
-2 4 -11 13.23 5.49
2 -4 11 9.27 5.03
-2 4 -11 13.69 5.36
2 -4 10 18.47 5.54
-2 4 -10 6.47 3.01
-2 4 -10 19.5 4.18
-2 4 -10 17.31 5.67
2 -4 10 22.41 6.69
-2 4 -10 14 5.51
-2 4 -9 -3.4 4.52
-2 4 -9 8.95 2.98
2 -4 9 6.83 4.11
-2 4 -9 4.78 2.33
2 -4 9 6.16 4.02
-2 4 -9 8.09 3.38
2 -4 8 7.55 4
-2 4 -8 -2.35 5.03
-2 4 -8 7.13 3.2
-2 4 -8 5.23 2.93
2 -4 8 8.62 4.16
-2 4 -8 4.34 3.1
-2 4 -7 32.8 6.2
-2 4 -7 50.27 6.92
-2 4 -7 43.68 7.67
2 -4 7 58.97 9.98
-2 4 -7 50.38 8.18
2 -4 7 50.73 7.75
-2 4 -6 147.09 13.21
-2 4 -6 125.05 12.71
-2 4 -6 155.51 11.59
-2 4 -6 154.66 11.86
2 -4 6 153.87 15.31
-2 4 -6 145.47 13.21
2 -4 6 185.59 15.11
2 -4 6 154.33 13.33
-2 4 -5 135.27 12.68
-2 4 -5 170.61 12.06
-2 4 -5 173.47 12.34
-2 4 -5 172.74 13.37
-2 4 -5 185.03 14.22
2 -4 5 202.9 15.57
2 -4 5 180.71 16.49
2 -4 5 182.73 14.03
-2 4 -4 60.32 7.22
-2 4 -4 66.49 7.49
-2 4 -4 61.11 7.88
2 -4 4 62.48 9.82
-2 4 -4 58.62 8.22
-2 4 -4 65.37 8.07
2 -4 4 68.23 8.86
2 -4 4 55.27 7.9
-2 4 -3 157.19 11.6
-2 4 -3 170.81 11.68
-2 4 -3 162.56 11.85
2 -4 3 159.36 13.34
-2 4 -3 160.24 12.4
2 -4 3 146.21 14.37
-2 4 -3 155.06 12.74
2 -4 3 141.06 5.82
2 -4 3 157.42 12.58
2 -4 2 12.26 3.94
-2 4 -2 15.54 3.94
-2 4 -2 16.47 4.21
-2 4 -2 17.61 4.56
-2 4 -2 14.31 3.72
2 -4 2 13.9 1.81
2 -4 2 10.43 3.98
2 -4 2 17.85 5.15
-2 4 -2 14.38 2.4
-2 4 -2 15.66 4.27
2 -4 2 14.94 2.39
2 -4 1 4.65 2.7
-2 4 -1 5.62 2.35
-2 4 -1 4.77 1.79
2 -4 1 9.76 2.72
-2 4 -1 7.98 3.53
-2 4 -1 2.91 1.3
-2 4 -1 6.44 2.9
2 -4 1 2.87 1.84
2 -4 1 6.48 3.6
2 -4 1 6.81 2.15
-2 4 -1 4.13 2.51
2 -4 1 5.03 1.37
2 -4 0 101.56 7.39
2 -4 0 105.96 6.86
-2 4 0 113.53 9.13
-2 4 0 111.01 9.7
-2 4 0 105.8 8.33
2 -4 0 102.83 5.76
2 -4 0 101.6 11.33
-2 4 0 108.84 10.07
-2 4 0 101.55 7.58
-2 4 0 92.13 8.25
2 -4 -1 519.71 17.88
-2 4 1 535.67 18.47
2 -4 -1 524.1 13.93
-2 4 1 551.2 21.35
-2 4 1 527.6 17.29
2 -4 -1 509.66 13.95
2 -4 -1 548.18 27.34
-2 4 1 498 21.4
-2 4 1 534.74 18.19
-2 4 1 558.82 20.04
-2 4 2 5.69 2.22
2 -4 -2 3.71 1.95
-2 4 2 4.03 1.52
-2 4 2 7.61 3.24
2 -4 -2 1.01 0.83
-2 4 2 5.88 2.54
-2 4 2 5.95 2.19
2 -4 -2 3.13 2.98
-2 4 2 7.96 3.02
-2 4 3 74.79 7.64
2 -4 -3 70.77 4.81
-2 4 3 79.29 8.43
-2 4 3 65.74 5.68
-2 4 3 69.68 7.54
2 -4 -3 78.51 10.85
-2 4 3 72.1 8.84
2 -4 -3 71.61 7.97
2 -4 -4 221.78 8.55
-2 4 4 251.93 14.51
-2 4 4 190.49 9.57
-2 4 4 232.34 14.42
2 -4 -4 233.79 18.17
-2 4 4 262.27 17.34
-2 4 4 228.72 13.26
2 -4 -4 248.56 14.96
2 -4 -5 116.07 6.47
-2 4 5 117.68 9.44
-2 4 5 137.19 11
-2 4 5 127.4 11.07
2 -4 -5 126.57 13.44
-2 4 5 144.78 13.66
2 -4 -5 140.59 11.63
2 -4 -6 3.96 1.45
2 -4 -6 4.16 2.35
-2 4 6 10.91 3.91
-2 4 6 5.76 2.62
2 -4 -6 3.89 2.99
2 -4 -6 6.3 3.43
-2 4 6 0.11 3.88
-2 4 6 4.9 2.81
2 -4 -7 44.14 7.09
2 -4 -7 31.82 4
-2 4 7 40.19 6.17
-2 4 7 32.59 3.78
-2 4 7 29.35 5.04
-2 4 7 40.16 7.18
2 -4 -7 41.85 8.25
2 -4 -7 42.24 7.53
-2 4 7 37.66 6.18
2 -4 -8 48.27 7.47
-2 4 8 45.55 6.5
-2 4 8 23.97 4.46
2 -4 -8 48.28 8.6
2 -4 -8 46.86 8.08
-2 4 8 36.96 7.2
2 -4 -9 3.43 2.51
-2 4 9 3.72 1.86
-2 4 9 -0.51 1.99
2 -4 -9 6.89 3.86
-2 4 9 1.46 2.52
2 -4 -10 202.9 16.95
-2 4 10 172.14 12.57
-2 4 10 170.85 16.7
2 -4 -10 207.34 17.29
2 -4 -11 172.18 16.5
-2 4 11 96.2 9.43
-2 4 11 126.76 10.74
-2 4 11 130.97 15.3
2 -4 -11 156.07 15.66
2 -4 -12 29.92 7.55
-2 4 12 20.25 4.68
2 -4 -12 27.69 7.26
-2 4 12 26.07 7.43
-2 4 13 -0.74 1.69
2 -4 -13 4.8 4.42
-2 4 13 -1.21 3.87
2 -4 -14 7.46 4.23
-2 4 14 2.14 3.78
-2 4 15 10.4 7.27
2 -4 -15 9.23 4.96
2 -4 -16 12.28 5.77
-1 4 -16 2.45 5.05
1 -4 16 3.44 4.89
-1 4 -16 1.31 5.08
-1 4 -16 0.64 3.64
-1 4 -15 -0.73 3.64
1 -4 15 1.77 3.53
-1 4 -15 4.9 4.9
-1 4 -15 -2.13 3.85
-1 4 -14 6.1 5.25
-1 4 -14 5.99 5.49
1 -4 14 3.55 4.1
-1 4 -14 -0.59 3.93
-1 4 -13 2.14 4.27
-1 4 -13 -2.58 3.66
1 -4 13 1.84 2.77
-1 4 -13 1.79 3.7
-1 4 -12 5.83 4.74
-1 4 -12 -1.13 2.7
1 -4 12 3.59 4.01
-1 4 -12 0.29 2.69
-1 4 -11 26.72 7.58
-1 4 -11 25.4 4.9
-1 4 -11 17.72 5.69
1 -4 11 25.43 7.3
-1 4 -11 21.68 5.71
-1 4 -10 108.03 13.38
-1 4 -10 88.64 8.6
-1 4 -10 85.27 11.84
1 -4 10 101.51 13.72
-1 4 -10 87.4 11.42
-1 4 -9 18.31 6.32
-1 4 -9 6.58 3.34
1 -4 9 5.76 3.83
-1 4 -9 8.45 4.38
-1 4 -8 110.37 12.53
-1 4 -8 91.55 11.21
-1 4 -8 97.78 9
1 -4 8 108.62 13.47
-1 4 -8 99.73 11.26
1 -4 8 116.65 12.41
-1 4 -7 77.51 7.72
-1 4 -7 72.68 9.85
1 -4 7 70.96 10.7
-1 4 -7 72.42 9.38
1 -4 7 86.23 10.62
-1 4 -7 83.65 10.49
-1 4 -6 6.33 3.49
-1 4 -6 3.29 2.42
-1 4 -6 6.21 3.4
1 -4 6 2.19 1.92
1 -4 6 2.89 2.64
-1 4 -6 2.18 2.86
-1 4 -5 320.58 17.57
-1 4 -5 295.1 17.28
1 -4 5 297.98 20.4
1 -4 5 311.3 18.45
-1 4 -5 296.13 17.77
-1 4 -5 329.17 15.18
-1 4 -4 212.61 13.46
-1 4 -4 207.65 11.82
-1 4 -4 196.14 13.88
1 -4 4 212.1 17.09
1 -4 4 230.11 15.92
-1 4 -4 203.2 14.58
-1 4 -3 787.45 24.33
-1 4 -3 789.59 23.29
-1 4 -3 735.02 25.98
1 -4 3 783.42 31.49
1 -4 3 831.39 30.05
-1 4 -3 778.6 28.35
-1 4 -2 43.37 5.2
-1 4 -2 46.64 5.76
-1 4 -2 44.46 6.56
1 -4 2 41.1 7.18
1 -4 2 46.28 7.64
-1 4 -2 42.01 3.38
-1 4 -2 42.25 6.48
1 -4 2 50.77 4.9
-1 4 -1 10.79 2.47
-1 4 -1 12.13 3.23
-1 4 -1 8.24 2.63
1 -4 1 6.95 1.87
1 -4 1 9.45 3.2
-1 4 -1 10.88 3.61
-1 4 -1 10.45 2.14
-1 4 0 28.69 3.69
-1 4 0 24.22 4.41
-1 4 0 21.28 4.32
1 -4 0 24.38 5.69
-1 4 0 26.44 6.05
1 -4 0 18.67 3.56
-1 4 0 18.21 2.84
1 -4 -1 22.23 3.95
-1 4 1 29.55 3.13
-1 4 1 22.08 4.24
1 -4 -1 36 7.66
-1 4 1 32.56 6.75
-1 4 1 12.93 2.34
1 -4 -1 35.12 6.95
-1 4 2 130.32 10.19
1 -4 -2 133.79 14
-1 4 2 142.29 14.01
1 -4 -2 116.02 12
-1 4 3 821.34 25.5
1 -4 -3 748.28 32.86
-1 4 3 830.23 34.3
1 -4 -3 770.92 30.7
-1 4 4 299.55 16.05
1 -4 -4 258.45 19.36
1 -4 -4 279.03 19
1 -4 -5 1.37 2.08
1 -4 -5 1.86 2.57
-1 4 5 -4.55 3.99
1 -4 -6 10.33 4.28
1 -4 -6 8.49 4.45
1 -4 -6 8.58 3.71
-1 4 6 -4.24 4.48
1 -4 -7 -0.93 1.96
1 -4 -7 -0.13 0.68
-1 4 7 0.46 1.28
1 -4 -7 1.21 3.07
1 -4 -7 2.34 2.36
1 -4 -8 130.37 15.08
-1 4 8 175.86 13.75
1 -4 -8 133.06 15.01
1 -4 -8 120.09 12.39
1 -4 -9 110.01 14
1 -4 -9 75.68 5.26
-1 4 9 145.79 13.11
-1 4 9 92.71 8.77
1 -4 -9 106.06 11.69
-1 4 10 57.08 8.54
1 -4 -10 34.15 8.26
1 -4 -10 22.22 3.18
-1 4 10 29.46 5.13
1 -4 -10 32.75 6.77
-1 4 10 5.17 5.5
1 -4 -11 28.88 8.03
-1 4 11 26.34 4.81
1 -4 -11 29.73 6.69
1 -4 -12 8.97 4.98
1 -4 -12 7.05 4.29
-1 4 12 10.04 3.31
1 -4 -13 36.38 9.67
-1 4 13 39.92 7.49
1 -4 -13 26.51 7.09
-1 4 13 25.15 7.97
1 -4 -14 8.85 6.13
1 -4 -14 -1.39 3.01
-1 4 14 2.52 4.11
1 -4 -15 7.77 4.31
-1 4 15 8.77 5.46
1 -4 -16 2.31 2.77
1 -4 -17 -1.33 3.34
0 4 -18 10.82 5.31
0 4 -17 13.6 7.05
0 4 -17 6.31 4.55
0 4 -16 18.22 8.48
0 4 -16 6.14 5.33
0 -4 16 8.62 5.36
0 4 -16 5.44 4.32
0 4 -15 1.15 3.07
0 -4 15 7.37 5.58
0 4 -15 8.37 5
0 4 -14 1.74 3.7
0 -4 14 0.69 3.95
0 4 -14 -1.45 3.41
0 4 -13 14.41 5.86
0 -4 13 21.01 7.14
0 4 -13 21.95 6.47
0 4 -12 44.17 9.18
0 -4 12 66.59 11.95
0 4 -12 57.12 9.6
0 4 -11 22.25 6.6
0 -4 11 26.02 7.33
0 -4 11 35.63 7.65
0 4 -11 27.48 6.98
0 4 -10 73.44 7.17
0 -4 10 78.93 12
0 4 -10 73.45 10.26
0 -4 10 89.22 11.28
0 4 -10 71.97 10.81
0 4 -9 46.66 5.75
0 4 -9 48.69 8.46
0 -4 9 48.49 9.35
0 4 -9 52.43 8.45
0 -4 9 49.36 8.07
0 4 -8 36.83 5.31
0 4 -8 41.67 7.86
0 -4 8 43.23 8.37
0 -4 8 41.85 7.44
0 4 -8 36.85 7.2
0 4 -7 2.66 1.31
0 4 -7 9.71 4.67
0 -4 7 2.64 2.48
0 -4 7 10.66 3.85
0 4 -7 8.25 3.89
0 4 -6 34.97 4.81
0 4 -6 36.66 7.33
0 -4 6 40.1 7.54
0 -4 6 41.19 7.08
0 4 -6 33.38 6.5
0 4 -5 112.95 8.41
0 4 -5 107.83 11.31
0 -4 5 118.79 12.34
0 -4 5 125.81 11.95
0 4 -5 108.92 11.61
0 4 -5 132.82 6.1
0 4 -4 307.15 18.53
0 -4 4 319.12 19.95
0 -4 4 327.26 19.44
0 4 -4 310.6 19.03
0 4 -4 283.98 8.91
0 -4 4 299.66 10.45
0 4 -4 291.96 13.78
0 4 -3 203.66 11.95
0 4 -3 200.25 14.97
0 -4 3 214.54 16.14
0 -4 3 188.83 9.44
0 -4 3 212.34 16.08
0 4 -3 215 16.27
0 4 -3 255.47 11.64
0 4 -2 9.55 3.58
0 -4 2 1.86 2
0 4 -2 7.1 2.61
0 -4 2 -1.44 4.07
0 -4 2 2.91 1.55
0 4 -2 8.44 4.17
0 4 -1 412.43 18.31
0 -4 1 397.23 23.73
0 4 -1 411.68 23.99
0 -4 1 355.97 15.81
0 4 -1 434.16 18.28
0 4 0 121.93 5.91
0 -4 0 119.7 13.4
0 4 0 110.88 13.32
0 -4 0 116.51 9.74
0 -4 0 119.64 14.08
0 4 0 138.77 11.45
0 -4 -1 144.51 14.73
0 4 1 139.94 14.48
0 -4 -1 136.87 14.68
0 4 1 183.17 13.91
0 4 2 85.98 8.2
0 -4 -2 57.84 9.41
0 -4 -2 61.41 9.92
0 4 2 81.32 10.03
0 4 3 3.35 3.75
0 -4 -3 1.29 2
0 -4 -3 1.55 2.33
0 4 3 6.36 3.31
0 4 4 137.68 13.72
0 4 4 153.74 12.09
0 -4 -4 121.36 14.16
0 -4 -4 129.09 14.99
0 4 5 541.31 28.08
0 4 5 552.38 23.49
0 -4 -5 525.48 29.28
0 -4 -5 520.73 30.49
0 4 6 308.81 22.19
0 4 6 356.15 19.64
0 -4 -6 338.17 23.89
0 -4 -6 308.25 18.08
0 -4 -6 328.67 24.9
0 -4 -7 18.86 2.22
0 -4 -7 21.64 6.69
0 -4 -7 30.98 8.38
0 -4 -7 24.34 5.61
0 4 7 23.37 5.64
0 -4 -8 40.36 9.53
0 -4 -8 37.4 6.59
0 4 8 40.71 7.36
0 -4 -8 28.51 3.26
0 -4 -9 19.75 7.11
0 -4 -9 12.58 2.53
0 -4 -9 15.14 4.52
0 4 9 12.5 4.61
0 -4 -10 26.82 8.25
0 -4 -10 24.99 5.91
0 4 10 22.02 5.74
0 -4 -11 120.39 17.49
0 4 11 79.1 11.49
0 -4 -11 102.22 11.81
0 -4 -12 112.08 17.62
0 4 12 72.81 11.36
0 -4 -12 108.15 12.48
0 -4 -13 26.41 8.97
0 -4 -13 30.77 7.15
0 4 13 9.94 4.24
0 -4 -14 3.29 4.81
0 -4 -14 -6.15 4.26
0 -4 -15 4.16 4.88
0 4 15 -21.71 9.49
0 -4 -16 5.54 6.54
1 4 -18 -1.55 4.02
1 4 -17 -5.61 5.49
-1 -4 17 6.45 4.79
1 4 -17 -2.44 3.33
1 4 -16 15.06 6.52
-1 -4 16 18.86 7.92
-1 -4 16 25.98 7.91
1 4 -16 16.26 6.59
1 4 -15 16.65 6.19
-1 -4 15 21.35 7.18
-1 -4 15 29.74 7.88
1 4 -15 13.83 5.69
1 4 -14 1.8 2.89
-1 -4 14 2.87 4.24
-1 -4 14 7.8 4.83
1 4 -14 -2.84 4
1 4 -13 2.94 2.81
-1 -4 13 1.02 2.97
-1 -4 13 9.62 5.16
1 4 -13 1.83 2.48
1 4 -12 4.93 3.9
-1 -4 12 3.04 3.86
-1 -4 12 3.84 3.66
1 4 -12 4.61 3.82
1 4 -11 4.95 4.04
-1 -4 11 2.47 3.14
-1 -4 11 5.9 3.55
1 4 -11 7.36 3.86
1 4 -10 149.56 9.36
1 4 -10 147.88 15.14
-1 -4 10 163.43 16.78
1 4 -10 161.96 14.83
-1 -4 10 174.48 14.79
1 4 -9 14.26 2.6
1 4 -9 20.91 6.24
1 4 -9 16.26 2.73
-1 -4 9 20.13 5.73
-1 -4 9 22.04 5.5
1 4 -9 15.98 4.97
1 4 -8 568.4 18.09
1 4 -8 562.43 28.13
-1 -4 8 610.01 29.67
1 4 -8 540.36 14.45
-1 -4 8 637.48 27.17
1 4 -8 578.59 26.96
1 4 -8 562.88 15.2
1 4 -7 -1.42 1.49
1 4 -7 2.4 1.76
1 4 -7 -1.02 2.57
-1 -4 7 3.2 3.02
-1 -4 7 5.21 3.6
1 4 -7 -0.01 0.97
1 4 -7 -0.71 2.03
1 4 -6 11.07 2.5
1 4 -6 14.83 3.85
1 4 -6 5.71 2.82
-1 -4 6 11.01 4
-1 -4 6 11.85 4.13
1 4 -6 12.11 4.07
1 4 -6 9.33 2.34
1 4 -5 28.61 5.11
1 4 -5 16.07 3.04
1 4 -5 8.58 2.13
-1 -4 5 19.54 5.06
-1 -4 5 17.85 4.56
1 4 -5 21.86 3.51
1 4 -5 13.14 4.36
-1 -4 4 38.79 6.9
-1 -4 4 34.61 4.77
1 4 -4 40.77 7.86
-1 -4 4 31.07 5.94
1 4 -4 33.66 4.71
1 4 -4 39.38 5.02
-1 -4 3 451.71 22.55
-1 -4 3 451.56 17.99
-1 -4 3 520.68 26.71
1 4 -3 503.27 27.03
1 4 -3 492.91 18.74
-1 -4 2 515.74 23.88
-1 -4 2 580.23 28.73
1 4 -2 551.83 29.32
1 4 -2 513.92 20.66
-1 -4 1 81.52 10.85
1 4 -1 77.16 10.79
1 4 -1 68.83 8.04
-1 -4 1 97.12 13.87
-1 -4 0 16.6 6.38
-1 -4 0 15.89 4.8
1 4 0 11.31 2.66
-1 -4 -1 14.85 5.68
1 4 1 14.31 4.04
1 4 1 17.63 2.7
-1 -4 -1 11.02 3.94
1 4 2 45.51 3.47
-1 -4 -2 47.64 9.07
1 4 2 50.07 8.21
-1 -4 -2 44.84 9.67
-1 -4 -3 113.32 13.87
1 4 3 114.44 12.92
-1 -4 -3 93.82 14.22
-1 -4 -4 451.07 27.64
1 4 4 510.84 27.98
-1 -4 -4 428.37 30.33
1 4 5 53.19 9.9
-1 -4 -5 60.54 10.49
-1 -4 -5 48.48 10.66
1 4 6 5.74 5.17
-1 -4 -6 0.76 3.43
-1 -4 -6 0.71 1.9
-1 -4 -7 2.63 1.39
-1 -4 -7 2.2 3.41
1 4 7 6.16 4.88
-1 -4 -7 2.29 2.3
-1 -4 -8 17.53 3.33
-1 -4 -8 20.85 8.01
1 4 8 24.54 7.62
1 4 8 34.77 7.72
-1 -4 -8 17.76 4.67
1 4 9 1.95 3.96
-1 -4 -9 1.25 2.95
1 4 9 6.75 4.57
-1 -4 -9 0.79 2.09
-1 -4 -10 3.88 5.18
1 4 10 3.27 5.54
1 4 10 6.35 4.42
-1 -4 -10 4 2.84
-1 -4 -11 32.17 10.2
1 4 11 33.59 8.25
-1 -4 -11 32.74 6.73
-1 -4 -12 -1.62 4.76
1 4 12 -1.43 3.37
-1 -4 -12 5.53 3.24
-1 -4 -13 11.64 7.79
1 4 13 11.25 5.52
-1 -4 -14 18.05 9.22
1 4 14 1.13 4.33
-1 -4 -15 5.45 6.15
2 4 -17 2.47 3.85
-2 -4 17 10.34 6.14
2 4 -16 4.19 3.83
-2 -4 16 -0.23 4.1
2 4 -16 3.36 3.6
2 4 -15 21.12 7.97
-2 -4 15 25.34 8.37
2 4 -15 18.05 6.16
2 4 -14 5.07 4.54
-2 -4 14 -0.66 3.48
-2 -4 14 -3.43 3.61
2 4 -14 -0.28 2.89
2 4 -13 -1.54 2.97
-2 -4 13 2.5 2.98
-2 -4 13 0.43 2.76
2 4 -13 0.48 3.34
2 4 -12 2.13 4.15
-2 -4 12 0.81 3.11
-2 -4 12 6.64 4.18
2 4 -12 -0.31 2.4
2 4 -11 3.11 3.61
-2 -4 11 3.64 3.52
-2 -4 11 9.39 4.92
2 4 -11 1.26 2.76
2 4 -10 16.13 2.97
2 4 -10 25.24 4.59
2 4 -10 21.18 6.55
-2 -4 10 20.94 6.15
-2 -4 10 24.86 6.16
2 4 -10 20.79 5.91
2 4 -9 174.53 10.07
2 4 -9 160.99 16.38
-2 -4 9 204.19 17.61
-2 -4 9 203 15.86
2 4 -9 187.23 16.08
2 4 -9 210.06 12.25
2 4 -8 50.46 6.1
-2 -4 8 44.15 7.95
2 4 -8 39.04 7.98
-2 -4 8 44.06 7.37
2 4 -8 45.13 5.92
2 4 -8 43.77 7.93
-2 -4 7 57.58 8.67
2 4 -7 37 7.59
2 4 -7 49.49 6.09
-2 -4 7 35.85 6.43
2 4 -7 34.65 6.73
-2 -4 6 30.32 6.16
-2 -4 6 16.28 4.58
2 4 -6 26.25 4.46
2 4 -6 27.85 7.18
-2 -4 5 22.16 5.26
-2 -4 5 18.94 5.76
2 4 -5 25.02 6.72
2 4 -5 23.07 4.27
-2 -4 4 58.12 8.04
-2 -4 4 60.86 9.59
2 4 -4 57.1 9.86
2 4 -4 52.03 6.59
-2 -4 3 13.74 6.79
2 4 -3 16.38 4.22
-2 -4 3 6.58 2.8
-2 -4 3 10.07 4.46
2 4 -3 3.65 2.75
-2 -4 2 21.1 7.31
-2 -4 2 23.06 4.9
-2 -4 2 18.8 5.18
2 4 -2 26.85 5.54
-2 -4 1 126.42 11.55
-2 -4 1 104.41 12.79
2 4 -1 125.7 11.74
-2 -4 1 105.95 15.84
2 4 0 258.3 14.28
-2 -4 0 253.63 20.3
2 4 0 270.74 18.1
-2 -4 0 251.88 24.25
2 4 1 104.24 8.54
-2 -4 -1 112.33 13.88
2 4 1 82.72 10.61
-2 -4 -1 92 15.1
-2 -4 -2 -1.12 3.54
2 4 2 0.33 1.12
-2 -4 -2 -2.68 2.64
2 4 3 18.02 5.12
-2 -4 -3 24.12 8.08
2 4 3 25.29 3.85
-2 -4 -3 25.92 7.08
-2 -4 -4 4.89 4.51
2 4 4 -4.1 4.89
-2 -4 -4 2.92 4.79
2 4 5 92.53 12.94
-2 -4 -5 90.78 16.02
-2 -4 -6 141.89 11.28
2 4 6 175.47 18.57
-2 -4 -6 162.47 21.46
-2 -4 -7 137.9 10.22
-2 -4 -7 136.44 11.16
2 4 7 170.27 18.95
-2 -4 -7 154.93 21.61
2 4 8 0.89 3.62
-2 -4 -8 1.81 3.74
-2 -4 -8 0.29 1.67
-2 -4 -9 3.22 4.1
2 4 9 7.95 6.44
-2 -4 -10 5.15 6.64
2 4 10 7.35 5.52
2 4 10 9.9 6.23
2 4 11 2.13 6.13
-2 -4 -11 -5.72 6.45
2 4 11 16.12 6.99
2 4 12 28.64 10.11
-2 -4 -12 23.1 9.08
2 4 12 37.95 9.61
-2 -4 -13 22.21 8.96
2 4 13 28.67 8.63
3 4 -17 1.36 3.57
-3 -4 17 -0.78 3.45
3 4 -16 0.8 3.89
-3 -4 16 0.85 3.33
3 4 -15 31.52 9.07
-3 -4 15 34.37 9.56
3 4 -15 29.96 7.26
3 4 -14 10.91 5.4
-3 -4 14 9.32 5.23
3 4 -14 6.37 4.05
-3 -4 13 24.15 6.53
3 4 -13 27.3 7.9
-3 -4 13 33.01 8.67
3 4 -13 29.98 7.3
-3 -4 12 -0.9 2.8
3 4 -12 3.99 4.66
-3 -4 12 1.92 3.24
3 4 -12 3.53 3.22
3 4 -11 4.43 2.92
-3 -4 11 -1.4 3.06
3 4 -11 -3.06 2.99
-3 -4 11 -2 2.96
3 4 -11 0.92 2.71
3 4 -10 34.84 6.17
-3 -4 10 27.2 6.96
3 4 -10 19.26 6.52
-3 -4 10 18.89 4.87
3 4 -10 27.72 6.59
3 4 -9 2.29 2.25
-3 -4 9 1.87 2.38
3 4 -9 -3.08 4.42
-3 -4 9 -4.42 4.28
3 4 -9 1.16 2.49
-3 -4 8 328.58 20.72
-3 -4 8 339.82 21.84
3 4 -8 279.07 20.29
3 4 -8 339.9 18.38
-3 -4 7 66.94 9.2
-3 -4 7 78 10.9
3 4 -7 69.06 10.91
3 4 -7 71.29 8.56
-3 -4 6 -0.78 2.15
-3 -4 6 -1.69 2.62
3 4 -6 2.28 2.34
3 4 -6 4.51 4.16
-3 -4 5 16.43 7.16
-3 -4 5 14.02 4.15
-3 -4 5 10.51 4.29
3 4 -5 14.86 4.33
3 4 -5 8.54 3.81
-3 -4 4 7.02 4.94
-3 -4 4 7.3 2.99
-3 -4 4 0.04 3.08
3 4 -4 -0.12 5.15
3 4 -4 8.16 3.34
3 4 -3 11.31 4.25
-3 -4 3 12.37 5.32
-3 -4 3 13.78 3.7
-3 -4 3 4.78 2.82
-3 -4 2 131.16 10.89
-3 -4 2 146.27 15.34
3 4 -2 156.98 13.73
-3 -4 2 129.83 18.96
-3 -4 1 75.82 8.26
-3 -4 1 81.3 11.84
3 4 -1 93.77 11.33
-3 -4 1 66.78 13.57
-3 -4 0 60.36 12.89
-3 -4 0 67.88 11.12
3 4 0 76.01 10.4
-3 -4 -1 16.5 7.48
3 4 1 7.07 4.33
-3 -4 -1 10.57 5.3
-3 -4 -2 46.15 11.82
3 4 2 37.4 8.06
-3 -4 -2 58.31 10.92
3 4 3 73.1 11.44
-3 -4 -3 92.28 17.17
-3 -4 -4 59.93 13.83
3 4 4 49.06 9.55
3 4 5 16.21 5.83
-3 -4 -5 15.7 7.65
-3 -4 -5 15.42 3.6
3 4 6 -9.28 6.53
-3 -4 -6 2.18 3.38
-3 -4 -7 11.83 7.4
3 4 7 6.37 4.39
-3 -4 -8 15.61 8.59
-3 -4 -8 8.77 4.06
3 4 8 12.64 6.1
3 4 9 40.36 10.93
-3 -4 -9 26.92 10.8
-3 -4 -10 15.18 9.27
3 4 10 20.13 8.42
-3 -4 -11 -7.22 7.12
3 4 11 13.39 6.26
3 4 11 15.25 8.75
-3 -4 -12 0.47 5.21
4 4 -17 1.15 3.86
-4 -4 17 -2.35 4.23
4 4 -16 4.15 4.95
-4 -4 16 3.01 4.55
4 4 -15 11.93 6.92
-4 -4 15 13.19 6.21
-4 -4 14 -2 3.1
4 4 -14 4.52 5.03
-4 -4 13 2.59 2.9
-4 -4 13 -2.41 3.61
4 4 -13 4.99 4.3
4 4 -13 -1.13 2.34
-4 -4 12 11.89 5.4
-4 -4 12 10.56 5.03
4 4 -12 10.06 4.99
4 4 -12 9.99 5.04
-4 -4 11 14.1 5.82
4 4 -11 18.34 5.29
-4 -4 11 13.11 5
4 4 -11 3.34 3.42
4 4 -11 11.66 4.52
-4 -4 10 16.46 6.09
4 4 -10 17.09 5.25
-4 -4 10 17.89 5.34
4 4 -10 10.75 5.05
4 4 -10 7.69 3.65
-4 -4 9 118.89 15.17
-4 -4 9 124.73 13.17
4 4 -9 94.5 12.27
4 4 -9 130.85 13.13
-4 -4 8 15.04 8.96
-4 -4 8 13.31 6.39
-4 -4 8 12.59 4.36
4 4 -8 9.07 4.43
-4 -4 8 0.51 2.53
4 4 -8 14.09 6.11
-4 -4 7 10.28 7.14
-4 -4 7 6.84 2.94
4 4 -7 5.89 3.68
-4 -4 7 -0.18 3.13
4 4 -7 12.13 5.71
-4 -4 6 15.22 7.45
-4 -4 6 13.62 3.97
4 4 -6 17.15 5.03
-4 -4 6 9.14 3.23
4 4 -6 7.61 4.11
-4 -4 5 43.39 12.13
-4 -4 5 52.6 6.82
4 4 -5 53.05 9
-4 -4 5 43.79 8.26
4 4 -5 34.95 8.01
-4 -4 4 57.12 13.47
-4 -4 4 61.35 7.01
-4 -4 4 57.77 9.92
4 4 -4 69.74 10.2
-4 -4 3 -3.48 5.82
-4 -4 3 1.05 2.9
4 4 -3 2.9 2.86
4 4 -2 38.3 8.13
-4 -4 2 25.23 9.77
-4 -4 2 34.32 7.92
-4 -4 1 2.32 4.86
4 4 -1 6.14 4.5
-4 -4 1 3.36 4.38
-4 -4 0 21.85 9.45
4 4 0 33.78 8.07
4 4 1 89.31 13.05
-4 -4 -1 86.01 17.5
-4 -4 -2 57.73 14.76
-4 -4 -2 59.2 10.94
4 4 2 48.04 9.89
-4 -4 -3 4.99 6.13
-4 -4 -3 7.85 4.93
4 4 3 -5.67 5.8
-4 -4 -4 3.11 4.53
-4 -4 -4 6 4.11
4 4 4 -2.6 5.72
-4 -4 -5 1.86 4.26
-4 -4 -5 0.81 2.83
4 4 6 -7.42 6.42
-4 -4 -6 -0.33 4.3
-4 -4 -6 -0.16 3.2
-4 -4 -7 34.27 12.47
4 4 7 23.77 7.41
-4 -4 -7 29.84 7.58
-4 -4 -8 4 6.4
4 4 8 -0.74 5.53
-4 -4 -8 1.4 2.71
-4 -4 -9 14.94 9.34
4 4 9 -1.75 4.45
5 4 -16 2.55 4.35
5 4 -15 6.92 5.35
5 4 -14 0.01 3.34
-5 -4 13 23.55 7.52
5 4 -13 10.66 5.68
-5 -4 12 6.48 4.89
5 4 -12 -0.33 3.56
-5 -4 11 10.62 8.22
-5 -4 11 0.67 4.13
5 4 -11 -1.12 2.67
5 4 -11 -4.89 5.55
5 4 -11 1.61 2.88
-5 -4 10 4.3 6.37
-5 -4 10 -1.68 3.07
5 4 -10 -4.52 3.93
5 4 -10 -0.76 3.27
-5 -4 9 13.52 8.33
-5 -4 9 15.92 6.42
5 4 -9 17.36 5.94
5 4 -9 17.28 6.3
-5 -4 8 16.49 8.62
-5 -4 8 22.02 7.52
5 4 -8 22.93 6.67
5 4 -8 19.97 6.77
-5 -4 7 23.58 9.81
-5 -4 7 29.23 8.85
5 4 -7 29.89 7.55
5 4 -7 23.88 7.47
-5 -4 6 8.41 6.69
-5 -4 6 9.65 6.15
5 4 -6 8.94 4.72
5 4 -6 3.22 3.08
-5 -4 5 -5.89 7.71
-5 -4 5 0.25 3.6
5 4 -5 2.23 3.28
5 4 -5 -13.59 8.1
-5 -4 4 10.93 6.97
-5 -4 4 3.9 4.23
5 4 -4 18.63 6.24
-5 -4 3 0.12 3.69
-5 -4 3 0.67 3.36
5 4 -3 -2.76 3.72
5 4 -2 3.16 3.97
-5 -4 2 6.73 5.93
-5 -4 2 6.81 5.25
-5 -4 1 1.64 5.28
5 4 -1 14.31 6.57
-5 -4 1 3.53 4.2
-5 -4 0 40.14 9.91
-5 -4 0 22.73 10.04
5 4 0 42.58 10.03
-5 -4 -1 -0.46 3.97
5 4 1 9.61 5.96
-5 -4 -1 6.03 4.78
-5 -4 -2 -2.04 3.44
5 4 2 8.46 6.29
-5 -4 -2 3.2 4.94
-5 -4 -3 58.39 16.29
-5 -4 -3 63.23 11.96
5 4 3 51.71 11.81
-5 -4 -4 -9.47 7.28
-5 -4 -4 1.32 3
5 4 4 -9.58 7.17
-5 -4 -5 -4.62 5.53
-5 -4 -5 2.45 3.66
-5 -4 -6 3.41 5.94
-5 -4 -6 -1.6 3.61
5 4 6 -12.64 8.09
5 4 7 -5.44 6.75
-5 -4 -7 5.68 4.59
-5 -4 -7 13.39 8.95
-6 -4 14 -0.57 3.85
6 4 -14 -4.67 5.47
-6 -4 13 9.8 7.95
-6 -4 13 5.65 5.03
6 4 -13 -0.96 3.79
-6 -4 12 0.68 6.72
-6 -4 12 -1.43 3.8
6 4 -12 5.38 4.22
6 4 -12 -3.29 4.81
-6 -4 11 7.39 6.72
-6 -4 11 1.62 3.28
6 4 -11 5.88 5.14
-6 -4 10 16.28 8.97
-6 -4 10 23.24 8.37
6 4 -10 23.96 7.2
-6 -4 9 4.52 4.28
-6 -4 9 4.16 4.72
6 4 -9 3.84 3.45
-6 -4 8 -1.47 4.91
-6 -4 8 4.01 4.06
6 4 -8 -0.44 3.74
6 4 -8 8.44 5.56
-6 -4 7 -9.1 9.43
-6 -4 7 -0.35 3.5
6 4 -7 2.45 3.93
6 4 -7 -0.74 3.85
-6 -4 6 -4.68 7.79
-6 -4 6 3.74 4.05
6 4 -6 4.26 4.5
6 4 -6 -7.71 6.62
-6 -4 5 -2.77 6.66
-6 -4 5 0.77 3.77
6 4 -5 3.61 4.24
-6 -4 4 30.88 11.4
-6 -4 4 43.87 11.17
6 4 -4 51.97 10.74
-6 -4 3 3.05 6.04
-6 -4 3 2.91 4.81
6 4 -3 6.75 5.19
6 4 -2 1.11 4.91
-6 -4 2 -2.51 5.01
-6 -4 2 5.89 4.76
-6 -4 1 2.31 4.85
6 4 -1 10.92 6.8
-6 -4 1 5.12 4.68
-6 -4 0 4.37 8.08
6 4 0 17.12 7.43
-6 -4 0 -5.08 4.82
-6 -4 -1 -2.06 5.11
-6 -4 -1 1.67 4.23
-6 -4 -2 28.33 12.66
-6 -4 -2 21.33 7.78
6 4 2 31.49 10.04
-6 -4 -3 -3.32 6.59
-6 -4 -3 0.52 3.64
6 4 3 1.87 4.91
-6 -4 -4 4 6.34
-6 -4 -4 1.73 4.36
-6 -4 -5 -3.44 3.96
-6 -4 -6 -1.65 3.32
7 4 -11 12.22 6.29
-7 -4 10 -17.17 9.92
7 4 -10 -1.47 4.03
-7 -4 9 -3.53 6.12
7 4 -9 7.85 5.8
-7 -4 8 -4.22 7.07
7 4 -8 1.03 4.28
-7 -4 7 -5.09 5.58
7 4 -7 5.93 4.65
-7 -4 6 -2.98 6.36
7 4 -6 3.36 5.21
7 4 -6 -6.91 7.48
-7 -4 5 -4.04 5.94
7 4 -5 -1.24 3.84
-7 -4 4 3.69 5.8
7 4 -4 5.85 4.85
7 4 -3 -2.96 5.13
-7 -4 3 2.66 6.93
7 4 -2 25.78 9.33
-7 -4 2 3.13 6.75
-7 -4 1 9.56 8.28
9 -5 -3 -0.08 3.76
8 -5 5 4.58 5.46
8 -5 4 2.8 3.77
-8 5 -1 6.84 6.97
8 -5 0 7.44 4.84
8 -5 -1 10.48 6.31
-8 5 1 2.88 4.93
8 -5 -1 2.75 4.58
8 -5 -2 6.66 5.83
8 -5 -2 3.28 4.21
-8 5 2 -0.34 3.67
8 -5 -3 5.26 5.12
8 -5 -3 -2.29 3.9
-8 5 3 -3.67 4.23
8 -5 -4 -1.83 3.42
8 -5 -4 -0.81 4.5
-8 5 4 0.32 4.69
8 -5 -4 0.11 2.7
8 -5 -5 0.5 3.17
8 -5 -5 0.8 3.83
-8 5 5 2.96 5.02
-8 5 5 2.29 4.07
8 -5 -5 1.09 2.52
8 -5 -6 -1.62 3.86
-8 5 6 -3.81 5.4
8 -5 -6 2.56 3.76
-8 5 7 2.28 5.39
8 -5 -7 2.28 3.44
-8 5 8 1.63 3.92
8 -5 -8 5.27 3.4
8 -5 -9 1.69 2.91
-7 5 -7 0.63 3.54
7 -5 7 14.66 7.77
-7 5 -6 3.7 4.5
-7 5 -6 -1.84 3.36
7 -5 6 2.24 2.98
7 -5 6 6.4 6.33
7 -5 5 6.13 5.18
-7 5 -5 7.13 6.56
-7 5 -5 -2.05 3.14
-7 5 -5 5.77 4.69
7 -5 5 5.62 4.57
7 -5 5 10.28 5.83
7 -5 4 2.23 4.52
-7 5 -4 5.5 5.8
-7 5 -4 3.71 3.95
-7 5 -4 1.67 3.42
7 -5 4 0.03 2.67
7 -5 4 4.09 4.58
7 -5 3 5.81 5.28
-7 5 -3 2.4 5.06
-7 5 -3 1.57 3.08
-7 5 -3 0.71 2.68
7 -5 3 5.64 4.63
7 -5 3 4.22 4.3
7 -5 2 5.5 5.08
-7 5 -2 -0.43 4.49
-7 5 -2 1.05 3.01
-7 5 -2 -2.89 3.7
7 -5 2 -0.58 2.88
7 -5 2 3.89 3.44
7 -5 1 8.15 5.2
-7 5 -1 -2.57 3.84
-7 5 -1 1.65 3.67
7 -5 1 1.92 3.77
7 -5 1 13.21 6.34
7 -5 0 -1.04 4.17
-7 5 0 3.12 4.15
7 -5 0 3.35 3.42
-7 5 0 1.84 3.19
7 -5 0 3.02 2.89
7 -5 0 8.83 5.23
7 -5 0 2.24 2.69
7 -5 -1 -1.14 3.54
7 -5 -1 2.66 3.85
-7 5 1 -2.61 4.39
-7 5 1 2.38 3.61
7 -5 -1 1.88 3.11
7 -5 -1 2.49 3.03
7 -5 -1 0.35 2.61
7 -5 -2 4.13 4.03
7 -5 -2 5.43 3.16
-7 5 2 11.32 5.55
7 -5 -2 2.27 3.2
7 -5 -2 2.52 2.74
7 -5 -2 8.28 4.4
7 -5 -3 7.7 4.97
-7 5 3 5.67 4.39
-7 5 3 7.37 4.9
7 -5 -3 2.46 2.92
7 -5 -3 9.12 4.31
7 -5 -4 -0.18 2.84
-7 5 4 1.15 4.02
-7 5 4 4.23 4.2
7 -5 -4 1.78 3.34
7 -5 -5 0.57 3.07
-7 5 5 4.74 4.54
-7 5 5 3.16 3.81
7 -5 -5 -1.61 2.8
7 -5 -6 5.18 4.32
-7 5 6 0.71 3.7
-7 5 6 4.32 4.51
7 -5 -6 -3.72 3.23
7 -5 -7 5.92 3.45
-7 5 7 5.13 4.17
-7 5 7 -1 3.49
7 -5 -7 1.83 2.84
-7 5 8 14.89 6.09
-7 5 8 16.06 6.94
7 -5 -8 14.66 6.11
-7 5 9 9.43 5.59
-7 5 9 4.66 5.15
7 -5 -9 4.74 4.12
-7 5 10 0.2 3.46
-7 5 10 0.39 3.76
7 -5 -10 0.7 3.9
-7 5 11 3.17 6.04
7 -5 -11 5.48 4.46
6 -5 10 1.26 3.33
-6 5 -9 4.75 5.25
6 -5 9 5.26 4.58
6 -5 8 0.05 3.69
-6 5 -8 -8.46 6.75
-6 5 -8 -2.18 2.86
-6 5 -8 0.25 3.54
6 -5 8 2.78 4.44
6 -5 7 -1.8 3.69
-6 5 -7 -3.55 5.73
-6 5 -7 -0.42 3.49
-6 5 -7 2.11 4
6 -5 7 0.25 2.91
6 -5 7 10.23 5.77
6 -5 6 9.38 6.14
-6 5 -6 -1.11 4.25
-6 5 -6 1.63 3.46
-6 5 -6 -1.45 3.93
6 -5 6 1.49 2.98
6 -5 6 3.57 4.85
6 -5 5 6.07 4.15
-6 5 -5 -3.14 5.14
-6 5 -5 5.47 3.53
6 -5 5 2.13 3.35
6 -5 5 5.52 4.61
-6 5 -5 -2.1 3.56
-6 5 -5 3.48 3.63
6 -5 4 7.63 5.34
-6 5 -4 11.68 5.84
-6 5 -4 1.1 2.86
-6 5 -4 9.12 4.96
6 -5 4 6.78 4.58
6 -5 4 6.8 4.99
-6 5 -4 5.59 3.86
6 -5 3 8.86 4.75
-6 5 -3 11.48 6.06
-6 5 -3 5.12 3.69
-6 5 -3 10.37 4.87
6 -5 3 10.32 5.46
6 -5 3 14.21 5.6
-6 5 -3 11 4.38
6 -5 2 -0.32 3.13
-6 5 -2 -3.23 4.17
-6 5 -2 3.61 4.03
-6 5 -2 3.99 3.47
6 -5 2 2.13 2.43
6 -5 2 1.4 2.77
6 -5 2 -2.43 3.2
-6 5 -2 1.97 2.69
6 -5 1 -1.19 3.66
-6 5 -1 5.56 5.26
6 -5 1 4.82 3.95
-6 5 -1 1.82 4.01
-6 5 -1 3.29 3.05
6 -5 1 4.71 3.83
6 -5 1 13.66 6.06
-6 5 -1 -1.33 3.02
6 -5 0 -1.37 3.22
6 -5 0 1.07 2.76
-6 5 0 3.9 3.93
-6 5 0 3.21 3.66
-6 5 0 0.58 2.48
6 -5 0 -1.83 3.67
6 -5 0 6.56 5.11
-6 5 0 -2.32 2.36
6 -5 -1 21.46 6.26
-6 5 1 15.98 7.04
-6 5 1 18.05 6.43
-6 5 1 21.92 6.64
6 -5 -1 19.17 6.33
6 -5 -1 23.53 7.05
-6 5 1 17.46 4.69
6 -5 -2 6.44 4.42
-6 5 2 6.32 3.94
-6 5 2 4.6 3.87
6 -5 -2 -0.04 3.14
-6 5 2 3.43 2.28
6 -5 -2 0.83 3.38
6 -5 -2 4.56 3.15
6 -5 -3 1.81 3.14
-6 5 3 5.19 3.49
-6 5 3 6.88 3.86
6 -5 -3 -3.7 4.94
6 -5 -3 8.84 4.39
6 -5 -4 12.87 5.42
-6 5 4 9.79 5.17
-6 5 4 18.87 6.33
6 -5 -4 12.5 5.5
6 -5 -4 7.8 4.49
6 -5 -5 26.66 6.38
-6 5 5 21.15 6.68
-6 5 5 24.08 7.53
6 -5 -5 24.11 6.78
6 -5 -5 23.5 6.61
6 -5 -6 12.83 4.8
-6 5 6 10.72 5.13
-6 5 6 10.43 5.1
6 -5 -6 6.92 3.53
6 -5 -6 7.48 4.37
6 -5 -7 1.93 2.6
-6 5 7 2.15 4.38
-6 5 7 0.17 2.73
6 -5 -7 2.35 3.73
6 -5 -8 9.02 3.86
-6 5 8 15.21 7.05
-6 5 8 10.85 5.1
6 -5 -8 14.92 5.88
-6 5 9 4.37 5.44
-6 5 9 0.15 2.56
6 -5 -9 0.66 2.85
-6 5 10 15.37 6.8
-6 5 10 9.96 4.78
6 -5 -10 9.18 4.91
-6 5 11 27.51 9.25
-6 5 11 24.95 7.49
6 -5 -11 29.21 8.11
-6 5 12 13.09 8.05
-6 5 12 10.71 5.37
6 -5 -12 12.5 6.12
5 -5 11 2.46 5.01
5 -5 11 -2.16 3.74
5 -5 10 1.2 4.07
-5 5 -10 -4.22 6.22
-5 5 -10 3.21 4.73
5 -5 10 10.6 5.7
-5 5 -10 0.97 3.39
5 -5 9 6.64 5.13
-5 5 -9 1.45 2.65
-5 5 -9 -0.13 3.34
5 -5 9 0.34 3.36
-5 5 -9 -1.04 3.29
-5 5 -9 -4.94 6.27
5 -5 8 24.29 7.93
-5 5 -8 0.08 5.56
-5 5 -8 16.1 5.52
-5 5 -8 12.74 5.95
5 -5 8 18.18 7.42
-5 5 -8 20.24 6.65
5 -5 7 4.26 4.12
-5 5 -7 -4.39 6.1
-5 5 -7 2.6 3.24
-5 5 -7 3.04 3.51
5 -5 7 5.37 5.28
5 -5 7 11.63 6.07
-5 5 -7 -0.53 3.34
5 -5 6 5.6 4.42
-5 5 -6 1.26 2.67
-5 5 -6 0.32 2.68
5 -5 6 -1.09 3.21
5 -5 6 6.61 4.32
-5 5 -6 -4.09 3.61
5 -5 5 20.85 6.89
-5 5 -5 1.89 3.78
-5 5 -5 10.06 4.48
-5 5 -5 6.57 3.93
5 -5 5 10.83 5.63
5 -5 5 16.64 6.41
-5 5 -5 9.68 4.38
5 -5 4 8.68 4.75
-5 5 -4 7.02 5.41
-5 5 -4 9.57 4.44
-5 5 -4 4.71 3.89
5 -5 4 9.93 5.15
5 -5 4 14.94 5.69
-5 5 -4 8.65 4.01
-5 5 -3 58.18 11.71
-5 5 -3 58.88 10.17
-5 5 -3 45.03 8.31
5 -5 3 57.83 11.2
-5 5 -3 53.84 8.88
5 -5 3 56.33 7.69
5 -5 3 56.51 9.97
5 -5 3 63.32 10.47
5 -5 2 12.52 5.15
-5 5 -2 9.91 6.17
5 -5 2 12.63 4.08
-5 5 -2 15.7 5.54
-5 5 -2 12.6 4.3
5 -5 2 9.84 5.77
5 -5 2 14.33 5.84
-5 5 -2 10.88 4.05
5 -5 1 3.21 3.72
5 -5 1 2.43 2.79
-5 5 -1 0.77 2.74
-5 5 -1 1 2.15
-5 5 -1 3.98 2.79
5 -5 1 3.46 3.19
5 -5 1 9.66 5.19
-5 5 -1 0.76 2.02
5 -5 0 5.22 3.87
-5 5 0 7.5 4.66
-5 5 0 4.66 3.1
-5 5 0 1.79 2.03
-5 5 0 3.21 2.68
5 -5 0 0.26 3.2
5 -5 0 5.25 3.82
-5 5 0 2.6 2.63
5 -5 -1 0.56 2.93
-5 5 1 -2.45 3.24
-5 5 1 -2.09 2.44
-5 5 1 2.43 2.95
-5 5 1 -3.77 3.51
5 -5 -1 1.55 2.84
5 -5 -1 2.69 2.7
-5 5 1 1.51 3.02
-5 5 1 -0.17 2.32
5 -5 -2 -0.13 2.34
-5 5 2 0.11 2.56
-5 5 2 3.32 3.89
-5 5 2 2.79 3.4
-5 5 2 2.57 1.68
-5 5 2 0.17 2.46
5 -5 -2 -3.77 4.36
-5 5 2 3.45 2.48
-5 5 3 52.64 9.44
-5 5 3 55.81 8.82
-5 5 3 39.9 6.12
5 -5 -3 41.6 8.46
-5 5 3 57.85 9.85
5 -5 -3 51.11 8.67
-5 5 4 62.7 10.54
-5 5 4 61.42 9.22
-5 5 4 47.99 6.46
5 -5 -4 61.7 10.62
-5 5 4 67.32 10.69
5 -5 -4 58.07 9.54
5 -5 -4 66.22 9.36
5 -5 -5 2.47 2.63
-5 5 5 2.42 2.5
-5 5 5 5.57 3.85
-5 5 5 1.84 2.24
5 -5 -5 2.57 2.98
5 -5 -5 0.23 2.64
5 -5 -6 -0.4 2.24
-5 5 6 1.64 2.72
-5 5 6 6.05 4.16
-5 5 6 0.97 2.23
5 -5 -6 0.91 2.49
5 -5 -6 -0.94 2.77
-5 5 7 6.56 4.06
-5 5 7 1.78 3.03
-5 5 7 1.93 2.24
5 -5 -7 0.21 2.98
5 -5 -7 3.84 3.38
-5 5 8 5.58 4.23
-5 5 8 4.33 3.7
-5 5 8 7.2 3.51
5 -5 -8 5.34 3.6
5 -5 -8 4.17 4.49
-5 5 9 14.75 6.34
-5 5 9 6.37 3.06
-5 5 9 7.63 4.1
5 -5 -9 5.82 4.02
5 -5 -9 9.45 4.63
-5 5 10 -1.3 3.06
-5 5 10 1.54 3.41
-5 5 10 -2.21 2.89
5 -5 -10 -1.31 3.38
5 -5 -10 2.68 4.09
-5 5 11 17.69 5.96
-5 5 11 12.47 4.44
-5 5 11 11.36 6.12
5 -5 -11 18.47 6.76
-5 5 12 -2.01 3.99
-5 5 12 0.57 2.42
5 -5 -12 -0.49 3.32
-5 5 13 11.1 6.68
5 -5 -13 20.93 7.4
4 -5 14 0.53 3.69
4 -5 13 -3.23 4.55
4 -5 12 -2.29 4.09
-4 5 -12 6.55 6.41
-4 5 -12 3.68 4.41
4 -5 12 -0.22 3.57
-4 5 -12 -6.46 4.91
4 -5 11 4.41 4.97
-4 5 -11 4.44 6.11
-4 5 -11 3.12 4.21
4 -5 11 0.63 3.77
-4 5 -11 0.4 3.3
4 -5 10 3.88 3.77
-4 5 -10 7.9 6.31
-4 5 -10 5.22 4.23
4 -5 10 3.32 4.26
-4 5 -10 -1.76 3.6
4 -5 9 17.24 6.25
-4 5 -9 16.06 7.17
-4 5 -9 10.16 4.61
-4 5 -9 10.93 5.24
4 -5 9 18.82 7.34
-4 5 -9 18.02 6.71
4 -5 8 2.85 3.56
-4 5 -8 -1.59 3.27
-4 5 -8 3.41 2.59
-4 5 -8 5.88 4.61
4 -5 8 -0.81 3.07
4 -5 8 7.48 5.66
-4 5 -8 5.03 3.73
4 -5 7 6.01 4.41
-4 5 -7 3.76 3.16
-4 5 -7 2.94 2.25
-4 5 -7 4.9 3.66
4 -5 7 6.57 4.76
4 -5 7 5.93 4.6
-4 5 -7 -0.4 2.73
4 -5 6 4.36 4.04
-4 5 -6 -4.17 4.32
-4 5 -6 -2.4 3.6
-4 5 -6 6.54 4.44
4 -5 6 0.98 2.87
4 -5 6 1.85 3.28
-4 5 -6 1.49 2.42
4 -5 5 2.12 3.44
-4 5 -5 -0.39 3.55
-4 5 -5 -1.69 2.92
-4 5 -5 1.3 2.59
4 -5 5 1.99 3.29
4 -5 5 5.13 3.98
-4 5 -5 -0.04 3.03
4 -5 4 35.39 7.99
-4 5 -4 29.71 7.31
-4 5 -4 33.08 6.85
-4 5 -4 32.99 7.29
4 -5 4 37.63 8.94
4 -5 4 27.52 4.02
4 -5 4 38.17 8.07
-4 5 -4 34.16 6.92
4 -5 3 19.41 5.98
-4 5 -3 15.58 5.49
4 -5 3 19.47 3.97
-4 5 -3 18.98 5.28
-4 5 -3 24.39 5.87
-4 5 -3 20.36 5.15
4 -5 3 22.16 6.94
4 -5 3 19.6 6.11
-4 5 -3 15.75 5.05
4 -5 2 2.29 2.99
-4 5 -2 5.41 3.89
-4 5 -2 -1.35 2.65
-4 5 -2 4.69 3.25
-4 5 -2 -2.08 2.9
4 -5 2 0.71 3.22
4 -5 2 12.77 5.83
-4 5 -2 3.31 2.49
-4 5 -1 47.36 8.95
-4 5 -1 55.27 8.88
-4 5 -1 58.54 8.67
-4 5 -1 52.18 7.44
4 -5 1 51.09 9.85
-4 5 -1 50.31 7.85
4 -5 1 65.02 10.38
-4 5 -1 50.76 7.15
4 -5 1 58.42 9.31
-4 5 0 64.61 9.7
-4 5 0 67.44 9.4
-4 5 0 59.47 7.5
4 -5 0 58.04 10.23
-4 5 0 56.37 7.74
4 -5 0 75.15 11.12
-4 5 0 63.8 8.48
-4 5 0 65.46 9.91
4 -5 0 66.15 9.66
4 -5 -1 -0.89 2.82
-4 5 1 0.43 2.32
-4 5 1 -0.25 2.34
-4 5 1 -0.41 2.05
-4 5 1 2.72 2.54
-4 5 1 -2.22 2.72
4 -5 -1 -4.44 4.53
-4 5 1 0.21 1.72
4 -5 -2 1.55 2.9
-4 5 2 3.29 2.76
-4 5 2 3.83 2.59
-4 5 2 1.9 2.1
-4 5 2 5.4 2.34
-4 5 2 7.17 3.39
4 -5 -2 -3.1 5.02
-4 5 2 5.43 2.73
4 -5 -3 0.51 1.06
4 -5 -3 2.64 2.77
-4 5 3 1.32 2.54
-4 5 3 4.66 3.33
-4 5 3 1.77 1.35
-4 5 3 6.6 3.51
4 -5 -3 5.53 3.75
-4 5 3 4.17 2.66
4 -5 -4 2.97 3.01
-4 5 4 3.77 3.03
-4 5 4 1.92 2.47
-4 5 4 8.44 3.75
4 -5 -4 5.79 4.66
-4 5 4 10.95 3.71
-4 5 5 109.6 12.42
-4 5 5 120.29 12.03
-4 5 5 102.52 9.25
4 -5 -5 106.63 13.49
-4 5 5 121.37 13.56
4 -5 -5 119.88 13.72
-4 5 6 153.53 13.48
-4 5 6 146.13 14.52
-4 5 6 121.13 9.89
4 -5 -6 133.63 15.37
-4 5 6 145.56 15.16
4 -5 -6 159.45 15.92
-4 5 7 60.89 8.68
-4 5 7 47.5 8.41
-4 5 7 37.67 5.52
-4 5 7 50.08 9.4
4 -5 -7 39.92 8.65
4 -5 -7 53.74 9.81
-4 5 8 3.52 3.56
-4 5 8 0.6 2.17
-4 5 8 6.16 3.23
4 -5 -8 2.92 2.85
4 -5 -8 4.97 3.38
-4 5 9 9.83 4.56
-4 5 9 12.03 4.58
-4 5 9 17.1 4.84
4 -5 -9 10.73 4.49
4 -5 -9 12.52 5.82
-4 5 10 -0.81 2.6
-4 5 10 0.07 2.33
-4 5 10 4.07 3.23
4 -5 -10 1.98 3.49
4 -5 -10 -1.24 3.22
-4 5 11 24.22 7.8
-4 5 11 19.57 5.94
-4 5 11 31.78 6.76
4 -5 -11 27.01 7.58
-4 5 12 50.28 11.63
-4 5 12 48.18 8.01
-4 5 12 53.21 9.25
4 -5 -12 56.89 11.24
-4 5 13 28.78 9.54
4 -5 -13 41.79 9.95
-4 5 14 -5.97 6.24
4 -5 -14 4.79 4.49
-3 5 -13 2.76 4.63
3 -5 13 0.7 4.58
-3 5 -13 -1.17 3.31
3 -5 12 -0.88 3.47
-3 5 -12 4.23 4.69
3 -5 12 -2.15 3.76
-3 5 -12 -2.03 3.17
3 -5 11 0.65 3.1
-3 5 -11 1.19 4.45
3 -5 11 0.83 3.37
-3 5 -11 4 4.25
3 -5 10 29.16 8.03
-3 5 -10 45.83 11.61
-3 5 -10 29.67 6.26
-3 5 -10 38.82 9.41
3 -5 10 33.27 9.39
-3 5 -10 32.66 8.41
3 -5 9 -5.21 4
-3 5 -9 13.89 7.56
-3 5 -9 -2.56 2.83
-3 5 -9 2.4 4.71
3 -5 9 1.63 3.08
3 -5 9 7.58 5.04
-3 5 -9 -1.79 3.46
-3 5 -8 158.57 18.39
-3 5 -8 146.85 13.78
-3 5 -8 151.8 16.2
3 -5 8 158.67 18.82
-3 5 -8 147.57 15.77
3 -5 8 182.76 18.24
3 -5 8 157.74 16.21
3 -5 7 5.22 3.34
-3 5 -7 9.48 5.61
-3 5 -7 4.82 3.26
-3 5 -7 1.16 2.73
3 -5 7 5.62 5.06
3 -5 7 8.57 5.22
-3 5 -7 3.49 3.95
3 -5 6 -0.9 3.19
-3 5 -6 9.24 5.43
-3 5 -6 0.68 1.96
-3 5 -6 0.33 2.95
-3 5 -6 -0.57 1.98
3 -5 6 0.09 3.1
3 -5 6 4.63 4.46
-3 5 -6 -1.38 2.61
3 -5 5 1.55 2.65
-3 5 -5 3.05 2.84
-3 5 -5 0.84 2.61
-3 5 -5 0.45 3.16
3 -5 5 3.92 3.69
3 -5 5 6.59 4.27
-3 5 -5 7.34 4.01
-3 5 -5 7.02 4.33
3 -5 4 0.81 3.17
-3 5 -4 1.55 2.39
-3 5 -4 1.71 2.71
3 -5 4 0.43 0.84
-3 5 -4 -2.87 3.46
-3 5 -4 -1.66 2.54
3 -5 4 0.7 2.43
3 -5 4 -0.09 3.28
-3 5 -4 2.14 2.84
-3 5 -3 87.95 10.33
-3 5 -3 77.89 10.7
-3 5 -3 93.48 10.33
-3 5 -3 79.42 9.45
3 -5 3 84.69 12.48
3 -5 3 77.17 4.2
-3 5 -3 87.28 10.38
3 -5 3 103.08 12.69
3 -5 3 77.13 5.5
3 -5 3 81.73 10.62
-3 5 -2 155.73 14.49
-3 5 -2 167.53 14.28
-3 5 -2 190.41 14.63
-3 5 -2 157.1 12.72
3 -5 2 156.64 16.91
3 -5 2 147.37 6.71
-3 5 -2 161.9 14.15
3 -5 2 191.24 16.95
-3 5 -2 162.42 10.21
3 -5 2 161.43 14.75
3 -5 2 159.99 8.93
3 -5 1 52.77 5.78
-3 5 -1 53.79 8.16
-3 5 -1 59.72 8.65
-3 5 -1 65.44 8.72
3 -5 1 48.81 4.35
3 -5 1 46.45 8.95
-3 5 -1 57.51 8.35
3 -5 1 56.76 9.62
-3 5 -1 57.27 6.57
-3 5 -1 54.51 7.27
3 -5 1 52.22 8.38
-3 5 0 34.96 5.54
3 -5 0 28.76 6.43
-3 5 0 30.92 6.15
-3 5 0 36.73 7
-3 5 0 39.91 6.83
-3 5 0 36.38 6.49
3 -5 0 28.55 6.54
-3 5 0 33.01 5.27
-3 5 1 1.75 1.59
-3 5 1 2.31 2.26
-3 5 1 3.85 3.12
-3 5 1 1.25 2.7
-3 5 1 3.7 2.06
-3 5 1 3.88 3.09
-3 5 2 50.96 6.85
3 -5 -2 41.36 4.83
-3 5 2 56.68 7.99
-3 5 2 55.13 8.52
-3 5 2 42.27 5.47
-3 5 2 42.21 7.08
3 -5 -2 57.74 10.46
-3 5 2 50.28 7.22
3 -5 -2 49.31 7.26
3 -5 -3 -1.85 2.19
-3 5 3 3.47 2.75
3 -5 -3 -3.59 1.99
-3 5 3 3.32 3.05
-3 5 3 -1.49 2.58
-3 5 3 0.56 1.16
3 -5 -3 -1.13 2.72
-3 5 3 -0.48 2.36
3 -5 -4 138.95 8.38
-3 5 4 154.52 12.56
-3 5 4 161.65 14.18
-3 5 4 138.9 7.98
3 -5 -4 157.26 16.75
-3 5 4 122.06 11.51
-3 5 4 148.34 13.25
3 -5 -4 148.11 11.39
-3 5 5 38.7 7.18
3 -5 -5 33.76 4.2
-3 5 5 32.79 3.45
-3 5 5 44.42 7.59
-3 5 5 37.39 6.26
3 -5 -5 37.05 8.09
-3 5 5 22.27 5.18
3 -5 -5 36.49 5.37
-3 5 6 1.56 2.54
3 -5 -6 1.73 1.56
-3 5 6 2.61 2.36
-3 5 6 3.78 2.72
3 -5 -6 0.7 3.09
3 -5 -6 2.39 2.77
-3 5 6 7.88 4.23
-3 5 7 -2.38 3.08
3 -5 -7 -0.89 1.17
-3 5 7 1.08 2.36
-3 5 7 2.41 2.63
3 -5 -7 4.96 4.5
3 -5 -7 4.67 3.91
-3 5 7 5.81 4.09
-3 5 8 22.76 6.13
-3 5 8 30.24 6.63
-3 5 8 28.98 5.82
3 -5 -8 31.3 8.05
3 -5 -8 34.14 7.94
-3 5 8 33.8 6.99
-3 5 9 8.91 4.6
-3 5 9 14.88 4.5
-3 5 9 9.18 3.64
3 -5 -9 16.51 6.37
3 -5 -9 12.58 5.12
-3 5 9 14.17 4.9
-3 5 10 2.85 2.65
-3 5 10 -1.56 2.85
-3 5 10 2 2.33
3 -5 -10 3.72 3.13
-3 5 11 10.51 5.6
-3 5 11 13.83 3.89
-3 5 11 18.13 4.91
3 -5 -11 20.59 6.99
-3 5 12 3.96 4.02
-3 5 12 4.25 2.94
3 -5 -12 5.7 4.33
-3 5 13 -0.85 4.63
3 -5 -13 4.75 4.99
-3 5 14 11.45 6.18
3 -5 -14 25.45 8.11
3 -5 -15 11.36 6.04
-2 5 -14 0.35 3.39
2 -5 14 0.04 3.55
-2 5 -14 0.01 3.25
-2 5 -13 -6.87 7.82
-2 5 -13 -1.73 3.82
2 -5 13 3.33 4.86
-2 5 -13 1.94 3.48
-2 5 -12 3.42 4.1
2 -5 12 6.26 5.18
2 -5 12 9.66 5.57
-2 5 -12 -4.73 4.68
-2 5 -11 -10.92 6.41
-2 5 -11 2.09 2.14
-2 5 -11 -3.15 4.62
2 -5 11 5.06 4.23
2 -5 11 6.17 4.89
-2 5 -11 -2.2 3.71
-2 5 -10 -6.4 5.58
-2 5 -10 2.08 2.91
-2 5 -10 -1.43 3.13
2 -5 10 4.95 4.74
2 -5 10 8.25 4.79
-2 5 -10 -0.71 2.91
-2 5 -9 83.16 10.06
-2 5 -9 80.29 12.03
2 -5 9 92.49 14.29
-2 5 -9 87.71 12.23
2 -5 9 106.32 13.71
-2 5 -9 79.88 11.53
-2 5 -8 -4.79 5.22
-2 5 -8 11.11 4.1
-2 5 -8 9.02 4.52
-2 5 -8 7.64 2.8
2 -5 8 13.3 5.33
2 -5 8 9.63 5.25
-2 5 -8 6.51 4.62
-2 5 -7 8.84 3.69
-2 5 -7 22.41 5.59
-2 5 -7 19.3 5.87
-2 5 -7 19.88 5
2 -5 7 17.88 6.22
2 -5 7 24.66 7.05
-2 5 -7 23.05 6.57
-2 5 -6 4.97 3.98
-2 5 -6 24.2 5.76
-2 5 -6 21.29 4.86
-2 5 -6 26.12 6.49
2 -5 6 25.02 7.53
2 -5 6 20.5 5.9
-2 5 -6 21.83 6
-2 5 -5 50.35 8.3
-2 5 -5 58.27 8.46
-2 5 -5 58.09 8.19
-2 5 -5 56.62 8.89
2 -5 5 54.87 10.36
-2 5 -5 56.88 9.13
2 -5 5 65.54 10.35
-2 5 -4 5.87 3.83
-2 5 -4 2.56 2.83
-2 5 -4 2.65 2.73
-2 5 -4 2.4 2.68
2 -5 4 0.29 2.33
2 -5 4 8.2 4.87
-2 5 -4 4.77 3.81
-2 5 -3 32.31 6.37
-2 5 -3 30.48 5.87
-2 5 -3 25.61 5.68
2 -5 3 21.49 6.76
2 -5 3 33.03 7.73
-2 5 -3 29.32 6.62
2 -5 3 25.76 3.14
-2 5 -2 24.35 5.11
-2 5 -2 16.27 2.8
-2 5 -2 17.62 3.63
-2 5 -2 20.05 4.97
2 -5 2 22.69 6.22
2 -5 2 21.09 6.38
2 -5 2 8.88 1.87
-2 5 -2 21.4 5.52
2 -5 1 18.29 3.31
-2 5 -1 27.36 4.95
-2 5 -1 31.6 5.66
-2 5 -1 28.62 5.18
2 -5 1 33.62 8.06
-2 5 -1 31.05 4.41
2 -5 1 24.72 6.38
-2 5 -1 30.3 6.26
-2 5 0 206.24 12.56
-2 5 0 202.13 13.93
-2 5 0 178.22 12.61
2 -5 0 195.52 18.31
-2 5 0 183.84 15.12
-2 5 0 191.62 11.27
-2 5 1 201.09 11.28
-2 5 1 182.16 13.1
-2 5 1 160.58 11.69
2 -5 -1 231.44 20.27
-2 5 1 170.88 14.64
-2 5 1 175.77 11.48
2 -5 -1 224.32 17.57
-2 5 2 33.43 5.4
-2 5 2 31.32 5.59
-2 5 2 35.51 5.58
2 -5 -2 50.67 9.97
-2 5 2 48.77 8.43
2 -5 -2 40.32 7.28
2 -5 -3 2.96 2.58
-2 5 3 -2.32 2.8
-2 5 3 -1.57 2.29
2 -5 -3 -0.09 2.62
-2 5 3 6.75 4.32
-2 5 3 1.09 1.7
2 -5 -4 17.13 4.97
-2 5 4 15.25 4.92
-2 5 4 5.14 2.4
-2 5 4 9.91 2.84
2 -5 -4 13.9 5.13
-2 5 4 17.03 5.62
-2 5 4 9.29 3.27
-2 5 5 39.81 7.02
-2 5 5 18.27 4.67
2 -5 -5 32.65 7.52
-2 5 5 42.3 8.31
-2 5 5 21.2 4.95
2 -5 -5 38.59 7.28
-2 5 6 107.45 10.88
-2 5 6 153.75 13.23
-2 5 6 81.84 10.29
2 -5 -6 152.3 17.12
-2 5 6 165.66 16.43
2 -5 -6 163.59 15.9
2 -5 -6 170.81 15.52
-2 5 7 258.16 17.25
2 -5 -7 278.64 23.38
-2 5 7 251.01 20.77
2 -5 -7 268.85 20.18
2 -5 -7 288.65 20.72
2 -5 -8 23 5.95
-2 5 8 23.09 5.76
-2 5 8 17.39 4.82
2 -5 -8 20.16 6.64
2 -5 -8 23.54 6.32
-2 5 8 10.82 4.2
2 -5 -9 0.14 2.36
-2 5 9 0.87 2.48
-2 5 9 7.02 3.87
2 -5 -9 3.76 4.15
2 -5 -9 0.19 2.69
-2 5 9 -0.88 2.67
2 -5 -10 6.46 3.76
-2 5 10 4.61 2.98
-2 5 10 7.71 4.19
2 -5 -10 5.25 3.66
-2 5 10 -1.44 2.88
-2 5 11 -0.94 2.37
-2 5 11 3.59 3.05
2 -5 -11 4.44 4.09
-2 5 11 1.37 2.92
-2 5 12 9.82 3.95
2 -5 -12 18.11 6.17
-2 5 12 11.74 5.31
-2 5 13 19.69 5.02
2 -5 -13 41 9.44
-2 5 13 23.78 7.93
2 -5 -14 37 9.39
-2 5 14 12.95 6.25
2 -5 -15 3.24 4.11
-1 5 -15 15.69 7.02
-1 5 -15 18.77 7.59
1 -5 15 19.36 8.26
1 -5 15 30.96 9.48
-1 5 -15 18.49 7.22
-1 5 -14 5.36 5.09
-1 5 -14 1.89 3.39
1 -5 14 7.01 5.7
1 -5 14 14.44 6.75
-1 5 -14 -0.95 3.28
-1 5 -13 37.56 9.45
-1 5 -13 24.46 7.91
1 -5 13 26.84 9.06
1 -5 13 39.19 9.38
-1 5 -13 23.38 7.56
-1 5 -12 6.28 5.01
-1 5 -12 7.03 5.51
1 -5 12 2.82 3.89
1 -5 12 10.16 5.84
-1 5 -12 4.85 3.56
-1 5 -11 5.84 4.75
-1 5 -11 5.83 3.61
-1 5 -11 -3.18 4.44
1 -5 11 1.49 3.43
1 -5 11 4.88 4.22
-1 5 -11 2.03 3.61
-1 5 -10 44.55 8.89
-1 5 -10 35.57 8.32
-1 5 -10 34.29 6.03
1 -5 10 39.61 9.56
1 -5 10 37.99 8.65
-1 5 -10 38.2 8.22
-1 5 -9 15.93 5.64
-1 5 -9 10.84 5.52
-1 5 -9 7.06 2.81
1 -5 9 8.04 4.81
1 -5 9 9.26 4.88
-1 5 -9 11.98 5.39
-1 5 -8 214.85 14.66
-1 5 -8 189.86 17.62
1 -5 8 216.58 20.6
-1 5 -8 197.89 17.7
1 -5 8 222.18 18.86
-1 5 -8 216.23 17.32
-1 5 -7 106.52 11.6
-1 5 -7 116.1 10.61
-1 5 -7 96.9 12.24
1 -5 7 99.71 13.84
-1 5 -7 99.3 12.27
1 -5 7 110.32 13.41
-1 5 -6 23.82 5.44
-1 5 -6 25.82 5.41
-1 5 -6 20.22 5.66
1 -5 6 21.16 6.6
1 -5 6 29.05 7.37
-1 5 -6 26.66 6.52
-1 5 -5 4.08 3.35
-1 5 -5 -4.71 3.71
-1 5 -5 0.73 2.45
1 -5 5 -2.79 3.78
1 -5 5 5.59 4.3
-1 5 -5 -0.78 2.37
1 -5 4 2.52 0.96
-1 5 -4 5.28 2.43
-1 5 -4 3.6 1.95
-1 5 -4 3.75 2.76
1 -5 4 3.76 3.07
1 -5 4 6.56 4.59
-1 5 -4 5.3 3.58
-1 5 -3 -0.51 0.71
-1 5 -3 -2.28 2.28
-1 5 -3 -1.58 2.13
-1 5 -3 1.96 2.29
1 -5 3 -0.1 2.52
1 -5 3 0.04 2.96
1 -5 3 1.73 1.31
-1 5 -3 2.23 2.29
-1 5 -2 91.29 8.05
-1 5 -2 85.39 8.81
-1 5 -2 84.51 10.09
1 -5 2 101.98 12.79
-1 5 -2 74.5 5.4
1 -5 2 93.1 12.23
-1 5 -2 89.99 11.35
1 -5 2 97.09 7.53
-1 5 -1 79.73 7.09
-1 5 -1 68.13 7.98
-1 5 -1 56.98 8.46
1 -5 1 89.43 11.92
-1 5 -1 57.91 5.47
1 -5 1 72.24 11.16
-1 5 -1 72.6 10.3
1 -5 1 74.48 7.47
-1 5 0 147.14 8.36
-1 5 0 152.35 11.96
-1 5 0 141.42 12.83
-1 5 0 114.38 8.29
1 -5 0 169.1 17.5
-1 5 0 163.05 15.91
1 -5 0 182.45 17.65
1 -5 -1 5.2 3.67
-1 5 1 2.7 1.1
-1 5 1 11.62 4.68
1 -5 -1 0.88 2.93
-1 5 1 1.89 3.13
-1 5 1 -5.37 3.34
1 -5 -2 34.7 7.75
-1 5 2 58.44 8.32
1 -5 -2 38.35 8.64
-1 5 2 39.2 8.24
-1 5 2 32.32 4.54
-1 5 3 295.27 16.12
1 -5 -3 306.83 23.87
-1 5 3 347.58 24.44
1 -5 -3 301.48 22.49
1 -5 -4 15.5 5.66
1 -5 -4 13.75 5.11
-1 5 4 1.23 3.15
-1 5 4 3.97 3.91
1 -5 -5 14.21 5.57
1 -5 -5 9.71 4.64
-1 5 5 0.11 3.82
1 -5 -6 2.47 2.69
1 -5 -6 3.44 3.27
-1 5 6 -4.47 5.07
-1 5 7 68.95 9.11
1 -5 -7 45.11 9.87
1 -5 -7 53.28 9.04
1 -5 -7 53.31 10.47
-1 5 8 39.49 7.58
1 -5 -8 26.31 7.76
1 -5 -8 23.65 7.25
1 -5 -8 16.6 5.29
1 -5 -9 113.65 16.05
-1 5 9 89.83 10.52
-1 5 9 71.07 10.36
1 -5 -9 93.3 12.18
1 -5 -10 79.36 13.92
-1 5 10 104.45 11.89
-1 5 10 61.41 8.6
1 -5 -10 65.85 10.79
-1 5 10 32.57 6.4
1 -5 -11 -0.4 3.88
1 -5 -11 0.96 2.74
-1 5 11 -4.7 4.83
1 -5 -12 4.97 4.42
-1 5 12 11.56 5.15
1 -5 -12 1.05 3.01
1 -5 -13 6.78 5.42
-1 5 13 15.57 5.63
1 -5 -13 3.82 3.65
-1 5 13 15.43 8.66
1 -5 -14 8.09 4.91
-1 5 14 18.45 8.58
1 -5 -15 15.88 6.01
1 -5 -16 1.02 3.67
0 -5 16 1.55 4.27
0 5 -16 -0.98 3.39
0 5 -15 18.28 7.83
0 5 -15 6.14 5.12
0 -5 15 12.42 6.61
0 -5 15 13.75 6.47
0 5 -15 5.06 4.38
0 5 -14 0.26 3.29
0 -5 14 1.06 3.15
0 -5 14 2.58 3.5
0 5 -14 -2.31 3.95
0 5 -13 12.51 6.56
0 5 -13 -1.85 3.41
0 -5 13 0.41 3.62
0 -5 13 0.9 3.02
0 5 -13 8.29 5.15
0 5 -12 2.83 3.65
0 -5 12 12.34 6.18
0 -5 12 8.56 4.97
0 5 -12 13.88 5.61
0 5 -11 14.82 6.39
0 -5 11 17.51 6.82
0 -5 11 21.15 6.69
0 5 -11 21.74 6.65
0 5 -10 127.41 14.45
0 5 -10 89.97 9.33
0 5 -10 86.61 12.87
0 -5 10 89.65 13.83
0 5 -10 89.6 12.62
0 -5 10 97.87 12.79
0 5 -9 84.41 8.95
0 5 -9 75.15 11.87
0 -5 9 79.75 12.87
0 5 -9 82.27 11.82
0 -5 9 94.55 12.51
0 5 -8 -1.05 1.9
0 5 -8 1.8 2.95
0 -5 8 2.17 3.45
0 -5 8 13.12 5.8
0 5 -8 8.72 4.81
0 5 -7 0.96 2.08
0 5 -7 3.8 3.38
0 -5 7 3.44 3.12
0 -5 7 11.53 5.23
0 5 -7 4.76 4.07
0 5 -6 14.07 3.51
0 5 -6 12.91 5.08
0 -5 6 15.24 5.5
0 -5 6 23.04 6.12
0 5 -6 14.78 5.16
0 5 -5 127.76 10.53
0 5 -5 118.85 13.17
0 -5 5 133.58 14.8
0 -5 5 140.86 14.55
0 5 -5 115.92 13.66
0 5 -5 143.21 7.63
0 5 -4 261.43 15.3
0 5 -4 237.48 18.6
0 -5 4 248.55 20.01
0 5 -4 266.8 8.3
0 -5 4 214.01 10.81
0 -5 4 243.22 19.69
0 5 -4 239.55 18.99
0 5 -4 212.23 9.42
0 5 -4 292.57 12.75
0 5 -3 90.63 8.3
0 5 -3 86.2 9.27
0 5 -3 61.14 9.63
0 -5 3 65.86 10.42
0 5 -3 82.17 5.54
0 -5 3 56.83 9.79
0 -5 3 55.15 6.09
0 5 -3 76.4 11.24
0 5 -3 84.38 7.76
0 5 -2 17.44 3.69
0 5 -2 21.22 5.22
0 5 -2 15.82 4.09
0 5 -2 17.42 3.19
0 -5 2 12.23 4.69
0 -5 2 9.08 4.56
0 -5 2 7.83 2.69
0 5 -2 13.8 5.55
0 -5 1 12.02 5.78
0 5 -1 26.59 5.92
0 5 -1 12.1 2.59
0 5 -1 15.92 4.54
0 -5 1 8.18 3.79
0 -5 1 5 4.29
0 5 -1 11.23 3.04
0 5 -1 15.94 5.94
0 -5 0 19.6 6.71
0 5 0 32.22 6.96
0 5 0 11.11 1.76
0 5 0 25.06 4.38
0 -5 0 20.79 6.53
0 5 0 26.46 5.82
0 5 0 16.91 5.61
0 5 1 334.15 19.69
0 5 1 326.47 15.49
0 -5 -1 269.9 22.53
0 5 1 275.04 22.31
0 -5 -1 273.81 23.31
0 5 2 422.08 23.18
0 5 2 406.97 18.2
0 -5 -2 322.63 24.97
0 5 2 311.86 24.08
0 -5 -2 316.82 25.62
0 -5 -3 27.1 7.91
0 5 3 38.28 6.12
0 -5 -3 28.6 7.81
0 5 3 45.56 8.26
0 -5 -4 -0.91 2.84
0 5 4 3.09 3.57
0 -5 -4 1.86 3.45
0 5 4 5.6 3.57
0 -5 -5 -0.22 3.18
0 5 5 4.03 3.63
0 -5 -5 2.85 3.5
0 5 5 1.99 2.43
0 -5 -6 -0.21 2.58
0 -5 -6 2.35 3.93
0 5 6 5.5 3.55
0 5 7 146.26 13.99
0 -5 -7 151.99 18.51
0 -5 -7 125.85 13.62
0 -5 -7 143.34 18.86
0 -5 -8 29.68 9.01
0 -5 -8 27.93 6.6
0 5 8 29.51 6.75
0 -5 -9 55.24 9.34
0 5 9 51.75 9.24
0 -5 -9 63.29 13.71
0 -5 -10 -0.37 3.23
0 -5 -10 -0.38 3.04
0 5 10 -0.05 4.61
0 -5 -11 22.67 8.7
0 -5 -11 22.97 6.56
0 5 11 10.62 4.78
0 -5 -12 4.23 5.05
0 -5 -12 8.64 4.47
0 -5 -13 -2 6.07
0 -5 -13 4.92 4.19
0 5 13 -9.43 7.89
0 -5 -14 16.27 8.67
1 5 -17 3.29 3.6
-1 -5 16 -0.97 2.99
1 5 -16 -3.14 4.5
1 5 -15 20.57 8.12
-1 -5 15 14.48 7.25
-1 -5 15 16.69 6.23
1 5 -15 13.37 5.53
1 5 -14 4.16 5.32
-1 -5 14 0.53 3.29
-1 -5 14 -1.86 3.62
1 5 -14 -1.07 3.29
1 5 -13 24.91 8.48
-1 -5 13 30.58 8.99
-1 -5 13 43.46 9.63
1 5 -13 26.31 7.62
1 5 -12 18.77 6.68
-1 -5 12 22.68 8.09
-1 -5 12 38.01 8.78
1 5 -12 26 7.63
1 5 -11 14.95 6.21
-1 -5 11 16.39 6.48
-1 -5 11 25.28 7.27
1 5 -11 16.97 6.27
1 5 -10 13.28 3.47
1 5 -10 12.58 5.97
-1 -5 10 12.11 4.7
-1 -5 10 22.37 7.36
1 5 -10 16.05 6.37
1 5 -9 17.06 3.7
1 5 -9 13.25 5.67
-1 -5 9 24.43 7.36
-1 -5 9 27.16 7.11
1 5 -9 26.09 6.99
1 5 -8 8.84 2.92
1 5 -8 10.31 4.61
-1 -5 8 15.06 5.77
-1 -5 8 8.6 4.09
1 5 -8 10.32 4.75
1 5 -7 59.28 7.17
-1 -5 7 59.5 10.37
1 5 -7 40.39 8.65
1 5 -7 58.37 10.04
-1 -5 7 46.76 8.44
1 5 -7 49.12 5.37
1 5 -6 58.51 7.52
-1 -5 6 47.08 9
1 5 -6 41.68 8.64
-1 -5 6 43.76 8.06
1 5 -6 32.21 7.08
1 5 -6 38.6 4.89
1 5 -5 6.85 3.99
1 5 -5 2.41 2.69
-1 -5 5 1.85 2.57
1 5 -5 -2.57 2.57
-1 -5 5 -4.55 5.47
1 5 -5 0.7 2.62
1 5 -4 3.33 1.94
-1 -5 4 0.33 2.19
-1 -5 4 2.44 2.95
1 5 -4 -2.09 2.74
-1 -5 3 6.72 3.65
-1 -5 3 11.54 5.27
1 5 -3 10.33 4.9
1 5 -3 5.16 1.98
1 5 -2 17.63 4
-1 -5 2 26.95 8.94
-1 -5 2 19.25 5.63
-1 -5 2 20.23 6.66
1 5 -2 16.37 5.51
-1 -5 1 15.01 6.96
1 5 -1 -0.47 3.16
-1 -5 1 5.31 3.16
-1 -5 1 10.92 5.4
1 5 -1 1.85 3.42
1 5 0 92.97 7.11
-1 -5 0 88.15 13
1 5 0 87.05 12.72
1 5 0 87.74 10.44
-1 -5 0 98.82 15.3
-1 -5 -1 2.89 2.99
1 5 1 5.9 1.5
1 5 1 1.36 2.39
-1 -5 -1 3.76 3.76
-1 -5 -2 24.95 8.64
1 5 2 36.3 7.64
-1 -5 -2 27.25 7.7
-1 -5 -3 327.14 26.39
1 5 3 392.45 25.28
-1 -5 -3 299.45 27.66
-1 -5 -4 28.94 9.11
1 5 4 46.83 9.87
-1 -5 -4 36.59 9.36
-1 -5 -5 12.96 6.88
1 5 5 17.55 7.04
-1 -5 -5 12.61 6.27
-1 -5 -6 8.06 6.22
-1 -5 -6 17.88 7.18
1 5 6 17.77 5.83
1 5 6 18.61 7.05
-1 -5 -7 32.9 10.39
1 5 7 41.52 9.77
1 5 7 40.71 8.44
-1 -5 -7 27.58 6.26
-1 -5 -8 13 6.35
1 5 8 15.25 6.59
1 5 8 10.54 4.71
-1 -5 -8 11.12 4.5
-1 -5 -9 29.93 10.65
1 5 9 29.41 8.47
1 5 9 32.93 8.14
-1 -5 -9 17.05 5.13
-1 -5 -10 48.2 13.47
1 5 10 48.26 10
-1 -5 -10 37.37 7.69
-1 -5 -11 42.13 12.59
1 5 11 33.93 8.63
-1 -5 -12 2.11 4.14
1 5 12 10.24 5.41
-1 -5 -13 -2.79 5.32
-1 -5 -14 -2.37 4.65
-2 -5 16 6.2 6.13
2 5 -16 4.82 4.75
2 5 -15 4.46 5.12
-2 -5 15 7.17 6.07
2 5 -15 2.88 4.12
2 5 -14 -0.3 3.44
-2 -5 14 -0.91 3.65
2 5 -14 4.73 4.16
2 5 -13 6.52 5.65
-2 -5 13 8.23 5.88
-2 -5 13 5.54 4.61
2 5 -13 5.18 4.22
2 5 -12 -0.34 3.12
-2 -5 12 2.12 3.59
-2 -5 12 8.44 4.71
2 5 -12 10.12 5.74
2 5 -11 6.8 4.78
-2 -5 11 14.34 6.09
-2 -5 11 12.2 5.05
2 5 -11 14.23 5.7
2 5 -10 112.12 15.46
-2 -5 10 133.37 16.29
-2 -5 10 131.77 14.8
2 5 -10 123.52 14.97
2 5 -9 3.98 2.83
2 5 -9 -0.96 3.21
-2 -5 9 5.65 4.66
-2 -5 9 -4.31 4.61
2 5 -9 -0.07 3.05
2 5 -8 9.45 3.79
2 5 -8 0.19 2.95
-2 -5 8 3.3 2.87
-2 -5 8 -6.86 5.36
2 5 -8 -1.92 4.08
2 5 -8 3.35 2.35
2 5 -7 5.23 2.68
2 5 -7 7.58 3.59
-2 -5 7 2.43 2.75
2 5 -7 -2.42 3.77
-2 -5 7 -2.77 3.9
2 5 -7 -2.69 3.53
2 5 -6 5.7 2.8
-2 -5 6 1.13 2.68
-2 -5 6 0.54 2.65
2 5 -5 6.49 3.3
-2 -5 5 2 2.38
-2 -5 5 2.06 3.07
2 5 -5 7.69 5.42
-2 -5 4 336.78 21.98
-2 -5 4 363.75 25.46
2 5 -4 367.29 26.08
2 5 -4 353.72 19.12
-2 -5 4 393.81 32.17
-2 -5 3 124.34 13.11
-2 -5 3 130.75 15.51
2 5 -3 125.95 15.8
2 5 -3 127.04 12.23
-2 -5 3 149.31 20.13
-2 -5 2 4.76 4.51
2 5 -2 -5.41 4.1
-2 -5 2 4.62 2.47
-2 -5 2 -0.4 3.92
2 5 -2 -7.16 6.73
-2 -5 1 8.97 5.21
-2 -5 1 10.33 4.35
2 5 -1 -1.21 3.35
-2 -5 1 6.06 3.33
-2 -5 0 16.19 7.3
-2 -5 0 16.98 6.26
2 5 0 5.15 2.56
-2 -5 -1 1.08 3.55
-2 -5 -1 -1.84 3.74
2 5 1 -0.65 3.4
-2 -5 -2 199.32 21.22
2 5 2 169.3 16.9
-2 -5 -2 176.25 23.16
-2 -5 -3 34.62 10.54
2 5 3 29.82 7.28
-2 -5 -3 37.44 9.68
-2 -5 -4 24.81 9.81
2 5 4 16.71 5.88
-2 -5 -4 28.19 8.48
-2 -5 -5 3.85 5.45
2 5 5 3.37 3.99
-2 -5 -6 46.15 12.71
-2 -5 -6 42.32 7.41
2 5 6 61.53 11.88
-2 -5 -7 -0.54 4.46
2 5 7 2.39 5.09
-2 -5 -7 1.85 2.54
-2 -5 -8 2.66 4.81
2 5 8 0.61 4.62
2 5 8 9.11 5.01
2 5 9 37.28 10.46
-2 -5 -9 21.94 10.33
2 5 9 29.89 8.33
-2 -5 -10 21.59 9.94
2 5 10 19.78 6.75
2 5 10 22.96 8.79
-2 -5 -11 10.23 8.98
2 5 11 3.44 5.41
2 5 11 6.8 5.01
-2 -5 -12 3.42 5.16
-3 -5 16 -5.33 5.59
3 5 -15 9.38 6.59
-3 -5 15 2.81 4.03
3 5 -15 2.17 3.69
3 5 -14 1.03 4.18
-3 -5 14 3.38 4.38
3 5 -14 6.21 5.08
3 5 -13 0.8 3.55
-3 -5 13 -1.27 3.19
3 5 -13 -3.17 3.61
3 5 -12 8.49 5.42
-3 -5 12 8.64 6.13
3 5 -12 6.13 4.36
-3 -5 11 25.24 7.67
3 5 -11 20.59 7.4
3 5 -11 20.62 6.88
-3 -5 10 5.44 4.36
3 5 -10 4.35 4.12
-3 -5 10 5.59 2.94
3 5 -10 1.27 2.7
3 5 -9 6.58 3.59
-3 -5 9 1.14 2.83
3 5 -9 1.04 3.44
-3 -5 9 3.84 3.2
3 5 -9 -0.48 3.42
-3 -5 8 9.53 4.49
-3 -5 8 12.05 5.24
3 5 -8 3.03 2.69
3 5 -8 7.81 3.69
-3 -5 7 0.69 2.14
-3 -5 7 2.89 3.21
3 5 -7 -1.71 2.22
3 5 -6 3.08 3.26
-3 -5 6 6.93 5.81
-3 -5 6 1.43 2.28
-3 -5 6 1.13 2.37
3 5 -6 5.78 5.21
-3 -5 5 7.22 5.72
3 5 -5 13.47 4.68
-3 -5 5 5.21 3.24
-3 -5 5 4.11 3.42
3 5 -5 5.86 4.48
-3 -5 4 7.09 6.08
3 5 -4 11.51 4.85
-3 -5 4 -0.12 2.03
-3 -5 4 -2.33 4.44
3 5 -4 -5.55 5.8
-3 -5 3 24.78 9.26
-3 -5 3 19.99 5.11
-3 -5 3 22.19 6.94
3 5 -3 39.96 7.93
3 5 -3 12.34 4.29
-3 -5 2 37.57 11.58
-3 -5 2 33.99 6.6
-3 -5 2 26.98 7.83
3 5 -2 40.96 8.6
-3 -5 1 91.9 10.77
-3 -5 1 74.82 12.5
3 5 -1 89.77 12.29
-3 -5 1 98.05 18.08
-3 -5 0 3.42 5.16
-3 -5 0 1.74 1.81
3 5 0 -4.69 4.52
-3 -5 0 2.05 3.25
-3 -5 -1 -1.05 4.01
-3 -5 -1 7.05 4.93
-3 -5 -2 44.77 12.56
-3 -5 -2 58.69 12.28
3 5 2 18.49 5.59
3 5 3 21.14 6.72
-3 -5 -3 20.67 9.31
-3 -5 -4 11.66 6.86
3 5 4 -5.71 5.37
-3 -5 -5 9.99 7.06
3 5 5 4.92 4.18
-3 -5 -6 31.59 11.1
3 5 6 25.29 8.25
-3 -5 -7 7.36 6.66
3 5 7 0.26 3.95
3 5 8 23.4 8.43
-3 -5 -8 12.2 8.2
-3 -5 -9 3.95 6.29
3 5 9 9.64 7.01
-3 -5 -10 12.87 10.15
4 5 -14 7.26 5.46
-4 -5 13 9.25 5.52
4 5 -13 0.24 4.01
4 5 -13 2.61 4
-4 -5 12 4.91 4.7
4 5 -12 -1.36 3.29
4 5 -12 1.2 3.25
-4 -5 11 7.76 5.7
4 5 -11 -0.41 3.36
4 5 -11 -1.17 3.03
4 5 -10 10.77 5.91
4 5 -10 10.91 5.23
-4 -5 9 22.61 9.9
4 5 -9 15.89 5.22
4 5 -9 10.59 4.34
-4 -5 8 15.74 8.76
4 5 -8 6.49 3.9
4 5 -8 23.01 8.09
-4 -5 7 0.64 3.87
-4 -5 7 -5.49 4.57
4 5 -7 -0.57 2.48
-4 -5 6 9.61 6.68
-4 -5 6 -1.54 3.42
4 5 -6 7.41 5.48
4 5 -6 6.18 3.84
4 5 -5 29.92 7.21
-4 -5 5 18.38 8.6
-4 -5 5 11.4 5.37
4 5 -5 12.73 6.17
-4 -5 4 33.32 11.95
-4 -5 4 17.98 6.42
4 5 -4 18.17 6.29
-4 -5 3 37.73 11.9
-4 -5 3 45.06 10.44
4 5 -3 20.86 5.99
-4 -5 2 17.9 9.2
4 5 -2 28.42 8.08
-4 -5 2 14.1 6.54
-4 -5 1 -0.98 4.21
4 5 -1 6.45 4.9
-4 -5 1 4.7 4.09
-4 -5 0 10.04 7.38
4 5 0 1.29 2.9
-4 -5 0 2.35 4.08
-4 -5 -1 45.52 14.2
4 5 1 40.42 9.6
-4 -5 -2 5.11 5.63
4 5 2 -3.57 5.66
-4 -5 -3 8.59 7.12
4 5 3 -14.71 7.97
-4 -5 -4 21.55 10.93
4 5 4 3.33 3.82
-4 -5 -5 9.27 7.55
4 5 5 -7.2 6.09
-4 -5 -5 15.26 7.1
-4 -5 -6 7.37 7.01
4 5 6 -8.27 6.34
-4 -5 -6 1.73 4.07
-4 -5 -7 9.26 8.29
-4 -5 -7 6.99 4.65
4 5 7 -3.1 4.55
-5 -5 13 -1.52 4.34
5 5 -13 -0.12 4.34
-5 -5 12 7.74 7.49
-5 -5 12 -4.98 4.78
5 5 -12 3.68 5.01
-5 -5 11 9.24 7.86
-5 -5 11 7.29 5.5
5 5 -11 0.31 3.42
5 5 -11 2.37 3.66
-5 -5 10 9.28 8
-5 -5 10 5.44 4.73
5 5 -10 -2.52 3.91
-5 -5 9 4.47 5.64
-5 -5 9 3.64 4.74
5 5 -9 4.2 4.34
5 5 -9 10.69 6.03
-5 -5 8 2.95 4.91
-5 -5 8 4.26 4.9
5 5 -8 12.85 6.88
5 5 -8 -1.71 3.16
-5 -5 7 7.18 6.66
-5 -5 7 8.11 5.79
5 5 -7 9.31 5.67
5 5 -7 5.41 3.41
-5 -5 6 5.02 5.86
-5 -5 6 11.7 7.66
5 5 -6 3.64 4.09
5 5 -6 3.17 3.86
5 5 -5 4.68 4.38
-5 -5 5 1.06 4.67
-5 -5 5 4.31 4.67
5 5 -5 -6.07 6.23
-5 -5 4 9.37 7.18
5 5 -4 19.54 6.9
-5 -5 4 5.62 5.93
-5 -5 3 39.38 14.12
-5 -5 3 41.44 11.19
5 5 -3 60.82 11.6
-5 -5 2 -0.83 5.47
5 5 -2 11.38 6.95
-5 -5 2 2.62 4.87
-5 -5 1 21.67 10.12
5 5 -1 31.64 9.31
-5 -5 1 28.25 9.79
-5 -5 0 7.58 7.39
-5 -5 0 1.79 4.44
5 5 0 12.99 6.43
-5 -5 -1 3.8 5.35
-5 -5 -1 5.62 5.02
5 5 1 2.73 4.84
-5 -5 -2 1.67 5.36
-5 -5 -2 6.79 4.93
-5 -5 -3 0.9 4.74
-5 -5 -3 3.09 4.45
-5 -5 -4 -5.02 7.36
-5 -5 -4 1.04 4.26
5 5 4 -19.1 9.59
-5 -5 -5 -0.94 4.05
-5 -5 -6 8.05 5.84
-6 -5 10 -2.52 4.23
-6 -5 9 1.12 4.9
-6 -5 9 -4.62 5.8
6 5 -9 4.27 4.71
-6 -5 8 3.85 5.9
-6 -5 8 4.1 5.78
6 5 -8 6.62 5.84
6 5 -8 1.88 3.36
-6 -5 7 -7.47 8.88
-6 -5 7 0.44 4.26
6 5 -7 1.85 3.48
6 5 -7 2.8 3.6
-6 -5 6 -1.32 6.67
-6 -5 6 -2.53 5.14
6 5 -6 -7.81 6.33
6 5 -6 3.37 4.55
6 5 -5 9.27 5.54
-6 -5 5 8.89 7.51
-6 -5 5 1.92 4.87
6 5 -5 -8.18 8.1
-6 -5 4 -3.22 5.2
-6 -5 4 -2.8 4.77
-6 -5 3 2.71 6.2
-6 -5 3 0.69 3.97
-6 -5 2 2.17 5.04
6 5 -2 16.11 7.99
-6 -5 2 1.68 4.35
-6 -5 1 -1.27 6.76
6 5 -1 4.27 6.62
-6 -5 1 -1.34 5.15
-6 -5 0 -1.36 4.22
6 5 0 5.83 6.05
-6 -5 -1 6.89 6.68
7 5 -6 -15.65 7.47
7 5 -5 -15.51 10.37
8 -6 -2 1.76 4.85
8 -6 -3 -1.93 3.92
8 -6 -4 -0.46 4.86
8 -6 -4 2.21 3.45
8 -6 -4 -3.66 3.96
8 -6 -5 4.59 4.34
-8 6 5 2.6 4.8
8 -6 -5 -3.04 4.26
-8 6 6 6.73 6.3
8 -6 -6 2.26 3.75
-8 6 7 5.02 6.57
8 -6 -7 0.53 3.46
7 -6 7 0.65 3.32
-7 6 -6 -1.1 3.45
-7 6 -6 -0.93 4.69
7 -6 6 -2.25 3.66
-7 6 -5 0.28 3.16
-7 6 -5 2.88 4.06
7 -6 5 1.88 3.71
7 -6 5 -5.97 5.04
-7 6 -4 0.7 4.53
-7 6 -4 1.72 4.17
7 -6 4 0.03 3.36
7 -6 4 4.5 4.88
7 -6 3 3.78 4.53
-7 6 -3 3.42 5.61
-7 6 -3 0.1 3.59
7 -6 3 4.4 4.87
7 -6 3 17.51 7.45
7 -6 2 5.09 5.5
-7 6 -2 6.63 6.3
-7 6 -2 6.76 4.75
7 -6 2 2.16 3.11
-7 6 -2 -1.07 3.21
7 -6 2 13.93 6.89
7 -6 1 -0.07 4.98
-7 6 -1 -6.03 6.05
-7 6 -1 -0.38 3.2
7 -6 1 2 3.45
7 -6 1 1.46 3.9
7 -6 0 3.09 3.94
-7 6 0 4.3 3.61
-7 6 0 1.89 4.35
7 -6 0 2.14 4.71
7 -6 0 0.47 3.13
7 -6 0 -0.65 3.39
7 -6 -1 2.4 3.84
-7 6 1 -0.76 3.22
7 -6 -1 -0.17 2.98
7 -6 -1 -7.72 6.54
7 -6 -1 2.12 3.63
7 -6 -2 -2.24 4.43
7 -6 -2 4.02 4.25
-7 6 2 -4.36 4.38
7 -6 -2 -0.37 3.23
7 -6 -2 -7.53 6.28
7 -6 -2 2.15 3.35
7 -6 -3 8.56 5.39
-7 6 3 8.63 5.65
7 -6 -3 0.59 2.88
7 -6 -3 8.07 4.58
7 -6 -4 6.23 4.91
-7 6 4 4.52 4.97
-7 6 4 2.19 3.38
7 -6 -4 11.95 6.89
7 -6 -4 7.07 4.7
7 -6 -5 -2.69 3.63
-7 6 5 3.2 4.1
-7 6 5 0.4 3.93
7 -6 -5 -2.29 3.84
7 -6 -6 -1.66 3.01
-7 6 6 -1.94 3.31
-7 6 6 0.53 4.37
7 -6 -6 2.6 3.74
-7 6 7 0.54 3.89
-7 6 7 1.53 3.89
7 -6 -7 1.21 3.21
-7 6 8 2.44 4.42
-7 6 8 -0.57 3.64
7 -6 -8 -1.68 4.43
-7 6 9 -1.31 3.4
-7 6 9 -5.78 6.32
7 -6 -9 -1.42 4.72
-7 6 10 5.57 6.04
-7 6 10 4.79 3.95
-7 6 11 5.24 5.31
-6 6 -8 1.24 3.53
-6 6 -8 -2.49 4.13
6 -6 8 2.9 4.78
-6 6 -7 9.61 7.43
-6 6 -7 0.84 3.49
-6 6 -7 -2.66 4.12
6 -6 7 4.54 4.29
6 -6 7 10.77 7.15
-6 6 -7 -0.23 3.65
6 -6 6 2.46 4.35
-6 6 -6 6.92 7.07
-6 6 -6 -1.84 3.79
-6 6 -6 -5.66 5.28
6 -6 6 -0.19 3.16
6 -6 6 3.11 4.31
-6 6 -6 1.96 4.15
6 -6 5 6.18 4.9
-6 6 -5 0.26 3.79
-6 6 -5 -0.05 2.86
-6 6 -5 1.15 3
6 -6 5 6.86 4.99
6 -6 5 2.58 4.01
-6 6 -5 2.6 3.69
6 -6 4 -2.75 4.3
-6 6 -4 -2.7 3.91
-6 6 -4 -0.43 3.4
-6 6 -4 -0.56 3.16
6 -6 4 0.13 3.28
6 -6 4 4.94 5.44
-6 6 -4 -0.9 2.8
6 -6 3 9.29 5.44
-6 6 -3 7.8 5.71
-6 6 -3 6.71 4.74
-6 6 -3 -0.05 3.41
6 -6 3 -3.55 3.71
-6 6 -3 1.49 2.74
6 -6 2 4.47 4.21
-6 6 -2 2.28 4.27
-6 6 -2 1.15 4.02
-6 6 -2 -2.34 3.31
6 -6 2 3.13 4.53
6 -6 2 7.91 5.85
-6 6 -2 3.46 3.3
6 -6 1 1.27 3.22
-6 6 -1 -1.25 4.32
-6 6 -1 4.47 4.32
6 -6 1 0.41 3.42
6 -6 1 2.23 4.85
-6 6 -1 -2.64 2.73
6 -6 0 12.95 5.56
-6 6 0 5.76 5.02
-6 6 0 6.01 4.27
6 -6 0 0.36 3.6
6 -6 0 11.78 5.35
-6 6 0 7.16 3.56
6 -6 -1 9.03 5.29
-6 6 1 6.17 4.96
-6 6 1 11.02 5.71
6 -6 -1 4.55 4.97
6 -6 -1 -1.63 4.61
-6 6 1 3.78 3.28
6 -6 -2 11.56 5.53
-6 6 2 5.49 4.34
-6 6 2 7.07 4.25
6 -6 -2 6.96 5.13
6 -6 -2 -5.83 6.08
6 -6 -3 3.75 4.14
-6 6 3 4.67 3.79
-6 6 3 8.08 5.07
6 -6 -3 2.43 3.85
6 -6 -3 2.21 3.24
6 -6 -4 0.77 3.24
-6 6 4 2.44 3.49
-6 6 4 -0.12 2.75
-6 6 4 1.94 3.44
6 -6 -4 0.57 3.28
6 -6 -4 -2.87 3.56
6 -6 -5 -5.3 3.58
-6 6 5 0.15 3.1
-6 6 5 -3.44 4.18
-6 6 5 2.18 2.78
6 -6 -5 4.24 3.91
6 -6 -5 0.04 3.08
6 -6 -6 -1.12 2.99
-6 6 6 8.83 5.08
-6 6 6 5.43 4.58
-6 6 6 5.23 4
6 -6 -6 2.92 3.12
6 -6 -6 7.09 4.08
-6 6 7 27.41 8.86
-6 6 7 22.49 7.5
-6 6 7 24.88 7.14
6 -6 -7 26.33 7.84
-6 6 8 -1.98 3.81
-6 6 8 1.67 3.57
-6 6 8 -0.19 2.7
6 -6 -8 -1.61 4.8
-6 6 9 5.94 5.67
-6 6 9 -1.95 3.37
-6 6 9 -3.86 3.72
6 -6 -9 3.79 4.29
-6 6 10 3.58 6.05
-6 6 10 -0.64 3.17
-6 6 10 4.07 3.68
6 -6 -10 2.39 4.44
-6 6 11 10.39 7.14
-6 6 11 2.35 3.69
-6 6 11 -2.53 3.45
-6 6 12 1.95 3.3
5 -6 10 10.25 7.42
5 -6 9 11.17 7.11
-5 6 -9 -6.41 7.03
-5 6 -9 3.98 4.39
-5 6 -9 7.16 5.37
5 -6 9 3.72 4.95
5 -6 9 9.76 6.58
-5 6 -9 6.52 4.69
5 -6 8 11.97 6.66
-5 6 -8 -5.35 5.98
-5 6 -8 5.94 4.88
-5 6 -8 8.37 5.16
5 -6 8 11.43 6.36
5 -6 8 14.5 7.15
-5 6 -8 16.43 6.93
5 -6 7 4.48 4.61
-5 6 -7 -4.75 6.93
-5 6 -7 4.66 4.7
-5 6 -7 6.92 4.97
5 -6 7 6.02 5.24
5 -6 7 11.51 6.28
-5 6 -7 7.83 5.02
5 -6 6 1.98 4.19
-5 6 -6 -7.25 5.69
-5 6 -6 0.84 3.25
-5 6 -6 0.28 3.26
5 -6 6 -0.74 3.8
5 -6 6 -0.45 3.62
-5 6 -6 -1.97 3.46
5 -6 5 -2.15 3.77
-5 6 -5 1.61 3.59
-5 6 -5 -3.89 4.45
-5 6 -5 1.71 3.35
5 -6 5 0 3.32
5 -6 5 -2.35 3.26
-5 6 -5 3.54 3.72
5 -6 4 5.6 4.3
-5 6 -4 3.59 4.44
-5 6 -4 -0.55 3.43
-5 6 -4 2.59 3.54
5 -6 4 -0.36 3.48
5 -6 4 14.34 6.8
-5 6 -4 -2.54 3.28
5 -6 3 4.53 4.16
-5 6 -3 0.74 3.34
-5 6 -3 -5.79 4.89
-5 6 -3 -4.14 3.19
5 -6 3 2.94 3.01
-5 6 -3 -0.65 3.01
5 -6 2 -0.47 3.61
-5 6 -2 0.69 3
-5 6 -2 2.31 3.04
-5 6 -2 3.35 3.3
5 -6 2 2.5 3.07
5 -6 2 8.42 5.61
-5 6 -2 2.16 3.38
5 -6 1 1.18 3.31
-5 6 -1 -4.42 4.76
-5 6 -1 -2.26 4.05
-5 6 -1 1.82 2.68
-5 6 -1 3.81 3.56
5 -6 1 -0.06 3.02
5 -6 1 2.85 4.22
-5 6 -1 0.01 2.31
5 -6 0 16.3 6
-5 6 0 7.56 4.41
-5 6 0 4.56 3.47
-5 6 0 10.05 3.75
-5 6 0 8.36 5.07
5 -6 0 13.16 6.08
5 -6 0 5.22 4.12
-5 6 0 11.71 4.52
5 -6 -1 1.03 3.2
-5 6 1 2.53 2.83
-5 6 1 -1.35 3.38
-5 6 1 2.46 2.4
-5 6 1 -1.6 2.88
5 -6 -1 4.5 4.77
5 -6 -1 -8.27 6.48
-5 6 1 0.64 2.44
5 -6 -2 3.33 3.62
-5 6 2 0.71 2.8
-5 6 2 1.93 2.74
-5 6 2 -2.04 3.71
5 -6 -2 -5.82 5.33
-5 6 2 3.33 3.24
-5 6 3 68.29 11.54
-5 6 3 81.03 11.72
-5 6 3 65.13 8.75
5 -6 -3 76.5 13.26
-5 6 3 68.39 11.14
5 -6 -3 76.38 11.62
-5 6 4 3.77 3.32
-5 6 4 -1.56 3.24
-5 6 4 0.01 2.78
5 -6 -4 0.46 3.77
-5 6 4 2.23 2.74
5 -6 -4 1.14 3.07
-5 6 5 1.72 3.81
-5 6 5 -0.05 2.68
-5 6 5 0.05 3.12
5 -6 -5 0.59 3.18
5 -6 -5 -1.82 3.22
-5 6 6 0.43 2.71
-5 6 6 -0.67 2.78
-5 6 6 0.87 2.9
5 -6 -6 2.48 3.06
5 -6 -6 2.68 3.21
-5 6 7 6.05 3.9
-5 6 7 15.71 6.14
-5 6 7 11.35 4.7
5 -6 -7 8.88 4.76
5 -6 -7 12.57 5.88
-5 6 8 1.86 3
-5 6 8 3.64 4.13
-5 6 8 -2.3 2.64
5 -6 -8 -0.82 3.51
5 -6 -8 -0.23 3.35
-5 6 9 3.27 4.34
-5 6 9 17.41 6.25
-5 6 9 18.06 6.08
5 -6 -9 13.27 6.22
5 -6 -9 14.35 6.17
-5 6 10 24.66 8.63
-5 6 10 15.97 6.47
-5 6 10 27.02 7.24
5 -6 -10 19.16 7.04
5 -6 -10 24.45 8.15
-5 6 11 4.14 4.42
-5 6 11 1.22 3.8
-5 6 11 3.06 3.54
5 -6 -11 5.89 4.83
-5 6 12 -4.57 5.85
4 -6 11 -1.04 4.11
-4 6 -11 6.53 7.16
-4 6 -11 -0.43 4.39
4 -6 11 5.71 6.18
4 -6 10 16.22 7.7
-4 6 -10 20.12 8.35
-4 6 -10 18.94 7.6
4 -6 10 23.45 9.37
4 -6 10 31.47 9.28
-4 6 -10 20.36 7.46
4 -6 9 0.45 4.34
-4 6 -9 7.95 5.99
-4 6 -9 5.06 4.06
-4 6 -9 4.55 5.09
4 -6 9 4.94 5.37
4 -6 9 13.25 6.84
-4 6 -9 11.5 5.89
4 -6 8 -2.99 4.75
-4 6 -8 2.67 4.57
-4 6 -8 -2.85 3.37
-4 6 -8 -0.03 3.51
4 -6 8 -1.55 3.74
4 -6 8 3.45 4.28
-4 6 -8 -0.41 3.75
4 -6 7 -2.52 4.26
-4 6 -7 -2.16 4.59
-4 6 -7 -1.8 3.09
-4 6 -7 0.96 3.36
4 -6 7 3.58 4.9
4 -6 7 -0.52 3.06
-4 6 -7 2.34 3.09
4 -6 6 0.08 3.32
-4 6 -6 -1.82 3.63
-4 6 -6 -3.23 3.08
-4 6 -6 3.86 3.91
4 -6 6 -2.72 3.98
4 -6 6 -0.21 3.24
-4 6 -6 -0.95 3.36
4 -6 5 9.27 4.94
-4 6 -5 4.21 2.98
-4 6 -5 6.11 3.73
-4 6 -5 9.82 5.09
-4 6 -5 8.26 4.37
4 -6 5 8.6 5.76
4 -6 5 24.6 8.06
-4 6 -5 7.82 4.51
4 -6 4 46.22 9.81
-4 6 -4 44.97 9.5
-4 6 -4 50.42 9.47
-4 6 -4 46.93 8.97
-4 6 -4 43.78 8.64
4 -6 4 44.11 10.8
4 -6 4 68.66 12.48
-4 6 -4 41.37 8.72
4 -6 3 25.48 7.35
-4 6 -3 36.48 8.42
-4 6 -3 28.53 7.01
-4 6 -3 26.43 6.39
-4 6 -3 34.61 7.29
4 -6 3 30.38 9
4 -6 3 39.75 9.57
-4 6 -3 28.7 6.86
4 -6 2 -1.66 3.65
-4 6 -2 3.12 4.13
-4 6 -2 -0.03 2.86
-4 6 -2 4.71 3.3
-4 6 -2 -2.07 3.04
4 -6 2 0.12 3.21
4 -6 2 7.55 4.88
-4 6 -2 -0.48 2.3
4 -6 1 2.1 3.27
-4 6 -1 8.93 4.43
-4 6 -1 -0.56 2.77
-4 6 -1 2.41 2.67
-4 6 -1 0.39 2.76
4 -6 1 2.46 2.77
4 -6 1 2.6 3.22
-4 6 -1 2.01 2.34
4 -6 0 -0.98 2.82
-4 6 0 -1.33 2.45
-4 6 0 2.13 2.87
-4 6 0 1.52 2.31
-4 6 0 2.41 2.81
-4 6 0 3.46 3.95
4 -6 0 1.74 2.55
4 -6 0 -5.05 5.39
-4 6 0 -0.29 2.42
-4 6 1 16.32 4.97
-4 6 1 19.77 6.77
-4 6 1 12.73 4.23
-4 6 1 15.15 4.19
-4 6 1 17.18 5.33
4 -6 -1 10.13 3.11
-4 6 1 15.19 5.26
-4 6 2 70.73 11.25
-4 6 2 86.93 11.59
-4 6 2 64.73 7.62
-4 6 2 78.87 10.22
4 -6 -2 92.93 14.19
-4 6 2 74.63 10.14
-4 6 3 9.9 5.01
-4 6 3 11.65 4.55
-4 6 3 18.13 5.81
4 -6 -3 28.1 8.4
-4 6 3 17.94 5.42
-4 6 4 -0.71 2.04
-4 6 4 2.55 3.29
-4 6 4 5.84 3.77
4 -6 -4 6.82 5.01
-4 6 4 5.04 3.37
-4 6 5 -2.5 3.05
-4 6 5 1.1 2.53
-4 6 5 2.59 2.95
4 -6 -5 -1.56 3.39
-4 6 5 0.95 2.62
-4 6 6 4.58 3.79
-4 6 6 7.59 4.29
-4 6 6 8.64 4.46
4 -6 -6 1.79 3.25
-4 6 6 4.87 2.7
4 -6 -6 9.33 5.11
-4 6 7 11.61 5.51
-4 6 7 19.28 6.06
-4 6 7 22.73 5.99
4 -6 -7 18.49 6.9
4 -6 -7 20.16 7.08
-4 6 8 -1.69 4.23
-4 6 8 3.82 3.52
-4 6 8 4.9 3.63
4 -6 -8 0.12 4.3
4 -6 -8 4.26 4.45
-4 6 9 4.77 3.17
-4 6 9 24.11 6.57
-4 6 9 24.71 6.89
4 -6 -9 18.8 7.22
4 -6 -9 24.62 8.28
-4 6 10 0.46 2.85
-4 6 10 6.26 4.18
4 -6 -10 2.95 4.22
4 -6 -10 0.58 3.27
-4 6 11 7.58 4.56
-4 6 11 12.74 5.3
4 -6 -11 17.31 7.29
4 -6 -11 8.38 5.66
-4 6 12 9.62 4.6
4 -6 -12 10.8 6.35
-3 6 -12 17.5 8.23
-3 6 -12 3.99 6
3 -6 12 -1 4.04
3 -6 12 5.22 5.66
-3 6 -12 3.81 5.06
-3 6 -11 14.44 8.27
-3 6 -11 5.01 5.92
3 -6 11 4.74 5.51
3 -6 11 5.84 5.42
-3 6 -11 0.42 3.66
-3 6 -10 19.38 8.65
-3 6 -10 8.23 4.11
-3 6 -10 14.39 6.56
3 -6 10 11.39 6.62
3 -6 10 16.52 7.4
-3 6 -10 10.55 5.87
-3 6 -9 17.17 8.03
-3 6 -9 7.18 3.67
-3 6 -9 4.1 4.34
3 -6 9 6.59 5.24
3 -6 9 4.03 3.92
-3 6 -9 4.23 4.07
-3 6 -8 11.23 7.17
-3 6 -8 2.09 2.91
-3 6 -8 0.83 2.8
3 -6 8 0 4.46
3 -6 8 -5.43 4
-3 6 -8 1.14 3.42
-3 6 -7 11.62 5.87
-3 6 -7 7.68 4.61
-3 6 -7 5.44 4.05
-3 6 -7 8.37 3.38
3 -6 7 3.6 4.13
3 -6 7 9.32 5.79
-3 6 -7 3.66 3.48
-3 6 -6 7.39 5.25
-3 6 -6 3.85 3.31
-3 6 -6 2.6 3.74
-3 6 -6 -0.13 3.34
3 -6 6 1.18 3.61
-3 6 -6 4.8 3.92
-3 6 -5 0.18 2.91
-3 6 -5 1.87 3.23
-3 6 -5 0.99 2.43
-3 6 -5 -1.09 2.63
3 -6 5 -2.17 4.62
-3 6 -5 -4.03 3.41
-3 6 -4 1.37 2.54
-3 6 -4 3.94 3.94
-3 6 -4 1.12 2.53
-3 6 -4 3.33 3.22
3 -6 4 -1.11 3.49
3 -6 4 7.28 5.57
-3 6 -4 3.87 3.87
-3 6 -3 -0.3 2.47
-3 6 -3 8.3 4.47
-3 6 -3 7.73 4.3
-3 6 -3 4.82 3.36
3 -6 3 1.38 2.81
3 -6 3 6.53 4.48
-3 6 -3 6.27 4.21
-3 6 -2 5.43 2.17
-3 6 -2 10.84 4.59
-3 6 -2 12.57 5.03
-3 6 -2 10.74 4.06
3 -6 2 11.14 5.16
3 -6 2 9.71 5.63
-3 6 -2 14.78 5.67
-3 6 -1 31.45 6.49
-3 6 -1 30.01 7.17
-3 6 -1 23.61 4.68
-3 6 -1 35.66 7.49
-3 6 -1 27.23 5.94
3 -6 1 29.17 8.32
3 -6 1 15.04 5.77
-3 6 -1 31.46 7.43
-3 6 0 13.05 4.34
-3 6 0 7.29 2.74
-3 6 0 16.78 5.82
-3 6 0 16.12 5.4
-3 6 0 8.21 3.84
3 -6 0 8.89 4.84
3 -6 0 -0.31 5.06
-3 6 0 13.45 4.95
3 -6 -1 1.81 2.98
-3 6 1 2.06 2.06
-3 6 1 0.94 1.79
-3 6 1 1.84 2.77
-3 6 1 -2.28 2.74
-3 6 1 1.09 2.31
3 -6 -1 -0.05 3
-3 6 1 -0.52 2.36
3 -6 -2 37.77 7.33
-3 6 2 44.35 8.69
-3 6 2 37.15 5.96
-3 6 2 30.98 6.09
-3 6 2 34.81 6.6
3 -6 -2 50.89 10.72
-3 6 2 30.46 6.66
-3 6 3 124.93 12.63
-3 6 3 139.98 14.89
-3 6 3 103.05 9.24
3 -6 -3 164.4 19.06
-3 6 3 99.19 12.15
-3 6 3 102.61 11.51
3 -6 -3 124.51 12.87
-3 6 4 9.85 3.02
3 -6 -4 19.29 4.92
-3 6 4 28.39 7.48
-3 6 4 17.88 4.26
3 -6 -4 28.89 8.4
-3 6 4 15.73 4.76
-3 6 5 1.19 3.9
-3 6 5 19.52 6.3
-3 6 5 5.8 3.09
3 -6 -5 16.73 5.85
-3 6 5 13.04 4.74
-3 6 6 17.28 5.3
-3 6 6 54.93 9.81
-3 6 6 23.87 5.38
-3 6 6 54.29 9.63
3 -6 -6 44.78 10.13
3 -6 -6 47.04 9.96
-3 6 7 -1.92 3.64
-3 6 7 5.98 3.69
-3 6 7 -9.01 5
3 -6 -7 1.37 3.68
3 -6 -7 7.11 4.49
-3 6 7 12.21 5.33
-3 6 8 0.97 3.97
-3 6 8 13.98 4.92
-3 6 8 -3.69 4.46
3 -6 -8 10.21 4.38
3 -6 -8 14.28 6.11
-3 6 8 21.82 6.6
-3 6 9 -9.35 6.39
-3 6 9 5.2 4.02
-3 6 9 -10.05 5.17
3 -6 -9 6.59 5.39
3 -6 -9 5.36 4.41
-3 6 10 8.76 4.24
-3 6 10 20.45 6.49
-3 6 10 -0.26 3.93
3 -6 -10 23.37 8.75
3 -6 -10 23.2 7.76
-3 6 11 13.75 5.59
-3 6 11 29.23 7.27
3 -6 -11 30.69 8.97
-3 6 12 3.56 3.38
-3 6 12 -1.16 4.39
-3 6 13 -6.55 7.36
3 -6 -13 3.31 4.35
-2 6 -13 1.57 4.62
2 -6 13 -3.16 4.92
2 -6 13 8.63 6.02
-2 6 -13 -7.4 5.79
-2 6 -12 -11.4 7.63
-2 6 -12 2.67 4.13
2 -6 12 4.76 5.27
2 -6 12 5.95 5.19
-2 6 -12 7.32 5.56
-2 6 -11 2.08 3.65
2 -6 11 -1.71 3.88
2 -6 11 0.8 3.58
-2 6 -11 2.83 3.11
-2 6 -10 40.4 9.12
-2 6 -10 51.6 9.05
-2 6 -10 54.33 11.53
2 -6 10 65.68 13.61
-2 6 -10 63.59 12.02
2 -6 10 74.6 12.83
-2 6 -9 7.8 4.52
-2 6 -9 0.04 3.23
-2 6 -9 -0.54 2.43
2 -6 9 2.85 5.12
2 -6 9 0.81 3.18
-2 6 -9 0.91 3.72
-2 6 -8 -9.07 6.27
-2 6 -8 12.45 5.24
-2 6 -8 5.88 4.26
-2 6 -8 2.94 2.92
2 -6 8 7.92 4.81
2 -6 8 13.44 6.05
-2 6 -8 7.11 4.7
-2 6 -7 -8.93 5.28
-2 6 -7 3.04 3.27
-2 6 -7 -0.92 2.62
-2 6 -7 -3.37 4.31
2 -6 7 0.31 2.87
2 -6 7 8.1 5.91
-2 6 -7 -0.87 3.48
-2 6 -6 6.05 3.19
-2 6 -6 0.94 2.2
-2 6 -6 3.77 3.35
-2 6 -6 -1.02 3.01
2 -6 6 -3.05 4.92
2 -6 6 11.34 5.9
-2 6 -6 -4.28 4.25
-2 6 -5 11.11 4.91
-2 6 -5 2.39 3.12
-2 6 -5 3.67 3.63
-2 6 -5 1.46 2.79
2 -6 5 -0.57 4.35
2 -6 5 4.18 4.57
-2 6 -5 3.73 3.98
-2 6 -4 170.51 14.8
-2 6 -4 165.81 14.55
-2 6 -4 127.98 13.9
2 -6 4 144.04 17.69
-2 6 -4 139.34 15.36
2 -6 4 164.01 17.79
-2 6 -3 112.66 11.63
-2 6 -3 94.8 10.79
-2 6 -3 81.79 10.88
2 -6 3 101.9 14.76
2 -6 3 92.46 13.77
-2 6 -3 96.54 12.71
-2 6 -2 29.44 5.62
-2 6 -2 17.69 4.07
-2 6 -2 20.9 5.55
2 -6 2 24.96 7.41
2 -6 2 16.17 5.52
-2 6 -2 26.75 6.85
-2 6 -1 1.25 1.56
-2 6 -1 -2.92 2.54
-2 6 -1 -9.01 4.88
-2 6 -1 -1.99 1.92
2 -6 1 0.01 2.58
2 -6 1 -7.22 5.93
-2 6 -1 -1.84 3.04
2 -6 0 15.24 5.77
-2 6 0 0.93 2.17
-2 6 0 10.46 3.11
-2 6 0 -0.26 2.45
-2 6 0 1.73 2.06
2 -6 0 8.87 5.42
-2 6 0 5.11 3.06
-2 6 1 14.94 3.59
2 -6 -1 27.96 7.11
-2 6 1 21.29 3.6
-2 6 1 12.29 3.95
-2 6 1 16.6 4.83
2 -6 -1 22.38 7.37
-2 6 1 21.14 6.12
-2 6 2 74.54 9.48
-2 6 2 74.67 9.05
-2 6 2 71.65 8.61
2 -6 -2 116.66 15.77
-2 6 2 108.15 13.6
2 -6 -2 102.44 13.3
2 -6 -3 23.2 6.59
-2 6 3 21.69 5.57
-2 6 3 23.34 5.28
2 -6 -3 23.43 7.77
-2 6 3 31.15 8.01
-2 6 3 21.69 5.01
2 -6 -4 36.92 8.22
-2 6 4 49.53 8.22
-2 6 4 40.08 6.69
-2 6 4 50.74 8.3
-2 6 4 63.24 10.86
2 -6 -4 37.85 9.84
2 -6 -5 17.69 5.88
-2 6 5 12.93 4.76
-2 6 5 28.49 6.84
-2 6 5 20.89 4.69
2 -6 -5 16.22 6.4
-2 6 5 22.62 6.83
-2 6 5 25.6 6.78
2 -6 -6 42.83 9.21
-2 6 6 71.73 10.23
-2 6 6 34.75 7.45
-2 6 6 56.49 9.79
2 -6 -6 49.86 11.08
-2 6 6 52.88 10.26
2 -6 -7 1.89 2.82
-2 6 7 7.81 4.38
-2 6 7 20.14 5.94
2 -6 -7 3.28 4.32
2 -6 -7 0.71 2.73
-2 6 7 -4.08 4.97
-2 6 7 18.57 6.49
2 -6 -8 10.55 4.99
-2 6 8 8.09 4.75
-2 6 8 26.64 7
2 -6 -8 11.83 6.17
2 -6 -8 7.39 4.69
-2 6 8 -4.26 5.46
-2 6 8 20.15 7.17
-2 6 9 14.12 5.3
-2 6 9 23.1 6.52
2 -6 -9 6.3 4.74
2 -6 -9 9.04 5.36
-2 6 9 -5.33 5.81
-2 6 9 25.13 7.85
-2 6 10 29.01 7.36
-2 6 10 40.16 8.39
2 -6 -10 32.96 10.16
2 -6 -10 20.86 7.04
-2 6 10 46.32 11.38
-2 6 11 13.13 5.86
2 -6 -11 -3.57 3.77
-2 6 11 17 7.1
-2 6 12 27.36 7.15
2 -6 -12 12.1 6.4
-2 6 12 19.13 8.1
-2 6 13 19.07 6.18
2 -6 -13 14.01 6.57
-2 6 13 19.66 9.18
2 -6 -14 4.35 4.24
-1 6 -14 -0.49 4.97
1 -6 14 2.35 5.02
-1 6 -14 0.72 3.63
-1 6 -13 1.56 4.05
-1 6 -13 1.66 4.4
1 -6 13 1.19 4.15
1 -6 13 0.76 3.51
-1 6 -13 -2.82 3.31
-1 6 -12 -1.02 3.62
-1 6 -12 -0.22 3.43
1 -6 12 1.19 4.33
1 -6 12 -3.95 4.13
-1 6 -12 -0.68 3.33
-1 6 -11 11.22 5.36
-1 6 -11 12.04 4.9
-1 6 -11 7.24 5.55
1 -6 11 13.68 7.58
1 -6 11 10.73 6.13
-1 6 -11 10.59 5.78
-1 6 -10 3.33 3.19
-1 6 -10 4.11 4.6
-1 6 -10 4.53 2.84
1 -6 10 9.88 6.22
-1 6 -10 8.55 5.64
-1 6 -9 3.85 3.45
-1 6 -9 1.42 2.36
-1 6 -9 -0.76 3.18
1 -6 9 2.07 3.73
1 -6 9 12.65 6.43
-1 6 -9 -3.07 3.97
-1 6 -8 8.13 4.17
-1 6 -8 12.15 4.51
-1 6 -8 10.35 5.35
1 -6 8 7.89 5.37
1 -6 8 19.41 7.37
-1 6 -8 7.29 4.78
-1 6 -7 4.23 3.52
-1 6 -7 6.08 3.95
-1 6 -7 1 3.34
1 -6 7 2.64 3.21
1 -6 7 7.09 5.17
-1 6 -7 6.25 4.27
-1 6 -6 3.42 2.41
-1 6 -6 0.67 2.25
-1 6 -6 4.05 2.93
1 -6 6 2.75 2.99
1 -6 6 12.02 5.42
-1 6 -6 4.61 3.69
-1 6 -5 -1.11 2.61
-1 6 -5 -6.52 4.28
-1 6 -5 -2.73 3.7
1 -6 5 0.65 3.55
1 -6 5 0.09 3
-1 6 -5 -2.84 3.7
-1 6 -4 3.92 1.92
-1 6 -4 4.97 2.52
-1 6 -4 5.23 3.21
1 -6 4 8.44 4.23
1 -6 4 3.01 2.91
-1 6 -4 9.03 4.33
-1 6 -3 31.97 4.99
-1 6 -3 36.97 6.3
-1 6 -3 33.45 7.61
1 -6 3 38.99 8.9
1 -6 3 22.54 6.61
-1 6 -3 39.12 8.46
-1 6 -2 26.15 4.88
-1 6 -2 20.53 5.06
-1 6 -2 16.34 5.62
1 -6 2 18.38 6.66
1 -6 2 10.91 4.82
-1 6 -2 14.05 4.97
-1 6 -2 16.27 3.02
-1 6 -1 147.02 9.56
-1 6 -1 179.26 14.36
-1 6 -1 156.82 15.02
1 -6 1 164.63 17.49
-1 6 -1 157.62 10.02
1 -6 1 159.87 18.83
-1 6 -1 165.46 17.11
1 -6 1 181.33 19.74
1 -6 0 9.72 4.85
-1 6 0 27.94 6.34
-1 6 0 13.27 4.93
1 -6 0 17.85 6.64
-1 6 0 15.61 6.41
-1 6 0 19.94 3.86
1 -6 -1 37.73 9.03
-1 6 1 39.8 7.6
-1 6 1 47.2 9.98
1 -6 -1 34.4 9.05
-1 6 1 25.44 4.82
1 -6 -2 52 10.33
-1 6 2 95.52 11.25
-1 6 2 56.23 6.83
1 -6 -2 62.53 12.15
-1 6 2 69.15 11.79
1 -6 -3 14.35 6.33
1 -6 -3 21.24 7.31
-1 6 3 18.12 6.56
-1 6 3 13.9 3.4
1 -6 -4 12.3 5.98
1 -6 -4 17.29 7
-1 6 4 7.46 3.89
-1 6 4 7 2.11
1 -6 -5 19.04 6.93
1 -6 -5 20.72 7.96
-1 6 5 10.12 3.95
-1 6 5 8.19 2.67
-1 6 6 138.97 13.69
-1 6 6 106.81 12.14
1 -6 -6 103.25 16.28
-1 6 6 85.81 13.22
1 -6 -6 105.73 16.08
1 -6 -7 37.74 9.68
-1 6 7 58.47 9.46
1 -6 -7 34.55 9.52
1 -6 -7 39.45 8.79
-1 6 7 32.34 6.38
1 -6 -8 10.18 5.72
-1 6 8 10.79 5.44
1 -6 -8 2.89 4.64
1 -6 -8 6.09 3.94
-1 6 8 -5.56 6.21
1 -6 -9 6.98 5.71
-1 6 9 12.32 5.29
1 -6 -9 9.4 6.58
1 -6 -9 1.2 2.99
1 -6 -10 5.74 5.65
-1 6 10 0.33 2.41
-1 6 10 8.53 5.22
1 -6 -10 1.38 3
-1 6 10 6.69 3.38
-1 6 11 29.6 7.32
-1 6 11 48.89 10.97
-1 6 12 57.12 9.87
-1 6 12 66.9 13.55
1 -6 -12 28.83 8.56
-1 6 13 48.19 9.59
1 -6 -13 17.52 6.77
1 -6 -14 1.67 3.88
0 -6 15 17 7.62
0 6 -14 24.53 8.69
0 6 -14 17.77 7.81
0 -6 14 10.42 6.33
0 -6 14 23.92 8.32
0 6 -14 14.69 7
0 6 -13 8.52 5.98
0 6 -13 4.34 4.67
0 -6 13 1.79 3.61
0 -6 13 15.32 7.05
0 6 -13 5.23 5.06
0 6 -12 15.77 7.11
0 6 -12 5.02 5.51
0 -6 12 1.19 3.52
0 -6 12 21.15 8.14
0 6 -12 12.87 6.21
0 6 -11 15.23 6.48
0 6 -11 3.93 5.11
0 -6 11 1.97 3.41
0 -6 11 5.96 5.41
0 6 -11 4.94 5.02
0 6 -10 30.21 7.66
0 6 -10 18.23 5.18
0 6 -10 14.87 6.28
0 -6 10 19.07 7.52
0 -6 10 27.38 8.26
0 6 -10 14.43 6.36
0 6 -9 41.46 8.24
0 6 -9 29.98 6.2
0 6 -9 26.71 8.14
0 -6 9 24.68 8.1
0 -6 9 36.44 9.28
0 6 -9 25.68 7.85
0 6 -8 36.91 7.38
0 6 -8 17.16 4.07
0 6 -8 17.55 6.5
0 -6 8 24.74 8.29
0 -6 8 30.52 7.97
0 6 -8 19.27 6.47
0 6 -7 22.6 5.78
0 6 -7 4.69 2.04
0 6 -7 6.34 4.28
0 -6 7 6.87 4.06
0 -6 7 8.05 4.93
0 6 -7 9.54 5.12
0 6 -6 8.9 4.18
0 6 -6 1.15 1.9
0 6 -6 -1.47 3.1
0 -6 6 -1.43 3.1
0 -6 6 -3 4.65
0 6 -6 -2.03 3.63
0 6 -5 49.36 7.22
0 6 -5 45.54 7.17
0 6 -5 44.48 9.16
0 -6 5 32.09 8.38
0 -6 5 32 8.02
0 6 -5 30.63 7.52
0 6 -4 33.22 5.52
0 6 -4 36.65 6.57
0 6 -4 34.76 8.11
0 -6 4 28.55 7.92
0 -6 4 16.38 6.04
0 6 -4 28.93 7.87
0 6 -3 80.81 8.2
0 6 -3 72.23 7.07
0 6 -3 106.9 11
0 6 -3 80.35 12.05
0 -6 3 64.17 11.09
0 6 -3 74.9 5.78
0 -6 3 80.58 13.42
0 6 -3 83.83 13.19
0 6 -2 53.31 7.22
0 6 -2 46.47 5.26
0 6 -2 74.37 9.33
0 6 -2 57.07 9.85
0 6 -2 53.96 5.51
0 -6 2 47.11 9.62
0 6 -2 67.28 11.64
0 -6 2 49.68 10.86
0 -6 2 59.63 12.36
0 -6 1 22.63 7.81
0 6 -1 35.88 6.95
0 6 -1 11.66 2.11
0 6 -1 28.02 4.53
0 -6 1 17.79 6.2
0 -6 1 26.08 7.97
0 6 -1 28.55 5.86
0 6 -1 33.64 8.74
0 -6 0 -1.12 4.09
0 6 0 9.72 4
0 6 0 18.14 5.9
0 -6 0 5.1 4.58
0 6 0 8.07 3.1
0 6 0 4.1 4.02
0 6 1 190.89 15.58
0 6 1 211.72 15.83
0 6 1 175.04 11.89
0 -6 -1 176.22 19.7
0 6 1 159.65 18.21
0 -6 -1 152.34 19.74
0 -6 -2 5.45 4.89
0 6 2 10.32 4.8
0 -6 -2 -9.53 5.47
0 6 2 6.81 3.29
0 6 2 6.98 4.43
0 6 2 -5.29 5.85
0 -6 -3 7.9 5.47
0 6 3 12.96 5.37
0 -6 -3 5.99 5.59
0 6 3 8.46 3.7
0 6 3 4.97 4.07
0 6 3 -9.75 7.48
0 -6 -4 27.15 8.91
0 -6 -4 22.87 8.42
0 6 4 36.18 6.44
0 -6 -5 41.41 11.22
0 6 5 57.75 8.54
0 -6 -5 52.52 12
0 -6 -6 5.78 4.96
0 -6 -6 3.36 3.92
0 6 6 1.95 2.41
0 -6 -7 16.17 7.3
0 -6 -7 25.68 9.56
0 -6 -7 19.51 6.39
0 6 7 21.87 5.79
0 -6 -8 35.33 10.72
0 -6 -8 45.64 12.26
0 -6 -8 35.08 8.33
0 6 8 32.72 7.27
0 -6 -9 15.46 8.18
0 -6 -9 13.97 5.81
0 6 9 6.03 3.73
0 -6 -10 5.68 4.99
0 -6 -10 -4.33 3.78
0 6 10 -2.37 5.15
0 -6 -11 5.35 5.04
0 -6 -11 -0.15 3.03
0 6 11 -8.5 6.4
0 -6 -12 -0.44 4.78
0 -6 -12 3.46 3.65
0 6 13 14.81 6.27
-1 -6 15 11.16 6.85
1 6 -15 3.32 5.3
1 6 -14 0.82 3.79
-1 -6 14 3.31 4.39
-1 -6 14 8.29 6
1 6 -14 0.86 4.03
1 6 -13 6.1 5.48
-1 -6 13 2.66 4.64
-1 -6 13 12.04 6.55
1 6 -13 -1.53 3.81
1 6 -12 5.98 5.34
-1 -6 12 1.5 3.43
-1 -6 12 12.81 6.43
1 6 -12 7.89 5.41
1 6 -11 -4.7 5.39
-1 -6 11 2.74 4.42
-1 -6 11 1.91 3.93
1 6 -11 1.89 4.26
1 6 -10 -2.92 4.89
-1 -6 10 0 3.05
-1 -6 10 -3.05 3.77
1 6 -10 -0.09 3.25
1 6 -9 -1.22 3.23
1 6 -9 4.29 4.99
-1 -6 9 5.03 4.65
-1 -6 9 -2.37 3.84
1 6 -9 6.29 4.27
1 6 -8 0.49 1.81
1 6 -8 2.18 3.67
-1 -6 8 -1.62 3.82
-1 -6 8 -7.24 5.43
1 6 -8 2.92 3.81
1 6 -7 18.25 4.83
1 6 -7 6.55 4.54
-1 -6 7 6.62 4.63
-1 -6 7 -0.1 4.72
1 6 -7 4.85 4.21
1 6 -6 72.46 9.01
1 6 -6 50.76 10.45
-1 -6 6 46.36 9.94
-1 -6 6 44.77 9.86
1 6 -6 59.19 11.03
1 6 -5 31.95 6.79
1 6 -5 12.43 5.4
-1 -6 5 13.01 5.33
-1 -6 5 15.84 5.84
1 6 -5 12.58 6.17
1 6 -4 80.32 9.38
-1 -6 4 65.2 11.2
-1 -6 4 70.13 12.31
1 6 -4 86.27 13.56
1 6 -4 58.28 7.36
1 6 -3 106.57 11.01
-1 -6 3 87.76 12.62
-1 -6 3 99.45 14.67
1 6 -3 100.97 14.51
1 6 -3 73.88 8.67
-1 -6 3 79.13 15.61
-1 -6 2 3.17 4.52
1 6 -2 12.76 4.64
-1 -6 2 -3.45 3.37
1 6 -2 3.5 2.63
-1 -6 2 1.54 3.13
1 6 -2 8.78 5.47
-1 -6 1 63.96 10.74
1 6 -1 63.95 11.92
-1 -6 1 64.91 12.15
1 6 -1 73.94 9.65
-1 -6 1 65.37 13.69
-1 -6 0 32.58 9.91
-1 -6 0 36.91 9.04
1 6 0 31.99 7.23
1 6 0 24.79 6.93
-1 -6 -1 77.02 14.03
1 6 1 54.55 10.78
1 6 1 80.02 11.23
-1 -6 -1 78.58 15.41
-1 -6 -2 7.54 5.82
1 6 2 1.66 3.46
-1 -6 -2 -0.1 3.7
-1 -6 -3 -0.48 4.41
1 6 3 9.65 5.57
-1 -6 -3 2.93 3.36
1 6 3 4.92 3.73
-1 -6 -4 -3.77 5.21
-1 -6 -4 -4.56 5.83
1 6 4 8.02 5.71
1 6 4 7.02 4.01
-1 -6 -5 -2.23 4.5
1 6 5 11.78 5.9
-1 -6 -5 2.86 4.78
1 6 5 4.02 4.38
-1 -6 -6 22.16 9.23
1 6 6 26.03 8.01
-1 -6 -6 22.33 8.62
1 6 6 39.89 7.75
-1 -6 -7 53.06 14.35
1 6 7 64.81 10.19
1 6 7 67.91 12.9
-1 -6 -7 52.23 9.35
1 6 8 15.66 7.72
-1 -6 -8 6.7 5.47
-1 -6 -8 12.89 5.06
1 6 8 16.46 5.76
-1 -6 -9 -1.19 4.59
-1 -6 -9 -1.1 2.67
1 6 9 5.9 4.2
-1 -6 -10 9.61 7.46
1 6 10 14.37 5.62
-1 -6 -11 -0.52 3.77
-1 -6 -12 -9.09 7.29
2 6 -15 3.56 3.72
-2 -6 14 18.63 8.31
2 6 -14 16.6 7.15
2 6 -13 -0.74 4.63
-2 -6 13 4.35 6.06
2 6 -13 2.34 3.51
2 6 -12 2.89 4.36
-2 -6 12 -2.03 4.22
-2 -6 12 -6.5 5.18
2 6 -12 1.04 3.82
2 6 -11 -1.47 4.61
-2 -6 11 5.67 3.67
-2 -6 11 -6.76 5.95
2 6 -11 8.33 5.93
2 6 -10 5.67 5.22
-2 -6 10 4.23 4.07
-2 -6 10 -8.5 6.48
2 6 -10 -0.43 3.05
2 6 -9 7.78 3.42
2 6 -9 6.08 4.98
-2 -6 9 0.11 3.03
-2 -6 9 -4.04 5
2 6 -9 3.6 3.56
2 6 -8 18.41 5.17
2 6 -8 12.19 5.84
-2 -6 8 5.22 4.09
-2 -6 8 7.64 5.1
2 6 -8 7.88 5.33
2 6 -7 26.31 5.77
2 6 -7 16.89 6.26
-2 -6 7 14.63 6.17
-2 -6 7 16.72 6.69
2 6 -7 14.42 6.24
2 6 -6 12.8 4.62
-2 -6 6 7.54 4.58
-2 -6 6 2.87 3.77
2 6 -6 16.6 6.68
-2 -6 5 10.55 6.89
-2 -6 5 3.95 3.2
2 6 -5 -6.64 3.84
-2 -6 5 3.26 3.68
2 6 -5 12.29 6.28
-2 -6 4 21.26 9.02
-2 -6 4 4.62 3.6
-2 -6 4 7.51 5.3
2 6 -4 1.46 2.57
2 6 -4 18.94 7.4
-2 -6 3 6.5 5.75
-2 -6 3 0.71 2.38
-2 -6 3 0.03 3.25
2 6 -3 2.79 4.56
2 6 -3 -5.88 4.43
-2 -6 2 2.4 4.34
-2 -6 2 -1.08 3.1
-2 -6 2 -2.05 3.94
2 6 -2 -5.61 5.78
2 6 -2 -2.34 3.81
-2 -6 1 13.71 7.45
2 6 -1 7.58 2.81
-2 -6 1 15.97 5.73
-2 -6 1 10.63 6.26
2 6 -1 -2.85 6.3
-2 -6 0 38.04 11.77
2 6 0 18.74 5.37
-2 -6 0 43.28 8.61
-2 -6 0 39.13 10.48
2 6 0 15.13 4.08
-2 -6 -1 33.52 11.76
2 6 1 23.65 6.41
-2 -6 -1 31.64 9.1
-2 -6 -2 8.23 6.07
2 6 2 7.94 4.41
-2 -6 -2 3.72 4.38
-2 -6 -3 32.77 11.73
2 6 3 27.74 8
-2 -6 -3 29.76 10.04
-2 -6 -4 -4.24 5.97
-2 -6 -4 1.05 3.93
2 6 4 -1.73 3.86
2 6 5 9.95 5.76
-2 -6 -5 4.99 4.78
-2 -6 -5 7.98 6.32
-2 -6 -6 -1.19 5.8
2 6 6 15 7.19
-2 -6 -7 -3.54 6.81
2 6 7 5.33 5.02
2 6 7 9.28 6.54
-2 -6 -8 5.02 6.36
2 6 8 12.35 7.06
2 6 8 14.55 6.34
-2 -6 -9 14.99 9.9
2 6 9 26.74 9.52
2 6 9 18.61 7.12
-2 -6 -10 2.87 6.99
3 6 -15 2.89 4.18
-3 -6 14 -0.19 4.07
3 6 -14 3.72 4.31
3 6 -13 2.75 5.97
-3 -6 13 4.77 5.35
3 6 -13 -2.86 3.59
3 6 -12 5.58 4.31
-3 -6 12 5.14 3.56
3 6 -12 3.35 4.78
3 6 -11 1.54 5.13
-3 -6 11 1.59 2.87
3 6 -11 2.7 4.26
-3 -6 10 5.21 4.59
3 6 -10 5.68 5.53
3 6 -10 0.98 3.53
-3 -6 9 3.63 4.64
3 6 -9 4.6 4.02
-3 -6 9 4.05 3.76
3 6 -9 1.87 3.27
-3 -6 8 13.05 9
3 6 -8 6.6 3.46
-3 -6 8 1.04 3.29
3 6 -8 0.47 4.08
-3 -6 8 4.87 4.98
3 6 -8 2.63 3.92
-3 -6 7 2.08 5.37
-3 -6 7 1.42 2.85
-3 -6 7 -0.9 3.03
-3 -6 6 13.9 8.34
3 6 -6 16.26 5.49
-3 -6 6 13.78 5.37
-3 -6 6 10.39 5.14
3 6 -6 22.54 8.02
-3 -6 5 18.28 8.82
3 6 -5 19.84 5.71
-3 -6 5 14.59 5.78
-3 -6 5 13.22 5.7
3 6 -5 15.68 7.06
-3 -6 4 62.56 15.66
-3 -6 4 60.01 10.25
3 6 -4 67.73 12.91
-3 -6 4 58.07 11.88
3 6 -4 57.21 9.88
-3 -6 3 7.27 6.21
-3 -6 3 6.35 3.69
3 6 -3 0.02 3.77
-3 -6 3 9.84 6.02
3 6 -3 -0.55 5.31
-3 -6 2 10.64 7.05
-3 -6 2 6.48 3.88
3 6 -2 -8.09 5.59
-3 -6 2 7.4 5.42
3 6 -2 -6.37 6.7
-3 -6 1 2.08 5.06
-3 -6 1 -3.1 5.21
3 6 -1 -15.33 6.89
3 6 -1 -20.57 9.66
-3 -6 0 4.96 6.03
-3 -6 0 -1.98 4.95
3 6 0 -8.63 5.77
3 6 1 9.61 3.5
-3 -6 -1 10.44 6.85
-3 -6 -1 10.51 6.77
-3 -6 -2 19.01 8.77
3 6 2 13.33 4.7
-3 -6 -2 15.79 7.63
-3 -6 -3 -6.83 6.59
3 6 3 -7.62 5.84
-3 -6 -3 8.9 6.95
-3 -6 -4 -8.25 7.91
3 6 4 -7.78 5.5
-3 -6 -5 7.45 6.7
3 6 5 22.83 7.93
-3 -6 -6 -3.22 7.38
3 6 6 2.96 4.52
-3 -6 -7 1.83 4.91
3 6 7 10.53 6.71
-3 -6 -8 5.28 7.05
-4 -6 13 1.67 4.26
4 6 -13 3.67 4.08
-4 -6 12 5.65 5.77
4 6 -12 -3.79 4.87
-4 -6 11 17.8 9.59
4 6 -11 9.31 6.09
4 6 -11 3.3 3.74
-4 -6 10 1.5 6.18
4 6 -10 3.22 4.96
4 6 -10 -2.52 4.36
-4 -6 9 6.24 7.58
4 6 -9 5.11 4.75
4 6 -9 0.52 3.06
-4 -6 8 0.25 3.97
4 6 -8 11.58 6.24
-4 -6 7 4.82 5.83
4 6 -7 6.98 5.28
-4 -6 6 -1.62 4.5
4 6 -6 11.48 5.85
-4 -6 6 0.73 3.01
4 6 -6 8.88 5.69
-4 -6 5 3.8 4.41
4 6 -5 12.16 5.4
-4 -6 5 8.09 5.22
4 6 -5 8.66 5.67
-4 -6 4 -1.33 6.95
4 6 -4 6.41 5.32
-4 -6 4 0.52 3.3
4 6 -4 -2.39 4.77
-4 -6 3 8.1 7.72
4 6 -3 6.23 5.01
-4 -6 3 -0.6 4.41
4 6 -3 -10.06 7.53
-4 -6 2 7.42 7.7
4 6 -2 2.95 3.19
-4 -6 2 4.2 3.42
-4 -6 1 9.6 8
4 6 -1 -9.61 6.14
-4 -6 1 -6.63 5.7
-4 -6 0 1.88 4.65
-4 -6 0 3.48 4.42
4 6 0 -9.12 6.89
-4 -6 -1 3.14 6.51
4 6 1 -16.51 8.09
4 6 2 -7.44 6.35
-4 -6 -2 -0.54 5.3
-4 -6 -3 3.38 6.56
4 6 3 -4.31 6.58
-4 -6 -4 -8.95 8.58
4 6 4 -7.03 7
4 6 5 -0.83 4.65
-4 -6 -6 8.92 6.41
5 6 -11 -2.01 3.65
5 6 -10 1.47 4.03
-5 -6 9 7.54 6.51
5 6 -9 -0.17 4.89
-5 -6 8 5.61 5.73
5 6 -8 9.85 6.5
-5 -6 7 5.32 5.57
-5 -6 7 -5.77 6.72
5 6 -7 9.06 7
-5 -6 6 -4.8 6.4
-5 -6 6 -2.42 5.18
5 6 -6 5.65 5.17
-5 -6 5 -1.5 4.41
5 6 -5 14.82 7.14
-5 -6 5 5.42 6.92
5 6 -5 -4.14 5.45
-5 -6 4 22.59 11.07
5 6 -4 24.5 8.69
-5 -6 4 22.24 10.1
5 6 -4 8.47 5.79
-5 -6 3 -1.84 5.46
5 6 -3 -2.31 3.78
-5 -6 3 7.74 6.91
-5 -6 2 5.89 7.5
-5 -6 2 6.23 6.33
5 6 -2 -7.1 5.88
-5 -6 1 1.82 5.83
-5 -6 1 1.14 4.3
5 6 -1 -9.97 6.71
-5 -6 0 3.42 4.83
5 6 0 -17.48 7.78
-5 -6 -1 1.56 4.14
5 6 1 -12.43 7.98
6 6 -8 7.67 7.21
6 6 -7 1.08 4.78
6 6 -6 15.74 8.19
6 6 -6 -1.49 3.88
6 6 -5 13.18 7.74
6 6 -5 -7.29 6.66
8 -7 -3 0.59 3.89
-7 7 -3 -4.22 5.36
7 -7 3 -0.55 4.08
-7 7 -3 1.81 3.51
7 -7 3 3.02 5.38
-7 7 -2 -1.86 3.87
7 -7 2 -3.63 5.36
7 -7 2 -5.89 5.22
-7 7 -1 0.12 4.02
7 -7 1 2.95 4.28
7 -7 0 -3.95 4.31
7 -7 0 -4.52 5.72
7 -7 -1 1.83 3.7
7 -7 -1 0.22 4.26
7 -7 -1 -2.79 4.88
7 -7 -2 7.56 5.15
7 -7 -2 4.19 4.93
7 -7 -2 3.33 4.8
7 -7 -2 6.85 5.23
7 -7 -3 3 4.23
7 -7 -3 11.91 7.13
7 -7 -3 9.91 5.78
7 -7 -4 -2.13 4.65
7 -7 -4 -1.69 3.39
7 -7 -4 4.1 4.78
7 -7 -5 -2.34 3.7
7 -7 -5 1.9 3.66
-7 7 8 4.41 4.92
-6 7 -7 -4 4.68
-6 7 -6 7.77 7.09
-6 7 -6 1.81 3.57
-6 7 -6 -0.67 3.67
6 -7 6 -0.5 4.49
-6 7 -5 1.73 5.08
-6 7 -5 4.79 5.15
-6 7 -5 3.43 4.63
6 -7 5 3.54 5.17
6 -7 5 14.54 8.19
-6 7 -5 0.53 3.28
-6 7 -4 8.84 6.25
-6 7 -4 8.21 5.9
6 -7 4 4.4 4.92
6 -7 4 11.25 7.26
-6 7 -4 1.33 3.96
6 -7 3 8.06 5.61
-6 7 -3 3.27 5.82
-6 7 -3 4.89 4.91
6 -7 3 7.46 6.44
6 -7 3 6.49 5.74
-6 7 -3 7.05 4.69
6 -7 2 -3.81 4.52
-6 7 -2 2.88 4.79
-6 7 -2 2.75 3.8
6 -7 2 -4.81 5.12
6 -7 2 -1.5 3.91
-6 7 -2 9.58 4.72
6 -7 1 -0.82 4.25
-6 7 -1 -3.5 4.71
-6 7 -1 3.1 4.17
6 -7 1 -4.62 5.33
6 -7 1 -7.25 6.22
-6 7 -1 0.44 3.43
6 -7 0 -8.82 6.26
-6 7 0 -0.66 3.31
6 -7 0 -1.92 4.14
6 -7 0 -9.9 7.17
-6 7 0 -2.28 3.22
6 -7 -1 4.5 3.47
-6 7 1 8.55 6.09
6 -7 -1 5.92 5.72
6 -7 -1 -2.77 5.33
6 -7 -2 2.78 3.42
-6 7 2 6.54 5.8
-6 7 2 4.75 4.87
6 -7 -2 3.6 5.09
6 -7 -2 5.81 4.83
-6 7 3 -3.08 4.17
-6 7 3 4.06 4.57
6 -7 -3 -1.52 3.27
6 -7 -3 4.78 4.29
6 -7 -3 -6.56 5.84
-6 7 4 7.37 5.18
-6 7 4 2.17 4.7
6 -7 -4 4.47 4.94
6 -7 -4 1.72 3.76
-6 7 5 2.19 4.5
-6 7 5 -0.87 3.4
6 -7 -5 1.87 3.39
6 -7 -5 4.12 4.61
-6 7 6 5.42 5.23
-6 7 6 -5.23 5.51
-6 7 6 6.92 4.83
6 -7 -6 3.48 3.49
6 -7 -6 9.6 5.93
-6 7 7 -3.53 4.55
-6 7 7 2.66 5.15
-6 7 7 3.34 4.33
6 -7 -7 -0.34 4.12
-6 7 8 -5.71 5.2
-6 7 8 1.03 3.84
-6 7 8 10.41 5.9
-6 7 9 0.47 3.3
-6 7 9 2.12 3.8
-6 7 10 2.12 3.34
-6 7 10 8.8 5.69
-6 7 11 -1.72 3.79
-6 7 11 -1.12 3.15
-5 7 -8 -11.77 7.2
-5 7 -8 4.58 5.37
-5 7 -8 -8.39 5.82
-5 7 -7 -0.86 4.14
-5 7 -7 1.39 3.59
5 -7 7 2.71 4.5
-5 7 -7 -0.66 3.7
5 -7 6 5.25 5.25
-5 7 -6 7.63 5.28
-5 7 -6 5.15 4.31
-5 7 -6 -0.96 3.28
5 -7 6 -1.59 4.25
5 -7 6 7.56 7.32
-5 7 -6 1.88 3.8
5 -7 5 -2.37 4.93
-5 7 -5 8.63 5.42
-5 7 -5 0.58 3.15
-5 7 -5 -0.31 3.49
5 -7 5 -3.23 4.56
5 -7 5 10.27 6.51
-5 7 -5 -0.4 3.42
5 -7 4 5.99 6.19
-5 7 -4 10.32 6.31
-5 7 -4 3.73 3.04
-5 7 -4 5.64 4.32
5 -7 4 1.74 4.08
5 -7 4 15.45 7.82
-5 7 -4 6.12 4.76
5 -7 3 4.49 5.46
-5 7 -3 7.66 5.28
-5 7 -3 9.54 5.76
-5 7 -3 4.8 4.03
-5 7 -3 5.86 3.77
5 -7 3 0.55 4.06
5 -7 3 9.58 6.02
-5 7 -3 9.52 5.32
5 -7 2 0.96 4.54
-5 7 -2 2.1 3.73
-5 7 -2 -1.44 3.18
-5 7 -2 1.2 3.84
5 -7 2 -1.7 3.69
5 -7 2 3.98 4.97
-5 7 -2 2.75 3.72
-5 7 -1 18.92 7.31
-5 7 -1 16.44 6.73
5 -7 1 10.9 5.82
5 -7 1 9.17 4.77
-5 7 -1 11.51 5.11
-5 7 0 2.75 5.02
-5 7 0 -1.52 3.32
5 -7 0 2.88 4.17
5 -7 0 -9.48 7.31
-5 7 0 -1.47 3.09
-5 7 1 14.41 6.71
-5 7 1 12.04 5.76
5 -7 -1 16.3 7.44
5 -7 -1 2.56 3.58
-5 7 1 6.86 3.83
-5 7 2 12.5 6.26
-5 7 2 5.47 4.87
5 -7 -2 10 4.86
5 -7 -2 7.67 4.69
-5 7 2 7.62 4.19
-5 7 3 10.53 5.7
-5 7 3 4.88 4.89
5 -7 -3 3.63 4.07
-5 7 3 3.99 2.75
-5 7 4 3.72 4.61
-5 7 4 3.62 3.84
5 -7 -4 5.56 4.17
-5 7 5 -1.72 4.58
-5 7 5 0.17 4.04
-5 7 5 0.51 2.99
5 -7 -5 -4.41 4.01
5 -7 -5 -4.96 5.55
-5 7 6 6.61 4.9
-5 7 6 18.53 7.46
-5 7 6 18.55 6.82
5 -7 -6 8.94 5.33
5 -7 -6 11.86 5.86
-5 7 7 11.93 5.94
-5 7 7 19.51 7.41
-5 7 7 13.63 5.97
5 -7 -7 14.8 7.24
5 -7 -7 12.14 6.63
-5 7 8 -3.98 4.41
-5 7 8 1.84 3.26
-5 7 8 5.58 4.47
5 -7 -8 1.19 4.06
5 -7 -8 4.73 4.99
-5 7 9 -0.03 3.38
-5 7 9 -2.55 3.53
-5 7 9 1.26 3.79
5 -7 -9 1.94 4.25
5 -7 -9 0.51 4.11
-5 7 10 1 3.67
-5 7 10 1.9 3.96
-5 7 10 1.34 3.78
-5 7 11 1.98 4.91
-5 7 11 2.21 3.73
-4 7 -10 -0.6 5.9
-4 7 -9 2.03 5.58
-4 7 -9 -0.38 2.77
-4 7 -9 4.85 4.39
4 -7 9 0.2 4.77
-4 7 -8 1.29 3.9
-4 7 -8 0.16 4.03
-4 7 -8 4.24 5.39
4 -7 8 1.55 4.15
4 -7 8 17.88 8.37
-4 7 -8 1.83 4.63
-4 7 -7 -3.2 4.98
-4 7 -7 0.87 3.4
-4 7 -7 1.46 3.36
4 -7 7 4.48 5.19
4 -7 7 14.61 7.58
-4 7 -7 6.68 5.96
-4 7 -6 -2.58 4.8
-4 7 -6 1.64 3.21
-4 7 -6 -0.64 2.93
-4 7 -6 0.3 3.33
4 -7 6 -1.44 5.62
4 -7 6 10.35 7.26
-4 7 -6 5.91 4.97
-4 7 -5 -2.33 4.72
-4 7 -5 8.41 5.5
-4 7 -5 5.74 4.66
-4 7 -5 0.33 3.49
4 -7 5 4.79 4.2
4 -7 5 16.28 7.82
-4 7 -5 1.06 2.95
-4 7 -4 -3.9 4.7
-4 7 -4 -1.44 3.63
-4 7 -4 0.37 2.71
-4 7 -4 2.71 3.35
4 -7 4 2.12 4.13
4 -7 4 8.47 6.48
-4 7 -4 -1.26 3.12
-4 7 -3 7.59 4.83
-4 7 -3 6.75 4.64
-4 7 -3 9.22 5.04
-4 7 -3 5 3.98
4 -7 3 4.52 3.66
4 -7 3 4.18 3.24
-4 7 -3 -1.44 3.22
-4 7 -2 4.7 3.22
-4 7 -2 6.97 5
-4 7 -2 3.93 3.76
-4 7 -2 4.95 4.61
4 -7 2 1.34 3.77
4 -7 2 -4.91 5.31
-4 7 -2 1.64 4.2
-4 7 -1 3.96 4.72
-4 7 -1 0.89 2.73
-4 7 -1 2.05 3.58
4 -7 1 7.12 5.64
4 -7 1 -2.34 5.89
-4 7 -1 0.73 2.89
-4 7 0 9.16 5.37
-4 7 0 6.92 4.81
4 -7 0 9.61 5.82
4 -7 0 -5.27 6.08
-4 7 0 5.07 4.04
-4 7 1 38.76 9.8
-4 7 1 45.69 9.46
4 -7 -1 47.27 11
4 -7 -1 40.7 10.56
-4 7 1 36.55 8.3
-4 7 2 4.53 4.94
-4 7 2 2.79 3.22
4 -7 -2 0.74 3.52
-4 7 2 2.41 4.23
-4 7 3 4.9 3.5
-4 7 3 8.37 5.34
-4 7 3 3.05 3.65
4 -7 -3 14.95 7.2
-4 7 3 6.21 4.22
-4 7 4 0.74 2.93
-4 7 4 4.4 4.76
-4 7 4 -1.08 3.7
4 -7 -4 2.99 4.53
-4 7 4 -2.12 2.9
-4 7 5 11.57 6.09
-4 7 5 15.27 6.77
-4 7 5 9.68 5.08
4 -7 -5 11.4 6.52
-4 7 5 3.62 3.11
-4 7 6 2.57 3.91
-4 7 6 -0.64 3.55
-4 7 6 1.71 2.76
4 -7 -6 -0.86 3.54
4 -7 -6 -2.67 5.16
-4 7 7 5.37 4.89
-4 7 7 3.47 4.17
-4 7 7 2.74 3.08
4 -7 -7 9.83 6.32
4 -7 -7 0.53 3.5
-4 7 8 16.14 6.74
-4 7 8 12.82 6.11
-4 7 8 2.09 3.46
4 -7 -8 9.28 6.58
4 -7 -8 9.31 6.79
-4 7 9 5 3.45
-4 7 9 12.74 6.41
-4 7 9 1.18 3.85
4 -7 -9 5.44 5.72
4 -7 -9 15.29 7.71
-4 7 10 2.64 3.54
-4 7 10 -9.08 5.44
4 -7 -10 -2 5.43
4 -7 -10 -3.32 5.04
-4 7 11 0.07 3
-4 7 11 -8.48 5.42
4 -7 -11 -0.87 3.61
-4 7 12 0.4 2.98
-3 7 -11 10 6.75
-3 7 -10 1.21 4.48
-3 7 -10 2.48 3.19
-3 7 -10 -2.78 4.26
3 -7 10 -2.83 4.98
3 -7 10 14.21 8.43
-3 7 -10 0.81 4.09
-3 7 -9 8.48 6.16
-3 7 -9 2.47 3.93
-3 7 -9 -0.22 3.67
3 -7 9 1.22 4.16
-3 7 -9 1.54 3.92
-3 7 -8 5.77 4.96
-3 7 -8 2.87 3.87
-3 7 -8 1.45 3.66
-3 7 -8 -6 4.5
3 -7 8 -0.92 4.16
3 -7 8 6.62 6.55
-3 7 -8 3.9 4.56
-3 7 -7 3.6 4.85
-3 7 -7 4.49 4.5
-3 7 -7 -0.75 4.19
-3 7 -7 -5.26 4.73
3 -7 7 -1.19 4.13
3 -7 7 10.59 7.4
-3 7 -7 1.96 3.45
-3 7 -6 9.63 4.89
-3 7 -6 6.25 4.44
-3 7 -6 6.88 4.39
-3 7 -6 13.18 5.85
3 -7 6 10.6 5.87
3 -7 6 22.73 8.3
-3 7 -6 10.93 5.61
-3 7 -5 3.74 3.55
-3 7 -5 2.2 3.56
-3 7 -5 4.16 3.91
-3 7 -5 7.02 4.23
3 -7 5 2.35 3.25
3 -7 5 6.15 5.39
-3 7 -5 4.01 3.61
-3 7 -4 43.72 8.42
-3 7 -4 37.45 8.72
-3 7 -4 52.63 10
-3 7 -4 35.11 8.14
3 -7 4 48.64 11.9
3 -7 4 48.5 11.58
-3 7 -4 39.89 9.3
-3 7 -3 6.68 3.2
-3 7 -3 7.65 4.38
-3 7 -3 11.92 5.07
-3 7 -3 10.64 5.14
3 -7 3 12.45 6.78
3 -7 3 0.45 3.78
-3 7 -3 14.15 6.2
-3 7 -2 -3.64 4.01
-3 7 -2 7.62 4.46
-3 7 -2 -0.69 2.82
3 -7 2 3.89 4.44
-3 7 -2 1.13 3.29
-3 7 -1 8.9 4.72
-3 7 -1 11.57 5.05
-3 7 -1 11.03 4.23
3 -7 1 13.35 6.33
3 -7 1 6.99 4.15
-3 7 -1 10.92 5.26
3 -7 0 5.5 4.15
-3 7 0 -0.79 3.71
-3 7 0 2.19 3.64
-3 7 0 1.03 2.3
3 -7 0 7.44 5.17
3 -7 0 7.83 4.58
-3 7 0 0.68 3.66
3 -7 -1 34.43 8.14
-3 7 1 17.12 5.87
-3 7 1 -0.13 3.49
-3 7 1 17.69 4.96
3 -7 -1 42.27 10.7
-3 7 1 19.78 6.52
-3 7 2 -1.42 3.52
3 -7 -2 7.61 5.77
-3 7 2 7.13 3.95
-3 7 3 -5.72 4.24
-3 7 3 1.24 2.76
3 -7 -3 2.91 4.54
-3 7 3 2.95 3.03
-3 7 4 -0.42 2.83
3 -7 -4 -0.19 4.23
-3 7 4 -1.79 3.33
-3 7 5 -4.36 5.14
-3 7 5 5.87 4.73
3 -7 -5 5.87 4.39
-3 7 5 11.08 4.85
-3 7 6 -4.1 4.97
-3 7 6 3.27 3.84
3 -7 -6 6.53 5.83
-3 7 6 9.71 5
-3 7 7 21.96 6.72
-3 7 7 34.9 9.21
-3 7 7 48.24 9.93
3 -7 -7 35.35 10.35
3 -7 -7 22.9 7.96
-3 7 8 -3.53 4.94
-3 7 8 12.88 5.96
-3 7 8 -8.54 6.14
3 -7 -8 12.76 7.14
3 -7 -8 13.89 6.02
-3 7 9 -8.6 6.71
-3 7 9 -2.23 3.52
3 -7 -9 -0.62 5.34
3 -7 -9 -1.66 3.55
-3 7 10 0.29 5.39
-3 7 10 5.89 4.54
-3 7 10 -12.67 6.45
3 -7 -10 6.59 5.42
3 -7 -10 9.08 5.67
-3 7 11 -4.33 6.64
3 -7 -11 8.22 6.06
3 -7 -11 -4.29 5.14
-2 7 -12 -8.72 5.94
-2 7 -11 -7.08 5.14
-2 7 -11 -1.32 4.81
2 -7 11 3.24 4.81
-2 7 -11 3.12 4.85
-2 7 -10 -8.49 5.48
-2 7 -10 5.24 4.8
-2 7 -10 1.42 3.73
-2 7 -10 -0.46 3.38
2 -7 10 1 3.67
2 -7 10 10.91 7.15
-2 7 -10 4.82 5.72
-2 7 -9 6.67 3.95
-2 7 -9 4.38 3.66
-2 7 -9 -0.39 3.92
-2 7 -9 0.3 3.08
2 -7 9 4.72 5.77
2 -7 9 7.17 6.24
-2 7 -9 -7.69 5.14
-2 7 -8 11.92 5.74
-2 7 -8 -0.62 2.88
-2 7 -8 3.53 4.28
-2 7 -8 0.02 2.6
2 -7 8 6.56 5.51
2 -7 8 13.39 6.97
-2 7 -8 -5.33 4.89
-2 7 -7 8.88 4.92
-2 7 -7 1.45 2.72
-2 7 -7 6.42 4.29
-2 7 -7 2.43 3.04
2 -7 7 -0.59 4.02
2 -7 7 2.07 3.91
-2 7 -7 0.09 3.33
-2 7 -6 8.62 4.95
-2 7 -6 1.12 2.82
-2 7 -6 5.04 3.91
-2 7 -6 2.11 3.37
2 -7 6 4.59 5.02
2 -7 6 4.06 4.74
-2 7 -6 6.33 5.24
-2 7 -5 4.52 3.52
-2 7 -5 4.5 3.96
-2 7 -5 -1.64 2.79
2 -7 5 -1.34 3.24
2 -7 5 -5.95 5.44
-2 7 -5 -0.21 3.58
-2 7 -4 5.13 3.2
-2 7 -4 8.25 4.72
-2 7 -4 2.28 2.84
2 -7 4 2.24 3.9
2 -7 4 -2.4 4.76
-2 7 -4 5.57 3.81
-2 7 -3 1.91 3.27
2 -7 3 -1.52 3.12
2 -7 3 -4.74 5.77
-2 7 -3 1.56 3.17
-2 7 -2 -16.14 6.92
-2 7 -2 -3.89 3.63
2 -7 2 5.42 5.06
2 -7 2 -8.26 6.69
-2 7 -2 -0.85 3.66
2 -7 1 6.21 4.92
-2 7 -1 -11.59 5.53
-2 7 -1 -4.17 4.28
2 -7 1 1.67 4.26
2 -7 1 -0.15 3.36
-2 7 -1 1.47 3.75
2 -7 0 30.07 8.7
-2 7 0 13.67 4.39
-2 7 0 20.13 5.9
2 -7 0 30.85 8.66
2 -7 0 36.46 9.91
-2 7 0 30.01 8.02
2 -7 -1 17.89 6.23
-2 7 1 6.84 2.91
-2 7 1 10.58 4.31
2 -7 -1 19.21 7.8
-2 7 1 17.54 6.27
-2 7 2 -0.02 2.5
2 -7 -2 -4.71 4.88
-2 7 2 -0.68 2.99
-2 7 2 6.15 3.77
2 -7 -2 1.92 4.52
-2 7 2 1.49 4.12
-2 7 3 38.23 7.27
2 -7 -3 35.33 9.36
-2 7 3 33.94 6.96
-2 7 3 32.8 6.99
2 -7 -3 35.19 10.19
-2 7 3 49.56 10.46
2 -7 -4 8.8 5.21
-2 7 4 15.61 5.61
2 -7 -4 8.1 5.07
-2 7 4 28.78 8.63
-2 7 4 14.21 4.82
2 -7 -5 -2.55 3.97
-2 7 5 1.54 3.13
-2 7 5 1.66 3.27
2 -7 -5 5.87 5.69
-2 7 5 10.76 6.08
-2 7 5 4.3 3.77
-2 7 6 1.55 2.79
-2 7 6 6.86 4
2 -7 -6 1.22 4.53
-2 7 6 10.57 5.95
-2 7 6 9.88 5.14
-2 7 7 -1.69 3.4
-2 7 7 -2.45 3.04
2 -7 -7 -2.35 4.12
2 -7 -7 -0.82 4.74
-2 7 7 2.32 3.66
-2 7 7 3.21 4.14
-2 7 8 -0.31 2.91
-2 7 8 4.42 4.03
2 -7 -8 -4.46 4.98
2 -7 -8 0.78 3.66
-2 7 8 3.17 3.93
-2 7 8 7.1 5.23
-2 7 9 12.87 5.43
-2 7 9 23.22 6.67
2 -7 -9 13.13 7.25
2 -7 -9 17.08 7.09
-2 7 9 9.23 4.88
-2 7 9 29.33 9.67
-2 7 10 7.95 5.55
-2 7 10 15.83 5.93
2 -7 -10 9.83 7.01
2 -7 -10 9.07 5.65
-2 7 10 20.79 8.13
-2 7 11 8.67 4.77
2 -7 -11 -2.28 5.04
-2 7 11 16.32 7.48
-2 7 12 0.84 3.19
-1 7 -13 -5.22 4.71
-1 7 -12 -6.51 4.76
1 -7 12 10.2 6.47
-1 7 -11 -0.73 3.91
-1 7 -11 8.37 5.19
-1 7 -11 1.38 4.22
1 -7 11 -2.26 4.98
1 -7 11 16.98 7.96
-1 7 -11 4.89 4.18
-1 7 -10 1.18 3.41
-1 7 -10 4.23 5.3
1 -7 10 6.63 5.19
1 -7 10 12.44 6.87
-1 7 -10 6.99 4.65
-1 7 -9 -2.54 3.7
-1 7 -9 0.74 2.93
-1 7 -9 -6.11 4.97
1 -7 9 0.11 3.67
1 -7 9 -0.24 3.68
-1 7 -9 0.92 4.16
-1 7 -8 -6.16 4.14
-1 7 -8 0.42 2.65
-1 7 -8 1.65 3.94
1 -7 8 -1.25 3.49
1 -7 8 -2.53 4.26
-1 7 -8 -2.96 4.49
-1 7 -7 -4.4 3.78
-1 7 -7 2.61 3.1
-1 7 -7 -2.15 3.15
1 -7 7 2.82 3.43
1 -7 7 -2.25 5.05
-1 7 -7 1.51 3.56
-1 7 -6 -0.86 3.58
-1 7 -6 -8.03 5.72
-1 7 -6 2.76 3.5
1 -7 6 8.97 5.81
1 -7 6 -4.89 6.26
-1 7 -6 7.18 5.15
-1 7 -5 -2.17 3.6
-1 7 -5 -9 6.18
-1 7 -5 0.72 3.05
1 -7 5 0.03 4.11
1 -7 5 -1.69 5.68
-1 7 -5 7.32 5.07
-1 7 -4 92.61 11.23
-1 7 -4 83.86 12.63
1 -7 4 102.47 15.8
1 -7 4 83.36 14.31
-1 7 -4 90.48 14.06
-1 7 -3 -1.24 3.09
-1 7 -3 0.88 3.14
1 -7 3 1.21 3.11
1 -7 3 -1.19 3.86
-1 7 -3 -0.08 3.66
1 -7 2 9.34 6.52
-1 7 -2 -0.32 2.78
-1 7 -2 5.86 4.5
1 -7 2 -1.08 2.67
1 -7 2 3.52 4.78
-1 7 -2 5.29 4.81
1 -7 1 -2.7 3.4
-1 7 -1 1.56 3.4
-1 7 -1 2.93 3.59
1 -7 1 -1.55 3.81
1 -7 1 2.48 4.21
-1 7 -1 0.1 3.26
1 -7 0 -1.34 3.3
-1 7 0 3.52 3.69
-1 7 0 5.6 4.39
1 -7 0 -1.84 3.59
1 -7 0 0.08 4.08
1 -7 -1 4.55 4.39
-1 7 1 9.92 4.37
-1 7 1 6.44 4.16
1 -7 -1 8.78 6.17
-1 7 1 14.5 7.08
-1 7 1 17.1 5.03
1 -7 -2 45.79 11.37
-1 7 2 67.22 10.14
-1 7 2 45.19 8.42
-1 7 2 57.98 7.94
-1 7 2 56 11.67
1 -7 -2 47.01 11.92
1 -7 -3 20.36 8
-1 7 3 35.5 8
1 -7 -3 13.32 7.14
-1 7 3 20.96 7.86
-1 7 3 21.35 5.57
1 -7 -4 -1.74 4.75
-1 7 4 12.39 5.7
1 -7 -4 5.16 5.69
-1 7 4 -1.35 3.08
-1 7 4 -3.3 3.1
1 -7 -5 17.74 7.23
-1 7 5 44.37 8.7
1 -7 -5 27.42 9.82
-1 7 5 16.38 6.67
-1 7 5 18.13 5.99
1 -7 -6 -1.88 4.55
1 -7 -6 3.04 4.29
-1 7 6 -1.43 4.43
-1 7 6 -3.26 3.33
1 -7 -7 -1.61 3.68
-1 7 7 12.08 5.27
1 -7 -7 -4.96 5.8
1 -7 -7 -2.87 3.94
-1 7 7 -7.68 6.86
-1 7 7 1.48 2.94
-1 7 8 49.9 9.13
1 -7 -8 18.29 8.65
1 -7 -8 22.35 7.58
-1 7 8 -0.04 6.36
-1 7 8 39.52 8.72
-1 7 9 14.38 6.38
-1 7 9 21.05 6.49
1 -7 -9 -5.63 6.27
1 -7 -9 3.36 4.06
-1 7 9 24.04 7.75
-1 7 10 9.67 5.47
1 -7 -10 1.8 3.27
-1 7 11 17.29 6.28
1 -7 -11 5.78 4.63
-1 7 12 30.68 8.29
1 -7 -12 8.49 5.55
0 7 -13 4.22 4.57
0 -7 13 4.48 6.01
0 7 -12 4.73 4.44
0 -7 12 -3.83 3.93
0 -7 12 0.28 4.77
0 7 -12 5.39 5.69
0 7 -11 11.81 5.79
0 7 -11 9.47 6.37
0 -7 11 9.28 6.49
0 -7 11 11.19 6.1
0 7 -11 13.86 7.17
0 7 -10 5.29 3.98
0 7 -10 1.87 4.18
0 -7 10 0.32 3.38
0 -7 10 -0.7 3.81
0 7 -10 1.06 3.5
0 7 -9 8.26 4.59
0 7 -9 8.01 4.46
0 7 -9 -0.45 3.89
0 -7 9 2.42 5.08
0 -7 9 -5.83 5.29
0 7 -9 -0.09 4.22
0 7 -8 7.97 3.91
0 7 -8 -8.92 5.39
0 7 -8 0.13 3.47
0 -7 8 6.52 5.16
0 -7 8 -3.89 5.67
0 7 -8 0.14 3.32
0 7 -7 6.15 3.69
0 7 -7 -5.04 4.12
0 7 -7 -2.25 3.81
0 -7 7 7.12 4.87
0 -7 7 -6.9 6.64
0 7 -7 0.4 3.54
0 7 -6 6.54 3.5
0 7 -6 -3.43 3.5
0 7 -6 0.29 3.23
0 -7 6 2.03 3.69
0 -7 6 -8.73 7.12
0 7 -6 -1.66 3.62
0 7 -5 16.18 5.01
0 7 -5 14.52 6.12
0 -7 5 11.97 5.73
0 -7 5 12.36 5.97
0 7 -5 15.55 6.34
0 7 -4 6.05 3.92
0 7 -4 -0.6 2.85
0 -7 4 2.21 3.79
0 -7 4 5.94 4.88
0 7 -4 -0.76 3.82
0 -7 3 17.42 8.31
0 7 -3 21.28 5.87
0 7 -3 6.44 4.31
0 -7 3 10.82 5.65
0 -7 3 10.52 6.02
0 7 -3 10.2 5.34
0 -7 2 27.87 9.5
0 7 -2 31.56 7.43
0 7 -2 22.57 7.12
0 -7 2 20.35 7.23
0 -7 2 27.23 9.01
0 7 -2 38.97 10.2
0 -7 1 8.81 5.53
0 7 -1 23.9 6.94
0 7 -1 3.84 3.97
0 -7 1 8.41 5.07
0 -7 1 5.14 4.56
0 7 -1 19.14 7.35
0 -7 0 2.98 4.59
0 7 0 18.44 5.68
0 -7 0 4.11 4.06
0 -7 0 1.18 5.03
0 7 0 5.05 5.15
0 7 0 2.12 1.9
0 -7 -1 1.9 4.21
0 7 1 9.28 5.12
0 -7 -1 3.26 4
0 7 1 2.15 1.95
0 7 1 4.07 4.74
0 -7 -2 2.64 5.24
0 7 2 5.62 4.27
0 -7 -2 2.89 4.97
0 7 2 0.43 2.57
0 7 2 -4.11 4.19
0 -7 -3 16.43 7.78
0 7 3 23.44 6.31
0 -7 -3 14.86 7.21
0 7 3 15.14 4.47
0 7 3 0.2 4.3
0 -7 -4 9.09 6.33
0 -7 -4 15.81 7.93
0 7 4 6.94 3.36
0 7 4 0.1 5.13
0 -7 -5 26.98 9.09
0 7 5 45.81 8.72
0 -7 -5 29.98 10.48
0 7 5 26.17 6.14
0 7 5 9 3.83
0 -7 -6 -6.67 6.11
0 7 6 3.17 3.89
0 -7 -6 6.34 4.56
0 7 6 -1.31 3.42
0 -7 -7 -2.41 5.01
0 7 7 8.17 4.92
0 -7 -7 -7.01 6.48
0 -7 -7 1.44 3.15
0 7 7 2.89 2.98
0 -7 -8 -0.24 4.24
0 7 8 9.82 5.43
0 -7 -8 -1.17 5.12
0 -7 -8 3.15 3.86
0 7 8 -7.35 5.37
0 -7 -9 7.26 5.8
0 7 9 9.71 5.15
0 -7 -9 2.39 3.5
0 7 10 12.45 5.44
0 -7 -10 1.94 3.23
-1 -7 14 -8.91 6.16
1 7 -13 11.75 6.85
-1 -7 13 -1.32 4.53
1 7 -12 7.67 6.12
-1 -7 12 1.84 4.47
-1 -7 12 -6.83 6.5
1 7 -12 0.69 3.63
1 7 -11 3.71 4.82
-1 -7 11 0.58 4.46
-1 -7 11 -8.86 7.13
1 7 -11 -0.27 3.84
1 7 -10 4.45 4.8
-1 -7 10 8.33 5.21
-1 -7 10 -5.12 6.57
1 7 -10 8.75 5.49
1 7 -9 -0.01 4.12
-1 -7 9 2.39 4
-1 -7 9 -7.19 6.53
1 7 -9 0.68 3.45
1 7 -8 -3.67 3.47
1 7 -8 9.1 5.54
-1 -7 8 -0.8 4.29
-1 -7 8 -4.56 5.03
1 7 -8 4.78 4.65
1 7 -7 4.33 3.58
1 7 -7 1.66 3.95
-1 -7 7 -1.92 3.57
-1 -7 7 -0.09 3.34
1 7 -7 3.91 4.14
1 7 -6 9.74 4.75
1 7 -6 2.45 3.58
-1 -7 6 0.35 3.18
-1 -7 6 -0.84 3.95
1 7 -6 3.2 4.41
-1 -7 5 1.22 3.56
1 7 -5 12.85 5.21
1 7 -5 5.47 4.59
-1 -7 5 3.43 2.98
-1 -7 5 2.29 3.58
1 7 -5 -1.34 3.1
-1 -7 4 35.19 11.29
1 7 -4 49.05 8.38
1 7 -4 28.87 8.36
-1 -7 4 23.72 7.61
-1 -7 4 29.78 9.44
1 7 -4 47.13 10.77
-1 -7 3 21.24 9.39
1 7 -3 19.89 5.96
-1 -7 3 7.08 5.16
-1 -7 3 16.2 7.57
1 7 -3 26.19 8.89
-1 -7 2 0.68 3.89
1 7 -2 13.13 4.66
1 7 -2 8.29 4.11
-1 -7 2 6.41 3.97
-1 -7 2 3.44 4.59
1 7 -2 11.97 6.5
-1 -7 1 -9.56 7.24
1 7 -1 8.32 4.8
1 7 -1 2.96 3.94
-1 -7 1 2.61 3.51
-1 -7 1 -3.14 5.13
1 7 -1 -1.65 2.98
-1 -7 0 5.22 4.57
1 7 0 19.98 5.92
-1 -7 0 6.92 4.73
1 7 0 14.96 5.61
-1 -7 0 8.08 5.79
1 7 0 15.93 4.14
1 7 0 6.23 4.43
-1 -7 -1 15.51 8.88
-1 -7 -1 19.49 8.8
1 7 1 17.31 4.78
1 7 1 16.58 5.73
1 7 1 0.85 3.94
-1 -7 -2 12.6 7.75
1 7 2 14.71 5.91
-1 -7 -2 12.71 7.05
1 7 2 12.74 4.46
1 7 2 -5.21 7.01
-1 -7 -3 8.55 7
1 7 3 17.82 6.46
-1 -7 -3 12.7 7.28
1 7 3 18.62 5.22
1 7 4 26.02 7.9
-1 -7 -4 18.8 9.11
-1 -7 -4 13.28 7.35
1 7 4 18.49 5.26
-1 -7 -5 -4.73 6.83
1 7 5 4.15 4.93
-1 -7 -5 2.41 4.74
1 7 5 7.77 4.59
-1 -7 -6 4.09 4.53
1 7 6 11.98 6.35
-1 -7 -6 -1.05 4.91
1 7 6 6.78 3.73
-1 -7 -7 13.14 7.77
-1 -7 -7 21.03 10.5
-1 -7 -7 9.86 5.34
1 7 7 25.29 6.7
-1 -7 -8 -3.33 5.75
1 7 8 1.2 3.01
-1 -7 -9 0.93 5.44
-1 -7 -10 -2.49 6
-2 -7 13 4.76 5.26
-2 -7 12 -2.54 4.82
2 7 -12 -0.37 4.37
-2 -7 11 -0.48 4.91
-2 -7 11 3.05 3.79
2 7 -11 4.49 4.84
2 7 -10 0.06 4.51
-2 -7 10 7.32 5.85
-2 -7 10 4.31 4.41
2 7 -10 -1.4 4.05
2 7 -9 4.66 5.09
-2 -7 9 -1.17 3.35
-2 -7 9 9.25 6.11
2 7 -9 1.78 4.09
2 7 -8 17.69 5.4
2 7 -8 10.14 6.27
-2 -7 8 9.06 5.57
-2 -7 8 9.4 6.45
2 7 -8 13.69 6.31
-2 -7 7 2.92 4.59
2 7 -7 15.45 5.15
2 7 -7 3.36 5.48
-2 -7 7 3.92 5.32
-2 -7 7 6.68 5.02
2 7 -7 4.65 5.43
-2 -7 6 2.61 3.92
2 7 -6 13.06 4.86
2 7 -6 -0.8 3.86
-2 -7 6 8.2 5.8
-2 -7 6 1.99 5.08
2 7 -6 0.77 3.37
-2 -7 5 11.56 6.9
2 7 -5 10.09 4.3
-2 -7 5 6.5 4.44
-2 -7 5 9.09 6.33
2 7 -5 14.41 7.1
-2 -7 4 6.14 4.3
2 7 -4 12.17 4.94
-2 -7 4 -1.16 3.29
-2 -7 4 -1.3 3.28
2 7 -4 11.69 6.6
-2 -7 3 -0.06 3.9
-2 -7 3 0.13 2.76
-2 -7 3 -1.89 5.7
2 7 -3 7.5 5.64
-2 -7 2 18.15 8.69
2 7 -2 6.09 3.92
-2 -7 2 12.21 5.4
-2 -7 2 13.13 7.29
2 7 -2 14.04 6.95
-2 -7 1 2.94 5.27
-2 -7 1 5.33 3.93
2 7 -1 7.45 4.23
-2 -7 1 11.5 7.55
2 7 -1 1.71 3.83
-2 -7 0 19.13 10.07
-2 -7 0 13.88 5.87
-2 -7 0 16.52 8.11
2 7 0 22.09 6.46
2 7 0 7.74 4.86
-2 -7 -1 5.61 7
-2 -7 -1 0.1 2.95
-2 -7 -1 -1.94 4.07
2 7 1 -14.16 9.3
2 7 1 1.91 4.24
2 7 2 7.62 5.25
-2 -7 -2 5.09 6.17
-2 -7 -2 -3.51 5.17
-2 -7 -3 -2.7 5.02
2 7 3 1.41 3.92
-2 -7 -3 -4.63 6.99
-2 -7 -4 -4.81 7.28
2 7 4 2.61 4.24
-2 -7 -4 -7.89 7.96
2 7 4 7.38 5.03
-2 -7 -5 8.45 7.28
-2 -7 -5 9.29 6.67
2 7 5 14.3 5.24
2 7 5 15.93 7.41
-2 -7 -6 8.07 6.48
2 7 6 25.44 9.3
2 7 6 17.18 6.34
-2 -7 -7 -6.67 7.68
2 7 7 5.85 4.93
2 7 7 13.79 7.33
-2 -7 -8 1.15 5.35
3 7 -11 -2.85 3.86
3 7 -10 2.49 4.77
3 7 -9 -0.02 4.68
3 7 -9 4.16 4.61
-3 -7 8 8.74 7.8
3 7 -8 -2.36 4.76
-3 -7 8 3.52 4.32
3 7 -8 6.09 5.54
-3 -7 7 10.8 8.12
3 7 -7 10.87 4.57
3 7 -7 3.29 4.44
-3 -7 7 7.73 5.31
3 7 -7 11.91 7.05
-3 -7 6 5.97 6.7
3 7 -6 8.99 4.47
-3 -7 6 2.49 4.58
3 7 -6 16.33 7.63
-3 -7 5 2.97 5.44
-3 -7 5 3.23 4.82
3 7 -5 9.43 6.86
-3 -7 4 -2.51 5.63
-3 -7 4 7.32 6.76
3 7 -4 5.16 6.39
-3 -7 3 3 5.21
-3 -7 3 13.22 7.54
3 7 -3 3.03 4.07
3 7 -3 -4.87 4.85
-3 -7 2 15.29 9.81
3 7 -2 -0.66 4.32
-3 -7 2 13.2 7.47
3 7 -2 -0.98 5.4
-3 -7 1 11.94 9.26
3 7 -1 -9.97 6.03
-3 -7 1 6.21 6.88
3 7 -1 -9.04 7.96
-3 -7 0 10.82 9.45
3 7 0 -5.1 5.16
-3 -7 0 0.98 4.27
3 7 0 -9 7.59
-3 -7 -1 7.25 6.83
3 7 1 4.35 4.23
-3 -7 -1 1.72 4.22
-3 -7 -2 1.21 4.89
3 7 2 -4.52 4.16
-3 -7 -2 -3.71 6.43
-3 -7 -3 -1.66 6.05
-3 -7 -3 -9.71 7.12
3 7 3 4.94 5.15
-3 -7 -4 -8.36 9.4
3 7 4 4.6 5.57
4 7 -9 0.73 3.98
4 7 -8 0.04 4.24
4 7 -7 15.77 8
4 7 -6 9.82 6.85
4 7 -5 3.39 5.07
-4 -7 4 0.92 4.1
4 7 -4 0.61 4.4
-4 -7 3 -0.89 4.65
4 7 -3 -1.87 4.85
-4 -7 2 -4.91 5.86
4 7 -2 -6.95 7.13
4 7 -2 -19.28 7.97
-4 -7 1 -0.69 5.96
4 7 -1 -8.52 5.91
4 7 0 -10.28 7.53
-4 -7 0 -7.48 7.08
4 7 1 -9.49 6.84
4 7 2 -12.03 6.68
5 7 -3 -22.49 8.62
-6 8 -3 6.15 5.49
-6 8 -2 0.5 4.31
6 -8 1 -26.31 9.84
6 -8 0 -15.58 7.85
6 -8 -1 5.67 4.86
6 -8 -2 2.12 5.22
6 -8 -3 8.51 6.11
6 -8 -4 5.41 5.62
6 -8 -5 -2.87 4.92
-5 8 -6 -1.44 4.12
-5 8 -4 14.23 6.96
-5 8 -3 -2.35 4.41
5 -8 3 -4.78 6.1
5 -8 3 -4.83 7.17
-5 8 -3 1.03 4.21
-5 8 -2 0.91 3.84
-5 8 -2 -0.54 3.88
5 -8 2 4.31 5.12
-5 8 -2 -0.93 3.56
-5 8 -1 2.08 4.1
-5 8 -1 -0.21 4.17
5 -8 1 1.5 4.56
-5 8 -1 0.29 3.44
-5 8 0 5.86 4.7
-5 8 0 -3.45 4.66
5 -8 0 -2.52 4.72
5 -8 0 -1.78 5.16
-5 8 0 1.34 2.91
-5 8 1 0.54 4.87
-5 8 1 -2.04 3.9
5 -8 -1 -3.55 4.59
5 -8 -1 4.97 5.68
-5 8 1 0.88 3.24
-5 8 2 4.78 5.8
-5 8 2 0.11 3.74
5 -8 -2 3.19 4.71
5 -8 -2 6.19 5.98
-5 8 3 6.37 6.17
-5 8 3 0.19 3.28
5 -8 -3 7.5 6.38
-5 8 4 -7.09 6.01
-5 8 4 -4.81 4.94
5 -8 -4 5.78 6.01
-5 8 5 6.81 5.81
-5 8 5 -3.23 4.26
5 -8 -5 5.26 5.07
-5 8 6 -0.22 3.95
5 -8 -6 -1.55 4.31
5 -8 -7 5.48 5.49
5 -8 -8 6.2 6.22
-5 8 9 8.1 6.91
5 -8 -9 8.64 5.86
-4 8 -8 0.08 3.36
-4 8 -7 0.68 4.16
-4 8 -7 -4.38 4.91
-4 8 -6 0.05 3.49
-4 8 -6 -7.71 6.08
-4 8 -6 0.88 3.53
-4 8 -6 1.95 4.59
-4 8 -5 0.72 4.05
-4 8 -5 -3.53 4.26
-4 8 -5 -0.83 4.16
4 -8 5 8.88 6.43
4 -8 5 -2.53 4.78
-4 8 -5 1.4 4.14
-4 8 -4 0.81 3.5
-4 8 -4 -3.22 3.82
-4 8 -4 -2.2 3.97
4 -8 4 2.08 4.45
4 -8 4 -4.28 5.65
-4 8 -4 1.01 3.57
-4 8 -3 -0.47 3.54
-4 8 -3 -0.55 3.12
-4 8 -3 -0.97 3.67
4 -8 3 -1.34 3.52
4 -8 3 -15.75 8.48
-4 8 -3 -4.1 5.42
-4 8 -2 3.35 4.76
-4 8 -2 7.35 5.32
4 -8 2 -2.65 4.91
4 -8 2 -10.47 8.08
-4 8 -2 -4.74 4.99
-4 8 -1 1.91 4.04
-4 8 -1 -0.81 4.07
4 -8 1 6.86 5.72
4 -8 1 2.61 4
-4 8 -1 -0.12 3.39
-4 8 0 -7.05 5.56
-4 8 0 -0.18 3.64
4 -8 0 -0.35 3.28
4 -8 0 6.94 5.68
-4 8 0 -9.4 5.38
-4 8 1 -6.54 5.58
-4 8 1 -0.88 3.22
4 -8 -1 -0.44 3.24
4 -8 -1 2.58 4.47
-4 8 1 -2.01 5.09
-4 8 2 -1.62 4.75
-4 8 2 0.38 3.33
4 -8 -2 4.76 4.65
4 -8 -2 4 5.81
-4 8 2 -4.9 4.58
-4 8 3 -7.06 6.06
-4 8 3 -4.59 4.59
4 -8 -3 7.46 5.87
-4 8 3 1.32 3.77
-4 8 4 -0.06 3.72
-4 8 4 -2.26 3.7
4 -8 -4 3.38 4.04
-4 8 4 6.26 4.37
-4 8 5 0.86 3.71
-4 8 5 2.63 3.12
4 -8 -5 6.13 5.71
-4 8 6 -5.07 5.26
-4 8 6 -2.63 3.67
4 -8 -6 12.71 8.01
4 -8 -6 1.07 5.1
-4 8 7 -4.16 5.27
-4 8 7 0.25 4.44
4 -8 -7 3.05 6.38
-4 8 8 14.52 7.59
-4 8 8 2.97 3.63
-4 8 8 4.18 4.57
4 -8 -8 -3.64 5.2
-4 8 9 12.41 7.17
-4 8 9 -3.22 5.56
4 -8 -9 1.97 4.37
-4 8 10 -0.53 4.42
-3 8 -9 1.83 3.51
-3 8 -9 -7.03 5.74
-3 8 -8 -0.52 3.79
-3 8 -8 -3.11 5.61
-3 8 -8 -2.17 4.18
-3 8 -7 0.46 3.61
-3 8 -7 -7.36 5.51
-3 8 -7 -1.08 4.06
3 -8 7 1.5 3.84
-3 8 -7 -1.52 4.38
-3 8 -6 2.12 4.4
-3 8 -6 -2.74 5.65
-3 8 -6 -4.23 4.31
3 -8 6 -3.96 5.37
3 -8 6 -1.85 6.1
-3 8 -6 1.06 4.86
-3 8 -5 -1.47 3.88
-3 8 -5 0.65 4.34
-3 8 -5 -2.2 3.53
3 -8 5 -4.85 5.11
3 -8 5 -15.52 7.81
-3 8 -5 0.12 3.9
-3 8 -4 2.58 3.88
-3 8 -4 -1.09 3.35
-3 8 -4 -1.65 4.4
3 -8 4 11.51 6.24
-3 8 -4 2.06 3.41
-3 8 -3 5.39 3.61
-3 8 -3 0.93 3.58
-3 8 -3 -0.45 2.98
3 -8 3 3.46 4.38
3 -8 3 -8.6 8.42
-3 8 -3 -5.69 5.38
-3 8 -2 2.41 3.57
-3 8 -2 4.05 4.12
-3 8 -2 -1.1 3.02
3 -8 2 3.28 3.38
3 -8 2 4.66 4.29
-3 8 -2 -5.56 4.86
-3 8 -1 5.89 4.73
-3 8 -1 4.09 5.32
-3 8 -1 1.84 2.67
3 -8 1 3.8 5.01
3 -8 1 3.84 4.09
-3 8 -1 -5.46 4.88
-3 8 0 0.99 4.1
-3 8 0 7.84 3.1
3 -8 0 0.48 3.48
3 -8 0 1.79 4.76
-3 8 0 -1.42 3.42
-3 8 1 10.95 6.13
3 -8 -1 9.76 5.98
3 -8 -1 23.65 9.5
-3 8 1 10.18 6.29
-3 8 2 1.55 3.04
3 -8 -2 5.6 5.23
-3 8 2 2.31 4.85
-3 8 3 0.81 3.32
3 -8 -3 2.19 4.54
-3 8 3 7.38 5.35
-3 8 4 2.3 4.02
3 -8 -4 3.4 4.05
-3 8 4 14.8 6.49
-3 8 5 -0.81 3.82
3 -8 -5 8.41 7.08
-3 8 5 2.96 4.7
-3 8 6 -4.09 5.23
3 -8 -6 11.6 7.24
-3 8 6 2.91 4.32
-3 8 7 5.32 3.63
-3 8 7 2.4 3.72
-3 8 7 -0.74 4.16
3 -8 -7 8.74 5.57
-3 8 8 -7.1 6.7
-3 8 8 -9.43 6.6
-3 8 8 -14.57 7.61
3 -8 -8 0.26 4.45
-3 8 9 -9.38 6.78
-3 8 9 -7.1 5.93
-2 8 -10 3.04 4.82
-2 8 -9 -11.16 6.68
-2 8 -9 -1.79 4.69
-2 8 -8 12.2 7.19
-2 8 -8 2.48 3.73
-2 8 -8 1.08 3.92
2 -8 8 6.59 6.56
2 -8 8 2.4 4.77
-2 8 -8 3.62 5.46
-2 8 -7 12.93 6.54
-2 8 -7 3.29 4.27
-2 8 -7 2.97 5.14
2 -8 7 -2.34 4.08
2 -8 7 -11.39 7.49
-2 8 -7 -3.12 4.71
-2 8 -6 16.56 7.79
-2 8 -6 5.76 3.77
-2 8 -6 9.77 5.81
2 -8 6 13.26 7.73
2 -8 6 -12.61 7.91
-2 8 -6 -4.03 5.2
-2 8 -5 14.43 7.28
-2 8 -5 3.48 3.95
-2 8 -5 1.51 3.86
2 -8 5 -3.94 5.26
2 -8 5 -6.38 7.65
-2 8 -5 -1.28 4.6
-2 8 -4 6.79 5.06
-2 8 -4 3.44 4.55
2 -8 4 -1.29 4.51
2 -8 4 -8.57 6.69
-2 8 -4 -2.27 3.66
-2 8 -3 10.16 5.91
2 -8 3 6.1 5.3
2 -8 3 1.97 3.64
-2 8 -3 2.92 3.48
2 -8 2 5.25 5.67
-2 8 -2 0.28 2.79
2 -8 2 11.42 6.88
2 -8 2 2.12 3.96
-2 8 -2 6.49 5.97
2 -8 1 7.13 6.01
-2 8 -1 -12.76 6.58
-2 8 -1 -1.43 3.19
2 -8 1 6.53 5.2
2 -8 1 7.85 6.9
-2 8 -1 2.5 4.05
2 -8 0 10.55 5.71
-2 8 0 4.67 2.95
-2 8 0 9.12 4.41
2 -8 0 12.74 6.53
2 -8 0 22.7 9.97
-2 8 0 16.92 6.86
2 -8 -1 4.01 3.73
-2 8 1 -8.35 6.17
2 -8 -1 3.19 3.59
2 -8 -1 2.54 4.63
-2 8 1 8.93 5.55
-2 8 2 -4.23 4.49
2 -8 -2 -0.81 4.52
-2 8 2 5.62 4.64
-2 8 3 -0.56 3.06
2 -8 -3 -4.88 5.1
-2 8 3 2.9 4.76
-2 8 4 22.45 8.15
-2 8 4 -1.51 3.7
2 -8 -4 8.09 5.99
-2 8 4 13.11 6.86
-2 8 5 26.45 8.97
-2 8 5 10.7 5.01
2 -8 -5 10.82 7.73
-2 8 5 12.57 7.09
-2 8 6 36.92 10.42
-2 8 6 21.36 6.78
2 -8 -6 10.53 7.44
-2 8 6 29.48 8.96
-2 8 6 18.82 6.69
-2 8 7 10.77 6.05
-2 8 7 7.36 5.09
2 -8 -7 3.9 5.78
2 -8 -7 4.04 5.41
-2 8 7 4.14 4.76
-2 8 7 3.14 3.6
-2 8 8 10.66 6.56
-2 8 8 0.15 4.18
2 -8 -8 -4.99 7.38
2 -8 -8 -4.72 5.94
-2 8 8 0.87 4.1
-2 8 9 5.82 5.53
-2 8 9 1.19 4.37
-1 8 -11 7.08 6.24
-1 8 -9 3.11 5.29
1 -8 9 -4.06 5.05
1 -8 9 -11.15 7.87
-1 8 -8 3.88 4.34
-1 8 -8 5.3 6.13
1 -8 8 -1.53 4.87
1 -8 8 -12.81 8.69
-1 8 -8 -0.74 5.09
-1 8 -7 18.15 6.59
-1 8 -7 17.42 8.35
1 -8 7 8.54 6.5
1 -8 7 -4.52 7.5
-1 8 -7 9.14 5.52
-1 8 -6 -1.59 4.23
1 -8 6 0.61 3.91
1 -8 6 -7.1 7.08
-1 8 -6 -0.16 4.91
-1 8 -5 -12.55 6.56
-1 8 -5 -4.83 4.59
1 -8 5 -0.75 3.75
1 -8 5 5.36 6.08
-1 8 -5 3.82 3.88
-1 8 -4 -7.36 5.05
-1 8 -4 -1.54 3.1
1 -8 4 0.93 3.38
-1 8 -4 1.08 3.76
1 -8 3 6.94 6.34
-1 8 -3 -4.9 5.26
-1 8 -3 0.85 3.66
1 -8 3 0.32 3.74
1 -8 3 3.41 4.37
-1 8 -3 4.84 4.9
1 -8 2 2.62 4.68
-1 8 -2 3.38 3.06
-1 8 -2 3.52 3.95
1 -8 2 2.69 3.98
1 -8 2 8.86 6.28
-1 8 -2 5.56 4.75
1 -8 1 3.65 3.77
-1 8 -1 9.79 4.72
-1 8 -1 12.09 5.69
1 -8 1 8.96 5.91
1 -8 1 9.35 6.21
-1 8 -1 3.43 4.05
1 -8 0 -3.22 4.59
-1 8 0 -0.21 2.77
-1 8 0 1.96 3.12
1 -8 0 -0.49 3.08
1 -8 0 2.11 4.01
-1 8 0 -3.78 3.85
1 -8 -1 5.61 4.95
-1 8 1 18.66 6.13
-1 8 1 13.54 5.81
1 -8 -1 8.67 6.25
1 -8 -1 12.16 6.55
-1 8 1 25.66 8.73
1 -8 -2 10.31 7.05
-1 8 2 12.92 5.41
-1 8 2 0.31 2.78
1 -8 -2 6.79 6.68
-1 8 2 23.09 8.51
1 -8 -3 8.25 6.12
-1 8 3 6.07 4.6
1 -8 -3 10.54 7.53
-1 8 3 17.44 7.5
1 -8 -4 7.04 5.14
-1 8 4 10.88 5.59
1 -8 -4 3.96 5.29
-1 8 4 11.28 6.22
-1 8 5 7.47 5.16
1 -8 -5 9.3 7.81
-1 8 5 6.72 5.18
-1 8 5 15.46 6.13
-1 8 6 11.63 5.36
1 -8 -6 3.69 4.6
-1 8 6 10.19 6.23
-1 8 6 10.91 6.17
-1 8 7 18.76 6.45
1 -8 -7 3.57 4.48
-1 8 7 4.54 4.33
-1 8 7 24.79 7.97
1 -8 -8 5.41 5
-1 8 8 -2.37 4.95
-1 8 9 17.81 7.52
-1 8 9 -16.28 7.57
0 -8 9 -0.66 4.87
0 -8 9 -23.62 9.37
0 8 -8 -18.77 7.08
0 8 -8 -8.62 5.76
0 -8 8 1.89 5.29
0 -8 8 -4.53 6.42
0 8 -8 2.81 4.37
0 8 -7 -12.52 5.12
0 8 -7 4.81 5.42
0 -8 7 3.7 4.31
0 -8 7 0.35 4.45
0 8 -7 3.59 4.35
0 8 -6 -2.45 4
0 8 -6 2.07 3.55
0 -8 6 9.18 6.58
0 -8 6 2.99 4.72
0 8 -6 11.84 5.88
0 -8 5 8.09 7.11
0 8 -5 4.88 3.12
0 8 -5 5.58 4.79
0 -8 5 5.29 6.09
0 -8 5 10.05 5.94
0 8 -5 5.91 5.02
0 -8 4 7.68 7.24
0 8 -4 0.6 2.83
0 8 -4 4.45 4.74
0 -8 4 3.11 3.75
0 -8 4 6.61 6.57
0 8 -4 3.78 4.43
0 -8 3 2.38 4.54
0 8 -3 3.28 3.79
0 8 -3 4.71 4.54
0 -8 3 2.25 4.58
0 -8 3 3.9 4.66
0 8 -3 2.73 4.4
0 -8 2 1.79 4.52
0 8 -2 6.83 4.73
0 8 -2 4.91 4.22
0 -8 2 0.05 2.88
0 -8 2 -0.8 3.84
0 8 -2 5.26 5.93
0 -8 1 -1.04 5.74
0 8 -1 7.37 4.84
0 8 -1 -0.58 3.24
0 -8 1 5.86 4.82
0 -8 1 2.92 4.51
0 8 -1 12.52 7.36
0 -8 0 12.33 6.63
0 8 0 29.51 7.19
0 8 0 8.02 4.54
0 -8 0 16.59 6.84
0 -8 0 18 8.29
0 8 0 27.89 9.13
0 -8 -1 18.14 9.19
0 8 1 19.08 6.07
0 -8 -1 13.38 6.48
0 -8 -1 9.18 6.74
0 8 1 15.74 7.77
0 -8 -2 6.68 5.81
0 8 2 16.24 6.31
0 -8 -2 7.38 7.37
0 8 2 7.32 5.44
0 -8 -3 1.02 3.67
0 8 3 13.7 5.7
0 -8 -3 12.26 7.62
0 8 3 1.23 3.32
0 -8 -4 -1.37 3.79
0 8 4 13.76 5.61
0 -8 -4 3.08 4.69
0 8 4 -2.46 5.49
0 8 4 -3.13 3.76
0 -8 -5 -10.4 8.4
0 8 5 10.65 6.18
0 -8 -5 -2.41 5.85
0 8 5 -5.18 6.55
0 8 5 -6.66 4.9
0 -8 -6 2.36 4.79
0 8 6 -4.11 6.44
0 8 6 -5.9 4.75
0 -8 -7 -0.88 3.47
0 8 7 -6.55 5.3
0 -8 -8 1.26 3.79
0 8 8 -9.95 5.21
-1 -8 10 -2.4 5.6
-1 -8 10 -3.69 6
-1 -8 9 -3.2 4.73
-1 -8 9 -3.79 4.68
1 8 -8 -4.41 4.06
1 8 -8 3.52 5.29
-1 -8 8 -3.81 5
-1 -8 8 2.58 4.55
1 8 -8 3.06 4.94
-1 -8 7 5.89 5.84
1 8 -7 7.35 3.88
1 8 -7 8.28 5.93
-1 -8 7 16.55 7.84
-1 -8 7 10.36 6.67
1 8 -7 11.99 6.37
-1 -8 6 13.02 7.67
1 8 -6 3.02 3.25
1 8 -6 4.92 4.83
-1 -8 6 2.97 4.32
-1 -8 6 4.79 5.72
1 8 -6 6.81 5.98
-1 -8 5 7.28 6.05
1 8 -5 6.58 4.35
1 8 -5 -3.92 4.3
-1 -8 5 3.7 4.91
-1 -8 5 1.62 4.48
1 8 -5 2.28 4.65
-1 -8 4 9.34 6.84
1 8 -4 18.99 6.02
1 8 -4 0.63 3.75
-1 -8 4 2.57 4.23
-1 -8 4 8.99 6.15
1 8 -4 0.8 3.43
-1 -8 3 6.49 6.06
1 8 -3 9.45 4.94
1 8 -3 -0.2 4.16
-1 -8 3 2.47 3.96
-1 -8 3 3.54 4.52
-1 -8 2 3.36 5.9
1 8 -2 10.19 4.82
-1 -8 2 -0.61 2.82
-1 -8 2 0.83 4
1 8 -2 11.71 7.1
-1 -8 1 -5.09 7.21
1 8 -1 8.8 5.65
-1 -8 1 8.94 5.58
-1 -8 1 8.29 6.54
1 8 -1 4.68 5.38
-1 -8 0 9.54 8.47
1 8 0 11.97 5.11
-1 -8 0 0.19 3.26
-1 -8 0 8.62 7.58
1 8 0 6.66 5.63
-1 -8 -1 4.25 6.38
1 8 1 6.56 3.97
-1 -8 -1 -3.15 3.79
-1 -8 -1 7.56 7.16
1 8 1 7.93 6.49
-1 -8 -2 3.76 5
1 8 2 8.54 4.59
1 8 2 2.81 3.77
-1 -8 -2 8.7 6.9
1 8 2 -4.11 6.1
-1 -8 -3 5.61 6.59
1 8 3 14.73 6.52
1 8 3 16.05 6.53
-1 -8 -3 19.52 9.36
1 8 3 2.56 4.52
-1 -8 -4 -3.32 6.3
1 8 4 10.53 4.44
1 8 4 -10.89 8
-1 -8 -5 2.01 5.27
1 8 5 1.44 2.99
-1 -8 -6 6.39 7.5
1 8 6 6.58 4.17
-1 -8 -7 1.99 5.7
-2 -8 10 -2.9 6
-2 -8 10 2.31 3.76
-2 -8 9 0.32 3.52
-2 -8 9 2.65 4.64
-2 -8 8 -3.61 5.23
-2 -8 8 -4.36 4.95
2 8 -7 9.05 4.92
-2 -8 7 -1.54 3.09
-2 -8 7 2.62 4.52
2 8 -6 6.98 4.11
2 8 -6 -2.56 3.9
-2 -8 6 5.81 4.98
-2 -8 6 2.81 5.09
2 8 -6 3.92 4.42
-2 -8 5 2.11 4.78
2 8 -5 15.01 5.89
2 8 -5 -4.31 5.37
-2 -8 5 6.8 5.54
-2 -8 5 3.16 4.66
2 8 -5 6.68 5.99
-2 -8 4 -5 5.95
2 8 -4 12.5 5.47
-2 -8 4 4.64 4.02
2 8 -4 18.67 8.45
-2 -8 3 -1.23 4.53
2 8 -3 11.74 5.23
-2 -8 3 4.16 5.39
2 8 -3 9.75 6.74
-2 -8 2 -0.51 6.08
2 8 -2 11.56 5.39
-2 -8 2 11.6 7.69
2 8 -2 5.91 6.34
-2 -8 1 4.06 6.53
2 8 -1 5.93 4.86
-2 -8 1 18.26 9.19
2 8 -1 1.65 4.73
-2 -8 0 -3.43 5.5
-2 -8 0 6.55 6.64
2 8 0 -0.57 4.1
-2 -8 -1 5.32 6.71
2 8 1 6.58 5.16
-2 -8 -1 5.86 5.88
2 8 2 12.4 6.52
-2 -8 -2 -0.2 5.02
-2 -8 -3 -0.32 6.68
2 8 3 12.68 6.47
2 8 4 7.66 5.59
2 8 4 7.13 4.43
2 8 5 5.56 4.1
3 8 -6 2.65 3.19
-3 -8 6 2.52 4.84
3 8 -5 3.84 3.84
-3 -8 5 2.41 5.8
3 8 -4 10.16 5.66
-3 -8 4 8.53 6.99
-3 -8 3 6.54 6.44
-3 -8 2 2.18 4.79
-3 -8 1 -5.71 6.74
3 8 1 5.85 5.23
-4 9 -1 -0.43 4.51
-4 9 0 -3.71 4.66
-4 9 1 -2.57 5.01
-4 9 2 0.85 4.18
-3 9 -5 -5.39 5.06
-3 9 -4 3.73 5.01
-3 9 -2 -2.7 4.59
-3 9 -1 3.08 4.5
-3 9 0 -0.2 3.54
-3 9 1 0.75 3.51
-3 9 2 2.3 4.64
-3 9 3 4.4 5.22
-3 9 4 6.52 5.2
-2 9 -6 10.5 7.68
-2 9 -5 8.66 6.25
2 -9 4 10.09 7.73
-2 9 -4 11.98 7.4
2 -9 3 4.2 5.12
-2 9 -3 12.03 6.87
-2 9 -2 16.63 6.46
-2 9 -2 7.89 6.56
-2 9 -1 4.31 5.21
-2 9 0 -0.17 3.88
-2 9 1 0.79 3.88
-2 9 2 7.37 5.35
-2 9 3 0.58 3.69
-2 9 4 0.98 3.6
-2 9 5 9.62 5.39
-2 9 6 14.16 7.67
-1 9 -7 10.09 6.22
-1 9 -6 1.45 3.41
1 -9 5 7.14 5.4
-1 9 -5 0.76 4.33
1 -9 4 6.04 6.74
-1 9 -4 -0.06 3.45
1 -9 3 5.6 6.49
-1 9 -3 2.42 4.31
1 -9 3 3.51 4.56
1 -9 2 -0.71 4.13
-1 9 -2 -0.25 3.12
1 -9 2 -3.75 4.16
1 -9 1 -1.13 4.81
-1 9 -1 5.63 4.83
1 -9 1 5.82 5.29
-1 9 -1 1.57 4.53
1 -9 0 -6.13 5.84
1 -9 0 1.15 4.1
-1 9 0 1.14 3.86
1 -9 -1 1.06 4.37
-1 9 1 0.09 3.41
-1 9 2 16.94 7.75
0 9 -7 -23.21 7.15
0 -9 4 4.32 6.9
0 9 -4 7.02 5.61
0 -9 4 1.37 3.83
0 -9 3 3.77 6.05
0 9 -3 7.04 5.18
0 -9 3 5.17 5.11
0 -9 2 -1.52 4.59
0 9 -2 4.86 4.34
0 -9 2 -3.96 5.78
0 -9 1 -7.66 7.42
0 9 -1 2.17 3.18
0 -9 1 -1.73 3.62
0 -9 0 10.39 7.94
0 9 0 0.6 3.1
0 -9 0 5.48 4.82
0 -9 -1 -1.94 4.68
0 9 1 -1.27 2.92
0 -9 -1 2.52 3.59
0 -9 -2 1.74 6.55
0 -9 -2 6.36 5.11
0 -9 -3 -5.87 6.71
-1 -9 5 5.88 5.93
-1 -9 4 4.06 5.16
-1 -9 3 4.52 4.59
-1 -9 2 4.96 5.14
1 9 -1 -1.9 3.87
-1 -9 1 4.76 4.73
-1 -9 0 1.03 3.04
-1 -9 -1 2.97 4.37

_cod_database_fobs_code 2022235
