#------------------------------------------------------------------------------
#$Date: 2020-11-07 01:56:21 +0200 (Sat, 07 Nov 2020) $
#$Revision: 259028 $
#$URL: file:///home/coder/svn-repositories/cod/cif/2/02/22/2022254.cif $
#------------------------------------------------------------------------------
#
# This file is available in the Crystallography Open Database (COD),
# http://www.crystallography.net/. The original data for this entry
# were provided by IUCr Journals, http://journals.iucr.org/.
#
# The file may be used within the scientific community so long as
# proper attribution is given to the journal article from which the
# data were obtained.
#
data_2022254
loop_
_publ_author_name
'Gardner, Heather C.'
'Kennedy, Alan R.'
'McCarney, Karen M.'
'Staunton, Edward'
'Stewart, Heather'
'Teat, Simon J.'
_publ_section_title
;
 Structures of five salt forms of disulfonated monoazo dyes
;
_journal_coeditor_code           YF3208
_journal_issue                   10
_journal_name_full               'Acta Crystallographica Section C'
_journal_page_first              972
_journal_page_last               981
_journal_paper_doi               10.1107/S2053229620012735
_journal_volume                  76
_journal_year                    2020
_chemical_formula_iupac          '[Ca (C12 H8 N2 O6 S2) (H2 O1)4]'
_chemical_formula_moiety         'C12 H16 Ca N2 O10 S2'
_chemical_formula_sum            'C12 H16 Ca N2 O10 S2'
_chemical_formula_weight         452.47
_chemical_name_common
;
<i>catena</i>-Poly[[tetraaquacalcium(II)]-\m-azobenzene-3,3'-disulfonato]
;
_chemical_name_systematic
<i>catena</i>-Poly[[tetraaquacalcium(II)]-\m-3,3'-(diazane-1,2-diyl)bis(benzenesulfonato)]
_space_group_crystal_system      triclinic
_space_group_IT_number           2
_space_group_name_Hall           '-P 1'
_space_group_name_H-M_alt        'P -1'
_atom_sites_solution_hydrogens   mixed
_audit_creation_method           SHELXL-2014/7
_cell_angle_alpha                94.289(2)
_cell_angle_beta                 103.160(2)
_cell_angle_gamma                108.456(2)
_cell_formula_units_Z            1
_cell_length_a                   6.3875(2)
_cell_length_b                   6.7470(2)
_cell_length_c                   11.3030(5)
_cell_measurement_reflns_used    1934
_cell_measurement_temperature    123(2)
_cell_measurement_theta_max      27.48
_cell_measurement_theta_min      1.00
_cell_volume                     444.21(3)
_computing_cell_refinement
;
DENZO (Otwinowski & Minor, 1997)
;
_computing_data_collection
;
DENZO (Otwinowski & Minor, 1997) and COLLECT (Hooft, 1998)
;
_computing_data_reduction
;
DENZO (Otwinowski & Minor, 1997)
;
_computing_molecular_graphics
;
Mercury (Macrae <i>et al.</i>,  2020) and ORTEP-3 (Farrugia,
2012)
;
_computing_publication_material
;
SHELXL2014 (Sheldrick, 2015)
;
_computing_structure_refinement
;
SHELXL2014 (Sheldrick, 2015) and WinGX (Farrugia, 2012)
;
_computing_structure_solution
;
SIR92 (Altomare <i>et al.</i>,  1994)
;
_diffrn_ambient_temperature      123(2)
_diffrn_measured_fraction_theta_full 0.999
_diffrn_measured_fraction_theta_max 0.993
_diffrn_measurement_device_type  'Nonius Kappa CCD'
_diffrn_measurement_method       'phi and omega scans'
_diffrn_radiation_type           MoK\a
_diffrn_radiation_wavelength     0.71073
_diffrn_reflns_av_R_equivalents  0.0198
_diffrn_reflns_av_unetI/netI     0.0332
_diffrn_reflns_limit_h_max       8
_diffrn_reflns_limit_h_min       -8
_diffrn_reflns_limit_k_max       8
_diffrn_reflns_limit_k_min       -8
_diffrn_reflns_limit_l_max       14
_diffrn_reflns_limit_l_min       -14
_diffrn_reflns_number            3837
_diffrn_reflns_theta_full        26.000
_diffrn_reflns_theta_max         27.576
_diffrn_reflns_theta_min         1.874
_diffrn_source                   'sealed tube'
_diffrn_standards_decay_%        0
_diffrn_standards_interval_count 0
_diffrn_standards_interval_time  0
_diffrn_standards_number         0
_exptl_absorpt_coefficient_mu    0.645
_exptl_absorpt_correction_type   none
_exptl_crystal_colour            yellow-orange
_exptl_crystal_density_diffrn    1.691
_exptl_crystal_description       plate
_exptl_crystal_F_000             234
_exptl_crystal_size_max          0.50
_exptl_crystal_size_mid          0.25
_exptl_crystal_size_min          0.05
_refine_diff_density_max         0.398
_refine_diff_density_min         -0.458
_refine_ls_extinction_method     none
_refine_ls_goodness_of_fit_ref   1.050
_refine_ls_hydrogen_treatment    mixed
_refine_ls_matrix_type           full
_refine_ls_number_parameters     140
_refine_ls_number_reflns         2038
_refine_ls_number_restraints     6
_refine_ls_restrained_S_all      1.052
_refine_ls_R_factor_all          0.0344
_refine_ls_R_factor_gt           0.0270
_refine_ls_shift/su_max          0.000
_refine_ls_shift/su_mean         0.000
_refine_ls_structure_factor_coef Fsqd
_refine_ls_weighting_details
'w=1/[\s^2^(Fo^2^)+(0.0253P)^2^+0.2861P] where P=(Fo^2^+2Fc^2^)/3'
_refine_ls_weighting_scheme      calc
_refine_ls_wR_factor_gt          0.0654
_refine_ls_wR_factor_ref         0.0695
_reflns_number_gt                1775
_reflns_number_total             2038
_reflns_threshold_expression     'I > 2\s(I)'
_cod_data_source_file            yf3208sup1.cif
_cod_data_source_block           II
_cod_depositor_comments
'Adding full bibliography for 2022253--2022257.cif.'
_cod_database_code               2022254
_cod_database_fobs_code          2022254
_shelx_space_group_comment
;
The symmetry employed for this shelxl refinement is uniquely defined
by the following loop, which should always be used as a source of
symmetry information in preference to the above space-group names.
They are only intended as comments.
;
_shelx_hkl_file
;
  -8   1   2   99.80   11.59   1
  -8   1   3   18.66    5.62   1
  -8   2   2   66.75    9.80   1
  -8   2   3   17.22    7.47   1
  -8   2   4   25.60    9.21   1
  -8   2   5    7.18    5.90   1
  -8   3   3  274.90   20.23   1
  -8   3   5   -1.49    6.37   1
  -8   3   6   59.14   10.77   1
  -7  -2   3    2.89    5.47   1
  -7  -2   4  176.09   14.33   1
  -7  -2   5   -0.20    5.53   1
  -7  -1  -1    9.99    7.27   1
  -7  -1   0  146.89    9.94   1
  -7  -1   1  -11.22    5.02   1
  -7  -1   2  226.50   14.75   1
  -7  -1   3  175.83   11.67   1
  -7  -1   4  180.90   12.64   1
  -7  -1   5    2.31    4.41   1
  -7  -1   6   17.89    5.33   1
  -7  -1   7  163.58   13.05   1
  -7  -1   8  128.60   11.79   1
  -7   0  -3   32.95    6.31   1
  -7   0  -2   70.56    8.90   1
  -7   0  -1  179.29    9.64   1
  -7   0   0   90.06    6.45   1
  -7   0   1   45.56    4.72   1
  -7   0   2   30.69    5.65   1
  -7   0   3  115.56    7.10   1
  -7   0   4  466.99   25.50   1
  -7   0   7   14.52    6.17   1
  -7   0  10   55.20    8.92   1
  -7   1  -4   23.04    7.87   1
  -7   1  -3  298.94   16.94   1
  -7   1  -2   64.00    6.24   1
  -7   1  -1   12.89    3.81   1
  -7   1   0   73.62    4.80   1
  -7   1   1  542.42   23.29   1
  -7   1   2  181.44    8.89   1
  -7   1   3   -1.30    2.90   1
  -7   1   4    1.80    2.79   1
  -7   1   5    1.00    2.80   1
  -7   1   8  114.06   12.39   1
  -7   1   9   30.14    6.70   1
  -7   2  -4   -6.00    5.88   1
  -7   2  -3  296.18   17.90   1
  -7   2  -2  283.59   14.48   1
  -7   2  -1   68.56    4.97   1
  -7   2   0    3.31    3.31   1
  -7   2   1   76.21    8.21   1
  -7   2   2  190.72   10.77   1
  -7   2   3   67.73    8.89   1
  -7   2   4  156.50   11.51   1
  -7   2   5   40.83    6.52   1
  -7   2   6   -2.31    3.71   1
  -7   2   7  172.13    9.71   1
  -7   2   8  343.36   25.57   1
  -7   2   9    6.40    7.08   1
  -7   3  -4  156.25   13.00   1
  -7   3  -3    1.30    5.70   1
  -7   3  -2    2.99    6.50   1
  -7   3  -1   -0.40    8.06   1
  -7   3   0  119.46    9.62   1
  -7   3   1    5.38    5.71   1
  -7   3   2   44.76    6.69   1
  -7   3   3  194.60   12.55   1
  -7   3   4  480.49   30.69   1
  -7   3   5  180.90    8.88   1
  -7   3   6   96.04    6.08   1
  -7   3   7  249.32   16.42   1
  -7   3   8    1.10    6.01   1
  -7   3   9   56.55   12.48   1
  -7   3  10  212.58   20.12   1
  -7   4  -2   -2.40    7.50   1
  -7   4  -1   -4.00    9.40   1
  -7   4   0   -1.80    6.19   1
  -7   4   1  656.90   31.78   1
  -7   4   2  133.17   10.62   1
  -7   4   3   14.90    5.79   1
  -7   4   4   11.97    6.02   1
  -7   4   5  148.84    8.30   1
  -7   4   6  662.03   27.27   1
  -7   4   7   29.59   10.23   1
  -7   4   8  106.50   11.15   1
  -7   4   9   -2.59    7.50   1
  -7   5  -1  102.82   10.75   1
  -7   5   0  167.70   16.06   1
  -7   5   1   42.64    8.10   1
  -7   5   2   -2.50    5.59   1
  -7   5   3  335.62   15.02   1
  -7   5   4  375.20   17.05   1
  -7   5   5  171.87   10.23   1
  -7   5   6   73.27   12.67   1
  -7   5   7   71.06   10.12   1
  -7   5   8   29.70    9.27   1
  -7   6   2   22.56   10.07   1
  -7   6   3   20.98    9.80   1
  -7   6   4   20.70    7.74   1
  -7   6   5  662.55   38.61   1
  -7   6   6  -10.89   12.67   1
  -6  -3   0  324.72   19.46   1
  -6  -3   1  511.21   27.13   1
  -6  -3   2   77.97    7.95   1
  -6  -3   3  117.07    8.87   1
  -6  -3   4   20.34    7.22   1
  -6  -3   5  133.40   10.39   1
  -6  -3   7   37.45    8.69   1
  -6  -3   8    9.49    3.88   1
  -6  -2  -3  176.89   12.77   1
  -6  -2  -2   91.39    9.37   1
  -6  -2  -1   -5.81    5.21   1
  -6  -2   0    0.30    3.92   1
  -6  -2   1  243.36   10.30   1
  -6  -2   2  495.51   21.81   1
  -6  -2   3   64.64    7.08   1
  -6  -2   4    4.41    5.59   1
  -6  -2   5   59.91    7.12   1
  -6  -2   6   70.22    7.37   1
  -6  -2   7  299.64   18.35   1
  -6  -2   9    4.20    3.61   1
  -6  -2  10   -1.21    3.92   1
  -6  -1  -5   19.71    6.48   1
  -6  -1  -4  119.03    9.82   1
  -6  -1  -3    3.39    4.89   1
  -6  -1  -2  632.02   21.12   1
  -6  -1  -1  190.72    8.29   1
  -6  -1   0   22.28    3.12   1
  -6  -1   1  135.96    6.76   1
  -6  -1   2   -0.90    2.81   1
  -6  -1   3  391.64   14.25   1
  -6  -1   4  532.22   25.38   1
  -6  -1   5  340.03   17.70   1
  -6  -1   6    6.30    3.61   1
  -6  -1   7    6.30    4.72   1
  -6  -1   8    0.79    5.18   1
  -6  -1  10   26.52    6.80   1
  -6  -1  11   25.10    5.61   1
  -6   0  -6  350.81   22.48   1
  -6   0  -5  132.71   11.29   1
  -6   0  -4   97.22    7.10   1
  -6   0  -3  112.36    8.06   1
  -6   0  -2  120.78    6.37   1
  -6   0  -1   97.81    5.74   1
  -6   0   0  537.31   25.03   1
  -6   0   1 1521.78   46.03   1
  -6   0   2    5.11    2.49   1
  -6   0   3   -0.20    2.72   1
  -6   0   4   13.91    2.39   1
  -6   0   5   40.45    3.05   1
  -6   0   7  107.33    7.25   1
  -6   0   8   13.76    3.71   1
  -6   0   9   20.16    3.77   1
  -6   0  10   44.62    5.08   1
  -6   0  11  213.45   14.90   1
  -6   0  12   65.93    9.42   1
  -6   1  -6   37.70    8.35   1
  -6   1  -5   31.70    5.29   1
  -6   1  -4   13.91    4.10   1
  -6   1  -3  203.63    9.13   1
  -6   1  -2  190.72    7.46   1
  -6   1  -1   77.26    4.75   1
  -6   1   0    2.10    2.49   1
  -6   1   1  349.69   18.70   1
  -6   1   2  513.02   17.67   1
  -6   1   3  306.60   10.86   1
  -6   1   4   34.34    4.34   1
  -6   1   5    9.67    2.61   1
  -6   1   6  144.96    6.50   1
  -6   1   7  667.71   19.64   1
  -6   1   8  272.58   11.23   1
  -6   1   9  149.57    7.09   1
  -6   1  10   33.06    4.26   1
  -6   1  11    3.61    3.91   1
  -6   1  12    7.90    4.38   1
  -6   2  -7  304.15   22.67   1
  -6   2  -6  578.40   37.52   1
  -6   2  -5   86.86    5.78   1
  -6   2  -4    2.31    4.01   1
  -6   2  -3   54.46    5.76   1
  -6   2  -2   70.22    4.02   1
  -6   2  -1  138.53    6.36   1
  -6   2   0  474.80   17.43   1
  -6   2   1    1.80    1.90   1
  -6   2   2   87.42    3.93   1
  -6   2   3  306.60   13.31   1
  -6   2   4    2.69    1.41   1
  -6   2   5  796.37   27.66   1
  -6   2   6  391.25   13.85   1
  -6   2   7   95.65    3.91   1
  -6   2   8   41.22    7.70   1
  -6   2   9  523.95   29.76   1
  -6   2  10  220.52   16.04   1
  -6   2  11   12.53    6.30   1
  -6   2  12   60.53   11.20   1
  -6   3  -7   45.16    9.14   1
  -6   3  -6   51.70    6.04   1
  -6   3  -5  285.61   13.52   1
  -6   3  -4   75.17    5.55   1
  -6   3  -3  121.00    5.94   1
  -6   3  -2   37.45    3.55   1
  -6   3  -1   12.32    2.32   1
  -6   3   0  395.21   17.10   1
  -6   3   1  257.28   14.44   1
  -6   3   2  259.85   14.51   1
  -6   3   3   18.84    3.65   1
  -6   3   4   60.37    4.35   1
  -6   3   5   75.69    4.70   1
  -6   3   6  554.13   19.77   1
  -6   3   7    2.79    4.58   1
  -6   3   8   44.36    6.66   1
  -6   3   9   -1.10    5.40   1
  -6   3  10   -5.11    6.28   1
  -6   3  11  701.19   44.49   1
  -6   4  -7   67.90   10.38   1
  -6   4  -6   -1.21    5.92   1
  -6   4  -5   32.15    4.54   1
  -6   4  -4   79.74    7.14   1
  -6   4  -3   28.94    3.66   1
  -6   4  -2  615.54   26.79   1
  -6   4  -1   16.81    7.13   1
  -6   4   0    8.29    6.62   1
  -6   4   1  168.48   11.68   1
  -6   4   2  358.72   13.64   1
  -6   4   3  181.71    9.17   1
  -6   4   4  180.10    7.78   1
  -6   4   5  454.54   17.48   1
  -6   4   6   26.52    7.42   1
  -6   4   7   50.55    7.39   1
  -6   4   9  351.19   24.36   1
  -6   4  10   16.81   10.17   1
  -6   4  11  -11.22    7.91   1
  -6   5  -6  285.61   25.35   1
  -6   5  -5   52.56   10.44   1
  -6   5  -4  147.14   12.62   1
  -6   5  -2  603.68   33.42   1
  -6   5  -1  433.06   21.64   1
  -6   5   0  505.35   23.38   1
  -6   5   1   -1.69    3.69   1
  -6   5   2   50.41    4.54   1
  -6   5   3   62.88    5.39   1
  -6   5   4  127.92    6.56   1
  -6   5   5  465.70   27.62   1
  -6   5   6   89.49    9.46   1
  -6   5   7   54.46    8.12   1
  -6   5   9    4.41   10.63   1
  -6   6  -4   95.45   12.70   1
  -6   6  -3   85.75   10.56   1
  -6   6  -2   26.73   10.03   1
  -6   6  -1   14.06    7.43   1
  -6   6   0  294.47   19.91   1
  -6   6   1  107.95    8.31   1
  -6   6   2  769.51   32.73   1
  -6   6   3    0.59    4.57   1
  -6   6   4    6.40    5.92   1
  -6   6   5   -7.18    6.27   1
  -6   6   6   79.92   10.91   1
  -6   6   7   30.69    8.20   1
  -6   6   8    4.58    7.79   1
  -6   7   0  164.10   15.88   1
  -6   7   1   16.73    5.32   1
  -6   7   2  166.41   16.25   1
  -6   7   3   61.94   11.65   1
  -6   7   4    9.92    9.83   1
  -6   7   5   51.55    9.05   1
  -5  -4  -2   56.85   10.25   1
  -5  -4  -1   37.33    7.21   1
  -5  -4   0  570.25   27.70   1
  -5  -4   1  301.72   16.33   1
  -5  -4   2    9.30    3.78   1
  -5  -4   3   29.92    4.27   1
  -5  -4   4    7.90    4.61   1
  -5  -4   5  459.67   19.72   1
  -5  -4   6  313.64   14.17   1
  -5  -4   7   27.88    4.22   1
  -5  -4   8   54.46    6.64   1
  -5  -4   9   47.33    5.50   1
  -5  -3  -4   51.27   10.45   1
  -5  -3  -3 1047.17   58.25   1
  -5  -3  -2   66.26    7.98   1
  -5  -3  -1    1.90    4.20   1
  -5  -3   0   79.39    6.59   1
  -5  -3   1  171.61    9.96   1
  -5  -3   2  633.53   23.16   1
  -5  -3   3  172.66    7.10   1
  -5  -3   4    9.00    3.18   1
  -5  -3   5   33.29    3.81   1
  -5  -3   6  155.25   12.46   1
  -5  -3   7  298.60   12.10   1
  -5  -3   8  259.53   10.63   1
  -5  -3   9  120.12    7.67   1
  -5  -3  10    4.08    4.81   1
  -5  -3  11   56.85    4.98   1
  -5  -2  -6   28.84    9.56   1
  -5  -2  -5  -18.84    7.73   1
  -5  -2  -4  128.60   10.66   1
  -5  -2  -3   58.52    7.65   1
  -5  -2  -2 1012.51   38.82   1
  -5  -2  -1  756.80   28.61   1
  -5  -2   0  337.82   14.34   1
  -5  -2   1  481.80   14.49   1
  -5  -2   2    1.10    1.99   1
  -5  -2   3   79.39    3.92   1
  -5  -2   4  359.86   10.62   1
  -5  -2   5  295.15    9.28   1
  -5  -2   6   68.39    5.62   1
  -5  -2   7    7.02    2.60   1
  -5  -2   8  554.60   22.14   1
  -5  -2   9  426.01   16.10   1
  -5  -2  10  129.05   11.36   1
  -5  -2  11   49.84    7.62   1
  -5  -2  12   57.00    8.76   1
  -5  -1  -7   81.00    9.72   1
  -5  -1  -6   29.59    8.60   1
  -5  -1  -5  277.89   17.34   1
  -5  -1  -4  168.48    9.61   1
  -5  -1  -3    2.59    4.51   1
  -5  -1  -2   13.10    4.78   1
  -5  -1  -1  192.10    9.98   1
  -5  -1   0 1408.50   38.28   1
  -5  -1   1  159.01    5.80   1
  -5  -1   2  144.96    5.30   1
  -5  -1   3  733.33   20.58   1
  -5  -1   4   33.76    2.32   1
  -5  -1   5  549.90   17.35   1
  -5  -1   6 3125.93  103.99   1
  -5  -1   7   74.82    4.15   1
  -5  -1   8   14.90    2.39   1
  -5  -1   9   44.09    3.59   1
  -5  -1  10   -0.10    3.24   1
  -5  -1  11  236.54   16.30   1
  -5  -1  12  165.64   13.38   1
  -5  -1  13   54.76   10.06   1
  -5   0  -8  578.88   34.65   1
  -5   0  -7   90.06    9.49   1
  -5   0  -6   81.18    9.55   1
  -5   0  -5   10.82    5.79   1
  -5   0  -4  134.79    7.66   1
  -5   0  -3  751.31   29.60   1
  -5   0  -2   93.90    4.46   1
  -5   0  -1   13.99    3.52   1
  -5   0   0  171.09    6.02   1
  -5   0   1  721.46   20.41   1
  -5   0   2 1709.00   48.78   1
  -5   0   3  230.74    7.59   1
  -5   0   4  244.92    7.82   1
  -5   0   5 1920.19   74.49   1
  -5   0   6  381.03   14.44   1
  -5   0   7  193.49    5.84   1
  -5   0   8  984.08   47.68   1
  -5   0   9   74.48    4.66   1
  -5   0  10   -2.40    3.01   1
  -5   0  11    3.10    3.10   1
  -5   0  12  158.51   11.58   1
  -5   0  13  235.93   17.20   1
  -5   1  -8   27.88    8.76   1
  -5   1  -7  757.90   33.04   1
  -5   1  -6  438.90   15.08   1
  -5   1  -5   20.52    3.71   1
  -5   1  -4   34.93    3.90   1
  -5   1  -3  131.33    8.02   1
  -5   1  -2  762.86   21.54   1
  -5   1  -1 2303.04   66.23   1
  -5   1   0  343.73   10.75   1
  -5   1   1   -0.59    1.89   1
  -5   1   2  153.02    5.44   1
  -5   1   3   23.14    2.98   1
  -5   1   4  348.57    8.96   1
  -5   1   5  419.43   10.65   1
  -5   1   6   70.56    2.86   1
  -5   1   7   14.90    2.16   1
  -5   1   8  412.90   17.48   1
  -5   1   9  376.36   19.79   1
  -5   1  10  745.29   26.21   1
  -5   1  11   94.48    6.22   1
  -5   1  12   39.19    4.88   1
  -5   1  13    1.49    3.29   1
  -5   2  -9  338.19   27.22   1
  -5   2  -8  178.76   13.37   1
  -5   2  -7  247.75   12.28   1
  -5   2  -6    3.69    3.11   1
  -5   2  -5 1051.70   33.73   1
  -5   2  -4  804.86   24.97   1
  -5   2  -3  820.82   37.82   1
  -5   2  -2  216.68    7.36   1
  -5   2  -1    0.50    1.80   1
  -5   2   0  165.89    5.92   1
  -5   2   1  106.30    7.63   1
  -5   2   2   11.09    1.33   1
  -5   2   3   -1.00    2.20   1
  -5   2   4    7.40    1.09   1
  -5   2   5 1932.48   49.24   1
  -5   2   6  677.56   16.66   1
  -5   2   7   95.45    4.49   1
  -5   2   8   42.25    3.25   1
  -5   2   9  192.65    7.22   1
  -5   2  10  163.84    7.68   1
  -5   2  11  441.00   16.80   1
  -5   2  12  193.49   11.13   1
  -5   2  13   -3.20    4.80   1
  -5   3  -9   51.55    7.75   1
  -5   3  -8  661.00   26.74   1
  -5   3  -7  150.55    8.59   1
  -5   3  -6  227.10   10.25   1
  -5   3  -5  100.60    5.42   1
  -5   3  -4  159.77    7.08   1
  -5   3  -3 2691.53  147.34   1
  -5   3  -2  134.56    5.57   1
  -5   3  -1   33.29    2.19   1
  -5   3   0   92.16    3.65   1
  -5   3   1   56.85    3.77   1
  -5   3   2  526.70   16.52   1
  -5   3   3  727.92   21.04   1
  -5   3   4   23.72    3.02   1
  -5   3   5  111.94    6.77   1
  -5   3   7  397.60   12.76   1
  -5   3   8  421.89   15.61   1
  -5   3   9   60.37    3.73   1
  -5   3  10  207.94   12.98   1
  -5   3  11  -12.32    8.00   1
  -5   3  12   91.39    7.07   1
  -5   4  -9   10.82    8.62   1
  -5   4  -8    6.10    4.59   1
  -5   4  -7   87.42    6.92   1
  -5   4  -6   78.85    6.22   1
  -5   4  -5    0.79    2.30   1
  -5   4  -4   30.58    2.99   1
  -5   4  -3    1.99    2.00   1
  -5   4  -2  892.22   30.47   1
  -5   4  -1 2022.30   62.96   1
  -5   4   0   67.73    7.41   1
  -5   4   1   20.98    3.39   1
  -5   4   2 1131.65   45.08   1
  -5   4   3   41.86    3.23   1
  -5   4   4  515.74   17.71   1
  -5   4   5  667.19   33.58   1
  -5   4   7    3.39    4.67   1
  -5   4   8    6.40    5.62   1
  -5   4   9  248.06   14.49   1
  -5   4  10  321.48   21.52   1
  -5   4  11    9.80    9.39   1
  -5   5  -8    7.67    4.71   1
  -5   5  -7   49.70    5.92   1
  -5   5  -6   26.63    4.44   1
  -5   5  -5  151.54    7.39   1
  -5   5  -4 1197.16   54.67   1
  -5   5  -3   16.48    2.68   1
  -5   5  -2   39.44    2.76   1
  -5   5  -1   12.39    6.12   1
  -5   5   0   88.55    5.46   1
  -5   5   1  953.57   33.35   1
  -5   5   2   36.84    3.28   1
  -5   5   3   45.16    4.97   1
  -5   5   4   84.27    7.34   1
  -5   5   5  113.64    9.81   1
  -5   5   6  939.42   42.91   1
  -5   5   7  266.02   14.68   1
  -5   5   8   81.54    8.49   1
  -5   5   9   42.12   10.51   1
  -5   5  10    9.30    9.58   1
  -5   6  -7  159.01   12.11   1
  -5   6  -6    1.99    3.69   1
  -5   6  -5   28.73    4.72   1
  -5   6  -4    8.53    3.21   1
  -5   6  -3  541.03   25.59   1
  -5   6  -2  407.64   25.04   1
  -5   6  -1   -1.21    4.62   1
  -5   6   0   18.23    4.10   1
  -5   6   1   41.47    4.64   1
  -5   6   2  398.80   15.98   1
  -5   6   3  508.05   27.05   1
  -5   6   4  247.75   14.80   1
  -5   6   5   30.47    6.29   1
  -5   6   6   -4.28    7.58   1
  -5   6   7   42.51    7.04   1
  -5   6   8  175.83   15.12   1
  -5   6   9   45.70   10.14   1
  -5   7  -6  299.29   26.99   1
  -5   7  -5   99.60   15.57   1
  -5   7  -4   23.91   10.17   1
  -5   7  -3    2.79    6.18   1
  -5   7  -2   82.81   11.28   1
  -5   7  -1  237.16   11.40   1
  -5   7   0  183.60    9.48   1
  -5   7   1   12.11    5.50   1
  -5   7   2   27.88    7.92   1
  -5   7   3   50.13    8.78   1
  -5   7   4  157.00   13.78   1
  -5   7   5  400.80   26.43   1
  -5   7   6   35.52   10.13   1
  -5   7   7    6.20   10.61   1
  -5   8   2   40.58    8.28   1
  -5   8   3    7.67    7.20   1
  -4  -5  -2   -3.88    8.39   1
  -4  -5  -1   57.91    8.37   1
  -4  -5   0  530.38   20.73   1
  -4  -5   1  154.26    8.69   1
  -4  -5   2   43.82    5.43   1
  -4  -5   3   26.94    4.15   1
  -4  -5   4   20.07    4.30   1
  -4  -5   5  602.70   25.53   1
  -4  -5   6  400.80   18.02   1
  -4  -5   7   16.16    4.26   1
  -4  -5   8  138.77    9.19   1
  -4  -5   9   44.36    6.26   1
  -4  -4  -5   31.36    7.62   1
  -4  -4  -4  835.21   41.62   1
  -4  -4  -3 1015.70   52.90   1
  -4  -4  -2   18.58    4.91   1
  -4  -4  -1  168.48   11.42   1
  -4  -4   0  897.60   23.97   1
  -4  -4   1  204.49    7.44   1
  -4  -4   2  458.82   14.57   1
  -4  -4   3  762.86   22.65   1
  -4  -4   4  281.23   10.06   1
  -4  -4   5   24.30    3.65   1
  -4  -4   6  176.09    8.23   1
  -4  -4   7  231.65    9.74   1
  -4  -4   8   14.36    3.18   1
  -4  -4   9   12.39    3.73   1
  -4  -4  10   23.91    4.50   1
  -4  -4  11   57.61    5.62   1
  -4  -3  -7  522.58   30.18   1
  -4  -3  -6  312.94   18.04   1
  -4  -3  -5   -2.50    4.99   1
  -4  -3  -4   76.91    6.84   1
  -4  -3  -3   -5.62    5.92   1
  -4  -3  -2  344.47   15.22   1
  -4  -3  -1 1073.87   39.32   1
  -4  -3   0   -1.99    4.29   1
  -4  -3   1   29.81    3.28   1
  -4  -3   2   31.02    2.90   1
  -4  -3   3  577.44   13.94   1
  -4  -3   4  526.24   15.60   1
  -4  -3   5  823.69   31.00   1
  -4  -3   6  259.21    8.69   1
  -4  -3   7    7.67    2.77   1
  -4  -3   8   80.28    5.20   1
  -4  -3   9  204.20    8.57   1
  -4  -3  10  183.33    8.67   1
  -4  -3  11    1.21    4.31   1
  -4  -3  12   36.84    6.56   1
  -4  -2  -8   42.25   10.79   1
  -4  -2  -7  180.63   13.17   1
  -4  -2  -6   22.56    7.31   1
  -4  -2  -5  348.94   17.19   1
  -4  -2  -4  575.04   23.50   1
  -4  -2  -3   58.83    6.14   1
  -4  -2  -2    5.20    4.20   1
  -4  -2  -1   38.07    3.95   1
  -4  -2   0  992.25   34.02   1
  -4  -2   1  241.49    9.95   1
  -4  -2   2  108.58    3.33   1
  -4  -2   3    4.00    1.40   1
  -4  -2   4  416.16   10.20   1
  -4  -2   5 3292.46   81.48   1
  -4  -2   6  290.36    9.88   1
  -4  -2   7  397.20   12.76   1
  -4  -2   8  141.37    5.95   1
  -4  -2   9   26.11    3.17   1
  -4  -2  10  127.24    6.09   1
  -4  -2  11  504.90   25.62   1
  -4  -2  12  106.71    9.71   1
  -4  -2  13   39.94    6.83   1
  -4  -1  -9   -3.20    9.42   1
  -4  -1  -8  773.40   45.05   1
  -4  -1  -7   81.90   10.50   1
  -4  -1  -6    4.28    5.51   1
  -4  -1  -5  192.10   10.26   1
  -4  -1  -4   70.39    6.38   1
  -4  -1  -3 1149.89   44.08   1
  -4  -1  -2   81.36    5.41   1
  -4  -1  -1  407.64   15.75   1
  -4  -1   0   79.39    5.17   1
  -4  -1   1  266.67    8.49   1
  -4  -1   2 1624.90   41.12   1
  -4  -1   3 1202.70   24.97   1
  -4  -1   4    6.10    1.38   1
  -4  -1   5  386.12    9.43   1
  -4  -1   6  127.46    3.39   1
  -4  -1   7  892.81   19.72   1
  -4  -1   8  519.38   14.59   1
  -4  -1   9  228.92    6.66   1
  -4  -1  10  513.48   14.50   1
  -4  -1  11    6.20    5.18   1
  -4  -1  12  119.46    8.31   1
  -4  -1  13  381.03   23.42   1
  -4   0  -9  263.74   18.84   1
  -4   0  -8   48.44    8.91   1
  -4   0  -7  523.04   26.07   1
  -4   0  -6 1145.15   66.33   1
  -4   0  -5   42.51    5.48   1
  -4   0  -4    4.08    2.50   1
  -4   0  -3  425.60   16.50   1
  -4   0  -2  700.66   23.82   1
  -4   0  -1  679.64   18.25   1
  -4   0   0   47.89    3.04   1
  -4   0   1    2.59    1.29   1
  -4   0   2    1.39    1.20   1
  -4   0   3  709.69   23.44   1
  -4   0   4 4153.80   97.96   1
  -4   0   5  263.74    7.15   1
  -4   0   6   93.70    2.71   1
  -4   0   7  445.63   11.40   1
  -4   0   8   49.14    2.24   1
  -4   0   9  967.83   21.78   1
  -4   0  10  619.01   29.36   1
  -4   0  11  111.09    5.48   1
  -4   0  12    2.79    2.91   1
  -4   0  13   -4.88    4.11   1
  -4   0  14  174.50   15.59   1
  -4   1 -10  285.95   23.00   1
  -4   1  -9  179.29   16.87   1
  -4   1  -8  165.38   11.83   1
  -4   1  -7  364.43   20.62   1
  -4   1  -6  576.48   36.98   1
  -4   1  -5  222.01   13.41   1
  -4   1  -4 5090.82  259.71   1
  -4   1  -3  140.90    5.70   1
  -4   1  -2   79.21    3.92   1
  -4   1  -1  316.13    8.53   1
  -4   1   0  411.68   11.77   1
  -4   1   1 1561.83   47.42   1
  -4   1   2  778.97   20.65   1
  -4   1   3    3.50    1.01   1
  -4   1   4   33.99    1.75   1
  -4   1   5  571.21   14.34   1
  -4   1   6  554.13   12.71   1
  -4   1   7  179.29    6.43   1
  -4   1   8   25.10    2.30   1
  -4   1   9   51.70    3.74   1
  -4   1  10  389.67   16.98   1
  -4   1  11  509.40   17.15   1
  -4   1  12  266.34   10.44   1
  -4   1  13   45.56    4.86   1
  -4   2 -10   60.84    6.86   1
  -4   2  -9  204.20   14.00   1
  -4   2  -8  481.36   17.11   1
  -4   2  -7  157.75    7.28   1
  -4   2  -6    4.58    3.51   1
  -4   2  -5   81.36    4.33   1
  -4   2  -4  225.30   10.51   1
  -4   2  -3 2324.20   74.24   1
  -4   2  -2 1593.61   39.12   1
  -4   2  -1  197.12    6.18   1
  -4   2   0   85.01    2.95   1
  -4   2   1 1540.56   36.11   1
  -4   2   2 1268.07   27.06   1
  -4   2   3 1071.25   28.15   1
  -4   2   4  734.41   18.97   1
  -4   2   5   49.84    1.84   1
  -4   2   6  205.06    8.88   1
  -4   2   7  413.31   12.60   1
  -4   2   8  267.65    9.16   1
  -4   2   9   -2.10    2.29   1
  -4   2  10  345.22   13.01   1
  -4   2  11   -7.62    3.20   1
  -4   2  12  246.80   11.31   1
  -4   2  13 1034.91   39.25   1
  -4   3 -10   11.09    4.80   1
  -4   3  -9  123.21    7.77   1
  -4   3  -8   -4.20    4.71   1
  -4   3  -7  316.13   11.02   1
  -4   3  -6  845.65   25.59   1
  -4   3  -5  827.71   26.47   1
  -4   3  -4  148.60    7.80   1
  -4   3  -3   86.49    4.28   1
  -4   3  -2  155.00    4.48   1
  -4   3  -1  245.55    7.21   1
  -4   3   0 1012.51   20.36   1
  -4   3   1   81.36    3.97   1
  -4   3   2   20.52    2.17   1
  -4   3   3  446.05   19.85   1
  -4   3   4 1690.85   47.70   1
  -4   3   5  904.20   28.87   1
  -4   3   6  208.22    8.08   1
  -4   3   7  131.56    8.03   1
  -4   3   8   57.46    5.46   1
  -4   3   9  655.87   18.95   1
  -4   3  10  706.50   20.73   1
  -4   3  11   71.74    9.66   1
  -4   3  12   42.25    5.85   1
  -4   3  13   11.49    6.98   1
  -4   4 -10  153.51   10.16   1
  -4   4  -9  286.29   16.92   1
  -4   4  -8   93.32    5.41   1
  -4   4  -7   13.47    3.89   1
  -4   4  -6   18.06    2.81   1
  -4   4  -5  358.72   14.02   1
  -4   4  -4  509.40   25.28   1
  -4   4  -3    2.31    2.10   1
  -4   4  -2  144.00    6.00   1
  -4   4  -1   22.00    1.59   1
  -4   4   0  821.40   17.77   1
  -4   4   1 2523.05   81.37   1
  -4   4   2  242.42    9.34   1
  -4   4   3  218.45    7.98   1
  -4   4   4  679.12   30.23   1
  -4   4   5  194.60    7.25   1
  -4   4   6  717.17   23.57   1
  -4   4   7  962.86   30.41   1
  -4   4   8   17.47    2.68   1
  -4   4   9   20.79    3.19   1
  -4   4  10   -3.20    3.40   1
  -4   4  11  354.57   16.95   1
  -4   4  12   67.08    5.90   1
  -4   5 -10  225.90   20.14   1
  -4   5  -9   80.28    6.63   1
  -4   5  -8   77.62    6.52   1
  -4   5  -7  686.96   24.64   1
  -4   5  -6   -3.88    2.80   1
  -4   5  -5    9.92    2.90   1
  -4   5  -4   62.88    3.65   1
  -4   5  -3 1007.43   38.72   1
  -4   5  -2  376.36   13.58   1
  -4   5  -1   44.36    2.53   1
  -4   5   0  458.82   17.99   1
  -4   5   1   86.49    3.53   1
  -4   5   2 1049.11   33.69   1
  -4   5   3 1437.93   66.74   1
  -4   5   4  797.50   35.58   1
  -4   5   5  166.15    7.73   1
  -4   5   6    0.20    1.81   1
  -4   5   7   11.63    2.73   1
  -4   5   8  255.36   14.70   1
  -4   5   9  431.39   15.37   1
  -4   5  10  192.93   10.83   1
  -4   5  11   87.42    7.67   1
  -4   6  -9   16.73    8.34   1
  -4   6  -8  106.50   10.94   1
  -4   6  -7  324.72   15.86   1
  -4   6  -6  961.62   39.69   1
  -4   6  -5  611.08   20.76   1
  -4   6  -4    5.20    2.92   1
  -4   6  -3  534.07   23.57   1
  -4   6  -2   -0.71    2.70   1
  -4   6  -1  135.02    7.20   1
  -4   6   0  545.69   24.76   1
  -4   6   1  159.01    6.05   1
  -4   6   2   -2.99    4.98   1
  -4   6   3   74.48    6.21   1
  -4   6   4  810.54   37.01   1
  -4   6   6    2.89    5.00   1
  -4   6   7  199.94   13.01   1
  -4   6   8   27.67    6.52   1
  -4   6   9  217.27   17.69   1
  -4   7  -7   53.44    9.50   1
  -4   7  -6   19.01    4.10   1
  -4   7  -5   53.14    5.54   1
  -4   7  -4  835.21   34.68   1
  -4   7  -3  103.84    6.93   1
  -4   7  -2    5.71    3.01   1
  -4   7  -1   12.18    6.28   1
  -4   7   0   48.58    5.44   1
  -4   7   1  315.42   23.44   1
  -4   7   2  396.41   25.09   1
  -4   7   3   45.56    6.21   1
  -4   7   4   12.60    8.09   1
  -4   7   5   70.06    9.04   1
  -4   7   6  271.26   20.75   1
  -4   7   7  198.81   17.77   1
  -4   8  -5    4.49    5.98   1
  -4   8  -4   12.11    5.99   1
  -4   8  -3  326.52   24.94   1
  -4   8   3  124.99   11.40   1
  -4   8   4  235.62   17.19   1
  -3  -6  -2    0.10    5.66   1
  -3  -6  -1   -0.40    5.48   1
  -3  -6   0  718.24   26.26   1
  -3  -6   1   45.56    4.86   1
  -3  -6   2   80.82    6.29   1
  -3  -6   3   66.59    5.22   1
  -3  -6   4    1.99    6.49   1
  -3  -6   5  409.66   18.22   1
  -3  -6   6    6.40    4.40   1
  -3  -6   7   43.96    4.91   1
  -3  -6   8    2.69    5.77   1
  -3  -5  -5   78.85    9.77   1
  -3  -5  -4  224.70   14.99   1
  -3  -5  -3  241.49   17.40   1
  -3  -5  -2   54.02    5.00   1
  -3  -5  -1  157.00    7.27   1
  -3  -5   0   76.04    5.23   1
  -3  -5   1  197.40    7.87   1
  -3  -5   2  669.77   19.67   1
  -3  -5   3   53.00    4.37   1
  -3  -5   4   23.62    3.60   1
  -3  -5   5  196.56    7.57   1
  -3  -5   6  387.70   12.60   1
  -3  -5   7  163.33    7.16   1
  -3  -5   8  126.79    6.98   1
  -3  -5   9   57.46    5.15   1
  -3  -5  10   26.42    7.81   1
  -3  -5  11   62.41    6.95   1
  -3  -4  -7  354.19   24.84   1
  -3  -4  -6   50.27    9.36   1
  -3  -4  -5   10.69    5.17   1
  -3  -4  -4   18.92    4.87   1
  -3  -4  -3   68.23    7.76   1
  -3  -4  -2  483.56   13.63   1
  -3  -4  -1  571.69   15.78   1
  -3  -4   0    3.50    2.81   1
  -3  -4   1   81.36    4.51   1
  -3  -4   2   80.46    3.95   1
  -3  -4   3    4.71    2.52   1
  -3  -4   4 2809.00   69.96   1
  -3  -4   5   18.32    3.00   1
  -3  -4   6  224.40    8.39   1
  -3  -4   7   32.60    3.65   1
  -3  -4   8   51.55    5.46   1
  -3  -4   9  151.04    7.62   1
  -3  -4  10   53.58    4.98   1
  -3  -4  11    3.69    3.30   1
  -3  -4  12    4.58    4.28   1
  -3  -3  -8   26.11    7.26   1
  -3  -3  -7   32.04    8.26   1
  -3  -3  -6  391.64   19.00   1
  -3  -3  -5   39.82    6.94   1
  -3  -3  -4  353.82   14.67   1
  -3  -3  -3  266.67   12.74   1
  -3  -3  -2   79.57    6.78   1
  -3  -3  -1  279.56    8.03   1
  -3  -3   0 1093.62   26.46   1
  -3  -3   1 1261.67   33.39   1
  -3  -3   2  396.01   11.14   1
  -3  -3   3   37.70    3.07   1
  -3  -3   4   33.52    1.74   1
  -3  -3   5  182.25    6.21   1
  -3  -3   6   86.12    4.08   1
  -3  -3   7   22.28    2.74   1
  -3  -3   8  107.54    6.64   1
  -3  -3   9    1.49    2.49   1
  -3  -3  10  832.90   31.17   1
  -3  -3  11  138.77    7.54   1
  -3  -3  12   19.18    4.91   1
  -3  -3  13   14.67    5.82   1
  -3  -2 -10   22.28    8.78   1
  -3  -2  -9  608.61   36.02   1
  -3  -2  -8  428.90   24.44   1
  -3  -2  -7  288.66   14.61   1
  -3  -2  -6   25.30    6.14   1
  -3  -2  -5   11.70    4.92   1
  -3  -2  -4   81.36    6.13   1
  -3  -2  -3  797.50   29.37   1
  -3  -2  -2  151.04    7.37   1
  -3  -2  -1  230.13    9.41   1
  -3  -2   0  832.90   21.93   1
  -3  -2   1  324.00    9.72   1
  -3  -2   2  584.19   16.44   1
  -3  -2   3  131.10    3.66   1
  -3  -2   4  694.32   16.34   1
  -3  -2   5   45.56    1.49   1
  -3  -2   6  206.50    6.90   1
  -3  -2   7  925.38   49.28   1
  -3  -2   8 1528.81   41.45   1
  -3  -2   9   23.81    2.54   1
  -3  -2  10   11.49    2.31   1
  -3  -2  11    1.90    2.10   1
  -3  -2  12   79.39    8.55   1
  -3  -2  13  217.86   15.65   1
  -3  -2  14    0.59    6.07   1
  -3  -1 -10   -0.10    8.70   1
  -3  -1  -9  135.49   11.17   1
  -3  -1  -8   22.37    7.10   1
  -3  -1  -7  915.06   37.51   1
  -3  -1  -6  103.23    7.72   1
  -3  -1  -5 2178.09   83.07   1
  -3  -1  -4  614.54   23.80   1
  -3  -1  -3  316.84   12.46   1
  -3  -1  -2    5.38    3.02   1
  -3  -1   0  101.40    4.43   1
  -3  -1   1   55.06    2.37   1
  -3  -1   2  412.09    9.74   1
  -3  -1   3 1455.42   30.52   1
  -3  -1   4 2105.89   37.63   1
  -3  -1   5   42.77    1.70   1
  -3  -1   6  136.66    3.74   1
  -3  -1   7  286.29    6.77   1
  -3  -1   8   55.65    2.24   1
  -3  -1   9 1108.89   28.64   1
  -3  -1  10  558.85   21.28   1
  -3  -1  11  103.43    5.09   1
  -3  -1  12   52.71    5.66   1
  -3  -1  13   18.32    5.14   1
  -3  -1  14   21.81    6.91   1
  -3   0 -11   43.69    9.39   1
  -3   0 -10  312.58   24.40   1
  -3   0  -9   94.48   11.86   1
  -3   0  -8   23.62    6.42   1
  -3   0  -7   67.40    6.08   1
  -3   0  -6  161.80    8.90   1
  -3   0  -5  772.84   30.58   1
  -3   0  -4  259.85   12.57   1
  -3   0  -2  811.68   29.06   1
  -3   0  -1  589.52   16.51   1
  -3   0   0  246.80    5.97   1
  -3   0   1 8012.04  180.81   1
  -3   0   2  616.53   21.35   1
  -3   0   3   33.06    1.26   1
  -3   0   4  153.76    3.22   1
  -3   0   5   53.14    1.60   1
  -3   0   6  196.00    5.60   1
  -3   0   7  151.29    4.43   1
  -3   0   8    8.70    1.42   1
  -3   0   9    1.21    1.72   1
  -3   0  10  511.66   16.74   1
  -3   0  11  460.53   14.59   1
  -3   0  12  328.70   13.78   1
  -3   0  13   52.71    5.23   1
  -3   0  14    2.79    4.58   1
  -3   1 -11    2.40    9.80   1
  -3   1 -10   45.02    6.44   1
  -3   1  -9  679.64   27.63   1
  -3   1  -8  333.06   21.53   1
  -3   1  -7   46.38    5.86   1
  -3   1  -6  130.19   11.18   1
  -3   1  -5  463.97   25.85   1
  -3   1  -4  277.22   12.32   1
  -3   1  -3 2507.00  101.14   1
  -3   1  -2 1640.25   35.64   1
  -3   1  -1 1529.59   41.46   1
  -3   1   0  554.13   14.12   1
  -3   1   1   12.60    0.78   1
  -3   1   2  121.00    3.08   1
  -3   1   3  857.90   20.50   1
  -3   1   4  417.38   12.26   1
  -3   1   5   97.81    3.76   1
  -3   1   6  380.64   11.71   1
  -3   1   7   95.84    4.50   1
  -3   1   8  971.57   26.18   1
  -3   1   9   86.12    3.90   1
  -3   1  10   10.50    2.72   1
  -3   1  11    6.10    2.72   1
  -3   1  12  261.15   10.99   1
  -3   1  13  139.48    8.50   1
  -3   1  14   91.01    6.87   1
  -3   2 -12  433.89   32.91   1
  -3   2 -11  108.37   11.24   1
  -3   2 -10   -7.67    7.70   1
  -3   2  -9   -1.49    4.29   1
  -3   2  -7  565.49   25.68   1
  -3   2  -6  901.20   32.42   1
  -3   2  -5  307.65    9.47   1
  -3   2  -4  173.19    5.79   1
  -3   2  -3   94.09    3.10   1
  -3   2  -2  104.24    3.88   1
  -3   2  -1 1293.12   28.05   1
  -3   2   0 2324.20   52.07   1
  -3   2   1   91.78    4.41   1
  -3   2   2    0.40    1.30   1
  -3   2   3   16.16    0.96   1
  -3   2   4  943.72   28.88   1
  -3   2   5  140.66    4.51   1
  -3   2   6  403.61   11.65   1
  -3   2   7    6.71    1.92   1
  -3   2   8  183.87    7.05   1
  -3   2   9  345.22   11.52   1
  -3   2  10  419.84   13.52   1
  -3   2  11   52.42    4.78   1
  -3   2  12   15.21    4.68   1
  -3   2  13   -6.20    4.68   1
  -3   2  14  183.33   15.44   1
  -3   3 -11   27.25    5.95   1
  -3   3 -10  698.02   25.89   1
  -3   3  -9  382.98   13.31   1
  -3   3  -8  784.00   25.76   1
  -3   3  -7    9.30    3.60   1
  -3   3  -6   40.07    3.92   1
  -3   3  -5    0.10    2.02   1
  -3   3  -4  208.51    7.51   1
  -3   3  -3   11.42    1.49   1
  -3   3  -2    6.20    1.20   1
  -3   3  -1  307.30    7.71   1
  -3   3   0 1324.96   31.30   1
  -3   3   1 3286.73  119.25   1
  -3   3   2  404.01   14.47   1
  -3   3   3    0.71    0.40   1
  -3   3   4  678.08   23.44   1
  -3   3   5  293.44   10.96   1
  -3   3   6  212.58    6.42   1
  -3   3   7  499.97   16.10   1
  -3   3   8  124.77    5.59   1
  -3   3   9  303.46   11.50   1
  -3   3  10  782.32   25.73   1
  -3   3  11   34.46    3.76   1
  -3   3  12  531.76   20.29   1
  -3   3  13   -6.30    5.02   1
  -3   4 -11   28.30    7.77   1
  -3   4 -10    3.69    3.88   1
  -3   4  -9    4.08    4.97   1
  -3   4  -8  712.89   29.37   1
  -3   4  -7  327.61   22.08   1
  -3   4  -6   33.87    3.61   1
  -3   4  -5   26.01    3.88   1
  -3   4  -4   34.81    2.95   1
  -3   4  -3  839.84   26.08   1
  -3   4  -2  166.93    5.43   1
  -3   4  -1  365.96   14.54   1
  -3   4   0   52.56    2.03   1
  -3   4   1  102.01    3.43   1
  -3   4   2 1166.91   29.38   1
  -3   4   3  903.00   27.65   1
  -3   4   4   96.63    2.95   1
  -3   4   5  121.66    4.63   1
  -3   4   6  231.95    7.61   1
  -3   4   7  376.36   13.58   1
  -3   4   8 1386.07   44.68   1
  -3   4   9  594.38   19.99   1
  -3   4  10    2.40    2.51   1
  -3   4  11    8.12    3.70   1
  -3   4  12    2.40    4.49   1
  -3   5 -11  260.50   24.21   1
  -3   5 -10   38.07    7.28   1
  -3   5  -9    9.92    7.50   1
  -3   5  -8    1.80    3.30   1
  -3   5  -7  160.02    8.60   1
  -3   5  -6  404.81   13.68   1
  -3   5  -5  596.34   21.49   1
  -3   5  -4  103.23    4.67   1
  -3   5  -3   11.83    2.20   1
  -3   5  -2   57.00    2.72   1
  -3   5  -1  843.90   28.47   1
  -3   5   0  512.12   21.27   1
  -3   5   1   36.60    2.30   1
  -3   5   2  415.75   12.23   1
  -3   5   3   99.60    4.19   1
  -3   5   4  486.20   29.55   1
  -3   5   5  801.46   24.91   1
  -3   5   6  192.65    7.50   1
  -3   5   7    9.00    3.00   1
  -3   5   8  110.25    5.88   1
  -3   5   9  494.62   17.79   1
  -3   5  10    6.50    3.82   1
  -3   5  11  240.25   13.02   1
  -3   6 -10  340.03   23.60   1
  -3   6  -9  283.59   20.54   1
  -3   6  -8   82.63    9.82   1
  -3   6  -7   71.23    5.40   1
  -3   6  -6    9.99    2.97   1
  -3   6  -5   75.17    5.55   1
  -3   6  -4  969.70   31.14   1
  -3   6  -3   75.34    4.51   1
  -3   6  -2    1.99    2.40   1
  -3   6  -1    4.88    2.08   1
  -3   6   0   97.81    7.12   1
  -3   6   1 2752.05  107.02   1
  -3   6   2   12.82    2.08   1
  -3   6   3  298.94   12.79   1
  -3   6   4   44.09    3.45   1
  -3   6   5    7.40    3.10   1
  -3   6   6  161.29    7.62   1
  -3   6   7  183.60    7.86   1
  -3   6   8    6.81    3.50   1
  -3   6   9    4.28    5.09   1
  -3   7  -8  219.04   18.06   1
  -3   7  -7  397.60   31.90   1
  -3   7  -6    1.10    6.22   1
  -3   7  -5  348.20   14.55   1
  -3   7  -4    1.90    2.51   1
  -3   7  -3  100.40    8.42   1
  -3   7  -2  835.79   38.16   1
  -3   7  -1  673.92   35.31   1
  -3   7   0    8.18    2.80   1
  -3   7   1    7.78    5.69   1
  -3   7   2   58.98    4.15   1
  -3   7   3   62.88    7.45   1
  -3   7   4    5.62    3.41   1
  -3   7   5    9.30    4.33   1
  -3   7   6   44.89    4.96   1
  -3   7   7  484.88   21.14   1
  -3   8  -6  261.47   18.11   1
  -3   8  -5   87.42    8.41   1
  -3   8  -4    5.71    4.59   1
  -3   8  -3    1.69    5.59   1
  -3   8  -2   54.17    6.77   1
  -3   8  -1  142.56    9.55   1
  -3   8   0  785.12   48.75   1
  -3   8   1   82.63    8.18   1
  -3   8   3   -2.89    4.39   1
  -3   8   4  118.81    8.28   1
  -3   8   5  605.65   30.02   1
  -2  -7  -1  251.22   13.63   1
  -2  -7   0   26.42    5.35   1
  -2  -7   1   44.36    5.59   1
  -2  -7   2    4.20    4.18   1
  -2  -7   3  148.84    8.78   1
  -2  -7   4   97.81    7.32   1
  -2  -7   5  520.30   23.72   1
  -2  -7   6   37.45    6.85   1
  -2  -7   7   17.81    6.33   1
  -2  -6  -5   27.35    9.94   1
  -2  -6  -4  116.64   11.02   1
  -2  -6  -3  119.90    7.66   1
  -2  -6  -2    5.62    3.41   1
  -2  -6  -1   -4.08    3.68   1
  -2  -6   0  321.13   12.19   1
  -2  -6   1  557.90   18.42   1
  -2  -6   2    5.02    3.90   1
  -2  -6   3  187.14   12.04   1
  -2  -6   4  767.29   21.61   1
  -2  -6   5  451.56   14.03   1
  -2  -6   6  131.56    6.19   1
  -2  -6   7  388.09   18.91   1
  -2  -6   8   37.58    5.27   1
  -2  -6   9   14.59    5.81   1
  -2  -6  10    7.90    5.51   1
  -2  -5  -7   41.86   10.87   1
  -2  -5  -6  176.89   14.36   1
  -2  -5  -5   32.26    8.07   1
  -2  -5  -4   15.60    5.69   1
  -2  -5  -3 1232.71   32.30   1
  -2  -5  -2 1272.35   34.96   1
  -2  -5  -1  177.16    6.66   1
  -2  -5   0   62.73    3.96   1
  -2  -5   1  139.48    5.43   1
  -2  -5   2   10.82    2.50   1
  -2  -5   3  366.34   11.87   1
  -2  -5   4  447.75   13.12   1
  -2  -5   5   35.16    3.80   1
  -2  -5   6   61.15    3.91   1
  -2  -5   7  262.76    9.08   1
  -2  -5   8   93.32    6.38   1
  -2  -5   9  374.81   15.88   1
  -2  -5  10   56.55    4.96   1
  -2  -5  11    1.59    3.48   1
  -2  -5  12    3.39    3.97   1
  -2  -4  -9   26.21   11.06   1
  -2  -4  -8   17.39    7.42   1
  -2  -4  -7   58.83    7.52   1
  -2  -4  -6  490.18   21.25   1
  -2  -4  -5   97.81    7.12   1
  -2  -4  -4  117.51    8.67   1
  -2  -4  -3  229.83    7.28   1
  -2  -4  -2   69.06    3.82   1
  -2  -4  -1  951.72   24.68   1
  -2  -4   0  370.95   10.02   1
  -2  -4   1  314.00    9.92   1
  -2  -4   2   60.37    3.26   1
  -2  -4   3  149.82    5.14   1
  -2  -4   4  371.72   11.18   1
  -2  -4   5  553.66   15.06   1
  -2  -4   6  331.60    9.83   1
  -2  -4   7  235.93    8.60   1
  -2  -4   8    4.58    2.48   1
  -2  -4   9  132.48    6.22   1
  -2  -4  10  100.40    5.61   1
  -2  -4  11    9.99    3.60   1
  -2  -4  12    0.30    3.92   1
  -2  -4  13    6.60    5.91   1
  -2  -3 -10  114.49   13.27   1
  -2  -3  -9  653.31   37.32   1
  -2  -3  -8  422.30   23.43   1
  -2  -3  -7   94.28    7.96   1
  -2  -3  -6  125.44    8.29   1
  -2  -3  -5  720.92   27.39   1
  -2  -3  -4 1306.82   45.55   1
  -2  -3  -3   34.69    4.36   1
  -2  -3  -2  256.00    7.68   1
  -2  -3  -1  286.96    8.47   1
  -2  -3   0  363.28   10.29   1
  -2  -3   1  915.67   36.31   1
  -2  -3   2  256.64   10.57   1
  -2  -3   3    6.00    2.70   1
  -2  -3   4  260.50    5.81   1
  -2  -3   5   60.06    3.10   1
  -2  -3   6  383.77   11.36   1
  -2  -3   7  700.13   21.17   1
  -2  -3   8  308.70   10.19   1
  -2  -3   9    3.39    2.28   1
  -2  -3  10   18.32    3.51   1
  -2  -3  11   48.86    3.91   1
  -2  -3  12  323.64   15.47   1
  -2  -3  13    0.00    1.00   1
  -2  -2 -11   90.25   10.64   1
  -2  -2 -10   34.46    7.87   1
  -2  -2  -9   21.81    5.98   1
  -2  -2  -8   68.56    7.95   1
  -2  -2  -7  139.00    8.49   1
  -2  -2  -6  348.94   16.44   1
  -2  -2  -5   22.66    3.43   1
  -2  -2  -4   67.24    5.25   1
  -2  -2  -1    4.49    1.48   1
  -2  -2   0  997.30   27.16   1
  -2  -2   1  225.30    6.60   1
  -2  -2   2  656.38   16.91   1
  -2  -2   3  412.90   10.16   1
  -2  -2   4  182.25    4.59   1
  -2  -2   5   36.60    1.69   1
  -2  -2   6    3.61    1.79   1
  -2  -2   7  326.16   10.47   1
  -2  -2   8  846.81   19.79   1
  -2  -2   9 1085.04   27.67   1
  -2  -2  10   24.80    2.69   1
  -2  -2  11   22.56    3.14   1
  -2  -2  12   97.02    7.68   1
  -2  -2  13  114.70   10.71   1
  -2  -2  14   67.73    8.72   1
  -2  -1 -12   21.07   11.75   1
  -2  -1 -11  257.60   20.54   1
  -2  -1 -10  402.00   24.46   1
  -2  -1  -9    5.71    4.68   1
  -2  -1  -8    2.79    3.91   1
  -2  -1  -7    1.69    4.68   1
  -2  -1  -6  207.94   10.09   1
  -2  -1  -5  915.67   33.89   1
  -2  -1  -3   95.06    5.85   1
  -2  -1  -2 1080.44   46.02   1
  -2  -1  -1    9.61    1.80   1
  -2  -1   0  639.08   13.65   1
  -2  -1   1  338.56    7.73   1
  -2  -1   2  111.30    2.95   1
  -2  -1   3  226.80    4.82   1
  -2  -1   4 1042.00   21.95   1
  -2  -1   5 4957.57  150.68   1
  -2  -1   6  225.90    6.01   1
  -2  -1   7  158.76    6.55   1
  -2  -1   8  360.24    9.87   1
  -2  -1   9   41.99    2.07   1
  -2  -1  10  290.70    8.18   1
  -2  -1  11  404.41   12.07   1
  -2  -1  12   99.80    5.39   1
  -2  -1  13   66.42    7.17   1
  -2  -1  14    1.30    7.00   1
  -2   0 -12    8.18    7.61   1
  -2   0 -11   28.73    9.65   1
  -2   0 -10  327.25   14.83   1
  -2   0  -9  333.43   18.26   1
  -2   0  -8  207.94   12.98   1
  -2   0  -7   75.34    6.25   1
  -2   0  -6   71.74    6.10   1
  -2   0  -4 1638.63   61.53   1
  -2   0  -3 1428.84   44.60   1
  -2   0  -2  607.62   13.31   1
  -2   0  -1   83.72    2.74   1
  -2   0   0   10.69    0.92   1
  -2   0   1  765.63   19.37   1
  -2   0   2  576.48   10.56   1
  -2   0   3 1160.76   25.89   1
  -2   0   4   95.84    2.74   1
  -2   0   5  640.60   15.69   1
  -2   0   6    9.30    0.92   1
  -2   0   7  777.29   23.98   1
  -2   0   8  163.33    5.11   1
  -2   0   9   74.65    2.94   1
  -2   0  10   39.69    2.77   1
  -2   0  11  264.39    9.11   1
  -2   0  12  148.35    7.06   1
  -2   0  13  175.83    8.49   1
  -2   0  14   45.29    5.65   1
  -2   1 -12  152.52   16.80   1
  -2   1 -11  329.42   16.33   1
  -2   1  -9  215.50   12.62   1
  -2   1  -8   61.47    6.43   1
  -2   1  -7  514.84   24.51   1
  -2   1  -6   23.43    3.19   1
  -2   1  -4  222.61    7.16   1
  -2   1  -3 1485.33   40.08   1
  -2   1  -2 6198.41  146.44   1
  -2   1  -1 4577.88  132.61   1
  -2   1   0 1805.40   41.64   1
  -2   1   1  982.82   26.96   1
  -2   1   2 1141.09   35.81   1
  -2   1   3 1144.47   27.74   1
  -2   1   4  785.12   20.17   1
  -2   1   5  426.42   11.98   1
  -2   1   6 2176.22   50.38   1
  -2   1   7 1182.67   41.27   1
  -2   1   8   48.86    2.80   1
  -2   1   9 1167.59   30.07   1
  -2   1  10  608.12   19.73   1
  -2   1  11   33.76    3.60   1
  -2   1  12  104.24    5.51   1
  -2   1  13  183.06    8.93   1
  -2   1  14  454.12   18.75   1
  -2   2 -13    4.80    8.19   1
  -2   2 -12    7.18    7.08   1
  -2   2 -11  386.91   22.03   1
  -2   2 -10  153.02   10.14   1
  -2   2  -9  256.96   13.14   1
  -2   2  -8   50.69    4.84   1
  -2   2  -7    3.39    2.91   1
  -2   2  -6  225.30    7.81   1
  -2   2  -5  622.00   16.96   1
  -2   2  -4 2253.40   51.27   1
  -2   2  -3    4.20    1.11   1
  -2   2  -2  657.41   18.97   1
  -2   2  -1   16.97    0.99   1
  -2   2   0    1.90    0.50   1
  -2   2   1  504.90   13.48   1
  -2   2   2    2.69    0.39   1
  -2   2   3   27.56    1.05   1
  -2   2   4 1585.63   39.02   1
  -2   2   5  524.41   16.03   1
  -2   2   6  934.52   20.18   1
  -2   2   7  138.30    4.70   1
  -2   2   8   45.02    3.22   1
  -2   2   9    2.50    1.39   1
  -2   2  10  228.31    8.16   1
  -2   2  11  157.50    6.78   1
  -2   2  12  100.40    5.81   1
  -2   2  13   14.82    4.70   1
  -2   3 -12   37.70    7.25   1
  -2   3 -11   25.81    4.57   1
  -2   3 -10    5.20    4.51   1
  -2   3  -9  156.50   11.01   1
  -2   3  -8  397.60   18.34   1
  -2   3  -7  327.25   11.22   1
  -2   3  -6  276.56    7.65   1
  -2   3  -5   54.17    4.27   1
  -2   3  -4  684.35   20.93   1
  -2   3  -3    6.00    0.98   1
  -2   3  -2  159.52    5.05   1
  -2   3  -1   86.30    2.42   1
  -2   3   0  746.38   18.58   1
  -2   3   1  713.96   16.57   1
  -2   3   2 2701.92   65.49   1
  -2   3   3   29.38    1.19   1
  -2   3   4   23.14    0.96   1
  -2   3   5   58.68    2.45   1
  -2   3   6   13.62    2.29   1
  -2   3   7  404.41   12.47   1
  -2   3   8 1309.72   38.36   1
  -2   3   9    2.99    2.60   1
  -2   3  10  127.01    5.86   1
  -2   3  11   36.12    4.69   1
  -2   3  12   76.04    5.58   1
  -2   3  13  266.67   15.35   1
  -2   4 -12  436.39   27.16   1
  -2   4 -11  376.75   24.46   1
  -2   4 -10   40.70    6.12   1
  -2   4  -9    8.88    3.99   1
  -2   4  -8   71.91    4.24   1
  -2   4  -7   31.25    2.91   1
  -2   4  -6   61.62    3.30   1
  -2   4  -5  314.71   12.77   1
  -2   4  -4   98.21    5.95   1
  -2   4  -3 1288.09   42.35   1
  -2   4  -2 1619.26   49.09   1
  -2   4  -1    0.00    1.00   1
  -2   4   0 1451.61   40.39   1
  -2   4   1 3885.03   95.99   1
  -2   4   2  458.82   12.85   1
  -2   4   3    8.01    1.58   1
  -2   4   4 1355.71   39.03   1
  -2   4   5  845.06   27.91   1
  -2   4   6   83.36    3.65   1
  -2   4   7   19.98    4.11   1
  -2   4   8   19.01    3.14   1
  -2   4   9  251.54    9.20   1
  -2   4  10  104.04    5.30   1
  -2   4  11   99.60    6.99   1
  -2   4  12    2.59    4.19   1
  -2   5 -11  198.25   15.77   1
  -2   5 -10  254.08   17.53   1
  -2   5  -9    2.89    6.39   1
  -2   5  -8    8.88    5.78   1
  -2   5  -7  150.31    8.34   1
  -2   5  -6   76.04    4.53   1
  -2   5  -4  680.69   23.48   1
  -2   5  -3  445.63   18.15   1
  -2   5  -2   -0.10    1.52   1
  -2   5  -1  138.30    4.70   1
  -2   5   0  109.83    4.82   1
  -2   5   1  201.92    7.67   1
  -2   5   2   88.36    3.76   1
  -2   5   3   23.62    2.14   1
  -2   5   4  291.73   11.96   1
  -2   5   5   71.06    3.88   1
  -2   5   6 1204.78   36.79   1
  -2   5   7   27.88    3.48   1
  -2   5   8    0.59    2.48   1
  -2   5   9    8.18    3.37   1
  -2   5  10    5.02    4.61   1
  -2   5  11  126.11    8.31   1
  -2   6 -10   24.40    8.40   1
  -2   6  -9  146.41   11.86   1
  -2   6  -8  281.57   16.11   1
  -2   6  -7  229.83   11.52   1
  -2   6  -6   87.05    4.66   1
  -2   6  -5   32.38    5.35   1
  -2   6  -4   59.44    4.32   1
  -2   6  -3  473.50   20.45   1
  -2   6  -2  657.41   23.59   1
  -2   6  -1  518.93   17.31   1
  -2   6   0  262.76   10.05   1
  -2   6   1  152.52    9.39   1
  -2   6   2    8.01    2.21   1
  -2   6   3  181.17    8.35   1
  -2   6   4  362.14   14.46   1
  -2   6   5   13.10    3.11   1
  -2   6   6  156.00    7.49   1
  -2   6   7   65.77    5.51   1
  -2   6   8  177.69    8.80   1
  -2   6   9   11.90    4.21   1
  -2   7  -7  368.64   31.49   1
  -2   7  -5  180.36   10.74   1
  -2   7  -4   36.36    4.82   1
  -2   7  -3   -4.80    4.69   1
  -2   7  -2  109.83    7.96   1
  -2   7  -1  456.25   19.65   1
  -2   7   0  231.04   11.55   1
  -2   7   1    1.90    3.39   1
  -2   7   2    4.00    3.00   1
  -2   7   3    5.11    3.48   1
  -2   7   4   91.78    5.75   1
  -2   7   5  309.41   14.42   1
  -2   7   6   -4.08    5.09   1
  -2   7   7   27.67    5.05   1
  -2   8  -6   12.39    8.31   1
  -2   8  -5  278.56   17.69   1
  -2   8  -4   86.86    8.57   1
  -2   8  -3  319.69   18.95   1
  -2   8  -2   31.58    5.06   1
  -2   8  -1    2.79    4.11   1
  -2   8   0   61.00    7.97   1
  -2   8   1  171.87   12.59   1
  -2   8   2   51.12    8.15   1
  -2   8   4    9.49    5.67   1
  -1  -7  -2   48.44    5.85   1
  -1  -7  -1   64.96    5.96   1
  -1  -7   0   25.60    4.35   1
  -1  -7   1  175.83    9.02   1
  -1  -7   2  303.11   11.84   1
  -1  -7   3   10.50    4.28   1
  -1  -7   4    5.52    3.71   1
  -1  -7   5  367.11   15.33   1
  -1  -7   6  439.32   20.12   1
  -1  -7   7   26.01    6.12   1
  -1  -7   8    2.69    4.10   1
  -1  -6  -6  -10.89    8.58   1
  -1  -6  -5   -5.38    5.29   1
  -1  -6  -4    2.10    4.29   1
  -1  -6  -3  706.50   21.80   1
  -1  -6  -2  555.07   17.91   1
  -1  -6  -1    3.39    2.50   1
  -1  -6   0    2.40    3.32   1
  -1  -6   1   50.27    3.83   1
  -1  -6   2  377.52   11.27   1
  -1  -6   3 1142.44   34.48   1
  -1  -6   4   98.60    4.57   1
  -1  -6   5   36.00    3.72   1
  -1  -6   6   -0.90    3.10   1
  -1  -6   7   29.92    6.45   1
  -1  -6   8  627.00   23.04   1
  -1  -6   9  127.69    8.59   1
  -1  -6  10    8.29    4.78   1
  -1  -6  11    8.82    5.41   1
  -1  -5  -8   51.84    8.06   1
  -1  -5  -7  339.30   22.47   1
  -1  -5  -6   10.11    5.02   1
  -1  -5  -5 1171.69   47.24   1
  -1  -5  -4  250.27    8.54   1
  -1  -5  -3    3.39    2.21   1
  -1  -5  -2  279.56    8.36   1
  -1  -5  -1  935.75   24.47   1
  -1  -5   0  885.66   26.19   1
  -1  -5   1   60.37    3.57   1
  -1  -5   2  487.53   13.25   1
  -1  -5   3  119.46    4.59   1
  -1  -5   4  924.77   28.59   1
  -1  -5   5 1334.44   37.26   1
  -1  -5   6  484.44   29.05   1
  -1  -5   7    8.18    3.20   1
  -1  -5   8   46.79    4.10   1
  -1  -5   9   88.92    5.47   1
  -1  -5  10  119.25    6.99   1
  -1  -5  11  106.92    7.24   1
  -1  -5  12   38.69    6.84   1
  -1  -4 -10  128.60   13.61   1
  -1  -4  -9  224.70   19.49   1
  -1  -4  -8   15.29    7.82   1
  -1  -4  -7    1.80    4.29   1
  -1  -4  -6   -2.79    3.71   1
  -1  -4  -5  757.90   31.38   1
  -1  -4  -4 1416.77   33.88   1
  -1  -4  -3  320.05    9.66   1
  -1  -4  -2  799.76   19.80   1
  -1  -4  -1  136.89    7.02   1
  -1  -4   0  135.96    6.30   1
  -1  -4   1 2544.19   98.86   1
  -1  -4   2 1476.10   39.19   1
  -1  -4   3  322.20    8.98   1
  -1  -4   4   21.07    1.29   1
  -1  -4   5   55.50    3.58   1
  -1  -4   6  337.09    9.91   1
  -1  -4   7  285.27    9.46   1
  -1  -4   8   26.32    2.87   1
  -1  -4   9   86.30    7.80   1
  -1  -4  10   29.59    3.59   1
  -1  -4  11  273.90   11.58   1
  -1  -4  12  529.46   27.61   1
  -1  -4  13    8.41    8.12   1
  -1  -3 -11   -5.90   11.32   1
  -1  -3 -10  332.70   21.52   1
  -1  -3  -9   20.16    8.80   1
  -1  -3  -8  348.57   16.43   1
  -1  -3  -7 1422.80   61.86   1
  -1  -3  -6  401.20   18.43   1
  -1  -3  -5   60.06    4.49   1
  -1  -3  -3  309.06    8.44   1
  -1  -3  -2  152.52    4.45   1
  -1  -3  -1  778.41   21.20   1
  -1  -3   0   24.21    1.67   1
  -1  -3   1  277.89    8.00   1
  -1  -3   2 1804.55   46.73   1
  -1  -3   3 1454.66   30.51   1
  -1  -3   4  824.84   18.38   1
  -1  -3   5 1127.62   38.28   1
  -1  -3   6    8.29    2.02   1
  -1  -3   7    0.10    0.61   1
  -1  -3   8 1064.06   28.05   1
  -1  -3   9  993.51   29.00   1
  -1  -3  10   -1.99    2.40   1
  -1  -3  11   17.81    3.12   1
  -1  -3  12   23.62    3.60   1
  -1  -3  13  106.71   10.33   1
  -1  -3  14  298.25   21.76   1
  -1  -2 -12  231.34   20.69   1
  -1  -2 -11  817.96   42.90   1
  -1  -2 -10  214.92   13.49   1
  -1  -2  -9    2.31    4.62   1
  -1  -2  -8  616.53   26.32   1
  -1  -2  -7   21.44    5.19   1
  -1  -2  -6  554.13   24.48   1
  -1  -2  -4  800.89   32.26   1
  -1  -2  -3  227.41    8.75   1
  -1  -2  -2  137.59    4.22   1
  -1  -2  -1  160.28    4.56   1
  -1  -2   0  130.42    4.11   1
  -1  -2   1  504.45   14.82   1
  -1  -2   2   58.83    1.84   1
  -1  -2   3   61.31    1.57   1
  -1  -2   4 7104.80  177.01   1
  -1  -2   5 1692.50   39.49   1
  -1  -2   6  674.44   15.58   1
  -1  -2   7  686.44   22.01   1
  -1  -2   8  282.24    7.39   1
  -1  -2   9   14.21    1.51   1
  -1  -2  10 1553.15   38.62   1
  -1  -2  11  318.62   12.14   1
  -1  -2  12   72.25    7.65   1
  -1  -2  13   16.48    5.03   1
  -1  -2  14    5.62    5.69   1
  -1  -1 -13  122.10   13.48   1
  -1  -1 -12   -5.38    9.98   1
  -1  -1 -11  113.21    9.58   1
  -1  -1 -10  186.87   11.21   1
  -1  -1  -9  117.51    9.11   1
  -1  -1  -8  311.88   15.54   1
  -1  -1  -7   18.40    4.20   1
  -1  -1  -5  851.47   43.19   1
  -1  -1  -4 4444.89  164.01   1
  -1  -1  -3  878.53   34.98   1
  -1  -1  -2 1166.22   29.37   1
  -1  -1  -1 1802.85   31.42   1
  -1  -1   0  497.74    8.92   1
  -1  -1   1 3710.03   71.87   1
  -1  -1   2 3417.57   54.95   1
  -1  -1   3 2152.03   36.18   1
  -1  -1   4   32.04    1.02   1
  -1  -1   5  729.54   27.01   1
  -1  -1   6  859.66   26.39   1
  -1  -1   7  234.09    9.49   1
  -1  -1   8  505.35   17.08   1
  -1  -1   9 1807.10   52.71   1
  -1  -1  10  265.04   10.42   1
  -1  -1  11   11.42    4.53   1
  -1  -1  12 1170.32   33.53   1
  -1  -1  13  361.38   13.31   1
  -1  -1  14    6.60    5.40   1
  -1   0 -13   32.15   11.34   1
  -1   0 -12  394.02   24.22   1
  -1   0 -11   -2.19    5.48   1
  -1   0 -10   18.23    5.21   1
  -1   0  -9   29.05    5.50   1
  -1   0  -8 1066.68   46.38   1
  -1   0  -7 1258.83   58.90   1
  -1   0  -5  190.72    8.01   1
  -1   0  -4 1687.57   44.37   1
  -1   0  -3 3728.32   75.71   1
  -1   0  -2 3488.08   76.78   1
  -1   0  -1 2163.18   47.44   1
  -1   0   0  466.13   10.80   1
  -1   0   1 2420.64   44.28   1
  -1   0   2  692.22   12.63   1
  -1   0   3 4402.32   87.58   1
  -1   0   4  921.12   18.21   1
  -1   0   5  314.00    7.80   1
  -1   0   6   85.01    3.32   1
  -1   0   7   20.52    1.90   1
  -1   0   8  603.68   19.16   1
  -1   0   9  540.56   20.00   1
  -1   0  10   22.09    4.42   1
  -1   0  11   -2.19    3.29   1
  -1   0  12   23.43    4.26   1
  -1   0  13   87.05   10.45   1
  -1   0  14  669.26   30.01   1
  -1   1 -13   10.89    7.59   1
  -1   1 -12   17.47    6.10   1
  -1   1 -11  394.42   21.05   1
  -1   1 -10  303.46   16.37   1
  -1   1  -9   11.97    4.01   1
  -1   1  -8  111.72    8.24   1
  -1   1  -7   90.25    6.08   1
  -1   1  -6  889.83   54.89   1
  -1   1  -5 5867.56  240.52   1
  -1   1  -4   37.95    1.85   1
  -1   1  -3   31.25    1.12   1
  -1   1  -2  588.55   14.56   1
  -1   1  -1  982.82   25.71   1
  -1   1   0 2882.62   60.13   1
  -1   1   1 3986.66   74.51   1
  -1   1   2  491.51    9.75   1
  -1   1   3    5.90    0.68   1
  -1   1   4  237.47    8.32   1
  -1   1   5  590.98   14.59   1
  -1   1   6  651.78   19.40   1
  -1   1   7  147.62    7.29   1
  -1   1   8   96.24    3.92   1
  -1   1   9  838.68   31.28   1
  -1   1  10  143.28    7.42   1
  -1   1  11  306.25   14.00   1
  -1   1  12    1.80    4.98   1
  -1   1  13  161.54   12.20   1
  -1   1  14   54.02    6.47   1
  -1   2 -13  402.00   27.67   1
  -1   2 -12   33.64    8.82   1
  -1   2 -11  300.33   15.25   1
  -1   2 -10    1.30    2.39   1
  -1   2  -9  200.79   13.32   1
  -1   2  -8 1034.27   56.60   1
  -1   2  -7  258.89   14.48   1
  -1   2  -6  165.38   11.32   1
  -1   2  -5  322.56    8.26   1
  -1   2  -4 2352.25   53.35   1
  -1   2  -3  289.00    8.16   1
  -1   2  -2 1780.84   39.67   1
  -1   2  -1  304.15    7.32   1
  -1   2   0 7478.79  145.29   1
  -1   2   2  568.82   10.97   1
  -1   2   3 2871.89   72.88   1
  -1   2   4   63.52    2.07   1
  -1   2   5    5.62    0.52   1
  -1   2   7  472.19   17.82   1
  -1   2   8   89.11    5.85   1
  -1   2   9   88.92    5.85   1
  -1   2  11   80.28    5.91   1
  -1   2  13  394.42   23.83   1
  -1   3 -13   95.26   12.49   1
  -1   3 -12  832.32   47.31   1
  -1   3 -11  122.10   13.04   1
  -1   3 -10   83.17    5.65   1
  -1   3  -9    3.80    2.18   1
  -1   3  -8    9.99    2.53   1
  -1   3  -7 1410.75   36.81   1
  -1   3  -6 1251.74   41.04   1
  -1   3  -5   54.76    4.14   1
  -1   3  -4   85.56    3.33   1
  -1   3  -3   30.69    1.33   1
  -1   3  -2   30.47    0.99   1
  -1   3  -1  351.19    7.12   1
  -1   3   0  211.12    4.36   1
  -1   3   1   76.21    1.75   1
  -1   3   2 1972.25   32.86   1
  -1   3   3 4834.42  109.86   1
  -1   3   4  582.74   13.52   1
  -1   3   5  176.89    7.71   1
  -1   3   6 1920.19   59.60   1
  -1   3   7   77.97    4.94   1
  -1   3   8  203.63    9.70   1
  -1   3   9  895.80   35.92   1
  -1   3  10  647.19   29.00   1
  -1   3  11   39.44    6.53   1
  -1   3  12   13.03    5.20   1
  -1   4 -13   70.06   10.38   1
  -1   4 -12   26.32    9.03   1
  -1   4 -11  201.92   17.90   1
  -1   4 -10  317.91   17.12   1
  -1   4  -9  111.09    7.80   1
  -1   4  -8    5.20    5.02   1
  -1   4  -7   94.48    4.08   1
  -1   4  -6  499.97   16.99   1
  -1   4  -5  917.48   27.26   1
  -1   4  -4  251.54    8.25   1
  -1   4  -3   35.05    2.25   1
  -1   4  -2   25.70    1.72   1
  -1   4  -1   47.75    1.93   1
  -1   4   0 3132.64   70.52   1
  -1   4   1    3.80    1.09   1
  -1   4   2   40.83    1.79   1
  -1   4   3   11.22    1.67   1
  -1   4   4   11.83    2.61   1
  -1   4   5 2104.97   84.42   1
  -1   4   6  556.96   21.71   1
  -1   4   7  178.22    9.35   1
  -1   4   9   13.10    4.42   1
  -1   4  10  135.02   11.16   1
  -1   4  11  134.56   11.37   1
  -1   5 -12    6.20    7.52   1
  -1   5 -11   92.74    9.24   1
  -1   5 -10  290.70   19.44   1
  -1   5  -9    1.21    4.42   1
  -1   5  -8 1874.02   85.71   1
  -1   5  -7   49.56    6.20   1
  -1   5  -6    2.31    2.71   1
  -1   5  -5   23.62    2.04   1
  -1   5  -4  463.54   15.50   1
  -1   5  -3 1270.92   39.93   1
  -1   5  -2  139.71    4.49   1
  -1   5  -1  204.78    6.30   1
  -1   5   0  287.64    7.80   1
  -1   5   1  239.01    7.42   1
  -1   5   2  802.59   18.70   1
  -1   5   3  884.47   20.82   1
  -1   5   4  218.74    7.10   1
  -1   5   5   20.61    3.54   1
  -1   5   6  110.46    5.89   1
  -1   5   7   97.61    5.14   1
  -1   5   8  131.56    7.11   1
  -1   5   9   14.29    3.63   1
  -1   5  10    0.10    5.36   1
  -1   6 -11   -4.41    9.49   1
  -1   6 -10   17.31    8.49   1
  -1   6  -9   56.85    6.94   1
  -1   6  -8  230.74   12.46   1
  -1   6  -7  837.52   39.94   1
  -1   6  -6  923.55   40.11   1
  -1   6  -5   36.84    4.86   1
  -1   6  -4   45.43    4.72   1
  -1   6  -3  565.96   15.23   1
  -1   6  -2  347.45   11.56   1
  -1   6  -1  679.12   18.24   1
  -1   6   0  620.01   16.43   1
  -1   6   1   76.39    3.15   1
  -1   6   2   76.74    3.33   1
  -1   6   3   89.68    3.98   1
  -1   6   4  181.44    7.27   1
  -1   6   5   19.80    4.36   1
  -1   6   6   53.88    4.70   1
  -1   6   7   12.82    5.23   1
  -1   6   8   89.49    6.62   1
  -1   6   9  499.08   22.79   1
  -1   7  -9  280.90   20.11   1
  -1   7  -8   13.18    7.77   1
  -1   7  -7   -1.39    6.99   1
  -1   7  -6  162.05   12.22   1
  -1   7  -5   92.74    9.05   1
  -1   7  -4  618.02   31.32   1
  -1   7  -3   13.03    4.62   1
  -1   7  -1    6.10    2.62   1
  -1   7   0  334.16   14.99   1
  -1   7   1  459.24   14.57   1
  -1   7   2    6.40    2.78   1
  -1   7   3   -3.50    4.30   1
  -1   7   4    5.71    3.82   1
  -1   7   5  215.21   11.15   1
  -1   7   6  231.34   11.56   1
  -1   8  -6   59.44    9.71   1
  -1   8  -5   51.55    9.62   1
  -1   8  -4   45.83    6.50   1
  -1   8  -3  222.90   16.72   1
  -1   8  -2    4.00    5.08   1
  -1   8  -1    9.42    5.59   1
  -1   8   0  104.24   11.23   1
  -1   8   1  228.61   16.63   1
  -1   8   2  351.94   23.64   1
  -1   8   3  573.12   33.04   1
   0  -8  -1   13.91    7.24   1
   0  -8   0    3.88    6.89   1
   0  -8   1  396.81   27.49   1
   0  -8   2  261.15   18.42   1
   0  -8   3   -0.79    7.07   1
   0  -8   4   -3.88    8.00   1
   0  -8   5   99.20   12.55   1
   0  -7  -2  163.07   12.51   1
   0  -7  -1  142.56    9.79   1
   0  -7   0   50.55    4.83   1
   0  -7   1   14.90    3.71   1
   0  -7   2  322.56   11.14   1
   0  -7   3  791.86   26.45   1
   0  -7   4   50.41    5.25   1
   0  -7   5   32.49    4.45   1
   0  -7   6   11.97    5.12   1
   0  -7   7   55.35    5.95   1
   0  -7   8  554.13   43.78   1
   0  -7   9   94.48    8.75   1
   0  -6  -4   49.14    4.07   1
   0  -6  -3  134.33    6.03   1
   0  -6  -2  333.43   10.23   1
   0  -6  -1  616.53   17.88   1
   0  -6   0 1743.06   47.60   1
   0  -6   1    2.89    2.79   1
   0  -6   2  123.21    5.33   1
   0  -6   3   48.02    3.46   1
   0  -6   4  402.80   11.64   1
   0  -6   5  461.39   14.61   1
   0  -6   6   84.82    4.79   1
   0  -6   7   23.04    4.13   1
   0  -6   8    9.92    3.59   1
   0  -6   9  318.27   13.92   1
   0  -6  10  494.17   24.90   1
   0  -6  11  116.42    9.50   1
   0  -5  -7    7.90    6.91   1
   0  -5  -6    1.21    3.92   1
   0  -5  -5  230.43    7.89   1
   0  -5  -4  937.58   28.78   1
   0  -5  -3   26.11    2.66   1
   0  -5  -2    9.18    3.21   1
   0  -5  -1  230.13    9.41   1
   0  -5   0  497.74   10.71   1
   0  -5   1 2140.91   43.49   1
   0  -5   2  831.17   22.49   1
   0  -5   3    8.12    1.99   1
   0  -5   4 1273.78   37.12   1
   0  -5   5   29.38    2.82   1
   0  -5   6  228.31    7.86   1
   0  -5   7 1350.56   36.01   1
   0  -5   8  347.82   11.56   1
   0  -5   9   50.27    3.83   1
   0  -5  10   18.23    3.67   1
   0  -5  11   78.68    7.27   1
   0  -5  12  102.82    8.72   1
   0  -4 -10   37.45    9.67   1
   0  -4  -9    5.38    7.28   1
   0  -4  -8  941.26   44.79   1
   0  -4  -7 1075.18   41.32   1
   0  -4  -6  342.25   18.13   1
   0  -4  -5  208.80    9.83   1
   0  -4  -4  138.06    4.70   1
   0  -4  -3  159.77    4.80   1
   0  -4  -2  821.97   20.07   1
   0  -4  -1  455.82   12.38   1
   0  -4   0   54.32    1.92   1
   0  -4   1    4.00    0.88   1
   0  -4   2  486.20   11.02   1
   0  -4   3 4078.10   86.85   1
   0  -4   4  175.30    4.50   1
   0  -4   5   17.39    3.09   1
   0  -4   6  787.92   21.33   1
   0  -4   7    9.67    2.30   1
   0  -4   8  521.67   16.90   1
   0  -4   9 1039.42   33.53   1
   0  -4  10    5.20    3.51   1
   0  -4  11    6.50    3.11   1
   0  -4  12    1.59    3.78   1
   0  -4  13  119.03    9.16   1
   0  -3 -12   37.95   10.23   1
   0  -3 -11  895.21   45.48   1
   0  -3 -10  209.67   11.87   1
   0  -3  -9   18.23    5.29   1
   0  -3  -8  312.94   16.98   1
   0  -3  -7   58.83    6.14   1
   0  -3  -5 1990.05   72.27   1
   0  -3  -4    1.21    1.30   1
   0  -3  -3  663.58   16.49   1
   0  -3  -2  108.58    3.54   1
   0  -3  -1  504.00   14.37   1
   0  -3   0 4430.23   93.18   1
   0  -3   1 1606.41   29.66   1
   0  -3   2  149.82    3.18   1
   0  -3   3   28.62    0.96   1
   0  -3   4  634.54   12.60   1
   0  -3   5  286.96    9.15   1
   0  -3   6    5.52    1.93   1
   0  -3   7   -1.49    2.00   1
   0  -3   8  748.57   21.34   1
   0  -3   9 2576.58   72.08   1
   0  -3  10  351.19   14.24   1
   0  -3  11 1120.24   38.83   1
   0  -3  12   28.62    3.96   1
   0  -3  13  216.97   14.73   1
   0  -3  14    7.02    6.20   1
   0  -2 -13  110.25   15.96   1
   0  -2 -12  136.42   11.91   1
   0  -2 -11   -3.39    7.88   1
   0  -2 -10  134.56    9.05   1
   0  -2  -9 1241.86   55.68   1
   0  -2  -8  565.96   22.84   1
   0  -2  -6  309.76   14.08   1
   0  -2  -5  242.11   13.69   1
   0  -2  -4 3895.01  176.00   1
   0  -2  -3 1338.83   40.98   1
   0  -2  -2 1296.00   33.84   1
   0  -2  -1  326.52    6.14   1
   0  -2   0  344.10    6.68   1
   0  -2   1 3567.67   62.12   1
   0  -2   2  317.55    6.42   1
   0  -2   3  406.83    8.07   1
   0  -2   4  149.33    3.91   1
   0  -2   5   67.24    2.62   1
   0  -2   6 2006.14   50.16   1
   0  -2   7 3162.94  123.73   1
   0  -2   8   94.48    4.28   1
   0  -2   9  328.70   10.52   1
   0  -2  10  104.86    4.92   1
   0  -2  11  111.30    5.70   1
   0  -2  12  545.69   24.29   1
   0  -2  13  609.10   32.58   1
   0  -2  14   66.59    8.32   1
   0  -1 -13  117.29   14.95   1
   0  -1 -12  408.04   24.64   1
   0  -1 -11   42.77    6.28   1
   0  -1 -10   41.73    7.24   1
   0  -1  -9   11.09    3.53   1
   0  -1  -8  654.85   27.64   1
   0  -1  -7 1202.70   44.39   1
   0  -1  -6 1410.00   54.07   1
   0  -1  -5 1627.32   77.45   1
   0  -1  -4   11.02    2.19   1
   0  -1  -3   42.64    1.70   1
   0  -1  -2 4391.71   91.45   1
   0  -1  -1 2115.08   43.23   1
   0  -1   0    2.79    0.30   1
   0  -1   1 2006.14   38.52   1
   0  -1   2 2244.86   51.17   1
   0  -1   3 4497.04   97.91   1
   0  -1   4 2184.63   50.48   1
   0  -1   5   73.44    4.11   1
   0  -1   6  762.31   23.74   1
   0  -1   7   85.93    3.89   1
   0  -1   8 1680.18   45.91   1
   0  -1   9  428.90   16.15   1
   0  -1  10  324.36   11.89   1
   0  -1  11   53.73    4.84   1
   0  -1  12   81.54    7.59   1
   0  -1  13  385.34   24.73   1
   0  -1  14  219.04   15.98   1
   0   0 -14   45.16   12.36   1
   0   0 -13  241.49   18.03   1
   0   0 -12   16.89    8.63   1
   0   0 -11  317.20   18.88   1
   0   0 -10  404.01   20.50   1
   0   0  -9  509.40   22.12   1
   0   0  -8   19.62    4.52   1
   0   0  -7  408.04   18.18   1
   0   0  -6 1226.40   55.33   1
   0   0  -5  702.78   30.22   1
   0   0  -4 2077.54   48.31   1
   0   0  -3 6280.56  136.31   1
   0   0  -2  709.16   16.51   1
   0   0  -1  186.60    4.37   1
   0   0   1  184.42    4.35   1
   0   0   2  693.80   14.75   1
   0   0   3 6126.19  129.93   1
   0   0   4 2047.56   43.44   1
   0   0   5  668.74   19.14   1
   0   0   6 1210.34   32.70   1
   0   0   7  407.23   14.13   1
   0   0   8   32.60    2.06   1
   0   0   9  504.00   16.61   1
   0   0  10  414.94   19.56   1
   0   0  11  325.44   17.32   1
   0   0  12   18.06    5.70   1
   0   0  13  253.45   16.88   1
   0   0  14   47.75    9.26   1
   0   1 -14  175.30   15.09   1
   0   1 -13  360.24   24.67   1
   0   1 -12   61.94   10.07   1
   0   1 -11   53.73    6.74   1
   0   1 -10  345.22   21.18   1
   0   1  -9  425.60   24.34   1
   0   1  -8 1715.62   98.58   1
   0   1  -7   94.09    6.21   1
   0   1  -6  755.15   42.87   1
   0   1  -5   67.57    2.79   1
   0   1  -4 2240.13   64.37   1
   0   1  -3 4567.06  120.29   1
   0   1  -2 2242.02   42.61   1
   0   1  -1 2020.50   38.66   1
   0   1   0    2.40    0.40   1
   0   1   1 2104.97   44.04   1
   0   1   2 4434.23   95.89   1
   0   1   3   43.96    1.46   1
   0   1   4   13.47    1.03   1
   0   1   5 1632.97   42.03   1
   0   1   6 1326.42   29.86   1
   0   1   7 1141.76   26.36   1
   0   1   8  633.03   20.63   1
   0   1   9   16.32    1.70   1
   0   1  11   61.62    5.97   1
   0   1  12  373.26   21.64   1
   0   1  13  117.51   11.71   1
   0   2 -14   77.26   11.95   1
   0   2 -13  565.49   30.44   1
   0   2 -12  525.78   26.14   1
   0   2 -11  101.61    5.64   1
   0   2 -10   89.87    5.31   1
   0   2  -9  327.25   12.30   1
   0   2  -8   92.54    4.43   1
   0   2  -7 3306.25  129.95   1
   0   2  -6 2055.72   63.48   1
   0   2  -5   69.56    2.67   1
   0   2  -4  150.06    4.41   1
   0   2  -3  381.42    8.98   1
   0   2  -2  316.84    7.48   1
   0   2  -1 3579.63   65.81   1
   0   2   0  362.90    8.38   1
   0   2   1  327.97    7.24   1
   0   2   2 1343.96   22.00   1
   0   2   3 1383.84   24.55   1
   0   2   4 3917.51   91.38   1
   0   2   5  246.18    6.59   1
   0   2   6  312.94    9.20   1
   0   2   7  107.74    3.94   1
   0   2   8  563.59   18.04   1
   0   2   9 1255.99   56.70   1
   0   2  10  133.40    9.01   1
   0   2  11   13.03    5.70   1
   0   2  12  132.25   10.81   1
   0   3 -13  209.38   15.92   1
   0   3 -12   40.45    9.29   1
   0   3 -11 1094.95   55.59   1
   0   3 -10  360.62   14.05   1
   0   3  -9 2567.45  100.33   1
   0   3  -8  752.95   20.85   1
   0   3  -7    0.30    1.41   1
   0   3  -6    2.99    1.70   1
   0   3  -5  288.66   10.53   1
   0   3  -4  629.51   24.59   1
   0   3  -3   30.03    1.86   1
   0   3  -2  144.96    4.33   1
   0   3  -1 1583.24   42.97   1
   0   3   0 4523.91  103.58   1
   0   3   1  508.95   11.28   1
   0   3   2  107.95    3.74   1
   0   3   3  638.07   15.66   1
   0   3   4    3.20    2.51   1
   0   3   5 1964.26   48.75   1
   0   3   6  710.76   27.19   1
   0   3   7   57.30    4.69   1
   0   3   8  284.93   15.53   1
   0   3   9   25.70    4.36   1
   0   3  10  197.96   12.66   1
   0   3  11  843.90   42.99   1
   0   3  12   51.70    8.05   1
   0   4 -13  101.00   13.67   1
   0   4 -12   -1.00    6.20   1
   0   4 -11    5.11    5.20   1
   0   4 -10    2.69    6.89   1
   0   4  -9 1070.60   46.46   1
   0   4  -8  495.51   15.58   1
   0   4  -7    8.58    1.41   1
   0   4  -6  804.86   27.24   1
   0   4  -5   10.89    1.98   1
   0   4  -4  169.78    6.78   1
   0   4  -3 4338.86  239.77   1
   0   4  -2  497.74   17.85   1
   0   4  -1    1.49    1.29   1
   0   4   0   58.22    5.04   1
   0   4   1  470.02   16.91   1
   0   4   2  807.13   22.73   1
   0   4   3  154.75    4.98   1
   0   4   4  137.36    4.69   1
   0   4   5  200.51    6.80   1
   0   4   6  328.33   12.32   1
   0   4   7 1087.02   39.56   1
   0   4   8  957.28   38.37   1
   0   4   9   -0.20    4.23   1
   0   4  10   35.88    7.55   1
   0   4  11   46.65    7.24   1
   0   5 -12   76.91   12.80   1
   0   5 -11   68.56   10.76   1
   0   5 -10   16.73    8.10   1
   0   5  -9   54.76    6.36   1
   0   5  -8  340.40   18.82   1
   0   5  -7 1375.67   69.73   1
   0   5  -6  200.22    9.34   1
   0   5  -5   33.41    2.89   1
   0   5  -4 1301.04   45.45   1
   0   5  -3    6.81    1.20   1
   0   5  -2  757.90   20.92   1
   0   5  -1 2251.50   57.89   1
   0   5   0  533.61   22.64   1
   0   5   1  235.62    8.60   1
   0   5   2    2.19    2.78   1
   0   5   3   26.21    2.87   1
   0   5   4  956.05   29.06   1
   0   5   5  230.43    8.50   1
   0   5   6    3.88    2.60   1
   0   5   7    5.11    6.19   1
   0   5   8  198.53   14.65   1
   0   5   9   98.21    9.51   1
   0   6 -11   78.15   10.08   1
   0   6 -10  410.06   27.54   1
   0   6  -9  284.93   18.57   1
   0   6  -8   15.13    4.98   1
   0   6  -7   22.47    7.11   1
   0   6  -6   99.60    7.19   1
   0   6  -5  483.56   21.11   1
   0   6  -4  402.00   14.44   1
   0   6  -3   46.51    3.96   1
   0   6  -2  123.43    5.78   1
   0   6  -1    0.90    3.10   1
   0   6   0 1788.44   54.13   1
   0   6   1  659.98   15.93   1
   0   6   2  329.79    9.44   1
   0   6   3  141.37    6.42   1
   0   6   4   43.03    4.20   1
   0   6   5   66.75    5.39   1
   0   6   6  258.57   16.08   1
   0   6   7    7.18    5.68   1
   0   6   8    7.62    6.40   1
   0   7  -9   86.12   12.62   1
   0   7  -7   47.20    7.01   1
   0   7  -6    6.20    7.52   1
   0   7  -5   45.16    6.32   1
   0   7  -4   71.57    8.12   1
   0   7  -3  758.45   33.60   1
   0   7  -2  317.20   12.11   1
   0   7  -1   22.18    3.77   1
   0   7   0   40.96    5.12   1
   0   7   1  115.99    6.68   1
   0   7   2  162.05    9.17   1
   0   7   3   99.80    6.79   1
   0   7   4   17.47    4.68   1
   0   7   5  375.97   14.35   1
   0   8  -5  121.00   12.76   1
   0   8  -4    1.49    5.98   1
   0   8  -3    3.88    5.87   1
   0   8  -2  241.49   17.72   1
   0   8   0    2.89    4.08   1
   0   8   1   -0.50    5.72   1
   1  -8  -1  222.90   15.83   1
   1  -8   0  101.81   10.70   1
   1  -8   1   14.52    6.40   1
   1  -8   2    6.20    7.12   1
   1  -8   3  204.49   17.45   1
   1  -8   4   32.15    8.73   1
   1  -8   5   45.83    9.75   1
   1  -8   6   44.76    8.03   1
   1  -7  -2   -3.10    4.68   1
   1  -7  -1  412.90   23.57   1
   1  -7   0  322.56   16.88   1
   1  -7   1    4.08    4.81   1
   1  -7   2   -2.10    3.51   1
   1  -7   3    6.60    5.09   1
   1  -7   4  641.61   31.41   1
   1  -7   5   96.04    8.04   1
   1  -7   6  151.78   10.60   1
   1  -7   7    8.88    6.68   1
   1  -7   8    4.08    7.07   1
   1  -7   9  345.22   30.84   1
   1  -6  -4  165.89    9.53   1
   1  -6  -3   84.27    5.88   1
   1  -6  -2   67.90    3.96   1
   1  -6  -1   80.64    3.23   1
   1  -6   0  589.03   14.08   1
   1  -6   1  669.26   15.52   1
   1  -6   2  329.79    8.35   1
   1  -6   3  550.37   27.68   1
   1  -6   4   42.77    3.79   1
   1  -6   5   20.07    3.32   1
   1  -6   6  895.21   30.52   1
   1  -6   7  896.40   31.14   1
   1  -6   8  234.09   11.32   1
   1  -6   9   47.47    4.96   1
   1  -6  10   12.32    4.07   1
   1  -6  11    5.11    5.02   1
   1  -5  -5   21.62    2.42   1
   1  -5  -4  221.12    6.84   1
   1  -5  -3  885.06   23.80   1
   1  -5  -2  812.25   21.09   1
   1  -5  -1  222.01    6.26   1
   1  -5   0  264.39    6.18   1
   1  -5   1  192.38    4.99   1
   1  -5   2  126.34    4.95   1
   1  -5   3 1244.68   31.75   1
   1  -5   4  516.65   14.55   1
   1  -5   5   35.40    4.16   1
   1  -5   6    1.00    2.30   1
   1  -5   7   52.71    4.07   1
   1  -5   8 1862.79   61.29   1
   1  -5   9    2.89    2.69   1
   1  -5  10  316.84   16.02   1
   1  -5  11  100.40    7.82   1
   1  -5  12    1.90    5.00   1
   1  -4  -8   65.12    6.94   1
   1  -4  -6  608.12   28.11   1
   1  -4  -5 2100.39   91.66   1
   1  -4  -4    4.88    1.41   1
   1  -4  -3   10.50    1.62   1
   1  -4  -2   40.58    1.78   1
   1  -4  -1    0.10    1.22   1
   1  -4   0 3058.09   63.04   1
   1  -4   1   45.56    1.75   1
   1  -4   2   25.50    1.31   1
   1  -4   3   33.41    1.16   1
   1  -4   4  255.68    6.08   1
   1  -4   5  969.70   22.42   1
   1  -4   6  526.70   26.16   1
   1  -4   7   84.27    4.04   1
   1  -4   8   11.70    3.21   1
   1  -4   9  108.37    4.79   1
   1  -4  10  326.16   11.92   1
   1  -4  11  212.58   11.66   1
   1  -4  12   27.98    5.40   1
   1  -4  13   77.09    7.02   1
   1  -3 -10  631.01   38.68   1
   1  -3  -9  928.42   42.66   1
   1  -3  -7   81.36    5.41   1
   1  -3  -6 2025.00   83.70   1
   1  -3  -5  187.14    6.02   1
   1  -3  -4  589.52   17.00   1
   1  -3  -3 4894.40  138.52   1
   1  -3  -2 1953.64   46.85   1
   1  -3  -1   76.91    1.93   1
   1  -3   0  200.51    3.96   1
   1  -3   1  356.83    6.42   1
   1  -3   2   30.58    0.88   1
   1  -3   3   32.15    1.02   1
   1  -3   4   92.35    2.88   1
   1  -3   5   44.22    1.73   1
   1  -3   6 1260.25   38.34   1
   1  -3   7 1377.15   57.89   1
   1  -3   8    3.10    1.69   1
   1  -3   9    6.71    2.49   1
   1  -3  10   92.93    4.82   1
   1  -3  11  119.25    7.21   1
   1  -3  12  864.36   39.40   1
   1  -3  13   75.17   10.75   1
   1  -2 -12  542.42   31.67   1
   1  -2 -11   70.22    7.37   1
   1  -2 -10   10.89    6.40   1
   1  -2  -9   84.82    6.08   1
   1  -2  -8   70.73    5.72   1
   1  -2  -7  492.40   22.19   1
   1  -2  -6  225.90   11.12   1
   1  -2  -4   57.46    3.34   1
   1  -2  -3 2901.98   73.26   1
   1  -2  -2  569.78   12.89   1
   1  -2   0 7595.12  123.75   1
   1  -2   1  301.72    5.56   1
   1  -2   2 1746.40   48.48   1
   1  -2   3  298.25    7.94   1
   1  -2   4 2321.31   59.74   1
   1  -2   5  315.06    8.88   1
   1  -2   6  196.00    6.16   1
   1  -2   7  249.32    9.79   1
   1  -2   8 1054.95   28.58   1
   1  -2   9  192.38    6.66   1
   1  -2  10    3.80    2.50   1
   1  -2  11  291.38   11.61   1
   1  -2  12   22.28    7.74   1
   1  -2  13  426.01   28.07   1
   1  -1 -13  169.52   17.19   1
   1  -1 -12    8.70    8.32   1
   1  -1 -11  278.56   16.02   1
   1  -1 -10  122.10    9.06   1
   1  -1  -9  855.56   39.19   1
   1  -1  -8  113.42    7.24   1
   1  -1  -7  164.35    8.97   1
   1  -1  -6  669.26   26.39   1
   1  -1  -5  669.77   37.78   1
   1  -1  -4  235.62   10.13   1
   1  -1  -3    4.41    0.71   1
   1  -1  -2  489.29    8.85   1
   1  -1  -1 3979.09   64.34   1
   1  -1   0 2973.52   51.26   1
   1  -1   1  936.97   17.14   1
   1  -1   2  596.82   12.70   1
   1  -1   3   32.15    1.47   1
   1  -1   4   38.19    1.85   1
   1  -1   5 5559.19  141.66   1
   1  -1   6  896.40   23.35   1
   1  -1   7   91.39    4.97   1
   1  -1   8  119.90    4.82   1
   1  -1   9   16.16    2.17   1
   1  -1  10  285.95   10.15   1
   1  -1  11  390.46   14.23   1
   1  -1  12   18.92    4.44   1
   1  -1  13    9.30    5.49   1
   1   0 -14  616.53   25.82   1
   1   0 -13   73.79    6.70   1
   1   0 -12   30.03    6.47   1
   1   0 -11   -3.80    4.41   1
   1   0 -10   27.04    6.14   1
   1   0  -9  509.40   28.44   1
   1   0  -8  602.70   23.57   1
   1   0  -7   21.07    1.74   1
   1   0  -6   74.65    3.63   1
   1   0  -5  312.94   11.32   1
   1   0  -4  936.97   25.10   1
   1   0  -3 4443.56   94.66   1
   1   0  -2  708.09   13.84   1
   1   0  -1 2437.40   40.48   1
   1   0   0  427.66   10.75   1
   1   0   1 2155.74   48.29   1
   1   0   2 3451.56   72.85   1
   1   0   3 3523.61   68.86   1
   1   0   4 1582.45   56.49   1
   1   0   5  185.78    4.91   1
   1   0   6    6.50    1.38   1
   1   0   7 1245.38   34.58   1
   1   0   8 1056.90   28.61   1
   1   0   9   18.32    2.31   1
   1   0  10   16.16    2.01   1
   1   0  11   -1.30    3.90   1
   1   0  12  369.79   21.15   1
   1   0  13   28.41    8.74   1
   1   1 -14    8.70    5.43   1
   1   1 -13  343.36   14.08   1
   1   1 -12 1106.89   37.26   1
   1   1 -11    1.10    3.30   1
   1   1 -10  251.86    9.52   1
   1   1  -9 1787.60   56.66   1
   1   1  -8  478.30   28.43   1
   1   1  -7  223.80    9.57   1
   1   1  -6  869.07   27.71   1
   1   1  -5  733.87   23.84   1
   1   1  -4   31.70    1.69   1
   1   1  -3 2182.76   43.92   1
   1   1  -2 3435.13   79.71   1
   1   1  -1 3773.65   74.94   1
   1   1   0  501.31   10.75   1
   1   1   1 1809.65   35.73   1
   1   1   2 1160.76   25.89   1
   1   1   3  921.73   20.64   1
   1   1   4 4472.93  101.66   1
   1   1   5  827.71   20.14   1
   1   1   6  153.51    5.20   1
   1   1   7   30.80    2.44   1
   1   1   8  319.69    9.30   1
   1   1   9  118.81    5.45   1
   1   1  11  122.77    9.09   1
   1   1  12   -2.89    7.00   1
   1   1  13  124.32   10.70   1
   1   2 -14   -2.31    7.72   1
   1   2 -13    7.90    3.88   1
   1   2 -12   60.84    5.46   1
   1   2 -11  298.60   13.48   1
   1   2 -10 1513.99   53.70   1
   1   2  -9    7.18    2.30   1
   1   2  -8  285.61   11.15   1
   1   2  -6  707.56   20.22   1
   1   2  -5 1728.06   75.66   1
   1   2  -4 7196.13  193.41   1
   1   2  -3   60.37    2.33   1
   1   2  -2   60.37    3.11   1
   1   2  -1  495.51   12.47   1
   1   2   0  129.96    2.96   1
   1   2   1  162.82    4.59   1
   1   2   2  138.06    4.23   1
   1   2   3  222.90    6.27   1
   1   2   4  804.29   20.42   1
   1   2   5 2430.49   69.02   1
   1   2   6  548.96   16.87   1
   1   2   7   11.70    2.33   1
   1   2   8  611.08   23.24   1
   1   2   9    1.00    3.50   1
   1   2  10  212.28   12.24   1
   1   2  11  807.13   40.91   1
   1   2  12  244.30   18.13   1
   1   3 -14  233.48   20.17   1
   1   3 -13   98.80   11.13   1
   1   3 -12   18.49    6.88   1
   1   3 -11    9.18    3.88   1
   1   3 -10    1.30    3.01   1
   1   3  -9 1015.70   33.78   1
   1   3  -8 1098.26   39.11   1
   1   3  -7   -3.10    2.11   1
   1   3  -6   17.98    2.46   1
   1   3  -5 1112.22   96.71   1
   1   3  -4  807.70   27.85   1
   1   3  -3 1467.66   39.84   1
   1   3  -2 1810.50   61.27   1
   1   3  -1  273.24    8.27   1
   1   3   0   25.70    2.03   1
   1   3   1  793.55   16.34   1
   1   3   2  146.65    5.09   1
   1   3   3  302.06    8.34   1
   1   3   4  193.77    5.85   1
   1   3   5   59.60    3.40   1
   1   3   6  386.12   11.79   1
   1   3   7 1369.00   41.44   1
   1   3   8  353.44   16.17   1
   1   3   9   42.12    7.14   1
   1   3  10  319.34   21.44   1
   1   3  11    3.20    4.80   1
   1   4 -13   -8.82   10.04   1
   1   4 -12  475.68   34.90   1
   1   4 -11  250.27   14.55   1
   1   4 -10   27.67    5.89   1
   1   4  -9   83.17    5.84   1
   1   4  -8   29.05    3.23   1
   1   4  -7  296.53   12.74   1
   1   4  -6  363.28   13.34   1
   1   4  -5   68.06    4.12   1
   1   4  -4   25.20    2.51   1
   1   4  -3  322.92    9.70   1
   1   4  -2 1481.48   50.81   1
   1   4  -1 2531.10   80.50   1
   1   4   0  133.86    5.55   1
   1   4   1  141.37    4.76   1
   1   4   2  796.93   20.33   1
   1   4   3  327.25    9.05   1
   1   4   4 1427.33   38.54   1
   1   4   5  764.52   22.12   1
   1   4   6   -0.40    2.19   1
   1   4   7    0.10    3.03   1
   1   4   8   23.14    5.10   1
   1   4   9  239.01   17.62   1
   1   4  10  116.42   11.44   1
   1   5 -12   23.43   10.74   1
   1   5 -11  101.00   11.46   1
   1   5 -10  113.21   10.00   1
   1   5  -9   96.24    8.04   1
   1   5  -8   45.16    4.44   1
   1   5  -7    5.29    3.59   1
   1   5  -6  487.08   37.52   1
   1   5  -5 1346.89  107.16   1
   1   5  -4  907.82   32.54   1
   1   5  -3  129.96    5.47   1
   1   5  -2  480.49   17.54   1
   1   5  -1   59.60    3.55   1
   1   5   0  903.60   25.85   1
   1   5   1  948.64   27.72   1
   1   5   2  295.84   11.01   1
   1   5   3    4.41    3.11   1
   1   5   4  225.90   10.22   1
   1   5   5 1168.27   32.13   1
   1   5   6    3.50    2.99   1
   1   5   7  369.41   16.14   1
   1   5   8   68.56    8.61   1
   1   6 -11   14.21    7.24   1
   1   6 -10    8.70    6.73   1
   1   6  -9  110.25   11.13   1
   1   6  -8  585.64   30.01   1
   1   6  -6    7.62    3.81   1
   1   6  -5   32.83    4.47   1
   1   6  -4  107.54    5.60   1
   1   6  -3 1186.80   38.58   1
   1   6  -2  386.91   12.59   1
   1   6  -1   50.41    3.83   1
   1   6   0    2.10    3.92   1
   1   6   1    3.20    3.62   1
   1   6   2  575.52   17.75   1
   1   6   3  691.69   23.14   1
   1   6   4   -2.69    3.61   1
   1   6   5    6.00    4.51   1
   1   6   6   -5.02    4.39   1
   1   7  -8   -0.10    6.48   1
   1   7  -7   29.92    8.86   1
   1   7  -6  410.87   28.38   1
   1   7  -5  327.25   22.43   1
   1   7  -4   10.82    4.41   1
   1   7  -3    8.82    4.51   1
   1   7  -2  299.64   14.54   1
   1   7  -1  171.35   10.73   1
   1   7   0   21.34    5.54   1
   1   7   1   62.09    6.78   1
   1   7   2   41.60    6.45   1
   1   7   3   62.88    6.50   1
   2  -8  -1  138.53   12.95   1
   2  -8   0   53.58    7.91   1
   2  -8   1   -0.79    6.37   1
   2  -8   2   24.80    6.87   1
   2  -8   3  327.97   20.28   1
   2  -8   4  100.20   11.21   1
   2  -8   5  317.91   25.32   1
   2  -8   6    8.88    6.08   1
   2  -8   7  -12.82    9.24   1
   2  -7  -2    1.30    3.90   1
   2  -7  -1    0.59    2.59   1
   2  -7   0  214.04    7.61   1
   2  -7   1  434.31   13.75   1
   2  -7   2   91.39    5.16   1
   2  -7   3   10.11    5.22   1
   2  -7   4   36.12    5.05   1
   2  -7   5  157.50   12.55   1
   2  -7   6   67.40    7.22   1
   2  -7   7  437.65   31.38   1
   2  -7   8  372.88   27.81   1
   2  -6  -3  150.55    9.82   1
   2  -6  -2    8.70    1.83   1
   2  -6  -1  166.15    5.93   1
   2  -6   0  261.79    8.41   1
   2  -6   1  498.18   16.07   1
   2  -6   2  617.52   29.82   1
   2  -6   3  455.40   18.35   1
   2  -6   4   66.42    6.52   1
   2  -6   5   36.48    6.16   1
   2  -6   6  100.60    8.63   1
   2  -6   7  250.91   17.74   1
   2  -6   8  331.97   25.14   1
   2  -6   9  177.69   13.33   1
   2  -6  10   59.91   10.84   1
   2  -5  -4  296.53   10.33   1
   2  -5  -3   19.27    1.67   1
   2  -5  -2   89.30    2.84   1
   2  -5  -1  198.81    5.08   1
   2  -5   0  105.68    3.50   1
   2  -5   1  144.96    5.06   1
   2  -5   2    2.10    2.00   1
   2  -5   3  457.53   12.83   1
   2  -5   4  682.25   19.85   1
   2  -5   5 1389.05   52.92   1
   2  -5   6   69.22    5.66   1
   2  -5   7  156.75    7.01   1
   2  -5   8    0.20    3.52   1
   2  -5   9   -2.31    4.01   1
   2  -5  10  244.61   12.82   1
   2  -5  11  260.82   19.70   1
   2  -4  -7   23.04    5.28   1
   2  -4  -6   83.36    5.84   1
   2  -4  -5  897.00   28.75   1
   2  -4  -4 1404.00   50.96   1
   2  -4  -3   13.76    1.19   1
   2  -4  -2  450.29   10.19   1
   2  -4  -1 3751.56   75.95   1
   2  -4   0 1348.36   30.84   1
   2  -4   1    0.20    1.11   1
   2  -4   2 1624.09   38.69   1
   2  -4   3 1295.28   43.19   1
   2  -4   4   93.90    5.43   1
   2  -4   5  333.06   11.68   1
   2  -4   6   70.56    3.53   1
   2  -4   7   33.29    3.58   1
   2  -4   8   75.86    4.36   1
   2  -4   9    0.50    3.41   1
   2  -4  10   35.88    4.19   1
   2  -4  11  452.41   21.70   1
   2  -4  12  476.99   23.59   1
   2  -3  -9    2.79    6.08   1
   2  -3  -8 1423.55   69.42   1
   2  -3  -7  436.39   30.92   1
   2  -3  -6   17.22    2.57   1
   2  -3  -5   64.48    2.73   1
   2  -3  -4   22.18    1.32   1
   2  -3  -3   29.81    1.42   1
   2  -3  -2 2701.92   73.81   1
   2  -3  -1  715.56   13.38   1
   2  -3   0  740.38   14.15   1
   2  -3   1   83.72    2.38   1
   2  -3   2  154.50    4.47   1
   2  -3   3    7.02    1.01   1
   2  -3   4  647.19   20.86   1
   2  -3   5   53.44    2.63   1
   2  -3   6  292.41    9.92   1
   2  -3   7  333.79   14.62   1
   2  -3   8  393.63   13.49   1
   2  -3   9  151.78    6.16   1
   2  -3  10    1.99    2.59   1
   2  -3  11   28.62    3.85   1
   2  -3  12   39.56    5.41   1
   2  -2 -11  133.17    9.69   1
   2  -2 -10  237.16   15.71   1
   2  -2  -9    0.30    3.52   1
   2  -2  -8   38.69    4.85   1
   2  -2  -7  132.71    9.22   1
   2  -2  -6  984.70   43.30   1
   2  -2  -5  535.92   37.04   1
   2  -2  -4 1545.28   51.89   1
   2  -2  -3   25.91    0.92   1
   2  -2  -2    2.40    0.50   1
   2  -2  -1  531.76   12.91   1
   2  -2   0    1.59    0.50   1
   2  -2   1   16.32    0.57   1
   2  -2   2  650.76   15.31   1
   2  -2   3    1.69    0.49   1
   2  -2   4 2124.29   58.07   1
   2  -2   5  564.54   15.68   1
   2  -2   6  214.04    6.73   1
   2  -2   7    2.99    2.01   1
   2  -2   8   48.86    3.08   1
   2  -2   9  243.05    9.04   1
   2  -2  10  147.87    6.57   1
   2  -2  11  409.66   16.19   1
   2  -2  12    3.39    5.19   1
   2  -1 -14  413.31   24.40   1
   2  -1 -13  195.16   12.29   1
   2  -1 -12   95.06    9.56   1
   2  -1 -11   27.35    5.54   1
   2  -1 -10  609.10   38.99   1
   2  -1  -9 1197.85   62.30   1
   2  -1  -8   53.73    4.84   1
   2  -1  -7 1236.23   49.22   1
   2  -1  -6 2188.37   56.14   1
   2  -1  -5  445.63   16.89   1
   2  -1  -4  789.05   15.73   1
   2  -1  -3 1209.65   30.61   1
   2  -1  -2 1184.05   24.09   1
   2  -1  -1  938.81   21.45   1
   2  -1   0 1726.40   36.56   1
   2  -1   1 4389.06   76.85   1
   2  -1   2 5962.93  106.56   1
   2  -1   3 1388.31   35.02   1
   2  -1   4  221.71    6.25   1
   2  -1   5   54.61    2.22   1
   2  -1   6   20.79    1.73   1
   2  -1   7  498.63   13.84   1
   2  -1   8   62.25    3.31   1
   2  -1   9  214.33    8.20   1
   2  -1  10    4.88    1.99   1
   2  -1  11  311.52   11.65   1
   2  -1  12  173.71   14.23   1
   2  -1  13   86.86   11.93   1
   2   0 -14   45.83    8.67   1
   2   0 -13  178.22    9.88   1
   2   0 -12  140.90    6.88   1
   2   0 -11  287.30   11.53   1
   2   0 -10   38.32    3.84   1
   2   0  -9   76.21    6.29   1
   2   0  -8  165.89    5.92   1
   2   0  -7  713.96   19.24   1
   2   0  -6    9.49    1.11   1
   2   0  -5  657.41   15.90   1
   2   0  -4   96.24    2.35   1
   2   0  -3 1218.01   23.73   1
   2   0  -2  584.19   15.47   1
   2   0  -1  768.40   18.30   1
   2   0   0   11.22    0.67   1
   2   0   1   82.08    3.26   1
   2   0   2  580.33   21.68   1
   2   0   3 1404.75   47.22   1
   2   0   4 1626.51   43.56   1
   2   0   5   14.21    1.73   1
   2   0   6   71.23    3.04   1
   2   0   7   68.56    2.82   1
   2   0   8  224.40    7.49   1
   2   0   9  322.56   10.42   1
   2   0  10  331.60   10.93   1
   2   0  11   31.70    7.21   1
   2   0  12   -0.71    5.22   1
   2   1 -14   -7.02    5.41   1
   2   1 -13   56.25    6.75   1
   2   1 -12  111.30    6.54   1
   2   1 -11  388.48   14.98   1
   2   1 -10  291.38   17.75   1
   2   1  -9   41.22    3.47   1
   2   1  -8  363.66   11.44   1
   2   1  -7  162.82    7.40   1
   2   1  -6  239.32    7.12   1
   2   1  -5 5041.00  130.64   1
   2   1  -4 1092.30   25.12   1
   2   1  -3  237.16   11.40   1
   2   1  -2  110.46    3.36   1
   2   1  -1  320.05    8.59   1
   2   1   0  633.03   17.11   1
   2   1   1   11.22    1.41   1
   2   1   2 1106.23   30.60   1
   2   1   3   92.93    4.05   1
   2   1   4  507.60   15.32   1
   2   1   5  907.82   32.54   1
   2   1   6  200.22    7.36   1
   2   1   7    4.08    1.49   1
   2   1   8    0.40    1.69   1
   2   1   9    1.30    2.51   1
   2   1  10  421.07   20.93   1
   2   1  11  299.98   19.74   1
   2   1  12    9.92    8.88   1
   2   2 -14   63.84    7.35   1
   2   2 -13  116.86    8.65   1
   2   2 -12  102.21    6.87   1
   2   2 -11   15.76    3.33   1
   2   2 -10   29.48    3.80   1
   2   2  -9 1096.93   37.09   1
   2   2  -8  850.89   30.34   1
   2   2  -7  339.30   18.42   1
   2   2  -6   -0.71    2.30   1
   2   2  -5   33.76    2.09   1
   2   2  -4  183.33    5.42   1
   2   2  -3  415.75   14.68   1
   2   2  -2  668.22   19.65   1
   2   2  -1  219.63    8.00   1
   2   2   0  995.40   26.50   1
   2   2   1    8.70    1.71   1
   2   2   2 1436.41   35.63   1
   2   2   3  367.11   14.94   1
   2   2   4   76.39    3.85   1
   2   2   5   20.61    2.63   1
   2   2   6  352.69   11.64   1
   2   2   7  131.79    5.97   1
   2   2   8   68.23    4.46   1
   2   2   9   16.16    4.18   1
   2   2  10   40.32    6.73   1
   2   2  11   87.61    9.73   1
   2   3 -14   23.52   10.96   1
   2   3 -13   -0.71   10.35   1
   2   3 -12  263.41   14.61   1
   2   3 -11   41.60    4.26   1
   2   3 -10   20.34    4.51   1
   2   3  -9    1.99    2.40   1
   2   3  -8  298.25   13.47   1
   2   3  -7  708.62   28.22   1
   2   3  -6  400.40   13.61   1
   2   3  -5   58.68    2.60   1
   2   3  -4  257.60   11.23   1
   2   3  -3    1.30    1.60   1
   2   3  -2  262.12   11.66   1
   2   3  -1  907.21   41.57   1
   2   3   0  363.66   23.27   1
   2   3   1  276.56    6.98   1
   2   3   2  260.50    8.39   1
   2   3   3   35.28    3.21   1
   2   3   4 1300.32   33.18   1
   2   3   5  682.78   18.81   1
   2   3   6  123.43    5.55   1
   2   3   7  100.80    5.42   1
   2   3   8  426.42   14.04   1
   2   3   9  742.56   40.33   1
   2   3  10  121.22   11.01   1
   2   4 -13    4.71    8.20   1
   2   4 -12   -5.38    6.40   1
   2   4 -11    3.69    3.99   1
   2   4 -10   85.01    5.53   1
   2   4  -9  129.73    7.29   1
   2   4  -8    5.20    2.78   1
   2   4  -7  238.08   11.11   1
   2   4  -6  346.70   13.41   1
   2   4  -5  576.96   18.74   1
   2   4  -4  364.81   12.22   1
   2   4  -3  153.26    6.44   1
   2   4  -2   57.30    3.33   1
   2   4  -1  326.52   11.20   1
   2   4   0  364.05   14.88   1
   2   4   1  979.06   25.66   1
   2   4   2   72.25    4.59   1
   2   4   3  214.62    7.32   1
   2   4   4  105.68    5.76   1
   2   4   5  101.61    5.64   1
   2   4   6  498.63   16.97   1
   2   4   7   69.89    5.35   1
   2   4   8    5.81    4.63   1
   2   4   9   36.12    9.50   1
   2   5 -12   11.90    8.07   1
   2   5 -11    2.79    6.58   1
   2   5 -10   40.58    9.81   1
   2   5  -9  352.69   13.90   1
   2   5  -8   82.81    6.92   1
   2   5  -7  267.65   12.76   1
   2   5  -6   71.40    4.90   1
   2   5  -5   25.50    4.65   1
   2   5  -4  430.98   17.02   1
   2   5  -3  382.98   13.31   1
   2   5  -2    9.92    2.90   1
   2   5  -1  131.79    5.74   1
   2   5   0   67.40    4.43   1
   2   5   1  179.02    8.56   1
   2   5   2 1224.30   40.59   1
   2   5   3 1273.78   37.12   1
   2   5   4   10.69    4.19   1
   2   5   5   20.70    5.19   1
   2   5   6  155.25    9.72   1
   2   5   7   37.58    6.74   1
   2   6 -10   -5.29    9.57   1
   2   6  -9    9.92    9.39   1
   2   6  -8   46.51    7.37   1
   2   6  -7  370.18   20.01   1
   2   6  -6  115.78    7.75   1
   2   6  -5  472.19   27.38   1
   2   6  -4  735.49   29.83   1
   2   6  -3  201.92   15.35   1
   2   6  -2    4.71    6.73   1
   2   6  -1  561.69   20.86   1
   2   6   0  312.94   12.74   1
   2   6   1   -1.59    3.48   1
   2   6   2   10.50    4.41   1
   2   6   3  132.48    8.29   1
   2   6   4  111.72    7.82   1
   2   6   5    9.12    7.61   1
   2   7  -7   19.71    7.28   1
   2   7  -6   20.16   10.51   1
   2   7  -5  487.08   24.72   1
   2   7  -4  110.88    8.42   1
   2   7  -3  172.40    9.98   1
   2   7  -2    4.20    5.41   1
   2   7  -1   49.84    6.35   1
   2   7   0   28.20    5.73   1
   2   7   1  262.44   13.93   1
   3  -8  -2   -6.60    6.89   1
   3  -8  -1   75.86    6.45   1
   3  -8   0  810.54   30.18   1
   3  -8   1  157.50    8.78   1
   3  -8   2   40.45    5.09   1
   3  -8   3    5.29    4.00   1
   3  -8   4    6.92    8.21   1
   3  -8   5   62.57   10.28   1
   3  -8   6  273.57   26.79   1
   3  -7  -3   53.29    7.45   1
   3  -7  -2   60.68    4.67   1
   3  -7  -1   -1.10    3.61   1
   3  -7   0   16.48    3.09   1
   3  -7   1  705.96   22.85   1
   3  -7   2  904.20   25.86   1
   3  -7   3   99.00    9.55   1
   3  -7   4  -13.18    6.39   1
   3  -7   5  357.97   18.16   1
   3  -7   6   -5.11    5.20   1
   3  -7   7  504.90   33.26   1
   3  -7   8  211.99   15.72   1
   3  -6  -3  302.76   11.83   1
   3  -6  -2   12.32    2.81   1
   3  -6  -1 2673.92   70.33   1
   3  -6   0   86.68    3.91   1
   3  -6   1    5.38    4.08   1
   3  -6   2   -5.20    4.29   1
   3  -6   3   78.15    6.01   1
   3  -6   4 1006.16   46.95   1
   3  -6   5   67.24    8.04   1
   3  -6   6   11.29    6.12   1
   3  -6   7  107.33    9.53   1
   3  -6   8   96.63   10.03   1
   3  -6   9  325.08   26.32   1
   3  -6  10  388.09   31.13   1
   3  -5  -4  468.72   15.59   1
   3  -5  -3   95.65    3.91   1
   3  -5  -2  406.43   12.10   1
   3  -5  -1   37.70    3.07   1
   3  -5   0  522.12   14.17   1
   3  -5   1  846.23   29.09   1
   3  -5   2   58.68    2.91   1
   3  -5   3   17.39    4.42   1
   3  -5   4  103.02    7.31   1
   3  -5   5  592.44   28.23   1
   3  -5   6  422.30   27.13   1
   3  -5   7  159.26    9.59   1
   3  -5   8    6.40    5.62   1
   3  -5   9    6.00    4.80   1
   3  -5  10   33.76    8.02   1
   3  -5  11  288.32   24.45   1
   3  -4  -5  118.37    7.40   1
   3  -4  -4   96.63    2.95   1
   3  -4  -3  896.40   22.75   1
   3  -4  -2 1213.13   34.13   1
   3  -4  -1  108.16    3.95   1
   3  -4   0   52.85    1.89   1
   3  -4   1  373.26    9.66   1
   3  -4   2  182.25    7.29   1
   3  -4   3  774.51   22.82   1
   3  -4   4   35.64    2.87   1
   3  -4   5   19.89    2.68   1
   3  -4   6   32.95    3.21   1
   3  -4   7  334.52   16.10   1
   3  -4   8  711.29   25.07   1
   3  -4   9    9.42    4.11   1
   3  -4  10    0.00    1.00   1
   3  -4  11   30.25    8.47   1
   3  -3  -7  487.53   26.94   1
   3  -3  -6  209.96   18.26   1
   3  -3  -5  287.64   10.52   1
   3  -3  -4  739.84   18.50   1
   3  -3  -3    0.79    0.39   1
   3  -3  -2  406.83   10.09   1
   3  -3  -1 2991.00  112.66   1
   3  -3   0 1348.36   32.31   1
   3  -3   1  307.30    9.12   1
   3  -3   2    7.78    0.73   1
   3  -3   3    9.67    1.49   1
   3  -3   4  194.88    6.42   1
   3  -3   5    4.20    2.01   1
   3  -3   6   37.45    2.94   1
   3  -3   7    4.49    3.31   1
   3  -3   8  782.32   24.05   1
   3  -3   9  377.14   13.59   1
   3  -3  10  709.69   26.64   1
   3  -3  11   14.36    4.70   1
   3  -3  12  104.86   11.88   1
   3  -2 -14  195.72   19.87   1
   3  -2 -13    2.50    7.58   1
   3  -2 -12   13.03    9.31   1
   3  -2 -11   46.24    6.26   1
   3  -2  -9  345.96   22.32   1
   3  -2  -8  166.15   12.37   1
   3  -2  -7    4.41    2.90   1
   3  -2  -6  400.40   10.81   1
   3  -2  -5  137.12    4.22   1
   3  -2  -4  903.60   19.24   1
   3  -2  -3   13.91    0.67   1
   3  -2  -2    3.20    1.00   1
   3  -2  -1   75.86    4.18   1
   3  -2   0 2261.95   52.32   1
   3  -2   1 1293.12   34.52   1
   3  -2   2  111.72    4.23   1
   3  -2   3   90.44    2.85   1
   3  -2   4  171.35    4.97   1
   3  -2   5  310.46    9.51   1
   3  -2   6  912.64   25.98   1
   3  -2   7  571.69   15.78   1
   3  -2   8    8.29    2.88   1
   3  -2   9    0.00    1.00   1
   3  -2  10    9.49    3.57   1
   3  -2  11  119.25    8.30   1
   3  -2  12  447.32   30.88   1
   3  -1 -13  140.90   11.87   1
   3  -1 -12  248.06   17.01   1
   3  -1 -11    4.58    5.09   1
   3  -1 -10    7.40    3.70   1
   3  -1  -9   79.39    4.63   1
   3  -1  -8  966.59   34.20   1
   3  -1  -7   94.09    3.88   1
   3  -1  -6  386.12   11.79   1
   3  -1  -5  103.63    3.87   1
   3  -1  -4  421.07    9.85   1
   3  -1  -3  857.32   16.98   1
   3  -1  -2  124.77    2.90   1
   3  -1  -1   11.09    0.80   1
   3  -1   0  593.90   13.65   1
   3  -1   1 1529.59   43.80   1
   3  -1   2 1647.55   51.96   1
   3  -1   3 2400.02   70.55   1
   3  -1   4  310.11    7.75   1
   3  -1   5  485.76   12.34   1
   3  -1   6  138.30    5.41   1
   3  -1   7   50.84    2.57   1
   3  -1   8  342.25   10.36   1
   3  -1   9  689.59   19.96   1
   3  -1  10   42.64    4.44   1
   3  -1  11   -4.08    7.68   1
   3   0 -14  -20.34   10.28   1
   3   0 -13   34.93    6.97   1
   3   0 -12  347.82   17.90   1
   3   0 -11  420.25   15.17   1
   3   0 -10  504.45   21.11   1
   3   0  -9   -0.90    2.39   1
   3   0  -8    7.90    2.02   1
   3   0  -7  155.00    5.73   1
   3   0  -6  194.60    6.70   1
   3   0  -5   49.42    2.25   1
   3   0  -4  149.82    5.39   1
   3   0  -3   33.41    1.85   1
   3   0  -2  611.08   16.81   1
   3   0  -1 8103.60  239.45   1
   3   0   0  243.05    7.48   1
   3   0   1  575.52   14.87   1
   3   0   2  830.59   24.79   1
   3   0   3  114.70    4.50   1
   3   0   4  242.42    7.47   1
   3   0   5  772.28   33.35   1
   3   0   6  150.31    4.41   1
   3   0   7   77.97    3.36   1
   3   0   8   26.94    2.91   1
   3   0   9  103.43    6.10   1
   3   0  10  335.62   13.92   1
   3   0  11   41.86    7.12   1
   3   1 -13   17.98    6.70   1
   3   1 -12   45.16    4.57   1
   3   1 -11  107.12    6.42   1
   3   1 -10  579.36   19.26   1
   3   1  -9 1110.89   59.99   1
   3   1  -8   55.95    3.44   1
   3   1  -7  297.22    9.65   1
   3   1  -6  135.49    4.89   1
   3   1  -5   39.19    2.75   1
   3   1  -4 2124.29   65.45   1
   3   1  -3 1434.14   43.17   1
   3   1  -2  401.60   13.23   1
   3   1  -1   58.98    2.46   1
   3   1   0  111.51    4.22   1
   3   1   1  119.90    4.60   1
   3   1   2    6.10    2.32   1
   3   1   3  319.69    9.30   1
   3   1   4  611.08   18.29   1
   3   1   5 2211.82   62.08   1
   3   1   6   86.68    4.47   1
   3   1   7  909.63   30.16   1
   3   1   8   12.18    2.72   1
   3   1   9  121.22    6.61   1
   3   1  10    0.50    7.03   1
   3   1  11  132.94   13.61   1
   3   2 -14    9.49   10.60   1
   3   2 -13  158.76   10.33   1
   3   2 -12   63.36    6.37   1
   3   2 -11    2.50    4.99   1
   3   2 -10   15.52    3.47   1
   3   2  -9   25.70    4.66   1
   3   2  -8 1503.11   60.48   1
   3   2  -7  907.21   51.20   1
   3   2  -6  208.51    8.66   1
   3   2  -5   51.84    3.17   1
   3   2  -4  682.25   22.99   1
   3   2  -3  140.66    5.69   1
   3   2  -2  591.46   18.48   1
   3   2  -1  337.46   11.39   1
   3   2   0  836.37   27.18   1
   3   2   1  242.74   10.91   1
   3   2   2  148.60    5.85   1
   3   2   3  775.07   20.60   1
   3   2   4   83.72    4.57   1
   3   2   5    0.71    2.81   1
   3   2   6   26.21    3.38   1
   3   2   7  290.02   10.56   1
   3   2   8  441.84   15.13   1
   3   2   9  635.54   25.71   1
   3   2  10   22.28    6.89   1
   3   3 -13   15.21    6.24   1
   3   3 -12   20.34    4.96   1
   3   3 -11  134.33    8.11   1
   3   3 -10  748.57   31.74   1
   3   3  -9   -3.10    3.20   1
   3   3  -8  112.36   10.39   1
   3   3  -7   22.66    2.95   1
   3   3  -6   85.01    4.43   1
   3   3  -5  189.34    7.43   1
   3   3  -4   39.94    3.29   1
   3   3  -3   30.69    3.55   1
   3   3  -2  382.98   12.52   1
   3   3  -1 1293.84   35.25   1
   3   3   0 1124.26   29.51   1
   3   3   1  280.90    9.05   1
   3   3   2   88.36    5.26   1
   3   3   3  271.92    9.56   1
   3   3   4  339.66   11.43   1
   3   3   5   37.70    4.05   1
   3   3   6  385.73   12.96   1
   3   3   7   33.99    4.78   1
   3   3   8   19.01    4.19   1
   3   3   9  379.08   26.09   1
   3   4 -12    0.40    4.49   1
   3   4 -11    5.20    4.79   1
   3   4 -10   51.70    5.46   1
   3   4  -9  136.89    7.96   1
   3   4  -8   45.02    7.65   1
   3   4  -7   31.70    4.28   1
   3   4  -6  219.34   10.07   1
   3   4  -5   21.07    3.21   1
   3   4  -4 2874.03   88.99   1
   3   4  -3   -2.10    3.02   1
   3   4  -2   84.64    4.78   1
   3   4  -1   88.92    5.66   1
   3   4   0    3.80    2.81   1
   3   4   1  527.16   18.83   1
   3   4   2  504.45   17.52   1
   3   4   3   55.65    4.63   1
   3   4   4   12.89    3.23   1
   3   4   5   -1.30    3.90   1
   3   4   6   66.75    6.37   1
   3   4   7  391.64   17.02   1
   3   5 -11   50.27    9.08   1
   3   5 -10    2.40    5.89   1
   3   5  -9   42.25    5.98   1
   3   5  -8  109.20    7.94   1
   3   5  -7  182.79    8.92   1
   3   5  -6  376.75   21.74   1
   3   5  -5  205.92   10.62   1
   3   5  -4   23.52    5.14   1
   3   5  -3   62.73    5.23   1
   3   5  -2  665.64   23.22   1
   3   5  -1  205.06   10.02   1
   3   5   0   65.61    5.67   1
   3   5   1  139.48    8.27   1
   3   5   2   52.13    5.63   1
   3   5   3  235.32   12.89   1
   3   5   4  228.01   13.29   1
   3   5   5   85.93    8.34   1
   3   6  -8   21.07    7.16   1
   3   6  -7   38.19    6.06   1
   3   6  -6    4.20    4.59   1
   3   6  -5  396.01   18.71   1
   3   6  -4   20.16    9.25   1
   3   6  -3   50.55    5.55   1
   3   6  -2   78.68    7.63   1
   3   6  -1   45.29    6.06   1
   3   6   0  731.70   28.67   1
   3   6   1    9.12    5.19   1
   3   6   2    4.28    6.00   1
   4  -8  -3  149.33   11.98   1
   4  -8  -2  710.22   47.44   1
   4  -8  -1  305.20   13.63   1
   4  -8   0    8.53    5.08   1
   4  -8   1    8.82    4.28   1
   4  -8   2  190.16    9.65   1
   4  -8   3  371.72   18.51   1
   4  -8   4   16.89    9.37   1
   4  -8   5    0.79    9.95   1
   4  -7  -4   11.63    7.23   1
   4  -7  -3   50.55    6.40   1
   4  -7  -2  386.91   13.38   1
   4  -7  -1  311.17   13.41   1
   4  -7   0   52.71    5.95   1
   4  -7   1   29.05    4.64   1
   4  -7   2    7.02    5.99   1
   4  -7   3  130.87   10.98   1
   4  -7   4  967.21   52.87   1
   4  -7   5   36.97    8.76   1
   4  -7   6   21.16    8.83   1
   4  -7   7   70.73    9.42   1
   4  -6  -4  803.16   29.47   1
   4  -6  -3   81.18    4.69   1
   4  -6  -2    3.20    2.61   1
   4  -6  -1  171.35    6.81   1
   4  -6   0  551.31   16.44   1
   4  -6   1  139.71    8.04   1
   4  -6   2    7.78    5.02   1
   4  -6   3  588.55   24.26   1
   4  -6   4   -1.30    3.60   1
   4  -6   5  650.76   29.08   1
   4  -6   6 1107.56   43.26   1
   4  -6   7  378.69   25.69   1
   4  -6   8  114.49   10.49   1
   4  -6   9   36.36   12.54   1
   4  -5  -5  164.61   11.29   1
   4  -5  -4  774.51   33.40   1
   4  -5  -3 1463.83   42.09   1
   4  -5  -2 1060.80   24.10   1
   4  -5  -1   88.92    3.02   1
   4  -5   0  434.72   14.60   1
   4  -5   1   41.34    4.89   1
   4  -5   2  407.64   18.57   1
   4  -5   3 1009.97   40.68   1
   4  -5   4   79.39    6.77   1
   4  -5   5    8.70    5.02   1
   4  -5   6   -1.39    4.08   1
   4  -5   7  715.56   36.92   1
   4  -5   8   87.61    9.92   1
   4  -5   9   96.04    9.41   1
   4  -5  10  234.70   19.30   1
   4  -4 -12   68.72   10.78   1
   4  -4  -5  194.04    6.13   1
   4  -4  -4  676.00   18.20   1
   4  -4  -3  210.83    5.52   1
   4  -4  -2  235.01    7.05   1
   4  -4  -1 2550.25   57.57   1
   4  -4   0  876.75   33.16   1
   4  -4   1   14.59    1.60   1
   4  -4   2  159.52    7.58   1
   4  -4   3    1.90    2.82   1
   4  -4   4  592.44   28.23   1
   4  -4   5  334.52   15.00   1
   4  -4   6   11.63    4.09   1
   4  -4   7   -3.20    5.19   1
   4  -4   8  107.95    9.97   1
   4  -4   9  362.90   21.72   1
   4  -4  10  160.28   15.19   1
   4  -3 -13    8.58   10.90   1
   4  -3 -12   27.88    7.92   1
   4  -3 -11   80.82   10.97   1
   4  -3  -8   64.64    7.24   1
   4  -3  -7  145.20    8.19   1
   4  -3  -6  213.45    8.18   1
   4  -3  -5  932.69   22.60   1
   4  -3  -4 1690.85   41.94   1
   4  -3  -3  445.63   15.20   1
   4  -3  -2   18.06    1.62   1
   4  -3  -1   79.39    3.92   1
   4  -3   0  956.05   22.26   1
   4  -3   1  236.85    9.54   1
   4  -3   2  154.75    4.98   1
   4  -3   3   90.44    3.42   1
   4  -3   4  146.65    6.30   1
   4  -3   5  811.68   22.79   1
   4  -3   6  804.86   33.48   1
   4  -3   7  318.62   16.42   1
   4  -3   8   -3.69    3.99   1
   4  -3   9  137.36   11.72   1
   4  -3  10   32.72    5.95   1
   4  -2 -13 1045.23   57.55   1
   4  -2 -11   -1.39    4.89   1
   4  -2 -10  348.20   19.03   1
   4  -2  -9    0.71    5.33   1
   4  -2  -8  275.89   13.95   1
   4  -2  -7  428.49   18.63   1
   4  -2  -6  212.28    9.62   1
   4  -2  -5   49.00    2.80   1
   4  -2  -4  712.89   17.62   1
   4  -2  -3 1095.61   31.78   1
   4  -2  -2 1324.96   38.58   1
   4  -2  -1 1516.32   38.94   1
   4  -2   0   85.38    2.77   1
   4  -2   1  204.20    6.00   1
   4  -2   2 1616.84   41.01   1
   4  -2   3 2293.45   67.05   1
   4  -2   4  270.27    7.89   1
   4  -2   5   91.20    3.25   1
   4  -2   6   11.97    4.50   1
   4  -2   7  156.25    8.00   1
   4  -2   8  496.40   24.51   1
   4  -2   9  221.41   12.80   1
   4  -2  10   60.37    9.17   1
   4  -1 -14   14.36    8.79   1
   4  -1 -13   63.84   11.03   1
   4  -1 -12  267.98   14.73   1
   4  -1 -11  519.84   24.17   1
   4  -1 -10  408.85   17.39   1
   4  -1  -9   40.83    5.24   1
   4  -1  -8   22.00    4.31   1
   4  -1  -7  170.56    7.31   1
   4  -1  -6  551.31   23.01   1
   4  -1  -5  604.18   29.00   1
   4  -1  -4   31.92    2.15   1
   4  -1  -3    3.10    1.09   1
   4  -1  -2  785.12   22.42   1
   4  -1  -1 1574.50   58.73   1
   4  -1   0  419.02   12.28   1
   4  -1   1  304.15    9.07   1
   4  -1   2   84.09    3.85   1
   4  -1   3  141.85    6.43   1
   4  -1   4 4967.43  131.09   1
   4  -1   5  218.15    7.98   1
   4  -1   6  606.64   15.76   1
   4  -1   7  373.26   10.05   1
   4  -1   8  179.29    7.50   1
   4  -1   9  190.16    9.93   1
   4  -1  10  286.96   13.55   1
   4   0 -14  154.50   16.41   1
   4   0 -13   -5.52    6.72   1
   4   0 -12   14.90    6.56   1
   4   0 -11  113.42    8.73   1
   4   0 -10  609.60   26.67   1
   4   0  -9  940.65   33.74   1
   4   0  -8   50.84    4.14   1
   4   0  -7  462.68   17.21   1
   4   0  -6   99.00    4.18   1
   4   0  -5  261.47    9.38   1
   4   0  -4 4051.32  100.57   1
   4   0  -3  678.60   22.92   1
   4   0  -2    0.59    1.29   1
   4   0  -1   -4.08    1.98   1
   4   0   0   45.29    2.96   1
   4   0   1  675.48   23.39   1
   4   0   2  706.50   19.14   1
   4   0   3  408.04   12.12   1
   4   0   4    1.10    2.39   1
   4   0   5   46.79    3.97   1
   4   0   6 1117.56   40.78   1
   4   0   7  512.57   13.58   1
   4   0   8   58.98    4.15   1
   4   0   9  265.36   12.05   1
   4   0  10    5.20    8.30   1
   4   1 -13  324.72   26.67   1
   4   1 -12  118.59   11.54   1
   4   1 -11   -1.39    7.48   1
   4   1 -10  479.17   17.95   1
   4   1  -9  244.61   14.08   1
   4   1  -8  517.11   22.29   1
   4   1  -7  925.38   34.68   1
   4   1  -6  121.22    5.51   1
   4   1  -5  408.04   13.74   1
   4   1  -4    8.58    2.29   1
   4   1  -3 1215.22   36.25   1
   4   1  -2 1697.44   42.85   1
   4   1  -1  262.12   10.04   1
   4   1   0   73.62    3.95   1
   4   1   1  388.88   13.41   1
   4   1   2   88.17    6.20   1
   4   1   3 1123.59   36.87   1
   4   1   4   50.84    3.85   1
   4   1   5  189.34    7.98   1
   4   1   6    4.28    2.90   1
   4   1   7   99.00    6.57   1
   4   1   8  822.54   25.24   1
   4   1   9    4.08    4.40   1
   4   2 -12   90.25    9.69   1
   4   2 -11  425.18   18.97   1
   4   2 -10  118.16    7.61   1
   4   2  -9   19.54    3.98   1
   4   2  -8  136.19    7.47   1
   4   2  -7  398.00   20.75   1
   4   2  -6  277.22   15.65   1
   4   2  -5 3318.91  191.27   1
   4   2  -4  418.20   23.31   1
   4   2  -3    9.49    5.48   1
   4   2  -2  115.56    8.60   1
   4   2  -1  261.79   13.91   1
   4   2   0  954.19   26.57   1
   4   2   1   46.24    3.40   1
   4   2   2   -1.39    2.78   1
   4   2   3   57.46    4.24   1
   4   2   4  587.58   16.97   1
   4   2   5  322.20   12.92   1
   4   2   6   37.95    4.56   1
   4   2   7  170.30    9.40   1
   4   2   8   34.93    5.56   1
   4   3 -12   37.70   10.81   1
   4   3 -11    3.69    5.68   1
   4   3 -10  151.78    9.61   1
   4   3  -9  188.51    9.89   1
   4   3  -8   74.48    6.04   1
   4   3  -7    6.71    4.51   1
   4   3  -6  263.74   10.39   1
   4   3  -5  851.47   37.35   1
   4   3  -4  579.36   19.74   1
   4   3  -3  565.01   19.97   1
   4   3  -2   30.69    3.55   1
   4   3  -1   18.66    3.63   1
   4   3   0    8.29    3.00   1
   4   3   1 1068.64   30.07   1
   4   3   2  345.96   11.53   1
   4   3   3    0.10    4.45   1
   4   3   4   68.06    4.95   1
   4   3   5   -0.10    4.25   1
   4   3   6  335.62   14.66   1
   4   3   7  536.39   25.48   1
   4   4 -11   60.68    6.86   1
   4   4 -10   21.90    7.49   1
   4   4  -9    7.90    4.10   1
   4   4  -8    9.92    4.91   1
   4   4  -7  210.83   10.74   1
   4   4  -6  191.27    9.40   1
   4   4  -5   41.86    4.79   1
   4   4  -4  276.22   10.97   1
   4   4  -3  798.63   28.83   1
   4   4  -2  490.18   18.60   1
   4   4  -1  203.06    9.12   1
   4   4   0  870.25   42.48   1
   4   4   1  158.00    7.79   1
   4   4   2   24.30    4.63   1
   4   4   3 1047.82   38.20   1
   4   4   4  877.34   38.51   1
   4   4   5   41.86    6.86   1
   4   5  -9   31.25    6.48   1
   4   5  -8  112.15   14.40   1
   4   5  -7   14.98    4.80   1
   4   5  -6  378.69   17.51   1
   4   5  -5  600.74   27.94   1
   4   5  -4   24.11    4.81   1
   4   5  -3   29.48    5.65   1
   4   5  -2   26.52    6.59   1
   4   5  -1  135.49    9.31   1
   4   5   0  536.39   35.67   1
   4   5   1   73.62    7.55   1
   4   5   2    6.10    7.11   1
   5  -8  -3   19.18    7.27   1
   5  -8  -2   33.41   10.98   1
   5  -8  -1   73.96   11.18   1
   5  -8   0    2.99    5.78   1
   5  -8   1    3.88    5.08   1
   5  -8   2    2.50    5.09   1
   5  -8   3  326.52   26.02   1
   5  -7  -5  404.81   23.34   1
   5  -7  -4  152.52   14.33   1
   5  -7  -3   54.46    6.79   1
   5  -7  -2   33.52    5.56   1
   5  -7  -1    7.78    4.69   1
   5  -7   0  191.27    9.68   1
   5  -7   1  253.45   12.10   1
   5  -7   2   90.44   10.08   1
   5  -7   3   14.21    5.88   1
   5  -7   4   31.14    6.36   1
   5  -7   5  155.25   12.96   1
   5  -7   6  435.56   31.31   1
   5  -6  -9   31.25    8.50   1
   5  -6  -7   45.70    9.46   1
   5  -6  -6    3.50    4.30   1
   5  -6  -5   26.83    7.36   1
   5  -6  -4  231.34    8.82   1
   5  -6  -3  470.02   20.81   1
   5  -6  -2  398.80   13.98   1
   5  -6  -1   23.43    3.68   1
   5  -6   0   23.62    4.08   1
   5  -6   1   11.63    4.50   1
   5  -6   2  396.41   23.10   1
   5  -6   3  528.54   25.29   1
   5  -6   4    3.39    5.00   1
   5  -6   5   38.81    6.60   1
   5  -6   6    6.81    7.62   1
   5  -6   7  186.32   15.56   1
   5  -5  -8   76.56    7.88   1
   5  -5  -7  253.45   15.28   1
   5  -5  -6  969.70   47.33   1
   5  -5  -5  121.44    5.73   1
   5  -5  -4   84.82    4.05   1
   5  -5  -3   49.70    2.96   1
   5  -5  -2   29.27    2.60   1
   5  -5  -1  984.70   27.61   1
   5  -5   0   88.55    5.65   1
   5  -5   1   20.07    3.76   1
   5  -5   2   51.70    5.32   1
   5  -5   3   25.81    4.37   1
   5  -5   4 1182.67   86.66   1
   5  -5   5  179.29   11.78   1
   5  -5   6   35.88    7.55   1
   5  -5   7   41.34    8.36   1
   5  -5   8   15.92    7.02   1
   5  -4 -11  -19.71   11.10   1
   5  -4 -10  363.66   21.36   1
   5  -4  -8   10.30    5.33   1
   5  -4  -7   -1.49    5.78   1
   5  -4  -6   34.11    3.85   1
   5  -4  -5  696.43   18.47   1
   5  -4  -4  512.57   14.49   1
   5  -4  -3   41.34    2.44   1
   5  -4  -2 1109.56   26.65   1
   5  -4  -1   15.68    2.06   1
   5  -4   0   55.06    3.56   1
   5  -4   1 2196.80  121.86   1
   5  -4   2  986.59   41.46   1
   5  -4   3   -4.28    4.51   1
   5  -4   4   53.44    4.97   1
   5  -4   5    4.00    3.80   1
   5  -4   6   83.17    8.21   1
   5  -4   7   93.90   10.27   1
   5  -4   8   18.23    7.43   1
   5  -4   9   10.18    6.70   1
   5  -3 -12   94.28   11.65   1
   5  -3 -11    3.50    6.10   1
   5  -3 -10  182.79   11.90   1
   5  -3  -9   71.74    7.62   1
   5  -3  -8  442.68   20.62   1
   5  -3  -6   80.82    4.14   1
   5  -3  -5  118.37    4.13   1
   5  -3  -4   32.95    2.30   1
   5  -3  -3  707.56   18.09   1
   5  -3  -2  525.78   13.30   1
   5  -3  -1   46.38    3.00   1
   5  -3   0   88.36    4.89   1
   5  -3   1   25.40    2.22   1
   5  -3   2  117.51    8.46   1
   5  -3   3 2467.11   96.36   1
   5  -3   4  181.17    9.69   1
   5  -3   5  111.30    7.60   1
   5  -3   6  210.83   11.33   1
   5  -3   7  160.53   10.39   1
   5  -3   8  657.92   41.55   1
   5  -3   9   51.12    9.44   1
   5  -2 -11  463.97   24.12   1
   5  -2 -10  182.52   11.62   1
   5  -2  -8   50.27    5.67   1
   5  -2  -7  111.72    7.19   1
   5  -2  -6  700.13   29.11   1
   5  -2  -5 1974.91   52.44   1
   5  -2  -4   14.52    2.59   1
   5  -2  -3    6.30    2.61   1
   5  -2  -2   16.81    2.30   1
   5  -2  -1   88.74    6.59   1
   5  -2   0  168.48   11.94   1
   5  -2   1    1.99    2.00   1
   5  -2   2  203.92    8.57   1
   5  -2   3  899.40   29.99   1
   5  -2   4  800.32   31.12   1
   5  -2   5  991.62   41.57   1
   5  -2   6   -8.29    5.13   1
   5  -2   7  271.26   14.16   1
   5  -2   8  197.40   14.05   1
   5  -2   9  333.43   20.45   1
   5  -1 -13    5.81    8.19   1
   5  -1 -11   98.60   11.32   1
   5  -1 -10  742.02   32.69   1
   5  -1  -9  347.82   17.53   1
   5  -1  -8  422.30   18.91   1
   5  -1  -7    8.41    4.00   1
   5  -1  -6   70.73    6.39   1
   5  -1  -5  424.77   15.66   1
   5  -1  -4  344.47   14.11   1
   5  -1  -3   27.25    2.71   1
   5  -1  -2  141.13    4.51   1
   5  -1  -1    4.00    1.40   1
   5  -1   0  329.79   13.44   1
   5  -1   1 2322.28   63.61   1
   5  -1   2  779.53   24.57   1
   5  -1   3  119.46   10.71   1
   5  -1   4   32.26    5.23   1
   5  -1   5   17.64    3.28   1
   5  -1   6  435.56   20.45   1
   5  -1   7  776.18   39.00   1
   5  -1   8   15.76    6.99   1
   5  -1   9    5.02    5.42   1
   5   0 -13  259.21   21.57   1
   5   0 -12  133.86   14.81   1
   5   0 -11   14.98    6.42   1
   5   0 -10   13.62    6.20   1
   5   0  -9   74.82    7.78   1
   5   0  -8 1055.60   43.54   1
   5   0  -7  185.50   12.53   1
   5   0  -6  387.70   19.30   1
   5   0  -5 1915.81   81.41   1
   5   0  -4  235.01    8.28   1
   5   0  -3  228.01    7.85   1
   5   0  -2 1708.17   57.04   1
   5   0  -1  739.84   22.85   1
   5   0   0  173.71    6.06   1
   5   0   1   12.53    3.12   1
   5   0   2   97.42    4.74   1
   5   0   3  712.89   45.39   1
   5   0   4  154.50    9.70   1
   5   0   5    0.40    3.29   1
   5   0   6   74.82    5.36   1
   5   0   8  532.69   30.93   1
   5   1 -13   52.13    9.53   1
   5   1 -12  196.84   17.96   1
   5   1 -11  213.45   17.53   1
   5   1 -10    5.38    5.01   1
   5   1  -9   40.45    6.11   1
   5   1  -8   16.16    4.82   1
   5   1  -7   65.93    7.47   1
   5   1  -6 3152.82  143.74   1
   5   1  -5  552.25   21.15   1
   5   1  -4   33.29    3.35   1
   5   1  -3  740.93   26.68   1
   5   1  -2  142.09    5.96   1
   5   1  -1  167.96    7.00   1
   5   1   0 1395.77   72.48   1
   5   1   1  211.12    8.72   1
   5   1   2    9.67    3.79   1
   5   1   3    4.88    3.89   1
   5   1   4  173.19    7.90   1
   5   1   5  278.22   12.68   1
   5   1   6   33.76    5.46   1
   5   1   7   65.29    7.60   1
   5   2 -12   62.09   10.87   1
   5   2 -11   36.60    8.83   1
   5   2 -10  130.64   12.12   1
   5   2  -9  456.25   26.49   1
   5   2  -8  523.49   31.12   1
   5   2  -7   15.76    5.08   1
   5   2  -6   78.15    8.66   1
   5   2  -5  289.68   12.59   1
   5   2  -4  353.06   15.03   1
   5   2  -3   84.46    4.96   1
   5   2  -2    1.10    3.00   1
   5   2  -1  479.61   16.21   1
   5   2   0  319.69   11.80   1
   5   2   1  765.63   21.03   1
   5   2   2 1054.95   34.43   1
   5   2   3   54.46    4.87   1
   5   2   4  124.77   10.72   1
   5   2   5   -9.12    5.32   1
   5   2   6   35.64    6.93   1
   5   3 -11   59.44   10.02   1
   5   3 -10  -11.90    6.07   1
   5   3  -9   92.54   11.54   1
   5   3  -8  269.62   22.33   1
   5   3  -7  260.50   12.27   1
   5   3  -6  163.07   13.28   1
   5   3  -5   29.16    4.75   1
   5   3  -4    8.01    3.68   1
   5   3  -3  164.10    8.20   1
   5   3  -2  645.67   24.39   1
   5   3  -1  152.52    8.65   1
   5   3   0   79.39    5.70   1
   5   3   1   12.32    4.07   1
   5   3   2   74.65    7.08   1
   5   3   3 1031.05   39.17   1
   5   3   4   51.55    7.18   1
   5   4  -9   41.86    8.80   1
   5   4  -8   66.26   11.56   1
   5   4  -7   29.05    6.14   1
   5   4  -6  302.06   15.29   1
   5   4  -5  438.06   21.35   1
   5   4  -4    6.00    6.12   1
   5   4  -3   27.98    5.61   1
   5   4  -2   19.27    5.62   1
   5   4  -1  289.34   13.61   1
   5   4   0  591.95   25.30   1
   5   4   1   50.84    6.84   1
   5   4   2   44.49    9.07   1
   6  -7  -5   46.38   11.58   1
   6  -7  -4    8.12    9.12   1
   6  -7  -3   61.78    8.65   1
   6  -7  -2  189.89   14.61   1
   6  -7  -1   17.31    5.82   1
   6  -7   0  154.50   12.18   1
   6  -7   1   90.63    7.81   1
   6  -7   2   91.78   13.41   1
   6  -7   3   70.06   14.23   1
   6  -6  -8    8.29    6.97   1
   6  -6  -7   34.93    7.21   1
   6  -6  -6   77.79    5.82   1
   6  -6  -5   -9.12    7.49   1
   6  -6  -4   19.71    5.42   1
   6  -6  -3  -11.97    6.99   1
   6  -6  -2  787.36   30.87   1
   6  -6  -1  110.88    6.53   1
   6  -6   0  279.56   15.38   1
   6  -6   1   20.43    6.60   1
   6  -6   2   44.22    6.78   1
   6  -6   3   82.45   10.35   1
   6  -6   4  128.37   12.69   1
   6  -6   5   73.96    9.80   1
   6  -5  -9   12.11   10.30   1
   6  -5  -8   19.89    7.14   1
   6  -5  -7   64.48    8.35   1
   6  -5  -6  109.83    6.50   1
   6  -5  -5  406.43   15.32   1
   6  -5  -4  126.56    6.97   1
   6  -5  -3   45.56    3.78   1
   6  -5  -2   43.96    3.85   1
   6  -5  -1    2.89    4.18   1
   6  -5   0  490.62   33.67   1
   6  -5   1  463.54   31.00   1
   6  -5   2  637.56   32.32   1
   6  -5   3  382.59   21.12   1
   6  -5   4  162.05   14.00   1
   6  -5   5   75.86    8.71   1
   6  -5   6  298.94   21.79   1
   6  -4 -11   -1.99    8.97   1
   6  -4 -10   11.42    7.50   1
   6  -4  -9  368.26   22.64   1
   6  -4  -8  335.26   17.58   1
   6  -4  -7   62.73    7.76   1
   6  -4  -6   18.23    4.01   1
   6  -4  -5  446.05   13.52   1
   6  -4  -4  172.13    6.56   1
   6  -4  -3  170.30    7.31   1
   6  -4  -2  360.24   11.39   1
   6  -4  -1  151.29    6.40   1
   6  -4   0    5.52    4.61   1
   6  -4   1   -1.00    5.00   1
   6  -4   2  596.82   31.27   1
   6  -4   3   28.94    5.16   1
   6  -4   4   79.21    8.54   1
   6  -4   5   41.73    7.88   1
   6  -4   6   -0.40    7.37   1
   6  -4   7   72.76   13.48   1
   6  -3 -11  707.56   44.16   1
   6  -3 -10    3.20   10.10   1
   6  -3  -9   -5.81    5.69   1
   6  -3  -8   36.00    6.60   1
   6  -3  -7    4.28    4.60   1
   6  -3  -6  560.27   22.25   1
   6  -3  -5   69.39    4.16   1
   6  -3  -4   57.15    3.63   1
   6  -3  -3   26.63    2.68   1
   6  -3  -2  228.92    8.47   1
   6  -3  -1  245.55    9.72   1
   6  -3   0  364.81   18.34   1
   6  -3   1    7.78    3.29   1
   6  -3   2   37.33    4.28   1
   6  -3   3  111.72    8.24   1
   6  -3   4   72.25    6.29   1
   6  -3   5  293.78   17.83   1
   6  -3   6   55.50    8.05   1
   6  -3   7   36.24    9.51   1
   6  -2 -12   56.70   12.35   1
   6  -2 -11   26.94   11.00   1
   6  -2 -10  190.99   15.48   1
   6  -2  -9  491.07   28.36   1
   6  -2  -8   34.57    6.00   1
   6  -2  -7   91.58    8.04   1
   6  -2  -6  393.63   19.44   1
   6  -2  -5  804.29   30.63   1
   6  -2  -4    1.90    2.21   1
   6  -2  -3  310.82   15.16   1
   6  -2  -2   73.96    4.82   1
   6  -2  -1    6.60    4.88   1
   6  -2   0  459.24   35.15   1
   6  -2   1  127.92    6.11   1
   6  -2   2   61.00    4.37   1
   6  -2   3   50.84    5.70   1
   6  -2   4   10.69    5.30   1
   6  -2   5  102.21   10.11   1
   6  -2   6  680.69   37.05   1
   6  -2   7  291.73   19.81   1
   6  -1 -12   23.33   10.82   1
   6  -1 -11    8.70   10.38   1
   6  -1 -10   40.96    7.55   1
   6  -1  -9  152.77   11.12   1
   6  -1  -8  286.96   17.28   1
   6  -1  -7  654.34   38.37   1
   6  -1  -6  144.24   11.29   1
   6  -1  -5    6.92    3.42   1
   6  -1  -4   26.42    3.91   1
   6  -1  -3  306.25   14.00   1
   6  -1  -2  519.84   24.17   1
   6  -1  -1  347.08   21.24   1
   6  -1   0    5.71    4.92   1
   6  -1   1   47.06    5.35   1
   6  -1   2  190.44   14.35   1
   6  -1   3  197.12   15.16   1
   6  -1   4   14.06    3.38   1
   6  -1   5   32.04    6.91   1
   6  -1   6   23.72    6.04   1
   6   0 -12   42.64   11.23   1
   6   0 -11  201.64   17.32   1
   6   0 -10   25.20   10.74   1
   6   0  -9   35.52    9.30   1
   6   0  -8   10.63    5.74   1
   6   0  -7   82.99    9.47   1
   6   0  -6  516.20   26.81   1
   6   0  -5   35.52    5.96   1
   6   0  -4   11.02    4.52   1
   6   0  -3    3.50    5.68   1
   6   0  -2   13.10    4.13   1
   6   0  -1 1450.85   63.23   1
   6   0   0  527.62   24.81   1
   6   0   1  117.07    9.31   1
   6   0   2  112.78    8.71   1
   6   0   3   92.54    9.24   1
   6   0   4   69.22    9.15   1
   6   0   5   85.56   10.73   1
   6   0   6  321.13   22.94   1
   6   1 -11   22.28   11.80   1
   6   1 -10   20.98    7.60   1
   6   1  -9  534.07   37.44   1
   6   1  -8   -1.69    8.68   1
   6   1  -7    6.71    5.28   1
   6   1  -6    0.10    7.79   1
   6   1  -5  390.85   22.14   1
   6   1  -4  556.96   33.04   1
   6   1  -3  395.61   23.87   1
   6   1  -2   -9.30    4.33   1
   6   1  -1  146.17   11.12   1
   6   1   0   12.39    6.83   1
   6   1   1  154.26   10.68   1
   6   1   2  579.36   41.88   1
   6   1   3    9.18    7.51   1
   6   1   4   92.16   10.18   1
   6   1   5   23.23    8.39   1
   6   2 -10   -2.50    7.58   1
   6   2  -9    5.38    7.10   1
   6   2  -8  272.25   24.75   1
   6   2  -7  244.92   20.34   1
   6   2  -6   67.73    8.39   1
   6   2  -5   46.24    7.34   1
   6   2  -4    1.59    6.07   1
   6   2  -3   71.06    7.92   1
   6   2  -2  476.99   25.77   1
   6   2  -1  240.87   17.07   1
   6   2   0    1.69    8.58   1
   6   2   1   -4.58    6.08   1
   6   2   2  100.60   12.64   1
   6   2   3  181.71   16.18   1
   6   3  -8   -3.20    8.02   1
   6   3  -7   37.70    8.96   1
   6   3  -6   23.33   10.34   1
   6   3  -5  128.82   14.07   1
   6   3  -4   35.28    8.20   1
   6   3  -3  112.57   13.37   1
   6   3  -2   76.74    9.99   1
   6   3  -1  454.97   32.85   1
   6   3   0  304.15   21.28   1
   7  -6  -6    9.42   12.34   1
   7  -6  -5  671.85   39.92   1
   7  -6  -4   -4.28    6.79   1
   7  -6  -3   16.40    9.64   1
   7  -6  -2   19.10    5.77   1
   7  -6  -1   83.54    7.31   1
   7  -6   0  151.78   11.09   1
   7  -6   1  109.20   14.84   1
   7  -6   2  118.16   15.00   1
   7  -5  -8   27.88    8.45   1
   7  -5  -7   51.55    8.33   1
   7  -5  -6   31.25    5.70   1
   7  -5  -5  209.38   16.79   1
   7  -5  -4  385.34   24.34   1
   7  -5  -3  324.72   19.46   1
   7  -5  -2    0.40    3.88   1
   7  -5  -1   36.48    4.83   1
   7  -5   0  137.83    7.98   1
   7  -5   1   98.21    9.32   1
   7  -5   2  438.06   38.09   1
   7  -5   3  153.76   13.89   1
   7  -4  -9   15.13    8.40   1
   7  -4  -8  109.20   11.29   1
   7  -4  -7   31.25    9.17   1
   7  -4  -6  621.01   28.41   1
   7  -4  -5  144.72    8.90   1
   7  -4  -4   24.70    3.58   1
   7  -4  -3   20.52    3.26   1
   7  -4  -2  144.96    8.19   1
   7  -4  -1  654.34   21.49   1
   7  -4   0  -13.47    6.39   1
   7  -4   1    1.10    4.51   1
   7  -4   2    9.92    6.80   1
   7  -4   3  130.87   11.90   1
   7  -4   4  153.26   13.37   1
   7  -3 -10  223.80   18.85   1
   7  -3  -9   56.85   11.76   1
   7  -3  -8   -6.60    8.79   1
   7  -3  -7  326.89   23.87   1
   7  -3  -6  114.92    7.50   1
   7  -3  -5  180.90    6.99   1
   7  -3  -4  502.66   14.80   1
   7  -3  -3  184.14    6.24   1
   7  -3  -2   52.56    4.35   1
   7  -3  -1   14.06    4.80   1
   7  -3   0  127.24    9.93   1
   7  -3   1    2.89    4.59   1
   7  -3   2   -2.10    6.50   1
   7  -3   3    0.59    7.05   1
   7  -3   4  126.56   12.60   1
   7  -2 -10    5.71   10.90   1
   7  -2  -9   17.98    7.63   1
   7  -2  -8  324.72   25.95   1
   7  -2  -7  152.77   13.10   1
   7  -2  -6    5.90    7.92   1
   7  -2  -5   32.15    5.33   1
   7  -2  -4  171.61   10.48   1
   7  -2  -3   78.32    5.84   1
   7  -2  -2  170.82    9.67   1
   7  -2  -1   72.76    6.31   1
   7  -2   0    4.88    6.41   1
   7  -2   1   78.85    8.17   1
   7  -2   2  301.72   18.06   1
   7  -2   3  255.04   17.25   1
   7  -2   4   -0.10    7.49   1
   7  -1 -10   99.20   11.95   1
   7  -1  -9   35.76    8.97   1
   7  -1  -8   95.45   13.29   1
   7  -1  -7  147.14   12.37   1
   7  -1  -6  316.84   20.29   1
   7  -1  -5    3.61    7.52   1
   7  -1  -4   16.56    8.22   1
   7  -1  -3    0.10    4.96   1
   7  -1  -2  192.10   14.41   1
   7  -1  -1  523.49   34.32   1
   7  -1   0   53.58    6.88   1
   7  -1   1    2.69    4.79   1
   7  -1   2   59.44    9.41   1
   7  -1   4   26.94    6.54   1
   7   0  -9   23.33    8.11   1
   7   0  -8   41.73   11.37   1
   7   0  -7   18.58    6.81   1
   7   0  -6   57.76   10.94   1
   7   0  -5  806.56   52.82   1
   7   0  -4  408.04   26.66   1
   7   0  -3  119.03   13.31   1
   7   0  -2   39.69    6.55   1
   7   0  -1   42.12    8.44   1
   7   0   0   64.32    8.98   1
   7   0   1  173.19   16.58   1
   7   0   2   68.56   10.93   1
   7   1  -8  109.83   13.83   1
   7   1  -7  144.72   12.51   1
   7   1  -6   15.68   10.45   1
   7   1  -5    7.40    9.30   1
   7   1  -4  192.38   17.48   1
   7   1  -3  155.50   14.96   1
   7   1  -2  177.69   17.06   1
   7   1  -1   11.42    9.40   1
   7   1   0  121.00   13.42   1
   7   1   1   -0.90    9.22   1
   7   2  -5  -25.50   12.22   1
   7   2  -4  140.90   14.01   1
   7   2  -3   -9.42    7.98   1
   7   2  -2   36.72   11.15   1
   8  -4  -5  259.85   21.60   1
   8  -4  -4   63.84   12.14   1
   8  -4  -3    3.39    5.00   1
   8  -4  -2  109.62    9.42   1
   8  -4  -1  114.70    8.57   1
   8  -4   0  311.17   19.76   1
   8  -3  -6   42.90    5.89   1
   8  -3  -5   -6.60    4.63   1
   8  -3  -4   83.91    5.50   1
   8  -3  -3  261.15   12.93   1
   8  -3  -2  108.58    8.54   1
   8  -3  -1    9.30    5.12   1
   8  -3   0    6.40    6.02   1
   8  -2  -6  513.93   38.99   1
   8  -2  -5   13.76    9.05   1
   8  -2  -4   24.40    9.88   1
   8  -2  -3   19.10    6.73   1
   8  -2  -2   68.56   10.93   1
   8  -2   0   14.36    9.17   1
   8  -1  -5  371.33   27.75   1
   8  -1  -4   23.81    7.52   1
   8  -1  -3    7.08    6.60   1
   8  -1  -2  107.74   14.12   1
   0   0   0    0.00    0.00   0
;
_shelx_hkl_checksum              92306
_shelx_res_file
;
    shelx.res created by SHELXL-2014/7
TITL Kmc1 light yellow (orange in bulk?) 123K plate 0.5 0.25 0.05
CELL  0.71073   6.3875   6.7470  11.3030   94.289  103.160  108.456
ZERR     1.00   0.0002   0.0002   0.0005    0.002    0.002    0.002
LATT   1
SFAC  CA   S    O    N    C    H
UNIT  1 2 10 2 12 16
MERG   2
dfix .88 .01 o1w h1w o1w h2w o2w h3w o2w h4w
dfix 1.33 .02 h1w h2w h3w h4w
EQIV $1 -x+2, -y+1, -z+1
HTAB O1W O2_$1
EQIV $2 -x+2, -y+2, -z+1
HTAB O1W O1_$2
htab o2w o2_$2
EQIV $3 -x+1, -y+2, -z+1
HTAB O2W O1_$3
FMAP   2
PLAN   20
ACTA    52.00
BOND   $H
CONF
L.S.   4
TEMP  -150.00
WGHT    0.025300    0.286100
FVAR       1.28696
CA1   1   10.500000   10.500000   10.500000    10.50000    0.01060    0.01022 =
         0.01336    0.00172    0.00191    0.00197
S1    2    0.810111    0.852569    0.309130    11.00000    0.00967    0.01111 =
         0.01310    0.00152    0.00129    0.00092
O1    3    0.824836    1.064809    0.357038    11.00000    0.01533    0.01421 =
         0.02059   -0.00317    0.00107    0.00379
O2    3    1.032840    0.838885    0.308025    11.00000    0.01143    0.01851 =
         0.01819    0.00201    0.00078    0.00477
O3    3    0.684304    0.690905    0.370036    11.00000    0.01731    0.02145 =
         0.01519    0.00724    0.00208   -0.00190
O1W   3    0.857381    0.518809    0.617332    11.00000    0.01300    0.01835 =
         0.03296    0.00690   -0.00181    0.00394
O2W   3    0.546661    0.825179    0.610475    11.00000    0.01557    0.01469 =
         0.03480   -0.00554    0.00671    0.00222
N1    4    0.042551    0.547850   -0.039150    11.00000    0.01201    0.01599 =
         0.01891    0.00074    0.00063    0.00197
C1    5    0.645455    0.795612    0.153857    11.00000    0.01227    0.00926 =
         0.01416    0.00138    0.00158    0.00265
C2    5    0.410487    0.692585    0.125437    11.00000    0.01260    0.01205 =
         0.01753    0.00269    0.00364    0.00360
AFIX  43
H2    6    0.336854    0.649827    0.188103    11.00000   -1.20000
AFIX   0
C3    5    0.285242    0.653422    0.002609    11.00000    0.01132    0.01197 =
         0.01844    0.00127    0.00116    0.00303
C4    5    0.392640    0.717573   -0.088813    11.00000    0.01735    0.01405 =
         0.01429    0.00042   -0.00033    0.00379
AFIX  43
H4    6    0.304667    0.692615   -0.171915    11.00000   -1.20000
AFIX   0
C5    5    0.628266    0.818104   -0.059111    11.00000    0.01758    0.01743 =
         0.01630    0.00306    0.00576    0.00442
AFIX  43
H5    6    0.701876    0.859234   -0.122003    11.00000   -1.20000
AFIX   0
C6    5    0.756173    0.858428    0.062756    11.00000    0.01236    0.01284 =
         0.01955    0.00165    0.00346    0.00178
AFIX  43
H6    6    0.917334    0.928041    0.083855    11.00000   -1.20000
AFIX   0
H1W   6    0.922199    0.429238    0.644221    11.00000    0.04507
H2W   6    0.973052    0.634620    0.629808    11.00000    0.05715
H3W   6    0.671297    0.933242    0.632247    11.00000    0.04770
H4W   6    0.441937    0.877071    0.617538    11.00000    0.04043
HKLF 4
REM  Kmc1 light yellow (orange in bulk?) 123K plate 0.5 0.25 0.05
REM R1 =  0.0270 for    1775 Fo > 4sig(Fo)  and  0.0344 for all    2038 data
REM    140 parameters refined using      6 restraints
END
WGHT      0.0253      0.2861
REM Highest difference peak  0.398,  deepest hole -0.458,  1-sigma level  0.060
Q1    1   0.7221  0.8280  0.2237  11.00000  0.05    0.40
Q2    1   0.5326  0.7360  0.1396  11.00000  0.05    0.31
Q3    1   0.1746  0.5954 -0.0172  11.00000  0.05    0.26
Q4    1   0.7064  0.7909  0.1070  11.00000  0.05    0.24
Q5    1   0.5385  0.7412  0.5396  11.00000  0.05    0.23
Q6    1   0.6957  0.8534  0.1169  11.00000  0.05    0.23
Q7    1   0.9953  0.8890  0.3476  11.00000  0.05    0.23
Q8    1   0.3385  0.6891 -0.0429  11.00000  0.05    0.22
Q9    1   0.4951  0.7998 -0.0745  11.00000  0.05    0.22
Q10   1   0.3502  0.6488  0.0606  11.00000  0.05    0.22
Q11   1   0.0000  0.5000  0.0000  10.50000  0.05    0.21
Q12   1   0.6666  0.8421  0.0060  11.00000  0.05    0.20
Q13   1   0.2617  0.6790  0.5490  11.00000  0.05    0.19
Q14   1   0.7084  0.4590  0.5965  11.00000  0.05    0.19
Q15   1   0.8908  0.8037 -0.1220  11.00000  0.05    0.19
Q16   1  -0.0585  0.5372 -0.0989  11.00000  0.05    0.18
Q17   1   0.5125  0.8516  0.5417  11.00000  0.05    0.18
Q18   1   0.7469  0.7519  0.3405  11.00000  0.05    0.18
Q19   1   0.9354  0.7643  0.2862  11.00000  0.05    0.18
Q20   1   0.7827  1.0987  0.3214  11.00000  0.05    0.17
;
_shelx_res_checksum              86414
loop_
_space_group_symop_operation_xyz
'x, y, z'
'-x, -y, -z'
loop_
_atom_site_type_symbol
_atom_site_label
_atom_site_fract_x
_atom_site_fract_y
_atom_site_fract_z
_atom_site_U_iso_or_equiv
_atom_site_adp_type
_atom_site_calc_flag
_atom_site_occupancy
_atom_site_disorder_assembly
_atom_site_disorder_group
Ca Ca1 0.5000 0.5000 0.5000 0.01202(12) Uani d 1 . .
S S1 0.81011(6) 0.85257(6) 0.30913(3) 0.01227(11) Uani d 1 . .
O O1 0.82484(19) 1.06481(17) 0.35704(11) 0.0180(3) Uani d 1 . .
O O2 1.03284(18) 0.83889(18) 0.30803(10) 0.0167(2) Uani d 1 . .
O O3 0.6843(2) 0.69091(18) 0.37004(11) 0.0202(3) Uani d 1 . .
O O1W 0.8574(2) 0.5188(2) 0.61733(12) 0.0230(3) Uani d 1 . .
O O2W 0.5467(2) 0.82518(18) 0.61047(12) 0.0229(3) Uani d 1 . .
N N1 0.0426(2) 0.5479(2) -0.03915(13) 0.0170(3) Uani d 1 . .
C C1 0.6455(3) 0.7956(2) 0.15386(14) 0.0125(3) Uani d 1 . .
C C2 0.4105(3) 0.6926(2) 0.12544(15) 0.0143(3) Uani d 1 . .
H H2 0.3369 0.6498 0.1881 0.017 Uiso calc 1 . .
C C3 0.2852(3) 0.6534(2) 0.00261(15) 0.0147(3) Uani d 1 . .
C C4 0.3926(3) 0.7176(2) -0.08881(15) 0.0165(3) Uani d 1 . .
H H4 0.3047 0.6926 -0.1719 0.020 Uiso calc 1 . .
C C5 0.6283(3) 0.8181(3) -0.05911(15) 0.0173(3) Uani d 1 . .
H H5 0.7019 0.8592 -0.1220 0.021 Uiso calc 1 . .
C C6 0.7562(3) 0.8584(2) 0.06276(15) 0.0157(3) Uani d 1 . .
H H6 0.9173 0.9280 0.0839 0.019 Uiso calc 1 . .
H H1W 0.922(4) 0.429(3) 0.644(2) 0.045(7) Uiso d 1 . .
H H2W 0.973(3) 0.635(2) 0.630(2) 0.057(8) Uiso d 1 . .
H H3W 0.671(2) 0.933(3) 0.632(2) 0.048(7) Uiso d 1 . .
H H4W 0.442(3) 0.877(3) 0.618(2) 0.040(7) Uiso d 1 . .
loop_
_atom_site_aniso_label
_atom_site_aniso_U_11
_atom_site_aniso_U_22
_atom_site_aniso_U_33
_atom_site_aniso_U_12
_atom_site_aniso_U_13
_atom_site_aniso_U_23
Ca1 0.0106(2) 0.0102(2) 0.0134(2) 0.00197(16) 0.00191(16) 0.00172(16)
S1 0.00967(19) 0.01111(19) 0.01310(19) 0.00092(14) 0.00129(14) 0.00152(14)
O1 0.0153(6) 0.0142(6) 0.0206(6) 0.0038(4) 0.0011(5) -0.0032(5)
O2 0.0114(5) 0.0185(6) 0.0182(6) 0.0048(4) 0.0008(4) 0.0020(5)
O3 0.0173(6) 0.0215(6) 0.0152(6) -0.0019(5) 0.0021(5) 0.0072(5)
O1W 0.0130(6) 0.0183(6) 0.0330(7) 0.0039(5) -0.0018(5) 0.0069(5)
O2W 0.0156(6) 0.0147(6) 0.0348(7) 0.0022(5) 0.0067(5) -0.0055(5)
N1 0.0120(7) 0.0160(7) 0.0189(7) 0.0020(5) 0.0006(5) 0.0007(5)
C1 0.0123(7) 0.0093(7) 0.0142(7) 0.0027(6) 0.0016(6) 0.0014(6)
C2 0.0126(7) 0.0120(7) 0.0175(8) 0.0036(6) 0.0036(6) 0.0027(6)
C3 0.0113(7) 0.0120(7) 0.0184(8) 0.0030(6) 0.0012(6) 0.0013(6)
C4 0.0173(8) 0.0141(8) 0.0143(8) 0.0038(6) -0.0003(6) 0.0004(6)
C5 0.0176(8) 0.0174(8) 0.0163(8) 0.0044(6) 0.0058(6) 0.0031(6)
C6 0.0124(7) 0.0128(7) 0.0196(8) 0.0018(6) 0.0035(6) 0.0017(6)
loop_
_atom_type_symbol
_atom_type_description
_atom_type_scat_dispersion_real
_atom_type_scat_dispersion_imag
_atom_type_scat_source
Ca Ca 0.2262 0.3064 'International Tables Vol C Tables 4.2.6.8 and 6.1.1.4'
S S 0.1246 0.1234 'International Tables Vol C Tables 4.2.6.8 and 6.1.1.4'
O O 0.0106 0.0060 'International Tables Vol C Tables 4.2.6.8 and 6.1.1.4'
N N 0.0061 0.0033 'International Tables Vol C Tables 4.2.6.8 and 6.1.1.4'
C C 0.0033 0.0016 'International Tables Vol C Tables 4.2.6.8 and 6.1.1.4'
H H 0.0000 0.0000 'International Tables Vol C Tables 4.2.6.8 and 6.1.1.4'
loop_
_geom_angle_atom_site_label_1
_geom_angle_atom_site_label_2
_geom_angle_atom_site_label_3
_geom_angle_site_symmetry_1
_geom_angle_site_symmetry_3
_geom_angle
_geom_angle_publ_flag
O3 Ca1 O3 . 2_666 180.0 y
O3 Ca1 O1W . . 87.66(4) y
O3 Ca1 O1W 2_666 . 92.34(4) ?
O3 Ca1 O1W . 2_666 92.34(4) y
O3 Ca1 O1W 2_666 2_666 87.66(4) ?
O1W Ca1 O1W . 2_666 180.00(6) y
O3 Ca1 O2W . 2_666 93.07(4) y
O3 Ca1 O2W 2_666 2_666 86.93(5) ?
O1W Ca1 O2W . 2_666 90.52(5) y
O1W Ca1 O2W 2_666 2_666 89.48(5) ?
O3 Ca1 O2W . . 86.93(5) y
O3 Ca1 O2W 2_666 . 93.07(4) ?
O1W Ca1 O2W . . 89.48(5) y
O1W Ca1 O2W 2_666 . 90.52(5) ?
O2W Ca1 O2W 2_666 . 180.0 y
O3 S1 O2 . . 112.30(7) ?
O3 S1 O1 . . 112.52(7) ?
O2 S1 O1 . . 112.61(7) ?
O3 S1 C1 . . 105.40(7) ?
O2 S1 C1 . . 106.74(7) ?
O1 S1 C1 . . 106.66(7) ?
S1 O3 Ca1 . . 166.87(8) ?
Ca1 O1W H1W . . 136.4(15) ?
Ca1 O1W H2W . . 120.0(16) ?
H1W O1W H2W . . 102.3(17) ?
Ca1 O2W H3W . . 125.5(15) ?
Ca1 O2W H4W . . 127.9(15) ?
H3W O2W H4W . . 103.9(17) ?
N1 N1 C3 2_565 . 113.72(17) ?
C2 C1 C6 . . 121.50(14) ?
C2 C1 S1 . . 119.72(12) ?
C6 C1 S1 . . 118.78(12) ?
C1 C2 C3 . . 118.31(15) ?
C1 C2 H2 . . 120.8 ?
C3 C2 H2 . . 120.8 ?
C4 C3 C2 . . 120.82(14) ?
C4 C3 N1 . . 115.24(14) ?
C2 C3 N1 . . 123.94(15) ?
C3 C4 C5 . . 120.17(15) ?
C3 C4 H4 . . 119.9 ?
C5 C4 H4 . . 119.9 ?
C4 C5 C6 . . 119.87(15) ?
C4 C5 H5 . . 120.1 ?
C6 C5 H5 . . 120.1 ?
C5 C6 C1 . . 119.31(14) ?
C5 C6 H6 . . 120.3 ?
C1 C6 H6 . . 120.3 ?
loop_
_geom_bond_atom_site_label_1
_geom_bond_atom_site_label_2
_geom_bond_site_symmetry_2
_geom_bond_distance
_geom_bond_publ_flag
Ca1 O3 . 2.3050(11) y
Ca1 O3 2_666 2.3051(11) y
Ca1 O1W . 2.3235(12) y
Ca1 O1W 2_666 2.3236(12) y
Ca1 O2W 2_666 2.3385(12) y
Ca1 O2W . 2.3385(12) y
S1 O3 . 1.4556(11) ?
S1 O2 . 1.4573(12) ?
S1 O1 . 1.4588(12) ?
S1 C1 . 1.7711(16) ?
O1W H1W . 0.870(9) ?
O1W H2W . 0.864(10) ?
O2W H3W . 0.862(10) ?
O2W H4W . 0.863(9) ?
N1 N1 2_565 1.256(3) y
N1 C3 . 1.432(2) y
C1 C2 . 1.388(2) ?
C1 C6 . 1.395(2) ?
C2 C3 . 1.394(2) ?
C2 H2 . 0.9500 ?
C3 C4 . 1.388(2) ?
C4 C5 . 1.388(2) ?
C4 H4 . 0.9500 ?
C5 C6 . 1.389(2) ?
C5 H5 . 0.9500 ?
C6 H6 . 0.9500 ?
loop_
_geom_hbond_atom_site_label_D
_geom_hbond_atom_site_label_H
_geom_hbond_atom_site_label_A
_geom_hbond_site_symmetry_A
_geom_hbond_distance_DH
_geom_hbond_distance_HA
_geom_hbond_distance_DA
_geom_hbond_angle_DHA
O1W H1W O2 2_766 0.870(9) 2.013(11) 2.8521(17) 162(2)
O1W H2W O1 2_776 0.864(10) 2.003(11) 2.8454(17) 165(2)
O2W H3W O2 2_776 0.862(10) 1.953(10) 2.8119(16) 174(2)
O2W H4W O1 2_676 0.863(9) 1.941(10) 2.7907(16) 168(2)
loop_
_geom_torsion_atom_site_label_1
_geom_torsion_atom_site_label_2
_geom_torsion_atom_site_label_3
_geom_torsion_atom_site_label_4
_geom_torsion_site_symmetry_1
_geom_torsion_site_symmetry_2
_geom_torsion_site_symmetry_3
_geom_torsion_site_symmetry_4
_geom_torsion
_geom_torsion_publ_flag
O2 S1 O3 Ca1 . . . . 111.4(3) ?
O1 S1 O3 Ca1 . . . . -16.9(4) ?
C1 S1 O3 Ca1 . . . . -132.8(3) ?
O3 S1 C1 C2 . . . . 27.51(14) ?
O2 S1 C1 C2 . . . . 147.11(12) ?
O1 S1 C1 C2 . . . . -92.29(13) ?
O3 S1 C1 C6 . . . . -153.27(13) ?
O2 S1 C1 C6 . . . . -33.67(14) ?
O1 S1 C1 C6 . . . . 86.93(13) ?
C6 C1 C2 C3 . . . . -0.3(2) ?
S1 C1 C2 C3 . . . . 178.88(11) ?
C1 C2 C3 C4 . . . . -0.6(2) ?
C1 C2 C3 N1 . . . . 179.69(14) ?
N1 N1 C3 C4 2_565 . . . 165.42(17) ?
N1 N1 C3 C2 2_565 . . . -14.8(3) ?
C2 C3 C4 C5 . . . . 1.4(2) ?
N1 C3 C4 C5 . . . . -178.84(14) ?
C3 C4 C5 C6 . . . . -1.3(2) ?
C4 C5 C6 C1 . . . . 0.4(2) ?
C2 C1 C6 C5 . . . . 0.4(2) ?
S1 C1 C6 C5 . . . . -178.82(12) ?
