#------------------------------------------------------------------------------
#$Date: 2020-04-10 08:10:23 +0300 (Fri, 10 Apr 2020) $
#$Revision: 250601 $
#$URL: file:///home/coder/svn-repositories/cod/cif/2/02/20/2022022.cif $
#------------------------------------------------------------------------------
#
# This file is available in the Crystallography Open Database (COD),
# http://www.crystallography.net/. The original data for this entry
# were provided by IUCr Journals, http://journals.iucr.org/.
#
# The file may be used within the scientific community so long as
# proper attribution is given to the journal article from which the
# data were obtained.
#
data_2022022
loop_
_publ_author_name
'Jha, Kunal Kumar'
'Gruza, Barbara'
'Kumar, Prashant'
'Chodkiewicz, Michal Leszek'
'Dominiak, Paulina Maria'
_publ_section_title
;
 TAAM: a reliable and user friendly tool for hydrogen-atom location using
 routine X-ray diffraction data
;
_journal_issue                   3
_journal_name_full
'Acta Crystallographica Section B Structural Science, Crystal Engineering and Materials'
_journal_paper_doi               10.1107/S2052520620002917
_journal_volume                  76
_journal_year                    2020
_chemical_formula_moiety         'C H O2, H2 O'
_chemical_formula_sum            'C H3 O3'
_chemical_formula_weight         63.03
_space_group_crystal_system      monoclinic
_space_group_IT_number           14
_space_group_name_Hall           '-P 2ybc'
_space_group_name_H-M_alt        'P 1 21/c 1'
_symmetry_Int_Tables_number      14
_audit_creation_date             2019-09-27
_audit_creation_method
;
Olex2 1.2
(compiled 2018.05.29 svn.r3508 for OlexSys, GUI svn.r5506)
;
_cell_angle_alpha                90.00
_cell_angle_beta                 103.842(3)
_cell_angle_gamma                90.00
_cell_formula_units_Z            4
_cell_length_a                   6.0950(5)
_cell_length_b                   3.4881(3)
_cell_length_c                   11.8462(9)
_cell_measurement_temperature    100(1)
_cell_volume                     244.54(3)
_computing_molecular_graphics    'Olex2 (Dolomanov et al., 2009)'
_computing_publication_material  'Olex2 (Dolomanov et al., 2009)'
_computing_structure_refinement  'olex2.refine (Bourhis et al., 2015)'
_diffrn_ambient_temperature      100(1)
_diffrn_measured_fraction_theta_full 0.8072
_diffrn_measured_fraction_theta_max 0.8072
_diffrn_measurement_device_type  'APEX II CCD detector'
_diffrn_radiation_type           'Mo K\a'
_diffrn_radiation_wavelength     0.71073
_diffrn_reflns_av_R_equivalents  0.0000
_diffrn_reflns_av_unetI/netI     0.0293
_diffrn_reflns_limit_h_max       13
_diffrn_reflns_limit_h_min       -13
_diffrn_reflns_limit_k_max       7
_diffrn_reflns_limit_k_min       0
_diffrn_reflns_limit_l_max       26
_diffrn_reflns_limit_l_min       0
_diffrn_reflns_number            2499
_diffrn_reflns_theta_full        54.8115
_diffrn_reflns_theta_max         54.81
_diffrn_reflns_theta_min         3.54
_exptl_absorpt_coefficient_mu    0.181
_exptl_crystal_density_diffrn    1.7120
_exptl_crystal_F_000             132.1419
_refine_diff_density_max         0.2198
_refine_diff_density_min         -0.2577
_refine_diff_density_rms         0.0480
_refine_ls_d_res_high            0.4348
_refine_ls_d_res_low             5.7511
_refine_ls_goodness_of_fit_ref   1.5736
_refine_ls_hydrogen_treatment    refall
_refine_ls_matrix_type           full
_refine_ls_number_constraints    0
_refine_ls_number_parameters     49
_refine_ls_number_reflns         2499
_refine_ls_number_restraints     0
_refine_ls_restrained_S_all      1.5736
_refine_ls_R_factor_all          0.0179
_refine_ls_R_factor_gt           0.0179
_refine_ls_shift/su_max          0.0010
_refine_ls_shift/su_mean         0.0002
_refine_ls_structure_factor_coef Fsqd
_refine_ls_weighting_details
'w=1/[\s^2^(Fo^2^)+(0.0111P)^2^] where P=(Fo^2^+2Fc^2^)/3'
_refine_ls_weighting_scheme      calc
_refine_ls_wR_factor_gt          0.0542
_refine_ls_wR_factor_ref         0.0542
_reflns_Friedel_coverage         0.0
_reflns_limit_h_max              13
_reflns_limit_h_min              -13
_reflns_limit_k_max              7
_reflns_limit_k_min              0
_reflns_limit_l_max              26
_reflns_limit_l_min              0
_reflns_number_gt                2499
_reflns_number_total             2499
_reflns_threshold_expression     I>=2u(I)
_iucr_refine_instructions_details
;
TITL oxa07
CELL 0.71073 6.095 3.4881 11.8462 90 103.842 90
ZERR 4 0 0 0 0 0 0
LATT 1
SYMM -X,0.5+Y,0.5-Z
SFAC C H O
UNIT 4 12 12

ACTA 
BOND $H
WGHT 0.011071 0
FVAR 1.007466
REM <olex2.extras>
REM <HklSrc "%.\\b1551b4637615e51fd08543c7097e194.hkl">
REM </olex2.extras>

O1    3     0.43477  0.44414  0.34987  11.00000  0.01321  0.01896  0.00828 =
 -0.00079  0.00198  0.00433 
O2    3     0.24248  0.74236  0.46370  11.00000  0.01137  0.01854  0.00947 =
 -0.00076  0.00114  0.00537 
C1    1     0.40303  0.55870  0.44798  11.00000  0.00946  0.01197  0.00809 =
 -0.00007  0.00135  0.00176 
O3    3     0.13003  0.63100  0.17843  11.00000  0.01086  0.01844  0.00939 =
 0.00112  0.00057 -0.00155 
H3a   2     0.01057  0.46171  0.14944  11.00000  0.02553 
H3b   2     0.18754  0.69057  0.11600  11.00000  0.02480 
H1    2     0.30585  0.52488  0.28465  11.00000  0.03924 
HKLF 4

END
Q1 1 0.361111 0.458333 0.319444 11 0.05 0.22
Q2 1 0.333333 0.708333 0.458333 11 0.05 0.21
Q3 1 0.444444 0.5 0.402778 11 0.05 0.19
Q4 1 0.25 0.5 0.236111 11 0.05 0.16
Q5 1 0.222222 1.125 0.083333 11 0.05 0.13
Q6 1 0.388889 0.625 0.097222 11 0.05 0.12
Q7 1 0.055556 0.541667 0.180556 11 0.05 0.12
Q8 1 0.361111 0.5 0.555556 11 0.05 0.11
Q9 1 -0.111111 0.791667 0.069444 11 0.05 0.1
Q10 1 -0.027778 0.875 0.166667 11 0.05 0.1
Q11 1 0.055556 0.25 0.111111 11 0.05 0.09
Q12 1 0.277778 1.125 0.402778 11 0.05 0.09
Q13 1 0.083333 0.958333 0.097222 11 0.05 0.09
Q14 1 0.222222 0.25 0.277778 11 0.05 0.09
Q15 1 -0.055556 0.5 0.097222 11 0.05 0.08
Q16 1 0.611111 0.791667 0.402778 11 0.05 0.08
Q17 1 0.083333 0.375 0.013889 11 0.05 0.07
Q18 1 0.055556 0.208333 0.222222 11 0.05 0.07
Q19 1 0.388889 0.875 0.263889 11 0.05 0.07
Q20 1 0.444444 0.166667 0.263889 11 0.05 0.07

  REM The information below was added by Olex2.
  REM
  REM R1 = 0.0179 for 2499 Fo > 4sig(Fo) and 0.0179 for all 2499 data
  REM 49 parameters refined using 0 restraints
  REM Highest difference peak 0.2198, deepest hole -0.2577
  REM Mean Shift 0.0002, Max Shift 0.0010.

  REM +++ Tabular Listing of Refinement Information +++
  REM R1_all = 0.0179
  REM R1_gt = 0.0179
  REM wR_ref = 0.0542
  REM GOOF = 1.5736
  REM Shift_max = 0.0010
  REM Shift_mean = 0.0002
  REM Reflections_all = 2499
  REM Reflections_gt = 2499
  REM Parameters = 49
  REM Hole = -0.2577
  REM Peak = 0.2198
  REM Flack = n/a

  
;
_cod_data_source_file            60_TAAM_iso_max.cif
_cod_data_source_block           60_TAAM_iso_max
_cod_database_code               2022022
_olex2_refinement_description
;
;
_iucr_refine_fcf_details
;
data_oxa07
_computing_structure_refinement   'olex2.refine (Bourhis et al., 2015)'
_shelx_refln_list_code            4
loop_
  _space_group_symop_id
  _space_group_symop_operation_xyz
  1  x,y,z
  2  -x,y+1/2,-z+1/2
  3  -x,-y,-z
  4  x,-y-1/2,z-1/2

_space_group_crystal_system       monoclinic
_space_group_IT_number            14
_space_group_name_H-M_alt         'P 1 21/c 1'
_space_group_name_Hall            '-P 2ybc'
_symmetry_space_group_name_H-M    'P 1 21/c 1'
_symmetry_space_group_name_Hall   '-P 2ybc'
_symmetry_Int_Tables_number       14
_cell_length_a                    6.095
_cell_length_b                    3.4881
_cell_length_c                    11.8462
_cell_angle_alpha                 90
_cell_angle_beta                  103.842
_cell_angle_gamma                 90
_cell_volume                      244.535921
loop_
  _refln_index_h
  _refln_index_k
  _refln_index_l
  _refln_F_squared_calc
  _refln_F_squared_meas
  _refln_F_squared_sigma
  _refln_F_squared_weight
  _refln_observed_status
-13 0 6 32.767 34.680 0.670 2.074 o
-13 0 8 3.299 3.192 0.227 23.070 o
-13 0 10 0.481 0.493 0.138 63.752 o
-13 0 12 10.955 11.143 0.345 9.080 o
-13 1 1 2.558 2.483 0.197 30.665 o
-13 1 2 13.684 13.143 0.384 7.146 o
-13 1 4 1.133 1.064 0.167 43.070 o
-13 1 8 3.494 3.655 0.148 51.950 o
-13 1 10 3.183 3.143 0.177 37.169 o
-13 1 12 3.187 3.192 0.128 68.821 o
-13 1 13 0.502 0.502 0.128 73.910 o
-13 2 1 3.840 4.030 0.217 24.868 o
-13 2 3 0.972 0.778 0.138 63.512 o
-13 2 4 0.744 0.857 0.148 55.429 o
-13 2 5 1.209 1.113 0.167 43.042 o
-13 2 6 0.512 0.463 0.138 63.748 o
-13 2 8 2.126 2.108 0.197 30.848 o
-13 2 9 1.263 1.340 0.177 38.376 o
-13 2 10 3.736 3.842 0.227 22.880 o
-13 2 12 0.944 1.054 0.167 43.121 o
-13 2 13 0.721 0.749 0.138 63.630 o
-13 3 6 3.939 3.606 0.207 27.235 o
-12 0 2 8.657 8.217 0.227 20.170 o
-12 0 4 39.880 41.636 0.749 1.595 o
-12 0 6 4.080 5.163 0.335 10.597 o
-12 0 10 2.446 2.276 0.118 82.762 o
-12 0 12 8.064 8.828 0.305 11.937 o
-12 0 16 16.982 16.591 0.434 5.454 o
-12 1 1 1.873 1.941 0.099 119.711 o
-12 1 2 1.008 1.094 0.079 191.480 o
-12 1 5 18.343 18.444 0.404 5.938 o
-12 1 6 4.285 4.335 0.128 65.055 o
-12 1 7 1.534 1.438 0.089 149.248 o
-12 1 8 11.357 11.646 0.276 13.178 o
-12 1 9 10.700 10.769 0.266 14.315 o
-12 1 10 2.680 2.532 0.099 115.086 o
-12 1 11 0.960 1.034 0.069 249.168 o
-12 1 12 6.359 6.650 0.256 17.175 o
-12 1 13 0.698 0.709 0.138 63.647 o
-12 1 15 12.876 12.739 0.276 12.617 o
-12 1 16 1.639 1.754 0.187 34.328 o
-12 1 17 0.732 0.581 0.138 63.658 o
-12 2 1 12.562 12.562 0.512 4.310 o
-12 2 2 4.877 4.926 0.197 29.087 o
-12 2 5 7.495 7.567 0.197 26.548 o
-12 2 6 0.265 0.266 0.079 195.265 o
-12 2 7 3.207 3.360 0.138 59.762 o
-12 2 8 3.967 4.384 0.197 29.705 o
-12 2 9 3.892 4.049 0.158 45.400 o
-12 2 11 8.203 8.473 0.325 10.643 o
-12 2 12 1.083 1.025 0.177 38.455 o
-12 2 13 4.649 4.512 0.246 19.201 o
-12 2 14 0.292 0.345 0.069 254.767 o
-12 3 1 1.485 1.517 0.167 42.883 o
-12 3 3 2.969 2.926 0.207 27.685 o
-12 3 6 0.776 0.916 0.158 48.722 o
-12 3 7 1.205 1.222 0.177 38.405 o
-12 3 11 1.491 1.468 0.187 34.401 o
-12 3 12 0.385 0.621 0.138 63.761 o
-12 3 14 3.482 3.419 0.217 25.073 o
-12 4 3 1.864 1.596 0.158 48.137 o
-12 4 4 1.437 1.616 0.167 42.883 o
-12 4 5 2.111 1.842 0.167 42.543 o
-12 4 6 5.104 4.897 0.236 20.583 o
-12 4 8 0.478 0.512 0.128 73.917 o
-12 4 9 1.344 1.212 0.167 42.985 o
-11 0 2 3.592 3.488 0.148 51.931 o
-11 0 4 9.001 8.847 0.217 21.387 o
-11 0 6 0.582 0.542 0.059 343.727 o
-11 0 8 82.194 82.297 3.399 0.098 o
-11 0 10 7.675 7.202 0.276 14.631 o
-11 0 12 2.372 2.552 0.128 70.915 o
-11 0 14 32.090 32.444 0.709 1.927 o
-11 0 16 1.252 1.330 0.187 34.469 o
-11 0 18 11.639 11.399 0.365 8.138 o
-11 0 20 1.956 1.783 0.177 38.090 o
-11 1 1 0.247 0.167 0.049 499.346 o
-11 1 2 5.549 5.695 0.158 42.341 o
-11 1 3 13.088 13.458 0.305 10.593 o
-11 1 4 34.113 34.739 0.857 1.382 o
-11 1 5 2.011 2.069 0.079 180.827 o
-11 1 6 0.202 0.148 0.039 780.066 o
-11 1 7 1.285 1.369 0.069 244.526 o
-11 1 8 1.222 1.271 0.079 189.792 o
-11 1 9 5.929 5.803 0.167 37.607 o
-11 1 10 3.522 3.754 0.128 67.515 o
-11 1 11 3.984 4.177 0.128 65.972 o
-11 1 12 12.660 12.907 0.296 11.325 o
-11 1 13 0.388 0.424 0.059 345.680 o
-11 1 14 6.116 5.872 0.167 37.358 o
-11 1 15 5.741 5.596 0.158 42.147 o
-11 1 16 2.292 2.276 0.089 142.856 o
-11 2 1 2.646 2.601 0.118 81.933 o
-11 2 2 0.294 0.296 0.059 346.567 o
-11 2 3 1.229 1.192 0.079 189.987 o
-11 2 4 10.574 10.444 0.266 14.400 o
-11 2 5 2.009 2.000 0.118 83.943 o
-11 2 6 5.965 5.980 0.187 30.823 o
-11 2 7 7.745 8.315 0.227 20.566 o
-11 2 10 1.016 0.897 0.089 152.236 o
-11 2 11 2.051 2.168 0.108 98.918 o
-11 2 12 2.389 2.414 0.108 97.574 o
-11 2 13 0.498 0.463 0.059 344.760 o
-11 2 14 1.325 1.182 0.089 150.666 o
-11 2 15 9.448 9.734 0.305 11.630 o
-11 2 17 0.684 0.680 0.138 63.658 o
-11 2 18 2.129 2.000 0.177 37.980 o
-11 3 1 0.905 1.094 0.099 123.680 o
-11 3 2 3.021 3.103 0.118 80.356 o
-11 3 3 0.359 0.355 0.059 346.071 o
-11 3 4 4.292 4.187 0.207 26.977 o
-11 3 5 6.008 6.118 0.167 37.341 o
-11 3 6 2.783 2.631 0.108 95.949 o
-11 3 7 3.188 3.468 0.158 46.419 o
-11 3 9 1.256 1.113 0.089 151.060 o
-11 3 10 11.488 11.261 0.325 9.984 o
-11 3 11 3.790 4.030 0.138 58.231 o
-11 3 12 1.011 0.956 0.089 152.161 o
-11 3 13 2.252 2.236 0.118 83.221 o
-11 3 14 0.391 0.335 0.069 254.487 o
-11 3 16 3.490 3.301 0.128 68.077 o
-11 4 1 1.234 1.261 0.177 38.393 o
-11 4 2 2.620 2.650 0.108 96.460 o
-11 4 3 4.934 5.192 0.177 35.170 o
-11 4 5 0.208 0.217 0.069 255.103 o
-11 4 6 6.180 6.099 0.276 15.045 o
-11 4 9 2.182 1.961 0.197 30.853 o
-11 4 10 3.413 3.310 0.227 23.029 o
-11 4 12 2.988 3.005 0.217 25.265 o
-11 4 13 5.437 5.330 0.256 17.556 o
-10 0 4 8.243 8.306 0.217 21.946 o
-10 0 6 11.290 11.665 0.690 2.471 o
-10 0 8 16.744 17.458 0.394 6.371 o
-10 0 10 11.322 12.049 0.286 12.392 o
-10 0 12 11.171 11.330 0.335 9.516 o
-10 0 16 2.767 2.837 0.207 27.758 o
-10 0 18 58.237 57.902 0.946 0.928 o
-10 0 20 1.718 1.911 0.128 72.333 o
-10 1 1 3.281 3.468 0.128 68.342 o
-10 1 2 0.468 0.532 0.049 494.596 o
-10 1 3 2.207 2.246 0.079 178.208 o
-10 1 4 0.736 0.739 0.049 487.218 o
-10 1 5 9.164 9.281 0.227 19.678 o
-10 1 7 44.848 45.390 1.005 0.965 o
-10 1 8 18.845 19.143 0.483 4.385 o
-10 1 9 9.598 9.606 0.256 15.793 o
-10 1 10 6.003 6.030 0.197 28.082 o
-10 1 11 1.803 1.892 0.089 146.814 o
-10 1 12 3.673 3.980 0.384 8.132 o
-10 1 13 10.842 11.281 0.355 8.640 o
-10 1 14 16.758 17.419 0.374 6.922 o
-10 1 16 0.879 0.749 0.069 250.883 o
-10 1 17 14.124 14.059 0.305 10.324 o
-10 1 18 2.286 2.158 0.108 98.263 o
-10 1 19 1.780 1.655 0.099 120.542 o
-10 1 21 0.418 0.434 0.128 73.951 o
-10 2 1 0.500 0.424 0.059 344.896 o
-10 2 2 10.671 10.483 0.414 6.565 o
-10 2 3 46.570 47.577 1.015 0.935 o
-10 2 4 26.695 27.527 0.650 2.373 o
-10 2 7 1.247 1.379 0.069 244.878 o
-10 2 8 8.717 8.759 0.217 21.567 o
-10 2 9 12.649 12.621 0.355 8.356 o
-10 2 10 0.834 0.749 0.059 339.883 o
-10 2 11 11.040 11.143 0.581 3.442 o
-10 2 12 4.622 4.985 0.167 39.427 o
-10 2 13 10.919 10.828 0.266 14.242 o
-10 2 14 13.110 12.956 0.296 11.220 o
-10 2 16 0.695 0.729 0.108 102.889 o
-10 2 17 3.397 3.675 0.217 25.060 o
-10 2 18 0.591 0.493 0.138 63.721 o
-10 3 1 2.466 2.798 0.108 96.724 o
-10 3 2 7.585 7.882 0.207 24.273 o
-10 3 3 3.481 3.596 0.128 67.778 o
-10 3 4 9.878 9.823 0.276 13.801 o
-10 3 6 10.394 10.404 0.266 14.459 o
-10 3 7 0.529 0.581 0.059 344.022 o
-10 3 8 5.554 5.547 0.167 38.163 o
-10 3 9 0.863 0.837 0.069 250.679 o
-10 3 10 7.421 7.054 0.187 29.221 o
-10 3 14 7.640 7.507 0.207 24.354 o
-10 3 15 2.415 2.719 0.108 97.013 o
-10 3 17 1.311 1.271 0.167 42.986 o
-10 3 18 0.370 0.374 0.118 86.800 o
-10 4 2 9.769 9.951 0.236 17.929 o
-10 4 3 6.035 5.734 0.167 37.527 o
-10 4 4 0.302 0.335 0.059 346.432 o
-10 4 5 0.965 0.975 0.069 249.367 o
-10 4 6 3.095 3.143 0.167 41.545 o
-10 4 8 2.947 2.709 0.207 27.724 o
-10 4 9 3.007 2.975 0.138 60.357 o
-10 4 10 6.629 6.857 0.305 12.296 o
-10 4 13 6.961 7.084 0.296 13.010 o
-10 4 16 9.699 10.059 0.325 10.336 o
-10 4 17 0.768 0.906 0.158 48.725 o
-10 5 2 6.183 5.714 0.266 16.151 o
-10 5 4 2.129 1.783 0.345 10.173 o
-10 5 5 2.650 2.542 0.207 27.833 o
-10 5 6 5.499 4.995 0.355 9.396 o
-10 5 10 0.569 0.729 0.089 153.571 o
-10 5 11 1.085 1.074 0.167 43.082 o
-10 5 12 13.207 12.985 0.374 7.531 o
-9 0 2 3.667 3.754 0.148 51.659 o
-9 0 4 55.118 56.178 1.172 0.693 o
-9 0 6 23.277 24.109 0.532 3.460 o
-9 0 8 4.151 4.148 0.138 57.472 o
-9 0 10 49.944 50.227 1.330 0.585 o
-9 0 16 20.117 20.493 0.493 4.147 o
-9 0 18 0.280 0.404 0.128 73.993 o
-9 0 20 1.082 0.778 0.099 123.641 o
-9 0 22 6.447 6.177 0.434 6.298 o
-9 1 1 0.505 0.493 0.039 766.949 o
-9 1 2 1.312 1.261 0.059 328.308 o
-9 1 3 0.122 0.128 0.030 1387.480 o
-9 1 4 10.031 9.941 0.227 19.097 o
-9 1 5 2.838 3.074 0.089 136.411 o
-9 1 6 21.215 21.784 0.483 4.200 o
-9 1 7 16.426 16.483 0.404 6.188 o
-9 1 8 4.597 4.670 0.138 56.126 o
-9 1 9 16.890 16.552 0.374 6.955 o
-9 1 10 1.010 1.103 0.069 248.456 o
-9 1 11 6.321 6.365 0.177 33.399 o
-9 1 13 0.326 0.374 0.108 103.298 o
-9 1 15 0.531 0.453 0.069 253.727 o
-9 1 16 2.578 2.453 0.128 70.653 o
-9 1 17 33.865 33.784 1.015 1.038 o
-9 1 18 6.210 6.266 0.187 30.523 o
-9 1 19 2.650 2.670 0.108 96.329 o
-9 1 20 4.084 3.980 0.148 50.932 o
-9 1 21 6.589 6.276 0.177 33.185 o
-9 1 23 2.042 2.000 0.187 34.174 o
-9 2 1 4.585 4.759 0.138 56.064 o
-9 2 3 0.687 0.581 0.049 490.064 o
-9 2 4 0.327 0.315 0.039 775.770 o
-9 2 5 5.771 5.833 0.148 46.808 o
-9 2 6 32.922 33.025 0.778 1.644 o
-9 2 7 9.459 9.567 0.227 19.467 o
-9 2 8 53.277 53.193 1.261 0.627 o
-9 2 9 1.272 1.350 0.069 244.770 o
-9 2 10 5.186 5.222 0.177 34.945 o
-9 2 12 3.080 3.103 0.118 80.200 o
-9 2 13 29.660 29.587 0.670 2.183 o
-9 2 14 4.444 4.759 0.148 49.833 o
-9 2 15 0.455 0.443 0.059 345.158 o
-9 2 16 9.003 9.084 0.236 18.432 o
-9 2 17 7.881 7.626 0.197 26.250 o
-9 2 18 13.931 13.557 0.404 6.512 o
-9 2 19 3.657 3.714 0.236 21.101 o
-9 2 21 6.601 6.788 0.286 13.950 o
-9 2 22 2.582 2.749 0.207 27.823 o
-9 3 1 2.559 2.365 0.187 33.927 o
-9 3 2 80.678 79.489 1.872 0.283 o
-9 3 3 11.907 12.611 0.296 11.522 o
-9 3 4 20.224 20.069 0.502 4.018 o
-9 3 6 0.977 1.094 0.059 335.477 o
-9 3 7 19.080 18.966 0.404 5.851 o
-9 3 8 6.291 6.315 0.187 30.441 o
-9 3 9 1.211 1.596 0.089 150.297 o
-9 3 10 4.770 4.640 0.158 44.032 o
-9 3 11 1.023 1.153 0.089 151.809 o
-9 3 12 39.091 40.060 1.113 0.850 o
-9 3 13 6.531 6.542 0.227 21.469 o
-9 3 14 5.800 6.010 0.167 37.636 o
-9 3 15 2.222 2.788 0.167 42.230 o
-9 3 16 2.811 2.847 0.108 95.483 o
-9 3 18 2.668 2.709 0.207 27.805 o
-9 4 1 10.867 11.044 0.256 15.137 o
-9 4 2 3.539 3.468 0.148 52.012 o
-9 4 3 19.949 19.094 0.404 5.769 o
-9 4 4 0.260 0.315 0.049 498.622 o
-9 4 6 7.519 7.301 0.236 19.372 o
-9 4 7 0.803 0.975 0.069 250.614 o
-9 4 8 3.971 3.970 0.158 45.357 o
-9 4 9 1.698 1.645 0.099 120.835 o
-9 4 10 0.532 0.394 0.059 344.762 o
-9 4 11 5.272 4.887 0.522 4.403 o
-9 4 12 5.547 5.350 0.818 1.807 o
-9 4 13 7.083 6.759 0.197 27.120 o
-9 4 14 0.248 0.315 0.079 195.256 o
-9 5 1 1.460 1.251 0.108 101.379 o
-9 5 6 0.708 0.818 0.069 251.796 o
-9 5 8 0.473 0.424 0.079 194.737 o
-9 5 9 3.348 3.330 0.138 59.563 o
-9 5 10 0.798 0.719 0.089 153.078 o
-9 5 12 2.802 2.818 0.217 25.335 o
-9 5 15 2.097 2.158 0.187 34.131 o
-9 6 1 1.452 1.251 0.167 42.942 o
-9 6 2 0.216 0.276 0.069 255.031 o
-9 6 3 3.669 3.379 0.128 67.603 o
-9 6 4 0.281 0.335 0.059 346.537 o
-9 6 5 3.166 2.591 0.207 27.676 o
-9 6 6 0.545 0.690 0.138 63.704 o
-8 0 2 3.561 3.616 0.118 78.127 o
-8 0 4 4.294 4.059 0.128 65.370 o
-8 0 8 48.494 47.390 1.389 0.549 o
-8 0 10 6.148 6.108 0.187 30.633 o
-8 0 12 2.948 2.897 0.384 8.169 o
-8 0 14 42.348 41.025 1.941 0.305 o
-8 0 16 10.972 12.049 0.365 8.173 o
-8 0 18 2.395 2.345 0.197 30.737 o
-8 0 20 39.504 37.803 1.970 0.299 o
-8 0 24 0.651 0.601 0.138 63.684 o
-8 1 1 27.996 28.631 0.621 2.516 o
-8 1 3 18.633 18.503 0.453 4.903 o
-8 1 4 28.942 28.808 0.670 2.204 o
-8 1 5 21.896 21.872 0.473 4.302 o
-8 1 6 1.689 1.626 0.059 316.726 o
-8 1 7 54.122 53.646 1.143 0.730 o
-8 1 8 5.880 5.754 0.148 46.689 o
-8 1 9 13.105 13.084 0.305 10.627 o
-8 1 10 35.108 34.168 0.857 1.376 o
-8 1 11 1.556 1.744 0.148 54.814 o
-8 1 12 1.718 1.665 0.108 100.396 o
-8 1 14 0.459 0.532 0.069 253.866 o
-8 1 15 15.165 15.044 0.374 7.222 o
-8 1 16 8.292 8.148 0.236 18.909 o
-8 1 17 6.669 6.709 0.315 11.583 o
-8 1 18 9.932 9.902 0.246 16.701 o
-8 1 20 1.168 1.034 0.069 247.350 o
-8 1 21 3.962 3.813 0.128 66.450 o
-8 1 23 0.904 0.867 0.099 123.900 o
-8 1 24 8.479 8.404 0.305 11.904 o
-8 2 1 38.339 37.380 0.906 1.216 o
-8 2 2 15.647 15.990 0.365 7.437 o
-8 2 3 6.757 6.581 0.177 32.876 o
-8 2 4 15.712 15.448 0.355 7.801 o
-8 2 5 32.132 32.621 0.709 1.925 o
-8 2 6 54.937 55.370 1.182 0.686 o
-8 2 7 6.106 6.237 0.158 41.200 o
-8 2 8 6.522 6.453 0.167 36.556 o
-8 2 9 1.259 1.271 0.069 245.316 o
-8 2 10 10.749 10.778 0.335 9.610 o
-8 2 11 19.225 18.788 0.434 5.224 o
-8 2 12 7.817 7.537 0.227 20.708 o
-8 2 13 1.958 1.961 0.099 119.361 o
-8 2 14 10.930 11.044 0.256 15.116 o
-8 2 15 0.168 0.197 0.059 347.238 o
-8 2 16 35.547 35.616 0.867 1.340 o
-8 2 17 1.841 1.892 0.167 42.659 o
-8 2 18 13.185 13.074 0.394 6.883 o
-8 2 19 3.431 3.025 0.217 25.144 o
-8 2 23 2.593 2.601 0.197 30.634 o
-8 3 1 0.229 0.207 0.039 779.130 o
-8 3 2 8.062 8.000 0.236 19.029 o
-8 3 3 6.674 6.847 0.177 32.827 o
-8 3 5 0.908 0.956 0.059 337.517 o
-8 3 6 31.961 31.478 0.847 1.443 o
-8 3 7 10.183 10.237 0.276 13.671 o
-8 3 8 20.982 21.232 0.463 4.519 o
-8 3 9 5.205 5.015 0.158 43.245 o
-8 3 10 9.080 9.054 0.227 19.773 o
-8 3 11 5.569 5.616 0.463 5.566 o
-8 3 12 48.430 48.789 1.143 0.762 o
-8 3 13 1.380 1.458 0.128 72.972 o
-8 3 14 1.266 1.222 0.099 122.719 o
-8 3 15 0.433 0.493 0.059 345.139 o
-8 3 16 16.591 16.798 0.374 6.974 o
-8 3 17 15.564 16.079 0.355 7.779 o
-8 3 19 0.877 1.103 0.167 43.131 o
-8 3 20 7.389 7.113 0.404 7.158 o
-8 4 1 20.619 20.276 0.522 3.747 o
-8 4 2 18.670 18.788 0.473 4.557 o
-8 4 3 14.906 15.714 0.335 8.650 o
-8 4 4 10.585 10.256 0.246 16.389 o
-8 4 5 2.897 3.015 0.099 112.856 o
-8 4 6 4.510 4.424 0.138 56.534 o
-8 4 7 2.738 2.749 0.108 95.902 o
-8 4 8 3.906 4.158 0.158 45.325 o
-8 4 10 0.317 0.355 0.079 195.120 o
-8 4 11 21.118 22.365 0.453 4.632 o
-8 4 12 16.186 16.483 0.434 5.511 o
-8 4 13 10.397 10.493 0.384 7.546 o
-8 4 15 2.657 2.788 0.227 23.252 o
-8 4 16 2.454 2.631 0.167 42.140 o
-8 4 18 4.605 4.365 0.286 14.437 o
-8 5 1 4.445 4.384 0.158 44.579 o
-8 5 2 25.377 24.985 0.483 3.904 o
-8 5 5 1.408 1.281 0.089 150.133 o
-8 5 6 0.392 0.502 0.059 345.392 o
-8 5 7 4.341 4.325 0.138 56.952 o
-8 5 8 7.465 6.739 0.709 2.384 o
-8 5 10 2.085 2.177 0.128 71.653 o
-8 5 12 0.970 0.847 0.089 152.447 o
-8 5 14 0.574 0.532 0.138 63.720 o
-8 5 15 0.622 0.690 0.138 63.678 o
-8 6 1 0.298 0.296 0.069 254.814 o
-8 6 2 0.523 0.493 0.079 194.526 o
-8 6 3 0.343 0.236 0.059 346.470 o
-8 6 4 0.651 0.552 0.059 343.025 o
-8 6 6 0.394 0.355 0.069 254.443 o
-8 6 7 1.054 0.956 0.089 152.028 o
-8 6 8 0.475 0.414 0.118 86.748 o
-8 6 11 0.609 0.621 0.108 103.021 o
-7 0 2 14.408 14.453 0.325 9.258 o
-7 0 4 40.198 38.917 0.778 1.519 o
-7 0 6 251.245 253.806 4.916 0.038 o
-7 0 10 1.530 0.946 0.256 18.451 o
-7 0 12 5.311 5.527 0.463 5.573 o
-7 0 14 10.280 11.301 0.296 12.005 o
-7 0 16 6.909 6.778 0.315 11.550 o
-7 0 18 7.246 7.035 0.276 14.740 o
-7 0 20 0.488 0.512 0.089 153.909 o
-7 0 22 0.385 0.404 0.089 154.131 o
-7 0 24 7.526 7.015 0.581 3.526 o
-7 1 1 16.880 18.030 0.512 4.063 o
-7 1 2 84.914 85.449 1.833 0.286 o
-7 1 3 3.790 3.833 0.108 89.855 o
-7 1 4 0.289 0.374 0.049 498.040 o
-7 1 5 2.261 2.158 0.079 178.114 o
-7 1 6 18.799 17.971 0.404 5.919 o
-7 1 7 50.672 49.951 1.507 0.470 o
-7 1 9 9.856 10.650 0.374 7.954 o
-7 1 10 28.612 28.050 0.719 1.971 o
-7 1 11 44.892 43.873 1.251 0.672 o
-7 1 12 2.841 2.916 0.128 69.767 o
-7 1 13 8.884 8.700 0.286 13.323 o
-7 1 14 14.712 14.690 0.345 8.354 o
-7 1 15 12.581 12.798 0.296 11.354 o
-7 1 16 5.761 5.695 0.167 37.855 o
-7 1 17 21.925 22.069 0.443 4.750 o
-7 1 18 0.206 0.177 0.059 347.152 o
-7 1 19 25.393 24.779 0.700 2.142 o
-7 1 20 4.172 4.276 0.128 65.403 o
-7 1 21 2.891 2.877 0.108 95.152 o
-7 1 22 1.224 1.133 0.079 190.188 o
-7 1 23 1.031 0.995 0.069 248.740 o
-7 1 24 0.776 0.847 0.148 55.420 o
-7 1 25 7.057 6.995 0.286 13.851 o
-7 2 2 0.272 0.325 0.030 1374.320 o
-7 2 3 22.285 21.922 0.493 4.011 o
-7 2 4 3.428 3.271 0.128 68.239 o
-7 2 5 9.615 9.636 0.236 18.061 o
-7 2 6 2.231 2.207 0.089 143.449 o
-7 2 7 18.493 18.818 0.404 5.909 o
-7 2 8 16.506 16.217 0.355 7.649 o
-7 2 9 16.649 16.453 0.365 7.292 o
-7 2 10 75.383 75.538 1.537 0.397 o
-7 2 11 21.628 21.478 0.473 4.327 o
-7 2 12 7.801 7.695 0.207 24.199 o
-7 2 13 5.053 4.897 0.138 54.988 o
-7 2 14 3.319 3.291 0.108 92.817 o
-7 2 15 39.901 39.439 0.837 1.357 o
-7 2 16 11.673 11.626 0.493 4.684 o
-7 2 17 1.967 2.138 0.197 30.887 o
-7 2 18 4.405 4.305 0.246 19.279 o
-7 2 20 22.444 21.222 1.192 0.820 o
-7 2 21 11.672 10.946 0.975 1.256 o
-7 2 22 4.340 4.099 0.365 8.991 o
-7 2 23 3.555 3.734 0.236 21.121 o
-7 2 24 4.435 4.493 0.236 20.821 o
-7 3 1 1.886 1.901 0.069 233.837 o
-7 3 2 1.897 1.783 0.069 234.512 o
-7 3 3 1.962 2.049 0.079 181.351 o
-7 3 4 73.152 72.582 1.813 0.308 o
-7 3 5 33.116 33.409 0.690 1.989 o
-7 3 6 15.456 15.478 0.345 8.196 o
-7 3 9 9.359 9.409 0.227 19.554 o
-7 3 10 10.708 10.857 0.365 8.260 o
-7 3 11 0.231 0.177 0.039 779.364 o
-7 3 12 0.968 0.926 0.069 249.543 o
-7 3 13 7.225 7.261 0.187 29.298 o
-7 3 14 21.841 21.774 0.542 3.451 o
-7 3 15 4.726 4.601 0.148 49.522 o
-7 3 16 21.282 21.242 0.847 1.571 o
-7 3 18 9.300 9.596 0.236 18.201 o
-7 3 20 2.479 2.325 0.148 53.839 o
-7 3 21 2.472 2.591 0.128 70.716 o
-7 3 22 2.674 2.611 0.197 30.606 o
-7 4 1 20.269 20.217 0.443 4.921 o
-7 4 2 6.415 6.384 0.167 36.721 o
-7 4 3 0.590 0.660 0.049 491.232 o
-7 4 4 2.054 2.118 0.079 180.221 o
-7 4 5 22.209 21.833 0.502 3.890 o
-7 4 6 4.099 4.384 0.138 57.349 o
-7 4 7 4.319 4.463 0.138 56.863 o
-7 4 8 24.915 25.537 0.502 3.683 o
-7 4 9 5.061 5.370 0.256 17.634 o
-7 4 10 0.242 0.197 0.069 255.056 o
-7 4 11 13.796 13.774 0.759 2.029 o
-7 4 12 3.173 3.330 0.138 59.839 o
-7 4 14 3.143 3.182 0.197 30.332 o
-7 4 15 11.906 11.823 0.286 12.279 o
-7 4 16 8.931 9.330 0.315 11.097 o
-7 4 17 3.260 3.261 0.345 10.105 o
-7 5 1 3.706 3.645 0.118 77.656 o
-7 5 2 18.128 17.803 0.650 2.626 o
-7 5 3 3.321 3.320 0.108 92.752 o
-7 5 4 1.635 1.567 0.138 62.797 o
-7 5 5 0.950 0.946 0.069 249.609 o
-7 5 6 7.229 7.626 0.227 20.947 o
-7 5 7 0.555 0.670 0.069 253.098 o
-7 5 10 4.947 5.379 0.177 35.081 o
-7 5 11 8.697 9.054 0.236 18.563 o
-7 5 12 23.181 23.715 1.488 0.533 o
-7 5 14 1.020 1.163 0.108 102.209 o
-7 5 17 2.242 2.207 0.187 34.073 o
-7 6 1 15.178 14.266 0.315 9.602 o
-7 6 2 2.690 2.700 0.128 70.242 o
-7 6 4 0.686 0.680 0.069 252.351 o
-7 6 5 1.126 0.985 0.197 31.171 o
-7 6 6 5.533 5.498 0.177 34.523 o
-7 6 7 2.234 1.882 0.118 83.620 o
-7 6 8 3.845 3.429 0.335 10.665 o
-7 6 9 1.854 1.852 0.128 72.197 o
-7 6 11 1.741 1.527 0.187 34.331 o
-6 0 2 179.795 183.943 4.039 0.060 o
-6 0 4 3.402 3.123 0.286 14.640 o
-6 0 6 161.272 164.495 3.547 0.077 o
-6 0 8 1.039 1.241 0.148 55.240 o
-6 0 10 282.808 286.181 8.128 0.016 o
-6 0 14 24.292 24.601 0.552 3.219 o
-6 0 16 127.013 125.824 3.764 0.075 o
-6 0 18 14.616 14.857 0.463 5.043 o
-6 0 20 9.640 9.291 0.246 16.922 o
-6 0 22 2.719 2.749 0.138 60.925 o
-6 0 24 11.911 11.596 0.414 6.451 o
-6 1 1 1.206 1.507 0.089 150.495 o
-6 1 2 7.052 6.650 0.177 32.553 o
-6 1 3 1.119 1.251 0.069 246.795 o
-6 1 4 32.172 31.212 0.670 2.119 o
-6 1 5 96.293 95.932 2.355 0.182 o
-6 1 6 149.918 152.091 3.389 0.085 o
-6 1 7 2.869 2.591 0.167 41.892 o
-6 1 8 2.878 3.084 0.177 37.360 o
-6 1 9 42.339 43.134 1.025 0.955 o
-6 1 10 49.749 49.823 1.271 0.633 o
-6 1 11 4.050 3.921 0.177 36.350 o
-6 1 12 41.666 40.631 0.936 1.119 o
-6 1 13 4.950 4.788 0.138 55.307 o
-6 1 14 21.764 20.779 0.463 4.487 o
-6 1 15 3.322 3.448 0.108 92.499 o
-6 1 16 0.633 0.532 0.049 491.649 o
-6 1 17 1.022 1.015 0.069 248.728 o
-6 1 18 0.606 0.640 0.059 343.036 o
-6 1 19 11.243 11.025 0.296 11.833 o
-6 1 20 26.889 26.109 0.897 1.364 o
-6 1 21 12.192 11.921 0.305 10.921 o
-6 1 22 1.477 1.419 0.079 187.672 o
-6 1 23 2.028 1.970 0.089 145.353 o
-6 1 24 0.259 0.217 0.069 255.001 o
-6 1 25 1.158 1.379 0.177 38.398 o
-6 2 1 69.770 67.538 1.517 0.421 o
-6 2 2 37.846 37.803 0.808 1.467 o
-6 2 3 58.548 58.976 1.833 0.321 o
-6 2 4 4.927 5.310 0.138 54.824 o
-6 2 5 4.176 4.246 0.128 65.427 o
-6 2 6 0.889 1.054 0.099 123.752 o
-6 2 7 0.174 0.197 0.039 780.109 o
-6 2 8 12.959 12.719 0.631 2.907 o
-6 2 9 30.756 30.808 0.749 1.795 o
-6 2 10 9.168 9.015 0.236 18.377 o
-6 2 11 0.211 0.187 0.039 779.610 o
-6 2 12 8.456 8.473 0.207 23.549 o
-6 2 13 0.224 0.167 0.039 779.558 o
-6 2 14 6.360 6.306 0.177 33.391 o
-6 2 15 2.553 2.621 0.108 96.729 o
-6 2 16 0.340 0.374 0.049 497.468 o
-6 2 17 9.027 9.094 0.296 12.472 o
-6 2 18 18.612 18.759 0.936 1.322 o
-6 2 19 2.421 2.335 0.118 82.752 o
-6 2 20 19.759 18.946 0.404 5.792 o
-6 2 21 1.474 1.537 0.099 121.710 o
-6 2 23 0.563 0.522 0.089 153.775 o
-6 3 1 12.404 12.769 0.296 11.396 o
-6 3 2 11.232 11.094 0.256 15.005 o
-6 3 3 1.358 1.655 0.059 323.522 o
-6 3 4 4.113 4.345 0.108 87.407 o
-6 3 5 0.578 0.640 0.039 760.610 o
-6 3 6 5.847 6.877 0.167 37.092 o
-6 3 7 6.963 7.192 0.177 32.372 o
-6 3 8 38.750 37.872 0.847 1.351 o
-6 3 9 30.385 30.119 0.581 2.697 o
-6 3 10 0.516 0.512 0.059 344.422 o
-6 3 11 4.355 4.227 0.128 65.015 o
-6 3 12 0.383 0.916 0.158 48.809 o
-6 3 13 6.306 6.325 0.167 36.882 o
-6 3 14 53.177 53.222 1.094 0.787 o
-6 3 15 11.715 12.542 0.305 10.953 o
-6 3 16 1.741 1.833 0.118 84.578 o
-6 3 17 0.545 0.591 0.069 253.346 o
-6 3 18 8.338 7.971 0.227 20.374 o
-6 3 19 14.796 14.680 0.571 3.439 o
-6 3 20 0.906 0.887 0.167 43.150 o
-6 3 21 0.341 0.394 0.079 195.042 o
-6 3 22 4.572 4.483 0.158 44.369 o
-6 3 23 0.810 0.739 0.138 63.596 o
-6 4 1 7.579 7.537 0.197 26.499 o
-6 4 3 6.977 7.035 0.177 32.437 o
-6 4 4 40.600 41.035 1.015 0.985 o
-6 4 5 36.872 37.025 0.788 1.541 o
-6 4 6 1.900 1.833 0.089 146.451 o
-6 4 8 6.627 6.709 0.197 27.449 o
-6 4 10 1.741 1.773 0.099 120.476 o
-6 4 11 6.231 6.227 0.453 5.780 o
-6 4 12 10.924 11.744 0.276 13.280 o
-6 4 13 12.915 13.626 0.837 1.681 o
-6 4 14 13.145 13.517 0.315 10.041 o
-6 4 15 21.591 21.232 0.434 4.970 o
-6 4 16 0.502 0.552 0.069 253.636 o
-6 4 18 6.112 6.207 0.197 27.955 o
-6 4 19 0.846 0.995 0.128 73.608 o
-6 5 2 0.587 0.729 0.059 342.788 o
-6 5 3 1.150 1.192 0.069 246.774 o
-6 5 4 35.036 33.734 0.828 1.461 o
-6 5 6 6.389 6.424 0.177 33.306 o
-6 5 7 2.621 2.571 0.108 96.589 o
-6 5 8 14.652 15.173 0.355 7.953 o
-6 5 9 1.316 1.281 0.177 38.370 o
-6 5 10 14.381 14.306 0.325 9.275 o
-6 5 11 0.466 0.522 0.079 194.635 o
-6 5 13 0.535 0.571 0.099 124.673 o
-6 5 14 2.261 2.345 0.128 71.260 o
-6 5 15 1.351 1.389 0.128 73.035 o
-6 5 16 7.031 7.360 0.207 24.762 o
-6 5 18 1.369 1.143 0.207 28.242 o
-6 6 1 1.682 1.685 0.079 185.188 o
-6 6 2 3.859 4.039 0.118 76.589 o
-6 6 3 0.356 0.552 0.059 345.472 o
-6 6 4 2.732 2.660 0.187 33.799 o
-6 6 5 8.753 8.522 0.562 3.742 o
-6 6 6 0.975 1.498 0.089 151.381 o
-6 6 7 0.751 0.621 0.059 341.625 o
-6 6 8 0.467 0.424 0.138 63.765 o
-6 6 10 4.755 4.897 0.266 16.507 o
-6 6 11 9.410 9.370 0.345 9.364 o
-6 6 12 3.795 4.246 0.246 19.413 o
-6 6 13 0.650 0.857 0.158 48.760 o
-6 6 14 0.832 0.660 0.148 55.433 o
-6 6 15 3.353 3.212 0.217 25.140 o
-6 6 16 1.906 1.803 0.177 38.105 o
-6 7 1 5.198 5.005 0.158 43.261 o
-6 7 4 0.418 0.315 0.079 194.971 o
-6 7 5 0.410 0.384 0.069 254.341 o
-6 7 6 1.114 1.005 0.089 151.753 o
-6 7 7 2.364 2.030 0.177 37.876 o
-6 7 9 2.288 2.286 0.187 34.043 o
-5 0 2 88.023 90.090 1.823 0.283 o
-5 0 4 19.650 18.493 0.463 4.674 o
-5 0 6 118.159 117.154 2.729 0.133 o
-5 0 8 277.726 283.698 7.586 0.018 o
-5 0 10 99.541 103.765 2.355 0.179 o
-5 0 12 45.093 42.385 0.995 0.988 o
-5 0 14 0.725 0.542 0.069 252.524 o
-5 0 18 25.561 25.419 0.709 2.084 o
-5 0 20 96.214 96.573 2.463 0.169 o
-5 0 22 0.267 0.345 0.079 195.207 o
-5 0 24 0.522 0.473 0.089 153.885 o
-5 0 26 13.274 13.192 0.374 7.514 o
-5 1 1 56.161 56.237 1.320 0.570 o
-5 1 2 251.082 256.486 6.483 0.024 o
-5 1 3 46.824 50.828 1.064 0.858 o
-5 1 4 89.995 94.671 2.453 0.172 o
-5 1 5 29.995 30.739 1.084 0.944 o
-5 1 6 4.233 4.089 0.315 11.963 o
-5 1 7 0.814 0.818 0.197 31.221 o
-5 1 8 17.200 16.739 0.493 4.365 o
-5 1 9 259.016 266.309 6.315 0.025 o
-5 1 10 26.044 25.281 0.640 2.471 o
-5 1 12 24.148 23.981 0.532 3.430 o
-5 1 13 9.410 8.690 0.207 22.871 o
-5 1 14 25.144 25.301 0.552 3.178 o
-5 1 15 39.270 38.069 0.867 1.297 o
-5 1 16 53.819 52.779 1.133 0.743 o
-5 1 17 15.815 15.370 0.355 7.793 o
-5 1 18 0.553 0.483 0.049 493.587 o
-5 1 19 40.030 39.606 0.867 1.283 o
-5 1 20 0.534 0.562 0.059 344.063 o
-5 1 21 0.987 0.887 0.069 249.549 o
-5 1 22 1.390 1.389 0.099 122.165 o
-5 1 23 0.215 0.227 0.059 347.040 o
-5 1 24 15.045 14.069 0.443 5.444 o
-5 1 25 1.039 0.946 0.158 48.641 o
-5 1 26 2.881 2.897 0.207 27.716 o
-5 2 1 9.405 9.054 0.207 22.756 o
-5 2 2 0.720 0.660 0.069 252.213 o
-5 2 3 4.423 4.138 0.128 64.959 o
-5 2 4 29.786 27.114 0.837 1.512 o
-5 2 5 173.238 174.416 3.586 0.073 o
-5 2 6 77.660 78.188 3.025 0.123 o
-5 2 7 20.699 21.242 0.759 1.931 o
-5 2 8 1.928 2.010 0.138 62.314 o
-5 2 11 39.655 38.996 0.867 1.289 o
-5 2 12 23.415 23.192 0.512 3.689 o
-5 2 13 71.315 70.769 1.498 0.424 o
-5 2 14 0.605 0.719 0.059 342.649 o
-5 2 15 12.079 11.793 0.276 12.964 o
-5 2 16 3.254 3.163 0.108 93.308 o
-5 2 17 7.819 7.754 0.207 24.170 o
-5 2 18 4.712 4.877 0.158 43.958 o
-5 2 19 10.903 10.601 0.345 9.119 o
-5 2 22 9.632 8.857 0.443 5.859 o
-5 2 23 7.286 6.217 0.197 27.168 o
-5 2 24 1.641 1.507 0.167 42.825 o
-5 3 1 19.604 19.419 0.414 5.571 o
-5 3 3 6.124 5.803 0.138 51.773 o
-5 3 4 11.192 10.897 0.246 16.036 o
-5 3 5 3.519 3.606 0.148 51.949 o
-5 3 6 4.620 4.591 0.118 73.252 o
-5 3 7 15.652 15.547 0.345 8.164 o
-5 3 8 2.201 2.158 0.089 143.780 o
-5 3 10 6.281 6.296 0.177 33.471 o
-5 3 11 0.531 0.473 0.049 494.048 o
-5 3 12 0.647 0.660 0.049 490.075 o
-5 3 14 0.765 0.906 0.089 152.927 o
-5 3 15 2.291 2.197 0.108 98.193 o
-5 3 18 12.266 12.552 0.296 11.450 o
-5 3 19 5.546 5.833 0.207 26.007 o
-5 3 20 0.272 0.236 0.079 195.277 o
-5 3 21 0.851 0.897 0.118 86.338 o
-5 3 23 3.573 3.754 0.138 58.845 o
-5 4 1 3.213 3.212 0.108 93.370 o
-5 4 3 22.372 23.192 0.512 3.734 o
-5 4 4 22.719 23.084 0.502 3.839 o
-5 4 5 13.190 12.976 0.276 12.498 o
-5 4 7 1.145 1.143 0.069 247.062 o
-5 4 8 23.600 25.045 0.512 3.642 o
-5 4 10 22.850 22.572 0.571 3.115 o
-5 4 11 0.331 0.266 0.059 346.460 o
-5 4 12 1.805 1.990 0.158 48.058 o
-5 4 13 14.226 14.306 0.335 8.860 o
-5 4 14 6.629 7.094 0.197 27.317 o
-5 4 15 12.435 12.956 0.394 6.950 o
-5 4 17 2.357 2.365 0.167 42.274 o
-5 4 18 15.692 16.444 1.044 1.083 o
-5 4 19 0.444 0.443 0.089 154.026 o
-5 5 1 2.618 2.601 0.089 139.642 o
-5 5 2 3.957 3.902 0.118 76.500 o
-5 5 3 3.034 2.916 0.108 94.573 o
-5 5 4 60.773 63.636 1.517 0.439 o
-5 5 5 0.204 0.305 0.049 499.152 o
-5 5 6 8.403 8.611 0.246 17.487 o
-5 5 7 2.501 2.424 0.099 116.155 o
-5 5 8 5.750 5.783 0.158 42.007 o
-5 5 9 2.631 2.571 0.167 42.050 o
-5 5 10 3.249 3.241 0.138 59.788 o
-5 5 12 10.535 11.360 0.611 3.135 o
-5 5 13 4.005 3.941 0.552 3.965 o
-5 5 14 46.026 46.523 3.301 0.109 o
-5 5 16 0.720 0.690 0.079 193.613 o
-5 5 17 0.524 0.591 0.108 103.103 o
-5 5 18 1.208 1.330 0.217 25.751 o
-5 6 2 0.311 0.443 0.049 497.405 o
-5 6 3 18.333 17.882 0.394 6.203 o
-5 6 4 2.549 2.473 0.108 96.980 o
-5 6 5 1.387 1.369 0.187 34.436 o
-5 6 6 0.854 0.808 0.069 250.850 o
-5 6 7 1.549 1.655 0.138 62.833 o
-5 6 8 10.488 11.222 0.266 14.311 o
-5 6 9 2.288 2.207 0.128 71.325 o
-5 6 10 8.760 8.887 0.345 9.460 o
-5 6 11 0.646 0.660 0.118 86.584 o
-5 6 13 1.474 1.212 0.128 73.001 o
-5 6 15 3.764 4.079 0.236 21.036 o
-5 6 17 0.731 0.808 0.138 63.614 o
-5 7 2 0.877 0.680 0.148 55.415 o
-5 7 3 0.499 0.493 0.069 253.783 o
-5 7 4 0.421 0.335 0.069 254.388 o
-5 7 7 2.175 1.911 0.335 10.774 o
-5 7 9 2.078 1.882 0.286 14.790 o
-5 7 10 1.909 1.783 0.187 34.248 o
-5 7 11 2.276 2.217 0.197 30.791 o
-4 0 2 962.150 860.129 127.923 0.000 o
-4 0 4 117.981 122.140 3.458 0.089 o
-4 0 6 42.428 44.434 1.015 0.966 o
-4 0 8 569.132 575.515 12.848 0.006 o
-4 0 10 1.095 1.754 0.187 34.458 o
-4 0 12 241.638 240.042 5.310 0.034 o
-4 0 14 1.943 1.921 0.138 62.344 o
-4 0 16 55.991 55.646 1.222 0.648 o
-4 0 18 130.891 129.213 2.621 0.136 o
-4 0 22 1.299 1.182 0.108 101.739 o
-4 0 24 1.738 1.852 0.227 23.480 o
-4 0 26 11.307 10.828 0.345 9.056 o
-4 1 1 92.014 90.366 2.266 0.197 o
-4 1 2 55.612 56.247 1.241 0.632 o
-4 1 3 2.185 1.734 0.099 118.925 o
-4 1 4 34.308 33.981 0.818 1.496 o
-4 1 5 0.116 0.128 0.039 781.257 o
-4 1 6 177.309 177.155 4.118 0.058 o
-4 1 7 87.920 88.484 2.010 0.243 o
-4 1 8 173.665 176.091 4.108 0.059 o
-4 1 9 45.449 46.079 1.074 0.862 o
-4 1 11 1.989 1.892 0.079 181.810 o
-4 1 12 81.588 80.316 1.764 0.310 o
-4 1 13 15.690 14.956 0.355 7.835 o
-4 1 14 16.812 16.237 0.365 7.285 o
-4 1 15 0.151 0.118 0.030 1386.680 o
-4 1 16 21.734 21.055 0.463 4.480 o
-4 1 17 4.398 4.443 0.118 74.229 o
-4 1 18 0.983 0.985 0.059 336.205 o
-4 1 19 51.256 51.498 1.232 0.660 o
-4 1 20 11.558 11.468 0.315 10.500 o
-4 1 21 1.394 1.320 0.108 101.439 o
-4 1 22 21.945 20.641 0.877 1.471 o
-4 1 23 9.083 8.887 0.256 16.071 o
-4 1 24 2.672 2.571 0.177 37.604 o
-4 1 25 4.177 4.305 0.138 57.278 o
-4 1 26 2.295 2.118 0.187 34.070 o
-4 2 1 54.156 51.961 1.212 0.668 o
-4 2 2 14.316 12.966 0.365 7.764 o
-4 2 3 77.318 78.888 2.365 0.192 o
-4 2 4 60.587 62.464 2.384 0.198 o
-4 2 5 5.630 5.833 0.374 8.427 o
-4 2 6 5.002 5.675 0.374 8.464 o
-4 2 7 6.810 6.483 0.177 32.872 o
-4 2 8 77.771 82.247 1.793 0.305 o
-4 2 9 14.020 13.862 0.335 8.924 o
-4 2 10 31.082 29.695 0.670 2.155 o
-4 2 11 7.789 7.320 0.197 26.426 o
-4 2 12 0.631 0.798 0.039 754.087 o
-4 2 13 3.107 3.212 0.099 111.276 o
-4 2 14 21.774 21.774 0.483 4.172 o
-4 2 15 34.367 33.872 0.759 1.690 o
-4 2 16 9.991 9.803 0.236 17.866 o
-4 2 17 7.075 7.202 0.177 32.257 o
-4 2 18 7.505 7.833 0.236 19.276 o
-4 2 19 6.051 5.882 0.197 28.099 o
-4 2 21 4.312 4.217 0.197 29.575 o
-4 2 22 3.723 3.852 0.138 58.503 o
-4 2 23 17.494 16.976 0.434 5.406 o
-4 2 24 2.337 2.256 0.099 117.244 o
-4 2 25 3.124 3.192 0.217 25.205 o
-4 3 1 4.668 4.838 0.118 72.679 o
-4 3 2 13.014 13.084 0.286 11.855 o
-4 3 3 20.355 21.183 0.601 2.939 o
-4 3 4 233.694 233.195 5.064 0.038 o
-4 3 5 27.313 27.291 0.571 2.907 o
-4 3 6 8.554 7.882 0.256 16.388 o
-4 3 7 5.115 5.113 0.138 54.640 o
-4 3 8 0.208 0.266 0.059 346.992 o
-4 3 9 35.146 35.902 0.887 1.293 o
-4 3 10 61.624 62.188 1.478 0.458 o
-4 3 11 19.869 19.813 0.453 4.788 o
-4 3 12 11.630 12.079 0.266 13.840 o
-4 3 13 0.914 1.054 0.059 336.715 o
-4 3 14 31.116 31.045 0.798 1.608 o
-4 3 15 5.737 5.990 0.167 37.717 o
-4 3 16 3.950 3.931 0.167 40.547 o
-4 3 17 14.010 14.404 0.325 9.328 o
-4 3 18 2.424 2.404 0.266 16.994 o
-4 3 20 6.127 5.892 0.187 30.733 o
-4 3 21 1.567 1.586 0.118 85.058 o
-4 3 22 1.042 1.163 0.128 73.407 o
-4 3 23 0.403 0.345 0.108 103.266 o
-4 4 1 0.131 0.148 0.030 1386.870 o
-4 4 2 5.009 5.035 0.138 54.939 o
-4 4 3 57.657 57.488 1.409 0.508 o
-4 4 4 0.698 1.054 0.059 339.677 o
-4 4 5 10.802 10.985 0.256 15.169 o
-4 4 6 27.812 28.119 0.611 2.592 o
-4 4 7 8.790 9.123 0.296 12.514 o
-4 4 8 4.092 4.394 0.128 65.454 o
-4 4 9 2.153 1.961 0.099 118.609 o
-4 4 10 2.829 2.719 0.108 95.642 o
-4 4 11 0.104 0.167 0.049 500.181 o
-4 4 12 0.305 0.325 0.059 346.440 o
-4 4 13 26.902 27.222 0.847 1.505 o
-4 4 14 21.465 21.813 0.837 1.602 o
-4 4 15 0.814 0.877 0.069 250.891 o
-4 4 16 1.855 1.931 0.148 54.537 o
-4 4 17 4.599 4.571 0.236 20.767 o
-4 4 18 1.995 2.089 0.128 71.845 o
-4 4 20 4.348 3.862 0.276 15.524 o
-4 5 2 21.047 21.252 0.463 4.515 o
-4 5 3 2.322 2.128 0.089 143.129 o
-4 5 4 0.569 0.522 0.059 343.925 o
-4 5 6 5.238 4.936 0.158 43.254 o
-4 5 8 7.562 7.872 0.197 26.391 o
-4 5 10 11.450 11.793 0.749 2.105 o
-4 5 11 1.246 1.360 0.108 101.675 o
-4 5 12 7.330 7.340 0.473 5.276 o
-4 5 13 0.483 0.532 0.079 194.580 o
-4 5 14 12.371 12.995 0.384 7.272 o
-4 5 15 0.203 0.276 0.069 255.056 o
-4 5 17 1.634 1.576 0.276 15.895 o
-4 5 18 11.153 11.173 0.414 6.514 o
-4 6 2 4.526 4.315 0.325 11.233 o
-4 6 3 12.176 12.089 0.276 12.897 o
-4 6 4 3.133 3.212 0.138 59.990 o
-4 6 5 5.328 5.360 0.227 22.150 o
-4 6 6 1.505 1.498 0.089 149.244 o
-4 6 7 8.988 8.463 0.227 19.957 o
-4 6 8 1.347 1.340 0.108 101.510 o
-4 6 11 0.480 0.611 0.089 153.841 o
-4 6 12 3.988 4.020 0.167 40.474 o
-4 6 13 18.584 18.621 0.424 5.475 o
-4 6 14 4.443 4.670 0.167 39.756 o
-4 6 16 0.967 1.025 0.167 43.119 o
-4 6 17 0.456 0.483 0.128 73.930 o
-4 7 2 4.205 3.803 0.236 20.965 o
-4 7 3 4.552 3.980 0.315 11.941 o
-4 7 4 2.460 2.325 0.158 47.517 o
-4 7 6 0.782 0.768 0.079 193.232 o
-4 7 7 2.471 2.512 0.286 14.744 o
-4 7 8 1.821 1.714 0.197 30.974 o
-4 7 9 6.888 6.611 0.286 13.915 o
-4 7 11 0.760 0.788 0.158 48.742 o
-3 0 2 15.445 14.453 0.315 9.535 o
-3 0 4 83.907 90.041 3.064 0.118 o
-3 0 6 10.837 14.778 0.640 2.837 o
-3 0 8 21.680 22.197 0.522 3.668 o
-3 0 10 3.539 4.108 0.118 77.461 o
-3 0 12 148.590 144.514 3.143 0.097 o
-3 0 14 18.838 17.527 0.384 6.422 o
-3 0 16 13.318 13.173 0.315 10.041 o
-3 0 18 32.459 33.212 0.739 1.794 o
-3 0 20 9.308 9.143 0.473 5.188 o
-3 0 22 94.410 91.518 3.704 0.082 o
-3 0 24 0.026 0.483 0.089 154.422 o
-3 0 26 4.090 3.961 0.227 22.767 o
-3 1 1 325.638 322.585 7.527 0.017 o
-3 1 2 33.862 33.409 0.768 1.664 o
-3 1 3 155.279 160.554 3.675 0.073 o
-3 1 4 230.604 231.185 5.251 0.036 o
-3 1 5 200.373 214.308 4.926 0.041 o
-3 1 6 0.265 0.325 0.039 777.166 o
-3 1 7 338.670 348.931 7.931 0.016 o
-3 1 8 9.755 8.187 0.227 19.657 o
-3 1 9 63.743 60.937 1.350 0.527 o
-3 1 10 2.931 3.547 0.108 93.796 o
-3 1 11 161.446 156.426 3.498 0.079 o
-3 1 12 53.218 52.562 1.163 0.716 o
-3 1 13 0.686 0.828 0.039 750.333 o
-3 1 14 0.212 0.325 0.030 1378.420 o
-3 1 15 0.117 0.138 0.030 1387.490 o
-3 1 16 31.239 31.035 0.680 2.090 o
-3 1 17 59.058 58.671 1.261 0.603 o
-3 1 18 38.212 37.774 0.828 1.408 o
-3 1 19 0.250 0.266 0.039 778.152 o
-3 1 20 1.992 1.931 0.079 181.605 o
-3 1 21 7.926 7.813 0.197 26.149 o
-3 1 22 2.006 1.931 0.089 145.589 o
-3 1 23 1.777 1.783 0.089 147.231 o
-3 1 24 0.210 0.227 0.059 347.056 o
-3 1 25 1.272 1.113 0.079 189.965 o
-3 1 26 16.665 16.217 0.424 5.705 o
-3 2 1 82.564 82.750 1.872 0.280 o
-3 2 2 169.918 178.692 4.158 0.058 o
-3 2 3 292.110 299.393 6.838 0.021 o
-3 2 4 26.448 27.242 0.680 2.210 o
-3 2 5 2.671 2.631 0.108 96.324 o
-3 2 6 138.841 137.135 3.567 0.081 o
-3 2 7 166.243 166.790 3.744 0.070 o
-3 2 8 282.221 285.836 6.493 0.023 o
-3 2 9 48.889 51.498 1.133 0.765 o
-3 2 10 10.736 10.808 0.256 15.221 o
-3 2 11 22.794 22.759 0.502 3.843 o
-3 2 12 2.051 2.079 0.069 230.209 o
-3 2 13 52.833 52.424 1.192 0.690 o
-3 2 14 0.815 0.877 0.049 483.530 o
-3 2 15 28.119 27.951 0.650 2.339 o
-3 2 16 14.384 14.414 0.325 9.266 o
-3 2 17 1.062 0.966 0.059 335.158 o
-3 2 18 42.195 42.572 0.985 1.021 o
-3 2 19 0.313 0.335 0.049 497.991 o
-3 2 20 3.454 3.488 0.108 91.909 o
-3 2 21 10.872 10.542 0.325 10.131 o
-3 2 24 2.785 2.562 0.148 53.417 o
-3 3 1 3.305 3.842 0.099 108.513 o
-3 3 2 247.458 245.855 5.458 0.033 o
-3 3 3 3.893 7.389 0.177 35.123 o
-3 3 4 43.883 44.720 0.916 1.126 o
-3 3 5 21.509 21.389 0.443 4.800 o
-3 3 6 0.056 0.266 0.049 500.176 o
-3 3 7 3.846 4.020 0.138 58.141 o
-3 3 8 16.844 17.655 0.424 5.640 o
-3 3 9 5.025 5.478 0.148 48.351 o
-3 3 10 20.061 19.744 0.443 4.951 o
-3 3 11 1.337 1.498 0.079 188.353 o
-3 3 12 40.711 41.400 0.897 1.204 o
-3 3 13 9.046 9.192 0.217 21.267 o
-3 3 14 67.555 68.897 1.557 0.406 o
-3 3 15 1.532 1.616 0.128 72.727 o
-3 3 17 1.104 1.143 0.079 190.839 o
-3 3 18 3.447 3.389 0.118 78.788 o
-3 3 19 10.011 10.178 0.246 16.620 o
-3 3 20 4.160 4.138 0.138 57.465 o
-3 3 21 5.949 6.729 0.227 21.663 o
-3 3 22 9.745 9.754 0.246 16.798 o
-3 3 24 10.771 10.749 0.335 9.610 o
-3 4 1 20.392 20.296 0.434 5.088 o
-3 4 2 9.882 10.355 0.394 7.245 o
-3 4 3 56.720 56.986 1.182 0.677 o
-3 4 4 27.544 28.128 0.680 2.183 o
-3 4 5 0.475 0.463 0.039 768.681 o
-3 4 6 24.300 24.138 0.700 2.164 o
-3 4 7 15.895 16.217 0.473 4.763 o
-3 4 8 0.487 0.493 0.049 494.603 o
-3 4 9 0.516 0.483 0.059 344.540 o
-3 4 10 36.214 36.897 0.788 1.549 o
-3 4 11 3.626 3.921 0.138 58.611 o
-3 4 12 2.942 2.808 0.118 80.947 o
-3 4 13 30.954 31.222 0.946 1.200 o
-3 4 14 5.634 5.636 0.187 31.201 o
-3 4 16 3.905 3.951 0.158 45.440 o
-3 4 17 10.166 10.463 0.256 15.468 o
-3 4 18 3.910 3.862 0.148 51.258 o
-3 4 20 8.938 8.542 0.365 8.531 o
-3 5 1 0.168 0.236 0.039 779.902 o
-3 5 2 2.280 2.315 0.079 177.176 o
-3 5 3 4.312 4.187 0.128 65.171 o
-3 5 4 9.071 8.847 0.246 17.209 o
-3 5 5 1.051 1.094 0.069 248.138 o
-3 5 6 34.325 34.946 0.897 1.279 o
-3 5 7 3.902 3.951 0.128 66.429 o
-3 5 8 0.580 0.571 0.069 253.224 o
-3 5 9 4.240 4.128 0.148 50.603 o
-3 5 10 4.279 4.217 0.167 40.123 o
-3 5 11 1.270 1.360 0.108 101.633 o
-3 5 12 11.932 12.296 0.286 12.216 o
-3 5 13 0.346 0.315 0.069 254.657 o
-3 5 14 1.466 1.616 0.099 121.614 o
-3 5 16 16.846 16.729 0.532 3.824 o
-3 5 17 0.980 0.966 0.099 123.658 o
-3 5 18 1.175 1.212 0.207 28.263 o
-3 6 1 7.777 7.655 0.365 8.663 o
-3 6 2 1.688 1.626 0.108 100.510 o
-3 6 3 0.848 1.212 0.236 21.682 o
-3 6 4 1.132 1.261 0.079 190.350 o
-3 6 5 0.725 0.778 0.069 251.814 o
-3 6 6 0.845 0.897 0.089 152.729 o
-3 6 7 0.735 0.798 0.128 73.735 o
-3 6 9 3.730 3.872 0.158 45.670 o
-3 6 10 2.800 2.837 0.138 60.753 o
-3 6 11 0.364 0.325 0.069 254.586 o
-3 6 12 3.519 3.892 0.158 45.881 o
-3 6 13 1.683 1.803 0.099 120.622 o
-3 6 15 0.174 0.591 0.108 103.319 o
-3 6 17 6.667 6.788 0.266 15.925 o
-3 7 2 5.108 5.133 0.246 19.017 o
-3 7 4 4.299 4.138 0.236 20.901 o
-3 7 5 1.580 1.606 0.187 34.363 o
-3 7 6 0.829 0.552 0.148 55.451 o
-3 7 12 5.865 5.714 0.266 16.217 o
-3 7 13 3.868 3.793 0.227 22.851 o
-2 0 6 171.427 173.194 4.079 0.060 o
-2 0 8 462.180 461.464 10.532 0.009 o
-2 0 10 195.916 184.781 4.325 0.052 o
-2 0 12 14.674 16.749 0.374 7.183 o
-2 0 14 54.463 55.331 1.232 0.645 o
-2 0 16 11.788 11.468 0.286 12.350 o
-2 0 18 5.020 4.739 0.128 62.683 o
-2 0 20 16.630 16.591 0.355 7.609 o
-2 0 22 4.122 4.404 0.167 40.182 o
-2 0 26 3.721 3.764 0.227 22.894 o
-2 1 1 179.710 193.579 4.355 0.053 o
-2 1 2 551.005 554.184 46.592 0.001 o
-2 1 3 21.239 20.857 0.453 4.672 o
-2 1 4 351.849 346.871 15.557 0.005 o
-2 1 5 21.774 20.670 0.522 3.694 o
-2 1 6 6.781 5.586 0.138 50.574 o
-2 1 7 35.324 34.060 0.768 1.642 o
-2 1 8 283.667 289.137 6.552 0.023 o
-2 1 9 22.602 22.414 0.522 3.627 o
-2 1 10 31.656 32.454 0.729 1.850 o
-2 1 11 85.361 81.784 1.803 0.295 o
-2 1 12 8.790 9.399 0.227 19.829 o
-2 1 13 32.834 31.626 0.700 1.965 o
-2 1 14 18.985 18.207 0.404 5.893 o
-2 1 15 11.144 10.966 0.256 15.057 o
-2 1 16 0.951 1.034 0.049 477.470 o
-2 1 17 29.672 30.148 0.670 2.177 o
-2 1 18 8.403 8.187 0.197 25.663 o
-2 1 19 1.759 1.764 0.069 236.501 o
-2 1 20 0.974 0.946 0.059 336.641 o
-2 1 21 56.299 56.099 1.212 0.654 o
-2 1 22 10.956 10.640 0.296 11.934 o
-2 1 24 2.374 2.256 0.148 53.968 o
-2 1 25 0.526 0.552 0.059 344.173 o
-2 1 26 1.500 1.438 0.177 38.298 o
-2 2 1 147.862 150.031 3.458 0.083 o
-2 2 2 465.633 479.878 10.769 0.008 o
-2 2 3 10.061 9.498 0.246 16.729 o
-2 2 4 24.923 22.276 0.522 3.536 o
-2 2 5 3.039 3.163 0.108 94.107 o
-2 2 6 68.706 71.341 1.586 0.391 o
-2 2 7 33.977 33.360 0.749 1.734 o
-2 2 8 30.476 28.168 0.631 2.402 o
-2 2 9 17.057 16.788 0.374 6.923 o
-2 2 10 87.600 88.868 1.951 0.255 o
-2 2 11 13.982 13.242 0.305 10.435 o
-2 2 12 108.708 107.026 2.355 0.174 o
-2 2 13 30.128 30.158 0.680 2.118 o
-2 2 14 13.021 13.261 0.296 11.206 o
-2 2 15 2.242 2.187 0.079 178.154 o
-2 2 16 36.745 36.395 0.808 1.487 o
-2 2 17 54.690 54.030 1.212 0.663 o
-2 2 18 27.268 26.966 0.650 2.367 o
-2 2 19 7.931 7.803 0.197 26.149 o
-2 2 20 6.712 6.650 0.187 29.972 o
-2 2 21 0.493 0.493 0.059 344.687 o
-2 2 22 9.262 9.498 0.236 18.238 o
-2 2 23 10.262 10.168 0.335 9.715 o
-2 2 24 0.505 0.394 0.069 253.960 o
-2 2 25 14.187 14.178 0.404 6.467 o
-2 3 1 135.984 140.278 3.172 0.098 o
-2 3 2 64.265 66.562 1.399 0.491 o
-2 3 3 1.501 1.547 0.118 85.189 o
-2 3 4 8.687 8.985 0.227 19.976 o
-2 3 5 5.599 6.414 0.207 25.829 o
-2 3 6 355.235 355.896 8.197 0.015 o
-2 3 7 79.293 80.681 1.754 0.315 o
-2 3 8 26.454 25.035 0.552 3.138 o
-2 3 9 7.601 7.990 0.197 26.320 o
-2 3 10 21.339 21.912 0.522 3.687 o
-2 3 11 19.492 19.941 0.463 4.642 o
-2 3 12 82.752 82.809 2.493 0.172 o
-2 3 13 3.632 3.803 0.108 90.562 o
-2 3 14 4.675 4.877 0.128 63.397 o
-2 3 15 11.192 11.281 0.315 10.579 o
-2 3 16 32.197 32.257 0.709 1.927 o
-2 3 17 4.403 4.571 0.158 44.517 o
-2 3 18 8.774 9.094 0.227 19.909 o
-2 3 19 1.380 1.409 0.099 122.166 o
-2 3 20 14.980 15.094 0.374 7.239 o
-2 3 22 10.751 10.650 0.256 15.242 o
-2 3 23 1.124 1.281 0.246 19.967 o
-2 3 24 1.555 1.557 0.167 42.849 o
-2 4 1 16.540 16.059 0.345 8.003 o
-2 4 2 59.405 59.331 1.340 0.545 o
-2 4 3 31.360 32.020 0.660 2.177 o
-2 4 4 0.413 0.453 0.049 496.022 o
-2 4 5 33.148 33.626 0.739 1.781 o
-2 4 6 3.586 3.793 0.118 77.793 o
-2 4 7 35.934 36.424 0.778 1.587 o
-2 4 8 0.514 0.532 0.049 493.833 o
-2 4 9 0.361 0.335 0.049 497.454 o
-2 4 10 22.856 23.192 0.502 3.830 o
-2 4 11 17.236 18.109 0.374 6.831 o
-2 4 13 10.489 10.345 0.246 16.409 o
-2 4 14 8.193 8.453 0.266 15.344 o
-2 4 15 9.927 10.217 0.246 16.645 o
-2 4 16 14.190 14.719 0.335 8.834 o
-2 4 17 10.485 10.621 0.256 15.336 o
-2 4 18 1.051 1.015 0.108 102.272 o
-2 4 20 2.466 2.542 0.138 61.394 o
-2 4 21 2.180 2.296 0.246 19.826 o
-2 5 1 0.342 0.276 0.039 775.870 o
-2 5 2 15.331 15.291 0.453 5.188 o
-2 5 3 3.250 3.163 0.108 93.323 o
-2 5 4 3.300 3.429 0.118 79.150 o
-2 5 5 4.107 4.010 0.128 65.878 o
-2 5 7 0.247 0.227 0.049 499.124 o
-2 5 8 1.089 1.074 0.089 151.720 o
-2 5 9 0.872 0.818 0.128 73.648 o
-2 5 10 3.053 3.133 0.532 4.274 o
-2 5 11 0.508 0.522 0.079 194.529 o
-2 5 12 0.849 0.828 0.167 43.169 o
-2 5 13 5.503 5.448 0.246 18.876 o
-2 5 14 2.377 2.266 0.108 97.834 o
-2 5 16 12.552 12.828 0.847 1.647 o
-2 5 17 0.592 0.611 0.089 153.642 o
-2 5 19 1.450 1.182 0.197 31.104 o
-2 6 1 0.563 0.591 0.059 343.669 o
-2 6 3 15.102 14.611 1.015 1.149 o
-2 6 5 8.433 8.424 0.355 9.031 o
-2 6 7 3.376 3.291 0.138 59.550 o
-2 6 8 1.817 1.941 0.118 84.351 o
-2 6 9 3.006 2.680 0.138 60.574 o
-2 6 11 5.732 5.921 0.305 12.472 o
-2 6 12 0.395 0.394 0.089 154.124 o
-2 6 14 1.472 1.507 0.167 42.890 o
-2 6 15 5.561 5.192 0.266 16.330 o
-2 6 16 0.603 0.522 0.138 63.713 o
-2 7 4 1.291 1.360 0.177 38.367 o
-2 7 6 3.003 2.818 0.217 25.286 o
-2 7 7 4.252 4.187 0.246 19.324 o
-2 7 8 3.379 3.369 0.227 23.030 o
-2 7 10 1.258 1.192 0.187 34.481 o
-2 7 11 2.891 2.936 0.227 23.189 o
-2 7 12 0.843 0.729 0.148 55.418 o
-1 0 2 776.180 707.467 15.724 0.004 o
-1 0 4 875.711 822.483 61.853 0.000 o
-1 0 6 205.761 202.771 4.700 0.045 o
-1 0 8 500.714 505.997 11.409 0.008 o
-1 0 10 4.185 3.064 0.108 89.810 o
-1 0 12 111.885 110.918 2.434 0.163 o
-1 0 14 49.928 47.685 1.054 0.863 o
-1 0 16 21.940 22.256 0.483 4.151 o
-1 0 18 59.538 60.129 1.291 0.578 o
-1 0 20 41.958 42.759 0.877 1.230 o
-1 0 22 0.670 0.571 0.069 252.753 o
-1 0 24 21.443 20.848 1.015 1.119 o
-1 0 26 5.877 5.803 0.256 17.399 o
-1 1 2 139.091 154.199 4.365 0.056 o
-1 1 3 333.721 347.709 11.064 0.009 o
-1 1 4 242.065 251.126 6.138 0.027 o
-1 1 5 1.262 1.064 0.039 702.770 o
-1 1 6 0.435 0.502 0.049 495.333 o
-1 1 7 425.471 416.813 9.665 0.011 o
-1 1 8 93.411 93.755 2.118 0.219 o
-1 1 9 172.482 169.608 3.892 0.065 o
-1 1 11 75.554 72.966 1.606 0.372 o
-1 1 12 85.122 87.183 1.921 0.264 o
-1 1 13 5.403 5.567 0.138 53.570 o
-1 1 14 43.813 44.917 0.985 1.004 o
-1 1 15 10.018 10.187 0.227 19.043 o
-1 1 16 6.454 6.256 0.148 45.255 o
-1 1 17 1.700 1.754 0.059 315.019 o
-1 1 18 14.838 14.532 0.325 9.180 o
-1 1 19 9.642 9.271 0.227 19.450 o
-1 1 20 2.809 2.837 0.089 137.472 o
-1 1 21 13.138 13.724 0.315 10.024 o
-1 1 22 12.090 11.921 0.296 11.557 o
-1 1 23 1.592 1.626 0.069 239.528 o
-1 1 24 0.528 0.522 0.049 493.683 o
-1 1 25 1.225 1.438 0.099 122.544 o
-1 2 1 140.414 139.716 3.192 0.096 o
-1 2 2 8.092 8.276 0.227 20.417 o
-1 2 3 169.862 171.194 3.921 0.064 o
-1 2 4 221.756 228.791 5.172 0.037 o
-1 2 5 482.658 492.322 11.123 0.008 o
-1 2 6 16.689 18.581 0.424 5.617 o
-1 2 7 1.226 1.419 0.069 244.888 o
-1 2 8 45.657 45.803 1.054 0.888 o
-1 2 9 8.015 7.774 0.187 28.410 o
-1 2 10 184.828 183.835 4.079 0.058 o
-1 2 11 69.568 72.395 1.586 0.389 o
-1 2 12 33.860 33.557 0.749 1.734 o
-1 2 13 12.781 12.434 0.286 11.992 o
-1 2 14 1.063 1.172 0.049 471.754 o
-1 2 15 12.369 11.882 0.286 12.160 o
-1 2 18 5.412 5.153 0.138 53.984 o
-1 2 19 4.008 3.951 0.118 76.264 o
-1 2 20 47.329 45.892 0.936 1.061 o
-1 2 21 1.002 1.074 0.069 248.651 o
-1 2 22 18.646 18.690 0.434 5.268 o
-1 2 24 0.416 0.374 0.069 254.334 o
-1 2 25 0.442 0.424 0.138 63.771 o
-1 3 2 31.092 32.059 0.768 1.707 o
-1 3 3 14.136 13.419 0.305 10.387 o
-1 3 4 55.553 55.153 1.360 0.546 o
-1 3 5 0.716 0.837 0.059 340.777 o
-1 3 6 103.289 104.179 2.276 0.187 o
-1 3 7 1.465 1.744 0.069 240.357 o
-1 3 8 6.624 6.424 0.177 33.081 o
-1 3 9 1.015 1.143 0.059 334.501 o
-1 3 10 31.031 31.774 0.690 2.040 o
-1 3 11 41.788 42.050 1.064 0.902 o
-1 3 12 0.201 0.266 0.039 779.106 o
-1 3 13 1.167 1.103 0.069 247.041 o
-1 3 14 25.943 26.463 0.621 2.591 o
-1 3 15 5.773 5.783 0.148 46.847 o
-1 3 16 112.370 112.898 2.355 0.171 o
-1 3 17 11.409 11.537 0.266 13.989 o
-1 3 18 1.159 1.074 0.099 123.157 o
-1 3 19 3.796 3.852 0.138 58.376 o
-1 3 20 0.250 0.315 0.069 254.909 o
-1 3 21 12.582 12.838 0.394 6.942 o
-1 3 22 5.065 5.271 0.158 43.261 o
-1 3 23 2.040 2.108 0.118 83.779 o
-1 4 1 5.600 5.980 0.148 46.973 o
-1 4 2 9.339 9.439 0.236 18.218 o
-1 4 4 0.328 0.453 0.039 773.802 o
-1 4 5 58.628 59.075 1.320 0.561 o
-1 4 6 78.470 79.321 2.099 0.235 o
-1 4 7 28.297 27.419 0.670 2.229 o
-1 4 8 7.786 7.882 0.227 20.645 o
-1 4 9 1.257 1.320 0.089 150.662 o
-1 4 11 2.791 2.926 0.108 95.415 o
-1 4 12 19.874 20.286 0.512 3.899 o
-1 4 13 0.322 0.246 0.039 776.754 o
-1 4 14 3.269 3.320 0.108 92.951 o
-1 4 15 36.871 36.680 0.690 1.893 o
-1 4 16 4.115 3.990 0.138 57.683 o
-1 4 17 10.028 9.852 0.246 16.675 o
-1 4 20 9.504 9.685 0.374 8.025 o
-1 4 21 2.315 2.276 0.236 21.477 o
-1 5 1 9.480 9.793 0.227 19.402 o
-1 5 2 67.750 67.272 2.059 0.253 o
-1 5 3 1.154 1.192 0.069 246.744 o
-1 5 4 4.522 4.838 0.138 56.110 o
-1 5 6 30.755 30.089 0.946 1.204 o
-1 5 7 0.876 0.966 0.079 192.422 o
-1 5 8 0.752 0.650 0.167 43.205 o
-1 5 9 6.666 6.828 0.197 27.382 o
-1 5 10 13.607 14.079 0.414 6.247 o
-1 5 11 1.515 1.517 0.089 149.156 o
-1 5 12 13.535 13.005 0.296 11.121 o
-1 5 14 1.756 1.773 0.108 100.180 o
-1 5 15 1.117 1.094 0.089 151.591 o
-1 5 17 0.441 0.286 0.079 194.954 o
-1 6 1 2.202 1.951 0.108 98.798 o
-1 6 2 6.276 6.187 0.266 16.080 o
-1 6 4 1.610 1.833 0.108 100.452 o
-1 6 5 0.730 0.709 0.089 153.249 o
-1 6 6 8.323 8.660 0.897 1.495 o
-1 6 7 8.478 8.887 0.236 18.686 o
-1 6 8 2.470 2.562 0.128 70.744 o
-1 6 10 0.468 0.453 0.089 153.984 o
-1 6 13 3.208 2.631 0.227 23.154 o
-1 6 15 4.822 5.074 0.256 17.716 o
-1 6 16 0.560 0.394 0.128 73.909 o
-1 7 1 1.375 1.488 0.177 38.327 o
-1 7 3 3.025 3.054 0.227 23.148 o
-1 7 4 3.163 3.192 0.227 23.102 o
-1 7 6 3.713 3.360 0.236 21.128 o
-1 7 11 4.060 4.414 0.246 19.341 o
0 0 2 135.894 142.238 4.522 0.053 o
0 0 4 63.950 70.050 1.596 0.394 o
0 0 6 1041.600 905.972 47.331 0.001 o
0 0 8 291.283 292.349 6.709 0.022 o
0 0 10 395.454 397.010 9.094 0.012 o
0 0 12 14.009 13.941 0.325 9.367 o
0 0 14 49.424 52.099 1.133 0.762 o
0 0 16 10.509 11.074 0.246 16.263 o
0 0 18 0.523 1.626 0.079 192.527 o
0 0 20 9.992 11.370 0.276 13.574 o
0 0 22 15.772 16.266 0.355 7.741 o
0 0 24 1.029 1.783 0.099 122.605 o
0 1 1 455.682 475.996 10.729 0.009 o
0 1 2 91.222 91.617 2.089 0.226 o
0 1 3 19.418 18.148 0.414 5.638 o
0 1 4 1538.450 1490.680 51.015 0.000 o
0 1 5 63.716 71.370 1.586 0.398 o
0 1 6 299.673 311.777 7.074 0.020 o
0 1 7 38.437 35.646 0.798 1.501 o
0 1 8 26.359 27.616 0.650 2.378 o
0 1 9 39.135 37.518 0.867 1.300 o
0 1 10 143.114 146.081 3.291 0.091 o
0 1 11 203.954 199.865 4.700 0.045 o
0 1 12 0.235 0.187 0.030 1381.200 o
0 1 13 26.483 25.192 0.552 3.134 o
0 1 14 8.561 8.739 0.197 25.342 o
0 1 15 3.592 3.507 0.089 128.965 o
0 1 16 3.533 3.567 0.099 108.012 o
0 1 17 19.600 19.587 0.434 5.169 o
0 1 18 25.019 24.926 0.562 3.100 o
0 1 19 49.182 50.227 1.094 0.812 o
0 1 20 3.116 3.015 0.089 134.569 o
0 1 21 15.710 15.695 0.355 7.785 o
0 1 22 4.044 4.138 0.128 65.875 o
0 1 23 10.372 10.108 0.236 17.637 o
0 1 24 4.182 4.010 0.128 65.699 o
0 1 25 0.954 0.936 0.089 152.363 o
0 2 0 12.004 13.646 0.335 9.236 o
0 2 1 74.538 73.114 1.645 0.359 o
0 2 2 123.471 130.711 3.025 0.110 o
0 2 4 181.031 185.598 4.237 0.055 o
0 2 5 47.134 48.956 1.113 0.800 o
0 2 6 5.417 5.320 0.138 53.799 o
0 2 7 135.035 138.150 3.113 0.102 o
0 2 8 0.384 0.483 0.039 771.557 o
0 2 9 57.087 54.060 1.182 0.681 o
0 2 10 27.621 25.665 0.581 2.845 o
0 2 11 1.477 1.379 0.059 323.908 o
0 2 12 15.712 16.473 0.365 7.401 o
0 2 13 9.726 9.734 0.227 19.297 o
0 2 14 57.191 56.503 1.251 0.619 o
0 2 15 95.053 95.597 2.059 0.227 o
0 2 16 2.653 2.660 0.079 171.653 o
0 2 18 11.589 11.576 0.286 12.385 o
0 2 19 12.178 11.764 0.296 11.555 o
0 2 20 24.923 24.808 0.552 3.194 o
0 2 21 12.876 12.690 0.305 10.711 o
0 2 22 0.420 0.424 0.069 254.233 o
0 2 23 3.852 3.862 0.138 58.270 o
0 2 24 6.918 7.291 0.197 27.051 o
0 3 1 48.590 49.281 1.113 0.793 o
0 3 2 108.836 114.504 2.591 0.148 o
0 3 3 80.944 85.686 1.882 0.278 o
0 3 4 54.191 56.011 1.212 0.661 o
0 3 5 15.074 15.705 0.365 7.521 o
0 3 6 0.121 0.256 0.030 1385.120 o
0 3 7 0.907 1.025 0.049 478.924 o
0 3 8 95.601 97.312 2.099 0.219 o
0 3 9 40.954 40.739 0.847 1.316 o
0 3 10 1.412 1.232 0.059 326.679 o
0 3 11 1.233 1.478 0.069 244.506 o
0 3 12 6.618 8.680 0.305 12.169 o
0 3 14 27.538 27.055 0.571 2.903 o
0 3 15 0.210 0.296 0.039 778.646 o
0 3 16 1.118 1.153 0.069 247.264 o
0 3 17 5.104 4.956 0.138 54.824 o
0 3 18 4.552 4.916 0.148 49.546 o
0 3 19 0.386 0.355 0.059 345.913 o
0 3 20 11.906 12.079 0.276 12.972 o
0 3 21 2.463 2.512 0.099 116.129 o
0 3 22 4.554 4.010 0.138 56.847 o
0 4 0 2.746 2.788 0.128 70.062 o
0 4 1 11.487 11.813 0.266 13.924 o
0 4 2 55.584 55.794 1.281 0.601 o
0 4 3 3.790 3.882 0.108 89.753 o
0 4 4 11.734 11.931 0.315 10.430 o
0 4 5 73.596 74.543 1.586 0.381 o
0 4 6 5.972 6.335 0.167 37.259 o
0 4 7 0.208 0.187 0.030 1382.640 o
0 4 8 5.275 5.458 0.177 34.767 o
0 4 9 6.369 6.069 0.167 36.956 o
0 4 10 16.005 16.148 0.345 8.072 o
0 4 11 0.573 0.562 0.049 492.524 o
0 4 12 23.503 23.715 0.502 3.789 o
0 4 13 5.919 5.931 0.158 41.673 o
0 4 15 25.414 25.242 0.522 3.456 o
0 4 16 16.003 15.980 0.365 7.396 o
0 4 17 0.778 0.739 0.227 23.624 o
0 4 18 2.370 2.059 0.128 71.313 o
0 4 19 3.379 3.301 0.305 12.833 o
0 4 20 3.925 3.527 0.276 15.601 o
0 5 2 7.119 7.035 0.177 32.296 o
0 5 3 1.041 1.163 0.118 86.023 o
0 5 4 23.176 23.537 0.493 3.929 o
0 5 5 3.039 3.163 0.128 69.148 o
0 5 6 70.095 70.316 3.241 0.109 o
0 5 8 6.140 5.902 0.158 41.387 o
0 5 11 3.598 3.714 0.148 51.776 o
0 5 12 7.697 8.049 0.227 20.647 o
0 5 13 0.941 0.966 0.079 192.121 o
0 5 14 13.243 13.567 0.305 10.551 o
0 5 15 1.687 1.527 0.099 121.063 o
0 5 16 22.670 22.788 0.601 2.862 o
0 5 18 0.904 0.936 0.177 38.499 o
0 6 0 16.244 16.266 0.404 6.212 o
0 6 1 5.577 5.163 0.246 18.894 o
0 6 2 8.926 8.946 0.227 19.872 o
0 6 3 3.686 3.961 0.197 29.938 o
0 6 4 0.673 0.798 0.099 124.342 o
0 6 5 26.997 27.015 0.591 2.768 o
0 6 8 0.770 0.916 0.089 152.900 o
0 6 9 0.462 0.502 0.079 194.670 o
0 6 10 10.937 11.123 0.522 4.225 o
0 6 11 1.382 1.123 0.099 122.547 o
0 6 12 4.397 4.778 0.276 15.453 o
0 6 13 4.332 4.483 0.167 39.950 o
0 6 15 1.595 1.724 0.187 34.343 o
0 7 1 7.926 7.724 0.296 12.796 o
0 7 3 0.635 0.591 0.148 55.500 o
0 7 5 0.849 0.759 0.158 48.723 o
0 7 8 0.981 0.897 0.167 43.131 o
0 7 9 6.335 6.237 0.296 13.171 o
0 7 10 1.719 1.576 0.197 31.012 o
0 7 11 0.750 0.768 0.158 48.747 o
1 0 2 10.684 10.759 0.296 11.978 o
1 0 6 203.707 226.111 5.222 0.037 o
1 0 8 70.107 71.055 1.675 0.356 o
1 0 10 678.560 684.176 15.429 0.004 o
1 0 12 7.111 5.872 0.138 49.533 o
1 0 14 84.283 84.760 1.892 0.273 o
1 0 16 12.443 12.355 0.286 12.084 o
1 0 18 85.637 86.306 2.049 0.238 o
1 0 20 88.380 89.597 2.049 0.235 o
1 0 22 4.081 4.030 0.148 50.901 o
1 0 24 1.336 1.103 0.089 150.776 o
1 1 0 1571.010 1404.290 30.700 0.001 o
1 1 1 38.748 38.759 0.847 1.347 o
1 1 2 423.466 438.607 17.537 0.004 o
1 1 3 793.899 734.965 16.503 0.004 o
1 1 4 63.512 67.459 1.507 0.436 o
1 1 5 122.389 115.568 2.621 0.141 o
1 1 6 208.981 213.737 4.857 0.042 o
1 1 7 17.564 18.503 0.434 5.349 o
1 1 8 95.982 92.090 2.089 0.222 o
1 1 9 184.334 189.490 4.315 0.053 o
1 1 10 68.766 72.681 1.616 0.378 o
1 1 12 1.716 1.941 0.059 312.458 o
1 1 13 7.336 6.650 0.158 39.134 o
1 1 14 123.887 124.888 2.739 0.129 o
1 1 15 4.177 4.197 0.108 87.451 o
1 1 16 22.685 22.877 0.502 3.845 o
1 1 17 3.543 3.557 0.089 129.162 o
1 1 18 4.089 4.039 0.099 103.476 o
1 1 19 11.329 11.567 0.266 14.008 o
1 1 20 5.107 5.113 0.128 61.963 o
1 1 21 9.376 9.754 0.227 19.462 o
1 1 22 2.969 2.906 0.089 136.063 o
1 1 23 7.651 8.148 0.197 26.227 o
1 1 24 14.031 13.527 0.296 10.952 o
1 2 0 315.605 320.181 7.232 0.019 o
1 2 1 266.949 267.501 6.039 0.027 o
1 2 2 0.111 0.118 0.020 3115.990 o
1 2 3 351.483 355.936 7.980 0.015 o
1 2 4 19.475 19.596 0.453 4.819 o
1 2 5 85.764 90.405 2.030 0.240 o
1 2 6 158.911 160.583 3.645 0.074 o
1 2 7 79.545 80.976 1.803 0.301 o
1 2 8 5.208 5.636 0.158 42.836 o
1 2 9 6.949 7.173 0.167 35.624 o
1 2 10 5.099 4.483 0.128 62.812 o
1 2 11 8.213 8.512 0.197 25.683 o
1 2 12 14.324 14.306 0.315 9.755 o
1 2 13 26.253 26.779 0.591 2.792 o
1 2 14 6.700 6.493 0.167 36.324 o
1 2 15 0.876 0.857 0.039 738.068 o
1 2 16 5.415 5.409 0.138 53.710 o
1 2 17 3.969 4.030 0.108 88.696 o
1 2 18 0.166 0.158 0.039 780.506 o
1 2 19 5.636 5.793 0.167 37.938 o
1 2 20 0.426 0.512 0.049 495.399 o
1 2 21 2.416 2.217 0.108 97.790 o
1 2 22 11.209 10.788 0.256 15.065 o
1 2 23 0.460 0.502 0.069 253.926 o
1 2 24 9.607 9.330 0.315 10.994 o
1 3 0 18.041 18.621 0.502 4.143 o
1 3 1 30.971 29.912 0.729 1.879 o
1 3 2 45.397 45.203 0.985 0.994 o
1 3 4 7.826 7.675 0.207 24.189 o
1 3 5 21.611 20.857 0.542 3.475 o
1 3 6 43.480 42.818 0.956 1.063 o
1 3 7 17.862 18.651 0.414 5.744 o
1 3 8 25.567 24.631 0.532 3.363 o
1 3 9 10.088 9.695 0.227 19.130 o
1 3 10 0.696 0.690 0.039 753.536 o
1 3 11 15.201 14.719 0.365 7.563 o
1 3 12 33.299 33.459 0.729 1.819 o
1 3 13 28.108 28.237 0.581 2.792 o
1 3 14 14.426 14.611 0.325 9.242 o
1 3 15 0.823 0.897 0.059 339.083 o
1 3 16 0.281 0.227 0.049 498.832 o
1 3 17 1.544 1.517 0.079 186.847 o
1 3 18 35.718 35.449 0.916 1.221 o
1 3 19 14.505 14.089 0.325 9.272 o
1 3 20 0.243 0.236 0.059 346.914 o
1 3 21 1.194 1.133 0.079 190.366 o
1 4 0 16.544 17.399 0.374 6.946 o
1 4 1 0.431 0.640 0.049 494.316 o
1 4 2 52.813 54.976 1.015 0.880 o
1 4 3 14.069 14.345 0.355 8.078 o
1 4 4 2.892 2.916 0.099 113.130 o
1 4 5 49.269 51.242 1.054 0.857 o
1 4 6 7.832 7.921 0.187 28.504 o
1 4 7 1.207 1.241 0.069 245.986 o
1 4 8 57.029 57.676 1.409 0.509 o
1 4 9 11.720 11.724 0.355 8.516 o
1 4 11 1.294 1.360 0.069 244.487 o
1 4 12 1.478 1.507 0.069 241.615 o
1 4 13 7.792 7.655 0.227 20.693 o
1 4 14 1.739 1.645 0.089 147.781 o
1 4 15 17.475 18.040 0.394 6.276 o
1 4 16 12.375 12.178 0.443 5.646 o
1 4 17 4.027 3.773 0.424 6.697 o
1 4 18 0.791 0.650 0.099 124.274 o
1 4 19 4.138 4.010 0.266 16.682 o
1 4 20 2.384 2.384 0.246 19.796 o
1 5 0 4.217 4.099 0.108 87.489 o
1 5 2 11.661 11.882 0.266 13.861 o
1 5 3 0.512 0.631 0.059 343.955 o
1 5 4 86.141 87.883 1.793 0.294 o
1 5 5 4.016 4.039 0.148 50.987 o
1 5 6 0.210 0.158 0.049 499.639 o
1 5 7 0.890 1.044 0.108 102.477 o
1 5 8 7.688 7.842 0.197 26.311 o
1 5 9 0.677 0.739 0.079 193.678 o
1 5 10 2.125 2.246 0.118 83.473 o
1 5 11 0.935 0.828 0.197 31.206 o
1 5 12 20.994 20.453 0.424 5.223 o
1 5 13 0.339 0.374 0.069 254.587 o
1 5 14 18.590 18.404 0.414 5.695 o
1 5 16 6.534 6.276 0.187 30.265 o
1 6 0 5.879 5.744 0.276 15.133 o
1 6 1 5.536 5.576 0.266 16.297 o
1 6 2 2.588 2.552 0.118 82.127 o
1 6 3 0.620 0.562 0.177 38.570 o
1 6 4 4.892 4.818 0.542 4.096 o
1 6 5 10.997 10.759 0.404 6.833 o
1 6 6 3.620 3.714 0.148 51.747 o
1 6 7 0.292 0.256 0.069 254.881 o
1 6 8 11.472 11.764 0.601 3.217 o
1 6 9 11.017 11.133 0.276 13.337 o
1 6 10 6.034 6.325 0.345 9.835 o
1 6 13 2.075 2.236 0.217 25.554 o
1 6 14 0.594 0.512 0.138 63.717 o
1 6 15 11.311 10.956 0.345 9.047 o
1 7 0 1.914 1.665 0.187 34.264 o
1 7 1 1.499 1.576 0.187 34.386 o
1 7 2 0.683 0.434 0.138 63.701 o
1 7 4 1.556 1.458 0.197 31.058 o
1 7 5 3.497 3.222 0.207 27.465 o
1 7 9 4.170 4.227 0.256 17.925 o
1 7 11 2.483 2.118 0.197 30.745 o
2 0 0 20.072 25.390 0.414 5.288 o
2 0 4 4.565 8.148 0.197 28.320 o
2 0 6 3.720 3.941 0.128 66.860 o
2 0 8 94.859 102.179 2.355 0.181 o
2 0 10 29.927 33.971 0.749 1.785 o
2 0 12 75.594 76.100 1.655 0.353 o
2 0 14 97.568 97.784 2.128 0.213 o
2 0 16 34.236 35.449 0.788 1.581 o
2 0 18 5.063 5.172 0.167 38.884 o
2 0 20 18.076 19.311 0.434 5.286 o
2 0 22 14.357 14.729 0.374 7.323 o
2 0 24 34.087 33.774 0.650 2.152 o
2 1 0 368.681 290.693 6.759 0.020 o
2 1 1 66.400 67.242 1.498 0.436 o
2 1 2 3.072 2.660 0.069 209.001 o
2 1 3 454.776 474.755 10.680 0.009 o
2 1 4 9.352 9.192 0.227 19.609 o
2 1 5 16.425 20.237 0.463 4.805 o
2 1 6 417.775 418.114 9.399 0.011 o
2 1 7 30.653 29.991 0.680 2.110 o
2 1 8 45.470 47.025 1.054 0.886 o
2 1 9 183.269 175.017 3.931 0.062 o
2 1 10 40.854 41.873 0.926 1.140 o
2 1 11 1.889 1.685 0.049 428.755 o
2 1 12 23.051 23.793 0.532 3.475 o
2 1 13 117.570 117.479 2.611 0.143 o
2 1 14 2.953 3.044 0.079 166.330 o
2 1 15 5.317 5.232 0.128 61.251 o
2 1 16 0.459 0.394 0.030 1354.140 o
2 1 17 4.334 4.374 0.108 86.388 o
2 1 18 20.844 21.173 0.473 4.378 o
2 1 19 32.972 33.429 0.739 1.785 o
2 1 20 25.338 24.739 0.562 3.092 o
2 1 21 9.339 9.153 0.236 18.278 o
2 1 22 0.699 0.611 0.039 755.401 o
2 1 23 6.605 6.769 0.167 36.273 o
2 1 24 8.154 8.384 0.227 20.364 o
2 2 0 508.713 508.726 11.399 0.008 o
2 2 1 1.765 1.685 0.069 236.945 o
2 2 2 3.135 3.064 0.089 134.240 o
2 2 3 17.354 17.084 0.394 6.332 o
2 2 4 1.141 1.241 0.059 331.585 o
2 2 5 152.730 150.583 3.409 0.084 o
2 2 6 9.452 10.158 0.256 15.751 o
2 2 7 57.627 55.646 1.251 0.619 o
2 2 8 53.682 55.341 1.222 0.656 o
2 2 9 74.007 76.848 1.724 0.332 o
2 2 10 75.466 73.971 1.655 0.354 o
2 2 11 31.515 31.281 0.700 1.990 o
2 2 12 0.471 0.453 0.030 1349.570 o
2 2 13 35.202 35.331 0.778 1.602 o
2 2 14 1.467 1.645 0.049 447.849 o
2 2 15 12.453 12.463 0.276 12.771 o
2 2 16 12.574 12.581 0.286 12.025 o
2 2 17 45.370 45.725 1.025 0.932 o
2 2 18 2.145 2.158 0.079 179.208 o
2 2 20 1.747 2.020 0.089 146.771 o
2 2 22 2.763 2.985 0.099 113.598 o
2 2 23 10.941 11.212 0.256 15.084 o
2 3 0 11.730 12.010 0.591 3.314 o
2 3 1 27.733 28.572 0.640 2.399 o
2 3 2 88.956 86.287 1.892 0.268 o
2 3 3 4.725 4.345 0.138 56.194 o
2 3 4 207.555 208.820 4.631 0.045 o
2 3 5 7.313 7.488 0.177 31.875 o
2 3 6 2.280 2.374 0.069 224.479 o
2 3 7 28.629 28.690 0.660 2.265 o
2 3 8 1.568 1.685 0.059 318.744 o
2 3 9 1.450 1.409 0.059 324.167 o
2 3 10 2.367 2.325 0.108 97.775 o
2 3 11 0.190 0.197 0.030 1383.320 o
2 3 12 3.691 3.724 0.099 106.683 o
2 3 13 0.085 0.108 0.030 1388.800 o
2 3 14 8.150 8.227 0.197 25.834 o
2 3 15 4.997 4.906 0.128 62.525 o
2 3 16 3.577 3.734 0.128 67.415 o
2 3 17 0.218 0.236 0.039 779.056 o
2 3 18 1.324 1.557 0.069 243.094 o
2 3 19 0.257 0.266 0.049 498.868 o
2 3 20 0.276 0.276 0.059 346.694 o
2 3 21 1.671 1.596 0.089 148.239 o
2 3 22 4.661 4.650 0.197 29.281 o
2 4 0 12.177 12.286 0.286 12.158 o
2 4 2 1.973 2.000 0.079 181.476 o
2 4 3 52.663 53.685 1.143 0.736 o
2 4 4 52.486 52.030 1.241 0.647 o
2 4 5 18.475 17.921 0.404 5.949 o
2 4 6 3.347 3.301 0.108 92.689 o
2 4 7 18.034 17.784 0.394 6.236 o
2 4 8 4.994 5.005 0.128 62.404 o
2 4 9 6.668 6.719 0.187 29.979 o
2 4 10 1.690 1.635 0.069 238.233 o
2 4 11 0.193 0.266 0.039 779.246 o
2 4 12 33.597 33.252 0.788 1.601 o
2 4 13 11.032 11.054 0.266 14.175 o
2 4 14 7.773 7.448 0.256 16.682 o
2 4 15 5.389 5.310 0.177 34.732 o
2 4 17 5.968 6.286 0.197 28.023 o
2 4 18 10.599 10.227 0.483 4.928 o
2 4 19 3.590 3.576 0.256 18.078 o
2 5 0 10.913 10.778 0.246 16.165 o
2 5 1 3.687 3.557 0.108 90.840 o
2 5 2 1.720 1.616 0.128 72.511 o
2 5 3 1.242 1.222 0.069 245.734 o
2 5 4 2.709 2.897 0.108 95.748 o
2 5 5 1.197 1.163 0.069 246.473 o
2 5 6 1.746 1.911 0.089 147.064 o
2 5 7 0.253 0.256 0.049 498.951 o
2 5 8 67.974 68.720 1.675 0.360 o
2 5 9 5.381 5.429 0.177 34.687 o
2 5 10 3.480 3.567 0.167 41.092 o
2 5 11 0.348 0.335 0.069 254.622 o
2 5 12 0.747 0.818 0.089 153.082 o
2 5 13 1.527 1.507 0.108 100.988 o
2 5 14 17.401 17.143 1.123 0.936 o
2 5 15 1.096 1.222 0.177 38.431 o
2 6 0 0.791 0.798 0.069 251.321 o
2 6 1 0.576 0.443 0.059 344.208 o
2 6 2 6.589 6.729 0.266 15.950 o
2 6 3 11.893 12.512 0.286 12.199 o
2 6 4 6.454 6.650 0.197 27.585 o
2 6 5 0.217 0.217 0.059 347.051 o
2 6 6 0.282 0.236 0.069 254.928 o
2 6 7 5.394 5.163 0.167 38.542 o
2 6 8 0.676 0.739 0.069 252.237 o
2 6 9 0.502 0.611 0.089 153.804 o
2 6 11 3.182 3.064 0.138 60.029 o
2 6 12 7.169 6.995 0.305 12.211 o
2 6 13 0.619 0.552 0.148 55.508 o
2 6 14 3.936 3.833 0.236 21.025 o
2 7 0 1.086 0.926 0.148 55.288 o
2 7 1 2.206 1.852 0.197 30.861 o
2 7 3 2.010 2.010 0.207 28.053 o
2 7 4 3.993 3.862 0.246 19.411 o
2 7 6 1.986 1.911 0.207 28.068 o
2 7 7 2.847 2.887 0.227 23.204 o
3 0 0 393.445 316.053 7.163 0.018 o
3 0 2 182.473 191.855 4.483 0.050 o
3 0 4 17.582 20.720 0.690 2.344 o
3 0 6 585.407 583.554 13.123 0.006 o
3 0 8 14.002 10.246 0.256 14.200 o
3 0 10 1.162 1.123 0.049 469.285 o
3 0 12 273.898 276.358 6.128 0.026 o
3 0 14 3.693 3.675 0.099 106.809 o
3 0 16 10.823 10.769 0.256 15.198 o
3 0 18 9.722 10.315 0.246 16.703 o
3 0 20 36.236 35.400 0.739 1.724 o
3 0 22 33.176 33.675 0.719 1.859 o
3 0 24 1.719 1.921 0.227 23.478 o
3 1 0 104.863 109.509 2.434 0.166 o
3 1 1 433.029 416.074 11.281 0.008 o
3 1 2 433.853 447.917 10.059 0.010 o
3 1 3 37.998 41.222 0.916 1.183 o
3 1 4 12.671 11.350 0.286 12.151 o
3 1 5 4.427 5.212 0.148 49.511 o
3 1 6 4.980 4.916 0.138 55.117 o
3 1 7 26.757 28.808 0.660 2.301 o
3 1 8 36.134 37.587 0.857 1.351 o
3 1 9 2.007 1.448 0.049 428.762 o
3 1 10 83.385 83.558 1.852 0.284 o
3 1 11 13.144 13.281 0.296 11.177 o
3 1 12 10.313 10.867 0.246 16.377 o
3 1 13 36.411 35.656 0.788 1.554 o
3 1 14 0.619 0.670 0.030 1315.800 o
3 1 15 2.865 2.926 0.079 167.944 o
3 1 16 57.218 57.991 1.291 0.587 o
3 1 17 1.272 1.360 0.059 328.130 o
3 1 18 2.862 2.808 0.099 113.548 o
3 1 19 7.093 7.606 0.187 29.264 o
3 1 20 0.444 0.443 0.039 770.174 o
3 1 21 3.974 4.237 0.108 88.237 o
3 1 22 0.904 0.887 0.059 338.057 o
3 1 23 21.721 21.941 0.483 4.170 o
3 2 0 1.467 1.872 0.069 239.552 o
3 2 1 8.028 7.636 0.197 26.140 o
3 2 2 273.661 272.861 6.197 0.026 o
3 2 3 102.938 100.356 2.276 0.188 o
3 2 4 89.277 90.139 2.000 0.244 o
3 2 5 60.385 60.119 1.399 0.506 o
3 2 6 41.703 43.853 1.044 0.926 o
3 2 7 3.764 3.675 0.099 106.404 o
3 2 8 102.297 100.819 2.434 0.169 o
3 2 9 2.341 2.207 0.059 293.358 o
3 2 10 10.915 11.015 0.246 16.119 o
3 2 11 8.842 9.113 0.207 23.100 o
3 2 12 21.830 21.143 0.473 4.325 o
3 2 13 2.698 2.887 0.079 169.972 o
3 2 14 7.855 7.705 0.187 28.577 o
3 2 15 1.185 1.182 0.059 331.329 o
3 2 16 1.879 1.882 0.069 234.070 o
3 2 17 6.572 6.916 0.167 36.226 o
3 2 18 20.337 20.483 0.493 4.137 o
3 2 19 14.468 14.207 0.325 9.269 o
3 2 20 6.265 6.246 0.167 36.974 o
3 2 21 5.014 5.192 0.148 48.599 o
3 2 22 1.617 1.675 0.089 148.310 o
3 2 23 0.954 0.906 0.187 34.559 o
3 3 0 69.103 70.838 1.478 0.437 o
3 3 1 2.183 2.020 0.079 179.488 o
3 3 2 19.401 20.345 0.473 4.478 o
3 3 3 95.647 95.075 2.059 0.227 o
3 3 4 105.837 103.548 2.236 0.191 o
3 3 5 0.078 0.128 0.030 1388.740 o
3 3 6 20.263 19.862 0.434 5.113 o
3 3 7 2.281 2.079 0.079 178.296 o
3 3 8 112.065 111.952 2.542 0.152 o
3 3 9 34.028 35.015 0.768 1.652 o
3 3 10 0.219 0.217 0.030 1381.250 o
3 3 11 15.325 15.498 0.345 8.213 o
3 3 12 31.626 31.567 0.700 1.986 o
3 3 13 12.027 11.675 0.266 13.781 o
3 3 14 47.680 47.833 1.025 0.914 o
3 3 15 4.489 4.512 0.118 73.816 o
3 3 16 7.780 8.040 0.197 26.173 o
3 3 17 6.933 6.936 0.167 35.785 o
3 3 18 1.979 2.138 0.079 180.810 o
3 3 19 0.713 0.709 0.059 341.552 o
3 3 20 0.478 0.502 0.059 344.765 o
3 3 21 3.631 3.636 0.118 77.894 o
3 3 22 5.897 5.921 0.276 15.113 o
3 4 0 5.928 5.961 0.167 37.520 o
3 4 1 0.384 0.276 0.039 774.742 o
3 4 2 2.248 2.099 0.089 143.676 o
3 4 3 17.139 17.586 0.463 4.839 o
3 4 4 36.518 36.592 1.172 0.790 o
3 4 5 0.218 0.227 0.039 779.143 o
3 4 6 0.259 0.296 0.039 777.640 o
3 4 7 53.089 53.833 1.222 0.660 o
3 4 8 19.429 19.931 0.424 5.362 o
3 4 9 9.586 9.468 0.227 19.430 o
3 4 10 10.855 10.424 0.256 15.245 o
3 4 12 1.679 1.695 0.089 147.955 o
3 4 13 12.825 12.572 0.296 11.325 o
3 4 14 3.013 2.985 0.118 80.534 o
3 4 16 2.149 2.256 0.108 98.518 o
3 4 17 15.005 15.389 0.335 8.659 o
3 4 18 9.387 8.867 0.345 9.394 o
3 5 0 16.352 15.843 0.355 7.693 o
3 5 1 8.629 8.443 0.256 16.280 o
3 5 2 2.775 2.916 0.128 69.890 o
3 5 5 1.881 1.764 0.079 183.273 o
3 5 6 14.913 14.286 0.325 9.188 o
3 5 7 4.515 4.473 0.138 56.478 o
3 5 8 1.568 1.517 0.089 148.915 o
3 5 9 0.381 0.384 0.059 345.849 o
3 5 12 1.549 1.458 0.108 100.994 o
3 5 13 0.279 0.335 0.079 195.196 o
3 5 14 1.566 1.438 0.187 34.387 o
3 6 0 0.058 0.374 0.099 125.102 o
3 6 1 1.003 0.739 0.069 250.005 o
3 6 2 1.184 1.133 0.069 246.741 o
3 6 3 0.552 0.877 0.089 153.456 o
3 6 4 1.004 1.054 0.108 102.312 o
3 6 5 3.106 3.035 0.158 46.696 o
3 6 6 0.715 0.768 0.069 251.911 o
3 6 7 13.693 13.842 0.374 7.438 o
3 6 8 0.232 0.197 0.059 347.029 o
3 6 9 0.632 0.946 0.099 124.291 o
3 6 10 1.860 2.039 0.118 84.185 o
3 6 11 2.512 2.158 0.217 25.475 o
3 6 12 2.495 2.571 0.217 25.435 o
3 6 13 3.628 3.468 0.227 22.956 o
3 7 0 1.025 1.094 0.177 38.460 o
3 7 2 3.373 3.350 0.227 23.034 o
3 7 3 4.392 4.059 0.246 19.308 o
3 7 4 0.704 0.640 0.158 48.772 o
3 7 6 0.606 0.552 0.148 55.512 o
3 7 8 1.047 0.995 0.167 43.103 o
3 7 9 1.806 1.901 0.197 30.956 o
3 7 10 1.299 1.340 0.177 38.367 o
4 0 0 44.558 44.917 1.123 0.807 o
4 0 4 34.285 38.237 0.906 1.243 o
4 0 6 11.786 12.503 0.315 10.372 o
4 0 8 1.430 1.005 0.049 461.851 o
4 0 10 4.583 4.315 0.108 85.423 o
4 0 12 3.331 2.877 0.079 163.022 o
4 0 16 47.069 48.483 1.084 0.837 o
4 0 18 0.097 0.167 0.049 500.210 o
4 0 22 27.815 29.419 0.719 1.973 o
4 1 0 2.060 2.345 0.079 179.122 o
4 1 1 151.427 151.775 3.438 0.083 o
4 1 2 187.345 183.392 4.227 0.055 o
4 1 3 206.979 207.589 4.916 0.041 o
4 1 4 3.142 2.946 0.099 111.783 o
4 1 5 92.202 86.543 2.168 0.213 o
4 1 6 37.630 39.311 0.887 1.259 o
4 1 7 9.240 8.256 0.197 25.015 o
4 1 8 26.561 27.596 0.631 2.498 o
4 1 9 20.614 20.335 0.463 4.566 o
4 1 10 0.275 0.236 0.020 3062.060 o
4 1 11 126.620 126.524 2.798 0.124 o
4 1 12 10.946 11.409 0.256 15.049 o
4 1 13 6.144 6.079 0.138 51.429 o
4 1 14 2.337 2.394 0.069 223.433 o
4 1 15 9.229 9.340 0.217 21.124 o
4 1 16 3.234 3.172 0.089 133.073 o
4 1 17 8.399 8.601 0.207 23.545 o
4 1 18 0.449 0.434 0.039 770.160 o
4 1 19 1.459 1.360 0.059 324.490 o
4 1 20 17.143 17.104 0.414 5.863 o
4 1 21 13.427 13.557 0.335 9.035 o
4 1 22 4.895 4.542 0.177 35.470 o
4 2 0 114.445 117.085 2.660 0.140 o
4 2 1 73.307 73.144 1.606 0.375 o
4 2 2 282.204 290.477 6.621 0.023 o
4 2 3 55.128 53.991 1.192 0.679 o
4 2 4 16.453 14.719 0.414 6.010 o
4 2 5 0.370 0.552 0.039 770.879 o
4 2 6 7.493 6.818 0.167 35.182 o
4 2 7 151.181 147.647 3.241 0.092 o
4 2 8 0.675 0.670 0.030 1307.380 o
4 2 9 14.118 14.020 0.315 9.819 o
4 2 10 38.899 40.069 0.877 1.268 o
4 2 11 1.160 1.153 0.049 468.856 o
4 2 12 99.554 99.834 2.148 0.208 o
4 2 13 26.296 26.848 0.591 2.790 o
4 2 14 10.560 10.522 0.246 16.349 o
4 2 15 25.532 26.020 0.562 3.065 o
4 2 16 2.336 2.187 0.089 142.856 o
4 2 17 5.105 4.985 0.138 54.793 o
4 2 18 5.129 5.261 0.138 54.459 o
4 2 19 2.808 2.680 0.099 114.124 o
4 2 20 2.927 2.946 0.177 37.372 o
4 2 21 2.335 2.118 0.099 117.546 o
4 2 22 11.974 13.084 0.414 6.397 o
4 3 0 5.279 5.478 0.128 61.023 o
4 3 1 35.454 35.882 0.778 1.596 o
4 3 2 0.867 1.005 0.049 480.346 o
4 3 3 1.390 1.291 0.049 457.975 o
4 3 4 47.947 47.065 1.025 0.915 o
4 3 5 3.276 3.586 0.118 78.993 o
4 3 6 102.761 102.277 2.266 0.189 o
4 3 7 0.290 0.325 0.030 1372.930 o
4 3 8 53.286 52.779 1.182 0.697 o
4 3 9 5.926 6.049 0.148 46.356 o
4 3 10 9.516 9.645 0.286 13.085 o
4 3 11 0.382 0.286 0.069 254.593 o
4 3 13 12.854 12.710 0.286 11.940 o
4 3 16 21.832 22.523 0.502 3.892 o
4 3 17 2.848 2.769 0.099 113.711 o
4 3 18 31.585 31.271 0.680 2.081 o
4 3 19 2.418 2.384 0.108 97.529 o
4 3 21 3.487 3.488 0.246 19.543 o
4 4 0 64.030 62.996 1.576 0.407 o
4 4 1 0.632 0.463 0.039 762.207 o
4 4 2 0.584 0.601 0.049 491.943 o
4 4 3 2.618 2.611 0.099 115.194 o
4 4 4 1.505 1.438 0.059 322.723 o
4 4 5 19.912 19.508 0.434 5.150 o
4 4 6 13.306 13.232 0.296 11.146 o
4 4 7 39.092 38.582 0.837 1.369 o
4 4 8 19.948 20.296 0.532 3.655 o
4 4 9 0.960 0.946 0.069 249.526 o
4 4 10 1.329 1.330 0.069 244.275 o
4 4 11 0.451 0.434 0.049 495.621 o
4 4 12 0.171 0.217 0.049 499.701 o
4 4 13 0.550 0.532 0.069 253.462 o
4 4 14 20.585 19.990 0.414 5.468 o
4 4 15 4.801 4.867 0.167 39.307 o
4 4 17 17.483 17.862 0.453 4.991 o
4 5 0 0.198 0.148 0.039 780.129 o
4 5 1 1.924 1.773 0.079 182.872 o
4 5 2 0.795 0.788 0.069 251.328 o
4 5 3 3.416 2.897 0.138 59.798 o
4 5 4 21.344 21.990 0.453 4.630 o
4 5 5 1.959 1.970 0.138 62.302 o
4 5 6 9.197 9.576 0.236 18.249 o
4 5 7 0.115 0.167 0.049 500.131 o
4 5 8 2.016 2.089 0.089 145.082 o
4 5 10 14.234 13.803 0.394 6.762 o
4 5 11 7.086 7.143 0.197 26.985 o
4 5 12 1.812 1.813 0.099 120.159 o
4 6 0 0.873 0.946 0.069 250.208 o
4 6 1 3.484 3.567 0.118 78.427 o
4 6 2 0.507 0.502 0.059 344.535 o
4 6 3 0.665 0.709 0.069 252.389 o
4 6 4 0.120 0.167 0.049 500.109 o
4 6 5 2.466 2.611 0.099 115.894 o
4 6 7 0.743 0.778 0.089 153.137 o
4 6 8 1.894 1.951 0.108 99.621 o
4 6 9 1.568 1.665 0.118 84.996 o
4 7 1 4.225 4.532 0.305 12.710 o
4 7 2 0.779 0.867 0.148 55.416 o
4 7 5 0.862 0.936 0.158 48.696 o
4 7 6 6.020 5.921 0.276 15.091 o
4 7 8 3.442 3.399 0.227 23.011 o
5 0 0 60.627 62.424 1.399 0.503 o
5 0 2 666.635 667.122 14.916 0.004 o
5 0 4 12.713 11.350 0.276 12.852 o
5 0 6 6.479 6.276 0.158 40.644 o
5 0 8 143.253 144.445 3.103 0.100 o
5 0 10 71.497 71.469 1.537 0.406 o
5 0 12 17.092 17.054 0.374 6.905 o
5 0 14 15.264 15.173 0.335 8.636 o
5 0 16 15.039 15.458 0.374 7.213 o
5 0 18 1.686 1.823 0.099 120.579 o
5 0 20 1.839 1.921 0.138 62.447 o
5 0 22 0.965 0.670 0.187 34.575 o
5 1 0 0.487 0.424 0.039 768.964 o
5 1 1 102.631 106.701 2.374 0.174 o
5 1 2 56.099 56.572 1.261 0.614 o
5 1 3 2.133 1.685 0.089 145.567 o
5 1 4 36.887 37.734 0.966 1.103 o
5 1 5 1.454 0.946 0.128 73.147 o
5 1 6 81.090 78.178 1.773 0.309 o
5 1 7 5.006 4.916 0.118 71.400 o
5 1 8 1.430 1.409 0.039 674.399 o
5 1 9 1.611 1.862 0.059 315.818 o
5 1 10 0.736 0.749 0.030 1291.280 o
5 1 11 29.061 28.798 0.631 2.427 o
5 1 12 53.875 54.621 1.192 0.682 o
5 1 13 16.171 16.512 0.384 6.743 o
5 1 14 0.286 0.256 0.030 1375.810 o
5 1 15 17.270 17.744 0.394 6.309 o
5 1 18 5.565 5.557 0.148 47.392 o
5 1 19 0.815 0.768 0.059 339.994 o
5 1 20 1.369 1.340 0.079 188.660 o
5 1 21 22.401 23.833 0.542 3.395 o
5 2 0 23.658 23.517 0.552 3.259 o
5 2 1 24.662 24.532 0.552 3.208 o
5 2 2 3.502 3.212 0.089 130.843 o
5 2 3 24.110 23.153 0.542 3.346 o
5 2 4 61.175 58.553 1.281 0.582 o
5 2 5 15.091 14.286 0.355 7.954 o
5 2 6 46.616 46.927 1.025 0.922 o
5 2 7 4.366 4.128 0.108 86.782 o
5 2 8 13.335 13.508 0.305 10.539 o
5 2 9 10.238 10.296 0.236 17.654 o
5 2 10 39.307 38.867 0.867 1.293 o
5 2 11 10.310 10.335 0.236 17.615 o
5 2 12 21.127 20.848 0.463 4.522 o
5 2 14 5.891 5.921 0.148 46.526 o
5 2 16 11.474 11.094 0.256 14.923 o
5 2 17 24.075 24.513 0.581 2.964 o
5 2 18 2.957 2.709 0.118 81.035 o
5 2 19 2.518 2.798 0.138 61.162 o
5 2 20 17.071 17.104 0.355 7.519 o
5 2 21 2.697 2.562 0.325 11.399 o
5 3 0 119.792 116.583 2.532 0.149 o
5 3 1 24.620 25.055 0.552 3.200 o
5 3 2 5.088 5.232 0.138 54.574 o
5 3 3 4.618 4.237 0.108 85.443 o
5 3 4 3.951 3.675 0.108 89.513 o
5 3 5 40.105 39.498 0.867 1.283 o
5 3 6 88.600 86.848 1.842 0.280 o
5 3 7 4.376 4.276 0.118 74.573 o
5 3 8 3.207 3.251 0.099 110.641 o
5 3 9 0.247 0.217 0.039 778.694 o
5 3 10 36.689 35.853 0.719 1.787 o
5 3 11 20.851 20.434 0.562 3.301 o
5 3 12 0.603 0.552 0.069 253.156 o
5 3 13 4.283 4.217 0.158 44.867 o
5 3 14 28.491 28.680 0.690 2.111 o
5 3 15 0.767 0.828 0.069 251.382 o
5 3 16 31.766 31.665 0.650 2.224 o
5 3 19 4.292 4.039 0.158 44.959 o
5 4 0 8.497 8.512 0.355 9.021 o
5 4 1 4.471 4.591 0.148 49.918 o
5 4 2 0.106 0.138 0.049 500.230 o
5 4 3 1.131 1.301 0.069 246.443 o
5 4 4 24.708 24.749 0.660 2.379 o
5 4 5 17.847 17.823 0.414 5.778 o
5 4 6 8.149 8.138 0.197 25.868 o
5 4 7 18.120 18.010 0.414 5.749 o
5 4 9 7.322 7.054 0.197 26.852 o
5 4 10 15.276 15.360 0.345 8.229 o
5 4 11 2.553 2.581 0.099 115.564 o
5 4 12 0.528 0.532 0.059 344.237 o
5 4 14 2.379 2.236 0.108 97.874 o
5 4 15 11.418 11.783 0.276 13.143 o
5 4 16 1.282 1.330 0.197 31.120 o
5 4 17 4.549 4.798 0.256 17.799 o
5 5 0 4.742 4.818 0.276 15.399 o
5 5 2 4.444 4.749 0.256 17.825 o
5 5 3 1.153 1.084 0.079 190.734 o
5 5 4 3.218 3.360 0.118 79.474 o
5 5 5 0.340 0.335 0.059 346.229 o
5 5 6 5.965 6.315 0.197 28.015 o
5 5 7 1.242 1.103 0.069 246.314 o
5 5 8 6.968 7.035 0.227 21.186 o
5 5 9 0.359 0.404 0.069 254.477 o
5 5 14 2.719 2.571 0.207 27.810 o
5 5 15 0.753 0.759 0.148 55.442 o
5 6 0 6.166 6.522 0.394 7.585 o
5 6 1 4.184 4.069 0.138 57.483 o
5 6 2 3.911 3.813 0.128 66.568 o
5 6 3 1.985 1.833 0.138 62.346 o
5 6 4 1.559 1.507 0.079 186.775 o
5 6 5 7.180 7.064 0.177 32.220 o
5 6 6 2.628 2.759 0.128 70.300 o
5 6 7 10.894 11.153 0.266 14.201 o
5 6 8 0.703 0.680 0.128 73.783 o
5 6 9 2.106 2.059 0.118 83.699 o
5 6 12 0.546 0.512 0.138 63.732 o
5 7 0 1.669 1.517 0.108 100.673 o
5 7 1 7.837 7.143 0.187 28.832 o
5 7 2 1.381 1.350 0.197 31.102 o
5 7 3 1.859 1.724 0.187 34.271 o
5 7 4 1.174 1.212 0.177 38.414 o
5 7 5 0.791 0.650 0.148 55.447 o
6 0 0 224.950 231.895 5.271 0.036 o
6 0 2 29.072 29.380 0.650 2.304 o
6 0 4 1.231 1.478 0.118 85.610 o
6 0 6 42.525 46.809 0.946 1.074 o
6 0 8 14.901 15.261 0.345 8.288 o
6 0 10 33.325 33.133 0.690 1.987 o
6 0 12 90.862 92.770 1.970 0.247 o
6 0 14 3.922 4.158 0.138 57.881 o
6 0 16 2.223 2.059 0.108 98.588 o
6 0 18 11.318 11.833 0.286 12.419 o
6 0 20 21.568 22.158 0.443 4.771 o
6 1 0 0.506 0.611 0.049 493.279 o
6 1 1 181.194 177.687 4.020 0.060 o
6 1 2 58.646 57.685 1.478 0.467 o
6 1 3 22.848 20.522 0.473 4.287 o
6 1 4 54.514 51.400 1.281 0.610 o
6 1 5 58.170 57.597 1.251 0.614 o
6 1 6 20.893 19.813 0.522 3.745 o
6 1 7 12.090 11.409 0.266 13.802 o
6 1 8 40.808 41.203 0.897 1.204 o
6 1 9 34.082 33.902 0.759 1.693 o
6 1 10 0.297 0.335 0.039 776.276 o
6 1 11 31.370 31.271 0.680 2.085 o
6 1 12 0.678 0.660 0.049 489.415 o
6 1 13 13.562 13.655 0.305 10.478 o
6 1 15 1.864 1.852 0.079 183.039 o
6 1 16 25.350 25.961 0.542 3.251 o
6 1 17 0.427 0.365 0.049 496.440 o
6 1 18 3.206 3.005 0.148 52.705 o
6 1 19 5.808 5.705 0.158 41.981 o
6 2 1 9.416 9.123 0.217 21.080 o
6 2 2 0.020 0.099 0.020 3126.470 o
6 2 3 13.102 12.719 0.305 10.664 o
6 2 4 46.451 45.360 0.975 1.002 o
6 2 5 95.829 93.479 2.276 0.193 o
6 2 6 2.374 2.148 0.089 142.740 o
6 2 7 1.052 1.044 0.059 334.690 o
6 2 8 5.384 5.064 0.138 54.135 o
6 2 9 33.714 32.838 0.680 2.028 o
6 2 10 1.478 1.458 0.079 187.525 o
6 2 11 5.580 5.537 0.158 42.405 o
6 2 12 3.278 3.222 0.118 79.500 o
6 2 13 6.861 6.916 0.197 27.220 o
6 2 14 32.352 33.311 0.700 1.959 o
6 2 15 15.089 14.877 0.335 8.686 o
6 2 16 7.724 7.517 0.197 26.402 o
6 2 17 1.435 1.320 0.069 243.175 o
6 2 18 0.806 0.690 0.079 193.293 o
6 2 20 2.523 2.502 0.256 18.296 o
6 3 2 0.613 0.709 0.059 342.624 o
6 3 3 0.691 0.700 0.049 488.687 o
6 3 4 0.274 0.276 0.039 777.524 o
6 3 5 0.138 0.148 0.039 780.914 o
6 3 6 0.187 0.217 0.039 779.757 o
6 3 7 4.971 4.887 0.138 55.165 o
6 3 8 5.907 5.734 0.148 46.660 o
6 3 9 3.024 3.685 0.128 68.651 o
6 3 10 31.654 31.991 0.690 2.027 o
6 3 11 1.656 1.606 0.079 185.691 o
6 3 12 1.391 1.261 0.089 150.246 o
6 3 13 0.591 0.562 0.069 253.194 o
6 3 15 11.981 11.882 0.296 11.585 o
6 3 16 5.181 5.567 0.187 31.554 o
6 3 17 0.521 0.562 0.167 43.248 o
6 3 18 7.582 8.601 0.493 4.852 o
6 4 0 16.059 15.912 0.434 5.538 o
6 4 2 25.171 24.926 0.581 2.927 o
6 4 3 0.232 0.296 0.049 498.957 o
6 4 4 6.145 5.852 0.197 28.048 o
6 4 5 13.533 13.724 0.305 10.477 o
6 4 6 0.767 0.808 0.049 485.620 o
6 4 7 1.890 1.842 0.089 146.478 o
6 4 9 7.328 7.448 0.187 29.134 o
6 4 10 17.861 17.862 0.384 6.505 o
6 4 11 1.788 1.626 0.079 184.586 o
6 4 12 0.247 0.296 0.059 346.781 o
6 4 14 2.844 2.857 0.138 60.677 o
6 4 15 4.537 4.700 0.158 44.280 o
6 4 16 3.917 3.665 0.148 51.383 o
6 5 0 25.448 25.301 1.094 0.953 o
6 5 1 3.965 3.862 0.138 58.069 o
6 5 2 0.166 0.266 0.059 347.137 o
6 5 3 0.590 0.631 0.069 253.018 o
6 5 4 14.358 14.059 0.315 9.771 o
6 5 6 42.793 42.454 1.133 0.806 o
6 5 7 2.824 2.857 0.207 27.739 o
6 5 8 0.587 0.532 0.089 153.723 o
6 5 9 1.196 1.360 0.089 150.821 o
6 5 10 0.377 0.414 0.069 254.401 o
6 5 12 0.511 0.542 0.079 194.495 o
6 5 13 1.520 1.567 0.187 34.382 o
6 6 0 10.720 10.926 0.286 12.667 o
6 6 1 2.004 2.020 0.089 145.349 o
6 6 2 4.294 4.571 0.266 16.613 o
6 6 3 5.073 5.074 0.158 43.378 o
6 6 4 0.230 0.256 0.059 346.929 o
6 6 5 1.150 1.113 0.079 190.666 o
6 6 7 1.843 1.783 0.118 84.444 o
6 6 8 0.837 0.828 0.089 152.841 o
6 6 9 0.436 0.512 0.079 194.720 o
6 6 10 6.303 6.581 0.276 14.976 o
6 7 0 1.735 1.517 0.099 120.924 o
6 7 1 0.531 0.453 0.138 63.744 o
7 0 0 104.663 107.253 3.517 0.088 o
7 0 2 34.686 34.759 1.271 0.689 o
7 0 4 264.981 258.525 11.419 0.009 o
7 0 6 1.079 1.103 0.069 247.845 o
7 0 8 42.563 43.360 0.857 1.266 o
7 0 10 58.661 58.572 1.271 0.596 o
7 0 12 17.569 17.439 0.404 6.049 o
7 0 14 11.376 12.020 0.365 8.133 o
7 0 16 8.329 8.069 0.227 20.356 o
7 0 18 16.695 16.296 0.345 7.964 o
7 1 0 81.095 79.627 1.823 0.295 o
7 1 1 1.058 1.034 0.059 334.675 o
7 1 2 0.160 0.227 0.030 1384.040 o
7 1 3 7.263 7.173 0.177 32.083 o
7 1 4 34.048 33.685 0.739 1.768 o
7 1 5 39.935 38.336 1.034 0.964 o
7 1 6 1.013 0.916 0.059 336.282 o
7 1 7 1.329 1.409 0.069 243.847 o
7 1 8 45.665 45.794 0.936 1.073 o
7 1 10 3.162 3.202 0.118 79.846 o
7 1 11 15.825 16.276 0.355 7.733 o
7 1 12 15.033 14.916 0.365 7.571 o
7 1 13 14.504 15.015 0.355 7.982 o
7 1 14 23.215 23.222 0.542 3.377 o
7 1 15 21.875 21.931 0.463 4.447 o
7 1 17 3.109 3.458 0.138 59.838 o
7 1 18 0.464 0.296 0.079 194.898 o
7 1 19 3.823 4.217 0.158 45.384 o
7 2 0 34.778 33.596 0.768 1.652 o
7 2 1 10.555 10.286 0.236 17.520 o
7 2 2 6.031 6.020 0.158 41.456 o
7 2 3 4.752 4.473 0.118 73.010 o
7 2 4 0.568 0.532 0.039 763.540 o
7 2 5 0.777 0.700 0.049 486.697 o
7 2 6 5.742 5.576 0.148 47.076 o
7 2 7 3.233 3.113 0.099 110.871 o
7 2 8 6.986 6.709 0.167 35.857 o
7 2 9 19.997 20.325 0.434 5.115 o
7 2 10 0.874 0.768 0.069 250.845 o
7 2 11 10.242 9.862 0.246 16.593 o
7 2 12 0.385 0.296 0.069 254.568 o
7 2 13 4.048 4.138 0.177 36.273 o
7 2 14 6.351 6.443 0.197 27.722 o
7 2 15 10.678 11.242 0.266 14.252 o
7 2 16 1.112 0.985 0.108 102.204 o
7 2 18 3.671 3.626 0.148 51.738 o
7 3 0 0.598 0.552 0.039 761.751 o
7 3 1 27.116 26.877 0.571 2.919 o
7 3 2 22.033 21.695 0.502 3.901 o
7 3 3 14.726 14.522 0.345 8.364 o
7 3 4 13.862 13.842 0.305 10.399 o
7 3 5 1.020 0.975 0.059 335.732 o
7 3 6 6.461 6.483 0.167 36.610 o
7 3 7 3.355 3.281 0.108 92.695 o
7 3 8 11.985 11.448 0.266 13.828 o
7 3 9 9.739 9.498 0.276 13.877 o
7 3 10 1.768 1.833 0.089 147.153 o
7 3 12 3.342 3.458 0.158 46.275 o
7 3 13 1.565 1.458 0.099 121.553 o
7 3 14 0.274 0.286 0.069 254.888 o
7 3 16 2.048 1.892 0.128 71.909 o
7 4 0 9.504 9.370 0.217 20.963 o
7 4 1 1.378 1.429 0.099 122.142 o
7 4 2 1.617 1.616 0.079 185.946 o
7 4 3 1.131 1.094 0.079 190.827 o
7 4 4 2.443 2.315 0.108 97.557 o
7 4 5 19.481 19.843 0.483 4.336 o
7 4 6 28.915 28.907 0.631 2.429 o
7 4 9 9.570 9.744 0.236 18.057 o
7 4 10 0.283 0.315 0.059 346.574 o
7 4 12 4.745 4.660 0.167 39.466 o
7 4 13 0.290 0.345 0.099 124.994 o
7 4 14 6.671 6.522 0.217 23.202 o
7 4 15 2.946 3.281 0.158 46.729 o
7 5 0 13.131 12.680 0.296 11.246 o
7 5 2 11.851 11.744 0.276 13.032 o
7 5 3 1.401 1.340 0.089 150.039 o
7 5 4 2.257 2.473 0.108 97.885 o
7 5 6 1.053 0.975 0.079 191.550 o
7 5 8 3.407 3.389 0.128 68.158 o
7 5 10 19.756 19.015 0.414 5.575 o
7 5 11 1.262 1.389 0.197 31.119 o
7 5 12 1.182 1.153 0.177 38.419 o
7 6 0 0.748 0.778 0.069 251.666 o
7 6 2 1.984 2.089 0.108 99.206 o
7 6 4 3.755 3.517 0.207 27.320 o
7 6 5 3.854 3.448 0.138 58.626 o
7 6 6 3.120 2.956 0.138 60.205 o
7 6 7 3.313 3.340 0.138 59.610 o
7 6 8 2.710 2.946 0.217 25.342 o
8 0 0 27.034 27.419 0.532 3.252 o
8 0 2 14.858 14.522 0.453 5.235 o
8 0 4 63.013 63.301 1.379 0.508 o
8 0 6 4.668 4.296 0.138 56.354 o
8 0 8 27.916 28.710 0.611 2.582 o
8 0 10 0.725 0.857 0.089 153.088 o
8 0 12 23.636 24.621 0.483 4.003 o
8 0 14 79.864 81.715 1.931 0.269 o
8 0 16 0.688 1.084 0.099 124.091 o
8 1 1 0.397 0.404 0.030 1360.070 o
8 1 2 2.020 2.020 0.069 231.101 o
8 1 3 82.786 82.454 1.931 0.266 o
8 1 4 32.297 31.823 0.759 1.730 o
8 1 6 4.138 3.980 0.118 75.811 o
8 1 7 0.312 0.335 0.039 775.900 o
8 1 8 18.840 19.222 0.414 5.641 o
8 1 9 9.393 9.301 0.227 19.563 o
8 1 10 18.437 17.843 0.384 6.447 o
8 1 11 6.131 6.020 0.187 30.680 o
8 1 12 4.195 4.276 0.197 29.619 o
8 1 13 10.467 10.877 0.266 14.368 o
8 1 15 1.463 1.527 0.128 72.850 o
8 1 16 0.600 0.562 0.108 103.054 o
8 2 0 40.155 40.109 0.936 1.132 o
8 2 1 20.866 20.808 0.502 3.973 o
8 2 3 4.891 4.828 0.158 43.764 o
8 2 4 13.902 13.980 0.315 9.862 o
8 2 5 7.327 7.104 0.187 29.279 o
8 2 7 34.631 34.138 0.808 1.522 o
8 2 8 4.178 3.941 0.118 75.745 o
8 2 9 0.128 0.148 0.049 500.116 o
8 2 10 14.451 14.759 0.335 8.792 o
8 2 13 3.930 3.852 0.207 27.191 o
8 2 14 0.276 0.315 0.089 154.298 o
8 2 15 2.758 2.778 0.276 15.768 o
8 2 16 1.816 1.901 0.128 72.214 o
8 3 0 16.896 16.779 0.414 5.895 o
8 3 1 0.181 0.187 0.039 780.085 o
8 3 2 9.340 9.094 0.227 19.639 o
8 3 3 0.589 0.562 0.049 492.213 o
8 3 4 10.202 10.434 0.246 16.500 o
8 3 5 17.305 17.143 0.463 4.842 o
8 3 6 13.731 13.517 0.414 6.258 o
8 3 8 3.397 3.606 0.118 78.620 o
8 3 10 2.721 2.571 0.118 81.787 o
8 3 11 5.527 5.399 0.167 38.272 o
8 3 12 3.101 3.222 0.128 68.965 o
8 3 13 6.266 6.148 0.197 27.874 o
8 3 14 5.098 5.626 0.177 34.847 o
8 3 15 1.258 1.350 0.158 48.487 o
8 4 1 2.169 2.236 0.089 143.734 o
8 4 2 13.697 12.956 0.315 9.992 o
8 4 3 2.353 2.345 0.148 53.947 o
8 4 4 2.302 2.197 0.089 143.039 o
8 4 5 2.673 2.640 0.108 96.303 o
8 4 6 3.649 3.389 0.108 91.328 o
8 4 7 4.079 4.108 0.118 75.793 o
8 4 9 12.224 11.685 0.276 12.939 o
8 4 10 5.649 5.645 0.217 23.870 o
8 4 12 5.672 5.370 0.167 38.132 o
8 4 13 0.274 0.305 0.089 154.303 o
8 5 0 0.967 0.936 0.079 192.068 o
8 5 1 0.155 0.217 0.059 347.246 o
8 5 2 6.081 5.980 0.167 37.337 o
8 5 3 3.595 3.419 0.128 67.723 o
8 5 4 0.834 0.818 0.079 192.924 o
8 5 6 6.664 6.562 0.187 30.046 o
8 5 7 1.953 2.365 0.227 23.413 o
8 5 8 18.946 19.005 0.680 2.400 o
8 5 9 2.693 2.778 0.128 70.167 o
8 5 10 0.781 0.778 0.138 63.599 o
8 6 1 0.472 0.443 0.079 194.715 o
8 6 2 4.563 4.394 0.345 10.006 o
8 6 3 1.338 1.192 0.099 122.571 o
8 6 4 2.425 2.493 0.148 53.810 o
9 0 0 17.006 18.020 0.808 1.762 o
9 0 2 45.850 45.232 1.616 0.424 o
9 0 4 4.507 4.483 0.236 20.803 o
9 0 6 26.569 26.276 0.512 3.487 o
9 0 10 13.947 13.665 0.414 6.237 o
9 0 12 8.137 8.355 0.325 10.659 o
9 1 0 31.964 32.286 0.680 2.065 o
9 1 1 0.236 0.197 0.039 779.099 o
9 1 2 4.751 4.542 0.138 55.949 o
9 1 3 25.483 25.311 0.522 3.452 o
9 1 4 2.451 2.424 0.118 82.587 o
9 1 5 5.987 5.921 0.177 33.921 o
9 1 6 7.643 7.281 0.276 14.629 o
9 1 7 12.533 12.394 0.286 12.058 o
9 1 8 1.666 1.645 0.079 185.465 o
9 1 9 1.811 1.921 0.089 146.694 o
9 1 10 8.918 8.700 0.227 19.934 o
9 1 12 0.902 1.034 0.089 152.371 o
9 1 13 25.727 26.739 0.502 3.618 o
9 1 14 9.042 8.897 0.256 16.082 o
9 1 15 0.943 1.123 0.099 123.574 o
9 2 0 1.671 1.685 0.089 148.018 o
9 2 1 3.536 3.576 0.118 78.261 o
9 2 2 35.272 34.611 0.798 1.543 o
9 2 3 5.042 4.847 0.167 39.073 o
9 2 4 34.798 34.188 0.759 1.682 o
9 2 5 3.094 3.163 0.128 69.037 o
9 2 6 2.928 3.025 0.108 94.761 o
9 2 7 1.510 1.704 0.089 148.749 o
9 2 8 2.153 2.089 0.089 144.277 o
9 2 9 15.021 14.394 0.345 8.332 o
9 2 10 1.923 2.000 0.108 99.482 o
9 2 11 8.283 8.641 0.227 20.245 o
9 2 12 6.129 6.158 0.236 20.069 o
9 2 14 6.747 7.143 0.197 27.220 o
9 3 0 2.013 2.197 0.118 83.746 o
9 3 1 6.399 6.207 0.158 40.806 o
9 3 2 2.400 2.453 0.108 97.478 o
9 3 3 13.509 14.414 0.355 8.143 o
9 3 4 6.488 6.345 0.305 12.349 o
9 3 5 1.352 1.222 0.089 150.481 o
9 3 6 15.416 15.872 0.374 7.151 o
9 3 7 0.350 0.325 0.059 346.205 o
9 3 8 15.417 15.242 0.335 8.608 o
9 3 10 2.855 2.778 0.227 23.213 o
9 3 11 3.834 3.714 0.148 51.462 o
9 3 12 4.738 4.365 0.315 11.909 o
9 4 1 2.147 2.365 0.118 83.308 o
9 4 2 12.240 11.941 0.286 12.184 o
9 4 5 0.357 0.286 0.059 346.274 o
9 4 6 4.802 4.739 0.138 55.653 o
9 4 7 16.699 17.577 0.384 6.637 o
9 4 8 11.979 11.626 0.266 13.803 o
9 4 9 4.917 5.035 0.167 39.105 o
9 4 10 0.942 1.044 0.099 123.656 o
9 5 1 0.802 0.759 0.089 153.019 o
9 5 2 4.136 3.852 0.128 65.995 o
9 5 3 1.371 1.350 0.089 150.145 o
9 5 4 1.015 1.123 0.177 38.459 o
9 5 5 0.967 0.946 0.167 43.129 o
10 0 0 6.998 7.941 0.453 5.731 o
10 0 2 2.622 2.897 0.128 70.188 o
10 0 4 13.663 13.626 0.434 5.764 o
10 0 6 16.796 16.177 0.345 7.958 o
10 0 8 0.865 0.995 0.099 123.854 o
10 1 0 9.301 9.370 0.227 19.591 o
10 1 1 31.259 31.064 0.650 2.241 o
10 1 3 8.118 8.000 0.207 23.909 o
10 1 4 9.041 9.173 0.236 18.397 o
10 1 5 3.641 3.389 0.128 67.653 o
10 1 6 7.711 7.360 0.207 24.355 o
10 1 8 1.310 1.251 0.108 101.658 o
10 1 9 1.225 1.103 0.108 101.932 o
10 1 10 5.061 5.015 0.286 14.332 o
10 1 11 3.698 3.419 0.256 18.074 o
10 1 12 0.711 0.512 0.167 43.224 o
10 1 13 1.403 1.635 0.227 23.534 o
10 2 0 9.162 8.985 0.246 17.152 o
10 2 1 1.633 1.557 0.089 148.517 o
10 2 2 27.600 27.232 1.005 1.102 o
10 2 3 7.665 7.370 0.345 9.646 o
10 2 4 1.437 1.389 0.187 34.423 o
10 2 5 9.935 9.508 0.246 16.773 o
10 2 6 6.842 7.094 0.207 24.950 o
10 2 7 3.603 3.547 0.118 78.107 o
10 2 8 3.169 2.966 0.108 93.992 o
10 2 9 0.454 0.424 0.089 154.025 o
10 2 10 6.266 6.030 0.296 13.196 o
10 2 11 1.328 1.232 0.108 101.643 o
10 2 12 14.393 15.508 0.443 5.440 o
10 3 0 0.705 0.749 0.059 341.419 o
10 3 1 1.229 1.123 0.079 190.193 o
10 3 2 17.791 17.823 0.424 5.564 o
10 3 3 3.681 3.754 0.128 67.161 o
10 3 4 3.333 3.241 0.118 79.318 o
10 3 5 0.257 0.217 0.059 346.899 o
10 3 6 12.885 13.064 0.296 11.258 o
10 3 7 11.086 11.320 0.276 13.294 o
10 3 8 23.437 23.734 0.453 4.445 o
10 3 9 0.508 0.345 0.099 124.820 o
10 3 10 0.906 0.956 0.158 48.680 o
10 3 11 0.881 0.916 0.197 31.207 o
10 4 0 2.280 2.365 0.108 97.979 o
10 4 1 4.995 4.847 0.148 48.907 o
10 4 3 1.412 1.409 0.089 149.846 o
10 4 4 3.300 3.202 0.148 52.476 o
10 4 5 0.973 1.133 0.108 102.301 o
10 4 6 0.784 0.788 0.128 73.710 o
10 4 7 6.509 6.404 0.187 30.233 o
10 5 0 1.771 1.645 0.197 30.993 o
10 5 1 2.350 2.443 0.118 82.790 o
11 0 0 31.726 32.335 1.015 1.052 o
11 0 2 23.892 23.517 0.493 3.895 o
11 0 6 2.599 2.177 0.197 30.700 o
11 1 1 3.632 3.892 0.118 77.506 o
11 1 2 7.955 7.616 0.197 26.200 o
11 1 3 10.707 10.739 0.256 15.242 o
11 1 4 1.655 1.675 0.099 120.927 o
11 1 5 11.878 12.355 0.286 12.222 o
11 1 6 3.346 3.576 0.138 59.367 o
11 1 7 4.658 4.384 0.158 44.325 o
11 1 9 1.259 1.389 0.227 23.561 o
11 1 10 5.511 5.251 0.286 14.251 o
11 2 1 11.480 11.567 0.266 13.963 o
11 2 3 0.968 0.788 0.089 152.539 o
11 2 4 6.873 6.719 0.227 21.292 o
11 2 6 18.241 18.148 0.887 1.469 o
11 2 7 15.439 16.118 0.463 4.968 o
11 2 8 2.660 2.778 0.246 19.733 o
11 2 9 0.698 0.690 0.187 34.607 o
11 3 0 18.478 18.355 0.394 6.167 o
11 3 1 1.959 2.039 0.167 42.569 o
11 3 2 1.117 1.202 0.177 38.428 o
11 3 3 1.501 1.438 0.118 85.268 o
11 3 4 2.982 3.025 0.138 60.357 o
11 3 5 0.676 0.818 0.197 31.234 o
11 3 6 2.088 1.990 0.227 23.420 o
11 4 0 1.420 1.172 0.177 38.357 o
11 4 1 3.114 3.379 0.217 25.182 o
11 4 2 3.131 3.094 0.138 60.084 o
11 4 4 5.806 5.675 0.286 14.174 o
12 0 0 1.361 1.488 0.089 149.895 o
12 0 2 19.017 19.320 0.502 4.086 o
12 0 4 7.157 7.498 0.305 12.177 o
12 1 0 8.090 8.246 0.217 22.043 o
12 1 1 3.175 3.123 0.118 79.919 o
12 1 2 8.006 7.823 0.197 26.087 o
12 1 3 3.436 3.202 0.138 59.525 o
12 1 4 0.466 0.394 0.079 194.786 o
12 1 5 3.328 3.419 0.246 19.577 o
12 1 6 11.604 12.099 0.374 7.730 o
12 1 7 2.325 2.650 0.236 21.448 o
12 2 0 0.637 0.670 0.079 193.930 o
12 2 3 2.075 1.970 0.227 23.424 o
12 2 4 3.705 3.793 0.266 16.762 o
12 2 5 2.510 2.434 0.246 19.776 o
12 2 6 0.941 0.956 0.197 31.198 o
12 3 3 2.288 2.414 0.246 19.806 o
13 1 0 1.230 1.281 0.099 122.734 o
13 1 1 1.938 2.108 0.167 42.562 o
13 2 0 0.973 0.897 0.187 34.557 o
13 2 1 2.881 2.739 0.246 19.703 o
;
_olex2_submission_special_instructions 'No special instructions were received'
loop_
_space_group_symop_id
_space_group_symop_operation_xyz
1 x,y,z
2 -x,y+1/2,-z+1/2
3 -x,-y,-z
4 x,-y-1/2,z-1/2
loop_
_atom_site_label
_atom_site_type_symbol
_atom_site_fract_x
_atom_site_fract_y
_atom_site_fract_z
_atom_site_U_iso_or_equiv
_atom_site_adp_type
_atom_site_occupancy
_atom_site_refinement_flags_posn
O1 O 0.43477(2) 0.44414(5) 0.349873(11) 0.01358(3) Uani 1.000000 .
O2 O 0.24248(2) 0.74236(5) 0.463702(11) 0.01336(3) Uani 1.000000 .
C1 C 0.40303(3) 0.55870(5) 0.447979(13) 0.00997(3) Uani 1.000000 .
O3 O 0.13003(2) 0.63100(5) 0.178433(11) 0.01321(3) Uani 1.000000 .
H3a H 0.0106(11) 0.462(2) 0.1494(5) 0.0255(13) Uiso 1.000000 .
H3b H 0.1875(10) 0.6906(18) 0.1160(6) 0.0248(13) Uiso 1.000000 .
H1 H 0.3059(15) 0.525(3) 0.2846(7) 0.039(2) Uiso 1.000000 .
loop_
_atom_site_aniso_label
_atom_site_aniso_U_11
_atom_site_aniso_U_22
_atom_site_aniso_U_33
_atom_site_aniso_U_12
_atom_site_aniso_U_13
_atom_site_aniso_U_23
O1 0.01321(5) 0.01896(7) 0.00828(4) 0.00433(4) 0.00198(3) -0.00079(4)
O2 0.01137(5) 0.01854(6) 0.00947(4) 0.00537(4) 0.00114(3) -0.00076(4)
C1 0.00946(5) 0.01197(6) 0.00809(4) 0.00176(4) 0.00135(3) -0.00007(4)
O3 0.01086(5) 0.01844(6) 0.00939(4) -0.00155(4) 0.00057(3) 0.00112(4)
loop_
_atom_type_symbol
_atom_type_description
_atom_type_scat_dispersion_real
_atom_type_scat_dispersion_imag
_atom_type_scat_source
_atom_type_scat_dispersion_source
C C 0.00347 0.00161
'Clementi & Roetti, C., At. Data Nucl. Data Tables 1974, 14, (177-478); Clementi & Raimondi, J. Chem. Phys., 1963, 38, (2686-2689)'
'Henke, Gullikson and Davis, At. Data and Nucl. Data Tables, 1993, 54, 2'
H H 0.00000 0.00000
'Clementi & Roetti, C., At. Data Nucl. Data Tables 1974, 14, (177-478); Clementi & Raimondi, J. Chem. Phys., 1963, 38, (2686-2689)'
'Henke, Gullikson and Davis, At. Data and Nucl. Data Tables, 1993, 54, 2'
N N 0.00653 0.00323
'Clementi & Roetti, C., At. Data Nucl. Data Tables 1974, 14, (177-478); Clementi & Raimondi, J. Chem. Phys., 1963, 38, (2686-2689)'
'Henke, Gullikson and Davis, At. Data and Nucl. Data Tables, 1993, 54, 2'
O O 0.01158 0.00611
'Clementi & Roetti, C., At. Data Nucl. Data Tables 1974, 14, (177-478); Clementi & Raimondi, J. Chem. Phys., 1963, 38, (2686-2689)'
'Henke, Gullikson and Davis, At. Data and Nucl. Data Tables, 1993, 54, 2'
loop_
_geom_angle_atom_site_label_1
_geom_angle_atom_site_label_2
_geom_angle_atom_site_label_3
_geom_angle
_geom_angle_site_symmetry_1
_geom_angle_site_symmetry_3
_geom_angle_publ_flag
H1 O1 C1 110.5(5) . . ?
O2 C1 O1 126.878(14) . . ?
C1 C1 O1 112.746(18) 3_666 . ?
C1 C1 O2 120.375(18) 3_666 . ?
H3b O3 H3a 105.1(5) . . ?
loop_
_geom_bond_atom_site_label_1
_geom_bond_atom_site_label_2
_geom_bond_distance
_geom_bond_site_symmetry_2
_geom_bond_publ_flag
O1 C1 1.2866(2) . ?
O1 H1 1.002(9) . ?
O2 C1 1.2207(2) . ?
C1 C1 1.5449(3) 3_666 ?
O3 H3a 0.937(7) . ?
O3 H3b 0.915(7) . ?
loop_
_refln_index_h
_refln_index_k
_refln_index_l
_refln_F_squared_meas
_refln_F_squared_sigma
-13 0 6 35.2 0.68
-13 0 8 3.24 0.23
-13 0 10 0.5 0.14
-13 0 12 11.31 0.35
-13 1 1 2.52 0.2
-13 1 2 13.34 0.39
-13 1 4 1.08 0.17
-13 1 8 3.71 0.15
-13 1 10 3.19 0.18
-13 1 12 3.24 0.13
-13 1 13 0.51 0.13
-13 2 1 4.09 0.22
-13 2 3 0.79 0.14
-13 2 4 0.87 0.15
-13 2 5 1.13 0.17
-13 2 6 0.47 0.14
-13 2 8 2.14 0.2
-13 2 9 1.36 0.18
-13 2 10 3.9 0.23
-13 2 12 1.07 0.17
-13 2 13 0.76 0.14
-13 3 6 3.66 0.21
-12 0 2 8.34 0.23
-12 0 4 42.26 0.76
-12 0 6 5.24 0.34
-12 0 10 2.31 0.12
-12 0 12 8.96 0.31
-12 0 16 16.84 0.44
-12 1 1 1.97 0.1
-12 1 2 1.11 0.08
-12 1 5 18.72 0.41
-12 1 6 4.4 0.13
-12 1 7 1.46 0.09
-12 1 8 11.82 0.28
-12 1 9 10.93 0.27
-12 1 10 2.57 0.1
-12 1 11 1.05 0.07
-12 1 12 6.75 0.26
-12 1 13 0.72 0.14
-12 1 15 12.93 0.28
-12 1 16 1.78 0.19
-12 1 17 0.59 0.14
-12 2 1 12.75 0.52
-12 2 2 5 0.2
-12 2 5 7.68 0.2
-12 2 6 0.27 0.08
-12 2 7 3.41 0.14
-12 2 8 4.45 0.2
-12 2 9 4.11 0.16
-12 2 11 8.6 0.33
-12 2 12 1.04 0.18
-12 2 13 4.58 0.25
-12 2 14 0.35 0.07
-12 3 1 1.54 0.17
-12 3 3 2.97 0.21
-12 3 6 0.93 0.16
-12 3 7 1.24 0.18
-12 3 11 1.49 0.19
-12 3 12 0.63 0.14
-12 3 14 3.47 0.22
-12 4 3 1.62 0.16
-12 4 4 1.64 0.17
-12 4 5 1.87 0.17
-12 4 6 4.97 0.24
-12 4 8 0.52 0.13
-12 4 9 1.23 0.17
-11 0 2 3.54 0.15
-11 0 4 8.98 0.22
-11 0 6 0.55 0.06
-11 0 8 83.53 3.45
-11 0 10 7.31 0.28
-11 0 12 2.59 0.13
-11 0 14 32.93 0.72
-11 0 16 1.35 0.19
-11 0 18 11.57 0.37
-11 0 20 1.81 0.18
-11 1 1 0.17 0.05
-11 1 2 5.78 0.16
-11 1 3 13.66 0.31
-11 1 4 35.26 0.87
-11 1 5 2.1 0.08
-11 1 6 0.15 0.04
-11 1 7 1.39 0.07
-11 1 8 1.29 0.08
-11 1 9 5.89 0.17
-11 1 10 3.81 0.13
-11 1 11 4.24 0.13
-11 1 12 13.1 0.3
-11 1 13 0.43 0.06
-11 1 14 5.96 0.17
-11 1 15 5.68 0.16
-11 1 16 2.31 0.09
-11 2 1 2.64 0.12
-11 2 2 0.3 0.06
-11 2 3 1.21 0.08
-11 2 4 10.6 0.27
-11 2 5 2.03 0.12
-11 2 6 6.07 0.19
-11 2 7 8.44 0.23
-11 2 10 0.91 0.09
-11 2 11 2.2 0.11
-11 2 12 2.45 0.11
-11 2 13 0.47 0.06
-11 2 14 1.2 0.09
-11 2 15 9.88 0.31
-11 2 17 0.69 0.14
-11 2 18 2.03 0.18
-11 3 1 1.11 0.1
-11 3 2 3.15 0.12
-11 3 3 0.36 0.06
-11 3 4 4.25 0.21
-11 3 5 6.21 0.17
-11 3 6 2.67 0.11
-11 3 7 3.52 0.16
-11 3 9 1.13 0.09
-11 3 10 11.43 0.33
-11 3 11 4.09 0.14
-11 3 12 0.97 0.09
-11 3 13 2.27 0.12
-11 3 14 0.34 0.07
-11 3 16 3.35 0.13
-11 4 1 1.28 0.18
-11 4 2 2.69 0.11
-11 4 3 5.27 0.18
-11 4 5 0.22 0.07
-11 4 6 6.19 0.28
-11 4 9 1.99 0.2
-11 4 10 3.36 0.23
-11 4 12 3.05 0.22
-11 4 13 5.41 0.26
-10 0 4 8.43 0.22
-10 0 6 11.84 0.7
-10 0 8 17.72 0.4
-10 0 10 12.23 0.29
-10 0 12 11.5 0.34
-10 0 16 2.88 0.21
-10 0 18 58.77 0.96
-10 0 20 1.94 0.13
-10 1 1 3.52 0.13
-10 1 2 0.54 0.05
-10 1 3 2.28 0.08
-10 1 4 0.75 0.05
-10 1 5 9.42 0.23
-10 1 7 46.07 1.02
-10 1 8 19.43 0.49
-10 1 9 9.75 0.26
-10 1 10 6.12 0.2
-10 1 11 1.92 0.09
-10 1 12 4.04 0.39
-10 1 13 11.45 0.36
-10 1 14 17.68 0.38
-10 1 16 0.76 0.07
-10 1 17 14.27 0.31
-10 1 18 2.19 0.11
-10 1 19 1.68 0.1
-10 1 21 0.44 0.13
-10 2 1 0.43 0.06
-10 2 2 10.64 0.42
-10 2 3 48.29 1.03
-10 2 4 27.94 0.66
-10 2 7 1.4 0.07
-10 2 8 8.89 0.22
-10 2 9 12.81 0.36
-10 2 10 0.76 0.06
-10 2 11 11.31 0.59
-10 2 12 5.06 0.17
-10 2 13 10.99 0.27
-10 2 14 13.15 0.3
-10 2 16 0.74 0.11
-10 2 17 3.73 0.22
-10 2 18 0.5 0.14
-10 3 1 2.84 0.11
-10 3 2 8 0.21
-10 3 3 3.65 0.13
-10 3 4 9.97 0.28
-10 3 6 10.56 0.27
-10 3 7 0.59 0.06
-10 3 8 5.63 0.17
-10 3 9 0.85 0.07
-10 3 10 7.16 0.19
-10 3 14 7.62 0.21
-10 3 15 2.76 0.11
-10 3 17 1.29 0.17
-10 3 18 0.38 0.12
-10 4 2 10.1 0.24
-10 4 3 5.82 0.17
-10 4 4 0.34 0.06
-10 4 5 0.99 0.07
-10 4 6 3.19 0.17
-10 4 8 2.75 0.21
-10 4 9 3.02 0.14
-10 4 10 6.96 0.31
-10 4 13 7.19 0.3
-10 4 16 10.21 0.33
-10 4 17 0.92 0.16
-10 5 2 5.8 0.27
-10 5 4 1.81 0.35
-10 5 5 2.58 0.21
-10 5 6 5.07 0.36
-10 5 10 0.74 0.09
-10 5 11 1.09 0.17
-10 5 12 13.18 0.38
-9 0 2 3.81 0.15
-9 0 4 57.02 1.19
-9 0 6 24.47 0.54
-9 0 8 4.21 0.14
-9 0 10 50.98 1.35
-9 0 16 20.8 0.5
-9 0 18 0.41 0.13
-9 0 20 0.79 0.1
-9 0 22 6.27 0.44
-9 1 1 0.5 0.04
-9 1 2 1.28 0.06
-9 1 3 0.13 0.03
-9 1 4 10.09 0.23
-9 1 5 3.12 0.09
-9 1 6 22.11 0.49
-9 1 7 16.73 0.41
-9 1 8 4.74 0.14
-9 1 9 16.8 0.38
-9 1 10 1.12 0.07
-9 1 11 6.46 0.18
-9 1 13 0.38 0.11
-9 1 15 0.46 0.07
-9 1 16 2.49 0.13
-9 1 17 34.29 1.03
-9 1 18 6.36 0.19
-9 1 19 2.71 0.11
-9 1 20 4.04 0.15
-9 1 21 6.37 0.18
-9 1 23 2.03 0.19
-9 2 1 4.83 0.14
-9 2 3 0.59 0.05
-9 2 4 0.32 0.04
-9 2 5 5.92 0.15
-9 2 6 33.52 0.79
-9 2 7 9.71 0.23
-9 2 8 53.99 1.28
-9 2 9 1.37 0.07
-9 2 10 5.3 0.18
-9 2 12 3.15 0.12
-9 2 13 30.03 0.68
-9 2 14 4.83 0.15
-9 2 15 0.45 0.06
-9 2 16 9.22 0.24
-9 2 17 7.74 0.2
-9 2 18 13.76 0.41
-9 2 19 3.77 0.24
-9 2 21 6.89 0.29
-9 2 22 2.79 0.21
-9 3 1 2.4 0.19
-9 3 2 80.68 1.9
-9 3 3 12.8 0.3
-9 3 4 20.37 0.51
-9 3 6 1.11 0.06
-9 3 7 19.25 0.41
-9 3 8 6.41 0.19
-9 3 9 1.62 0.09
-9 3 10 4.71 0.16
-9 3 11 1.17 0.09
-9 3 12 40.66 1.13
-9 3 13 6.64 0.23
-9 3 14 6.1 0.17
-9 3 15 2.83 0.17
-9 3 16 2.89 0.11
-9 3 18 2.75 0.21
-9 4 1 11.21 0.26
-9 4 2 3.52 0.15
-9 4 3 19.38 0.41
-9 4 4 0.32 0.05
-9 4 6 7.41 0.24
-9 4 7 0.99 0.07
-9 4 8 4.03 0.16
-9 4 9 1.67 0.1
-9 4 10 0.4 0.06
-9 4 11 4.96 0.53
-9 4 12 5.43 0.83
-9 4 13 6.86 0.2
-9 4 14 0.32 0.08
-9 5 1 1.27 0.11
-9 5 6 0.83 0.07
-9 5 8 0.43 0.08
-9 5 9 3.38 0.14
-9 5 10 0.73 0.09
-9 5 12 2.86 0.22
-9 5 15 2.19 0.19
-9 6 1 1.27 0.17
-9 6 2 0.28 0.07
-9 6 3 3.43 0.13
-9 6 4 0.34 0.06
-9 6 5 2.63 0.21
-9 6 6 0.7 0.14
-8 0 2 3.67 0.12
-8 0 4 4.12 0.13
-8 0 8 48.1 1.41
-8 0 10 6.2 0.19
-8 0 12 2.94 0.39
-8 0 14 41.64 1.97
-8 0 16 12.23 0.37
-8 0 18 2.38 0.2
-8 0 20 38.37 2
-8 0 24 0.61 0.14
-8 1 1 29.06 0.63
-8 1 3 18.78 0.46
-8 1 4 29.24 0.68
-8 1 5 22.2 0.48
-8 1 6 1.65 0.06
-8 1 7 54.45 1.16
-8 1 8 5.84 0.15
-8 1 9 13.28 0.31
-8 1 10 34.68 0.87
-8 1 11 1.77 0.15
-8 1 12 1.69 0.11
-8 1 14 0.54 0.07
-8 1 15 15.27 0.38
-8 1 16 8.27 0.24
-8 1 17 6.81 0.32
-8 1 18 10.05 0.25
-8 1 20 1.05 0.07
-8 1 21 3.87 0.13
-8 1 23 0.88 0.1
-8 1 24 8.53 0.31
-8 2 1 37.94 0.92
-8 2 2 16.23 0.37
-8 2 3 6.68 0.18
-8 2 4 15.68 0.36
-8 2 5 33.11 0.72
-8 2 6 56.2 1.2
-8 2 7 6.33 0.16
-8 2 8 6.55 0.17
-8 2 9 1.29 0.07
-8 2 10 10.94 0.34
-8 2 11 19.07 0.44
-8 2 12 7.65 0.23
-8 2 13 1.99 0.1
-8 2 14 11.21 0.26
-8 2 15 0.2 0.06
-8 2 16 36.15 0.88
-8 2 17 1.92 0.17
-8 2 18 13.27 0.4
-8 2 19 3.07 0.22
-8 2 23 2.64 0.2
-8 3 1 0.21 0.04
-8 3 2 8.12 0.24
-8 3 3 6.95 0.18
-8 3 5 0.97 0.06
-8 3 6 31.95 0.86
-8 3 7 10.39 0.28
-8 3 8 21.55 0.47
-8 3 9 5.09 0.16
-8 3 10 9.19 0.23
-8 3 11 5.7 0.47
-8 3 12 49.52 1.16
-8 3 13 1.48 0.13
-8 3 14 1.24 0.1
-8 3 15 0.5 0.06
-8 3 16 17.05 0.38
-8 3 17 16.32 0.36
-8 3 19 1.12 0.17
-8 3 20 7.22 0.41
-8 4 1 20.58 0.53
-8 4 2 19.07 0.48
-8 4 3 15.95 0.34
-8 4 4 10.41 0.25
-8 4 5 3.06 0.1
-8 4 6 4.49 0.14
-8 4 7 2.79 0.11
-8 4 8 4.22 0.16
-8 4 10 0.36 0.08
-8 4 11 22.7 0.46
-8 4 12 16.73 0.44
-8 4 13 10.65 0.39
-8 4 15 2.83 0.23
-8 4 16 2.67 0.17
-8 4 18 4.43 0.29
-8 5 1 4.45 0.16
-8 5 2 25.36 0.49
-8 5 5 1.3 0.09
-8 5 6 0.51 0.06
-8 5 7 4.39 0.14
-8 5 8 6.84 0.72
-8 5 10 2.21 0.13
-8 5 12 0.86 0.09
-8 5 14 0.54 0.14
-8 5 15 0.7 0.14
-8 6 1 0.3 0.07
-8 6 2 0.5 0.08
-8 6 3 0.24 0.06
-8 6 4 0.56 0.06
-8 6 6 0.36 0.07
-8 6 7 0.97 0.09
-8 6 8 0.42 0.12
-8 6 11 0.63 0.11
-7 0 2 14.67 0.33
-7 0 4 39.5 0.79
-7 0 6 257.61 4.99
-7 0 10 0.96 0.26
-7 0 12 5.61 0.47
-7 0 14 11.47 0.3
-7 0 16 6.88 0.32
-7 0 18 7.14 0.28
-7 0 20 0.52 0.09
-7 0 22 0.41 0.09
-7 0 24 7.12 0.59
-7 1 1 18.3 0.52
-7 1 2 86.73 1.86
-7 1 3 3.89 0.11
-7 1 4 0.38 0.05
-7 1 5 2.19 0.08
-7 1 6 18.24 0.41
-7 1 7 50.7 1.53
-7 1 9 10.81 0.38
-7 1 10 28.47 0.73
-7 1 11 44.53 1.27
-7 1 12 2.96 0.13
-7 1 13 8.83 0.29
-7 1 14 14.91 0.35
-7 1 15 12.99 0.3
-7 1 16 5.78 0.17
-7 1 17 22.4 0.45
-7 1 18 0.18 0.06
-7 1 19 25.15 0.71
-7 1 20 4.34 0.13
-7 1 21 2.92 0.11
-7 1 22 1.15 0.08
-7 1 23 1.01 0.07
-7 1 24 0.86 0.15
-7 1 25 7.1 0.29
-7 2 2 0.33 0.03
-7 2 3 22.25 0.5
-7 2 4 3.32 0.13
-7 2 5 9.78 0.24
-7 2 6 2.24 0.09
-7 2 7 19.1 0.41
-7 2 8 16.46 0.36
-7 2 9 16.7 0.37
-7 2 10 76.67 1.56
-7 2 11 21.8 0.48
-7 2 12 7.81 0.21
-7 2 13 4.97 0.14
-7 2 14 3.34 0.11
-7 2 15 40.03 0.85
-7 2 16 11.8 0.5
-7 2 17 2.17 0.2
-7 2 18 4.37 0.25
-7 2 20 21.54 1.21
-7 2 21 11.11 0.99
-7 2 22 4.16 0.37
-7 2 23 3.79 0.24
-7 2 24 4.56 0.24
-7 3 1 1.93 0.07
-7 3 2 1.81 0.07
-7 3 3 2.08 0.08
-7 3 4 73.67 1.84
-7 3 5 33.91 0.7
-7 3 6 15.71 0.35
-7 3 9 9.55 0.23
-7 3 10 11.02 0.37
-7 3 11 0.18 0.04
-7 3 12 0.94 0.07
-7 3 13 7.37 0.19
-7 3 14 22.1 0.55
-7 3 15 4.67 0.15
-7 3 16 21.56 0.86
-7 3 18 9.74 0.24
-7 3 20 2.36 0.15
-7 3 21 2.63 0.13
-7 3 22 2.65 0.2
-7 4 1 20.52 0.45
-7 4 2 6.48 0.17
-7 4 3 0.67 0.05
-7 4 4 2.15 0.08
-7 4 5 22.16 0.51
-7 4 6 4.45 0.14
-7 4 7 4.53 0.14
-7 4 8 25.92 0.51
-7 4 9 5.45 0.26
-7 4 10 0.2 0.07
-7 4 11 13.98 0.77
-7 4 12 3.38 0.14
-7 4 14 3.23 0.2
-7 4 15 12 0.29
-7 4 16 9.47 0.32
-7 4 17 3.31 0.35
-7 5 1 3.7 0.12
-7 5 2 18.07 0.66
-7 5 3 3.37 0.11
-7 5 4 1.59 0.14
-7 5 5 0.96 0.07
-7 5 6 7.74 0.23
-7 5 7 0.68 0.07
-7 5 10 5.46 0.18
-7 5 11 9.19 0.24
-7 5 12 24.07 1.51
-7 5 14 1.18 0.11
-7 5 17 2.24 0.19
-7 6 1 14.48 0.32
-7 6 2 2.74 0.13
-7 6 4 0.69 0.07
-7 6 5 1 0.2
-7 6 6 5.58 0.18
-7 6 7 1.91 0.12
-7 6 8 3.48 0.34
-7 6 9 1.88 0.13
-7 6 11 1.55 0.19
-6 0 2 186.7 4.1
-6 0 4 3.17 0.29
-6 0 6 166.96 3.6
-6 0 8 1.26 0.15
-6 0 10 290.47 8.25
-6 0 14 24.97 0.56
-6 0 16 127.71 3.82
-6 0 18 15.08 0.47
-6 0 20 9.43 0.25
-6 0 22 2.79 0.14
-6 0 24 11.77 0.42
-6 1 1 1.53 0.09
-6 1 2 6.75 0.18
-6 1 3 1.27 0.07
-6 1 4 31.68 0.68
-6 1 5 97.37 2.39
-6 1 6 154.37 3.44
-6 1 7 2.63 0.17
-6 1 8 3.13 0.18
-6 1 9 43.78 1.04
-6 1 10 50.57 1.29
-6 1 11 3.98 0.18
-6 1 12 41.24 0.95
-6 1 13 4.86 0.14
-6 1 14 21.09 0.47
-6 1 15 3.5 0.11
-6 1 16 0.54 0.05
-6 1 17 1.03 0.07
-6 1 18 0.65 0.06
-6 1 19 11.19 0.3
-6 1 20 26.5 0.91
-6 1 21 12.1 0.31
-6 1 22 1.44 0.08
-6 1 23 2 0.09
-6 1 24 0.22 0.07
-6 1 25 1.4 0.18
-6 2 1 68.55 1.54
-6 2 2 38.37 0.82
-6 2 3 59.86 1.86
-6 2 4 5.39 0.14
-6 2 5 4.31 0.13
-6 2 6 1.07 0.1
-6 2 7 0.2 0.04
-6 2 8 12.91 0.64
-6 2 9 31.27 0.76
-6 2 10 9.15 0.24
-6 2 11 0.19 0.04
-6 2 12 8.6 0.21
-6 2 13 0.17 0.04
-6 2 14 6.4 0.18
-6 2 15 2.66 0.11
-6 2 16 0.38 0.05
-6 2 17 9.23 0.3
-6 2 18 19.04 0.95
-6 2 19 2.37 0.12
-6 2 20 19.23 0.41
-6 2 21 1.56 0.1
-6 2 23 0.53 0.09
-6 3 1 12.96 0.3
-6 3 2 11.26 0.26
-6 3 3 1.68 0.06
-6 3 4 4.41 0.11
-6 3 5 0.65 0.04
-6 3 6 6.98 0.17
-6 3 7 7.3 0.18
-6 3 8 38.44 0.86
-6 3 9 30.57 0.59
-6 3 10 0.52 0.06
-6 3 11 4.29 0.13
-6 3 12 0.93 0.16
-6 3 13 6.42 0.17
-6 3 14 54.02 1.11
-6 3 15 12.73 0.31
-6 3 16 1.86 0.12
-6 3 17 0.6 0.07
-6 3 18 8.09 0.23
-6 3 19 14.9 0.58
-6 3 20 0.9 0.17
-6 3 21 0.4 0.08
-6 3 22 4.55 0.16
-6 3 23 0.75 0.14
-6 4 1 7.65 0.2
-6 4 3 7.14 0.18
-6 4 4 41.65 1.03
-6 4 5 37.58 0.8
-6 4 6 1.86 0.09
-6 4 8 6.81 0.2
-6 4 10 1.8 0.1
-6 4 11 6.32 0.46
-6 4 12 11.92 0.28
-6 4 13 13.83 0.85
-6 4 14 13.72 0.32
-6 4 15 21.55 0.44
-6 4 16 0.56 0.07
-6 4 18 6.3 0.2
-6 4 19 1.01 0.13
-6 5 2 0.74 0.06
-6 5 3 1.21 0.07
-6 5 4 34.24 0.84
-6 5 6 6.52 0.18
-6 5 7 2.61 0.11
-6 5 8 15.4 0.36
-6 5 9 1.3 0.18
-6 5 10 14.52 0.33
-6 5 11 0.53 0.08
-6 5 13 0.58 0.1
-6 5 14 2.38 0.13
-6 5 15 1.41 0.13
-6 5 16 7.47 0.21
-6 5 18 1.16 0.21
-6 6 1 1.71 0.08
-6 6 2 4.1 0.12
-6 6 3 0.56 0.06
-6 6 4 2.7 0.19
-6 6 5 8.65 0.57
-6 6 6 1.52 0.09
-6 6 7 0.63 0.06
-6 6 8 0.43 0.14
-6 6 10 4.97 0.27
-6 6 11 9.51 0.35
-6 6 12 4.31 0.25
-6 6 13 0.87 0.16
-6 6 14 0.67 0.15
-6 6 15 3.26 0.22
-6 6 16 1.83 0.18
-6 7 1 5.08 0.16
-6 7 4 0.32 0.08
-6 7 5 0.39 0.07
-6 7 6 1.02 0.09
-6 7 7 2.06 0.18
-6 7 9 2.32 0.19
-5 0 2 91.44 1.85
-5 0 4 18.77 0.47
-5 0 6 118.91 2.77
-5 0 8 287.95 7.7
-5 0 10 105.32 2.39
-5 0 12 43.02 1.01
-5 0 14 0.55 0.07
-5 0 18 25.8 0.72
-5 0 20 98.02 2.5
-5 0 22 0.35 0.08
-5 0 24 0.48 0.09
-5 0 26 13.39 0.38
-5 1 1 57.08 1.34
-5 1 2 260.33 6.58
-5 1 3 51.59 1.08
-5 1 4 96.09 2.49
-5 1 5 31.2 1.1
-5 1 6 4.15 0.32
-5 1 7 0.83 0.2
-5 1 8 16.99 0.5
-5 1 9 270.3 6.41
-5 1 10 25.66 0.65
-5 1 12 24.34 0.54
-5 1 13 8.82 0.21
-5 1 14 25.68 0.56
-5 1 15 38.64 0.88
-5 1 16 53.57 1.15
-5 1 17 15.6 0.36
-5 1 18 0.49 0.05
-5 1 19 40.2 0.88
-5 1 20 0.57 0.06
-5 1 21 0.9 0.07
-5 1 22 1.41 0.1
-5 1 23 0.23 0.06
-5 1 24 14.28 0.45
-5 1 25 0.96 0.16
-5 1 26 2.94 0.21
-5 2 1 9.19 0.21
-5 2 2 0.67 0.07
-5 2 3 4.2 0.13
-5 2 4 27.52 0.85
-5 2 5 177.03 3.64
-5 2 6 79.36 3.07
-5 2 7 21.56 0.77
-5 2 8 2.04 0.14
-5 2 11 39.58 0.88
-5 2 12 23.54 0.52
-5 2 13 71.83 1.52
-5 2 14 0.73 0.06
-5 2 15 11.97 0.28
-5 2 16 3.21 0.11
-5 2 17 7.87 0.21
-5 2 18 4.95 0.16
-5 2 19 10.76 0.35
-5 2 22 8.99 0.45
-5 2 23 6.31 0.2
-5 2 24 1.53 0.17
-5 3 1 19.71 0.42
-5 3 3 5.89 0.14
-5 3 4 11.06 0.25
-5 3 5 3.66 0.15
-5 3 6 4.66 0.12
-5 3 7 15.78 0.35
-5 3 8 2.19 0.09
-5 3 10 6.39 0.18
-5 3 11 0.48 0.05
-5 3 12 0.67 0.05
-5 3 14 0.92 0.09
-5 3 15 2.23 0.11
-5 3 18 12.74 0.3
-5 3 19 5.92 0.21
-5 3 20 0.24 0.08
-5 3 21 0.91 0.12
-5 3 23 3.81 0.14
-5 4 1 3.26 0.11
-5 4 3 23.54 0.52
-5 4 4 23.43 0.51
-5 4 5 13.17 0.28
-5 4 7 1.16 0.07
-5 4 8 25.42 0.52
-5 4 10 22.91 0.58
-5 4 11 0.27 0.06
-5 4 12 2.02 0.16
-5 4 13 14.52 0.34
-5 4 14 7.2 0.2
-5 4 15 13.15 0.4
-5 4 17 2.4 0.17
-5 4 18 16.69 1.06
-5 4 19 0.45 0.09
-5 5 1 2.64 0.09
-5 5 2 3.96 0.12
-5 5 3 2.96 0.11
-5 5 4 64.59 1.54
-5 5 5 0.31 0.05
-5 5 6 8.74 0.25
-5 5 7 2.46 0.1
-5 5 8 5.87 0.16
-5 5 9 2.61 0.17
-5 5 10 3.29 0.14
-5 5 12 11.53 0.62
-5 5 13 4 0.56
-5 5 14 47.22 3.35
-5 5 16 0.7 0.08
-5 5 17 0.6 0.11
-5 5 18 1.35 0.22
-5 6 2 0.45 0.05
-5 6 3 18.15 0.4
-5 6 4 2.51 0.11
-5 6 5 1.39 0.19
-5 6 6 0.82 0.07
-5 6 7 1.68 0.14
-5 6 8 11.39 0.27
-5 6 9 2.24 0.13
-5 6 10 9.02 0.35
-5 6 11 0.67 0.12
-5 6 13 1.23 0.13
-5 6 15 4.14 0.24
-5 6 17 0.82 0.14
-5 7 2 0.69 0.15
-5 7 3 0.5 0.07
-5 7 4 0.34 0.07
-5 7 7 1.94 0.34
-5 7 9 1.91 0.29
-5 7 10 1.81 0.19
-5 7 11 2.25 0.2
-4 0 2 873.02 129.84
-4 0 4 123.97 3.51
-4 0 6 45.1 1.03
-4 0 8 584.14 13.04
-4 0 10 1.78 0.19
-4 0 12 243.64 5.39
-4 0 14 1.95 0.14
-4 0 16 56.48 1.24
-4 0 18 131.15 2.66
-4 0 22 1.2 0.11
-4 0 24 1.88 0.23
-4 0 26 10.99 0.35
-4 1 1 91.72 2.3
-4 1 2 57.09 1.26
-4 1 3 1.76 0.1
-4 1 4 34.49 0.83
-4 1 5 0.13 0.04
-4 1 6 179.81 4.18
-4 1 7 89.81 2.04
-4 1 8 178.73 4.17
-4 1 9 46.77 1.09
-4 1 11 1.92 0.08
-4 1 12 81.52 1.79
-4 1 13 15.18 0.36
-4 1 14 16.48 0.37
-4 1 15 0.12 0.03
-4 1 16 21.37 0.47
-4 1 17 4.51 0.12
-4 1 18 1 0.06
-4 1 19 52.27 1.25
-4 1 20 11.64 0.32
-4 1 21 1.34 0.11
-4 1 22 20.95 0.89
-4 1 23 9.02 0.26
-4 1 24 2.61 0.18
-4 1 25 4.37 0.14
-4 1 26 2.15 0.19
-4 2 1 52.74 1.23
-4 2 2 13.16 0.37
-4 2 3 80.07 2.4
-4 2 4 63.4 2.42
-4 2 5 5.92 0.38
-4 2 6 5.76 0.38
-4 2 7 6.58 0.18
-4 2 8 83.48 1.82
-4 2 9 14.07 0.34
-4 2 10 30.14 0.68
-4 2 11 7.43 0.2
-4 2 12 0.81 0.04
-4 2 13 3.26 0.1
-4 2 14 22.1 0.49
-4 2 15 34.38 0.77
-4 2 16 9.95 0.24
-4 2 17 7.31 0.18
-4 2 18 7.95 0.24
-4 2 19 5.97 0.2
-4 2 21 4.28 0.2
-4 2 22 3.91 0.14
-4 2 23 17.23 0.44
-4 2 24 2.29 0.1
-4 2 25 3.24 0.22
-4 3 1 4.91 0.12
-4 3 2 13.28 0.29
-4 3 3 21.5 0.61
-4 3 4 236.69 5.14
-4 3 5 27.7 0.58
-4 3 6 8 0.26
-4 3 7 5.19 0.14
-4 3 8 0.27 0.06
-4 3 9 36.44 0.9
-4 3 10 63.12 1.5
-4 3 11 20.11 0.46
-4 3 12 12.26 0.27
-4 3 13 1.07 0.06
-4 3 14 31.51 0.81
-4 3 15 6.08 0.17
-4 3 16 3.99 0.17
-4 3 17 14.62 0.33
-4 3 18 2.44 0.27
-4 3 20 5.98 0.19
-4 3 21 1.61 0.12
-4 3 22 1.18 0.13
-4 3 23 0.35 0.11
-4 4 1 0.15 0.03
-4 4 2 5.11 0.14
-4 4 3 58.35 1.43
-4 4 4 1.07 0.06
-4 4 5 11.15 0.26
-4 4 6 28.54 0.62
-4 4 7 9.26 0.3
-4 4 8 4.46 0.13
-4 4 9 1.99 0.1
-4 4 10 2.76 0.11
-4 4 11 0.17 0.05
-4 4 12 0.33 0.06
-4 4 13 27.63 0.86
-4 4 14 22.14 0.85
-4 4 15 0.89 0.07
-4 4 16 1.96 0.15
-4 4 17 4.64 0.24
-4 4 18 2.12 0.13
-4 4 20 3.92 0.28
-4 5 2 21.57 0.47
-4 5 3 2.16 0.09
-4 5 4 0.53 0.06
-4 5 6 5.01 0.16
-4 5 8 7.99 0.2
-4 5 10 11.97 0.76
-4 5 11 1.38 0.11
-4 5 12 7.45 0.48
-4 5 13 0.54 0.08
-4 5 14 13.19 0.39
-4 5 15 0.28 0.07
-4 5 17 1.6 0.28
-4 5 18 11.34 0.42
-4 6 2 4.38 0.33
-4 6 3 12.27 0.28
-4 6 4 3.26 0.14
-4 6 5 5.44 0.23
-4 6 6 1.52 0.09
-4 6 7 8.59 0.23
-4 6 8 1.36 0.11
-4 6 11 0.62 0.09
-4 6 12 4.08 0.17
-4 6 13 18.9 0.43
-4 6 14 4.74 0.17
-4 6 16 1.04 0.17
-4 6 17 0.49 0.13
-4 7 2 3.86 0.24
-4 7 3 4.04 0.32
-4 7 4 2.36 0.16
-4 7 6 0.78 0.08
-4 7 7 2.55 0.29
-4 7 8 1.74 0.2
-4 7 9 6.71 0.29
-4 7 11 0.8 0.16
-3 0 2 14.67 0.32
-3 0 4 91.39 3.11
-3 0 6 15 0.65
-3 0 8 22.53 0.53
-3 0 10 4.17 0.12
-3 0 12 146.68 3.19
-3 0 14 17.79 0.39
-3 0 16 13.37 0.32
-3 0 18 33.71 0.75
-3 0 20 9.28 0.48
-3 0 22 92.89 3.76
-3 0 24 0.49 0.09
-3 0 26 4.02 0.23
-3 1 1 327.42 7.64
-3 1 2 33.91 0.78
-3 1 3 162.96 3.73
-3 1 4 234.65 5.33
-3 1 5 217.52 5
-3 1 6 0.33 0.04
-3 1 7 354.16 8.05
-3 1 8 8.31 0.23
-3 1 9 61.85 1.37
-3 1 10 3.6 0.11
-3 1 11 158.77 3.55
-3 1 12 53.35 1.18
-3 1 13 0.84 0.04
-3 1 14 0.33 0.03
-3 1 15 0.14 0.03
-3 1 16 31.5 0.69
-3 1 17 59.55 1.28
-3 1 18 38.34 0.84
-3 1 19 0.27 0.04
-3 1 20 1.96 0.08
-3 1 21 7.93 0.2
-3 1 22 1.96 0.09
-3 1 23 1.81 0.09
-3 1 24 0.23 0.06
-3 1 25 1.13 0.08
-3 1 26 16.46 0.43
-3 2 1 83.99 1.9
-3 2 2 181.37 4.22
-3 2 3 303.88 6.94
-3 2 4 27.65 0.69
-3 2 5 2.67 0.11
-3 2 6 139.19 3.62
-3 2 7 169.29 3.8
-3 2 8 290.12 6.59
-3 2 9 52.27 1.15
-3 2 10 10.97 0.26
-3 2 11 23.1 0.51
-3 2 12 2.11 0.07
-3 2 13 53.21 1.21
-3 2 14 0.89 0.05
-3 2 15 28.37 0.66
-3 2 16 14.63 0.33
-3 2 17 0.98 0.06
-3 2 18 43.21 1
-3 2 19 0.34 0.05
-3 2 20 3.54 0.11
-3 2 21 10.7 0.33
-3 2 24 2.6 0.15
-3 3 1 3.9 0.1
-3 3 2 249.54 5.54
-3 3 3 7.5 0.18
-3 3 4 45.39 0.93
-3 3 5 21.71 0.45
-3 3 6 0.27 0.05
-3 3 7 4.08 0.14
-3 3 8 17.92 0.43
-3 3 9 5.56 0.15
-3 3 10 20.04 0.45
-3 3 11 1.52 0.08
-3 3 12 42.02 0.91
-3 3 13 9.33 0.22
-3 3 14 69.93 1.58
-3 3 15 1.64 0.13
-3 3 17 1.16 0.08
-3 3 18 3.44 0.12
-3 3 19 10.33 0.25
-3 3 20 4.2 0.14
-3 3 21 6.83 0.23
-3 3 22 9.9 0.25
-3 3 24 10.91 0.34
-3 4 1 20.6 0.44
-3 4 2 10.51 0.4
-3 4 3 57.84 1.2
-3 4 4 28.55 0.69
-3 4 5 0.47 0.04
-3 4 6 24.5 0.71
-3 4 7 16.46 0.48
-3 4 8 0.5 0.05
-3 4 9 0.49 0.06
-3 4 10 37.45 0.8
-3 4 11 3.98 0.14
-3 4 12 2.85 0.12
-3 4 13 31.69 0.96
-3 4 14 5.72 0.19
-3 4 16 4.01 0.16
-3 4 17 10.62 0.26
-3 4 18 3.92 0.15
-3 4 20 8.67 0.37
-3 5 1 0.24 0.04
-3 5 2 2.35 0.08
-3 5 3 4.25 0.13
-3 5 4 8.98 0.25
-3 5 5 1.11 0.07
-3 5 6 35.47 0.91
-3 5 7 4.01 0.13
-3 5 8 0.58 0.07
-3 5 9 4.19 0.15
-3 5 10 4.28 0.17
-3 5 11 1.38 0.11
-3 5 12 12.48 0.29
-3 5 13 0.32 0.07
-3 5 14 1.64 0.1
-3 5 16 16.98 0.54
-3 5 17 0.98 0.1
-3 5 18 1.23 0.21
-3 6 1 7.77 0.37
-3 6 2 1.65 0.11
-3 6 3 1.23 0.24
-3 6 4 1.28 0.08
-3 6 5 0.79 0.07
-3 6 6 0.91 0.09
-3 6 7 0.81 0.13
-3 6 9 3.93 0.16
-3 6 10 2.88 0.14
-3 6 11 0.33 0.07
-3 6 12 3.95 0.16
-3 6 13 1.83 0.1
-3 6 15 0.6 0.11
-3 6 17 6.89 0.27
-3 7 2 5.21 0.25
-3 7 4 4.2 0.24
-3 7 5 1.63 0.19
-3 7 6 0.56 0.15
-3 7 12 5.8 0.27
-3 7 13 3.85 0.23
-2 0 6 175.79 4.14
-2 0 8 468.38 10.69
-2 0 10 187.55 4.39
-2 0 12 17 0.38
-2 0 14 56.16 1.25
-2 0 16 11.64 0.29
-2 0 18 4.81 0.13
-2 0 20 16.84 0.36
-2 0 22 4.47 0.17
-2 0 26 3.82 0.23
-2 1 1 196.48 4.42
-2 1 2 562.49 47.29
-2 1 3 21.17 0.46
-2 1 4 352.07 15.79
-2 1 5 20.98 0.53
-2 1 6 5.67 0.14
-2 1 7 34.57 0.78
-2 1 8 293.47 6.65
-2 1 9 22.75 0.53
-2 1 10 32.94 0.74
-2 1 11 83.01 1.83
-2 1 12 9.54 0.23
-2 1 13 32.1 0.71
-2 1 14 18.48 0.41
-2 1 15 11.13 0.26
-2 1 16 1.05 0.05
-2 1 17 30.6 0.68
-2 1 18 8.31 0.2
-2 1 19 1.79 0.07
-2 1 20 0.96 0.06
-2 1 21 56.94 1.23
-2 1 22 10.8 0.3
-2 1 24 2.29 0.15
-2 1 25 0.56 0.06
-2 1 26 1.46 0.18
-2 2 1 152.28 3.51
-2 2 2 487.07 10.93
-2 2 3 9.64 0.25
-2 2 4 22.61 0.53
-2 2 5 3.21 0.11
-2 2 6 72.41 1.61
-2 2 7 33.86 0.76
-2 2 8 28.59 0.64
-2 2 9 17.04 0.38
-2 2 10 90.2 1.98
-2 2 11 13.44 0.31
-2 2 12 108.63 2.39
-2 2 13 30.61 0.69
-2 2 14 13.46 0.3
-2 2 15 2.22 0.08
-2 2 16 36.94 0.82
-2 2 17 54.84 1.23
-2 2 18 27.37 0.66
-2 2 19 7.92 0.2
-2 2 20 6.75 0.19
-2 2 21 0.5 0.06
-2 2 22 9.64 0.24
-2 2 23 10.32 0.34
-2 2 24 0.4 0.07
-2 2 25 14.39 0.41
-2 3 1 142.38 3.22
-2 3 2 67.56 1.42
-2 3 3 1.57 0.12
-2 3 4 9.12 0.23
-2 3 5 6.51 0.21
-2 3 6 361.23 8.32
-2 3 7 81.89 1.78
-2 3 8 25.41 0.56
-2 3 9 8.11 0.2
-2 3 10 22.24 0.53
-2 3 11 20.24 0.47
-2 3 12 84.05 2.53
-2 3 13 3.86 0.11
-2 3 14 4.95 0.13
-2 3 15 11.45 0.32
-2 3 16 32.74 0.72
-2 3 17 4.64 0.16
-2 3 18 9.23 0.23
-2 3 19 1.43 0.1
-2 3 20 15.32 0.38
-2 3 22 10.81 0.26
-2 3 23 1.3 0.25
-2 3 24 1.58 0.17
-2 4 1 16.3 0.35
-2 4 2 60.22 1.36
-2 4 3 32.5 0.67
-2 4 4 0.46 0.05
-2 4 5 34.13 0.75
-2 4 6 3.85 0.12
-2 4 7 36.97 0.79
-2 4 8 0.54 0.05
-2 4 9 0.34 0.05
-2 4 10 23.54 0.51
-2 4 11 18.38 0.38
-2 4 13 10.5 0.25
-2 4 14 8.58 0.27
-2 4 15 10.37 0.25
-2 4 16 14.94 0.34
-2 4 17 10.78 0.26
-2 4 18 1.03 0.11
-2 4 20 2.58 0.14
-2 4 21 2.33 0.25
-2 5 1 0.28 0.04
-2 5 2 15.52 0.46
-2 5 3 3.21 0.11
-2 5 4 3.48 0.12
-2 5 5 4.07 0.13
-2 5 7 0.23 0.05
-2 5 8 1.09 0.09
-2 5 9 0.83 0.13
-2 5 10 3.18 0.54
-2 5 11 0.53 0.08
-2 5 12 0.84 0.17
-2 5 13 5.53 0.25
-2 5 14 2.3 0.11
-2 5 16 13.02 0.86
-2 5 17 0.62 0.09
-2 5 19 1.2 0.2
-2 6 1 0.6 0.06
-2 6 3 14.83 1.03
-2 6 5 8.55 0.36
-2 6 7 3.34 0.14
-2 6 8 1.97 0.12
-2 6 9 2.72 0.14
-2 6 11 6.01 0.31
-2 6 12 0.4 0.09
-2 6 14 1.53 0.17
-2 6 15 5.27 0.27
-2 6 16 0.53 0.14
-2 7 4 1.38 0.18
-2 7 6 2.86 0.22
-2 7 7 4.25 0.25
-2 7 8 3.42 0.23
-2 7 10 1.21 0.19
-2 7 11 2.98 0.23
-2 7 12 0.74 0.15
-1 0 2 718.07 15.96
-1 0 4 834.81 62.78
-1 0 6 205.81 4.77
-1 0 8 513.58 11.58
-1 0 10 3.11 0.11
-1 0 12 112.58 2.47
-1 0 14 48.4 1.07
-1 0 16 22.59 0.49
-1 0 18 61.03 1.31
-1 0 20 43.4 0.89
-1 0 22 0.58 0.07
-1 0 24 21.16 1.03
-1 0 26 5.89 0.26
-1 1 2 156.51 4.43
-1 1 3 352.92 11.23
-1 1 4 254.89 6.23
-1 1 5 1.08 0.04
-1 1 6 0.51 0.05
-1 1 7 423.06 9.81
-1 1 8 95.16 2.15
-1 1 9 172.15 3.95
-1 1 11 74.06 1.63
-1 1 12 88.49 1.95
-1 1 13 5.65 0.14
-1 1 14 45.59 1
-1 1 15 10.34 0.23
-1 1 16 6.35 0.15
-1 1 17 1.78 0.06
-1 1 18 14.75 0.33
-1 1 19 9.41 0.23
-1 1 20 2.88 0.09
-1 1 21 13.93 0.32
-1 1 22 12.1 0.3
-1 1 23 1.65 0.07
-1 1 24 0.53 0.05
-1 1 25 1.46 0.1
-1 2 1 141.81 3.24
-1 2 2 8.4 0.23
-1 2 3 173.76 3.98
-1 2 4 232.22 5.25
-1 2 5 499.7 11.29
-1 2 6 18.86 0.43
-1 2 7 1.44 0.07
-1 2 8 46.49 1.07
-1 2 9 7.89 0.19
-1 2 10 186.59 4.14
-1 2 11 73.48 1.61
-1 2 12 34.06 0.76
-1 2 13 12.62 0.29
-1 2 14 1.19 0.05
-1 2 15 12.06 0.29
-1 2 18 5.23 0.14
-1 2 19 4.01 0.12
-1 2 20 46.58 0.95
-1 2 21 1.09 0.07
-1 2 22 18.97 0.44
-1 2 24 0.38 0.07
-1 2 25 0.43 0.14
-1 3 2 32.54 0.78
-1 3 3 13.62 0.31
-1 3 4 55.98 1.38
-1 3 5 0.85 0.06
-1 3 6 105.74 2.31
-1 3 7 1.77 0.07
-1 3 8 6.52 0.18
-1 3 9 1.16 0.06
-1 3 10 32.25 0.7
-1 3 11 42.68 1.08
-1 3 12 0.27 0.04
-1 3 13 1.12 0.07
-1 3 14 26.86 0.63
-1 3 15 5.87 0.15
-1 3 16 114.59 2.39
-1 3 17 11.71 0.27
-1 3 18 1.09 0.1
-1 3 19 3.91 0.14
-1 3 20 0.32 0.07
-1 3 21 13.03 0.4
-1 3 22 5.35 0.16
-1 3 23 2.14 0.12
-1 4 1 6.07 0.15
-1 4 2 9.58 0.24
-1 4 4 0.46 0.04
-1 4 5 59.96 1.34
-1 4 6 80.51 2.13
-1 4 7 27.83 0.68
-1 4 8 8 0.23
-1 4 9 1.34 0.09
-1 4 11 2.97 0.11
-1 4 12 20.59 0.52
-1 4 13 0.25 0.04
-1 4 14 3.37 0.11
-1 4 15 37.23 0.7
-1 4 16 4.05 0.14
-1 4 17 10 0.25
-1 4 20 9.83 0.38
-1 4 21 2.31 0.24
-1 5 1 9.94 0.23
-1 5 2 68.28 2.09
-1 5 3 1.21 0.07
-1 5 4 4.91 0.14
-1 5 6 30.54 0.96
-1 5 7 0.98 0.08
-1 5 8 0.66 0.17
-1 5 9 6.93 0.2
-1 5 10 14.29 0.42
-1 5 11 1.54 0.09
-1 5 12 13.2 0.3
-1 5 14 1.8 0.11
-1 5 15 1.11 0.09
-1 5 17 0.29 0.08
-1 6 1 1.98 0.11
-1 6 2 6.28 0.27
-1 6 4 1.86 0.11
-1 6 5 0.72 0.09
-1 6 6 8.79 0.91
-1 6 7 9.02 0.24
-1 6 8 2.6 0.13
-1 6 10 0.46 0.09
-1 6 13 2.67 0.23
-1 6 15 5.15 0.26
-1 6 16 0.4 0.13
-1 7 1 1.51 0.18
-1 7 3 3.1 0.23
-1 7 4 3.24 0.23
-1 7 6 3.41 0.24
-1 7 11 4.48 0.25
0 0 2 144.37 4.59
0 0 4 71.1 1.62
0 0 6 919.55 48.04
0 0 8 296.73 6.81
0 0 10 402.96 9.23
0 0 12 14.15 0.33
0 0 14 52.88 1.15
0 0 16 11.24 0.25
0 0 18 1.65 0.08
0 0 20 11.54 0.28
0 0 22 16.51 0.36
0 0 24 1.81 0.1
0 1 1 483.13 10.89
0 1 2 92.99 2.12
0 1 3 18.42 0.42
0 1 4 1513.02 51.78
0 1 5 72.44 1.61
0 1 6 316.45 7.18
0 1 7 36.18 0.81
0 1 8 28.03 0.66
0 1 9 38.08 0.88
0 1 10 148.27 3.34
0 1 11 202.86 4.77
0 1 12 0.19 0.03
0 1 13 25.57 0.56
0 1 14 8.87 0.2
0 1 15 3.56 0.09
0 1 16 3.62 0.1
0 1 17 19.88 0.44
0 1 18 25.3 0.57
0 1 19 50.98 1.11
0 1 20 3.06 0.09
0 1 21 15.93 0.36
0 1 22 4.2 0.13
0 1 23 10.26 0.24
0 1 24 4.07 0.13
0 1 25 0.95 0.09
0 2 0 13.85 0.34
0 2 1 74.21 1.67
0 2 2 132.67 3.07
0 2 4 188.38 4.3
0 2 5 49.69 1.13
0 2 6 5.4 0.14
0 2 7 140.22 3.16
0 2 8 0.49 0.04
0 2 9 54.87 1.2
0 2 10 26.05 0.59
0 2 11 1.4 0.06
0 2 12 16.72 0.37
0 2 13 9.88 0.23
0 2 14 57.35 1.27
0 2 15 97.03 2.09
0 2 16 2.7 0.08
0 2 18 11.75 0.29
0 2 19 11.94 0.3
0 2 20 25.18 0.56
0 2 21 12.88 0.31
0 2 22 0.43 0.07
0 2 23 3.92 0.14
0 2 24 7.4 0.2
0 3 1 50.02 1.13
0 3 2 116.22 2.63
0 3 3 86.97 1.91
0 3 4 56.85 1.23
0 3 5 15.94 0.37
0 3 6 0.26 0.03
0 3 7 1.04 0.05
0 3 8 98.77 2.13
0 3 9 41.35 0.86
0 3 10 1.25 0.06
0 3 11 1.5 0.07
0 3 12 8.81 0.31
0 3 14 27.46 0.58
0 3 15 0.3 0.04
0 3 16 1.17 0.07
0 3 17 5.03 0.14
0 3 18 4.99 0.15
0 3 19 0.36 0.06
0 3 20 12.26 0.28
0 3 21 2.55 0.1
0 3 22 4.07 0.14
0 4 0 2.83 0.13
0 4 1 11.99 0.27
0 4 2 56.63 1.3
0 4 3 3.94 0.11
0 4 4 12.11 0.32
0 4 5 75.66 1.61
0 4 6 6.43 0.17
0 4 7 0.19 0.03
0 4 8 5.54 0.18
0 4 9 6.16 0.17
0 4 10 16.39 0.35
0 4 11 0.57 0.05
0 4 12 24.07 0.51
0 4 13 6.02 0.16
0 4 15 25.62 0.53
0 4 16 16.22 0.37
0 4 17 0.75 0.23
0 4 18 2.09 0.13
0 4 19 3.35 0.31
0 4 20 3.58 0.28
0 5 2 7.14 0.18
0 5 3 1.18 0.12
0 5 4 23.89 0.5
0 5 5 3.21 0.13
0 5 6 71.37 3.29
0 5 8 5.99 0.16
0 5 11 3.77 0.15
0 5 12 8.17 0.23
0 5 13 0.98 0.08
0 5 14 13.77 0.31
0 5 15 1.55 0.1
0 5 16 23.13 0.61
0 5 18 0.95 0.18
0 6 0 16.51 0.41
0 6 1 5.24 0.25
0 6 2 9.08 0.23
0 6 3 4.02 0.2
0 6 4 0.81 0.1
0 6 5 27.42 0.6
0 6 8 0.93 0.09
0 6 9 0.51 0.08
0 6 10 11.29 0.53
0 6 11 1.14 0.1
0 6 12 4.85 0.28
0 6 13 4.55 0.17
0 6 15 1.75 0.19
0 7 1 7.84 0.3
0 7 3 0.6 0.15
0 7 5 0.77 0.16
0 7 8 0.91 0.17
0 7 9 6.33 0.3
0 7 10 1.6 0.2
0 7 11 0.78 0.16
1 0 2 10.92 0.3
1 0 6 229.5 5.3
1 0 8 72.12 1.7
1 0 10 694.43 15.66
1 0 12 5.96 0.14
1 0 14 86.03 1.92
1 0 16 12.54 0.29
1 0 18 87.6 2.08
1 0 20 90.94 2.08
1 0 22 4.09 0.15
1 0 24 1.12 0.09
1 1 0 1425.34 31.16
1 1 1 39.34 0.86
1 1 2 445.18 17.8
1 1 3 745.98 16.75
1 1 4 68.47 1.53
1 1 5 117.3 2.66
1 1 6 216.94 4.93
1 1 7 18.78 0.44
1 1 8 93.47 2.12
1 1 9 192.33 4.38
1 1 10 73.77 1.64
1 1 12 1.97 0.06
1 1 13 6.75 0.16
1 1 14 126.76 2.78
1 1 15 4.26 0.11
1 1 16 23.22 0.51
1 1 17 3.61 0.09
1 1 18 4.1 0.1
1 1 19 11.74 0.27
1 1 20 5.19 0.13
1 1 21 9.9 0.23
1 1 22 2.95 0.09
1 1 23 8.27 0.2
1 1 24 13.73 0.3
1 2 0 324.98 7.34
1 2 1 271.51 6.13
1 2 2 0.12 0.02
1 2 3 361.27 8.1
1 2 4 19.89 0.46
1 2 5 91.76 2.06
1 2 6 162.99 3.7
1 2 7 82.19 1.83
1 2 8 5.72 0.16
1 2 9 7.28 0.17
1 2 10 4.55 0.13
1 2 11 8.64 0.2
1 2 12 14.52 0.32
1 2 13 27.18 0.6
1 2 14 6.59 0.17
1 2 15 0.87 0.04
1 2 16 5.49 0.14
1 2 17 4.09 0.11
1 2 18 0.16 0.04
1 2 19 5.88 0.17
1 2 20 0.52 0.05
1 2 21 2.25 0.11
1 2 22 10.95 0.26
1 2 23 0.51 0.07
1 2 24 9.47 0.32
1 3 0 18.9 0.51
1 3 1 30.36 0.74
1 3 2 45.88 1
1 3 4 7.79 0.21
1 3 5 21.17 0.55
1 3 6 43.46 0.97
1 3 7 18.93 0.42
1 3 8 25 0.54
1 3 9 9.84 0.23
1 3 10 0.7 0.04
1 3 11 14.94 0.37
1 3 12 33.96 0.74
1 3 13 28.66 0.59
1 3 14 14.83 0.33
1 3 15 0.91 0.06
1 3 16 0.23 0.05
1 3 17 1.54 0.08
1 3 18 35.98 0.93
1 3 19 14.3 0.33
1 3 20 0.24 0.06
1 3 21 1.15 0.08
1 4 0 17.66 0.38
1 4 1 0.65 0.05
1 4 2 55.8 1.03
1 4 3 14.56 0.36
1 4 4 2.96 0.1
1 4 5 52.01 1.07
1 4 6 8.04 0.19
1 4 7 1.26 0.07
1 4 8 58.54 1.43
1 4 9 11.9 0.36
1 4 11 1.38 0.07
1 4 12 1.53 0.07
1 4 13 7.77 0.23
1 4 14 1.67 0.09
1 4 15 18.31 0.4
1 4 16 12.36 0.45
1 4 17 3.83 0.43
1 4 18 0.66 0.1
1 4 19 4.07 0.27
1 4 20 2.42 0.25
1 5 0 4.16 0.11
1 5 2 12.06 0.27
1 5 3 0.64 0.06
1 5 4 89.2 1.82
1 5 5 4.1 0.15
1 5 6 0.16 0.05
1 5 7 1.06 0.11
1 5 8 7.96 0.2
1 5 9 0.75 0.08
1 5 10 2.28 0.12
1 5 11 0.84 0.2
1 5 12 20.76 0.43
1 5 13 0.38 0.07
1 5 14 18.68 0.42
1 5 16 6.37 0.19
1 6 0 5.83 0.28
1 6 1 5.66 0.27
1 6 2 2.59 0.12
1 6 3 0.57 0.18
1 6 4 4.89 0.55
1 6 5 10.92 0.41
1 6 6 3.77 0.15
1 6 7 0.26 0.07
1 6 8 11.94 0.61
1 6 9 11.3 0.28
1 6 10 6.42 0.35
1 6 13 2.27 0.22
1 6 14 0.52 0.14
1 6 15 11.12 0.35
1 7 0 1.69 0.19
1 7 1 1.6 0.19
1 7 2 0.44 0.14
1 7 4 1.48 0.2
1 7 5 3.27 0.21
1 7 9 4.29 0.26
1 7 11 2.15 0.2
2 0 0 25.77 0.42
2 0 4 8.27 0.2
2 0 6 4 0.13
2 0 8 103.71 2.39
2 0 10 34.48 0.76
2 0 12 77.24 1.68
2 0 14 99.25 2.16
2 0 16 35.98 0.8
2 0 18 5.25 0.17
2 0 20 19.6 0.44
2 0 22 14.95 0.38
2 0 24 34.28 0.66
2 1 0 295.05 6.86
2 1 1 68.25 1.52
2 1 2 2.7 0.07
2 1 3 481.87 10.84
2 1 4 9.33 0.23
2 1 5 20.54 0.47
2 1 6 424.38 9.54
2 1 7 30.44 0.69
2 1 8 47.73 1.07
2 1 9 177.64 3.99
2 1 10 42.5 0.94
2 1 11 1.71 0.05
2 1 12 24.15 0.54
2 1 13 119.24 2.65
2 1 14 3.09 0.08
2 1 15 5.31 0.13
2 1 16 0.4 0.03
2 1 17 4.44 0.11
2 1 18 21.49 0.48
2 1 19 33.93 0.75
2 1 20 25.11 0.57
2 1 21 9.29 0.24
2 1 22 0.62 0.04
2 1 23 6.87 0.17
2 1 24 8.51 0.23
2 2 0 516.35 11.57
2 2 1 1.71 0.07
2 2 2 3.11 0.09
2 2 3 17.34 0.4
2 2 4 1.26 0.06
2 2 5 152.84 3.46
2 2 6 10.31 0.26
2 2 7 56.48 1.27
2 2 8 56.17 1.24
2 2 9 78 1.75
2 2 10 75.08 1.68
2 2 11 31.75 0.71
2 2 12 0.46 0.03
2 2 13 35.86 0.79
2 2 14 1.67 0.05
2 2 15 12.65 0.28
2 2 16 12.77 0.29
2 2 17 46.41 1.04
2 2 18 2.19 0.08
2 2 20 2.05 0.09
2 2 22 3.03 0.1
2 2 23 11.38 0.26
2 3 0 12.19 0.6
2 3 1 29 0.65
2 3 2 87.58 1.92
2 3 3 4.41 0.14
2 3 4 211.95 4.7
2 3 5 7.6 0.18
2 3 6 2.41 0.07
2 3 7 29.12 0.67
2 3 8 1.71 0.06
2 3 9 1.43 0.06
2 3 10 2.36 0.11
2 3 11 0.2 0.03
2 3 12 3.78 0.1
2 3 13 0.11 0.03
2 3 14 8.35 0.2
2 3 15 4.98 0.13
2 3 16 3.79 0.13
2 3 17 0.24 0.04
2 3 18 1.58 0.07
2 3 19 0.27 0.05
2 3 20 0.28 0.06
2 3 21 1.62 0.09
2 3 22 4.72 0.2
2 4 0 12.47 0.29
2 4 2 2.03 0.08
2 4 3 54.49 1.16
2 4 4 52.81 1.26
2 4 5 18.19 0.41
2 4 6 3.35 0.11
2 4 7 18.05 0.4
2 4 8 5.08 0.13
2 4 9 6.82 0.19
2 4 10 1.66 0.07
2 4 11 0.27 0.04
2 4 12 33.75 0.8
2 4 13 11.22 0.27
2 4 14 7.56 0.26
2 4 15 5.39 0.18
2 4 17 6.38 0.2
2 4 18 10.38 0.49
2 4 19 3.63 0.26
2 5 0 10.94 0.25
2 5 1 3.61 0.11
2 5 2 1.64 0.13
2 5 3 1.24 0.07
2 5 4 2.94 0.11
2 5 5 1.18 0.07
2 5 6 1.94 0.09
2 5 7 0.26 0.05
2 5 8 69.75 1.7
2 5 9 5.51 0.18
2 5 10 3.62 0.17
2 5 11 0.34 0.07
2 5 12 0.83 0.09
2 5 13 1.53 0.11
2 5 14 17.4 1.14
2 5 15 1.24 0.18
2 6 0 0.81 0.07
2 6 1 0.45 0.06
2 6 2 6.83 0.27
2 6 3 12.7 0.29
2 6 4 6.75 0.2
2 6 5 0.22 0.06
2 6 6 0.24 0.07
2 6 7 5.24 0.17
2 6 8 0.75 0.07
2 6 9 0.62 0.09
2 6 11 3.11 0.14
2 6 12 7.1 0.31
2 6 13 0.56 0.15
2 6 14 3.89 0.24
2 7 0 0.94 0.15
2 7 1 1.88 0.2
2 7 3 2.04 0.21
2 7 4 3.92 0.25
2 7 6 1.94 0.21
2 7 7 2.93 0.23
3 0 0 320.79 7.27
3 0 2 194.73 4.55
3 0 4 21.03 0.7
3 0 6 592.3 13.32
3 0 8 10.4 0.26
3 0 10 1.14 0.05
3 0 12 280.5 6.22
3 0 14 3.73 0.1
3 0 16 10.93 0.26
3 0 18 10.47 0.25
3 0 20 35.93 0.75
3 0 22 34.18 0.73
3 0 24 1.95 0.23
3 1 0 111.15 2.47
3 1 1 422.31 11.45
3 1 2 454.63 10.21
3 1 3 41.84 0.93
3 1 4 11.52 0.29
3 1 5 5.29 0.15
3 1 6 4.99 0.14
3 1 7 29.24 0.67
3 1 8 38.15 0.87
3 1 9 1.47 0.05
3 1 10 84.81 1.88
3 1 11 13.48 0.3
3 1 12 11.03 0.25
3 1 13 36.19 0.8
3 1 14 0.68 0.03
3 1 15 2.97 0.08
3 1 16 58.86 1.31
3 1 17 1.38 0.06
3 1 18 2.85 0.1
3 1 19 7.72 0.19
3 1 20 0.45 0.04
3 1 21 4.3 0.11
3 1 22 0.9 0.06
3 1 23 22.27 0.49
3 2 0 1.9 0.07
3 2 1 7.75 0.2
3 2 2 276.95 6.29
3 2 3 101.86 2.31
3 2 4 91.49 2.03
3 2 5 61.02 1.42
3 2 6 44.51 1.06
3 2 7 3.73 0.1
3 2 8 102.33 2.47
3 2 9 2.24 0.06
3 2 10 11.18 0.25
3 2 11 9.25 0.21
3 2 12 21.46 0.48
3 2 13 2.93 0.08
3 2 14 7.82 0.19
3 2 15 1.2 0.06
3 2 16 1.91 0.07
3 2 17 7.02 0.17
3 2 18 20.79 0.5
3 2 19 14.42 0.33
3 2 20 6.34 0.17
3 2 21 5.27 0.15
3 2 22 1.7 0.09
3 2 23 0.92 0.19
3 3 0 71.9 1.5
3 3 1 2.05 0.08
3 3 2 20.65 0.48
3 3 3 96.5 2.09
3 3 4 105.1 2.27
3 3 5 0.13 0.03
3 3 6 20.16 0.44
3 3 7 2.11 0.08
3 3 8 113.63 2.58
3 3 9 35.54 0.78
3 3 10 0.22 0.03
3 3 11 15.73 0.35
3 3 12 32.04 0.71
3 3 13 11.85 0.27
3 3 14 48.55 1.04
3 3 15 4.58 0.12
3 3 16 8.16 0.2
3 3 17 7.04 0.17
3 3 18 2.17 0.08
3 3 19 0.72 0.06
3 3 20 0.51 0.06
3 3 21 3.69 0.12
3 3 22 6.01 0.28
3 4 0 6.05 0.17
3 4 1 0.28 0.04
3 4 2 2.13 0.09
3 4 3 17.85 0.47
3 4 4 37.14 1.19
3 4 5 0.23 0.04
3 4 6 0.3 0.04
3 4 7 54.64 1.24
3 4 8 20.23 0.43
3 4 9 9.61 0.23
3 4 10 10.58 0.26
3 4 12 1.72 0.09
3 4 13 12.76 0.3
3 4 14 3.03 0.12
3 4 16 2.29 0.11
3 4 17 15.62 0.34
3 4 18 9 0.35
3 5 0 16.08 0.36
3 5 1 8.57 0.26
3 5 2 2.96 0.13
3 5 5 1.79 0.08
3 5 6 14.5 0.33
3 5 7 4.54 0.14
3 5 8 1.54 0.09
3 5 9 0.39 0.06
3 5 12 1.48 0.11
3 5 13 0.34 0.08
3 5 14 1.46 0.19
3 6 0 0.38 0.1
3 6 1 0.75 0.07
3 6 2 1.15 0.07
3 6 3 0.89 0.09
3 6 4 1.07 0.11
3 6 5 3.08 0.16
3 6 6 0.78 0.07
3 6 7 14.05 0.38
3 6 8 0.2 0.06
3 6 9 0.96 0.1
3 6 10 2.07 0.12
3 6 11 2.19 0.22
3 6 12 2.61 0.22
3 6 13 3.52 0.23
3 7 0 1.11 0.18
3 7 2 3.4 0.23
3 7 3 4.12 0.25
3 7 4 0.65 0.16
3 7 6 0.56 0.15
3 7 8 1.01 0.17
3 7 9 1.93 0.2
3 7 10 1.36 0.18
4 0 0 45.59 1.14
4 0 4 38.81 0.92
4 0 6 12.69 0.32
4 0 8 1.02 0.05
4 0 10 4.38 0.11
4 0 12 2.92 0.08
4 0 16 49.21 1.1
4 0 18 0.17 0.05
4 0 22 29.86 0.73
4 1 0 2.38 0.08
4 1 1 154.05 3.49
4 1 2 186.14 4.29
4 1 3 210.7 4.99
4 1 4 2.99 0.1
4 1 5 87.84 2.2
4 1 6 39.9 0.9
4 1 7 8.38 0.2
4 1 8 28.01 0.64
4 1 9 20.64 0.47
4 1 10 0.24 0.02
4 1 11 128.42 2.84
4 1 12 11.58 0.26
4 1 13 6.17 0.14
4 1 14 2.43 0.07
4 1 15 9.48 0.22
4 1 16 3.22 0.09
4 1 17 8.73 0.21
4 1 18 0.44 0.04
4 1 19 1.38 0.06
4 1 20 17.36 0.42
4 1 21 13.76 0.34
4 1 22 4.61 0.18
4 2 0 118.84 2.7
4 2 1 74.24 1.63
4 2 2 294.83 6.72
4 2 3 54.8 1.21
4 2 4 14.94 0.42
4 2 5 0.56 0.04
4 2 6 6.92 0.17
4 2 7 149.86 3.29
4 2 8 0.68 0.03
4 2 9 14.23 0.32
4 2 10 40.67 0.89
4 2 11 1.17 0.05
4 2 12 101.33 2.18
4 2 13 27.25 0.6
4 2 14 10.68 0.25
4 2 15 26.41 0.57
4 2 16 2.22 0.09
4 2 17 5.06 0.14
4 2 18 5.34 0.14
4 2 19 2.72 0.1
4 2 20 2.99 0.18
4 2 21 2.15 0.1
4 2 22 13.28 0.42
4 3 0 5.56 0.13
4 3 1 36.42 0.79
4 3 2 1.02 0.05
4 3 3 1.31 0.05
4 3 4 47.77 1.04
4 3 5 3.64 0.12
4 3 6 103.81 2.3
4 3 7 0.33 0.03
4 3 8 53.57 1.2
4 3 9 6.14 0.15
4 3 10 9.79 0.29
4 3 11 0.29 0.07
4 3 13 12.9 0.29
4 3 16 22.86 0.51
4 3 17 2.81 0.1
4 3 18 31.74 0.69
4 3 19 2.42 0.11
4 3 21 3.54 0.25
4 4 0 63.94 1.6
4 4 1 0.47 0.04
4 4 2 0.61 0.05
4 4 3 2.65 0.1
4 4 4 1.46 0.06
4 4 5 19.8 0.44
4 4 6 13.43 0.3
4 4 7 39.16 0.85
4 4 8 20.6 0.54
4 4 9 0.96 0.07
4 4 10 1.35 0.07
4 4 11 0.44 0.05
4 4 12 0.22 0.05
4 4 13 0.54 0.07
4 4 14 20.29 0.42
4 4 15 4.94 0.17
4 4 17 18.13 0.46
4 5 0 0.15 0.04
4 5 1 1.8 0.08
4 5 2 0.8 0.07
4 5 3 2.94 0.14
4 5 4 22.32 0.46
4 5 5 2 0.14
4 5 6 9.72 0.24
4 5 7 0.17 0.05
4 5 8 2.12 0.09
4 5 10 14.01 0.4
4 5 11 7.25 0.2
4 5 12 1.84 0.1
4 6 0 0.96 0.07
4 6 1 3.62 0.12
4 6 2 0.51 0.06
4 6 3 0.72 0.07
4 6 4 0.17 0.05
4 6 5 2.65 0.1
4 6 7 0.79 0.09
4 6 8 1.98 0.11
4 6 9 1.69 0.12
4 7 1 4.6 0.31
4 7 2 0.88 0.15
4 7 5 0.95 0.16
4 7 6 6.01 0.28
4 7 8 3.45 0.23
5 0 0 63.36 1.42
5 0 2 677.12 15.14
5 0 4 11.52 0.28
5 0 6 6.37 0.16
5 0 8 146.61 3.15
5 0 10 72.54 1.56
5 0 12 17.31 0.38
5 0 14 15.4 0.34
5 0 16 15.69 0.38
5 0 18 1.85 0.1
5 0 20 1.95 0.14
5 0 22 0.68 0.19
5 1 0 0.43 0.04
5 1 1 108.3 2.41
5 1 2 57.42 1.28
5 1 3 1.71 0.09
5 1 4 38.3 0.98
5 1 5 0.96 0.13
5 1 6 79.35 1.8
5 1 7 4.99 0.12
5 1 8 1.43 0.04
5 1 9 1.89 0.06
5 1 10 0.76 0.03
5 1 11 29.23 0.64
5 1 12 55.44 1.21
5 1 13 16.76 0.39
5 1 14 0.26 0.03
5 1 15 18.01 0.4
5 1 18 5.64 0.15
5 1 19 0.78 0.06
5 1 20 1.36 0.08
5 1 21 24.19 0.55
5 2 0 23.87 0.56
5 2 1 24.9 0.56
5 2 2 3.26 0.09
5 2 3 23.5 0.55
5 2 4 59.43 1.3
5 2 5 14.5 0.36
5 2 6 47.63 1.04
5 2 7 4.19 0.11
5 2 8 13.71 0.31
5 2 9 10.45 0.24
5 2 10 39.45 0.88
5 2 11 10.49 0.24
5 2 12 21.16 0.47
5 2 14 6.01 0.15
5 2 16 11.26 0.26
5 2 17 24.88 0.59
5 2 18 2.75 0.12
5 2 19 2.84 0.14
5 2 20 17.36 0.36
5 2 21 2.6 0.33
5 3 0 118.33 2.57
5 3 1 25.43 0.56
5 3 2 5.31 0.14
5 3 3 4.3 0.11
5 3 4 3.73 0.11
5 3 5 40.09 0.88
5 3 6 88.15 1.87
5 3 7 4.34 0.12
5 3 8 3.3 0.1
5 3 9 0.22 0.04
5 3 10 36.39 0.73
5 3 11 20.74 0.57
5 3 12 0.56 0.07
5 3 13 4.28 0.16
5 3 14 29.11 0.7
5 3 15 0.84 0.07
5 3 16 32.14 0.66
5 3 19 4.1 0.16
5 4 0 8.64 0.36
5 4 1 4.66 0.15
5 4 2 0.14 0.05
5 4 3 1.32 0.07
5 4 4 25.12 0.67
5 4 5 18.09 0.42
5 4 6 8.26 0.2
5 4 7 18.28 0.42
5 4 9 7.16 0.2
5 4 10 15.59 0.35
5 4 11 2.62 0.1
5 4 12 0.54 0.06
5 4 14 2.27 0.11
5 4 15 11.96 0.28
5 4 16 1.35 0.2
5 4 17 4.87 0.26
5 5 0 4.89 0.28
5 5 2 4.82 0.26
5 5 3 1.1 0.08
5 5 4 3.41 0.12
5 5 5 0.34 0.06
5 5 6 6.41 0.2
5 5 7 1.12 0.07
5 5 8 7.14 0.23
5 5 9 0.41 0.07
5 5 14 2.61 0.21
5 5 15 0.77 0.15
5 6 0 6.62 0.4
5 6 1 4.13 0.14
5 6 2 3.87 0.13
5 6 3 1.86 0.14
5 6 4 1.53 0.08
5 6 5 7.17 0.18
5 6 6 2.8 0.13
5 6 7 11.32 0.27
5 6 8 0.69 0.13
5 6 9 2.09 0.12
5 6 12 0.52 0.14
5 7 0 1.54 0.11
5 7 1 7.25 0.19
5 7 2 1.37 0.2
5 7 3 1.75 0.19
5 7 4 1.23 0.18
5 7 5 0.66 0.15
6 0 0 235.37 5.35
6 0 2 29.82 0.66
6 0 4 1.5 0.12
6 0 6 47.51 0.96
6 0 8 15.49 0.35
6 0 10 33.63 0.7
6 0 12 94.16 2
6 0 14 4.22 0.14
6 0 16 2.09 0.11
6 0 18 12.01 0.29
6 0 20 22.49 0.45
6 1 0 0.62 0.05
6 1 1 180.35 4.08
6 1 2 58.55 1.5
6 1 3 20.83 0.48
6 1 4 52.17 1.3
6 1 5 58.46 1.27
6 1 6 20.11 0.53
6 1 7 11.58 0.27
6 1 8 41.82 0.91
6 1 9 34.41 0.77
6 1 10 0.34 0.04
6 1 11 31.74 0.69
6 1 12 0.67 0.05
6 1 13 13.86 0.31
6 1 15 1.88 0.08
6 1 16 26.35 0.55
6 1 17 0.37 0.05
6 1 18 3.05 0.15
6 1 19 5.79 0.16
6 2 1 9.26 0.22
6 2 2 0.1 0.02
6 2 3 12.91 0.31
6 2 4 46.04 0.99
6 2 5 94.88 2.31
6 2 6 2.18 0.09
6 2 7 1.06 0.06
6 2 8 5.14 0.14
6 2 9 33.33 0.69
6 2 10 1.48 0.08
6 2 11 5.62 0.16
6 2 12 3.27 0.12
6 2 13 7.02 0.2
6 2 14 33.81 0.71
6 2 15 15.1 0.34
6 2 16 7.63 0.2
6 2 17 1.34 0.07
6 2 18 0.7 0.08
6 2 20 2.54 0.26
6 3 2 0.72 0.06
6 3 3 0.71 0.05
6 3 4 0.28 0.04
6 3 5 0.15 0.04
6 3 6 0.22 0.04
6 3 7 4.96 0.14
6 3 8 5.82 0.15
6 3 9 3.74 0.13
6 3 10 32.47 0.7
6 3 11 1.63 0.08
6 3 12 1.28 0.09
6 3 13 0.57 0.07
6 3 15 12.06 0.3
6 3 16 5.65 0.19
6 3 17 0.57 0.17
6 3 18 8.73 0.5
6 4 0 16.15 0.44
6 4 2 25.3 0.59
6 4 3 0.3 0.05
6 4 4 5.94 0.2
6 4 5 13.93 0.31
6 4 6 0.82 0.05
6 4 7 1.87 0.09
6 4 9 7.56 0.19
6 4 10 18.13 0.39
6 4 11 1.65 0.08
6 4 12 0.3 0.06
6 4 14 2.9 0.14
6 4 15 4.77 0.16
6 4 16 3.72 0.15
6 5 0 25.68 1.11
6 5 1 3.92 0.14
6 5 2 0.27 0.06
6 5 3 0.64 0.07
6 5 4 14.27 0.32
6 5 6 43.09 1.15
6 5 7 2.9 0.21
6 5 8 0.54 0.09
6 5 9 1.38 0.09
6 5 10 0.42 0.07
6 5 12 0.55 0.08
6 5 13 1.59 0.19
6 6 0 11.09 0.29
6 6 1 2.05 0.09
6 6 2 4.64 0.27
6 6 3 5.15 0.16
6 6 4 0.26 0.06
6 6 5 1.13 0.08
6 6 7 1.81 0.12
6 6 8 0.84 0.09
6 6 9 0.52 0.08
6 6 10 6.68 0.28
6 7 0 1.54 0.1
6 7 1 0.46 0.14
7 0 0 108.86 3.57
7 0 2 35.28 1.29
7 0 4 262.4 11.59
7 0 6 1.12 0.07
7 0 8 44.01 0.87
7 0 10 59.45 1.29
7 0 12 17.7 0.41
7 0 14 12.2 0.37
7 0 16 8.19 0.23
7 0 18 16.54 0.35
7 1 0 80.82 1.85
7 1 1 1.05 0.06
7 1 2 0.23 0.03
7 1 3 7.28 0.18
7 1 4 34.19 0.75
7 1 5 38.91 1.05
7 1 6 0.93 0.06
7 1 7 1.43 0.07
7 1 8 46.48 0.95
7 1 10 3.25 0.12
7 1 11 16.52 0.36
7 1 12 15.14 0.37
7 1 13 15.24 0.36
7 1 14 23.57 0.55
7 1 15 22.26 0.47
7 1 17 3.51 0.14
7 1 18 0.3 0.08
7 1 19 4.28 0.16
7 2 0 34.1 0.78
7 2 1 10.44 0.24
7 2 2 6.11 0.16
7 2 3 4.54 0.12
7 2 4 0.54 0.04
7 2 5 0.71 0.05
7 2 6 5.66 0.15
7 2 7 3.16 0.1
7 2 8 6.81 0.17
7 2 9 20.63 0.44
7 2 10 0.78 0.07
7 2 11 10.01 0.25
7 2 12 0.3 0.07
7 2 13 4.2 0.18
7 2 14 6.54 0.2
7 2 15 11.41 0.27
7 2 16 1 0.11
7 2 18 3.68 0.15
7 3 0 0.56 0.04
7 3 1 27.28 0.58
7 3 2 22.02 0.51
7 3 3 14.74 0.35
7 3 4 14.05 0.31
7 3 5 0.99 0.06
7 3 6 6.58 0.17
7 3 7 3.33 0.11
7 3 8 11.62 0.27
7 3 9 9.64 0.28
7 3 10 1.86 0.09
7 3 12 3.51 0.16
7 3 13 1.48 0.1
7 3 14 0.29 0.07
7 3 16 1.92 0.13
7 4 0 9.51 0.22
7 4 1 1.45 0.1
7 4 2 1.64 0.08
7 4 3 1.11 0.08
7 4 4 2.35 0.11
7 4 5 20.14 0.49
7 4 6 29.34 0.64
7 4 9 9.89 0.24
7 4 10 0.32 0.06
7 4 12 4.73 0.17
7 4 13 0.35 0.1
7 4 14 6.62 0.22
7 4 15 3.33 0.16
7 5 0 12.87 0.3
7 5 2 11.92 0.28
7 5 3 1.36 0.09
7 5 4 2.51 0.11
7 5 6 0.99 0.08
7 5 8 3.44 0.13
7 5 10 19.3 0.42
7 5 11 1.41 0.2
7 5 12 1.17 0.18
7 6 0 0.79 0.07
7 6 2 2.12 0.11
7 6 4 3.57 0.21
7 6 5 3.5 0.14
7 6 6 3 0.14
7 6 7 3.39 0.14
7 6 8 2.99 0.22
8 0 0 27.83 0.54
8 0 2 14.74 0.46
8 0 4 64.25 1.4
8 0 6 4.36 0.14
8 0 8 29.14 0.62
8 0 10 0.87 0.09
8 0 12 24.99 0.49
8 0 14 82.94 1.96
8 0 16 1.1 0.1
8 1 1 0.41 0.03
8 1 2 2.05 0.07
8 1 3 83.69 1.96
8 1 4 32.3 0.77
8 1 6 4.04 0.12
8 1 7 0.34 0.04
8 1 8 19.51 0.42
8 1 9 9.44 0.23
8 1 10 18.11 0.39
8 1 11 6.11 0.19
8 1 12 4.34 0.2
8 1 13 11.04 0.27
8 1 15 1.55 0.13
8 1 16 0.57 0.11
8 2 0 40.71 0.95
8 2 1 21.12 0.51
8 2 3 4.9 0.16
8 2 4 14.19 0.32
8 2 5 7.21 0.19
8 2 7 34.65 0.82
8 2 8 4 0.12
8 2 9 0.15 0.05
8 2 10 14.98 0.34
8 2 13 3.91 0.21
8 2 14 0.32 0.09
8 2 15 2.82 0.28
8 2 16 1.93 0.13
8 3 0 17.03 0.42
8 3 1 0.19 0.04
8 3 2 9.23 0.23
8 3 3 0.57 0.05
8 3 4 10.59 0.25
8 3 5 17.4 0.47
8 3 6 13.72 0.42
8 3 8 3.66 0.12
8 3 10 2.61 0.12
8 3 11 5.48 0.17
8 3 12 3.27 0.13
8 3 13 6.24 0.2
8 3 14 5.71 0.18
8 3 15 1.37 0.16
8 4 1 2.27 0.09
8 4 2 13.15 0.32
8 4 3 2.38 0.15
8 4 4 2.23 0.09
8 4 5 2.68 0.11
8 4 6 3.44 0.11
8 4 7 4.17 0.12
8 4 9 11.86 0.28
8 4 10 5.73 0.22
8 4 12 5.45 0.17
8 4 13 0.31 0.09
8 5 0 0.95 0.08
8 5 1 0.22 0.06
8 5 2 6.07 0.17
8 5 3 3.47 0.13
8 5 4 0.83 0.08
8 5 6 6.66 0.19
8 5 7 2.4 0.23
8 5 8 19.29 0.69
8 5 9 2.82 0.13
8 5 10 0.79 0.14
8 6 1 0.45 0.08
8 6 2 4.46 0.35
8 6 3 1.21 0.1
8 6 4 2.53 0.15
9 0 0 18.29 0.82
9 0 2 45.91 1.64
9 0 4 4.55 0.24
9 0 6 26.67 0.52
9 0 10 13.87 0.42
9 0 12 8.48 0.33
9 1 0 32.77 0.69
9 1 1 0.2 0.04
9 1 2 4.61 0.14
9 1 3 25.69 0.53
9 1 4 2.46 0.12
9 1 5 6.01 0.18
9 1 6 7.39 0.28
9 1 7 12.58 0.29
9 1 8 1.67 0.08
9 1 9 1.95 0.09
9 1 10 8.83 0.23
9 1 12 1.05 0.09
9 1 13 27.14 0.51
9 1 14 9.03 0.26
9 1 15 1.14 0.1
9 2 0 1.71 0.09
9 2 1 3.63 0.12
9 2 2 35.13 0.81
9 2 3 4.92 0.17
9 2 4 34.7 0.77
9 2 5 3.21 0.13
9 2 6 3.07 0.11
9 2 7 1.73 0.09
9 2 8 2.12 0.09
9 2 9 14.61 0.35
9 2 10 2.03 0.11
9 2 11 8.77 0.23
9 2 12 6.25 0.24
9 2 14 7.25 0.2
9 3 0 2.23 0.12
9 3 1 6.3 0.16
9 3 2 2.49 0.11
9 3 3 14.63 0.36
9 3 4 6.44 0.31
9 3 5 1.24 0.09
9 3 6 16.11 0.38
9 3 7 0.33 0.06
9 3 8 15.47 0.34
9 3 10 2.82 0.23
9 3 11 3.77 0.15
9 3 12 4.43 0.32
9 4 1 2.4 0.12
9 4 2 12.12 0.29
9 4 5 0.29 0.06
9 4 6 4.81 0.14
9 4 7 17.84 0.39
9 4 8 11.8 0.27
9 4 9 5.11 0.17
9 4 10 1.06 0.1
9 5 1 0.77 0.09
9 5 2 3.91 0.13
9 5 3 1.37 0.09
9 5 4 1.14 0.18
9 5 5 0.96 0.17
10 0 0 8.06 0.46
10 0 2 2.94 0.13
10 0 4 13.83 0.44
10 0 6 16.42 0.35
10 0 8 1.01 0.1
10 1 0 9.51 0.23
10 1 1 31.53 0.66
10 1 3 8.12 0.21
10 1 4 9.31 0.24
10 1 5 3.44 0.13
10 1 6 7.47 0.21
10 1 8 1.27 0.11
10 1 9 1.12 0.11
10 1 10 5.09 0.29
10 1 11 3.47 0.26
10 1 12 0.52 0.17
10 1 13 1.66 0.23
10 2 0 9.12 0.25
10 2 1 1.58 0.09
10 2 2 27.64 1.02
10 2 3 7.48 0.35
10 2 4 1.41 0.19
10 2 5 9.65 0.25
10 2 6 7.2 0.21
10 2 7 3.6 0.12
10 2 8 3.01 0.11
10 2 9 0.43 0.09
10 2 10 6.12 0.3
10 2 11 1.25 0.11
10 2 12 15.74 0.45
10 3 0 0.76 0.06
10 3 1 1.14 0.08
10 3 2 18.09 0.43
10 3 3 3.81 0.13
10 3 4 3.29 0.12
10 3 5 0.22 0.06
10 3 6 13.26 0.3
10 3 7 11.49 0.28
10 3 8 24.09 0.46
10 3 9 0.35 0.1
10 3 10 0.97 0.16
10 3 11 0.93 0.2
10 4 0 2.4 0.11
10 4 1 4.92 0.15
10 4 3 1.43 0.09
10 4 4 3.25 0.15
10 4 5 1.15 0.11
10 4 6 0.8 0.13
10 4 7 6.5 0.19
10 5 0 1.67 0.2
10 5 1 2.48 0.12
11 0 0 32.82 1.03
11 0 2 23.87 0.5
11 0 6 2.21 0.2
11 1 1 3.95 0.12
11 1 2 7.73 0.2
11 1 3 10.9 0.26
11 1 4 1.7 0.1
11 1 5 12.54 0.29
11 1 6 3.63 0.14
11 1 7 4.45 0.16
11 1 9 1.41 0.23
11 1 10 5.33 0.29
11 2 1 11.74 0.27
11 2 3 0.8 0.09
11 2 4 6.82 0.23
11 2 6 18.42 0.9
11 2 7 16.36 0.47
11 2 8 2.82 0.25
11 2 9 0.7 0.19
11 3 0 18.63 0.4
11 3 1 2.07 0.17
11 3 2 1.22 0.18
11 3 3 1.46 0.12
11 3 4 3.07 0.14
11 3 5 0.83 0.2
11 3 6 2.02 0.23
11 4 0 1.19 0.18
11 4 1 3.43 0.22
11 4 2 3.14 0.14
11 4 4 5.76 0.29
12 0 0 1.51 0.09
12 0 2 19.61 0.51
12 0 4 7.61 0.31
12 1 0 8.37 0.22
12 1 1 3.17 0.12
12 1 2 7.94 0.2
12 1 3 3.25 0.14
12 1 4 0.4 0.08
12 1 5 3.47 0.25
12 1 6 12.28 0.38
12 1 7 2.69 0.24
12 2 0 0.68 0.08
12 2 3 2 0.23
12 2 4 3.85 0.27
12 2 5 2.47 0.25
12 2 6 0.97 0.2
12 3 3 2.45 0.25
13 1 0 1.3 0.1
13 1 1 2.14 0.17
13 2 0 0.91 0.19
13 2 1 2.78 0.25
