#------------------------------------------------------------------------------
#$Date: 2022-07-07 00:12:04 +0300 (Thu, 07 Jul 2022) $
#$Revision: 276692 $
#$URL: file:///home/coder/svn-repositories/cod/cif/2/02/26/2022632.cif $
#------------------------------------------------------------------------------
#
# This file is available in the Crystallography Open Database (COD),
# http://www.crystallography.net/. The original data for this entry
# were provided by IUCr Journals, http://journals.iucr.org/.
#
# The file may be used within the scientific community so long as
# proper attribution is given to the journal article from which the
# data were obtained.
#
data_2022632
loop_
_publ_author_name
'Zukerman-Schpector, Julio'
'Moro, Ang\'elica V.'
'dos Santos, Marcelo R.'
'Correia, Carlos Roque D.'
'Jotani, Mukesh M.'
'Tiekink, Edward R. T.'
_publ_section_title
;
 3-Hydroxy-2-phenyl-2,3,3a,7a-tetrahydro-1H,5H-pyrano[3,2-b]pyrrol-5-one:
 crystal structure and Hirshfeld surface analysis
;
_journal_coden_ASTM              ACSECI
_journal_coeditor_code           HG5487
_journal_issue                   5
_journal_name_full
;
 Acta Crystallographica, Section E: Crystallographic Communications
;
_journal_page_first              746
_journal_page_last               751
_journal_paper_doi               10.1107/S2056989017005680
_journal_volume                  73
_journal_year                    2017
_chemical_absolute_configuration syn
_chemical_formula_iupac          'C13 H13 N O3'
_chemical_formula_moiety         'C13 H13 N O3'
_chemical_formula_sum            'C13 H13 N O3'
_chemical_formula_weight         231.24
_chemical_name_systematic
3-Hydroxy-2-phenyl-2,3,3a,7a-tetrahydro-1<i>H</i>,5<i>H</i>-pyrano[3,2-<i>b</i>]pyrrol-5-one
_space_group_crystal_system      monoclinic
_space_group_IT_number           4
_space_group_name_Hall           'P 2yb'
_space_group_name_H-M_alt        'P 1 21 1'
_audit_creation_method           SHELXL-2014/7
_cell_angle_alpha                90
_cell_angle_beta                 92.779(3)
_cell_angle_gamma                90
_cell_formula_units_Z            2
_cell_length_a                   5.9638(2)
_cell_length_b                   8.4266(3)
_cell_length_c                   11.0246(4)
_cell_measurement_reflns_used    2450
_cell_measurement_temperature    100(2)
_cell_measurement_theta_max      27.31
_cell_measurement_theta_min      2.42
_cell_volume                     553.38(3)
_computing_cell_refinement
;
SAINT (Bruker, 2007)
;
_computing_data_collection
;
APEX2 (Bruker, 2007)
;
_computing_data_reduction
;
SAINT (Bruker, 2007)
;
_computing_molecular_graphics
;
ORTEP-3 for Windows (Farrugia, 2012), <i>QMol</i> (Gans & Shalloway,
2001) and
DIAMOND (Brandenburg, 2006)
;
_computing_publication_material
;
publCIF (Westrip, 2010)
;
_computing_structure_refinement
;
SHELXL2014 (Sheldrick, 2015)
;
_computing_structure_solution
;
SHELXS97 (Sheldrick, 2008)
;
_diffrn_ambient_temperature      100(2)
_diffrn_measured_fraction_theta_full 0.990
_diffrn_measured_fraction_theta_max 0.990
_diffrn_measurement_device_type  'Bruker SMART APEXII'
_diffrn_measurement_method       '\f and \w scans'
_diffrn_radiation_monochromator  graphite
_diffrn_radiation_source         'sealed tube'
_diffrn_radiation_type           MoK\a
_diffrn_radiation_wavelength     0.71073
_diffrn_reflns_av_R_equivalents  0.0166
_diffrn_reflns_av_unetI/netI     0.0240
_diffrn_reflns_Laue_measured_fraction_full 0.990
_diffrn_reflns_Laue_measured_fraction_max 0.990
_diffrn_reflns_limit_h_max       7
_diffrn_reflns_limit_h_min       -6
_diffrn_reflns_limit_k_max       10
_diffrn_reflns_limit_k_min       -10
_diffrn_reflns_limit_l_max       14
_diffrn_reflns_limit_l_min       -14
_diffrn_reflns_number            4550
_diffrn_reflns_point_group_measured_fraction_full 0.935
_diffrn_reflns_point_group_measured_fraction_max 0.935
_diffrn_reflns_theta_full        27.497
_diffrn_reflns_theta_max         27.497
_diffrn_reflns_theta_min         1.849
_diffrn_standards_decay_%        0
_diffrn_standards_number         0
_exptl_absorpt_coefficient_mu    0.099
_exptl_absorpt_correction_T_max  1.0000
_exptl_absorpt_correction_T_min  0.9142
_exptl_absorpt_correction_type   multi-scan
_exptl_absorpt_process_details
;
(SADABS; Sheldrick, 1996)
;
_exptl_crystal_colour            colourless
_exptl_crystal_density_diffrn    1.388
_exptl_crystal_description       block
_exptl_crystal_F_000             244
_exptl_crystal_size_max          0.400
_exptl_crystal_size_mid          0.400
_exptl_crystal_size_min          0.200
_refine_diff_density_max         0.142
_refine_diff_density_min         -0.189
_refine_diff_density_rms         0.041
_refine_ls_abs_structure_details
;
Flack <i>x</i> determined using 856 quotients
[(<i>I</i>^+^)-(<i>I</i>^-^)]/[(<i>I</i>^+^)+(<i>I</i>^-^)]
(Parsons <i>et al.</i>,  2013)
;
_refine_ls_abs_structure_Flack   0.7(5)
_refine_ls_extinction_coef       .
_refine_ls_extinction_method     none
_refine_ls_goodness_of_fit_ref   1.026
_refine_ls_hydrogen_treatment    noref
_refine_ls_matrix_type           full
_refine_ls_number_parameters     160
_refine_ls_number_reflns         2377
_refine_ls_number_restraints     3
_refine_ls_restrained_S_all      1.026
_refine_ls_R_factor_all          0.0407
_refine_ls_R_factor_gt           0.0358
_refine_ls_shift/su_max          0.000
_refine_ls_shift/su_mean         0.000
_refine_ls_structure_factor_coef Fsqd
_refine_ls_weighting_details
'w=1/[\s^2^(Fo^2^)+(0.0534P)^2^+0.0490P] where P=(Fo^2^+2Fc^2^)/3'
_refine_ls_weighting_scheme      calc
_refine_ls_wR_factor_gt          0.0900
_refine_ls_wR_factor_ref         0.0935
_reflns_Friedel_coverage         0.767
_reflns_Friedel_fraction_full    0.871
_reflns_Friedel_fraction_max     0.871
_reflns_number_gt                2149
_reflns_number_total             2377
_reflns_threshold_expression     'I > 2\s(I)'
_cod_data_source_file            hg5487sup1.cif
_cod_data_source_block           I
_cod_original_cell_volume        553.39(3)
_cod_original_sg_symbol_H-M      'P 21'
_cod_database_code               2022632
_publcif_datablock.id            {e66b8100-1fc5-4b0b-8e8f-abf450de8ca7}
_shelx_shelxl_version_number     2014/7
_iucr_geom_hbonds_special_details
;
Cg1 is the  centroid of the C8--C13 ring.
;
_shelx_space_group_comment
;
The symmetry employed for this shelxl refinement is uniquely defined
by the following loop, which should always be used as a source of
symmetry information in preference to the above space-group names.
They are only intended as comments.
;
_shelx_estimated_absorpt_t_min   0.961
_shelx_estimated_absorpt_t_max   0.980
_shelx_res_file
;

    shelx.res created by SHELXL-2014/7


TITL aza
CELL  0.71073   5.9638   8.4266  11.0246   90.000   92.779   90.000
ZERR     2.00   0.0002   0.0003   0.0004    0.000    0.003    0.000
LATT  -1
SYMM  - X, 1/2 + Y, - Z
SFAC  C    H    N    O
UNIT  26 26 2 6
MERG   2
OMIT    -3.00  55.00
DFIX   0.86 0.01 N1 H1n
DFIX   0.84 0.01 O3 H3o
FMAP   2
PLAN   -1
ACTA    55.00
BOND   $H
CONF
SIZE   0.20 0.40 0.40
TEMP  -173
L.S.  18
WGHT    0.053400    0.049000
FVAR       0.31456
O1    4    1.137237    0.122510    0.510753    11.00000    0.04791    0.12959 =
         0.05210   -0.01532   -0.01749    0.00002
O2    4    1.003816   -0.041301    0.373078    11.00000    0.04106    0.06932 =
         0.04373    0.00772   -0.01334    0.01044
O3    4    1.037000    0.126669    0.167413    11.00000    0.02863    0.06023 =
         0.05282    0.00293   -0.00348   -0.00709
H3O   2    1.170759    0.091341    0.175691    11.00000   -1.50000
N1    3    0.483940   -0.015551    0.183283    11.00000    0.03181    0.05022 =
         0.03739    0.00147   -0.00177   -0.00807
H1N   2    0.463305   -0.111308    0.155634    11.00000   -1.20000
C1    1    0.983802    0.088561    0.440962    11.00000    0.03780    0.08000 =
         0.03067    0.00344   -0.00439   -0.00394
C2    1    0.774895    0.180001    0.429220    11.00000    0.04339    0.07072 =
         0.03560   -0.00950    0.00216    0.00017
AFIX  43
H2    2    0.769233    0.281705    0.466125    11.00000   -1.20000
AFIX   0
C3    1    0.594695    0.125617    0.369100    11.00000    0.03330    0.06732 =
         0.03508   -0.00098    0.00374    0.00299
AFIX  43
H3    2    0.461171    0.187259    0.366372    11.00000   -1.20000
AFIX   0
C4    1    0.595202   -0.030195    0.305285    11.00000    0.03409    0.05459 =
         0.03829    0.00794   -0.00091   -0.00676
AFIX  13
H4    2    0.520247   -0.113315    0.353827    11.00000   -1.20000
AFIX   0
C5    1    0.834982   -0.079464    0.280174    11.00000    0.03983    0.04405 =
         0.04330    0.00467   -0.00835    0.00327
AFIX  13
H5    2    0.836148   -0.197115    0.268346    11.00000   -1.20000
AFIX   0
C6    1    0.884441   -0.000850    0.156787    11.00000    0.02780    0.04508 =
         0.03786   -0.00319   -0.00273    0.00381
AFIX  13
H6    2    0.938938   -0.082120    0.099040    11.00000   -1.20000
AFIX   0
C7    1    0.653828    0.063636    0.111231    11.00000    0.02581    0.03665 =
         0.03484    0.00027   -0.00099    0.00106
AFIX  13
H7    2    0.650987    0.178801    0.132991    11.00000   -1.20000
AFIX   0
C8    1    0.604614    0.053109   -0.024273    11.00000    0.03090    0.03543 =
         0.03631   -0.00005   -0.00246    0.00332
C9    1    0.398292    0.005899   -0.074241    11.00000    0.03224    0.05610 =
         0.04002   -0.00185   -0.00144   -0.00279
AFIX  43
H9    2    0.282446   -0.022718   -0.022243    11.00000   -1.20000
AFIX   0
C10   1    0.357637   -0.000371   -0.199179    11.00000    0.03906    0.06199 =
         0.04258   -0.00403   -0.00979   -0.00184
AFIX  43
H10   2    0.215251   -0.034171   -0.231882    11.00000   -1.20000
AFIX   0
C11   1    0.522676    0.042159   -0.275844    11.00000    0.05353    0.05817 =
         0.03633    0.00191   -0.00361    0.00330
AFIX  43
H11   2    0.494724    0.038411   -0.361366    11.00000   -1.20000
AFIX   0
C12   1    0.729621    0.090412   -0.227243    11.00000    0.04684    0.06628 =
         0.04101    0.00897    0.00393   -0.00554
AFIX  43
H12   2    0.844647    0.119672   -0.279566    11.00000   -1.20000
AFIX   0
C13   1    0.769733    0.096226   -0.102721    11.00000    0.03731    0.05603 =
         0.04335    0.00496   -0.00319   -0.00761
AFIX  43
H13   2    0.912247    0.130190   -0.070311    11.00000   -1.20000

AFIX   0
HKLF 4

REM  aza
REM R1 =  0.0358 for    2149 Fo > 4sig(Fo)  and  0.0407 for all    2377 data
REM    160 parameters refined using      3 restraints

END

WGHT      0.0460      0.0618

REM Highest difference peak  0.142,  deepest hole -0.189,  1-sigma level  0.041
Q1    1   1.1416  0.2312  0.4765  11.00000  0.05    0.14
;
_shelx_res_checksum              933
_shelx_hkl_file
;
   1   0   0    5.55    0.13
   1   0   0    5.54    0.11
  -1   0   0    5.68    0.13
  -1   0   0    5.58    0.11
   2   0   0   65.26    1.31
   2   0   0   63.70    1.21
   2   0   0   68.14    1.11
   3   0   0    1.51    0.06
   3   0   0    1.56    0.07
  -3   0   0    1.43    0.06
   4   0   0    0.04    0.04
   4   0   0    0.03    0.03
  -4   0   0   -0.01    0.02
   4   0   0   -0.01    0.03
   5   0   0   12.25    0.33
   6   0   0    0.51    0.08
   7   0   0    0.02    0.06
   1  -1   0  125.70    2.15
  -1  -1   0  128.13    2.12
   1   1   0  123.26    2.14
   2  -1   0   46.20    0.78
  -2  -1   0   45.64    0.79
   2  -1   0   45.87    0.86
  -2  -1   0   46.06    0.93
   2   1   0   45.06    0.79
   2   1   0   45.68    0.93
   2   1   0   46.36    0.93
   3  -1   0   10.47    0.25
   3  -1   0   10.65    0.21
  -3  -1   0   10.72    0.22
   3  -1   0   10.05    0.26
  -3  -1   0   10.53    0.25
   3   1   0   10.61    0.22
   3   1   0   10.23    0.25
   4  -1   0    3.12    0.13
  -4  -1   0    3.54    0.12
   4  -1   0    3.11    0.13
   4  -1   0    3.48    0.10
   4   1   0    3.59    0.11
   4   1   0    3.42    0.12
   4   1   0    3.37    0.14
   5  -1   0    1.21    0.10
   5   1   0    1.03    0.10
   6  -1   0    0.39    0.08
   6   1   0    0.31    0.07
   7  -1   0    2.38    0.16
   7   1   0    2.44    0.16
   0  -2   0 1000.00   18.86
   0  -2   0  968.66   19.38
  -1  -2   0   48.87    1.00
  -1  -2   0   49.39    0.85
   1  -2   0   48.83    0.84
   1  -2   0   50.09    1.00
   1   2   0   49.30    0.85
   2  -2   0   56.89    0.95
   2  -2   0   55.46    1.05
  -2  -2   0   56.54    0.97
  -2  -2   0   54.32    1.13
   2   2   0   56.26    1.14
   2   2   0   57.44    0.97
   3  -2   0    8.37    0.17
  -3  -2   0    9.06    0.20
  -3  -2   0    8.57    0.22
   3  -2   0    8.44    0.22
   3   2   0    8.55    0.19
   3   2   0    8.30    0.19
   3   2   0    8.51    0.22
  -4  -2   0    1.68    0.08
  -4  -2   0    1.61    0.08
   4  -2   0    1.49    0.10
   4   2   0    1.83    0.08
   4   2   0    1.53    0.08
   5  -2   0    2.41    0.14
   5   2   0    2.45    0.13
   5   2   0    2.64    0.11
   6  -2   0    1.63    0.12
   6   2   0    1.38    0.11
   7  -2   0   -0.03    0.05
   7   2   0    0.09    0.06
   0  -3   0    0.01    0.02
   0  -3   0   -0.03    0.02
  -1  -3   0    9.49    0.20
  -1  -3   0    9.50    0.23
   1  -3   0    9.68    0.19
   1  -3   0    9.37    0.24
   1   3   0    9.40    0.20
   2  -3   0   64.87    1.31
   2  -3   0   63.93    1.08
  -2  -3   0   64.82    1.11
   2  -3   0   65.35    1.19
  -2  -3   0   58.38    1.29
   2   3   0   65.06    1.11
  -3  -3   0    8.49    0.20
   3  -3   0    8.47    0.17
  -3  -3   0    8.26    0.22
   3  -3   0    7.14    0.23
   3   3   0    8.34    0.19
   3   3   0    8.37    0.20
  -4  -3   0    0.93    0.07
   4  -3   0    0.88    0.08
  -4  -3   0    0.94    0.07
   4   3   0    0.86    0.07
   4   3   0    0.98    0.05
   4   3   0    0.89    0.07
   5  -3   0    1.13    0.09
  -5  -3   0    1.10    0.08
   5   3   0    1.15    0.08
   5   3   0    1.05    0.09
   6  -3   0    1.00    0.10
   6   3   0    0.74    0.09
   7  -3   0    0.41    0.08
   7   3   0    0.60    0.09
   0  -4   0    0.92    0.06
   0  -4   0    0.84    0.05
  -1  -4   0   55.83    1.15
   1  -4   0   54.44    1.15
  -1  -4   0   54.88    0.97
   1  -4   0   56.23    0.96
   1   4   0   55.33    0.97
   2  -4   0    6.77    0.15
   2  -4   0    6.59    0.20
  -2  -4   0    6.78    0.17
  -2  -4   0    6.72    0.20
   2   4   0    7.04    0.18
   3  -4   0    2.01    0.11
  -3  -4   0    1.95    0.09
   3  -4   0    2.17    0.10
   3  -4   0    2.05    0.07
   3   4   0    2.10    0.07
   3   4   0    2.16    0.10
   4  -4   0    2.52    0.12
  -4  -4   0    2.36    0.12
   4  -4   0    2.51    0.12
  -4  -4   0    2.31    0.11
   4   4   0    2.36    0.11
   4   4   0    2.25    0.11
  -5  -4   0    0.73    0.07
   5  -4   0    0.56    0.07
   5  -4   0    0.74    0.08
   5   4   0    0.74    0.07
   6  -4   0    0.14    0.07
   6   4   0    0.25    0.07
   7  -4   0    0.62    0.10
   7   4   0    0.68    0.10
   0  -5   0   -0.01    0.03
   0  -5   0   -0.02    0.03
  -1  -5   0    6.31    0.17
   1  -5   0    6.15    0.20
   1  -5   0    6.27    0.16
  -1  -5   0    6.32    0.20
   2  -5   0   13.96    0.28
   2  -5   0   13.87    0.36
  -2  -5   0   13.50    0.30
  -2  -5   0   14.10    0.35
   2   5   0   13.22    0.30
  -3  -5   0    0.85    0.07
  -3  -5   0    0.80    0.08
   3  -5   0    0.82    0.08
   3   5   0    0.85    0.07
  -4  -5   0    1.58    0.10
  -4  -5   0    1.64    0.09
   4  -5   0    1.58    0.11
   4   5   0    1.56    0.09
   5  -5   0    0.01    0.05
  -5  -5   0    0.06    0.04
   5  -5   0    0.01    0.05
   5   5   0    0.04    0.04
   6  -5   0    0.52    0.09
  -6  -5   0    0.62    0.08
   6   5   0    0.53    0.08
   6   5   0    0.68    0.08
   0  -6   0    8.88    0.21
   0  -6   0    8.28    0.26
   1  -6   0   13.75    0.29
  -1  -6   0   13.72    0.36
  -1  -6   0   13.79    0.31
   1  -6   0   13.53    0.37
   1   6   0   13.54    0.31
  -2  -6   0    4.90    0.16
  -2  -6   0    4.88    0.19
   2  -6   0    4.97    0.19
   2  -6   0    4.94    0.14
   2   6   0    4.67    0.16
  -3  -6   0    0.83    0.08
   3  -6   0    0.90    0.09
  -3  -6   0    0.83    0.07
   3   6   0    0.78    0.08
   4  -6   0    1.24    0.11
  -4  -6   0    1.49    0.10
   4   6   0    1.22    0.09
   5  -6   0    0.64    0.09
  -5  -6   0    0.57    0.07
   5   6   0    0.61    0.07
  -6  -6   0    0.22    0.06
   6   6   0    0.26    0.07
   0  -7   0    0.02    0.04
   0  -7   0    0.02    0.05
   0   7   0    0.02    0.04
  -1  -7   0    5.34    0.20
   1  -7   0    5.24    0.20
   1  -7   0    5.23    0.16
  -1  -7   0    4.89    0.16
   1   7   0    5.05    0.17
   2  -7   0    2.11    0.13
  -2  -7   0    2.02    0.11
   2  -7   0    2.25    0.10
  -2  -7   0    2.05    0.13
   2   7   0    1.90    0.11
  -3  -7   0    0.70    0.09
  -3  -7   0    0.47    0.06
   3  -7   0    0.59    0.08
   3   7   0    0.53    0.07
  -4  -7   0    0.04    0.04
   4  -7   0    0.09    0.06
   4   7   0    0.08    0.05
   5  -7   0   -0.06    0.06
  -5  -7   0   -0.04    0.04
   5   7   0    0.11    0.05
   0  -8   0    1.03    0.10
   0  -8   0    1.09    0.08
   0   8   0    1.20    0.09
  -1  -8   0    0.27    0.05
   1  -8   0    0.14    0.06
  -1  -8   0    0.11    0.06
   1  -8   0    0.12    0.04
   1   8   0    0.20    0.05
   2  -8   0    0.91    0.10
  -2  -8   0    0.94    0.10
  -2  -8   0    0.89    0.08
   2   8   0    0.78    0.08
  -3  -8   0    0.29    0.07
   3  -8   0    0.52    0.09
  -3  -8   0    0.53    0.09
   3   8   0    0.48    0.07
  -4  -8   0    0.90    0.09
   4  -8   0    0.70    0.10
   4   8   0    0.66    0.09
  -5  -8   0    0.32    0.07
   5  -8   0    0.21    0.08
   5   8   0    0.19    0.07
   0  -9   0    0.04    0.05
   0  -9   0    0.05    0.04
   0   9   0    0.01    0.04
  -1  -9   0    0.75    0.08
   1  -9   0    0.78    0.10
   1  -9   0    0.82    0.08
  -1  -9   0    0.78    0.10
   1   9   0    0.78    0.08
  -1   9   0    0.75    0.08
  -2  -9   0    1.88    0.12
  -2  -9   0    1.73    0.14
   2  -9   0    1.82    0.15
   2   9   0    1.95    0.12
  -3  -9   0    0.92    0.09
   3  -9   0    0.72    0.10
  -3  -9   0    0.91    0.11
   3   9   0    0.93    0.09
  -4  -9   0    0.21    0.06
   4  -9   0    0.19    0.08
   4   9   0    0.17    0.07
   0 -10   0    0.19    0.08
   0 -10   0    0.26    0.06
   0  10   0    0.17    0.06
  -1 -10   0    0.51    0.10
  -1 -10   0    0.57    0.08
   1 -10   0    0.52    0.10
   1  10   0    0.47    0.08
  -2 -10   0    0.26    0.08
   2 -10   0    0.28    0.09
  -2 -10   0    0.19    0.06
   2  10   0    0.27    0.07
   3 -10   0    0.38    0.10
  -3 -10   0    0.49    0.10
   0 -11   0    0.04    0.08
   7   0  -1    0.07    0.06
   6   0  -1    2.44    0.15
   5   0  -1   10.06    0.29
   4   0  -1    0.16    0.04
   4   0  -1    0.22    0.03
  -4   0   1    0.16    0.03
   4   0  -1    0.21    0.04
   3   0  -1    2.24    0.08
   3   0  -1    2.17    0.09
   3   0  -1    2.23    0.08
  -3   0   1    2.24    0.08
  -2   0   1    2.13    0.07
   2   0  -1    2.17    0.06
   2   0  -1    2.27    0.07
  -1   0   1  278.23    5.70
   1   0  -1  282.12    4.77
   0   0  -1    1.23    0.03
   0   0  -1    1.24    0.04
   1   0   1    7.31    0.17
  -1   0  -1    7.49    0.17
  -1   0  -1    7.27    0.13
  -1   0  -1    6.98    0.16
  -2   0  -1   29.20    0.62
   2   0   1   29.76    0.51
   2   0   1   29.30    0.57
  -2   0  -1   29.81    0.51
   2   0   1   30.14    0.62
   3   0   1   41.34    0.86
   3   0   1   41.10    0.71
   3   0   1   40.22    0.80
  -3   0  -1   42.05    0.71
   4   0   1   14.34    0.27
   4   0   1   13.82    0.34
   4   0   1   13.43    0.33
  -4   0  -1   14.23    0.31
   5   0   1   25.32    0.57
   6   0   1    0.08    0.06
   7   0   1    8.04    0.29
   7  -1  -1    0.21    0.07
   7   1  -1    0.22    0.08
   6  -1  -1    0.92    0.09
   6   1  -1    1.00    0.10
   5  -1  -1    1.20    0.10
   5   1  -1    1.04    0.08
   5   1  -1    0.93    0.09
  -4  -1   1    0.45    0.03
   4  -1  -1    0.47    0.06
   4  -1  -1    0.59    0.05
   4   1  -1    0.49    0.05
   4   1  -1    0.49    0.06
   3  -1  -1   11.50    0.28
  -3  -1   1   12.28    0.27
   3  -1  -1   12.46    0.24
  -3  -1   1   12.63    0.27
   3   1  -1   11.84    0.27
   3   1  -1   12.04    0.25
   2  -1  -1  151.24    2.73
  -2  -1   1  153.14    2.54
  -2  -1   1  146.37    3.08
   2  -1  -1  151.86    2.55
  -2  -1   1  153.71    3.01
   2   1  -1  148.15    2.54
   2   1  -1  155.89    3.08
   2   1  -1  152.43    3.04
  -1  -1   1  110.82    2.26
   1  -1  -1  113.47    1.90
  -1  -1   1  114.21    1.89
  -1  -1   1  110.11    2.26
   1  -1  -1  110.19    2.23
   1   1  -1  109.14    2.29
   1   1  -1  111.43    1.90
   0  -1  -1  116.02    2.36
   0  -1   1  113.35    2.00
   0  -1  -1  118.40    2.01
   0   1  -1  116.89    1.98
  -1  -1  -1   19.32    0.41
  -1  -1  -1   19.69    0.35
   1  -1   1   19.79    0.41
   2  -1   1   23.91    0.41
  -2  -1  -1   21.80    0.50
   2  -1   1   23.76    0.50
  -2  -1  -1   23.76    0.42
   2   1   1   23.48    0.42
   2   1   1   23.98    0.50
   2   1   1   23.13    0.46
   3  -1   1    5.89    0.17
  -3  -1  -1    5.95    0.14
   3  -1   1    5.78    0.17
   3  -1   1    5.88    0.12
   3   1   1    5.79    0.17
   3   1   1    6.00    0.17
   3   1   1    5.93    0.14
   4  -1   1    0.52    0.06
  -4  -1  -1    0.54    0.04
   4  -1   1    0.56    0.06
  -4  -1  -1    0.53    0.05
   4   1   1    0.39    0.06
   4   1   1    0.47    0.06
   4   1   1    0.42    0.04
   5  -1   1   13.96    0.35
   5  -1   1   12.68    0.34
   5   1   1   12.99    0.35
   6  -1   1    3.89    0.18
   6   1   1    3.94    0.18
   7  -1   1    1.78    0.14
   7   1   1    1.67    0.14
   7  -2  -1    0.16    0.07
   7   2  -1    0.03    0.06
   6  -2  -1    2.45    0.15
   6   2  -1    2.32    0.14
   5  -2  -1    8.12    0.25
   5   2  -1    8.51    0.22
   5   2  -1    7.98    0.25
   4  -2  -1    7.84    0.18
  -4  -2   1    8.06    0.20
   4  -2  -1    7.76    0.23
   4   2  -1    7.79    0.20
   3  -2  -1   30.32    0.62
   3  -2  -1   27.90    0.58
  -3  -2   1   29.00    0.60
  -3  -2   1   28.67    0.53
   3  -2  -1   28.63    0.52
   3   2  -1   28.61    0.60
   3   2  -1   28.13    0.60
   3   2  -1   28.16    0.53
  -2  -2   1   17.66    0.34
  -2  -2   1   17.93    0.38
   2  -2  -1   17.85    0.33
   2  -2  -1   17.88    0.39
   2  -2  -1   18.00    0.36
   2   2  -1   17.72    0.34
   2   2  -1   17.58    0.38
  -1  -2   1  117.97    1.99
   1  -2  -1  121.56    2.00
   1  -2  -1  116.68    2.34
   1   2  -1  117.93    1.99
   0  -2   1   65.49    1.31
   0  -2  -1   64.76    1.11
   0  -2  -1   65.51    1.31
   0  -2   1   65.42    1.11
   0   2  -1   66.63    1.11
   1  -2   1   42.17    0.71
  -1  -2  -1   41.80    0.73
  -1  -2  -1   42.21    0.86
   2  -2   1   44.72    0.76
  -2  -2  -1   44.53    0.92
   2  -2   1   43.26    0.84
  -2  -2  -1   45.39    0.78
   2   2   1   45.39    0.78
   3  -2   1   18.63    0.41
  -3  -2  -1   19.30    0.37
   3  -2   1   19.43    0.33
   3   2   1   18.47    0.43
   3   2   1   19.68    0.37
  -4  -2  -1    3.84    0.14
   4  -2   1    3.76    0.15
  -4  -2  -1    3.95    0.12
   4   2   1    3.85    0.15
   4   2   1    3.78    0.12
   4   2   1    3.88    0.14
  -5  -2  -1    6.98    0.18
   5  -2   1    6.45    0.22
   5   2   1    6.90    0.18
   5   2   1    6.65    0.22
   6  -2   1    0.02    0.05
   6   2   1    0.16    0.06
   7  -2   1    4.18    0.20
   7   2   1    4.54    0.21
   7  -3  -1    0.91    0.11
   7   3  -1    0.99    0.11
   6  -3  -1    0.69    0.09
   6   3  -1    0.68    0.09
   5  -3  -1    1.08    0.10
  -5  -3   1    1.22    0.08
   5   3  -1    1.14    0.08
   4  -3  -1    7.24    0.22
  -4  -3   1    7.30    0.19
   4  -3  -1    7.04    0.21
   4   3  -1    6.90    0.19
   3  -3  -1    9.71    0.24
  -3  -3   1    9.75    0.24
   3  -3  -1   10.06    0.21
  -3  -3   1   10.08    0.23
   3  -3  -1    9.69    0.25
   3   3  -1    9.70    0.23
   3   3  -1    9.71    0.23
  -2  -3   1    3.31    0.11
   2  -3  -1    2.97    0.09
   2  -3  -1    2.98    0.11
  -2  -3   1    3.19    0.10
   2  -3  -1    3.20    0.10
   2   3  -1    3.11    0.10
   2   3  -1    3.08    0.10
  -1  -3   1   54.41    1.10
  -1  -3   1   54.31    0.94
   1  -3  -1   54.37    1.11
   1  -3  -1   53.53    0.93
   1   3  -1   53.95    0.94
   0  -3  -1   45.01    0.77
   0  -3   1   44.39    0.77
   0  -3   1   44.15    0.91
   0  -3  -1   43.83    0.92
   0   3  -1   44.68    0.77
  -1  -3  -1   15.04    0.29
   1  -3   1   15.35    0.35
  -1  -3  -1   14.77    0.35
   1  -3   1   15.11    0.28
   2  -3   1    3.16    0.07
  -2  -3  -1    3.11    0.12
  -2  -3  -1    3.16    0.10
   2   3   1    3.11    0.10
   3  -3   1   15.91    0.36
  -3  -3  -1   16.47    0.33
  -3  -3  -1   16.48    0.39
   3   3   1   16.24    0.33
  -4  -3  -1    0.43    0.05
  -4  -3  -1    0.52    0.06
   4  -3   1    0.42    0.06
   4   3   1    0.51    0.05
   4   3   1    0.42    0.06
  -5  -3  -1    5.10    0.16
   5  -3   1    4.81    0.19
   5   3   1    4.76    0.18
   5   3   1    5.05    0.16
   6  -3   1    0.33    0.07
   6   3   1    0.22    0.07
   7  -3   1    0.27    0.08
   7   3   1    0.28    0.08
   7  -4  -1    1.67    0.14
   7   4  -1    1.69    0.14
   6  -4  -1    0.88    0.10
   6   4  -1    0.67    0.08
  -5  -4   1    3.98    0.15
   5  -4  -1    3.98    0.17
   5   4  -1    4.03    0.15
   4  -4  -1   19.33    0.47
   4  -4  -1   19.40    0.44
  -4  -4   1   18.94    0.41
   4   4  -1   19.11    0.41
   3  -4  -1    4.49    0.12
   3  -4  -1    4.65    0.16
  -3  -4   1    4.42    0.14
   3  -4  -1    4.48    0.15
  -3  -4   1    4.51    0.15
   3   4  -1    4.31    0.14
   3   4  -1    4.60    0.13
   2  -4  -1    0.86    0.07
   2  -4  -1    0.85    0.05
  -2  -4   1    0.83    0.06
  -2  -4   1    0.87    0.06
   2   4  -1    0.87    0.06
  -1  -4   1   34.64    0.74
  -1  -4   1   35.02    0.63
   1  -4  -1   34.47    0.75
   1  -4  -1   35.19    0.62
   1   4  -1   34.90    0.63
   0  -4   1   39.32    0.69
   0  -4  -1   39.63    0.83
   0  -4  -1   38.95    0.70
   0  -4   1   38.46    0.83
   0   4  -1   38.66    0.69
   1  -4   1   22.06    0.41
   1  -4   1   21.76    0.50
  -1  -4  -1   22.16    0.50
  -1  -4  -1   22.40    0.42
  -2  -4  -1    5.71    0.18
   2  -4   1    5.81    0.19
  -2  -4  -1    5.62    0.15
   2  -4   1    5.72    0.13
   2   4   1    5.60    0.16
  -3  -4  -1    3.07    0.13
  -3  -4  -1    2.83    0.11
   3  -4   1    2.86    0.13
   3   4   1    2.88    0.11
  -4  -4  -1    1.61    0.09
   4  -4   1    1.25    0.10
   4  -4   1    1.44    0.10
   4   4   1    1.75    0.11
   4   4   1    1.71    0.05
   4   4   1    1.62    0.09
   5  -4   1    0.46    0.07
   5  -4   1    0.44    0.07
  -5  -4  -1    0.57    0.06
   5   4   1    0.52    0.07
   5   4   1    0.60    0.07
   6  -4   1    0.49    0.08
   6   4   1    0.39    0.07
   7  -4   1    0.22    0.08
   7   4   1    0.06    0.06
   6  -5  -1    1.80    0.13
  -6  -5   1    1.67    0.11
   6   5  -1    1.76    0.12
   5  -5  -1    1.73    0.12
  -5  -5   1    1.62    0.10
   5   5  -1    1.59    0.11
   4  -5  -1    7.21    0.24
  -4  -5   1    6.75    0.20
   4  -5  -1    6.82    0.22
   4   5  -1    7.12    0.21
   3  -5  -1    2.10    0.08
   3  -5  -1    2.16    0.11
  -3  -5   1    2.05    0.10
   3   5  -1    2.05    0.10
   2  -5  -1   24.72    0.47
  -2  -5   1   24.63    0.49
  -2  -5   1   25.18    0.57
   2  -5  -1   24.36    0.57
   2   5  -1   24.93    0.49
  -1  -5   1   11.30    0.30
  -1  -5   1   11.54    0.26
   1  -5  -1   11.02    0.30
   1  -5  -1   11.22    0.24
   1   5  -1   11.34    0.26
   0  -5  -1   32.74    0.62
   0  -5   1   34.18    0.74
   0  -5  -1   33.45    0.74
   0  -5   1   33.77    0.62
   0   5  -1   33.95    0.62
  -1  -5  -1    7.14    0.22
   1  -5   1    7.06    0.22
  -1  -5  -1    6.84    0.18
   1  -5   1    7.08    0.17
  -2  -5  -1    5.51    0.19
  -2  -5  -1    5.64    0.16
   2  -5   1    5.83    0.14
   2  -5   1    5.77    0.20
   2   5   1    6.01    0.17
  -3  -5  -1    6.56    0.22
  -3  -5  -1    6.52    0.19
   3  -5   1    6.74    0.23
   3   5   1    6.67    0.19
   4  -5   1    0.99    0.09
  -4  -5  -1    0.96    0.08
  -4  -5  -1    0.97    0.09
   4   5   1    1.02    0.08
   5  -5   1    2.49    0.15
  -5  -5  -1    2.77    0.13
   5   5   1    2.62    0.13
   6  -5   1    1.12    0.11
   6   5   1    1.45    0.12
  -6  -6   1    0.28    0.07
   6   6  -1    0.24    0.07
  -5  -6   1    0.75    0.08
   5   6  -1    0.79    0.08
  -4  -6   1    8.36    0.24
   4  -6  -1    8.50    0.28
   4   6  -1    8.28    0.24
  -3  -6   1    3.65    0.14
  -3  -6   1    3.89    0.16
   3  -6  -1    3.79    0.17
   3   6  -1    3.36    0.14
  -2  -6   1    5.59    0.18
   2  -6  -1    5.86    0.21
   2  -6  -1    6.06    0.16
  -2  -6   1    5.69    0.20
   2   6  -1    5.72    0.18
   1  -6  -1    1.41    0.10
  -1  -6   1    1.50    0.08
   1  -6  -1    1.40    0.08
  -1  -6   1    1.63    0.10
   1   6  -1    1.58    0.08
   0  -6   1    4.41    0.14
   0  -6  -1    4.23    0.17
   0  -6  -1    4.39    0.14
   0  -6   1    4.27    0.17
   0   6  -1    4.15    0.14
   1  -6   1    4.86    0.18
   1  -6   1    4.77    0.14
  -1  -6  -1    4.53    0.15
  -1  -6  -1    4.73    0.18
  -1   6  -1    4.85    0.14
  -2  -6  -1    3.93    0.17
   2  -6   1    3.63    0.16
  -2  -6  -1    3.54    0.14
   2  -6   1    3.52    0.11
   2   6   1    3.56    0.14
  -3  -6  -1    0.04    0.05
  -3  -6  -1    0.11    0.04
   3  -6   1    0.01    0.05
   3   6   1    0.01    0.04
   4  -6   1    0.04    0.05
  -4  -6  -1   -0.01    0.05
  -4  -6  -1    0.13    0.04
   4   6   1    0.04    0.04
   5  -6   1    1.45    0.12
  -5  -6  -1    1.33    0.10
   5   6   1    1.72    0.11
  -6  -6  -1    0.32    0.07
   6   6   1    0.37    0.07
  -5  -7   1    0.27    0.07
   5   7  -1    0.36    0.07
   4  -7  -1    1.50    0.12
  -4  -7   1    1.39    0.10
   4   7  -1    1.33    0.10
   3  -7  -1    3.55    0.18
  -3  -7   1    3.44    0.15
  -3  -7   1    3.68    0.17
   3   7  -1    3.54    0.15
   2  -7  -1   23.86    0.47
  -2  -7   1   24.36    0.51
   2  -7  -1   23.41    0.59
  -2  -7   1   23.35    0.58
   2   7  -1   23.47    0.51
   1  -7  -1    1.29    0.10
  -1  -7   1    1.19    0.10
  -1  -7   1    1.22    0.08
   1  -7  -1    1.27    0.08
   1   7  -1    1.22    0.08
   0  -7  -1    2.40    0.13
   0  -7   1    2.55    0.14
   0  -7   1    2.24    0.10
   0  -7  -1    2.37    0.11
   0   7  -1    2.31    0.11
   1  -7   1    1.62    0.11
  -1  -7  -1    1.78    0.12
  -1  -7  -1    1.64    0.09
   1  -7   1    1.66    0.09
  -1   7  -1    1.62    0.09
   2  -7   1    3.88    0.18
  -2  -7  -1    3.62    0.17
  -2  -7  -1    3.55    0.14
   2   7   1    3.68    0.15
  -3  -7  -1    2.28    0.14
   3  -7   1    2.23    0.14
  -3  -7  -1    2.17    0.12
   3   7   1    2.20    0.12
  -4  -7  -1    0.58    0.09
   4  -7   1    0.67    0.09
  -4  -7  -1    0.64    0.07
   4   7   1    0.64    0.08
  -5  -7  -1    0.44    0.07
   5  -7   1    0.36    0.08
   5   7   1    0.33    0.07
  -5  -8   1    0.27    0.07
   5   8  -1    0.24    0.07
   4  -8  -1    1.36    0.13
  -4  -8   1    1.26    0.10
   4   8  -1    1.29    0.11
  -3  -8   1    3.19    0.17
   3  -8  -1    3.39    0.18
  -3  -8   1    3.21    0.15
   3   8  -1    3.25    0.16
  -2  -8   1    0.60    0.07
   2  -8  -1    0.83    0.10
   2  -8  -1    0.66    0.07
  -2  -8   1    0.62    0.09
   2   8  -1    0.58    0.07
  -1  -8   1    1.18    0.11
  -1  -8   1    0.92    0.08
   1  -8  -1    1.07    0.11
   1  -8  -1    1.05    0.08
   1   8  -1    1.03    0.08
   0  -8  -1    0.32    0.06
   0  -8   1    0.35    0.07
   0  -8  -1    0.34    0.07
   0  -8   1    0.31    0.05
   0   8  -1    0.23    0.05
  -1  -8  -1    1.79    0.13
   1  -8   1    1.76    0.13
  -1  -8  -1    1.73    0.11
   1  -8   1    1.89    0.10
  -1   8  -1    1.57    0.09
   1   8   1    1.81    0.11
   2  -8   1    2.20    0.15
  -2  -8  -1    2.36    0.14
  -2  -8  -1    2.35    0.13
   2   8   1    2.20    0.13
  -3  -8  -1    0.03    0.05
  -3  -8  -1    0.02    0.06
   3  -8   1   -0.01    0.05
   3   8   1   -0.04    0.05
   4  -8   1    0.33    0.08
  -4  -8  -1    0.32    0.08
  -4  -8  -1    0.33    0.07
   4   8   1    0.24    0.06
  -5  -8  -1    0.38    0.07
   5  -8   1    0.32    0.09
   5   8   1    0.44    0.08
  -4  -9   1    0.07    0.06
   4  -9  -1    0.10    0.07
   4   9  -1    0.06    0.05
  -3  -9   1    3.02    0.18
  -3  -9   1    2.94    0.15
   3  -9  -1    3.18    0.19
   3   9  -1    2.84    0.15
  -2  -9   1    5.33    0.20
  -2  -9   1    5.23    0.23
   2  -9  -1    5.15    0.23
   2   9  -1    5.12    0.20
   1  -9  -1    0.48    0.07
  -1  -9   1    0.53    0.07
  -1  -9   1    0.29    0.07
   1  -9  -1    0.51    0.09
   1   9  -1    0.44    0.07
   0  -9  -1    0.01    0.04
   0  -9   1    0.03    0.04
   0  -9  -1    0.04    0.06
   0  -9   1    0.00    0.06
   0   9  -1    0.07    0.05
   0   9   1    0.00    0.04
  -1  -9  -1    1.38    0.10
   1  -9   1    1.17    0.12
  -1  -9  -1    1.25    0.12
   1   9   1    1.44    0.10
  -2  -9  -1    0.73    0.08
   2  -9   1    0.83    0.11
  -2  -9  -1    1.13    0.12
   2   9   1    0.87    0.09
  -3  -9  -1    0.03    0.07
  -3  -9  -1   -0.07    0.04
   3  -9   1    0.04    0.06
   3   9   1    0.05    0.05
   4  -9   1   -0.04    0.06
  -4  -9  -1    0.04    0.05
   4   9   1   -0.01    0.05
   3 -10  -1    0.53    0.10
  -2 -10   1    0.08    0.07
  -2 -10   1   -0.02    0.05
   2 -10  -1    0.12    0.07
   2  10  -1    0.21    0.06
   1 -10  -1    0.16    0.08
   1 -10  -1    0.18    0.06
  -1 -10   1    0.17    0.06
  -1 -10   1    0.20    0.08
  -1  10   1    0.23    0.06
   1  10  -1    0.24    0.07
   0 -10  -1    0.04    0.05
   0 -10   1    0.11    0.07
   0 -10   1    0.02    0.05
   0 -10  -1    0.07    0.07
   0  10   1    0.06    0.05
   0  10  -1    0.04    0.05
  -1 -10  -1    0.43    0.09
   1 -10   1    0.17    0.08
  -1 -10  -1    0.28    0.07
   1  10   1    0.38    0.07
   2 -10   1    0.34    0.09
  -2 -10  -1    0.38    0.09
  -2 -10  -1    0.24    0.07
   2  10   1    0.30    0.07
   3 -10   1    0.04    0.08
  -3 -10  -1    0.02    0.06
   7   0  -2    0.18    0.07
   6   0  -2    0.21    0.06
   5   0  -2   31.03    0.59
   5   0  -2   30.16    0.67
   4   0  -2   15.75    0.33
   4   0  -2   16.18    0.38
   3   0  -2    0.60    0.05
  -3   0   2    0.49    0.05
  -2   0   2    0.11    0.03
   2   0  -2    0.04    0.02
   1   0  -2  107.29    2.13
  -1   0   2  106.67    2.13
   1   0  -2  104.67    1.78
   0   0  -2   36.66    0.61
   0   0  -2   37.39    0.72
   0   0  -2   36.59    0.73
   0   0   2   32.42    0.72
  -1   0  -2    2.30    0.08
   1   0   2    2.20    0.07
  -1   0  -2    2.30    0.06
   1   0   2    2.24    0.08
  -1   0  -2    2.27    0.07
  -2   0  -2   31.79    0.65
   2   0   2   31.71    0.67
   2   0   2   31.68    0.55
  -2   0  -2   32.55    0.67
   2   0   2   31.55    0.61
  -2   0  -2   31.63    0.55
   3   0   2    6.91    0.19
  -3   0  -2    7.59    0.15
   3   0   2    7.38    0.21
   3   0   2    7.31    0.15
  -3   0  -2    7.39    0.21
   4   0   2    0.04    0.04
   4   0   2    0.04    0.04
   5   0   2    3.54    0.16
   5   0   2    3.83    0.16
   6   0   2    4.00    0.18
   7   0   2   -0.02    0.06
   7  -1  -2    0.25    0.08
   7   1  -2    0.17    0.07
   6  -1  -2   15.27    0.41
   6   1  -2   15.61    0.42
   5  -1  -2   14.83    0.38
   5   1  -2   14.16    0.37
   5   1  -2   14.96    0.33
   4  -1  -2    1.72    0.09
   4  -1  -2    2.01    0.10
   4   1  -2    1.76    0.09
   3  -1  -2   20.29    0.39
   3  -1  -2   20.02    0.42
  -3  -1   2   19.99    0.44
   3  -1  -2   19.94    0.43
   3   1  -2   19.97    0.41
   3   1  -2   20.01    0.39
   2  -1  -2   12.09    0.26
   2  -1  -2   12.15    0.26
   2  -1  -2   12.02    0.24
  -2  -1   2   11.67    0.27
   2   1  -2   12.15    0.24
   2   1  -2   12.00    0.28
   1  -1  -2   37.17    0.74
  -1  -1   2   36.98    0.73
  -1  -1   2   36.24    0.75
   1  -1  -2   36.14    0.63
   1   1  -2   35.82    0.75
   1   1  -2   36.28    0.63
   0  -1   2   52.20    1.04
   0  -1   2   51.68    1.03
   0  -1  -2   50.80    1.03
   0   1  -2   50.06    1.04
   0   1  -2   51.46    0.87
   1  -1   2   18.58    0.41
  -1  -1  -2   18.69    0.34
  -1  -1  -2   18.97    0.41
   1   1   2   18.92    0.41
   1   1   2   19.02    0.39
  -1   1  -2   18.77    0.41
  -1   1  -2   18.93    0.33
  -2  -1  -2   37.25    0.77
  -2  -1  -2   37.52    0.64
   2  -1   2   37.04    0.71
   2  -1   2   36.76    0.77
   2   1   2   37.13    0.70
   2   1   2   36.24    0.75
   2   1   2   36.54    0.77
   3  -1   2   18.52    0.32
  -3  -1  -2   18.82    0.43
   3  -1   2   18.18    0.40
  -3  -1  -2   18.27    0.34
   3  -1   2   18.24    0.42
   3   1   2   17.66    0.42
   3   1   2   18.31    0.39
   3   1   2   18.57    0.34
   4  -1   2    6.87    0.21
   4  -1   2    6.75    0.21
  -4  -1  -2    6.83    0.16
  -4  -1  -2    6.75    0.21
   4   1   2    6.84    0.20
   4   1   2    6.80    0.16
   4   1   2    6.61    0.21
   5  -1   2   30.53    0.68
   5  -1   2   31.86    0.72
   5   1   2   31.39    0.68
   5   1   2   32.42    0.72
   6  -1   2    0.46    0.08
   6   1   2    0.59    0.08
   7  -1   2    2.77    0.17
   7   1   2    2.51    0.16
   7  -2  -2    0.72    0.10
   7   2  -2    0.62    0.10
   6  -2  -2    3.58    0.18
   6   2  -2    3.18    0.17
   5  -2  -2   19.35    0.47
   5   2  -2   19.75    0.42
   4  -2  -2    9.55    0.22
   4  -2  -2    9.41    0.26
   4   2  -2    9.68    0.23
  -3  -2   2    8.88    0.21
   3  -2  -2    8.38    0.22
   3  -2  -2    8.93    0.20
  -3  -2   2    8.61    0.20
  -3  -2   2    8.74    0.20
   3  -2  -2    8.70    0.22
   3   2  -2    8.66    0.22
   3   2  -2    8.62    0.20
   3   2  -2    8.80    0.20
  -2  -2   2    2.23    0.08
  -2  -2   2    2.30    0.07
  -2  -2   2    2.17    0.07
   2  -2  -2    2.25    0.08
   2  -2  -2    2.20    0.08
   2  -2  -2    2.23    0.08
   2   2  -2    2.31    0.08
   2   2  -2    2.11    0.08
  -1  -2   2   35.88    0.63
   1  -2  -2   36.36    0.74
   1  -2  -2   35.96    0.63
  -1  -2   2   36.10    0.73
   1   2  -2   35.02    0.75
   1   2  -2   36.46    0.63
   0  -2   2   98.58    1.66
   0  -2  -2   98.18    1.66
   0  -2  -2   97.98    1.96
   0   2  -2   99.84    1.66
  -1  -2  -2   42.52    0.88
   1  -2   2   43.04    0.73
  -1  -2  -2   42.57    0.74
  -1   2  -2   43.36    0.73
  -2  -2  -2   11.12    0.28
  -2  -2  -2   11.11    0.23
   2  -2   2   11.16    0.25
   2  -2   2   11.27    0.29
   2   2   2   11.36    0.24
   2   2   2   11.13    0.28
   3  -2   2   24.39    0.52
  -3  -2  -2   25.04    0.56
  -3  -2  -2   25.45    0.47
   3  -2   2   26.24    0.58
   3   2   2   24.82    0.51
   3   2   2   25.28    0.56
   3   2   2   24.63    0.47
  -4  -2  -2    7.14    0.17
   4  -2   2    6.87    0.23
   4  -2   2    6.70    0.21
  -4  -2  -2    6.77    0.21
   4   2   2    7.04    0.17
   4   2   2    6.95    0.21
   4   2   2    6.79    0.20
  -5  -2  -2    1.31    0.09
   5  -2   2    1.18    0.10
   5  -2   2    1.00    0.09
   5   2   2    1.22    0.10
   5   2   2    1.36    0.10
   6  -2   2    0.48    0.08
   6   2   2    0.46    0.08
   7  -2   2    0.30    0.08
   7   2   2    0.38    0.09
   7  -3  -2   -0.01    0.06
   7   3  -2    0.04    0.06
   6  -3  -2    6.99    0.25
   6   3  -2    7.01    0.22
   5  -3  -2   11.57    0.32
   5   3  -2   11.84    0.29
   4  -3  -2    0.51    0.05
   4  -3  -2    0.53    0.07
   4  -3  -2    0.51    0.05
  -4  -3   2    0.50    0.06
   4   3  -2    0.48    0.05
   3  -3  -2   34.79    0.62
  -3  -3   2   34.16    0.64
   3  -3  -2   34.12    0.68
  -3  -3   2   35.00    0.72
   3  -3  -2   33.61    0.73
   3   3  -2   34.07    0.73
   3   3  -2   34.83    0.64
  -2  -3   2    7.05    0.17
   2  -3  -2    6.96    0.19
   2  -3  -2    7.10    0.17
   2  -3  -2    6.99    0.16
  -2  -3   2    6.96    0.18
   2   3  -2    6.98    0.18
   2   3  -2    6.82    0.17
  -1  -3   2   14.26    0.28
   1  -3  -2   14.35    0.28
   1  -3  -2   14.23    0.33
   1   3  -2   14.69    0.33
   1   3  -2   14.34    0.29
   0  -3  -2    5.39    0.16
   0  -3  -2    5.42    0.13
   0  -3   2    5.45    0.13
   0  -3   2    5.42    0.15
   0   3  -2    5.41    0.13
  -1  -3  -2   14.65    0.35
   1  -3   2   14.98    0.28
  -1  -3  -2   14.88    0.30
  -1   3  -2   15.45    0.28
   2  -3   2   12.54    0.23
  -2  -3  -2   12.64    0.31
  -2   3  -2   12.54    0.23
   3  -3   2   20.39    0.45
  -3  -3  -2   20.58    0.49
  -3  -3  -2   21.24    0.41
   3   3   2   20.90    0.49
   3   3   2   21.73    0.42
   4  -3   2    0.07    0.05
  -4  -3  -2    0.03    0.04
   4  -3   2   -0.01    0.02
  -4  -3  -2    0.04    0.03
   4   3   2    0.02    0.03
   4   3   2   -0.02    0.04
   4   3   2    0.01    0.04
  -5  -3  -2    1.01    0.07
   5  -3   2    0.98    0.09
   5   3   2    0.89    0.09
   5   3   2    1.04    0.07
   5   3   2    0.78    0.08
   6  -3   2   -0.03    0.05
   6   3   2    0.07    0.05
   7  -3   2    0.74    0.10
   7   3   2    0.97    0.11
   7  -4  -2    0.57    0.10
   7   4  -2    0.53    0.09
   6  -4  -2    2.25    0.14
   6   4  -2    2.27    0.13
  -5  -4   2    5.04    0.18
   5  -4  -2    5.12    0.20
   5   4  -2    4.94    0.18
  -4  -4   2    2.39    0.11
   4  -4  -2    2.44    0.12
   4  -4  -2    2.23    0.12
   4   4  -2    2.48    0.11
  -3  -4   2    0.29    0.04
  -3  -4   2    0.31    0.05
   3   4  -2    0.18    0.05
  -2  -4   2   10.48    0.27
   2  -4  -2   10.73    0.24
   2  -4  -2   10.72    0.28
   2  -4  -2   11.18    0.23
  -2  -4   2   10.55    0.24
   2   4  -2   10.19    0.24
   2   4  -2   10.76    0.27
  -1  -4   2   12.97    0.28
   1  -4  -2   14.12    0.28
   1  -4  -2   12.91    0.33
  -1  -4   2   13.03    0.32
   1   4  -2   13.22    0.28
   0  -4  -2   14.89    0.37
   0  -4   2   14.99    0.30
   0  -4  -2   15.62    0.31
   0  -4   2   15.06    0.36
   0   4  -2   15.33    0.30
  -1  -4  -2   31.79    0.70
   1  -4   2   31.51    0.57
  -1  -4  -2   32.27    0.59
   1  -4   2   32.16    0.70
  -1   4  -2   32.42    0.57
  -2  -4  -2    0.17    0.04
   2  -4   2    0.12    0.04
  -2  -4  -2    0.15    0.03
   2  -4   2    0.21    0.02
  -2   4  -2    0.23    0.02
  -3  -4  -2   14.57    0.38
  -3  -4  -2   14.76    0.32
   3   4   2   15.25    0.33
  -4  -4  -2    4.45    0.18
  -4  -4  -2    4.43    0.15
   4   4   2    4.66    0.15
   4   4   2    4.56    0.18
  -5  -4  -2    2.15    0.10
   5  -4   2    2.10    0.13
   5   4   2    1.99    0.10
   5   4   2    2.01    0.12
   6  -4   2    0.36    0.08
   6   4   2    0.32    0.07
   7  -4   2    0.32    0.09
   7   4   2    0.41    0.08
   6  -5  -2    0.47    0.08
   6   5  -2    0.51    0.08
   5  -5  -2    2.33    0.13
  -5  -5   2    2.32    0.12
   5   5  -2    2.34    0.12
   4  -5  -2    1.49    0.10
   4  -5  -2    1.40    0.10
  -4  -5   2    1.52    0.10
   4   5  -2    1.57    0.10
  -3  -5   2   15.84    0.36
   3  -5  -2   16.59    0.34
   3  -5  -2   16.14    0.41
  -3  -5   2   16.23    0.39
   3   5  -2   15.85    0.36
   2  -5  -2    0.64    0.07
  -2  -5   2    0.68    0.06
  -2  -5   2    0.69    0.07
   2  -5  -2    0.72    0.06
   2   5  -2    0.79    0.07
  -1  -5   2    2.11    0.09
   1  -5  -2    2.29    0.11
   1  -5  -2    2.28    0.09
  -1  -5   2    2.11    0.11
   1   5  -2    2.10    0.09
   0  -5  -2    6.15    0.20
   0  -5  -2    5.74    0.16
   0  -5   2    5.93    0.19
   0  -5   2    5.96    0.15
   0   5  -2    6.19    0.16
   1  -5   2    5.70    0.14
  -1  -5  -2    5.64    0.16
  -1  -5  -2    5.67    0.19
   1  -5   2    5.44    0.19
  -1   5  -2    6.00    0.14
  -2  -5  -2    0.81    0.08
   2  -5   2    0.87    0.08
  -2  -5  -2    0.69    0.06
   2  -5   2    0.72    0.05
  -2   5  -2    0.79    0.05
  -3  -5  -2    0.98    0.07
  -3  -5  -2    0.74    0.08
   3  -5   2    0.91    0.09
   3   5   2    0.88    0.07
  -4  -5  -2    1.45    0.09
  -4  -5  -2    1.50    0.11
   4  -5   2    1.49    0.12
   4   5   2    1.45    0.09
   4   5   2    1.54    0.11
   5  -5   2    3.58    0.18
  -5  -5  -2    3.40    0.14
   5   5   2    3.49    0.16
   5   5   2    3.45    0.15
   6   5   2    0.27    0.07
  -6  -6   2    0.82    0.09
   6  -6  -2    0.79    0.10
   6   6  -2    0.98    0.10
  -5  -6   2    0.40    0.07
   5   6  -2    0.32    0.06
   4  -6  -2    0.61    0.08
  -4  -6   2    0.64    0.07
   4   6  -2    0.66    0.07
  -3  -6   2    1.61    0.10
  -3  -6   2    1.11    0.09
   3  -6  -2    1.59    0.09
   3  -6  -2    1.64    0.11
   3   6  -2    1.67    0.10
   2  -6  -2    7.74    0.20
   2  -6  -2    7.63    0.25
  -2  -6   2    7.61    0.24
  -2  -6   2    7.60    0.21
   2   6  -2    7.61    0.21
   1  -6  -2    5.35    0.16
  -1  -6   2    5.16    0.16
  -1  -6   2    5.18    0.18
   1  -6  -2    5.05    0.19
   1   6  -2    5.00    0.16
   0  -6   2    2.92    0.14
   0  -6  -2    2.90    0.14
   0  -6   2    2.81    0.11
   0  -6  -2    2.89    0.11
   0   6  -2    2.97    0.11
   1  -6   2    4.72    0.14
  -1  -6  -2    4.88    0.18
  -1  -6  -2    4.54    0.15
   1  -6   2    4.72    0.18
  -1   6  -2    4.59    0.13
  -2  -6  -2    1.13    0.10
   2  -6   2    0.98    0.10
  -2  -6  -2    0.96    0.07
   3  -6   2    4.99    0.20
  -3  -6  -2    4.82    0.17
  -3  -6  -2    5.28    0.20
   3   6   2    4.75    0.17
  -4  -6  -2    0.15    0.06
   4  -6   2    0.08    0.05
  -4  -6  -2    0.05    0.04
   4   6   2    0.05    0.05
   5  -6   2    1.58    0.13
  -5  -6  -2    1.55    0.11
   5   6   2    1.51    0.11
  -5  -7   2    0.28    0.06
   5   7  -2    0.20    0.06
   4  -7  -2    1.72    0.13
  -4  -7   2    1.49    0.11
   4   7  -2    1.64    0.11
  -3  -7   2    3.94    0.17
   3  -7  -2    3.71    0.18
  -3  -7   2    3.76    0.15
   3   7  -2    3.88    0.16
   2  -7  -2    1.66    0.09
   2  -7  -2    1.63    0.12
  -2  -7   2    1.57    0.10
  -2  -7   2    1.94    0.12
   2   7  -2    1.61    0.10
  -1  -7   2    5.95    0.18
   1  -7  -2    5.88    0.23
   1  -7  -2    5.83    0.18
  -1  -7   2    6.13    0.22
   1   7  -2    6.28    0.19
   0  -7  -2    1.62    0.09
   0  -7   2    1.51    0.11
   0  -7  -2    1.64    0.12
   0  -7   2    1.59    0.09
   0   7  -2    1.51    0.09
   1  -7   2    4.04    0.13
  -1  -7  -2    3.96    0.15
   1  -7   2    4.25    0.18
  -1  -7  -2    3.94    0.18
  -1   7  -2    4.15    0.14
  -2  -7  -2    0.95    0.08
   2  -7   2    0.77    0.09
  -2  -7  -2    0.77    0.09
   2   7   2    0.76    0.08
  -3  -7  -2    0.72    0.08
  -3  -7  -2    0.68    0.09
   3  -7   2    0.72    0.09
   3   7   2    0.86    0.08
  -4  -7  -2    1.28    0.12
  -4  -7  -2    1.21    0.10
   4  -7   2    1.28    0.12
   4   7   2    1.20    0.10
  -5  -7  -2    1.04    0.10
   5  -7   2    0.88    0.11
   5   7   2    0.93    0.09
   5   8  -2    0.26    0.07
   4  -8  -2    0.15    0.07
  -4  -8   2    0.10    0.05
   4   8  -2    0.21    0.06
  -3  -8   2    0.37    0.06
   3  -8  -2    0.38    0.08
   3   8  -2    0.32    0.06
  -2  -8   2    1.12    0.11
   2  -8  -2    1.27    0.09
  -2  -8   2    1.19    0.09
   2  -8  -2    1.15    0.11
   2   8  -2    1.16    0.09
   1  -8  -2    1.59    0.10
   1  -8  -2    1.61    0.12
  -1  -8   2    1.33    0.11
  -1  -8   2    1.53    0.09
   1   8  -2    1.57    0.10
   0  -8  -2    0.68    0.09
   0  -8  -2    0.58    0.07
   0  -8   2    0.76    0.07
   0  -8   2    0.73    0.09
   0   8  -2    0.80    0.07
  -1  -8  -2    0.45    0.07
   1  -8   2    0.42    0.08
   1  -8   2    0.51    0.06
  -1  -8  -2    0.58    0.09
  -1   8  -2    0.40    0.06
  -2  -8  -2    0.30    0.06
   2  -8   2    0.20    0.07
  -2  -8  -2    0.30    0.07
   2   8   2    0.26    0.06
   3  -8   2    0.57    0.09
  -3  -8  -2    0.61    0.10
  -3  -8  -2    0.72    0.08
   3   8   2    0.64    0.08
  -4  -8  -2    0.20    0.06
  -4  -8  -2    0.31    0.08
   4  -8   2    0.24    0.08
   4   8   2    0.19    0.06
  -5  -8  -2    0.33    0.07
   5  -8   2    0.32    0.09
   5   8   2    0.43    0.08
   4  -9  -2    1.01    0.13
  -3  -9   2    0.69    0.08
   3  -9  -2    0.52    0.09
   3   9  -2    0.67    0.09
   2  -9  -2    0.78    0.11
  -2  -9   2    0.75    0.08
  -2  -9   2    0.81    0.10
   2   9  -2    0.68    0.08
  -1  -9   2    0.67    0.09
   1  -9  -2    0.91    0.11
   1  -9  -2    0.83    0.08
  -1  -9   2    0.97    0.09
   1   9  -2    0.87    0.09
   0  -9  -2    0.18    0.05
   0  -9  -2    0.07    0.07
   0  -9   2    0.12    0.06
   0  -9   2    0.09    0.05
   0   9  -2    0.17    0.05
  -1  -9  -2    3.00    0.14
   1  -9   2    2.73    0.17
  -1  -9  -2    2.65    0.17
   1   9   2    2.83    0.14
   2  -9   2    0.53    0.09
  -2  -9  -2    0.45    0.07
  -2  -9  -2    0.50    0.09
   2   9   2    0.44    0.07
  -3  -9  -2    0.19    0.06
  -3  -9  -2    0.28    0.08
   3  -9   2    0.17    0.08
   3   9   2    0.25    0.07
  -4  -9  -2   -0.01    0.07
   4  -9   2    0.18    0.08
   3 -10  -2    0.40    0.10
   2 -10  -2    0.02    0.06
  -2 -10   2    0.09    0.07
  -2 -10   2   -0.09    0.05
   2  10  -2    0.09    0.06
   1 -10  -2    0.11    0.07
   1 -10  -2    0.08    0.05
  -1 -10   2    0.07    0.05
  -1 -10   2    0.04    0.07
   1  10  -2    0.26    0.06
   0 -10  -2    0.26    0.08
   0 -10   2    0.27    0.06
   0 -10  -2    0.17    0.06
   0 -10   2    0.21    0.08
   0  10  -2    0.27    0.06
   0  10   2    0.26    0.07
   1 -10   2    0.44    0.10
  -1 -10  -2    0.53    0.08
  -1 -10  -2    0.56    0.10
   1  10   2    0.54    0.08
  -2 -10  -2    0.07    0.07
  -2 -10  -2    0.12    0.06
   2 -10   2   -0.01    0.06
   2  10   2    0.02    0.06
   3 -10   2    0.18    0.08
  -3 -10  -2    0.35    0.09
   7   0  -3    1.33    0.12
   6   0  -3    1.42    0.12
   5   0  -3    4.27    0.15
   5   0  -3    4.17    0.17
   4   0  -3    2.97    0.11
   3   0  -3    0.04    0.03
   2   0  -3   23.75    0.44
  -2   0   3   23.90    0.52
   1   0  -3  132.71    2.65
   1   0  -3  130.64    2.63
  -1   0   3  128.60    2.63
  -1   0   3  135.20    2.64
   0   0  -3   60.77    1.04
   0   0  -3   59.37    1.24
   0   0  -3   62.65    1.23
   0   0   3   62.47    1.23
   1   0   3   16.74    0.36
  -1   0  -3   16.23    0.37
   1   0   3   16.23    0.37
  -1   0  -3   15.99    0.35
  -1   0  -3   16.69    0.30
  -2   0  -3    1.37    0.05
   2   0   3    1.43    0.07
   2   0   3    1.33    0.07
  -2   0  -3    1.42    0.08
  -2   0  -3    1.34    0.04
   3   0   3    7.26    0.21
  -3   0  -3    7.09    0.21
   3   0   3    6.89    0.19
  -3   0  -3    7.32    0.14
   3   0   3    6.92    0.14
   4   0   3    0.19    0.06
   4   0   3    0.09    0.05
   5   0   3   16.16    0.40
   5   0   3   16.07    0.42
   6   0   3    2.39    0.14
   7   0   3    0.78    0.10
   7  -1  -3    0.07    0.06
   7   1  -3    0.10    0.06
   6  -1  -3    4.14    0.19
   6   1  -3    4.02    0.19
   5  -1  -3    0.53    0.07
   5  -1  -3    0.31    0.07
   5   1  -3    0.52    0.06
   4  -1  -3    0.36    0.05
   4  -1  -3    0.45    0.06
   4   1  -3    0.31    0.05
   3  -1  -3   95.05    1.63
  -3  -1   3   97.24    1.92
   3  -1  -3   94.71    1.88
   3  -1  -3   93.72    1.75
   3   1  -3   93.46    1.63
  -3   1   3   93.03    1.93
   3   1  -3   96.92    1.93
   2  -1  -3    0.87    0.05
  -2  -1   3    0.89    0.05
   2  -1  -3    0.85    0.04
  -2   1   3    0.83    0.06
   2   1  -3    0.85    0.06
   2   1  -3    0.85    0.05
   1  -1  -3   44.21    0.87
  -1  -1   3   43.80    0.90
   1  -1  -3   42.87    0.75
  -1   1   3   42.37    0.90
   1   1  -3   42.10    0.89
   1   1  -3   43.81    0.75
   0  -1   3   60.55    1.20
   0  -1  -3   59.86    1.20
   0  -1  -3   60.04    1.02
   0  -1   3   58.73    1.22
   0   1  -3   60.39    1.22
   0   1   3   58.05    1.21
   0   1  -3   60.80    1.02
  -1  -1  -3    5.27    0.12
   1  -1   3    5.17    0.15
  -1  -1  -3    4.96    0.15
   1  -1   3    5.13    0.14
  -1   1  -3    5.15    0.14
   1   1   3    5.13    0.13
   1   1   3    5.14    0.15
  -1   1  -3    5.24    0.11
  -2  -1  -3   39.38    0.68
   2  -1   3   39.58    0.83
   2  -1   3   39.09    0.75
  -2  -1  -3   38.78    0.83
   2   1   3   38.49    0.80
  -2   1  -3   39.65    0.82
   2   1   3   39.45    0.83
  -2   1  -3   39.25    0.68
   2   1   3   40.71    0.75
  -3  -1  -3   10.51    0.21
   3  -1   3   10.01    0.25
   3  -1   3   10.34    0.28
  -3  -1  -3   10.67    0.28
   3   1   3   10.36    0.21
   3   1   3   10.44    0.25
   3   1   3   10.61    0.28
   4  -1   3   21.39    0.51
   4  -1   3   20.65    0.47
  -4  -1  -3   21.19    0.51
   4   1   3   21.21    0.50
   4   1   3   20.82    0.46
  -5  -1  -3    0.52    0.07
   5  -1   3    0.48    0.07
   5  -1   3    0.58    0.08
   5   1   3    0.48    0.07
   5   1   3    0.49    0.07
   6  -1   3    0.61    0.09
   6   1   3    0.49    0.08
   7  -1   3    0.27    0.08
   7   1   3    0.32    0.08
   7  -2  -3    0.79    0.10
   7   2  -3    0.74    0.10
   6  -2  -3    1.07    0.11
   6   2  -3    1.12    0.09
   6   2  -3    1.06    0.10
   5  -2  -3    5.54    0.20
   5   2  -3    5.69    0.18
   4  -2  -3    0.81    0.07
   4  -2  -3    0.89    0.08
   4   2  -3    0.92    0.08
  -3  -2   3    4.85    0.14
   3  -2  -3    4.89    0.14
   3  -2  -3    4.80    0.14
   3  -2  -3    4.92    0.15
   3   2  -3    4.80    0.15
   3   2  -3    4.87    0.14
   2  -2  -3    7.14    0.17
  -2  -2   3    7.31    0.17
  -2  -2   3    7.44    0.19
   2  -2  -3    7.25    0.17
   2  -2  -3    7.34    0.18
   2   2  -3    7.30    0.19
   2   2  -3    7.12    0.17
  -1  -2   3  199.94    4.08
   1  -2  -3  207.38    4.10
   1  -2  -3  207.07    3.43
  -1  -2   3  203.41    4.09
   1   2  -3  209.56    4.17
   1   2  -3  206.37    3.49
   0  -2  -3   70.65    1.45
   0  -2  -3   72.12    1.23
   0   2  -3   74.33    1.22
   0   2  -3   69.93    1.46
  -1  -2  -3   16.56    0.32
  -1  -2  -3   16.59    0.39
   1  -2   3   17.50    0.39
  -1   2  -3   17.04    0.30
  -1   2  -3   16.49    0.38
   2  -2   3    0.34    0.05
  -2  -2  -3    0.34    0.05
  -2  -2  -3    0.41    0.04
   2   2   3    0.43    0.03
   2   2   3    0.48    0.05
   2   2   3    0.39    0.04
  -2   2  -3    0.34    0.04
  -3  -2  -3   11.37    0.30
   3  -2   3   10.99    0.28
  -3  -2  -3   11.23    0.24
   3  -2   3   11.40    0.30
   3   2   3   11.14    0.26
   3   2   3   11.24    0.30
   3   2   3   10.95    0.24
   3   2   3   11.41    0.24
   4  -2   3    3.04    0.13
  -4  -2  -3    3.18    0.10
   4  -2   3    3.38    0.15
  -4  -2  -3    3.17    0.14
   4   2   3    3.15    0.11
   4   2   3    3.13    0.14
   4   2   3    3.11    0.13
   5  -2   3    7.98    0.27
  -5  -2  -3    7.83    0.26
   5  -2   3    8.17    0.25
   5   2   3    8.10    0.26
   5   2   3    8.12    0.25
   6  -2   3    2.89    0.16
   6   2   3    3.38    0.16
   7  -2   3    1.26    0.12
   7   2   3    1.25    0.12
   7  -3  -3    0.03    0.06
   7   3  -3    0.00    0.06
   6  -3  -3    3.73    0.18
   6   3  -3    3.58    0.16
   5  -3  -3    0.94    0.09
   5   3  -3    0.73    0.07
   4  -3  -3    0.84    0.07
   4  -3  -3    0.95    0.09
   4   3  -3    0.83    0.07
   3  -3  -3    9.05    0.21
  -3  -3   3    9.02    0.22
   3  -3  -3    9.28    0.23
   3  -3  -3    9.28    0.24
   3   3  -3    9.03    0.22
  -2  -3   3   21.57    0.42
   2  -3  -3   21.41    0.41
  -2  -3   3   21.51    0.46
   2  -3  -3   21.79    0.43
   2  -3  -3   21.05    0.47
   2   3  -3   21.28    0.48
   2   3  -3   20.96    0.42
  -1  -3   3   10.98    0.24
   1  -3  -3   11.09    0.28
   1  -3  -3   11.37    0.24
   1   3  -3   11.19    0.28
   1   3  -3   11.55    0.24
   0  -3   3   11.05    0.22
   0  -3  -3   10.89    0.27
   0  -3  -3   10.86    0.23
   0   3  -3   10.89    0.28
   0   3  -3   11.13    0.22
  -1  -3  -3   20.00    0.48
  -1  -3  -3   21.37    0.40
   1  -3   3   21.41    0.38
  -1   3  -3   21.55    0.38
  -2  -3  -3   35.57    0.65
  -2  -3  -3   35.36    0.78
   2   3   3   36.26    0.68
  -2   3  -3   36.15    0.61
  -3  -3  -3    6.95    0.22
  -3  -3  -3    7.05    0.18
   3   3   3    7.31    0.23
   3   3   3    7.36    0.19
   3   3   3    7.23    0.16
   4  -3   3    4.24    0.17
  -4  -3  -3    4.41    0.17
  -4  -3  -3    4.30    0.14
   4   3   3    4.31    0.15
   4   3   3    4.32    0.14
   4   3   3    4.36    0.17
   5  -3   3    2.22    0.13
  -5  -3  -3    2.23    0.13
   5   3   3    2.41    0.13
   5   3   3    2.17    0.12
   6  -3   3    1.88    0.13
   6   3   3    1.65    0.12
   7  -3   3    0.16    0.08
   7   3   3    0.36    0.08
   7  -4  -3    0.86    0.12
   7   4  -3    0.91    0.11
   6  -4  -3    0.02    0.05
   6   4  -3    0.11    0.05
   5  -4  -3    1.43    0.11
   5   4  -3    1.35    0.10
   4  -4  -3    4.47    0.14
  -4  -4   3    4.51    0.16
   4  -4  -3    4.67    0.17
   4   4  -3    4.30    0.16
  -3  -4   3   11.08    0.27
   3  -4  -3   11.30    0.30
   3  -4  -3   11.39    0.25
   3  -4  -3   11.61    0.27
   3   4  -3   10.80    0.27
   2  -4  -3    2.60    0.11
  -2  -4   3    2.54    0.10
  -2  -4   3    2.53    0.10
   2  -4  -3    2.64    0.10
   2  -4  -3    2.75    0.09
   2   4  -3    2.64    0.10
   2   4  -3    2.65    0.11
  -1  -4   3   32.28    0.61
  -1  -4   3   32.76    0.71
   1  -4  -3   31.97    0.72
   1  -4  -3   33.31    0.61
   1   4  -3   33.33    0.61
   1   4  -3   33.70    0.72
   0  -4  -3    6.55    0.17
   0  -4   3    6.56    0.19
   0  -4   3    6.80    0.16
   0  -4  -3    6.43    0.20
   0   4  -3    6.90    0.16
   1  -4   3   15.11    0.29
  -1  -4  -3   15.14    0.38
  -1  -4  -3   15.53    0.32
  -1   4  -3   15.72    0.29
  -2  -4  -3    2.37    0.12
  -2  -4  -3    2.33    0.10
  -2   4  -3    2.57    0.07
  -3  -4  -3    1.89    0.11
  -3  -4  -3    1.82    0.09
   3   4   3    1.90    0.09
  -4  -4  -3    0.18    0.05
  -4  -4  -3    0.16    0.04
   4   4   3    0.17    0.05
   4   4   3    0.13    0.04
   4   4   3    0.14    0.05
  -5  -4  -3    4.09    0.15
  -5  -4  -3    3.98    0.18
   5   4   3    3.87    0.16
   5   4   3    4.03    0.18
   5   4   3    3.94    0.15
   6  -4   3    0.71    0.09
   6   4   3    0.85    0.09
   6  -5  -3    0.30    0.08
   6   5  -3    0.24    0.06
   5  -5  -3    1.01    0.10
   5   5  -3    0.95    0.09
  -4  -5   3    0.31    0.06
   4  -5  -3    0.29    0.06
   4  -5  -3    0.29    0.06
   4   5  -3    0.23    0.05
   3  -5  -3    9.76    0.24
   3  -5  -3   10.32    0.25
  -3  -5   3    9.43    0.25
   3  -5  -3    9.81    0.28
   3   5  -3    9.55    0.26
   2  -5  -3   21.47    0.43
   2  -5  -3   21.65    0.51
  -2  -5   3   20.65    0.44
   2   5  -3   21.50    0.44
   1  -5  -3    6.88    0.22
  -1  -5   3    7.06    0.21
  -1  -5   3    7.04    0.18
   1  -5  -3    6.93    0.18
   1   5  -3    7.10    0.18
   0  -5   3    0.49    0.06
   0  -5  -3    0.51    0.05
   0  -5   3    0.44    0.04
   0  -5  -3    0.53    0.06
   0   5  -3    0.53    0.05
   1  -5   3    4.92    0.13
  -1  -5  -3    4.95    0.15
  -1  -5  -3    4.85    0.18
   1  -5   3    5.05    0.18
  -1   5  -3    5.12    0.13
   2  -5   3    1.43    0.10
  -2  -5  -3    1.63    0.10
  -2  -5  -3    1.53    0.08
  -3  -5  -3    0.07    0.05
  -3  -5  -3    0.04    0.03
   3  -5   3    0.05    0.03
   3   5   3    0.04    0.04
   4  -5   3    0.10    0.04
  -4  -5  -3    0.29    0.05
  -4  -5  -3    0.19    0.06
   4   5   3    0.22    0.05
   4   5   3    0.29    0.07
  -5  -5  -3    1.29    0.11
  -5  -5  -3    1.13    0.09
   5  -5   3    0.63    0.09
   5   5   3    0.97    0.10
   5   5   3    1.11    0.09
   6  -5   3    0.69    0.10
   6  -6  -3    0.40    0.09
   6   6  -3    0.31    0.07
  -5  -6   3    0.63    0.08
   5  -6  -3    0.46    0.08
   5   6  -3    0.49    0.07
   4  -6  -3    4.76    0.19
  -4  -6   3    4.57    0.17
   4   6  -3    4.42    0.18
   3  -6  -3    1.41    0.11
  -3  -6   3    1.53    0.10
   3  -6  -3    1.40    0.08
   3   6  -3    1.37    0.10
  -2  -6   3    2.86    0.13
   2  -6  -3    2.98    0.12
   2  -6  -3    2.71    0.14
  -2  -6   3    2.75    0.12
   2   6  -3    2.71    0.12
   1  -6  -3    0.65    0.06
  -1  -6   3    0.70    0.06
   1  -6  -3    0.64    0.07
  -1  -6   3    0.78    0.08
   1   6  -3    0.63    0.06
   0  -6  -3    3.12    0.12
   0  -6   3    3.09    0.11
   0  -6  -3    3.58    0.16
   0  -6   3    3.42    0.15
   0   6  -3    3.38    0.12
   1  -6   3    1.78    0.11
  -1  -6  -3    1.90    0.10
   1  -6   3    1.86    0.08
  -1  -6  -3    1.90    0.12
  -1   6  -3    2.05    0.08
   2  -6   3    0.31    0.06
  -2  -6  -3    0.25    0.05
  -2  -6  -3    0.41    0.07
   3  -6   3    1.93    0.13
  -3  -6  -3    1.69    0.12
  -3  -6  -3    1.88    0.10
   3   6   3    1.87    0.11
  -4  -6  -3    1.02    0.10
  -4  -6  -3    1.01    0.08
   4  -6   3    1.06    0.11
   4   6   3    0.95    0.10
   4   6   3    0.97    0.08
  -5  -6  -3    0.79    0.08
   5  -6   3    0.62    0.10
   5   6   3    0.77    0.08
   6  -6   3    0.12    0.08
  -5  -7   3    0.63    0.09
   5   7  -3    0.50    0.08
  -4  -7   3    0.00    0.04
   4  -7  -3    0.02    0.05
   4   7  -3    0.06    0.05
   3  -7  -3    3.60    0.14
   3  -7  -3    3.50    0.17
  -3  -7   3    3.31    0.15
   3   7  -3    3.22    0.15
  -2  -7   3    2.97    0.13
   2  -7  -3    2.95    0.12
   2  -7  -3    2.82    0.15
  -2  -7   3    3.18    0.15
   2   7  -3    2.71    0.13
   1  -7  -3    1.62    0.09
   1  -7  -3    1.56    0.12
  -1  -7   3    1.66    0.09
  -1  -7   3    1.54    0.11
   1   7  -3    1.69    0.10
   0  -7  -3    0.58    0.08
   0  -7   3    0.55    0.08
   0  -7   3    0.51    0.06
   0  -7  -3    0.37    0.05
   0   7  -3    0.55    0.06
  -1  -7  -3    0.67    0.07
   1  -7   3    0.72    0.06
   1  -7   3    0.68    0.08
  -1  -7  -3    0.58    0.08
  -1   7  -3    0.78    0.06
   2  -7   3    0.53    0.08
  -2  -7  -3    0.41    0.06
  -2  -7  -3    0.28    0.07
  -3  -7  -3    0.79    0.08
  -3  -7  -3    0.97    0.10
   3  -7   3    1.12    0.11
   3   7   3    0.95    0.08
  -4  -7  -3    0.79    0.10
   4  -7   3    0.67    0.10
  -4  -7  -3    0.82    0.08
   4   7   3    0.74    0.08
   5  -7   3    0.15    0.08
  -5  -7  -3    0.26    0.06
   5   7   3    0.24    0.06
  -4  -8   3    0.65    0.08
   4  -8  -3    0.68    0.10
   4   8  -3    0.67    0.09
   3  -8  -3    0.97    0.11
  -3  -8   3    0.69    0.08
   3   8  -3    0.81    0.09
  -2  -8   3    1.08    0.10
   2  -8  -3    0.96    0.08
  -2  -8   3    0.98    0.09
   2  -8  -3    1.01    0.11
   2   8  -3    1.12    0.09
  -1  -8   3    0.52    0.08
   1  -8  -3    0.37    0.07
   1  -8  -3    0.43    0.06
  -1  -8   3    0.48    0.06
   1   8  -3    0.39    0.06
   0  -8  -3    3.75    0.19
   0  -8   3    4.14    0.19
   0  -8  -3    4.08    0.16
   0  -8   3    4.07    0.15
   0   8  -3    3.98    0.15
  -1  -8  -3    0.68    0.09
  -1  -8  -3    0.81    0.08
   1  -8   3    0.84    0.10
  -2  -8  -3    0.52    0.07
   2  -8   3    0.60    0.09
  -2  -8  -3    0.59    0.09
  -3  -8  -3    1.23    0.12
   3  -8   3    1.38    0.13
  -3  -8  -3    1.31    0.10
   3   8   3    1.30    0.10
  -4  -8  -3    0.25    0.08
  -4  -8  -3    0.20    0.06
   4  -8   3    0.19    0.08
   4   8   3    0.21    0.06
   5  -8   3    0.00    0.07
   4  -9  -3   -0.01    0.07
   3  -9  -3    0.05    0.07
  -3  -9   3    0.15    0.06
   3   9  -3    0.11    0.06
  -2  -9   3    0.65    0.09
   2  -9  -3    0.43    0.09
  -2  -9   3    0.67    0.08
   2  -9  -3    0.47    0.07
   2   9  -3    0.38    0.07
   1  -9  -3   -0.05    0.06
  -1  -9   3    0.06    0.06
  -1  -9   3    0.02    0.04
   1  -9  -3    0.05    0.04
   1   9  -3    0.01    0.05
   0  -9   3    0.73    0.07
   0  -9  -3    0.68    0.08
   0  -9   3    0.66    0.10
   0  -9  -3    0.72    0.10
   0   9  -3    0.58    0.07
  -1  -9  -3    1.37    0.11
   1  -9   3    1.46    0.13
  -1  -9  -3    1.41    0.13
   2  -9   3    0.06    0.07
  -2  -9  -3    0.07    0.05
  -2  -9  -3    0.10    0.07
   2   9   3   -0.02    0.04
  -3  -9  -3    0.22    0.06
  -3  -9  -3    0.09    0.07
   3  -9   3    0.10    0.07
   3   9   3    0.17    0.06
  -4  -9  -3    0.23    0.09
   4  -9   3    0.43    0.10
  -2 -10   3    0.06    0.07
  -2 -10   3   -0.01    0.05
   2 -10  -3    0.03    0.07
   2  10  -3    0.15    0.06
   1 -10  -3    0.03    0.05
  -1 -10   3    0.05    0.05
  -1 -10   3    0.05    0.07
   1 -10  -3    0.09    0.07
   1  10  -3    0.14    0.06
   0 -10  -3    1.32    0.13
   0 -10   3    1.20    0.13
   0 -10  -3    1.27    0.11
  -1 -10  -3    0.52    0.08
  -1 -10  -3    0.45    0.10
   1 -10   3    0.55    0.10
   1  10   3    0.46    0.08
  -2 -10  -3    0.29    0.07
   2 -10   3    0.24    0.08
  -2 -10  -3    0.32    0.09
   2  10   3    0.22    0.07
   7   0  -4    0.05    0.06
   6   0  -4   -0.03    0.05
   5   0  -4    3.80    0.15
   5   0  -4    4.16    0.17
   4   0  -4    1.28    0.08
  -3   0   4   45.54    0.98
   3   0  -4   46.14    0.83
  -2   0   4    2.30    0.10
   2   0  -4    2.14    0.09
   1   0  -4    1.01    0.06
   1   0  -4    0.98    0.05
   1   0  -4    0.93    0.06
  -1   0   4    1.07    0.05
  -1   0   4    0.98    0.06
   0   0  -4   10.07    0.25
   0   0   4    9.99    0.24
   0   0   4    9.72    0.24
   0   0  -4   10.00    0.24
   0   0  -4    9.96    0.21
  -1   0  -4   11.41    0.26
  -1   0  -4   11.07    0.22
   1   0   4   10.93    0.27
   1   0   4   11.00    0.26
  -1   0  -4   11.11    0.27
   2   0   4   51.44    1.08
   2   0   4   49.25    1.06
   2   0   4   53.43    0.97
  -2   0  -4   50.96    1.08
  -2   0  -4   53.33    1.06
  -2   0  -4   52.06    0.88
   3   0   4    8.66    0.22
  -3   0  -4    8.41    0.25
  -3   0  -4    8.56    0.17
   3   0   4    8.36    0.25
   4   0   4    5.74    0.20
   4   0   4    5.30    0.18
   5   0   4    0.70    0.09
   5   0   4    0.64    0.08
   6   0   4    0.02    0.05
   6   0   4    0.02    0.05
   7   0   4    1.60    0.13
   7  -1  -4    0.66    0.10
   7   1  -4    0.64    0.10
   6  -1  -4    0.08    0.06
   6   1  -4    0.02    0.06
   6   1  -4    0.03    0.05
   5  -1  -4    2.66    0.14
   5  -1  -4    2.64    0.13
   5   1  -4    2.79    0.13
   4  -1  -4   10.97    0.28
   4  -1  -4   10.76    0.26
   4   1  -4   10.76    0.26
   3  -1  -4    4.00    0.13
  -3  -1   4    3.99    0.14
   3   1  -4    4.01    0.13
  -3   1   4    4.06    0.15
   3   1  -4    4.05    0.15
   2  -1  -4   52.71    1.05
  -2  -1   4   53.93    1.09
   2   1  -4   52.64    0.92
  -2   1   4   50.37    1.10
   2   1  -4   51.92    1.10
   1  -1  -4   53.08    0.94
   1  -1  -4   54.08    1.08
  -1  -1   4   54.63    1.08
  -1  -1   4   55.43    1.11
  -1   1   4   52.67    1.11
   1   1  -4   52.84    0.93
   1   1  -4   52.54    1.11
   0  -1   4   87.10    1.74
   0  -1  -4   86.58    1.48
   0  -1   4   90.02    1.77
   0  -1  -4   87.57    1.75
   0   1   4   83.03    1.76
   0   1  -4   86.37    1.48
   0   1  -4   88.88    1.77
   0   1   4   87.57    1.75
  -1  -1  -4    2.63    0.08
   1  -1   4    2.52    0.10
  -1  -1  -4    2.54    0.10
   1  -1   4    2.51    0.09
   1   1   4    2.57    0.09
  -1   1  -4    2.54    0.09
   1   1   4    2.48    0.10
  -1   1  -4    2.72    0.07
  -2  -1  -4   18.37    0.43
   2  -1   4   17.88    0.43
  -2  -1  -4   18.36    0.34
  -2   1  -4   18.26    0.41
   2   1   4   18.33    0.43
   2   1   4   18.45    0.37
  -2   1  -4   18.55    0.32
   2   1   4   17.58    0.40
   3  -1   4    1.61    0.08
   3  -1   4    1.67    0.10
  -3  -1  -4    1.52    0.09
  -3  -1  -4    1.56    0.06
   3   1   4    1.60    0.08
   3   1   4    1.53    0.09
   4  -1   4   12.39    0.34
   4  -1   4   12.76    0.32
  -4  -1  -4   11.98    0.34
   4   1   4   12.43    0.31
   4   1   4   12.02    0.34
  -5  -1  -4    8.72    0.28
   5  -1   4    9.12    0.29
   5  -1   4    8.96    0.27
   5   1   4    8.84    0.29
   5   1   4    8.83    0.26
   6  -1   4    0.25    0.07
   6  -1   4    0.13    0.06
   6   1   4    0.09    0.05
   7  -1   4    0.22    0.08
   7   1   4    0.04    0.06
   7  -2  -4    0.09    0.07
   7   2  -4    0.17    0.07
   6  -2  -4    0.61    0.09
   6   2  -4    0.52    0.07
   5  -2  -4    2.55    0.14
   5  -2  -4    2.78    0.12
   5   2  -4    2.44    0.12
   4  -2  -4    4.20    0.15
   4  -2  -4    4.54    0.16
   4   2  -4    4.33    0.15
   3  -2  -4    3.05    0.10
   3  -2  -4    3.05    0.11
   3  -2  -4    3.05    0.12
   3   2  -4    3.09    0.12
  -2  -2   4    5.91    0.17
   2  -2  -4    5.60    0.15
   2  -2  -4    6.00    0.15
  -2  -2   4    5.85    0.14
   2  -2  -4    5.85    0.16
   2   2  -4    5.68    0.15
   2   2  -4    5.58    0.17
   1  -2  -4   52.01    1.06
   1  -2  -4   50.90    0.91
  -1  -2   4   53.39    1.08
   1   2  -4   50.25    1.08
   1   2  -4   52.19    0.91
   0  -2  -4    1.72    0.07
   0  -2   4    1.90    0.08
   0  -2  -4    1.80    0.08
   0  -2   4    1.71    0.08
   0   2  -4    1.70    0.07
   0   2  -4    1.76    0.08
   1  -2   4    9.87    0.26
  -1  -2  -4    9.98    0.21
  -1  -2  -4    9.68    0.26
  -1   2  -4   10.03    0.20
  -1   2  -4   10.32    0.26
   1   2   4    9.73    0.24
   1   2   4    9.89    0.26
  -2  -2  -4   11.65    0.31
  -2  -2  -4   11.86    0.24
   2  -2   4   11.56    0.30
   2   2   4   11.60    0.31
   2   2   4   12.01    0.27
   2   2   4   11.79    0.25
  -2   2  -4   11.63    0.21
   3  -2   4    3.95    0.16
  -3  -2  -4    3.96    0.15
  -3  -2  -4    3.81    0.11
   3   2   4    3.81    0.11
   3   2   4    3.71    0.15
   3   2   4    3.83    0.13
   4  -2   4    9.16    0.28
  -4  -2  -4    9.25    0.21
  -4  -2  -4    9.33    0.28
   4  -2   4    9.16    0.26
   4   2   4    9.32    0.21
   4   2   4    9.22    0.28
   4   2   4    9.19    0.25
  -5  -2  -4    1.08    0.10
   5  -2   4    1.15    0.11
   5  -2   4    1.12    0.10
   5   2   4    0.95    0.09
   5   2   4    1.21    0.11
   6  -2   4    0.31    0.07
   6  -2   4    0.33    0.07
   6   2   4    0.25    0.07
   7  -2   4    1.29    0.13
   7   2   4    1.16    0.12
   7  -3  -4    0.46    0.10
   7   3  -4    0.44    0.09
   6  -3  -4    0.06    0.06
   6   3  -4    0.05    0.05
   5  -3  -4    3.38    0.16
   5   3  -4    3.51    0.15
   4  -3  -4    2.08    0.11
   4  -3  -4    1.97    0.11
   4   3  -4    1.87    0.10
   3  -3  -4   14.50    0.31
   3  -3  -4   14.22    0.34
   3  -3  -4   14.45    0.33
   3   3  -4   14.33    0.32
   2  -3  -4   23.93    0.47
   2  -3  -4   25.04    0.48
   2  -3  -4   23.83    0.53
  -2  -3   4   24.44    0.52
   2   3  -4   24.48    0.55
   2   3  -4   23.98    0.47
   1  -3  -4   34.99    0.64
  -1  -3   4   36.18    0.74
   1  -3  -4   34.43    0.75
   1   3  -4   35.46    0.64
   0  -3  -4   20.41    0.48
   0  -3  -4   20.61    0.40
   0   3  -4   21.25    0.39
   0   3  -4   20.95    0.48
  -1  -3  -4    3.73    0.11
  -1  -3  -4    3.69    0.14
  -1   3  -4    3.81    0.10
  -1   3  -4    3.81    0.14
   2  -3   4    2.55    0.13
  -2  -3  -4    3.24    0.14
  -2  -3  -4    3.42    0.11
   2   3   4    3.45    0.10
   2   3   4    3.49    0.14
   3  -3   4    4.02    0.18
  -3  -3  -4    4.39    0.13
  -3  -3  -4    4.57    0.18
   3   3   4    4.59    0.17
   3   3   4    4.59    0.14
   3   3   4    4.47    0.12
   4  -3   4    3.84    0.20
  -4  -3  -4    5.12    0.15
  -4  -3  -4    5.02    0.20
   4   3   4    5.10    0.17
   4   3   4    5.07    0.15
   4   3   4    5.05    0.20
   5  -3   4   11.01    0.32
  -5  -3  -4   11.49    0.34
   5   3   4   11.15    0.34
   5   3   4   11.28    0.30
   6  -3   4    0.11    0.06
   6   3   4    0.06    0.05
   7  -3   4    0.00    0.07
   7   3   4    0.04    0.07
   7  -4  -4    0.44    0.10
   7   4  -4    0.45    0.08
   6  -4  -4    0.31    0.08
   6   4  -4    0.31    0.07
   5  -4  -4    0.27    0.07
   5   4  -4    0.18    0.05
   4  -4  -4    5.01    0.16
   4  -4  -4    4.81    0.17
   4   4  -4    4.72    0.17
   3  -4  -4    6.61    0.18
  -3  -4   4    6.35    0.19
   3  -4  -4    6.60    0.18
   3  -4  -4    6.39    0.20
   3   4  -4    6.32    0.19
   2  -4  -4    8.21    0.21
   2  -4  -4    8.36    0.24
  -2  -4   4    8.30    0.22
   2  -4  -4    8.49    0.20
  -2  -4   4    8.38    0.21
   2   4  -4    8.44    0.21
  -1  -4   4    6.34    0.19
  -1  -4   4    6.56    0.17
   1  -4  -4    6.63    0.20
   1  -4  -4    6.40    0.17
   1   4  -4    6.44    0.20
   1   4  -4    6.72    0.17
   0  -4   4    3.60    0.14
   0  -4  -4    3.94    0.12
   0  -4   4    3.89    0.11
   0  -4  -4    3.82    0.15
   0   4  -4    3.97    0.15
   0   4  -4    3.99    0.11
  -1  -4  -4   10.54    0.24
   1  -4   4   10.74    0.22
  -1  -4  -4   10.44    0.29
  -1   4  -4   10.91    0.22
  -1   4  -4   10.52    0.29
  -2  -4  -4    9.16    0.22
  -2  -4  -4    8.28    0.26
  -3  -4  -4    1.45    0.08
  -3  -4  -4    1.50    0.11
   3   4   4    1.44    0.06
   3   4   4    1.43    0.11
  -4  -4  -4    5.12    0.16
  -4  -4  -4    5.70    0.21
   4   4   4    5.66    0.17
   4   4   4    5.45    0.21
  -5  -4  -4    1.93    0.13
   5   4   4    2.01    0.14
   6  -5  -4    0.32    0.08
   6   5  -4    0.24    0.07
   5  -5  -4    1.17    0.10
   5   5  -4    1.03    0.09
   4  -5  -4    0.31    0.05
   4  -5  -4    0.25    0.06
   4   5  -4    0.19    0.06
   3  -5  -4    7.99    0.25
  -3  -5   4    7.94    0.22
   3  -5  -4    8.09    0.21
   3   5  -4    7.92    0.23
   2  -5  -4    1.08    0.09
  -2  -5   4    1.15    0.08
  -2  -5   4    1.13    0.08
   2  -5  -4    1.17    0.08
   2   5  -4    1.01    0.08
   1  -5  -4    4.14    0.17
  -1  -5   4    4.35    0.16
  -1  -5   4    4.34    0.14
   1  -5  -4    4.31    0.14
   1   5  -4    4.24    0.14
   0  -5   4    1.69    0.10
   0  -5  -4    1.75    0.09
   0  -5  -4    1.80    0.11
   0  -5   4    1.72    0.08
   0   5  -4    1.71    0.08
  -1  -5  -4    3.16    0.14
  -1  -5  -4    3.12    0.12
   1  -5   4    3.14    0.10
   1  -5   4    3.42    0.15
  -1   5  -4    3.12    0.10
  -2  -5  -4    2.39    0.11
  -2  -5  -4    2.53    0.14
  -3  -5  -4    4.23    0.18
  -3  -5  -4    4.19    0.15
  -4  -5  -4    4.24    0.19
  -4  -5  -4    4.42    0.16
   4   5   4    4.37    0.19
   4   5   4    4.24    0.16
  -5  -5  -4    2.02    0.14
  -5  -5  -4    2.02    0.11
   5   5   4    2.00    0.11
   5   5   4    1.87    0.14
   6  -5   4    0.17    0.06
   6   6  -4   -0.01    0.06
   5   6  -4    2.85    0.15
  -4  -6   4    1.08    0.09
   4   6  -4    1.18    0.10
  -3  -6   4    1.99    0.11
   3  -6  -4    2.20    0.11
   3  -6  -4    2.23    0.13
   3   6  -4    2.22    0.12
   2  -6  -4    2.61    0.11
  -2  -6   4    2.67    0.12
   2  -6  -4    2.78    0.14
   2   6  -4    2.52    0.12
  -1  -6   4    0.65    0.06
  -1  -6   4    0.92    0.09
   1  -6  -4    0.75    0.07
   1  -6  -4    0.69    0.08
   1   6  -4    0.73    0.07
   0  -6   4    3.29    0.12
   0  -6  -4    3.16    0.13
   0  -6   4    3.23    0.15
   0  -6  -4    3.42    0.16
   0   6  -4    3.35    0.12
   1  -6   4    2.80    0.10
  -1  -6  -4    2.78    0.14
   1  -6   4    2.70    0.14
  -1  -6  -4    2.65    0.12
  -1   6  -4    2.69    0.10
  -2  -6  -4    7.22    0.25
  -2  -6  -4    7.03    0.21
   2  -6   4    7.53    0.26
   3  -6   4    2.06    0.14
  -3  -6  -4    2.42    0.14
  -3  -6  -4    2.31    0.11
  -4  -6  -4    1.65    0.13
   4  -6   4    1.52    0.13
  -4  -6  -4    1.33    0.10
   4   6   4    1.42    0.10
   4   6   4    1.53    0.12
  -5  -6  -4    1.23    0.10
  -5  -6  -4    1.18    0.12
   5  -6   4    1.06    0.12
   5   6   4    1.07    0.09
   5   6   4    1.23    0.12
   6  -6   4    0.29    0.11
   5   7  -4    0.52    0.08
  -4  -7   4    0.45    0.07
   4   7  -4    0.62    0.08
   3  -7  -4    0.09    0.05
  -3  -7   4    0.08    0.05
   3  -7  -4    0.17    0.05
   3   7  -4    0.12    0.05
  -2  -7   4    0.62    0.07
   2  -7  -4    0.67    0.08
  -2  -7   4    0.84    0.08
   2  -7  -4    0.60    0.06
   2   7  -4    0.50    0.07
  -1  -7   4    3.09    0.13
   1  -7  -4    3.00    0.13
   1  -7  -4    2.81    0.15
  -1  -7   4    3.29    0.16
   1   7  -4    3.21    0.13
   0  -7   4    1.69    0.12
   0  -7  -4    1.88    0.10
   0  -7  -4    1.59    0.12
   0  -7   4    1.93    0.10
   0   7  -4    1.88    0.10
  -1  -7  -4    0.65    0.09
  -1  -7  -4    0.53    0.07
   1  -7   4    0.61    0.08
  -2  -7  -4    0.50    0.08
  -2  -7  -4    0.53    0.06
   2  -7   4    0.54    0.09
  -3  -7  -4    1.61    0.10
  -3  -7  -4    1.64    0.13
   3  -7   4    1.54    0.13
   3   7   4    1.31    0.10
  -4  -7  -4    2.75    0.14
  -4  -7  -4    2.94    0.17
   4  -7   4    2.80    0.18
   4   7   4    2.81    0.14
   4   7   4    2.66    0.17
   5  -7   4   -0.01    0.07
  -5  -7  -4    0.32    0.09
  -5  -7  -4    0.27    0.06
   5   7   4    0.15    0.07
   5   7   4    0.18    0.06
  -4  -8   4    0.41    0.08
   4   8  -4    0.53    0.08
  -3  -8   4    0.03    0.05
   3  -8  -4    0.07    0.06
   3   8  -4    0.14    0.05
  -2  -8   4    0.22    0.06
   2  -8  -4    0.08    0.06
  -2  -8   4    0.20    0.05
   2  -8  -4    0.14    0.05
   2   8  -4    0.06    0.05
   1  -8  -4    0.21    0.07
  -1  -8   4    0.11    0.06
  -1  -8   4    0.22    0.05
   1  -8  -4    0.19    0.05
   1   8  -4    0.18    0.05
   0  -8  -4    1.51    0.10
   0  -8  -4    1.18    0.11
   0  -8   4    1.24    0.09
   0  -8   4    1.29    0.11
   0   8  -4    1.24    0.09
  -1  -8  -4    0.01    0.04
  -1  -8  -4    0.03    0.05
   1  -8   4   -0.02    0.05
   2  -8   4    2.00    0.15
  -2  -8  -4    1.88    0.11
  -2  -8  -4    1.99    0.14
   3  -8   4    1.39    0.14
  -3  -8  -4    1.26    0.10
  -3  -8  -4    1.20    0.13
   3   8   4    1.13    0.10
  -4  -8  -4    0.15    0.06
   4  -8   4    0.07    0.07
  -4  -8  -4    0.17    0.08
   4   8   4    0.22    0.06
  -3  -9   4    0.76    0.09
   3  -9  -4    0.74    0.11
   3   9  -4    0.47    0.08
   2  -9  -4    0.18    0.06
  -2  -9   4    0.19    0.06
  -2  -9   4    0.19    0.07
   2  -9  -4    0.27    0.08
   2   9  -4    0.18    0.06
  -1  -9   4    0.75    0.08
  -1  -9   4    0.75    0.10
   1  -9  -4    0.71    0.08
   1  -9  -4    0.86    0.11
   1   9  -4    0.74    0.08
   0  -9   4    0.24    0.07
   0  -9  -4    0.28    0.06
   0  -9  -4    0.25    0.08
  -1  -9  -4    0.07    0.06
  -1  -9  -4    0.02    0.05
   1  -9   4   -0.01    0.05
  -2  -9  -4    0.19    0.06
  -2  -9  -4    0.26    0.08
   2  -9   4    0.28    0.08
  -3  -9  -4    0.40    0.07
   3  -9   4    0.58    0.11
  -3  -9  -4    0.41    0.10
   3   9   4    0.46    0.08
  -2 -10   4    0.46    0.08
   2 -10  -4    0.44    0.10
   2  10  -4    0.46    0.08
   1 -10  -4    0.23    0.06
  -1 -10   4    0.15    0.08
   1 -10  -4    0.11    0.08
  -1 -10   4    0.27    0.07
   1  10  -4    0.29    0.07
   0 -10   4    0.09    0.07
   0 -10  -4    0.17    0.08
   0 -10  -4    0.03    0.05
   1 -10   4    0.11    0.07
  -1 -10  -4    0.03    0.05
  -1 -10  -4    0.07    0.07
   2 -10   4    0.28    0.09
  -2 -10  -4    0.15    0.09
   7   0  -5    1.54    0.13
   6   0  -5    1.30    0.12
   6   0  -5    1.41    0.11
   5   0  -5    1.14    0.10
   4   0  -5    8.11    0.23
   3   0  -5   16.04    0.35
  -2   0   5    0.00    0.02
   2   0  -5    0.00    0.03
   2   0  -5    0.02    0.04
  -2   0   5    0.01    0.03
   2   0  -5   -0.01    0.02
   1   0  -5    0.11    0.03
  -1   0   5    0.12    0.03
   1   0  -5    0.13    0.04
   1   0  -5    0.10    0.03
  -1   0   5    0.10    0.03
   0   0   5    0.26    0.04
   0   0   5    0.22    0.04
   0   0  -5    0.28    0.04
   0   0  -5    0.22    0.03
   0   0  -5    0.21    0.04
  -1   0  -5    0.48    0.05
  -1   0  -5    0.50    0.04
   1   0   5    0.49    0.04
   1   0   5    0.51    0.05
  -1   0  -5    0.40    0.05
   2   0   5   57.08    1.19
  -2   0  -5   58.63    0.99
   2   0   5   57.37    1.21
  -2   0  -5   57.23    1.21
   3   0   5    8.39    0.22
  -3   0  -5    9.14    0.27
   3   0   5    8.66    0.26
   4   0   5   10.26    0.27
   4   0   5   10.26    0.31
   5   0   5    1.55    0.12
   5   0   5    1.67    0.11
   6   0   5    2.07    0.14
   6   0   5    2.04    0.13
   7   0   5    1.46    0.13
   7  -1  -5    2.55    0.16
   7   1  -5    2.53    0.17
   6  -1  -5    0.02    0.06
   6   1  -5   -0.03    0.05
   6   1  -5    0.11    0.06
   5  -1  -5    0.07    0.05
   5  -1  -5    0.16    0.06
   5   1  -5    0.07    0.05
   4  -1  -5    0.39    0.07
   4  -1  -5    0.42    0.06
   4   1  -5    0.36    0.06
   3  -1  -5    0.73    0.07
   3   1  -5    0.75    0.06
   2  -1  -5    4.91    0.13
  -2  -1   5    5.11    0.16
   2   1  -5    5.00    0.15
  -2   1   5    4.69    0.17
  -2   1   5    5.24    0.13
   2   1  -5    5.02    0.17
  -1  -1   5    7.95    0.20
   1  -1  -5    8.06    0.19
  -1  -1   5    8.35    0.23
   1  -1  -5    7.93    0.20
  -1   1   5    7.91    0.20
   1   1  -5    8.15    0.23
   1   1  -5    8.06    0.19
  -1   1   5    7.98    0.23
   0  -1   5  135.27    2.68
   0  -1   5  140.62    2.72
   0  -1  -5  133.96    2.69
   0  -1  -5  131.38    2.28
   0   1   5  134.57    2.69
   0   1   5  136.31    2.72
   0   1  -5  135.21    2.72
   0   1  -5  132.36    2.27
   1  -1   5   23.31    0.53
  -1  -1  -5   23.53    0.43
  -1  -1  -5   23.16    0.53
   1  -1   5   22.95    0.52
  -1   1  -5   23.42    0.43
  -1   1  -5   23.71    0.52
   1   1   5   23.52    0.52
   1   1   5   23.46    0.53
  -2  -1  -5   35.64    0.78
  -2  -1  -5   36.15    0.63
   2  -1   5   34.84    0.77
  -2   1  -5   35.98    0.61
   2   1   5   35.94    0.68
   2   1   5   34.60    0.78
   2   1   5   34.00    0.75
   3  -1   5    1.05    0.10
  -3  -1  -5    0.93    0.08
  -3  -1  -5    0.99    0.05
   3   1   5    0.99    0.09
   3   1   5    0.86    0.07
   3   1   5    0.96    0.06
  -4  -1  -5    6.86    0.24
   4  -1   5    6.97    0.24
   4  -1   5    6.68    0.21
   4   1   5    6.98    0.21
   4   1   5    6.96    0.24
  -5  -1  -5    0.64    0.08
   5  -1   5    0.55    0.08
   5  -1   5    0.62    0.08
   5   1   5    0.71    0.08
   5   1   5    0.71    0.09
   6  -1   5    1.77    0.14
   6  -1   5    1.61    0.12
   6   1   5    1.71    0.12
   6   1   5    1.77    0.14
   7  -1   5    1.21    0.12
   7   1   5    1.17    0.12
   7  -2  -5    0.35    0.09
   7   2  -5    0.43    0.09
   6  -2  -5    2.26    0.14
   6   2  -5    2.31    0.13
   5  -2  -5    0.93    0.08
   5  -2  -5    0.81    0.08
   5   2  -5    0.87    0.08
   4  -2  -5    2.58    0.12
   4  -2  -5    2.77    0.12
   4   2  -5    2.57    0.13
   3  -2  -5    2.38    0.10
   3  -2  -5    2.16    0.10
   3   2  -5    2.27    0.11
   2  -2  -5   10.43    0.24
   2  -2  -5   10.66    0.23
  -2  -2   5   10.51    0.24
   2  -2  -5    9.95    0.25
  -2  -2   5   10.75    0.28
  -2   2   5   10.45    0.29
   2   2  -5    9.58    0.28
   1  -2  -5    8.75    0.21
  -1  -2   5    8.69    0.24
   1  -2  -5    8.67    0.23
   1   2  -5    8.67    0.24
   1   2  -5    8.92    0.20
   0  -2   5    0.33    0.04
   0  -2  -5    0.30    0.04
   0  -2  -5    0.27    0.04
   0  -2   5    0.33    0.04
   0   2  -5    0.30    0.04
   0   2  -5    0.37    0.04
   0   2   5    0.33    0.04
  -1  -2  -5    2.43    0.11
   1  -2   5    2.45    0.11
  -1  -2  -5    2.54    0.09
   1   2   5    2.42    0.11
   1   2   5    2.58    0.10
  -1   2  -5    2.77    0.11
  -1   2  -5    2.45    0.08
  -2  -2  -5   15.30    0.31
   2  -2   5   15.06    0.38
  -2  -2  -5   14.92    0.39
   2   2   5   15.23    0.35
  -2   2  -5   15.41    0.28
   2   2   5   14.84    0.38
   2   2   5   15.41    0.31
   3  -2   5    2.51    0.13
  -3  -2  -5    2.39    0.13
  -3  -2  -5    2.58    0.09
   3   2   5    2.61    0.13
   3   2   5    2.53    0.10
   3   2   5    2.51    0.09
   4  -2   5    2.46    0.14
  -4  -2  -5    2.83    0.15
   4   2   5    2.62    0.12
   4   2   5    2.73    0.15
   5  -2   5    4.44    0.18
   5  -2   5    4.43    0.20
  -5  -2  -5    4.35    0.20
   5   2   5    4.41    0.17
   5   2   5    4.33    0.20
  -6  -2  -5    1.58    0.13
   6  -2   5    1.68    0.14
   6  -2   5    1.68    0.13
   6   2   5    1.47    0.13
   6   2   5    1.67    0.12
   7  -2   5    1.64    0.14
   7   2   5    1.70    0.14
   7  -3  -5    0.36    0.09
   7   3  -5    0.36    0.08
   6  -3  -5    0.21    0.07
   6   3  -5    0.15    0.06
   5  -3  -5    0.25    0.06
   5  -3  -5    0.25    0.06
   5   3  -5    0.21    0.06
   4  -3  -5    0.69    0.07
   4  -3  -5    0.63    0.07
   4   3  -5    0.45    0.07
   3  -3  -5    4.72    0.15
   3  -3  -5    4.52    0.14
   3   3  -5    4.48    0.15
   2  -3  -5    4.14    0.12
   2  -3  -5    3.94    0.14
  -2  -3   5    3.91    0.12
   2  -3  -5    3.74    0.13
   2   3  -5    3.96    0.13
   1  -3  -5    9.95    0.23
   1  -3  -5    9.79    0.26
   1   3  -5   10.05    0.28
   1   3  -5   10.45    0.23
   0  -3  -5   23.36    0.54
   0  -3  -5   23.40    0.46
   0   3  -5   23.80    0.45
   0   3  -5   24.99    0.56
  -1  -3  -5   10.79    0.30
  -1  -3  -5   10.91    0.25
  -1   3  -5   11.53    0.30
  -1   3  -5   10.99    0.22
   2  -3   5    4.85    0.19
  -2  -3  -5    4.80    0.18
  -2  -3  -5    4.81    0.14
   2   3   5    4.53    0.18
   2   3   5    4.86    0.14
  -3  -3  -5    2.35    0.10
  -3  -3  -5    2.23    0.13
   3  -3   5    2.50    0.14
   3   3   5    2.36    0.13
   4  -3   5    7.60    0.28
  -4  -3  -5    7.77    0.20
  -4  -3  -5    7.69    0.27
   4   3   5    7.57    0.26
   4   3   5    7.71    0.20
  -5  -3  -5    1.00    0.10
   5  -3   5    0.84    0.10
   5   3   5    0.87    0.10
   6  -3   5    1.29    0.10
  -6  -3  -5    1.45    0.13
   6   3   5    1.55    0.13
   6  -4  -5    1.65    0.13
   6   4  -5    1.38    0.12
   5  -4  -5    1.36    0.11
   5   4  -5    1.17    0.10
   4  -4  -5    5.21    0.17
   4  -4  -5    5.21    0.18
   4   4  -5    4.76    0.18
   3  -4  -5    0.68    0.07
   3  -4  -5    0.64    0.07
   3   4  -5    0.56    0.07
  -2  -4   5    5.24    0.16
   2  -4  -5    5.17    0.17
   2  -4  -5    5.18    0.16
   2   4  -5    5.09    0.16
   1  -4  -5    5.66    0.19
   1  -4  -5    5.50    0.16
   1   4  -5    5.61    0.16
   0  -4  -5    4.16    0.16
   0  -4  -5    4.59    0.14
   0   4  -5    4.55    0.13
   0   4  -5    4.40    0.17
  -1  -4  -5    3.69    0.16
  -1  -4  -5    3.53    0.12
  -1   4  -5    3.53    0.10
  -1   4  -5    3.76    0.15
  -2  -4  -5   12.64    0.35
  -2  -4  -5   12.66    0.29
  -3  -4  -5    3.92    0.18
  -3  -4  -5    3.85    0.14
   3   4   5    4.27    0.18
  -4  -4  -5    1.46    0.09
  -4  -4  -5    1.61    0.12
   4   4   5    1.35    0.11
   4   4   5    1.46    0.09
  -5  -4  -5    0.64    0.09
   5   4   5    0.67    0.09
   6   5  -5    0.36    0.08
   5   5  -5    0.59    0.08
   4  -5  -5    0.31    0.06
   4   5  -5    0.23    0.06
   3  -5  -5    2.90    0.12
   3  -5  -5    2.96    0.14
   3   5  -5    2.65    0.13
  -2  -5   5    2.04    0.11
  -2  -5   5    2.18    0.11
   2  -5  -5    2.22    0.12
   2  -5  -5    2.21    0.11
   2   5  -5    2.13    0.11
   1  -5  -5    3.67    0.16
   1  -5  -5    3.79    0.13
  -1  -5   5    3.81    0.15
  -1  -5   5    3.61    0.13
   1   5  -5    3.96    0.13
   0  -5  -5    0.58    0.06
   0  -5   5    0.60    0.05
   0  -5  -5    0.56    0.07
   0  -5   5    0.62    0.07
   0   5  -5    0.75    0.06
  -1  -5  -5    4.55    0.15
  -1  -5  -5    4.64    0.18
  -1   5  -5    4.54    0.13
  -2  -5  -5   10.08    0.25
  -2  -5  -5    9.84    0.31
  -3  -5  -5    2.37    0.14
  -3  -5  -5    2.52    0.11
   3   5   5    2.52    0.14
  -4  -5  -5    1.59    0.13
  -4  -5  -5    1.61    0.10
   4   5   5    1.58    0.10
   4   5   5    1.65    0.13
  -5  -5  -5   -0.02    0.06
   5  -5   5    0.11    0.04
   5   5   5    0.01    0.06
   6  -5   5    0.31    0.06
   5   6  -5    1.32    0.11
   4   6  -5    0.15    0.06
  -3  -6   5    0.00    0.04
   3  -6  -5    0.04    0.05
   3  -6  -5   -0.03    0.04
   3   6  -5    0.06    0.04
   2  -6  -5    1.98    0.12
  -2  -6   5    2.14    0.12
   2  -6  -5    1.86    0.10
  -2  -6   5    1.97    0.11
   2   6  -5    2.08    0.11
  -1  -6   5    0.13    0.04
  -1  -6   5    0.11    0.05
   1  -6  -5    0.15    0.04
   1  -6  -5    0.18    0.06
   1   6  -5    0.17    0.05
   0  -6   5    4.24    0.17
   0  -6   5    3.95    0.13
   0  -6  -5    3.87    0.14
   0  -6  -5    4.32    0.18
   0   6  -5    4.01    0.14
  -1  -6  -5    0.22    0.05
  -1  -6  -5    0.17    0.06
   1  -6   5    0.16    0.06
   2  -6   5    8.25    0.29
  -2  -6  -5    7.69    0.27
  -2  -6  -5    7.73    0.22
  -3  -6  -5    2.92    0.13
  -3  -6  -5    2.94    0.16
   3  -6   5    2.06    0.15
  -4  -6  -5    1.92    0.11
   4  -6   5    1.31    0.12
  -4  -6  -5    2.03    0.14
   4   6   5    2.02    0.11
   4   6   5    2.10    0.14
   5  -6   5    0.13    0.06
  -5  -6  -5    0.11    0.07
   5   6   5    0.11    0.07
   5   7  -5    1.16    0.11
   4   7  -5    0.05    0.05
   3  -7  -5    0.18    0.06
   3  -7  -5    0.06    0.05
  -3  -7   5    0.18    0.06
   3   7  -5    0.18    0.05
  -2  -7   5    0.30    0.06
   2  -7  -5    0.41    0.06
   2  -7  -5    0.33    0.07
  -2  -7   5    0.36    0.07
   2   7  -5    0.31    0.06
  -1  -7   5    1.69    0.10
   1  -7  -5    1.56    0.10
  -1  -7   5    1.63    0.11
   1  -7  -5    1.73    0.13
   1   7  -5    1.85    0.10
   0  -7  -5    2.49    0.15
   0  -7  -5    2.34    0.12
   0  -7   5    2.46    0.14
   0  -7   5    2.39    0.11
   0   7  -5    2.37    0.11
  -1  -7  -5    1.48    0.12
   1  -7   5    1.68    0.12
  -1  -7  -5    1.50    0.10
  -2  -7  -5    1.28    0.12
   2  -7   5    1.36    0.12
  -2  -7  -5    1.32    0.09
  -3  -7  -5    0.27    0.08
   3  -7   5    0.35    0.08
  -3  -7  -5    0.37    0.06
  -4  -7  -5    0.89    0.09
  -4  -7  -5    0.93    0.11
   4  -7   5    0.83    0.12
   4   7   5    1.00    0.12
   4   7   5    1.06    0.09
   5  -7   5    0.38    0.10
  -5  -7  -5    0.52    0.10
  -5  -7  -5    0.35    0.07
   5   7   5    0.53    0.10
   5   7   5    0.52    0.08
  -4  -8   5    0.46    0.08
   4   8  -5    0.43    0.08
   3  -8  -5    0.62    0.10
  -3  -8   5    0.53    0.08
   3  -8  -5    0.67    0.08
   3   8  -5    0.70    0.08
  -2  -8   5    1.22    0.10
   2  -8  -5    1.11    0.11
   2  -8  -5    1.33    0.09
   2   8  -5    1.19    0.10
  -1  -8   5    0.22    0.05
   1  -8  -5    0.24    0.06
   1  -8  -5    0.20    0.07
  -1  -8   5    0.14    0.06
   1   8  -5    0.30    0.06
   0  -8   5    0.91    0.08
   0  -8  -5    0.70    0.10
   0  -8  -5    0.89    0.08
   0  -8   5    1.01    0.10
   0   8  -5    0.81    0.07
   1  -8   5    0.21    0.07
  -1  -8  -5    0.10    0.06
  -1  -8  -5    0.11    0.05
  -2  -8  -5    0.49    0.07
  -2  -8  -5    0.46    0.09
   2  -8   5    0.37    0.09
  -3  -8  -5    0.40    0.09
   3  -8   5    0.20    0.08
  -3  -8  -5    0.23    0.06
  -4  -8  -5    0.39    0.10
   4  -8   5    0.25    0.09
  -4  -8  -5    0.30    0.07
   4   8   5    0.37    0.09
   4   8   5    0.31    0.07
   3  -9  -5    0.25    0.09
  -3  -9   5    0.23    0.07
   3   9  -5    0.21    0.07
   2  -9  -5    0.91    0.12
  -2  -9   5    1.06    0.10
   2  -9  -5    1.18    0.10
   2   9  -5    1.02    0.09
   1  -9  -5    0.04    0.05
   1  -9  -5    0.10    0.07
  -1  -9   5    0.00    0.04
  -1  -9   5   -0.04    0.06
   1   9  -5    0.06    0.05
   0  -9  -5    0.17    0.07
   0  -9   5    0.18    0.07
   0  -9  -5    0.22    0.06
  -1  -9  -5    0.08    0.07
  -1  -9  -5    0.14    0.06
   1  -9   5    0.12    0.07
  -2  -9  -5    0.17    0.08
   2  -9   5    0.12    0.08
  -2  -9  -5    0.31    0.07
  -3  -9  -5    0.33    0.10
   3  -9   5    0.52    0.11
   3   9   5    0.54    0.08
  -1 -10   5    0.26    0.09
   1 -10  -5    0.21    0.07
  -1 -10   5    0.29    0.07
   1 -10  -5    0.29    0.09
   1  10  -5    0.34    0.07
   0 -10  -5    0.10    0.06
   0 -10  -5    0.13    0.08
   0 -10   5    0.00    0.06
   1 -10   5    0.02    0.07
  -1 -10  -5    0.06    0.07
   7   0  -6    0.20    0.08
   6   0  -6    0.10    0.06
   6   0  -6    0.01    0.05
   5   0  -6    1.96    0.12
   4   0  -6    1.48    0.11
   3   0  -6    0.07    0.05
  -2   0   6   34.13    0.76
   2   0  -6   33.59    0.64
  -2   0   6   34.15    0.70
   2   0  -6   32.92    0.70
   2   0  -6   35.33    0.77
   1   0  -6   18.41    0.44
   1   0  -6   17.44    0.40
   1   0  -6   17.13    0.36
  -1   0   6   17.77    0.43
  -1   0   6   18.16    0.40
   0   0  -6    3.75    0.14
   0   0  -6    3.89    0.13
   0   0   6    3.79    0.13
   0   0   6    3.69    0.14
   0   0  -6    3.86    0.12
   1   0   6    4.43    0.16
  -1   0  -6    4.37    0.16
  -1   0  -6    4.52    0.12
   1   0   6    4.38    0.15
   2   0   6    6.18    0.18
  -2   0  -6    5.91    0.20
  -2   0  -6    6.08    0.14
   2   0   6    6.05    0.21
  -3   0  -6    2.52    0.14
   3   0   6    2.39    0.13
   4   0   6    4.39    0.19
   4   0   6    4.49    0.16
   5   0   6    0.61    0.09
   5   0   6    0.48    0.07
   6   0   6    0.16    0.06
   6   0   6    0.17    0.07
   7  -1  -6    2.33    0.16
   7   1  -6    2.27    0.16
   6  -1  -6    0.66    0.09
   6  -1  -6    0.67    0.09
   6   1  -6    0.66    0.09
   5  -1  -6    3.16    0.15
   5  -1  -6    3.05    0.15
   5   1  -6    2.88    0.14
   4  -1  -6    5.75    0.19
   4   1  -6    5.52    0.19
   3  -1  -6    1.88    0.10
   3   1  -6    1.90    0.10
   2  -1  -6    3.89    0.14
  -2  -1   6    4.21    0.12
  -2  -1   6    4.22    0.16
   2  -1  -6    4.16    0.12
   2   1  -6    4.09    0.16
  -2   1   6    3.95    0.16
  -2   1   6    4.06    0.12
   2   1  -6    3.99    0.14
  -1  -1   6   15.23    0.39
   1  -1  -6   15.78    0.36
   1  -1  -6   15.39    0.33
  -1  -1   6   15.86    0.36
  -1   1   6   15.29    0.39
   1   1  -6   15.65    0.33
   1   1  -6   16.11    0.39
  -1   1   6   15.36    0.36
   0  -1   6    6.57    0.19
   0  -1   6    6.23    0.20
   0  -1  -6    6.65    0.17
   0  -1  -6    6.44    0.19
   0   1  -6    6.56    0.20
   0   1  -6    6.57    0.17
   0   1   6    6.49    0.19
   0   1   6    6.69    0.20
  -1  -1  -6   20.81    0.50
   1  -1   6   21.43    0.50
   1  -1   6   21.30    0.50
  -1  -1  -6   21.05    0.41
  -1   1  -6   21.13    0.40
   1   1   6   21.26    0.50
   1   1   6   21.57    0.49
  -2  -1  -6   36.12    0.64
   2  -1   6   35.84    0.78
   2  -1   6   35.12    0.79
  -2  -1  -6   35.39    0.80
  -2   1  -6   35.59    0.63
   2   1   6   35.76    0.80
   2   1   6   35.34    0.77
  -3  -1  -6   15.99    0.43
   3  -1   6   16.64    0.43
  -3  -1  -6   16.62    0.32
   3   1   6   16.54    0.44
   3   1   6   16.87    0.37
   4  -1   6   16.15    0.45
  -4  -1  -6   16.65    0.45
   4   1   6   16.45    0.45
   4   1   6   16.43    0.38
   5  -1   6    0.44    0.08
  -5  -1  -6    0.45    0.08
   5  -1   6    0.44    0.07
   5   1   6    0.34    0.08
   5   1   6    0.48    0.07
   6  -1   6    0.28    0.08
   6  -1   6    0.31    0.07
   6   1   6    0.26    0.07
   6   1   6    0.23    0.08
   7  -2  -6    0.53    0.10
   7   2  -6    0.57    0.09
   6  -2  -6    0.21    0.07
   6   2  -6    0.03    0.06
   5  -2  -6    0.56    0.08
   5  -2  -6    0.72    0.08
   5   2  -6    0.54    0.07
   4  -2  -6    0.20    0.05
   4  -2  -6    0.17    0.06
   4   2  -6    0.08    0.05
   3  -2  -6    0.39    0.06
   3  -2  -6    0.55    0.06
   3   2  -6    0.54    0.06
   2  -2  -6    2.84    0.11
   2  -2  -6    2.90    0.12
   2   2  -6    3.10    0.12
  -2   2   6    3.09    0.14
   1  -2  -6    8.62    0.22
  -1  -2   6    8.91    0.24
   1  -2  -6    8.74    0.24
  -1  -2   6    8.90    0.25
   1   2  -6    8.89    0.21
   1   2  -6    9.06    0.26
   0  -2  -6    1.64    0.09
   0  -2   6    1.80    0.09
   0  -2   6    1.70    0.09
   0  -2  -6    1.78    0.09
   0   2  -6    1.79    0.08
   0   2  -6    1.80    0.10
   0   2   6    1.74    0.09
   0   2   6    1.73    0.09
   1  -2   6    5.75    0.19
  -1  -2  -6    5.96    0.20
  -1  -2  -6    5.72    0.15
   1  -2   6    5.63    0.19
   1   2   6    5.62    0.18
   1   2   6    5.75    0.19
  -1   2  -6    5.84    0.14
  -2  -2  -6    3.07    0.14
   2  -2   6    2.86    0.14
  -2  -2  -6    3.10    0.11
   2   2   6    3.09    0.11
   2   2   6    2.94    0.14
   3  -2   6    6.33    0.23
  -3  -2  -6    6.20    0.23
  -3  -2  -6    6.37    0.16
   3   2   6    6.49    0.23
  -4  -2  -6   12.12    0.37
   4  -2   6   12.21    0.37
   4   2   6   12.27    0.37
  -5  -2  -6    0.49    0.08
   5  -2   6    0.35    0.08
   5   2   6    0.42    0.08
   6  -2   6   -0.04    0.06
  -6  -2  -6    0.05    0.07
   6   2   6    0.08    0.07
   6  -3  -6    2.87    0.16
   6   3  -6    2.58    0.15
   5  -3  -6    0.62    0.08
   5  -3  -6    0.70    0.08
   5   3  -6    0.82    0.08
   4  -3  -6   10.37    0.28
   4  -3  -6   11.03    0.29
   4   3  -6   10.75    0.29
   3  -3  -6    8.12    0.22
   3   3  -6    7.76    0.23
   2  -3  -6   12.18    0.31
   2  -3  -6   12.42    0.29
  -2   3   6   12.06    0.34
   2   3  -6   12.18    0.29
   1  -3  -6   30.23    0.60
  -1  -3   6   32.52    0.72
   1  -3  -6   30.94    0.69
  -1   3   6   30.74    0.71
   1   3  -6   31.55    0.60
   1   3  -6   32.69    0.72
   0  -3  -6    2.16    0.11
   0  -3  -6    2.25    0.10
   0   3  -6    2.23    0.11
   0   3   6    2.19    0.11
   0   3  -6    2.30    0.09
  -1  -3  -6    1.50    0.08
  -1  -3  -6    1.73    0.11
   1  -3   6    1.85    0.11
   1   3   6    1.60    0.09
   1   3   6    1.56    0.10
  -1   3  -6    1.57    0.07
  -2  -3  -6    0.33    0.04
   2  -3   6    0.40    0.07
  -2  -3  -6    0.35    0.07
   2   3   6    0.29    0.06
   2   3   6    0.34    0.05
   3  -3   6   17.24    0.46
  -3  -3  -6   17.17    0.36
  -3  -3  -6   17.70    0.46
   3   3   6   16.76    0.46
   4  -3   6   12.64    0.38
  -4  -3  -6   12.58    0.38
   4   3   6   12.45    0.38
  -5  -3  -6    1.05    0.11
   5  -3   6    1.03    0.11
   5   3   6    0.99    0.11
  -6  -3  -6    0.56    0.09
   6  -3   6    0.97    0.09
   6   3   6    0.57    0.10
   6   4  -6   -0.01    0.06
   5  -4  -6    0.06    0.05
   5   4  -6    0.01    0.05
   4  -4  -6    0.54    0.07
   4   4  -6    0.54    0.08
   3  -4  -6    0.17    0.05
   3   4  -6    0.14    0.05
   2  -4  -6    6.08    0.20
   2  -4  -6    5.89    0.18
   2   4  -6    5.92    0.18
   1  -4  -6    2.08    0.11
   1  -4  -6    2.09    0.10
   1   4  -6    2.13    0.10
   0  -4  -6    2.10    0.12
   0  -4  -6    2.15    0.10
   0   4  -6    2.19    0.12
   0   4  -6    2.05    0.09
  -1  -4  -6    0.66    0.06
  -1  -4  -6    0.59    0.07
  -1   4  -6    0.62    0.05
  -2  -4  -6    0.27    0.05
  -2  -4  -6    0.38    0.07
   2   4   6    0.33    0.07
  -3  -4  -6    2.93    0.16
  -3  -4  -6    3.26    0.13
   3   4   6    3.20    0.16
  -4  -4  -6    4.73    0.21
  -4  -4  -6    5.12    0.16
   4   4   6    5.21    0.22
  -5  -4  -6    2.86    0.17
   5   4   6    2.86    0.17
  -6  -4  -6    0.57    0.10
   6   4   6    0.68    0.11
   6   5  -6    1.56    0.13
   5   5  -6    0.20    0.07
   4  -5  -6    2.86    0.13
   4   5  -6    2.43    0.13
   3  -5  -6    2.73    0.13
   3   5  -6    2.74    0.13
   2  -5  -6    2.54    0.13
   2  -5  -6    2.47    0.12
   2   5  -6    2.28    0.11
   1  -5  -6    6.47    0.19
   1  -5  -6    6.54    0.23
  -1  -5   6    6.94    0.22
   1   5  -6    6.47    0.19
   0  -5  -6    2.02    0.10
   0  -5   6    1.86    0.12
   0  -5  -6    2.14    0.12
   0   5  -6    2.10    0.10
  -1  -5  -6    1.77    0.12
  -1  -5  -6    1.67    0.10
  -2  -5  -6    3.15    0.16
  -2  -5  -6    3.39    0.13
  -3  -5  -6    6.35    0.20
  -3  -5  -6    6.66    0.25
   3   5   6    6.75    0.25
  -4  -5  -6    0.99    0.08
  -4  -5  -6    1.04    0.11
   4   5   6    1.13    0.11
  -5  -5  -6    0.66    0.10
   5   5   6    0.75    0.11
   5   6  -6    0.07    0.06
   4  -6  -6    0.04    0.05
   4   6  -6    0.14    0.06
   3  -6  -6    0.26    0.06
   3   6  -6    0.30    0.06
   2  -6  -6    3.38    0.16
   2  -6  -6    3.03    0.13
   2   6  -6    3.07    0.14
   1  -6  -6    0.41    0.07
   1  -6  -6    0.32    0.06
  -1  -6   6    0.29    0.06
   1   6  -6    0.24    0.05
   0  -6  -6    5.27    0.21
   0  -6   6    5.10    0.20
   0  -6  -6    5.12    0.17
   0   6  -6    5.24    0.16
  -1  -6  -6    1.95    0.11
  -1  -6  -6    1.74    0.13
   1  -6   6    2.19    0.14
   2  -6   6    0.18    0.06
  -2  -6  -6    0.43    0.08
  -2  -6  -6    0.45    0.06
  -3  -6  -6    0.14    0.06
  -3  -6  -6    0.06    0.04
   3  -6   6    0.01    0.03
   3   6   6    0.10    0.06
  -4  -6  -6    0.35    0.09
   4  -6   6    0.19    0.06
  -4  -6  -6    0.22    0.05
   4   6   6    0.31    0.06
   4   6   6    0.56    0.09
  -5  -6  -6    2.90    0.19
   5   6   6    2.82    0.18
   4   7  -6    0.34    0.07
   3  -7  -6    0.08    0.06
   3  -7  -6   -0.02    0.04
   3   7  -6    0.06    0.05
   2  -7  -6    0.06    0.05
   2  -7  -6    0.07    0.06
   2   7  -6    0.03    0.05
   1  -7  -6    0.33    0.08
  -1  -7   6    0.18    0.06
  -1  -7   6    0.17    0.05
   1  -7  -6    0.42    0.06
   1   7  -6    0.30    0.05
   0  -7   6    1.58    0.12
   0  -7  -6    1.64    0.12
   0  -7  -6    1.48    0.10
   0   7  -6    1.51    0.09
  -1  -7  -6    1.70    0.13
  -1  -7  -6    1.49    0.10
   1  -7   6    1.64    0.13
   2  -7   6   -0.01    0.06
  -2  -7  -6    0.00    0.05
  -2  -7  -6    0.00    0.04
  -3  -7  -6    0.16    0.05
   3  -7   6    0.10    0.08
  -3  -7  -6    0.12    0.07
   4  -7   6   -0.01    0.08
  -4  -7  -6    0.16    0.08
  -4  -7  -6    0.12    0.05
   4   7   6    0.15    0.06
   4   7   6    0.04    0.07
   3  -8  -6    0.43    0.09
   3  -8  -6    0.42    0.07
   3   8  -6    0.47    0.08
  -2  -8   6    1.35    0.10
   2  -8  -6    1.60    0.13
   2  -8  -6    1.48    0.11
   2   8  -6    1.47    0.10
   1  -8  -6    0.48    0.09
   1  -8  -6    0.38    0.07
  -1  -8   6    0.56    0.07
  -1  -8   6    0.47    0.08
   1   8  -6    0.61    0.07
   0  -8   6    1.52    0.13
   0  -8  -6    1.49    0.10
   0  -8  -6    1.57    0.13
  -1  -8  -6    2.77    0.17
   1  -8   6    2.86    0.17
  -1  -8  -6    2.79    0.14
  -2  -8  -6    1.38    0.11
  -2  -8  -6    1.39    0.13
   2  -8   6    1.54    0.14
   3  -8   6    0.75    0.12
  -3  -8  -6    0.75    0.11
  -3  -8  -6    0.98    0.10
  -4  -8  -6    0.17    0.06
  -4  -8  -6    0.22    0.09
   4  -8   6    0.05    0.08
   4   8   6    0.20    0.09
   4   8   6    0.18    0.07
   3  -9  -6    0.01    0.07
  -2  -9   6   -0.05    0.05
   2  -9  -6    0.05    0.05
   2  -9  -6    0.06    0.07
   2   9  -6    0.12    0.06
   1  -9  -6    0.16    0.07
  -1  -9   6    0.15    0.05
  -1  -9   6    0.17    0.07
   1  -9  -6    0.16    0.06
   1   9  -6    0.20    0.06
   0  -9  -6    0.11    0.06
   0  -9  -6    0.27    0.08
   0  -9   6    0.17    0.08
  -1  -9  -6    0.82    0.09
  -1  -9  -6    1.01    0.12
   1  -9   6    0.88    0.12
  -2  -9  -6    0.33    0.09
   2  -9   6    0.27    0.09
  -2  -9  -6    0.27    0.07
   0 -10   6   -0.11    0.07
   0 -10  -6    0.00    0.07
   6   0  -7    1.08    0.11
   6   0  -7    0.96    0.10
   5   0  -7    0.15    0.06
   4   0  -7    0.92    0.09
   3   0  -7    0.10    0.05
   2   0  -7    1.98    0.11
   2   0  -7    1.96    0.12
   1   0  -7    0.22    0.05
  -1   0   7    0.32    0.05
  -1   0   7    0.36    0.05
   1   0  -7    0.33    0.05
   1   0  -7    0.40    0.06
   0   0   7    0.02    0.03
   0   0  -7    0.00    0.03
   0   0   7    0.00    0.04
   0   0  -7    0.04    0.03
   1   0   7    5.83    0.19
   1   0   7    5.76    0.20
  -1   0  -7    5.81    0.20
  -1   0  -7    5.73    0.15
  -2   0  -7    3.03    0.10
  -2   0  -7    3.17    0.15
   2   0   7    3.17    0.15
   2   0   7    3.08    0.13
   3   0   7    8.94    0.29
  -3   0  -7    8.30    0.28
   4   0   7    0.17    0.07
   5   0   7   -0.03    0.06
   6   0   7    0.09    0.07
   6   0   7    0.20    0.07
   6  -1  -7    0.24    0.07
   6  -1  -7    0.05    0.07
   6   1  -7    0.06    0.07
   5  -1  -7    3.47    0.16
   5  -1  -7    3.31    0.16
   5   1  -7    3.17    0.15
   4  -1  -7    2.76    0.14
   4   1  -7    3.25    0.15
   3  -1  -7    0.13    0.06
   3   1  -7   -0.01    0.05
   2  -1  -7    2.45    0.11
  -2   1   7    2.23    0.12
   2   1  -7    2.19    0.11
  -1  -1   7   17.76    0.41
   1  -1  -7   17.12    0.41
   1  -1  -7   17.85    0.38
  -1  -1   7   18.25    0.45
   1   1  -7   18.15    0.45
   1   1  -7   17.61    0.37
  -1   1   7   17.83    0.41
  -1   1   7   17.47    0.44
   0  -1  -7    2.95    0.11
   0  -1  -7    3.07    0.13
   0  -1   7    3.07    0.13
   0  -1   7    2.65    0.13
   0   1  -7    3.26    0.11
   0   1   7    3.13    0.13
   0   1   7    3.12    0.13
   1  -1   7   17.89    0.44
   1  -1   7   18.14    0.45
  -1  -1  -7   18.28    0.37
  -1  -1  -7   17.98    0.45
   1   1   7   17.68    0.45
  -1   1  -7   18.25    0.36
   1   1   7   18.09    0.44
   2  -1   7    1.33    0.10
  -2  -1  -7    1.15    0.10
   2  -1   7    1.35    0.09
  -2  -1  -7    1.19    0.07
   2   1   7    1.26    0.08
   2   1   7    1.19    0.10
  -3  -1  -7   25.69    0.63
   3  -1   7   24.57    0.62
   3   1   7   25.76    0.62
  -4  -1  -7   17.13    0.47
   4  -1   7   17.05    0.47
   4   1   7   16.54    0.47
   5  -1   7    0.45    0.08
  -5  -1  -7    0.39    0.08
   5   1   7    0.38    0.08
   6  -1   7    0.74    0.10
   6   1   7    0.75    0.11
   6  -2  -7    1.47    0.12
   6   2  -7    1.31    0.12
   5  -2  -7    0.72    0.09
   5  -2  -7    0.86    0.09
   5   2  -7    0.74    0.09
   4  -2  -7    6.44    0.21
   4  -2  -7    7.14    0.22
   4   2  -7    6.59    0.22
   3  -2  -7   13.59    0.33
   3   2  -7   13.04    0.32
   2  -2  -7   -0.02    0.04
   2  -2  -7    0.02    0.03
   2   2  -7    0.07    0.05
  -2   2   7    0.05    0.05
  -2   2   7    0.04    0.04
  -1  -2   7    1.49    0.09
   1  -2  -7    1.40    0.09
  -1  -2   7    1.52    0.10
   1  -2  -7    1.45    0.09
   1   2  -7    1.43    0.10
   1   2  -7    1.32    0.09
   0  -2  -7    0.36    0.05
   0  -2  -7    0.38    0.06
   0  -2   7    0.42    0.06
   0  -2   7    0.37    0.05
   0   2   7    0.37    0.06
   0   2   7    0.37    0.06
   0   2  -7    0.48    0.05
   0   2  -7    0.36    0.06
  -1  -2  -7    3.19    0.12
  -1  -2  -7    2.88    0.14
   1  -2   7    3.24    0.14
   1  -2   7    2.81    0.14
   1   2   7    3.20    0.13
   1   2   7    3.21    0.14
  -1   2  -7    3.15    0.11
   2  -2   7   19.16    0.49
  -2  -2  -7   19.29    0.39
  -2  -2  -7   19.48    0.49
   2   2   7   19.28    0.49
  -3  -2  -7    3.01    0.11
  -3  -2  -7    3.25    0.16
   3  -2   7    2.91    0.16
   3   2   7    3.12    0.16
   4  -2   7    2.16    0.15
  -4  -2  -7    2.56    0.15
   4   2   7    2.50    0.15
  -5  -2  -7    1.22    0.12
   5  -2   7    1.15    0.12
   5   2   7    1.20    0.12
   6  -2   7    0.21    0.08
  -6  -2  -7    0.29    0.08
   6   2   7    0.17    0.08
   6   3  -7    0.01    0.06
   5  -3  -7    0.81    0.09
   5   3  -7    0.81    0.09
   4  -3  -7    6.58    0.21
   4   3  -7    6.24    0.21
   3  -3  -7    0.85    0.08
   3   3  -7    0.77    0.08
   2  -3  -7    2.97    0.13
   2  -3  -7    2.94    0.13
  -2   3   7    3.16    0.15
   2   3  -7    2.80    0.12
   1  -3  -7    3.81    0.14
   1  -3  -7    4.34    0.16
   1   3  -7    4.04    0.14
  -1   3   7    3.91    0.16
   0  -3   7    0.28    0.05
   0  -3   7    0.42    0.06
   0  -3  -7    0.39    0.05
   0  -3  -7    0.54    0.07
   0   3   7    0.46    0.06
   0   3  -7    0.45    0.06
   0   3  -7    0.49    0.07
   0   3   7    0.51    0.06
  -1  -3  -7   27.09    0.64
   1  -3   7   27.77    0.64
  -1  -3  -7   26.36    0.53
  -1   3  -7   27.27    0.51
   1   3   7   26.54    0.64
   1   3   7   27.89    0.63
  -2  -3  -7    7.10    0.19
  -2  -3  -7    7.43    0.26
   2  -3   7    7.32    0.25
   2   3   7    7.24    0.25
  -3  -3  -7   27.55    0.55
  -3  -3  -7   27.31    0.69
   3  -3   7   28.90    0.69
   3   3   7   28.48    0.69
   4  -3   7    5.03    0.22
  -4  -3  -7    4.84    0.22
   4   3   7    4.86    0.22
   5  -3   7    1.45    0.14
  -5  -3  -7    1.41    0.13
   5   3   7    1.25    0.13
   6  -3   7    0.54    0.08
  -6  -3  -7    0.66    0.10
   6   3   7    0.65    0.11
   6   4  -7    1.91    0.14
   5  -4  -7    1.28    0.11
   5   4  -7    1.00    0.10
   4  -4  -7    1.89    0.12
   4   4  -7    1.81    0.12
   3  -4  -7   10.74    0.29
   3   4  -7   11.52    0.30
   2  -4  -7    0.86    0.08
   2  -4  -7    0.93    0.09
   2   4  -7    0.78    0.08
   1  -4  -7    0.65    0.07
   1  -4  -7    0.84    0.08
   1   4  -7    0.64    0.07
   0  -4  -7   -0.02    0.04
   0  -4  -7    0.05    0.05
   0  -4   7    0.00    0.02
   0   4  -7    0.05    0.04
   0   4   7    0.03    0.04
   1  -4   7    0.01    0.03
  -1  -4  -7    0.11    0.04
  -1  -4  -7    0.09    0.05
   1   4   7    0.07    0.05
  -2  -4  -7   19.55    0.43
  -2  -4  -7   20.82    0.54
   2   4   7   20.60    0.53
  -3  -4  -7   -0.03    0.03
   3  -4   7    0.05    0.04
  -3  -4  -7   -0.05    0.05
   3   4   7    0.13    0.06
  -4  -4  -7    0.07    0.06
   4  -4   7    0.17    0.05
   4   4   7    0.27    0.07
  -5  -4  -7    2.39    0.17
   5   4   7    2.08    0.15
  -6  -4  -7   -0.02    0.06
   6   4   7    0.05    0.07
   5   5  -7    0.06    0.06
   4  -5  -7    2.01    0.12
   4   5  -7    2.17    0.13
   3  -5  -7    0.25    0.06
   3   5  -7    0.20    0.06
   2  -5  -7    1.62    0.11
   2  -5  -7    1.47    0.10
   2   5  -7    1.56    0.10
   1  -5  -7    0.45    0.06
  -1  -5   7    0.26    0.05
   1  -5  -7    0.36    0.07
   1   5  -7    0.39    0.06
   0  -5  -7    0.87    0.09
   0  -5  -7    0.98    0.08
   0   5  -7    0.95    0.08
  -1  -5  -7   11.71    0.35
  -1  -5  -7   11.12    0.28
  -2  -5  -7    5.14    0.22
  -2  -5  -7    5.11    0.17
   2   5   7    5.09    0.22
  -3  -5  -7    5.71    0.24
  -3  -5  -7    5.45    0.18
   3   5   7    5.81    0.24
  -4  -5  -7    1.69    0.10
  -4  -5  -7    1.77    0.14
   4   5   7    1.67    0.14
  -5  -5  -7    1.96    0.16
   5   5   7    1.65    0.15
   5   6  -7    0.37    0.08
   4  -6  -7    0.02    0.05
   4   6  -7    0.09    0.06
   3  -6  -7    1.66    0.11
   3   6  -7    1.48    0.11
   2  -6  -7    0.36    0.06
   2  -6  -7    0.60    0.08
   2   6  -7    0.40    0.06
  -1  -6   7    0.34    0.07
   1  -6  -7    0.21    0.05
   1  -6  -7    0.39    0.07
   1   6  -7    0.40    0.06
   0  -6  -7    2.10    0.14
   0  -6   7    2.34    0.14
   0  -6  -7    2.17    0.11
   0   6  -7    2.29    0.11
  -1  -6  -7    2.43    0.12
   1  -6   7    1.90    0.14
  -1  -6  -7    2.39    0.15
  -2  -6  -7    2.42    0.12
  -2  -6  -7    2.63    0.16
  -3  -6  -7    0.18    0.05
  -3  -6  -7    0.34    0.08
   3  -6   7    0.08    0.04
   3   6   7    0.24    0.08
  -4  -6  -7    1.58    0.14
  -4  -6  -7    1.47    0.10
   4   6   7    1.56    0.14
  -5  -6  -7    3.31    0.21
   5   6   7    3.03    0.20
   4  -7  -7    0.05    0.06
   4   7  -7    0.12    0.06
   3  -7  -7    0.16    0.06
   3   7  -7    0.15    0.06
   2  -7  -7    0.30    0.06
   2  -7  -7    0.23    0.07
   2   7  -7    0.26    0.06
   1  -7  -7    1.56    0.10
  -1  -7   7    1.58    0.12
   1  -7  -7    1.52    0.13
   1   7  -7    1.64    0.11
   0  -7   7    2.62    0.15
   0  -7  -7    2.23    0.12
   0  -7  -7    2.47    0.15
   1  -7   7    0.33    0.08
  -1  -7  -7    0.30    0.06
  -1  -7  -7    0.24    0.08
  -2  -7  -7    0.92    0.09
  -2  -7  -7    0.76    0.11
   2  -7   7    0.79    0.12
  -3  -7  -7    0.02    0.05
   3  -7   7    0.14    0.08
  -3  -7  -7   -0.06    0.06
   3   7   7    0.15    0.07
   4  -7   7    0.49    0.10
  -4  -7  -7    0.46    0.07
  -4  -7  -7    0.36    0.09
   4   7   7    0.41    0.09
   3  -8  -7    0.13    0.06
   3   8  -7    0.17    0.06
   2  -8  -7    0.53    0.10
   2  -8  -7    0.50    0.08
   2   8  -7    0.50    0.08
   1  -8  -7    0.70    0.08
  -1  -8   7    0.67    0.09
   1  -8  -7    0.62    0.10
   1   8  -7    0.65    0.08
   0  -8  -7    1.87    0.15
   0  -8  -7    1.58    0.11
   0  -8   7    1.80    0.14
   1  -8   7    3.34    0.19
  -1  -8  -7    3.28    0.16
  -1  -8  -7    3.42    0.19
   2  -8   7    0.00    0.07
  -2  -8  -7   -0.05    0.04
  -2  -8  -7    0.00    0.07
  -3  -8  -7    0.29    0.07
   3  -8   7    0.33    0.10
  -3  -8  -7    0.26    0.09
   3   8   7    0.34    0.09
   2  -9  -7    0.17    0.06
   2  -9  -7    0.25    0.09
   2   9  -7    0.23    0.07
   1  -9  -7    0.23    0.07
   1  -9  -7    0.18    0.08
   0  -9  -7    0.96    0.10
   0  -9  -7    0.89    0.12
   0  -9   7    0.94    0.12
  -1  -9  -7    0.01    0.07
  -1  -9  -7   -0.01    0.05
   1  -9   7    0.08    0.07
  -2  -9  -7    0.02    0.07
   2  -9   7    0.04    0.08
   6   0  -8    0.58    0.09
   6   0  -8    0.67    0.09
   5   0  -8    0.11    0.07
   4   0  -8    0.24    0.06
   3   0  -8    8.39    0.25
   2   0  -8   14.28    0.34
  -1   0   8    0.09    0.05
   1   0  -8    0.14    0.05
   1   0  -8    0.07    0.04
  -1   0   8    0.25    0.06
   0   0   8    0.03    0.04
   0   0  -8    0.00    0.04
   0   0   8    0.06    0.04
   0   0  -8    0.04    0.04
   1   0   8    3.31    0.14
  -1   0  -8    3.23    0.12
   1   0   8    3.04    0.14
  -1   0  -8    3.17    0.15
  -2   0  -8    2.53    0.14
  -2   0  -8    2.49    0.10
   2   0   8    2.43    0.14
  -3   0  -8    8.55    0.29
   3   0   8    8.31    0.29
   4   0   8    1.34    0.13
   5   0   8   -0.07    0.06
   6   0   8    0.49    0.10
   6  -1  -8    0.02    0.07
   6  -1  -8    0.03    0.06
   6   1  -8    0.09    0.07
   5  -1  -8    0.12    0.06
   5  -1  -8   -0.06    0.05
   5   1  -8    0.17    0.07
   4  -1  -8    1.35    0.11
   4   1  -8    1.76    0.12
   3  -1  -8    1.05    0.09
   3   1  -8    1.13    0.10
   2  -1  -8   19.73    0.44
   2   1  -8   20.10    0.44
   1  -1  -8   14.52    0.37
   1  -1  -8   15.10    0.34
  -1  -1   8   15.27    0.37
  -1  -1   8   15.96    0.41
  -1   1   8   15.18    0.38
   1   1  -8   14.92    0.34
  -1   1   8   15.36    0.41
   0  -1  -8   10.15    0.25
   0  -1  -8   10.25    0.29
   0  -1   8   10.01    0.28
   0   1   8    9.84    0.28
   0   1  -8   10.15    0.25
   0   1   8   10.04    0.29
   1  -1   8    4.27    0.16
   1  -1   8    3.50    0.16
  -1  -1  -8    3.75    0.13
  -1  -1  -8    3.92    0.17
   1   1   8    3.94    0.16
  -1   1  -8    4.09    0.13
   1   1   8    3.72    0.17
   2  -1   8    3.54    0.16
  -2  -1  -8    3.30    0.16
  -2  -1  -8    3.31    0.12
   2   1   8    3.36    0.16
  -3  -1  -8    2.38    0.14
   3  -1   8    2.33    0.14
   3   1   8    2.38    0.15
  -4  -1  -8    0.66    0.10
   4  -1   8    0.64    0.09
   4   1   8    0.77    0.10
   5  -1   8    0.09    0.07
  -5  -1  -8    0.07    0.06
   5   1   8    0.04    0.06
   6  -1   8    0.91    0.12
   6   1   8    0.95    0.12
   6  -2  -8    0.64    0.10
   6   2  -8    0.46    0.09
   5  -2  -8    1.13    0.10
   5   2  -8    1.24    0.11
   4  -2  -8    3.26    0.16
   4   2  -8    3.52    0.16
   3  -2  -8    3.60    0.16
   3   2  -8    3.67    0.16
   2  -2  -8   12.80    0.32
   2   2  -8   12.91    0.32
  -1  -2   8   13.11    0.33
   1  -2  -8   12.72    0.34
   1  -2  -8   12.64    0.30
   1   2  -8   12.51    0.30
   0  -2  -8    1.19    0.08
   0  -2  -8    1.32    0.09
   0  -2   8    1.16    0.09
   0  -2   8    1.10    0.09
   0   2   8    1.08    0.09
   0   2   8    1.10    0.09
   0   2  -8    1.16    0.08
  -1  -2  -8   18.24    0.39
  -1  -2  -8   18.40    0.48
   1  -2   8   17.93    0.47
   1  -2   8   19.19    0.47
  -1   2  -8   18.27    0.37
   1   2   8   18.89    0.47
   2  -2   8    4.28    0.19
  -2  -2  -8    3.72    0.13
  -2  -2  -8    3.76    0.18
   2   2   8    4.03    0.18
   3  -2   8   13.33    0.39
  -3  -2  -8   13.22    0.40
   3   2   8   13.15    0.39
   4  -2   8    5.62    0.24
  -4  -2  -8    5.39    0.24
   4   2   8    5.65    0.24
   5  -2   8    0.10    0.07
  -5  -2  -8    0.16    0.07
   5   2   8    0.14    0.07
  -6  -2  -8    1.00    0.13
   6  -2   8    0.86    0.12
   6   2   8    1.01    0.13
   6   3  -8    0.05    0.07
   5  -3  -8    0.22    0.07
   5   3  -8    0.31    0.08
   4  -3  -8    3.11    0.15
   4   3  -8    3.05    0.15
   3  -3  -8    0.60    0.08
   3   3  -8    0.68    0.08
   2  -3  -8    5.44    0.18
   2   3  -8    5.36    0.18
   1  -3  -8   12.48    0.33
   1  -3  -8   11.84    0.30
  -1   3   8   11.61    0.33
   1   3  -8   12.37    0.30
  -1   3   8   11.66    0.35
   0  -3  -8    0.28    0.06
   0  -3  -8    0.26    0.05
   0  -3   8    0.25    0.06
   0   3  -8    0.22    0.05
   0   3   8    0.18    0.06
   0   3   8    0.30    0.06
  -1  -3  -8    2.50    0.12
   1  -3   8    2.76    0.15
  -1  -3  -8    2.63    0.15
   1   3   8    2.92    0.15
   2  -3   8    1.03    0.10
  -2  -3  -8    1.02    0.10
  -2  -3  -8    1.15    0.08
   2   3   8    1.15    0.11
  -3  -3  -8    0.06    0.06
   3  -3   8    0.04    0.05
  -3  -3  -8    0.07    0.04
   3   3   8    0.05    0.06
  -4  -3  -8    2.82    0.17
   4  -3   8    2.67    0.17
   4   3   8    2.85    0.17
   5  -3   8    0.52    0.10
  -5  -3  -8    0.60    0.10
   5   3   8    0.49    0.10
   5  -4  -8    0.41    0.08
   5   4  -8    0.52    0.09
   4  -4  -8    1.27    0.11
   4   4  -8    1.23    0.10
   3  -4  -8    0.30    0.06
   3   4  -8    0.50    0.07
   2  -4  -8    5.52    0.20
   2  -4  -8    5.38    0.19
   2   4  -8    5.35    0.18
   1  -4  -8   11.64    0.30
   1  -4  -8   11.71    0.34
   1   4  -8   11.87    0.29
  -1   4   8   12.24    0.36
   0  -4  -8    5.15    0.20
   0  -4  -8    4.83    0.17
   0   4  -8    5.63    0.17
   0   4   8    4.88    0.20
  -1  -4  -8   15.86    0.44
  -1  -4  -8   15.65    0.36
   1   4   8   16.68    0.44
  -2  -4  -8    3.89    0.14
  -2  -4  -8    3.93    0.19
   2   4   8    3.96    0.19
  -3  -4  -8    8.73    0.31
  -3  -4  -8    8.75    0.24
   3   4   8    8.41    0.30
   4  -4   8    3.21    0.20
  -4  -4  -8    4.59    0.22
   4   4   8    4.72    0.22
   5  -4   8    0.42    0.07
  -5  -4  -8    0.21    0.08
   5   4   8    0.12    0.08
   5  -5  -8    0.40    0.08
   5   5  -8    0.38    0.08
   4  -5  -8    0.80    0.09
   4   5  -8    0.78    0.09
   3  -5  -8    0.77    0.08
   3   5  -8    0.74    0.09
   2  -5  -8    1.54    0.11
   2  -5  -8    1.47    0.10
   2   5  -8    1.36    0.10
   1  -5  -8    4.39    0.17
   1  -5  -8    4.50    0.19
   1   5  -8    4.55    0.16
   0  -5  -8    4.05    0.19
   0  -5  -8    4.12    0.16
   0   5  -8    4.16    0.15
  -1  -5  -8    0.26    0.07
  -1  -5  -8    0.31    0.06
   1   5   8    0.32    0.07
  -2  -5  -8    0.91    0.08
  -2  -5  -8    0.85    0.10
   2   5   8    0.89    0.10
  -3  -5  -8    0.07    0.05
   3  -5   8    0.12    0.04
  -3  -5  -8    0.02    0.06
   3   5   8   -0.01    0.05
  -4  -5  -8    1.52    0.14
   4   5   8    1.61    0.14
  -5  -5  -8    0.43    0.10
   5   5   8    0.34    0.09
   4  -6  -8    0.14    0.06
   4   6  -8    0.32    0.08
   3  -6  -8    0.34    0.07
   3   6  -8    0.50    0.08
   2  -6  -8    0.58    0.08
   2  -6  -8    0.60    0.08
   2   6  -8    0.77    0.08
   1  -6  -8    2.89    0.14
  -1  -6   8    3.49    0.16
   1  -6  -8    3.59    0.18
   1   6  -8    3.31    0.14
   0  -6  -8    3.68    0.18
   0  -6   8    4.34    0.20
   0  -6  -8    3.55    0.15
  -1  -6  -8    2.99    0.17
  -1  -6  -8    2.92    0.14
  -2  -6  -8    2.35    0.13
  -2  -6  -8    2.23    0.16
   2   6   8    2.14    0.15
  -3  -6  -8    0.95    0.09
  -3  -6  -8    0.67    0.11
   3   6   8    0.85    0.11
  -4  -6  -8    0.65    0.11
   4   6   8    0.61    0.10
   4  -7  -8    0.40    0.08
   3  -7  -8    1.64    0.11
   3   7  -8    1.49    0.12
   2  -7  -8    0.51    0.09
   2  -7  -8    0.56    0.08
   2   7  -8    0.41    0.07
   1  -7  -8    0.40    0.08
   1  -7  -8    0.38    0.07
   1   7  -8    0.29    0.06
   0  -7   8    2.67    0.16
   0  -7  -8    2.48    0.17
   0  -7  -8    2.56    0.14
  -1  -7  -8    0.36    0.09
   1  -7   8    0.23    0.08
  -1  -7  -8    0.24    0.06
   2  -7   8    1.34    0.13
  -2  -7  -8    1.39    0.14
  -2  -7  -8    1.14    0.10
   2   7   8    1.38    0.13
  -3  -7  -8    0.49    0.10
  -3  -7  -8    0.53    0.08
   3  -7   8    0.42    0.09
   3   7   8    0.39    0.09
   3  -8  -8    0.41    0.08
   3   8  -8    0.38    0.08
   2  -8  -8   -0.03    0.06
   2  -8  -8   -0.02    0.05
   2   8  -8    0.08    0.06
   1  -8  -8    0.19    0.06
   1  -8  -8    0.17    0.08
   0  -8   8    0.85    0.11
   0  -8  -8    0.80    0.11
   0  -8  -8    0.83    0.09
  -1  -8  -8    1.31    0.13
  -1  -8  -8    1.22    0.10
   1  -8   8    0.97    0.12
  -2  -8  -8    1.64    0.12
  -2  -8  -8    1.65    0.15
   2  -8   8    1.60    0.15
   1  -9  -8    0.41    0.10
   0  -9   8    1.55    0.15
   0  -9  -8    1.62    0.15
   1  -9   8    0.27    0.09
   6   0  -9    0.31    0.08
   6   0  -9    0.25    0.09
   5   0  -9    0.19    0.07
   4   0  -9    0.48    0.08
   3   0  -9    5.87    0.21
   2   0  -9   27.97    0.58
   1   0  -9    0.09    0.05
   1   0  -9    0.12    0.06
  -1   0   9    0.06    0.05
   0   0   9    4.42    0.18
   0   0  -9    4.25    0.17
   0   0  -9    4.48    0.16
   0   0   9    4.57    0.18
  -1   0  -9    2.94    0.12
   1   0   9    3.13    0.15
  -1   0  -9    3.03    0.15
  -2   0  -9    0.87    0.09
   2   0   9    0.77    0.09
   3   0   9    3.01    0.17
  -3   0  -9    3.28    0.17
   4   0   9    0.76    0.11
   5   0   9    0.36    0.09
   6  -1  -9    0.65    0.10
   6   1  -9    0.95    0.12
   5  -1  -9    0.97    0.10
   5   1  -9    1.20    0.11
   4  -1  -9   -0.01    0.06
   4   1  -9    0.02    0.06
   3  -1  -9    0.52    0.08
   3   1  -9    0.55    0.08
   2  -1  -9    2.17    0.13
   2   1  -9    1.92    0.12
   1  -1  -9    7.10    0.22
  -1  -1   9    7.41    0.22
   1  -1  -9    7.61    0.23
  -1   1   9    7.44    0.23
  -1   1   9    7.26    0.25
   1   1  -9    6.96    0.21
   0  -1   9    0.16    0.05
   0  -1  -9    0.26    0.06
   0  -1   9    0.19    0.06
   0  -1  -9    0.20    0.05
   0   1   9    0.23    0.06
   0   1  -9    0.20    0.05
   0   1   9    0.27    0.06
  -1  -1  -9    8.69    0.23
  -1  -1  -9    8.58    0.28
   1  -1   9    8.63    0.28
   1  -1   9    8.97    0.28
  -1   1  -9    8.80    0.22
   1   1   9    8.59    0.28
  -2  -1  -9    1.20    0.08
   2  -1   9    1.28    0.11
  -2  -1  -9    1.32    0.11
   2   1   9    1.34    0.12
  -3  -1  -9    3.45    0.18
   3  -1   9    3.48    0.18
   3   1   9    3.88    0.19
   4  -1   9    1.43    0.13
  -4  -1  -9    1.64    0.14
   4   1   9    1.55    0.14
   5  -1   9    0.11    0.07
   5   1   9    0.10    0.07
   6  -2  -9    0.39    0.10
   6   2  -9    0.65    0.11
   5  -2  -9    0.22    0.07
   5   2  -9    0.25    0.08
   4  -2  -9    1.17    0.10
   4   2  -9    1.16    0.11
   3  -2  -9    8.16    0.25
   3   2  -9    8.42    0.26
   2  -2  -9   15.93    0.38
   2   2  -9   16.56    0.38
  -1  -2   9    1.07    0.09
   1  -2  -9    0.88    0.09
   1  -2  -9    1.04    0.09
   1   2  -9    1.12    0.09
   0  -2  -9    3.81    0.17
   0  -2  -9    3.48    0.14
   0  -2   9    3.71    0.16
   0   2   9    3.48    0.16
   0   2  -9    3.65    0.14
  -1  -2  -9    0.93    0.08
   1  -2   9    0.90    0.09
   1  -2   9    0.73    0.08
  -1  -2  -9    0.76    0.09
   1   2   9    0.97    0.10
  -2  -2  -9    2.71    0.16
  -2  -2  -9    2.73    0.12
   2  -2   9    2.78    0.15
   2   2   9    2.72    0.16
  -3  -2  -9    1.59    0.13
   3  -2   9    1.58    0.13
   3   2   9    1.63    0.14
   4  -2   9    0.49    0.09
  -4  -2  -9    0.38    0.08
   4   2   9    0.45    0.09
  -5  -2  -9    0.98    0.12
   5  -2   9    0.97    0.12
   5   2   9    0.99    0.13
   5  -3  -9    0.11    0.07
   5   3  -9    0.03    0.07
   4  -3  -9    0.39    0.08
   4   3  -9    0.40    0.08
   3  -3  -9    1.30    0.11
   3   3  -9    0.89    0.09
   2  -3  -9    4.85    0.18
   2   3  -9    4.98    0.18
   1  -3  -9    2.68    0.14
   1  -3  -9    2.71    0.13
   1   3  -9    2.84    0.13
  -1   3   9    2.70    0.15
  -1   3   9    2.75    0.14
   0  -3  -9    0.21    0.06
   0  -3   9    0.16    0.06
   0  -3  -9    0.09    0.05
   0   3   9    0.16    0.06
   0   3  -9    0.13    0.05
   1  -3   9   17.30    0.46
  -1  -3  -9   16.27    0.38
  -1  -3  -9   17.12    0.47
   1   3   9   17.00    0.46
  -2  -3  -9    2.38    0.11
  -2  -3  -9    2.56    0.16
   2  -3   9    2.45    0.15
   2   3   9    2.38    0.15
   3  -3   9    0.54    0.09
  -3  -3  -9    0.72    0.10
   3   3   9    0.65    0.10
   4  -3   9    0.29    0.08
  -4  -3  -9    0.23    0.08
   4   3   9    0.30    0.08
  -5  -3  -9    0.20    0.08
   5  -3   9   -0.03    0.07
   5   3   9    0.09    0.08
   5  -4  -9    0.11    0.07
   5   4  -9    0.25    0.08
   4  -4  -9    1.45    0.12
   4   4  -9    1.47    0.12
   3  -4  -9    3.46    0.16
   3   4  -9    3.32    0.16
   2  -4  -9    2.73    0.14
   2   4  -9    3.05    0.14
   1  -4  -9    3.00    0.15
   1  -4  -9    2.75    0.13
  -1   4   9    2.89    0.15
   1   4  -9    2.87    0.14
   0  -4  -9    4.46    0.19
   0  -4  -9    3.92    0.15
   0   4   9    4.40    0.19
   0   4  -9    4.57    0.16
  -1  -4  -9    1.63    0.10
  -1  -4  -9    1.78    0.14
   1   4   9    1.71    0.13
  -2  -4  -9    1.57    0.13
  -2  -4  -9    1.75    0.10
   2  -4   9    1.27    0.11
   2   4   9    1.75    0.13
  -3  -4  -9    1.09    0.09
   3  -4   9    1.14    0.11
  -3  -4  -9    1.22    0.12
   3   4   9    1.13    0.12
  -4  -4  -9    0.27    0.08
   4  -4   9    0.49    0.08
   4   4   9    0.37    0.09
   5  -4   9    0.97    0.09
  -5  -4  -9    1.06    0.13
   5   4   9    0.95    0.13
   5  -5  -9    1.25    0.11
   4  -5  -9    3.14    0.16
   4   5  -9    3.21    0.17
   3  -5  -9    0.97    0.09
   3   5  -9    1.06    0.10
   2  -5  -9    1.13    0.10
   2   5  -9    1.10    0.10
   1  -5  -9    0.12    0.06
   1  -5  -9    0.24    0.07
   1   5  -9    0.16    0.06
   0  -5   9    0.03    0.03
   0  -5  -9    0.12    0.05
   0  -5  -9    0.08    0.06
   0   5   9    0.22    0.06
  -1  -5  -9    2.02    0.12
  -1  -5  -9    1.96    0.14
   1   5   9    2.21    0.14
  -2  -5  -9    0.23    0.07
  -2  -5  -9    0.23    0.06
   2   5   9    0.15    0.07
  -3  -5  -9    1.02    0.09
  -3  -5  -9    1.01    0.12
   3   5   9    0.84    0.11
  -4  -5  -9   -0.07    0.06
   4   5   9    0.02    0.07
   4  -6  -9    0.57    0.09
   4   6  -9    0.57    0.09
   3  -6  -9    0.95    0.09
   3   6  -9    0.90    0.10
   2  -6  -9    0.44    0.07
   2   6  -9    0.49    0.08
   1  -6  -9    1.27    0.10
   1  -6  -9    1.34    0.12
   1   6  -9    1.39    0.10
   0  -6  -9    2.64    0.16
   0  -6  -9    2.38    0.13
   0  -6   9    2.32    0.16
   1  -6   9    0.04    0.04
  -1  -6  -9    0.13    0.07
  -1  -6  -9    0.09    0.05
   1   6   9    0.05    0.06
  -2  -6  -9    0.41    0.07
  -2  -6  -9    0.42    0.09
   2   6   9    0.45    0.09
  -3  -6  -9    0.55    0.08
  -3  -6  -9    0.68    0.11
   3   6   9    0.67    0.11
  -4  -6  -9    0.07    0.08
   4  -6   9    0.14    0.04
   4   6   9    0.06    0.08
   3  -7  -9    0.24    0.07
   3   7  -9    0.33    0.08
   2  -7  -9   -0.03    0.05
   2   7  -9    0.04    0.06
   1  -7  -9    0.76    0.09
   1  -7  -9    0.82    0.11
   0  -7  -9    0.91    0.11
   0  -7  -9    0.73    0.08
   0  -7   9    0.72    0.10
  -1  -7  -9    0.00    0.06
   1  -7   9   -0.09    0.07
  -1  -7  -9    0.01    0.05
   1   7   9   -0.04    0.05
   2  -7   9    0.77    0.11
  -2  -7  -9    0.61    0.11
   2   7   9    0.67    0.11
  -3  -7  -9    0.22    0.06
  -3  -7  -9    0.23    0.09
   3  -7   9    0.12    0.07
   3   7   9    0.20    0.08
   2   8  -9    0.24    0.07
   1  -8  -9    0.10    0.08
   1  -8  -9    0.18    0.06
   0  -8   9    1.15    0.13
   0  -8  -9    1.24    0.13
   0  -8  -9    0.84    0.09
  -1  -8  -9    0.13    0.06
   1  -8   9    0.07    0.08
  -1  -8  -9    0.07    0.08
  -2  -8  -9   -0.01    0.07
   2   8   9    0.07    0.07
   5   0 -10    0.30    0.08
   4   0 -10    1.97    0.13
   3   0 -10    0.08    0.06
   2   0 -10    2.41    0.13
   1   0 -10    0.80    0.08
   0   0  10    0.98    0.10
   0   0 -10    1.03    0.09
   0   0  10    1.14    0.10
   0   0 -10    0.98    0.08
   1   0  10    8.50    0.29
  -1   0 -10    8.51    0.29
  -1   0 -10    8.73    0.23
  -2   0 -10    1.00    0.10
   2   0  10    1.00    0.10
   3   0  10    1.24    0.12
   4   0  10    0.02    0.06
   5   0  10    1.88    0.16
   5  -1 -10    0.01    0.07
   5   1 -10    0.02    0.07
   4  -1 -10    0.84    0.10
   4   1 -10    0.85    0.10
   3  -1 -10    1.30    0.11
   3   1 -10    1.10    0.10
   2  -1 -10    1.74    0.11
   2   1 -10    1.53    0.11
   1  -1 -10    0.90    0.09
   1  -1 -10    0.89    0.08
  -1   1  10    0.89    0.09
   1   1 -10    0.78    0.08
   0  -1 -10    2.12    0.11
   0  -1 -10    2.05    0.13
   0  -1  10    2.15    0.12
   0   1  10    1.97    0.13
   0   1 -10    2.05    0.11
   1  -1  10    1.54    0.12
  -1  -1 -10    1.67    0.10
  -1  -1 -10    1.32    0.12
  -1   1 -10    1.50    0.10
   1   1  10    1.46    0.12
  -2  -1 -10    0.06    0.05
   2  -1  10    0.06    0.06
   2   1  10    0.06    0.06
   3  -1  10    0.23    0.08
  -3  -1 -10    0.18    0.07
   3   1  10    0.17    0.07
   4  -1  10    0.19    0.08
  -4  -1 -10    0.14    0.07
   4   1  10    0.14    0.08
   5  -1  10    0.53    0.10
   5   1  10    0.58    0.11
   5  -2 -10    0.13    0.08
   5   2 -10    0.17    0.08
   4  -2 -10    0.60    0.09
   4   2 -10    0.59    0.09
   3  -2 -10    0.12    0.06
   3   2 -10    0.03    0.06
   2  -2 -10    4.51    0.18
   2   2 -10    4.50    0.18
   1  -2 -10    0.41    0.07
   1  -2 -10    0.51    0.07
   1   2 -10    0.35    0.07
   0  -2 -10    1.25    0.11
   0  -2 -10    1.18    0.09
   0  -2  10    1.44    0.11
   0   2  10    1.22    0.11
   0   2 -10    1.21    0.09
  -1  -2 -10    7.43    0.22
  -1  -2 -10    7.32    0.27
   1  -2  10    7.61    0.27
   1   2  10    7.85    0.27
   2  -2  10    0.17    0.07
  -2  -2 -10    0.13    0.06
  -2  -2 -10    0.23    0.05
   2   2  10    0.27    0.08
  -3  -2 -10    0.93    0.11
   3  -2  10    0.95    0.11
   3   2  10    0.99    0.11
  -4  -2 -10    0.08    0.07
   4  -2  10    0.15    0.07
   4   2  10   -0.03    0.06
   5  -2  10    0.69    0.11
  -5  -2 -10    0.69    0.12
   5   2  10    0.94    0.13
   5  -3 -10    0.36    0.09
   5   3 -10    0.22    0.08
   4  -3 -10    1.46    0.12
   4   3 -10    1.32    0.12
   3  -3 -10    1.79    0.12
   3   3 -10    1.53    0.12
   2  -3 -10    0.36    0.07
   2   3 -10    0.31    0.07
   1  -3 -10    1.42    0.11
   1  -3 -10    1.47    0.11
   1   3 -10    1.55    0.11
  -1   3  10    1.62    0.11
   0  -3 -10    0.40    0.06
   0  -3  10    0.41    0.08
   0  -3 -10    0.47    0.07
   0   3  10    0.44    0.07
   0   3 -10    0.42    0.07
  -1  -3 -10    1.31    0.12
   1  -3  10    1.37    0.12
  -1  -3 -10    1.49    0.10
   1   3  10    1.36    0.12
  -2  -3 -10    1.45    0.10
   2  -3  10    1.58    0.13
  -2  -3 -10    1.53    0.13
   2   3  10    1.56    0.13
   3  -3  10    0.37    0.08
  -3  -3 -10    0.33    0.09
   3   3  10    0.42    0.09
   4  -3  10    0.01    0.07
  -4  -3 -10    0.02    0.07
   4   3  10    0.05    0.07
   5  -4 -10    0.37    0.08
   4  -4 -10    0.77    0.10
   4   4 -10    0.56    0.09
   3  -4 -10    1.12    0.10
   3   4 -10    1.14    0.10
   2  -4 -10    1.94    0.12
   2   4 -10    2.19    0.13
   1  -4 -10    1.69    0.13
   1  -4 -10    1.65    0.11
  -1   4  10    1.68    0.12
   1   4 -10    1.79    0.12
   0  -4 -10    0.34    0.06
   0  -4 -10    0.39    0.08
   0   4  10    0.46    0.08
   1  -4  10    0.50    0.07
  -1  -4 -10    0.86    0.08
  -1  -4 -10    0.91    0.11
   1   4  10    0.81    0.10
  -2  -4 -10    0.79    0.08
  -2  -4 -10    0.73    0.10
   2  -4  10    0.79    0.10
   2   4  10    0.79    0.10
   3  -4  10    1.14    0.11
  -3  -4 -10    0.85    0.12
   3   4  10    0.79    0.11
  -4  -4 -10    0.18    0.08
   4  -4  10    0.41    0.07
   4   4  10    0.22    0.08
   4  -5 -10    0.37    0.08
   4   5 -10    0.18    0.08
   3  -5 -10   -0.02    0.05
   3   5 -10    0.04    0.06
   2  -5 -10    2.02    0.13
   2   5 -10    2.13    0.13
   1  -5 -10    1.90    0.13
   1  -5 -10    1.85    0.12
  -1   5  10    1.81    0.13
   1   5 -10    1.81    0.11
   0  -5 -10    1.70    0.11
   0  -5 -10    2.38    0.16
   0   5  10    2.17    0.15
  -1  -5 -10    0.12    0.07
  -1  -5 -10    0.19    0.05
   1   5  10    0.15    0.07
  -2  -5 -10    2.26    0.13
  -2  -5 -10    2.07    0.16
   2   5  10    2.00    0.15
   3  -5  10    0.22    0.05
  -3  -5 -10    0.14    0.08
   3   5  10    0.21    0.08
  -4  -5 -10    0.46    0.11
   4   5  10    0.54    0.11
   3  -6 -10    1.61    0.13
   3   6 -10    1.03    0.11
   2  -6 -10    0.18    0.06
   2   6 -10    0.21    0.06
   1  -6 -10    0.83    0.09
   1  -6 -10    0.88    0.11
   1   6 -10    0.79    0.09
  -1   6  10    0.90    0.10
   0  -6 -10    0.08    0.05
   0  -6  10    0.11    0.06
   0  -6 -10    0.02    0.06
   0   6  10    0.10    0.07
  -1  -6 -10    0.42    0.10
  -1  -6 -10    0.35    0.07
   1   6  10    0.32    0.09
  -2  -6 -10    1.14    0.14
  -2  -6 -10    1.25    0.11
   2   6  10    1.55    0.15
  -3  -6 -10    0.09    0.05
  -3  -6 -10    0.13    0.08
   3   6  10    0.03    0.08
   2  -7 -10    0.18    0.06
   2   7 -10    0.34    0.08
   1  -7 -10    0.94    0.12
   1  -7 -10    0.87    0.09
   0  -7 -10    0.74    0.09
   0  -7 -10    0.76    0.11
   0   7  10    0.72    0.11
   1  -7  10    0.46    0.11
  -1  -7 -10    0.46    0.08
  -1  -7 -10    0.56    0.10
   1   7  10    0.58    0.10
  -2  -7 -10    0.34    0.10
   2  -7  10    0.46    0.10
  -2  -7 -10    0.34    0.07
   2   7  10    0.43    0.10
   5   0 -11    1.36    0.13
   4   0 -11   -0.07    0.06
   3   0 -11    0.29    0.07
   2   0 -11    6.46    0.23
   1   0 -11    0.02    0.05
   0   0  11    5.93    0.23
   0   0 -11    6.01    0.20
  -1   0 -11    0.05    0.05
  -1   0 -11    0.11    0.06
   1   0  11    0.12    0.07
   2   0  11    2.47    0.16
   3   0  11    0.21    0.08
   4   0  11    3.67    0.21
   5  -1 -11    0.23    0.09
   4  -1 -11    1.43    0.13
   4   1 -11    1.61    0.13
   3  -1 -11    0.48    0.08
   3   1 -11    0.38    0.08
   2  -1 -11    0.48    0.08
   2   1 -11    0.54    0.08
   1  -1 -11    1.83    0.12
   1   1 -11    1.71    0.12
   0  -1  11    2.94    0.16
   0  -1 -11    2.84    0.14
   0  -1 -11    3.13    0.16
   0   1 -11    3.03    0.14
   0   1  11    2.86    0.15
  -1  -1 -11    2.74    0.13
   1  -1  11    2.34    0.15
  -1  -1 -11    2.65    0.16
   1   1  11    2.70    0.16
  -2  -1 -11    0.72    0.10
   2  -1  11    0.71    0.10
   2   1  11    0.66    0.10
  -3  -1 -11    0.56    0.09
   3  -1  11    0.56    0.09
   3   1  11    0.46    0.09
   4  -1  11    0.30    0.09
  -4  -1 -11    0.32    0.09
   4   1  11    0.21    0.09
   4  -2 -11    0.63    0.09
   4   2 -11    0.77    0.11
   3  -2 -11    0.10    0.07
   3   2 -11    0.01    0.06
   2  -2 -11    2.56    0.15
   2   2 -11    2.88    0.15
   1  -2 -11    0.42    0.07
   1   2 -11    0.35    0.07
   0  -2 -11    2.26    0.14
   0  -2  11    2.41    0.14
   0  -2 -11    2.46    0.13
   0   2  11    2.36    0.15
   0   2 -11    2.49    0.13
  -1  -2 -11    0.91    0.08
   1  -2  11    1.01    0.10
  -1  -2 -11    1.07    0.11
   1   2  11    0.84    0.10
   2  -2  11    1.18    0.12
  -2  -2 -11    1.29    0.12
   2   2  11    1.04    0.11
  -3  -2 -11    2.22    0.16
   3  -2  11    2.31    0.17
   3   2  11    2.46    0.17
   4  -2  11    2.10    0.17
  -4  -2 -11    2.06    0.17
   4   2  11    2.01    0.16
   4  -3 -11    1.80    0.14
   4   3 -11    1.93    0.14
   3  -3 -11    0.45    0.08
   3   3 -11    0.43    0.08
   2  -3 -11    1.67    0.12
   2   3 -11    1.46    0.12
   1  -3 -11    0.97    0.10
   1   3 -11    0.99    0.10
   0  -3 -11    3.03    0.17
   0  -3 -11    2.60    0.13
   0  -3  11    3.38    0.17
   0   3  11    2.81    0.16
  -1  -3 -11    1.99    0.15
  -1  -3 -11    2.10    0.12
   1  -3  11    1.99    0.15
   1   3  11    1.96    0.15
  -2  -3 -11    0.33    0.08
   2  -3  11    0.20    0.07
  -2  -3 -11    0.26    0.06
   2   3  11    0.21    0.08
  -3  -3 -11    1.03    0.12
   3  -3  11    1.29    0.13
   3   3  11    1.14    0.13
   4  -3  11    0.13    0.08
  -4  -3 -11    0.17    0.08
   4   3  11    0.15    0.08
   4  -4 -11    0.53    0.09
   4   4 -11    0.49    0.09
   3  -4 -11    0.83    0.10
   3   4 -11    0.72    0.10
   2  -4 -11    0.55    0.09
   2   4 -11    0.47    0.08
   1  -4 -11    0.36    0.07
   1   4 -11    0.28    0.07
   0  -4 -11    0.02    0.06
   0  -4 -11    0.00    0.04
   0   4  11    0.00    0.06
  -1  -4 -11    0.94    0.09
   1  -4  11    0.62    0.08
  -1  -4 -11    0.92    0.11
   1   4  11    1.04    0.11
  -2  -4 -11    0.30    0.06
   2  -4  11    0.51    0.08
  -2  -4 -11    0.17    0.08
   2   4  11    0.37    0.09
  -3  -4 -11    2.41    0.18
   3  -4  11    2.59    0.18
   3   4  11    2.76    0.19
   3  -5 -11    0.08    0.06
   3   5 -11    0.26    0.08
   2  -5 -11    1.03    0.10
   2   5 -11    1.24    0.11
   1  -5 -11    0.08    0.05
   1   5 -11    0.30    0.07
   0  -5 -11    0.16    0.08
   0  -5 -11    0.18    0.06
   0   5  11    0.17    0.07
  -1  -5 -11    1.39    0.13
  -1  -5 -11    1.28    0.10
   1   5  11    1.52    0.14
  -2  -5 -11    0.52    0.10
  -2  -5 -11    0.39    0.07
   2   5  11    0.45    0.10
  -3  -5 -11    0.88    0.12
   3   5  11    0.70    0.12
   2  -6 -11    0.24    0.07
   2   6 -11    0.30    0.08
   1  -6 -11   -0.04    0.05
   0  -6 -11    0.17    0.06
   0  -6 -11    0.29    0.09
   0   6  11    0.18    0.08
  -1  -6 -11    2.07    0.13
  -1  -6 -11    2.09    0.17
   1   6  11    2.03    0.16
   2  -6  11    0.15    0.05
  -2  -6 -11    0.07    0.05
  -2  -6 -11   -0.09    0.07
   2   6  11    0.03    0.08
   0  -7 -11    0.25    0.09
   0   7  11    0.16    0.08
   4   0 -12    0.21    0.08
   3   0 -12    0.29    0.08
   2   0 -12    0.14    0.06
   1   0 -12    0.71    0.09
   0   0  12    0.49    0.08
   0   0 -12    0.36    0.07
   1   0  12    0.81    0.10
   2   0  12    0.00    0.07
   3   0  12    6.07    0.27
   4  -1 -12    1.27    0.12
   4   1 -12    1.15    0.12
   3  -1 -12    0.23    0.07
   3   1 -12    0.20    0.08
   2  -1 -12    0.51    0.08
   2   1 -12    0.43    0.08
   1  -1 -12    0.00    0.05
   1   1 -12   -0.05    0.05
   0  -1 -12    0.78    0.10
   0  -1  12    0.96    0.10
   0  -1 -12    0.65    0.08
   0   1 -12    0.90    0.09
   0   1  12    0.76    0.10
  -1  -1 -12    2.01    0.12
   1  -1  12    1.83    0.14
  -1  -1 -12    1.74    0.14
   1   1  12    1.83    0.14
  -2  -1 -12    0.49    0.09
   2  -1  12    0.50    0.10
   2   1  12    0.41    0.09
   3  -1  12    2.16    0.17
  -3  -1 -12    2.17    0.17
   3   1  12    2.34    0.17
   3  -2 -12    0.17    0.07
   3   2 -12    0.12    0.07
   2  -2 -12    0.29    0.07
   2   2 -12    0.24    0.08
   1  -2 -12    1.30    0.11
   1   2 -12    1.31    0.11
   0  -2 -12    1.00    0.09
   0  -2 -12    1.07    0.11
   0   2  12    1.17    0.12
  -1  -2 -12    2.12    0.12
  -1  -2 -12    2.32    0.16
   1  -2  12    2.01    0.15
   1   2  12    2.05    0.15
   2  -2  12    0.51    0.10
  -2  -2 -12    0.52    0.10
   2   2  12    0.68    0.11
  -3  -2 -12    2.85    0.19
   3  -2  12    2.82    0.19
   3   2  12    2.73    0.19
   3  -3 -12    0.43    0.08
   3   3 -12    0.39    0.09
   2  -3 -12    0.56    0.08
   2   3 -12    0.45    0.08
   1  -3 -12    0.01    0.06
   1   3 -12   -0.01    0.06
   0  -3 -12    1.04    0.11
   0  -3 -12    0.97    0.10
   0   3  12    1.06    0.11
  -1  -3 -12    0.67    0.10
   1  -3  12    0.65    0.10
  -1  -3 -12    0.62    0.08
   1   3  12    0.76    0.11
   2  -3  12    0.15    0.08
  -2  -3 -12    0.25    0.09
   2   3  12    0.30    0.09
  -3  -3 -12    2.51    0.19
   3  -3  12    2.15    0.18
   3   3  12    2.31    0.18
   3   4 -12    0.15    0.08
   2  -4 -12    0.45    0.08
   2   4 -12    0.51    0.09
   1  -4 -12    0.46    0.08
   1   4 -12    0.36    0.08
   0  -4 -12    0.00    0.06
   0  -4 -12   -0.02    0.05
   0   4  12    0.04    0.06
  -1  -4 -12    0.93    0.12
  -1  -4 -12    0.92    0.09
   1   4  12    0.93    0.12
  -2  -4 -12    0.12    0.08
   2   4  12    0.14    0.08
   2   5 -12    0.11    0.08
   1  -5 -12    0.21    0.07
   0  -5 -12    0.69    0.09
   0  -5 -12    0.74    0.11
   0   5  12    1.04    0.12
  -1  -5 -12    1.66    0.15
  -1  -5 -12    1.39    0.11
   1   5  12    1.44    0.14
  -2  -5 -12    0.50    0.11
  -2  -5 -12    0.73    0.09
   2   5  12    0.67    0.11
   0  -6 -12    0.58    0.11
   0   6  12    0.50    0.10
   3   0 -13    1.22    0.12
   2   0 -13   -0.04    0.06
   1   0 -13    2.86    0.16
   0   0 -13    0.18    0.06
   1   0  13    0.10    0.07
   2   0  13    1.33    0.14
   3   0  13    0.03    0.08
   3  -1 -13   -0.09    0.06
   3   1 -13    0.06    0.07
   2  -1 -13    0.26    0.08
   2   1 -13    0.20    0.08
   1  -1 -13    0.57    0.09
   1   1 -13    0.64    0.09
   0  -1 -13    0.96    0.09
   1  -1  13    1.03    0.12
  -1  -1 -13    0.98    0.12
   1   1  13    1.05    0.12
   2  -1  13   -0.01    0.07
  -2  -1 -13    0.02    0.07
   2   1  13    0.13    0.08
   2  -2 -13    0.43    0.09
   2   2 -13    0.33    0.09
   1  -2 -13    1.42    0.12
   1   2 -13    1.52    0.12
   0  -2 -13    0.38    0.07
   1  -2  13    0.21    0.08
  -1  -2 -13    0.26    0.08
   1   2  13    0.13    0.08
  -2  -2 -13    0.33    0.09
   2  -2  13    0.29    0.09
   2   2  13    0.28    0.09
   2  -3 -13    0.37    0.08
   2   3 -13    0.42    0.09
   1  -3 -13    0.21    0.07
   1   3 -13    0.13    0.07
   0  -3 -13    0.60    0.09
  -1  -3 -13    1.41    0.11
   1  -3  13    1.37    0.14
  -1  -3 -13    1.41    0.14
   1   3  13    1.53    0.15
   2  -3  13    0.59    0.12
  -2  -3 -13    0.75    0.12
   2   3  13    0.74    0.12
   2   4 -13    0.45    0.10
   1  -4 -13    0.21    0.07
   0  -4 -13    0.14    0.07
  -1  -4 -13    0.85    0.09
  -1  -4 -13    0.88    0.12
   1   4  13    0.80    0.12
   1   0 -14    0.70    0.10
   1   0  14    0.09    0.08
   1  -1 -14    0.18    0.07
   1   1 -14    0.16    0.08
   0  -1 -14    1.21    0.11
   1  -1  14    1.00    0.13
   1   1  14    0.85    0.12
   1  -2 -14    0.22    0.08
   1   2 -14    0.30    0.08
   0  -2 -14    0.05    0.06
   0   0   0    0.00    0.00
;
_shelx_hkl_checksum              25274
_publcif_info_exptl_table_max_cols 4
_publcif_info_exptl_table_use_headnotes n
_publcif_funding_html
;<span class="funder"><span class="fundref-name" 
data-id="501100003593">Conselho Nacional de Desenvolvimento Cient&#237;fico e 
Tecnol&#243;gico</span><span class="fundref-subname" data-id=""></span> (award 
No. <span class="fundref-grant">305626/2013&ndash;2</span>); </span><span 
class="funder"><span class="fundref-name" data-id="">Sunway 
University</span><span class="fundref-subname" data-id=""></span> (award No. 
<span class="fundref-grant">INT-RRO-2017-096</span>).</span>
;
loop_
_space_group_symop_operation_xyz
'x, y, z'
'-x, y+1/2, -z'
loop_
_atom_site_label
_atom_site_type_symbol
_atom_site_fract_x
_atom_site_fract_y
_atom_site_fract_z
_atom_site_U_iso_or_equiv
_atom_site_adp_type
_atom_site_occupancy
_atom_site_site_symmetry_order
_atom_site_calc_flag
_atom_site_refinement_flags_posn
_atom_site_refinement_flags_adp
_atom_site_refinement_flags_occupancy
_atom_site_disorder_assembly
_atom_site_disorder_group
O1 O 1.1372(3) 0.1225(4) 0.51075(18) 0.0772(7) Uani 1 1 d . . . . .
O2 O 1.0038(3) -0.0413(2) 0.37308(15) 0.0519(5) Uani 1 1 d . . . . .
O3 O 1.0370(3) 0.1267(2) 0.16741(16) 0.0474(4) Uani 1 1 d D . . . .
H3O H 1.171(3) 0.091(5) 0.176(3) 0.071 Uiso 1 1 d D U . . .
N1 N 0.4839(3) -0.0156(3) 0.18328(16) 0.0399(4) Uani 1 1 d D . . . .
H1N H 0.463(4) -0.1113(19) 0.156(2) 0.048 Uiso 1 1 d D U . . .
C1 C 0.9838(4) 0.0886(4) 0.44096(19) 0.0497(6) Uani 1 1 d . . . . .
C2 C 0.7749(4) 0.1800(3) 0.4292(2) 0.0499(6) Uani 1 1 d . . . . .
H2 H 0.7692 0.2817 0.4661 0.060 Uiso 1 1 calc R U . . .
C3 C 0.5947(4) 0.1256(4) 0.3691(2) 0.0452(5) Uani 1 1 d . . . . .
H3 H 0.4612 0.1873 0.3664 0.054 Uiso 1 1 calc R U . . .
C4 C 0.5952(4) -0.0302(3) 0.3053(2) 0.0424(5) Uani 1 1 d . . . . .
H4 H 0.5202 -0.1133 0.3538 0.051 Uiso 1 1 calc R U . . .
C5 C 0.8350(4) -0.0795(3) 0.2802(2) 0.0427(5) Uani 1 1 d . . . . .
H5 H 0.8361 -0.1971 0.2683 0.051 Uiso 1 1 calc R U . . .
C6 C 0.8844(3) -0.0009(3) 0.15679(18) 0.0371(5) Uani 1 1 d . . . . .
H6 H 0.9389 -0.0821 0.0990 0.044 Uiso 1 1 calc R U . . .
C7 C 0.6538(3) 0.0636(3) 0.11123(18) 0.0325(4) Uani 1 1 d . . . . .
H7 H 0.6510 0.1788 0.1330 0.039 Uiso 1 1 calc R U . . .
C8 C 0.6046(3) 0.0531(3) -0.02427(19) 0.0343(4) Uani 1 1 d . . . . .
C9 C 0.3983(4) 0.0059(3) -0.0742(2) 0.0429(5) Uani 1 1 d . . . . .
H9 H 0.2824 -0.0227 -0.0222 0.051 Uiso 1 1 calc R U . . .
C10 C 0.3576(4) -0.0004(3) -0.1992(2) 0.0483(6) Uani 1 1 d . . . . .
H10 H 0.2153 -0.0342 -0.2319 0.058 Uiso 1 1 calc R U . . .
C11 C 0.5227(4) 0.0422(3) -0.2758(2) 0.0495(6) Uani 1 1 d . . . . .
H11 H 0.4947 0.0384 -0.3614 0.059 Uiso 1 1 calc R U . . .
C12 C 0.7296(4) 0.0904(4) -0.2272(2) 0.0513(6) Uani 1 1 d . . . . .
H12 H 0.8446 0.1197 -0.2796 0.062 Uiso 1 1 calc R U . . .
C13 C 0.7697(4) 0.0962(3) -0.1027(2) 0.0457(6) Uani 1 1 d . . . . .
H13 H 0.9122 0.1302 -0.0703 0.055 Uiso 1 1 calc R U . . .
loop_
_atom_site_aniso_label
_atom_site_aniso_U_11
_atom_site_aniso_U_22
_atom_site_aniso_U_33
_atom_site_aniso_U_23
_atom_site_aniso_U_13
_atom_site_aniso_U_12
O1 0.0479(11) 0.130(2) 0.0521(10) -0.0153(14) -0.0175(9) 0.0000(13)
O2 0.0411(9) 0.0693(12) 0.0437(8) 0.0077(9) -0.0133(7) 0.0104(8)
O3 0.0286(7) 0.0602(10) 0.0528(9) 0.0029(9) -0.0035(7) -0.0071(7)
N1 0.0318(9) 0.0502(11) 0.0374(9) 0.0015(9) -0.0018(7) -0.0081(9)
C1 0.0378(12) 0.0800(19) 0.0307(10) 0.0034(12) -0.0044(9) -0.0039(12)
C2 0.0434(13) 0.0707(17) 0.0356(11) -0.0095(11) 0.0022(10) 0.0002(12)
C3 0.0333(11) 0.0673(15) 0.0351(10) -0.0010(11) 0.0037(8) 0.0030(11)
C4 0.0341(11) 0.0546(14) 0.0383(11) 0.0079(11) -0.0009(8) -0.0068(10)
C5 0.0398(12) 0.0440(12) 0.0433(12) 0.0047(10) -0.0084(10) 0.0033(10)
C6 0.0278(9) 0.0451(12) 0.0379(10) -0.0032(10) -0.0027(8) 0.0038(9)
C7 0.0258(9) 0.0366(10) 0.0348(10) 0.0003(9) -0.0010(8) 0.0011(8)
C8 0.0309(10) 0.0354(10) 0.0363(10) 0.0000(8) -0.0025(9) 0.0033(8)
C9 0.0322(10) 0.0561(14) 0.0400(11) -0.0019(11) -0.0014(9) -0.0028(10)
C10 0.0391(11) 0.0620(15) 0.0426(12) -0.0040(12) -0.0098(10) -0.0018(12)
C11 0.0535(14) 0.0582(14) 0.0363(11) 0.0019(11) -0.0036(11) 0.0033(12)
C12 0.0468(13) 0.0663(18) 0.0410(12) 0.0090(12) 0.0039(10) -0.0055(12)
C13 0.0373(12) 0.0560(14) 0.0433(12) 0.0050(11) -0.0032(9) -0.0076(10)
loop_
_atom_type_symbol
_atom_type_description
_atom_type_scat_dispersion_real
_atom_type_scat_dispersion_imag
_atom_type_scat_source
C C 0.0033 0.0016 'International Tables Vol C Tables 4.2.6.8 and 6.1.1.4'
H H 0.0000 0.0000 'International Tables Vol C Tables 4.2.6.8 and 6.1.1.4'
N N 0.0061 0.0033 'International Tables Vol C Tables 4.2.6.8 and 6.1.1.4'
O O 0.0106 0.0060 'International Tables Vol C Tables 4.2.6.8 and 6.1.1.4'
loop_
_geom_angle_atom_site_label_1
_geom_angle_atom_site_label_2
_geom_angle_atom_site_label_3
_geom_angle
_geom_angle_site_symmetry_1
_geom_angle_site_symmetry_3
C1 O2 C5 120.30(18) . .
C6 O3 H3O 110(3) . .
C4 N1 C7 103.78(16) . .
C4 N1 H1N 107.0(17) . .
C7 N1 H1N 108.7(18) . .
O1 C1 O2 117.9(3) . .
O1 C1 C2 123.3(3) . .
O2 C1 C2 118.7(2) . .
C3 C2 C1 122.1(3) . .
C3 C2 H2 119.0 . .
C1 C2 H2 119.0 . .
C2 C3 C4 121.6(2) . .
C2 C3 H3 119.2 . .
C4 C3 H3 119.2 . .
N1 C4 C3 110.2(2) . .
N1 C4 C5 103.95(18) . .
C3 C4 C5 110.40(19) . .
N1 C4 H4 110.7 . .
C3 C4 H4 110.7 . .
C5 C4 H4 110.7 . .
O2 C5 C4 116.09(19) . .
O2 C5 C6 111.85(19) . .
C4 C5 C6 105.18(17) . .
O2 C5 H5 107.8 . .
C4 C5 H5 107.8 . .
C6 C5 H5 107.8 . .
O3 C6 C7 108.71(18) . .
O3 C6 C5 113.67(18) . .
C7 C6 C5 103.38(16) . .
O3 C6 H6 110.3 . .
C7 C6 H6 110.3 . .
C5 C6 H6 110.3 . .
N1 C7 C8 113.57(17) . .
N1 C7 C6 106.87(16) . .
C8 C7 C6 115.42(17) . .
N1 C7 H7 106.8 . .
C8 C7 H7 106.8 . .
C6 C7 H7 106.8 . .
C9 C8 C13 118.11(19) . .
C9 C8 C7 122.51(19) . .
C13 C8 C7 119.36(19) . .
C8 C9 C10 121.1(2) . .
C8 C9 H9 119.5 . .
C10 C9 H9 119.5 . .
C11 C10 C9 120.3(2) . .
C11 C10 H10 119.9 . .
C9 C10 H10 119.9 . .
C10 C11 C12 119.4(2) . .
C10 C11 H11 120.3 . .
C12 C11 H11 120.3 . .
C13 C12 C11 120.2(2) . .
C13 C12 H12 119.9 . .
C11 C12 H12 119.9 . .
C12 C13 C8 121.0(2) . .
C12 C13 H13 119.5 . .
C8 C13 H13 119.5 . .
loop_
_geom_bond_atom_site_label_1
_geom_bond_atom_site_label_2
_geom_bond_distance
_geom_bond_site_symmetry_2
O1 C1 1.201(3) .
O2 C1 1.334(4) .
O2 C5 1.437(3) .
O3 C6 1.409(3) .
O3 H3O 0.852(13) .
N1 C4 1.476(3) .
N1 C7 1.477(3) .
N1 H1N 0.869(13) .
C1 C2 1.465(4) .
C2 C3 1.317(3) .
C2 H2 0.9500 .
C3 C4 1.490(4) .
C3 H3 0.9500 .
C4 C5 1.527(3) .
C4 H4 1.0000 .
C5 C6 1.554(3) .
C5 H5 1.0000 .
C6 C7 1.540(3) .
C6 H6 1.0000 .
C7 C8 1.511(3) .
C7 H7 1.0000 .
C8 C9 1.382(3) .
C8 C13 1.390(3) .
C9 C10 1.388(3) .
C9 H9 0.9500 .
C10 C11 1.376(4) .
C10 H10 0.9500 .
C11 C12 1.383(4) .
C11 H11 0.9500 .
C12 C13 1.383(3) .
C12 H12 0.9500 .
C13 H13 0.9500 .
loop_
_geom_hbond_atom_site_label_D
_geom_hbond_atom_site_label_H
_geom_hbond_atom_site_label_A
_geom_hbond_distance_DH
_geom_hbond_distance_HA
_geom_hbond_distance_DA
_geom_hbond_angle_DHA
_geom_hbond_site_symmetry_A
O3 H3O N1 0.86(2) 2.07(2) 2.920(3) 174(4) 1_655
N1 H1N Cg3 0.869(13) 2.877(16) 3.705(3) 160.4(18) 2_645
C11 H11 O1 0.95 2.60 3.280(3) 129 1_454
loop_
_geom_torsion_atom_site_label_1
_geom_torsion_atom_site_label_2
_geom_torsion_atom_site_label_3
_geom_torsion_atom_site_label_4
_geom_torsion
_geom_torsion_site_symmetry_1
_geom_torsion_site_symmetry_2
_geom_torsion_site_symmetry_3
_geom_torsion_site_symmetry_4
C5 O2 C1 O1 -174.2(2) . . . .
C5 O2 C1 C2 7.4(3) . . . .
O1 C1 C2 C3 -167.4(3) . . . .
O2 C1 C2 C3 10.9(4) . . . .
C1 C2 C3 C4 -2.3(4) . . . .
C7 N1 C4 C3 76.7(2) . . . .
C7 N1 C4 C5 -41.6(2) . . . .
C2 C3 C4 N1 -135.3(2) . . . .
C2 C3 C4 C5 -21.0(3) . . . .
C1 O2 C5 C4 -32.2(3) . . . .
C1 O2 C5 C6 88.5(3) . . . .
N1 C4 C5 O2 155.49(19) . . . .
C3 C4 C5 O2 37.3(3) . . . .
N1 C4 C5 C6 31.3(2) . . . .
C3 C4 C5 C6 -86.9(2) . . . .
O2 C5 C6 O3 -18.5(3) . . . .
C4 C5 C6 O3 108.4(2) . . . .
O2 C5 C6 C7 -136.12(18) . . . .
C4 C5 C6 C7 -9.3(2) . . . .
C4 N1 C7 C8 164.56(19) . . . .
C4 N1 C7 C6 36.1(2) . . . .
O3 C6 C7 N1 -137.08(18) . . . .
C5 C6 C7 N1 -16.0(2) . . . .
O3 C6 C7 C8 95.6(2) . . . .
C5 C6 C7 C8 -143.36(19) . . . .
N1 C7 C8 C9 13.6(3) . . . .
C6 C7 C8 C9 137.5(2) . . . .
N1 C7 C8 C13 -168.2(2) . . . .
C6 C7 C8 C13 -44.3(3) . . . .
C13 C8 C9 C10 0.8(4) . . . .
C7 C8 C9 C10 179.1(2) . . . .
C8 C9 C10 C11 -0.7(4) . . . .
C9 C10 C11 C12 0.3(4) . . . .
C10 C11 C12 C13 -0.2(4) . . . .
C11 C12 C13 C8 0.4(4) . . . .
C9 C8 C13 C12 -0.7(4) . . . .
C7 C8 C13 C12 -179.0(2) . . . .
loop_
_publcif_info_cif.paper_type
EE
loop_
_publcif_info_tables.block_id
_publcif_info_tables.reference_item
{e66b8100-1fc5-4b0b-8e8f-abf450de8ca7} '_geom_hbond_atom_site_label_D'
{e66b8100-1fc5-4b0b-8e8f-abf450de8ca7} '_geom_extra_table_headB'
{e66b8100-1fc5-4b0b-8e8f-abf450de8ca7} '_geom_extra_table_headA'
{92d4c804-1fc9-4242-84e8-84b0d42cfb38} '_publcif_info_datablock.publ_exptl'
loop_
_publcif_info_datablock.id
_publcif_info_datablock.publ_exptl
_publcif_info_datablock.publ_geom
_publcif_info_datablock.structure
{e66b8100-1fc5-4b0b-8e8f-abf450de8ca7} y y y
{92d4c804-1fc9-4242-84e8-84b0d42cfb38} ? ? ?
loop_
_publcif_info_exptl_table_extra_item
sin_theta_over_lambda_max

_cod_database_fobs_code 2022632
