#------------------------------------------------------------------------------
#$Date: 2020-05-14 06:47:12 +0300 (Thu, 14 May 2020) $
#$Revision: 252049 $
#$URL: file:///home/coder/svn-repositories/cod/cif/2/02/21/2022114.cif $
#------------------------------------------------------------------------------
#
# This file is available in the Crystallography Open Database (COD),
# http://www.crystallography.net/. The original data for this entry
# were provided by IUCr Journals, http://journals.iucr.org/.
#
# The file may be used within the scientific community so long as
# proper attribution is given to the journal article from which the
# data were obtained.
#
data_2022114
loop_
_publ_author_name
'Senior, Levi'
'Linden, Anthony'
_publ_section_title
;
 Halobismuth(III) salts with substituted aminopyridinium cations
;
_journal_coeditor_code           FP3085
_journal_issue                   6
_journal_name_full               'Acta Crystallographica Section C'
_journal_page_first
;
;
_journal_paper_doi               10.1107/S2053229620006130
_journal_volume                  76
_journal_year                    2020
_chemical_formula_iupac          '(C6 H9 N2)4 [Bi2 Cl10]'
_chemical_formula_moiety         '4(C6 H9 N2 1+), Bi2 Cl10 4-'
_chemical_formula_sum            'C24 H36 Bi2 Cl10 N8'
_chemical_formula_weight         1209.07
_chemical_name_systematic
;
Tetrakis(2-amino-3-methylpyridinium)
di-\m-chlorido-bis[tetrachloridobismuth(III)]
;
_space_group_crystal_system      triclinic
_space_group_IT_number           2
_space_group_name_Hall           '-P 1'
_space_group_name_H-M_alt        'P -1'
_atom_sites_solution_hydrogens   geom
_atom_sites_solution_primary     dual
_atom_sites_solution_secondary   difmap
_audit_creation_method           SHELXL-2018/3
_cell_angle_alpha                76.784(3)
_cell_angle_beta                 87.111(3)
_cell_angle_gamma                88.514(3)
_cell_formula_units_Z            1
_cell_length_a                   8.8144(3)
_cell_length_b                   8.9982(3)
_cell_length_c                   12.3440(4)
_cell_measurement_reflns_used    6026
_cell_measurement_temperature    160(2)
_cell_measurement_theta_max      29.2010
_cell_measurement_theta_min      3.1730
_cell_volume                     951.80(6)
_computing_cell_refinement
;
CrysAlis PRO (Rigaku OD, 2018)
;
_computing_data_collection
;
CrysAlis PRO (Rigaku OD, 2018)
;
_computing_data_reduction
;
CrysAlis PRO (Rigaku OD, 2018)
;
_computing_molecular_graphics
;
OLEX2 (Dolomanov <i>et al.</i>, 2009) and Mercury (Macrae <i>et al.</i>,
2020)
;
_computing_publication_material
;
SHELXL2018 (Sheldrick, 2015b) and PLATON (Spek, 2015,
2020)
;
_computing_structure_refinement
;
SHELXL2018 (Sheldrick, 2015b)
;
_computing_structure_solution
;
SHELXT2018 (Sheldrick, 2015a)
;
_diffrn_ambient_temperature      160(2)
_diffrn_detector                 'CCD area detector'
_diffrn_detector_area_resol_mean 10.3801
_diffrn_measured_fraction_theta_full 0.999
_diffrn_measured_fraction_theta_max 0.842
_diffrn_measurement_device       'four-circle \k-geometry diffractometer'
_diffrn_measurement_device_type  'Oxford Diffraction SuperNova dual radiation'
_diffrn_measurement_method       '\w scans'
_diffrn_radiation_monochromator  mirror
_diffrn_radiation_probe          x-ray
_diffrn_radiation_type           'Mo K\a'
_diffrn_radiation_wavelength     0.71073
_diffrn_reflns_av_R_equivalents  0.0258
_diffrn_reflns_av_unetI/netI     0.0428
_diffrn_reflns_limit_h_max       11
_diffrn_reflns_limit_h_min       -11
_diffrn_reflns_limit_k_max       11
_diffrn_reflns_limit_k_min       -10
_diffrn_reflns_limit_l_max       16
_diffrn_reflns_limit_l_min       -11
_diffrn_reflns_number            8469
_diffrn_reflns_theta_full        25.242
_diffrn_reflns_theta_max         29.469
_diffrn_reflns_theta_min         2.806
_diffrn_source                   'micro-focus sealed X-ray tube'
_exptl_absorpt_coefficient_mu    9.964
_exptl_absorpt_correction_T_max  1.000
_exptl_absorpt_correction_T_min  0.660
_exptl_absorpt_correction_type   gaussian
_exptl_absorpt_process_details
;
(CrysAlis PRO; Rigaku OD, 2018)
;
_exptl_crystal_colour            colourless
_exptl_crystal_density_diffrn    2.109
_exptl_crystal_description       block
_exptl_crystal_F_000             572
_exptl_crystal_size_max          0.25
_exptl_crystal_size_mid          0.15
_exptl_crystal_size_min          0.07
_refine_diff_density_max         0.894
_refine_diff_density_min         -1.033
_refine_ls_extinction_method     none
_refine_ls_goodness_of_fit_ref   1.024
_refine_ls_hydrogen_treatment    constr
_refine_ls_matrix_type           full
_refine_ls_number_parameters     201
_refine_ls_number_reflns         4463
_refine_ls_number_restraints     54
_refine_ls_restrained_S_all      1.023
_refine_ls_R_factor_all          0.0277
_refine_ls_R_factor_gt           0.0241
_refine_ls_shift/su_max          0.000
_refine_ls_shift/su_mean         0.000
_refine_ls_structure_factor_coef Fsqd
_refine_ls_weighting_details
'w=1/[\s^2^(Fo^2^)+(0.0150P)^2^] where P=(Fo^2^+2Fc^2^)/3'
_refine_ls_weighting_scheme      calc
_refine_ls_wR_factor_gt          0.0469
_refine_ls_wR_factor_ref         0.0486
_reflns_number_gt                4137
_reflns_number_total             4463
_reflns_threshold_expression     'I > 2\s(I)'
_cod_data_source_file            fp3085sup1.cif
_cod_data_source_block           2
_cod_database_code               2022114
_shelx_space_group_comment
;
The symmetry employed for this shelxl refinement is uniquely defined
by the following loop, which should always be used as a source of
symmetry information in preference to the above space-group names.
They are only intended as comments.
;
_shelx_estimated_absorpt_t_min   0.190
_shelx_estimated_absorpt_t_max   0.542
_shelx_hkl_file
;
   0   0   2  664.35   15.62
   0   0   3 2092.09   44.37
   0   0   4  187.91    7.84
   0   0  -5  779.75   21.84
   0   0   5  753.42   21.33
   0   0   6 2420.92   55.15
   0   0   7    1.62    1.14
   0   0  -8  788.88   26.52
   0   0   8  817.05   25.92
   0   0   9  279.79   14.20
   0   0  -9  282.21   15.08
   0   0  10   16.90    3.75
   0   0  11  283.44   15.88
   0   0  12  110.78   10.12
   0   0  13   13.78    3.90
   0   0  14  247.73   17.13
   0   0  15   25.85    6.02
   0  -1  14  120.55   12.01
   0  -1  13  156.92   13.17
   0  -1  12   52.00    7.15
   0  -1  11  310.05   17.18
   0  -1  10  192.13   12.60
   0  -1   9    9.78    2.85
   0   1  -8  515.27   20.92
   0  -1   8  591.26   21.29
   0  -1   7  494.78   18.17
   0   1  -7  463.05   10.61
   0   1  -6  735.78   16.13
   0  -1   6  731.96   22.71
   0  -1   5 2382.09   54.61
   0   1  -5 2440.14   48.41
   0   1  -4  266.13    7.31
   0  -1   4  282.70   10.49
   0  -1   3  104.89    5.37
   0  -1   2 1499.06   32.47
   0  -1   1  150.03    5.07
   0   1   2    1.64    0.38
   0   1   2    3.57    0.69
   0   1   3 2222.52   46.40
   0   1   3 2223.56   43.87
   0  -1  -3 2259.45   46.86
   0  -1  -4 1808.38   40.81
   0   1   4 1876.96   40.44
   0   1   4 1822.03   36.14
   0   1   5   69.30    4.74
   0  -1  -5   65.81    4.91
   0  -1  -6  969.56   26.69
   0   1   6  914.08   25.51
   0   1   7  186.14    9.66
   0   1   8  130.68    8.48
   0  -1  -8  137.98    9.40
   0   1   9  680.98   23.98
   0  -1  -9  738.87   26.10
   0   1  10  297.72   15.00
   0   1  11   89.77    8.37
   0   1  12  252.03   15.33
   0   1  13    9.97    2.73
   0   1  14  128.55   11.82
   0   1  15  110.15   11.52
   0  -2  14    4.42    3.18
   0  -2  13  182.04   14.83
   0  -2  12   33.62    6.30
   0  -2  11  148.77   12.01
   0  -2  10  424.79   20.30
   0   2  -9   91.26    3.99
   0  -2   9   90.51    8.39
   0  -2   8  402.60   17.86
   0   2  -8  390.93   11.03
   0   2  -8  431.57   18.74
   0   2  -7  651.74   16.64
   0   2  -7  690.61   23.77
   0  -2   7  704.38   23.68
   0   2  -6    3.06    0.94
   0  -2   6    4.84    1.79
   0   2  -5 1527.89   33.55
   0  -2   5 1539.26   38.44
   0  -2   4 1153.29   30.39
   0   2  -4 1227.21   27.29
   0   2  -3    1.26    1.10
   0   2  -3    0.95    0.48
   0  -2   3   -0.29    0.76
   0   2  -2 9999.00  195.12
   0  -2   2 9877.29  195.24
   0   2  -1 1029.17   23.88
   0  -2   1 1087.03   24.23
   0   2   0   14.74    1.39
   0  -2   0   13.99    1.25
   0   2   1 1733.26   35.56
   0   2   1 1818.10   37.69
   0  -2  -1 1796.63   35.50
   0  -2  -1 1792.99   35.44
   0   2   1 1751.60   35.58
   0   2   2  718.36   17.34
   0   2   3  344.15    9.81
   0   2   4 4418.75   91.34
   0   2   4 4599.96   89.35
   0   2   5  408.69   10.84
   0   2   5  405.28   13.30
   0  -2  -6  588.89   18.77
   0   2   6  536.24   17.30
   0   2   6  564.17   13.72
   0   2   7  298.58    8.14
   0   2   7  274.71   12.01
   0   2   8    9.34    2.27
   0   2   8    9.59    1.02
   0  -2  -8   11.66    2.70
   0  -2  -9  195.79   12.01
   0   2   9  175.94   10.47
   0  -2 -10  662.29   25.69
   0   2  10  606.07   22.76
   0   2  11   55.38    6.27
   0   2  12  345.27   17.70
   0   2  13   46.23    6.66
   0   2  14    0.26    2.15
   0   2  15   62.40    8.61
   0  -3  13   93.62   10.86
   0  -3  12  174.31   13.98
   0  -3  11   43.93    6.73
   0   3 -10  215.85    8.08
   0  -3  10  227.45   14.78
   0   3  -9  497.09   14.69
   0  -3   9  547.79   23.15
   0   3  -8   42.45    3.49
   0  -3   8   40.21    5.45
   0   3  -7 1017.98   25.58
   0  -3   7 1020.35   31.84
   0   3  -7 1061.21   32.44
   0  -3   6  435.07   17.62
   0   3  -6  451.99   17.73
   0   3  -6  418.18   13.65
   0  -3   5  335.53   14.19
   0   3  -5  334.29   11.57
   0   3  -5  314.25   13.79
   0   3  -4  975.08   26.90
   0  -3   4  950.73   27.03
   0   3  -4  975.42   24.63
   0  -3   3  627.60   19.44
   0   3  -3  672.00   18.26
   0   3  -3  629.59   18.98
   0   3  -2  972.89   24.17
   0  -3   2  933.59   24.54
   0   3  -2  937.20   24.04
   0   3  -1 2766.49   58.14
   0   3  -1 2721.82   57.09
   0  -3   1 2709.00   57.93
   0   3   0  244.35    8.18
   0  -3   0  249.45    7.90
   0   3   0  254.01    9.35
   0  -3  -1  337.17    9.62
   0  -3  -1  335.23    9.56
   0   3   1  383.73   11.87
   0   3   1  375.84    9.27
   0   3   2 1338.74   29.30
   0   3   2 1378.99   29.46
   0   3   3  127.51    5.03
   0   3   3  133.94    6.21
   0   3   3  119.33    4.89
   0   3   4 1076.21   25.90
   0   3   5 1197.17   27.87
   0   3   5 1176.04   29.08
   0   3   6   14.24    2.35
   0   3   6   11.21    1.67
   0   3   7  607.36   16.09
   0   3   7  595.28   19.20
   0   3   8  353.59   10.76
   0   3   8  361.86   14.58
   0   3   9    3.36    1.31
   0   3   9    1.54    0.69
   0   3  10  375.01   16.56
   0   3  10  367.35   10.25
   0   3  11   31.93    4.77
   0   3  12  115.76    9.61
   0   3  13  220.20   14.23
   0   3  14  115.77   10.69
   0   3  15   40.88    6.77
   0   3  16  154.45   13.68
   0  -4  12  137.73   13.29
   0  -4  11  141.21   12.84
   0   4 -10    8.69    1.86
   0  -4  10    7.09    3.24
   0  -4   9  374.14   19.38
   0   4  -9  345.12   12.86
   0  -4   8   29.62    5.07
   0   4  -8   30.42    3.49
   0   4  -7  545.64   17.63
   0  -4   7  561.47   22.40
   0  -4   6  766.62   26.39
   0   4  -6  789.71   26.43
   0   4  -6  784.96   22.68
   0   4  -5  192.32    9.22
   0   4  -5  185.85   10.60
   0  -4   5  192.49   10.93
   0   4  -4 1504.59   38.76
   0   4  -4 1536.12   37.25
   0  -4   4 1497.72   39.44
   0  -4   3  848.71   24.86
   0   4  -3  835.77   23.67
   0   4  -3  846.62   24.26
   0  -4   2  129.23    7.42
   0   4  -2  107.51    6.71
   0   4  -2  120.04    6.77
   0  -4   1 1008.71   25.18
   0  -4   1 1034.46   27.04
   0   4  -1 1021.42   25.73
   0   4  -1 1043.82   27.24
   0   4   0 1103.87   26.96
   0  -4   0 1108.43   26.46
   0  -4  -1    5.37    0.97
   0   4   1    3.14    1.25
   0   4   1    4.59    1.07
   0  -4  -1    4.83    1.03
   0  -4  -2 2375.14   47.69
   0   4   2 2354.14   47.99
   0  -4  -2 2321.90   47.66
   0   4   2 2294.81   52.30
   0   4   3  849.63   20.60
   0   4   3  895.52   23.67
   0   4   3  843.46   20.54
   0   4   4   60.13    3.78
   0   4   4   57.77    4.57
   0   4   4   56.64    3.69
   0   4   5  347.30   12.46
   0   4   6  176.51    8.13
   0   4   6  170.41    8.42
   0   4   7   60.34    4.42
   0   4   7   55.11    4.85
   0   4   8 1058.20   26.22
   0   4   8  998.19   28.89
   0   4   9  406.91   16.30
   0   4   9  400.34   13.08
   0   4  10  209.21   11.63
   0   4  10  202.40    8.25
   0   4  11   51.82    3.67
   0   4  11   38.72    5.25
   0   4  12   27.33    2.27
   0   4  12   26.10    4.42
   0   4  13   32.01    5.30
   0   4  14  198.73   13.92
   0   4  15   20.17    5.06
   0   4  16  108.28   11.18
   0  -5  12   86.85   10.80
   0  -5  11  297.36   19.56
   0   5 -10   36.08    4.14
   0  -5  10   42.23    7.06
   0   5  -9  188.33   10.05
   0  -5   9  192.02   14.07
   0  -5   8  337.52   18.15
   0   5  -8  295.74   13.17
   0   5  -7  282.92   12.75
   0  -5   7  296.61   16.22
   0  -5   6  460.28   20.18
   0   5  -6  460.36   17.13
   0   5  -5  573.66   19.82
   0  -5   5  578.41   22.12
   0   5  -5  575.90   21.46
   0   5  -4   81.46    6.46
   0  -5   4   96.47    7.75
   0   5  -4   88.79    7.06
   0   5  -3 1396.26   36.48
   0   5  -3 1367.42   36.20
   0  -5   3 1400.56   37.74
   0   5  -2  485.06   16.65
   0   5  -2  497.72   17.74
   0  -5   2  480.23   17.88
   0  -5   1    3.70    1.30
   0   5  -1    1.79    1.25
   0   5  -1    4.25    1.56
   0  -5   0  739.26   20.25
   0   5   0  758.36   23.05
   0   5   0  722.55   20.30
   0   5   1  443.50   13.56
   0  -5  -1  394.21   12.70
   0   5   1  452.96   16.07
   0  -5  -1  381.22   12.65
   0  -5  -2  443.74   12.29
   0  -5  -2  456.82   12.33
   0   5   2  440.79   13.89
   0   5   2  473.37   16.58
   0   5   2  448.09   11.98
   0   5   3 1742.26   37.53
   0   5   3 1727.55   42.52
   0   5   4   52.12    3.70
   0   5   4   52.19    3.70
   0   5   4   52.47    4.90
   0   5   5  162.52    8.78
   0   5   5  160.75    7.25
   0   5   5  159.25    7.27
   0   5   6  157.96    7.70
   0   5   6  152.04    8.36
   0   5   6  169.62    7.97
   0   5   6  161.46    8.35
   0   5   7   64.26    5.25
   0   5   7   64.82    5.37
   0   5   8  329.85   13.81
   0   5   8  343.24   13.19
   0   5   9  232.98   11.74
   0   5   9  248.71   10.71
   0   5  10   28.29    3.33
   0   5  10   27.55    4.12
   0   5  11  197.25   11.89
   0   5  11  196.56    9.02
   0   5  12  139.84   10.48
   0   5  12  144.78    7.27
   0   5  13   -0.21    1.80
   0   5  14  186.52   13.12
   0   5  15   24.56    5.02
   0   5  16   22.06    5.53
   0  -6  11  119.63   12.79
   0  -6  10   50.03    8.09
   0  -6   9   87.63   10.08
   0   6  -9   80.04    7.00
   0   6  -8  265.31   13.41
   0  -6   8  276.44   17.28
   0   6  -7  267.78   13.49
   0  -6   7  281.31   16.79
   0   6  -6   50.92    5.68
   0  -6   6   58.12    7.11
   0   6  -5  406.69   17.19
   0  -6   5  431.41   19.68
   0   6  -4  235.45   12.47
   0  -6   4  242.92   13.76
   0   6  -4  241.11   12.80
   0   6  -3  438.54   17.61
   0  -6   3  424.88   18.39
   0   6  -3  391.10   16.38
   0  -6   2  785.31   24.19
   0   6  -2  800.84   26.01
   0   6  -2  792.92   24.33
   0  -6   2  803.75   26.63
   0   6  -1   89.89    7.26
   0  -6   1   87.86    6.25
   0   6  -1   80.18    6.01
   0   6   0  303.54   12.14
   0  -6   0  313.96   12.28
   0   6   0  318.98   14.47
   0  -6  -1  644.83   18.61
   0  -6  -1  609.38   18.42
   0   6   1  662.64   19.29
   0  -6  -2   31.80    2.72
   0   6   2   31.55    4.16
   0  -6  -2   36.12    2.89
   0   6   2   36.90    3.54
   0   6   3  417.37   11.78
   0   6   3  437.81   17.03
   0   6   4  467.07   13.49
   0   6   4  446.98   17.50
   0   6   5    0.52    0.70
   0   6   5   -0.72    0.96
   0   6   5   -0.01    1.05
   0   6   6  619.57   18.49
   0   6   6  607.98   18.31
   0   6   6  609.88   20.89
   0   6   7  630.23   20.51
   0   6   7  632.11   21.31
   0   6   7  639.20   19.70
   0   6   7  654.10   19.88
   0   6   8   18.00    2.96
   0   6   8   14.32    2.76
   0   6   8   14.61    2.69
   0   6   8   12.09    2.38
   0   6   9   60.76    5.52
   0   6   9   56.10    5.60
   0   6  10  107.00    7.41
   0   6  10  108.89    8.11
   0   6  11    7.93    2.34
   0   6  11    9.01    2.26
   0   6  12  291.38   15.33
   0   6  12  300.53   12.61
   0   6  13  118.16    9.82
   0   6  14   56.58    7.08
   0   6  15   72.04    8.45
   0   6  16   -0.29    1.60
   0  -7  10  127.20   13.38
   0  -7   9  133.01   13.11
   0   7  -9  125.62    9.64
   0   7  -8  149.65   10.52
   0  -7   8  146.33   13.21
   0  -7   7  269.46   17.46
   0   7  -7  251.18   14.00
   0  -7   6   19.05    4.71
   0   7  -6   20.24    4.04
   0  -7   5  265.38   16.21
   0   7  -5  254.14   14.04
   0  -7   4  385.20   19.06
   0  -7   4  350.48   16.87
   0   7  -4  353.09   16.94
   0  -7   3   50.07    5.75
   0   7  -3   58.22    6.03
   0   7  -3   53.31    6.25
   0  -7   3   56.53    6.70
   0   7  -2  323.01   14.44
   0   7  -2  308.90   15.63
   0   7  -1  400.59   15.88
   0   7  -1  418.94   18.19
   0  -7   1  403.39   16.14
   0   7   0   30.30    3.70
   0   7   0   36.16    5.04
   0  -7   0   25.49    3.62
   0  -7   0   26.48    3.59
   0   7   1  785.21   22.85
   0  -7  -1  750.65   21.73
   0  -7  -1  754.04   21.90
   0   7   1  794.62   26.91
   0  -7  -2  188.62    7.44
   0   7   2  188.06   11.43
   0   7   2  176.80    8.80
   0  -7  -2  176.46    7.27
   0   7   3    1.52    0.96
   0   7   3    1.45    2.05
   0   7   4   55.03    5.94
   0   7   4   54.88    3.46
   0   7   5  160.94    7.20
   0   7   5  167.19   10.56
   0   7   6  164.80   10.57
   0   7   6  172.61    8.30
   0   7   6  170.69    8.32
   0   7   7  356.33   14.69
   0   7   7  384.67   14.33
   0   7   7  368.76   14.31
   0   7   7  390.37   16.79
   0   7   8    9.42    2.22
   0   7   8   10.17    2.26
   0   7   8   11.78    2.82
   0   7   8    7.82    2.07
   0   7   9   64.36    6.30
   0   7   9   73.44    6.42
   0   7   9   61.45    5.82
   0   7   9   68.62    6.16
   0   7  10   79.08    7.06
   0   7  10   79.58    7.01
   0   7  10   86.12    7.19
   0   7  10   76.83    6.94
   0   7  11   22.75    4.00
   0   7  11   30.15    4.26
   0   7  11   22.83    3.91
   0   7  12   98.67    8.91
   0   7  12  113.85    8.05
   0   7  12   98.75    8.48
   0   7  13  143.71   11.24
   0   7  13  124.92   10.04
   0   7  14    1.40    1.86
   0   7  15  119.32   10.62
   0  -8   9  169.01   15.91
   0  -8   8    4.53    2.97
   0   8  -8    3.87    2.45
   0  -8   7  141.39   13.39
   0   8  -7  115.79    9.99
   0   8  -6  174.70   12.40
   0  -8   6  183.92   14.82
   0  -8   5   59.43    8.16
   0   8  -5   57.45    7.08
   0  -8   4  269.86   15.63
   0   8  -4  296.23   16.27
   0   8  -3  157.41   11.57
   0  -8   3  144.15   10.60
   0   8  -2    0.31    1.25
   0   8  -2    1.99    1.72
   0  -8   1  287.51   14.31
   0   8  -1  336.41   14.91
   0  -8   1  294.21   14.60
   0   8  -1  347.80   17.39
   0   8   0  115.65    9.72
   0   8   0  117.87    7.91
   0  -8   0   99.30    7.31
   0  -8   0   97.45    7.45
   0   8   1  255.27   14.67
   0  -8  -1  239.62   10.69
   0   8   1  245.36   11.61
   0  -8  -1  247.24   10.57
   0  -8  -2  452.47   13.25
   0   8   2  441.47   20.07
   0   8   2  435.27   16.06
   0   8   3   44.53    4.38
   0   8   3   48.54    6.20
   0   8   4  101.75    6.84
   0   8   4  106.59    9.15
   0   8   5  408.03   15.50
   0   8   5  432.72   19.27
   0   8   6   19.08    2.44
   0   8   6   17.91    3.94
   0   8   7   75.43    7.47
   0   8   7   70.93    5.34
   0   8   7   65.65    5.09
   0   8   8  191.76   10.02
   0   8   8  189.10    9.84
   0   8   8  185.56   10.42
   0   8   8  189.79   12.14
   0   8   9    0.44    1.08
   0   8   9    0.92    1.33
   0   8   9   -0.28    1.57
   0   8  10  197.13   11.31
   0   8  10  181.73   11.76
   0   8  10  180.68   10.78
   0   8  11  149.99   10.18
   0   8  11  158.44   10.80
   0   8  11  163.70   10.88
   0   8  12    3.08    1.84
   0   8  12   -0.11    1.60
   0   8  13   74.42    7.66
   0   9  -8   70.54    8.37
   0  -9   7    9.49    3.97
   0   9  -7    8.99    3.49
   0   9  -6  157.31   12.53
   0   9  -5   53.08    7.36
   0   9  -4  109.10   10.55
   0   9  -3  182.61   13.61
   0   9  -2   15.97    4.24
   0   9  -1   96.24    9.45
   0   9   0  165.54   10.23
   0   9   0  169.72   12.61
   0   9   1   41.51    4.83
   0   9   1   45.52    6.40
   0  -9  -1   40.80    3.90
   0   9   2   18.85    4.02
   0   9   2   16.28    2.89
   0   9   3  155.12    9.03
   0   9   3  164.02   12.20
   0   9   4   24.33    3.41
   0   9   4   26.78    5.09
   0   9   5  194.67   13.22
   0   9   5  187.71    9.99
   0   9   6   71.96    7.89
   0   9   6   76.77    6.20
   0   9   7    3.06    1.87
   0   9   8   41.71    5.97
   0   9   8   43.66    5.06
   0   9   9   73.70    6.58
   0   9   9   65.75    7.53
   0   9  10   32.34    4.57
   0   9  10   34.48    5.34
   0   9  11  169.82   12.04
   0   9  12   46.09    6.33
   0  10  -6   52.99    7.72
   0  10  -5   95.41   10.51
   0  10  -4   23.30    5.25
   0  10  -3  113.48   11.27
   0  10  -2   94.90   10.36
   0  10  -1   67.17    8.57
   0  10   0  191.55   14.51
   0  10   1   75.60    9.12
   0  10   2    1.53    2.09
   0  10   3  161.77   13.03
   0  10   4   55.70    7.62
   0  10   5   37.67    6.36
   0  10   6  191.41   14.07
   0  10   7   19.31    4.54
   0  10   8   28.44    5.38
   0  10   9   86.16    9.32
   0  10  10   14.89    4.13
   0  10  11   64.14    7.98
   0  10  12   77.42    8.61
   0  11   0   11.23    4.46
   0  11   1  102.69   11.13
   0  11   2    2.62    3.56
   0  11   3   24.96    5.31
   0  11   4  108.01   11.32
   0  11   5   20.29    5.19
   0  11   6   27.58    5.57
   0  11   7   86.05    9.99
   0  11   8    1.89    2.22
   0  11   9   80.77    9.66
   0  11  10   90.13   10.14
   0  11  11    5.06    3.32
  -1  11  10   80.51    9.44
  -1  11   9  292.99   18.71
  -1  11   8    0.17    2.42
  -1  11   7   94.37   10.56
  -1  11   6   76.36    9.36
  -1  11   5    1.00    2.32
  -1  11   4  137.12   12.81
  -1  11   3   59.42    8.66
  -1  11   2   17.65    4.54
  -1  11   1  120.47   12.03
  -1  10  11  124.94   11.17
  -1  10  10   23.33    4.81
  -1  10   9  197.00   14.18
  -1  10   8   23.09    4.57
  -1  10   7   32.08    5.65
  -1  10   6  289.68   17.64
  -1  10   5  126.71   11.55
  -1  10   4   93.29    9.72
  -1  10   3   91.48    9.78
  -1  10   2    6.19    3.17
  -1  10   1   76.44    9.05
  -1  10   0  102.54   10.54
  -1  10  -1    8.95    3.14
  -1  10  -2   90.85    9.99
  -1  10  -3   45.03    7.23
  -1  10  -4   30.74    6.26
  -1  10  -5   75.40    9.44
  -1  10  -6   20.16    5.07
  -1   9  12   18.89    4.30
  -1   9  11  556.97   23.60
  -1   9  10   56.90    7.00
  -1   9   9   76.96    8.22
  -1   9   8  118.71    8.25
  -1   9   8  104.62    9.53
  -1   9   7   13.60    3.68
  -1   9   7   11.95    2.58
  -1   9   7   12.26    2.29
  -1   9   6  203.46   13.78
  -1   9   6  216.41   10.03
  -1   9   5  380.31   19.53
  -1   9   4   -0.50    1.79
  -1   9   3  249.09   15.45
  -1   9   3  245.39   10.47
   1  -9  -2   84.74    6.52
  -1   9   2   77.17    8.32
   1  -9  -2   80.67    6.33
  -1   9   2   83.00    6.01
   1  -9  -1    9.24    2.37
  -1   9   1   10.08    2.02
  -1   9   1   11.65    3.60
  -1   9   0  160.80   12.39
  -1   9   0  164.23    9.60
   1  -9   1   33.48    5.40
  -1   9  -1   36.56    5.84
  -1   9  -2    8.14    3.36
   1  -9   2    5.52    3.22
  -1   9  -3  151.17   12.39
  -1   9  -4   14.83    4.09
  -1   9  -5   19.27    4.80
  -1   9  -6   60.71    7.95
   1  -9   6   65.14    9.04
   1  -9   7    1.26    2.29
  -1   9  -7    2.46    2.71
   1  -9   8   60.89    9.59
  -1   9  -8   63.34    8.11
  -1   8  12    0.53    1.59
  -1   8  12    5.32    2.20
  -1   8  11  301.89   13.77
  -1   8  11  293.56   15.18
  -1   8  11  303.78   16.27
  -1   8  10  227.87   11.19
  -1   8  10  219.99   13.19
  -1   8  10  231.94   13.35
  -1   8   9    2.16    1.76
  -1   8   9    1.12    1.32
  -1   8   9    0.18    1.06
  -1   8   8  258.53   13.21
  -1   8   8  268.16   13.33
  -1   8   8  257.18   14.46
  -1   8   8  273.72   11.28
  -1   8   7  265.56   12.77
  -1   8   7  278.20   12.98
  -1   8   7  255.76   14.52
  -1   8   7  258.57   10.84
  -1   8   6   27.76    3.51
  -1   8   6   21.50    2.76
  -1   8   6   27.80    4.67
  -1   8   5  217.30   13.20
  -1   8   5  204.01    8.94
  -1   8   5  230.84   10.38
  -1   8   4   33.15    3.27
  -1   8   4   31.18    5.05
  -1   8   4   34.11    3.48
  -1   8   3   33.66    5.01
  -1   8   3   41.32    3.63
  -1   8   2  296.89   11.52
   1  -8  -2  322.43   13.23
  -1   8   2  291.53   16.00
   1  -8  -2  286.47   12.72
  -1   8   1  113.71    9.51
   1  -8  -1  102.06    7.95
   1  -8  -1  107.04    8.04
  -1   8   1  113.03    6.94
  -1   8   0  113.07    7.37
  -1   8   0  116.09    9.88
  -1   8  -1  163.16   11.79
  -1   8  -1  160.37    9.39
  -1   8  -2   10.30    2.91
  -1   8  -2   13.54    3.07
   1  -8   2    9.51    2.81
   1  -8   3  115.43   10.18
  -1   8  -3  130.02   10.54
   1  -8   4  113.83   10.43
   1  -8   4  131.89   11.29
  -1   8  -4  132.76   10.79
  -1   8  -5   57.12    7.16
   1  -8   5   68.07    8.48
   1  -8   6  102.66   10.62
  -1   8  -6   81.64    8.64
   1  -8   7  133.66   12.91
  -1   8  -7  138.64   11.03
   1  -8   8   33.42    6.72
  -1   8  -8   32.71    5.60
   1  -8   9   69.44    9.94
  -1   7  15  170.66   14.14
  -1   7  14    1.48    2.20
  -1   7  13  472.65   22.71
  -1   7  13  487.99   20.32
  -1   7  12  171.25   10.03
  -1   7  12  165.59   12.12
  -1   7  12  164.16   10.53
  -1   7  11   28.86    4.16
  -1   7  11   31.58    4.25
  -1   7  11   25.82    4.60
  -1   7  10  158.63   10.78
  -1   7  10  156.36    9.25
  -1   7  10  160.19   10.83
  -1   7  10  161.30   10.12
  -1   7   9  133.61    9.17
  -1   7   9  115.87    8.77
  -1   7   9  118.00    8.85
  -1   7   9  120.86    7.56
  -1   7   8  123.81    8.68
  -1   7   8  118.07    8.41
  -1   7   8  119.58    8.72
  -1   7   8  113.51    6.95
  -1   7   7  892.83   28.65
  -1   7   7  895.83   27.49
  -1   7   7  912.17   27.54
  -1   7   7  879.35   24.18
  -1   7   6   89.40    7.65
  -1   7   6   93.91    5.74
  -1   7   6   95.21    6.89
  -1   7   6   96.89    6.90
  -1   7   5  262.29   11.55
  -1   7   5  256.95   13.64
  -1   7   4   90.46    6.02
  -1   7   4   99.27    8.02
  -1   7   4   90.40    5.15
  -1   7   3    3.35    1.94
  -1   7   3    3.22    1.34
   1  -7  -3    2.86    1.46
  -1   7   3    2.32    0.96
   1  -7  -2  187.42    9.44
  -1   7   2  173.24    7.82
  -1   7   2  169.03   10.85
   1  -7  -2  183.13    9.39
  -1   7   1  342.61   16.09
   1  -7  -1  305.67   14.20
   1  -7  -1  305.52   14.05
  -1   7   1  349.06   12.25
  -1   7   0   30.20    3.39
   1  -7   0   26.02    3.96
  -1   7   0   28.66    4.39
   1  -7   0   32.14    4.38
  -1   7  -1  329.63   16.08
  -1   7  -1  352.65   13.84
  -1   7  -2   23.71    3.58
   1  -7   2   22.33    4.01
  -1   7  -2   23.93    4.15
   1  -7   3   23.34    4.24
  -1   7  -3   26.35    3.91
   1  -7   3   20.53    4.03
  -1   7  -3   24.48    4.11
   1  -7   4  116.32    9.73
   1  -7   4  128.77   10.34
  -1   7  -4  124.56    9.60
   1  -7   5   95.43    9.25
  -1   7  -5   68.09    7.24
   1  -7   6   35.99    5.89
  -1   7  -6   34.17    5.22
   1  -7   7  224.96   15.55
  -1   7  -7  187.32   12.25
   1  -7   8   44.47    7.35
  -1   7  -8   31.60    4.84
  -1   7  -9   18.41    4.01
   1  -7   9   17.50    4.72
   1  -7  10  143.95   14.11
  -1   6  15  140.95   11.37
  -1   6  14   99.95    9.22
  -1   6  13  203.00   12.67
  -1   6  12  435.20   16.01
  -1   6  12  477.24   19.26
  -1   6  11   66.31    5.60
  -1   6  11   69.66    6.43
  -1   6  11   75.14    7.48
  -1   6  10   68.79    6.09
  -1   6  10   71.15    5.92
  -1   6  10   68.12    6.86
  -1   6  10   64.00    6.64
  -1   6   9  302.89   14.45
  -1   6   9  316.57   13.01
  -1   6   9  296.49   14.44
  -1   6   9  293.84   13.23
  -1   6   8   17.67    2.59
  -1   6   8   20.99    3.47
  -1   6   8   22.11    3.48
  -1   6   8   19.24    3.38
  -1   6   7  364.90   12.98
  -1   6   7  374.83   15.12
  -1   6   7  384.58   15.62
  -1   6   7  360.48   14.95
  -1   6   6  369.65   14.44
  -1   6   6  355.30   15.10
  -1   6   6  364.26   14.41
  -1   6   6  350.34   12.27
  -1   6   5    3.57    1.19
  -1   6   5    2.14    1.10
  -1   6   5    3.57    1.52
  -1   6   4  356.71   15.31
  -1   6   4  390.09   14.02
  -1   6   4  393.36   14.00
  -1   6   3  196.62    7.60
  -1   6   3  203.37    9.02
  -1   6   3  181.89   10.48
   1  -6  -3  197.03    8.89
  -1   6   2   31.24    3.20
   1  -6  -2   38.34    3.97
   1  -6  -2   36.11    3.79
  -1   6   2   35.55    4.57
  -1   6   2   31.49    2.81
  -1   6   1  422.74   13.12
  -1   6   1  422.31   16.92
   1  -6  -1  397.86   15.57
   1  -6  -1  381.86   15.40
   1  -6   0   53.88    5.27
   1  -6   0   46.54    4.93
  -1   6   0   41.75    3.71
  -1   6   0   57.62    5.63
  -1   6  -1  116.14    8.40
   1  -6   1  116.24    8.10
  -1   6  -1  125.22    7.12
  -1   6  -2  399.90   16.90
   1  -6   2  417.30   16.96
  -1   6  -2  419.01   15.40
   1  -6   3  297.09   14.50
   1  -6   3  293.97   14.34
  -1   6  -3  276.88   13.83
  -1   6  -3  296.61   13.24
  -1   6  -4  114.07    8.25
  -1   6  -4  109.87    8.33
   1  -6   4  116.55    9.15
   1  -6   4  106.93    8.69
  -1   6  -5  370.77   16.51
   1  -6   5  363.63   17.62
   1  -6   5  387.38   18.22
  -1   6  -5  378.65   17.08
   1  -6   6   26.83    4.83
  -1   6  -6   20.67    3.77
   1  -6   7   99.10    9.86
  -1   6  -7  111.94    8.44
  -1   6  -8  197.44   11.57
   1  -6   8  192.80   14.25
   1  -6   9   27.06    5.88
  -1   6  -9   20.17    3.64
   1  -6  10  151.09   13.77
   1  -6  11  138.03   13.86
  -1   5  16   57.81    7.80
  -1   5  15  162.36   12.62
  -1   5  14  200.75   13.46
  -1   5  13    2.51    1.99
  -1   5  12  198.31    8.39
  -1   5  12  191.19   11.86
  -1   5  11  304.78   14.52
  -1   5  11  307.14   11.63
  -1   5  10    2.44    1.21
  -1   5  10    5.00    1.87
  -1   5   9  739.44   22.73
  -1   5   9  717.33   21.38
  -1   5   8  296.32   12.22
  -1   5   8  308.67   12.28
  -1   5   8  311.46   13.82
  -1   5   7   88.84    6.61
  -1   5   7   93.12    6.42
  -1   5   7   91.77    6.69
  -1   5   7   87.12    5.70
  -1   5   6  154.20    8.41
  -1   5   6  148.81    7.06
  -1   5   6  159.25    8.49
  -1   5   6  149.33    8.36
  -1   5   5  124.34    7.11
  -1   5   5  118.78    7.06
  -1   5   5  115.42    5.74
  -1   5   5  113.69    7.23
  -1   5   4   71.39    5.24
  -1   5   4   78.39    5.93
  -1   5   4   77.27    5.42
  -1   5   3  901.62   24.06
  -1   5   3  900.47   24.06
  -1   5   2  343.87   12.05
   1  -5  -2  342.08   12.47
   1  -5  -2  329.65   12.26
  -1   5   2  342.88   10.16
  -1   5   1  420.83   12.05
   1  -5  -1  397.23   14.65
  -1   5   1  427.73   13.47
   1  -5   0   23.89    3.27
   1  -5   0   22.23    3.10
  -1   5   0   25.37    2.58
   1  -5   1    2.35    1.46
   1  -5   1    3.85    1.47
  -1   5  -1    2.04    1.08
   1  -5   2  107.75    7.06
   1  -5   2   94.23    6.91
  -1   5  -2  105.13    6.44
  -1   5  -3  630.47   20.34
   1  -5   3  650.93   21.53
   1  -5   4   19.89    3.49
  -1   5  -4   11.62    2.56
   1  -5   5  493.59   19.79
  -1   5  -5  492.04   18.10
  -1   5  -5  493.97   19.15
   1  -5   6  213.08   12.73
  -1   5  -6  183.88   10.29
   1  -5   7    5.92    2.67
  -1   5  -7    2.46    1.53
   1  -5   8  282.13   16.56
  -1   5  -8  268.54   12.69
   1  -5   9  157.55   12.84
  -1   5  -9  145.22    8.92
  -1   5 -10    5.95    1.96
   1  -5  10   10.38    3.90
   1  -5  11  175.59   14.83
   1  -5  12   70.14    9.72
  -1   4  16  178.91   14.11
  -1   4  15   35.08    6.14
  -1   4  14  355.79   18.82
  -1   4  13  165.48   11.78
  -1   4  12    1.67    1.66
  -1   4  12    2.17    0.64
  -1   4  11  231.46    8.19
  -1   4  11  241.68   13.01
  -1   4  10  197.22   10.90
  -1   4  10  195.85    7.92
  -1   4   9  297.96   13.05
  -1   4   9  293.10   10.58
  -1   4   8  830.11   21.99
  -1   4   8  813.79   23.77
  -1   4   7   34.90    3.52
  -1   4   7   31.26    3.23
  -1   4   6  176.93    8.25
  -1   4   6  186.20    7.96
  -1   4   6  171.71    8.74
  -1   4   5  103.19    5.21
  -1   4   5  101.50    6.17
  -1   4   5  106.66    6.28
  -1   4   4   42.49    3.70
  -1   4   4   39.87    2.80
  -1   4   4   37.14    3.46
  -1   4   3  807.79   21.72
  -1   4   3  806.18   21.77
  -1   4   2  557.14   16.00
  -1   4   2  556.59   15.99
   1  -4  -2  545.19   15.94
  -1   4   2  521.32   13.06
   1  -4  -2  515.50   15.75
   1  -4  -1   56.74    4.43
   1  -4  -1   56.82    4.51
  -1   4   1   59.67    3.21
  -1   4   1   59.96    4.13
   1  -4   0  599.53   18.24
  -1   4   0  611.02   15.70
   1  -4   0  616.01   16.88
   1  -4   1  480.48   15.97
   1  -4   1  499.57   15.23
  -1   4  -1  502.28   14.46
  -1   4  -2   18.39    2.47
   1  -4   2   14.92    2.44
   1  -4   2   14.91    2.35
  -1   4  -3  707.54   21.19
   1  -4   3  742.81   22.04
  -1   4  -4   27.75    3.51
   1  -4   4   26.07    3.66
  -1   4  -5   45.46    4.98
   1  -4   5   52.23    5.56
  -1   4  -6  601.80   19.30
  -1   4  -6  640.85   22.69
   1  -4   6  592.38   22.56
  -1   4  -7  150.97    8.32
   1  -4   7  154.14   10.76
   1  -4   8  207.76   13.33
  -1   4  -8  203.87    9.84
   1  -4   9  384.66   20.21
  -1   4  -9  426.95   15.02
   1  -4  10   -2.26    2.68
  -1   4 -10    2.95    1.25
   1  -4  11  226.79   16.24
   1  -4  12  190.05   15.49
  -1   3  16  160.35   13.68
  -1   3  15   31.50    5.89
  -1   3  14  124.79   10.91
  -1   3  13  326.60   17.49
  -1   3  12   41.60    5.60
  -1   3  11  186.22   11.50
  -1   3  10  401.42   16.75
  -1   3  10  386.35    9.98
   1  -3 -10  420.36   19.23
  -1   3   9    1.93    1.42
  -1   3   9    0.75    0.57
   1  -3  -9    3.40    1.81
  -1   3   8  290.58   12.37
  -1   3   8  295.90    9.39
  -1   3   7  437.47   12.65
  -1   3   7  423.75   14.73
  -1   3   6    0.13    0.56
  -1   3   6    1.39    0.77
  -1   3   5  697.54   18.24
  -1   3   4  831.26   21.75
  -1   3   4  818.11   21.60
  -1   3   4  834.28   19.64
  -1   3   3  179.01    7.41
  -1   3   3  175.79    5.79
  -1   3   3  182.81    7.52
  -1   3   2   37.52    3.13
   1  -3  -2   38.96    3.12
   1  -3  -2   40.14    3.12
  -1   3   2   38.81    3.24
  -1   3   1  134.14    6.09
   1  -3  -1  122.12    6.23
  -1   3   1  131.26    4.17
   1  -3  -1  118.62    6.08
  -1   3   0   20.25    1.70
  -1   3   0   19.79    2.16
   1  -3   0   23.96    2.00
   1  -3   0   21.31    2.46
   1  -3   1 1990.66   44.68
  -1   3  -1 2017.77   42.66
   1  -3   1 2018.85   43.11
   1  -3   2  347.95   11.87
  -1   3  -2  360.66   11.67
  -1   3  -3  685.01   19.71
   1  -3   3  696.69   20.05
  -1   3  -4  562.75   18.15
   1  -3   4  563.66   18.45
  -1   3  -5   55.16    5.19
   1  -3   5   51.64    5.04
   1  -3   6  303.71   14.18
  -1   3  -6  311.12   14.27
  -1   3  -7  868.10   23.17
   1  -3   7  869.64   28.48
  -1   3  -7  870.92   28.59
  -1   3  -8   93.36    5.63
   1  -3   8   99.77    8.69
   1  -3   9  462.90   21.05
  -1   3  -9  438.34   14.13
  -1   3 -10  265.51    9.78
   1  -3  10  289.39   16.92
   1  -3  11   51.51    7.45
  -1   3 -11   48.14    3.41
   1  -3  12  223.18   16.32
   1  -3  13  130.11   12.90
  -1   2  16  121.30   12.09
  -1   2  15  165.20   13.65
  -1   2  14   18.71    4.45
  -1   2  13  172.32   12.65
  -1   2  12  323.00   16.86
  -1   2  11   50.48    6.07
  -1   2  10  611.88   22.67
   1  -2 -10  661.52   25.30
  -1   2   9  135.34    8.88
   1  -2  -9  134.38    9.75
  -1   2   8   19.30    3.07
  -1   2   8   18.45    1.30
   1  -2  -7   70.51    5.90
  -1   2   7   64.61    5.06
  -1   2   7   64.53    3.02
  -1   2   6  303.09    8.71
  -1   2   6  316.64   11.57
   1  -2  -6  321.10   12.39
   1  -2  -5  870.55   23.06
  -1   2   5  880.86   22.12
  -1   2   4 1347.55   29.67
   1  -2  -4 1321.53   30.41
  -1   2   3    5.61    0.85
   1  -2  -3    5.55    0.93
   1  -2  -2  297.93    9.48
  -1   2   2  288.62    9.44
  -1   2   2  311.38    7.23
  -1   2   2  310.78    9.68
   1  -2  -1  151.83    6.35
   1  -2  -1  147.88    6.23
  -1   2   1  156.95    6.26
  -1   2   1  155.75    6.23
  -1   2   0  149.74    4.50
  -1   2   0  150.95    6.15
   1  -2   0  151.44    6.38
   1  -2   0  158.46    4.68
   1  -2   1  811.71   20.42
   1  -2   1  833.83   19.06
  -1   2  -1  819.60   18.87
   1  -2   2  376.47   11.48
  -1   2  -2  372.92   11.26
   1  -2   3   11.58    1.97
  -1   2  -3   13.81    1.96
   1  -2   4 1118.48   29.07
  -1   2  -4 1129.78   28.97
  -1   2  -5  315.91   13.00
   1  -2   5  300.67   12.70
   1  -2   6   71.17    6.21
  -1   2  -6   79.44    6.53
  -1   2  -7  837.32   26.98
   1  -2   7  793.79   26.22
  -1   2  -8  316.60   10.19
   1  -2   8  304.92   15.32
  -1   2  -8  291.83   15.37
   1  -2   9  149.34   10.91
  -1   2  -9  147.82    6.07
  -1   2 -10  524.21   13.07
   1  -2  10  570.35   23.67
   1  -2  11  231.44   15.30
   1  -2  12   68.41    8.64
   1  -2  13  313.48   19.73
   1  -2  14    6.50    3.28
  -1   1  15  185.58   14.84
  -1   1  14   95.50   10.14
  -1   1  13    3.39    2.33
  -1   1  12  311.38   16.94
  -1   1  11   91.47    8.42
  -1   1  10  271.54   14.26
  -1   1   9  519.19   19.89
   1  -1  -9  561.90   21.90
   1  -1  -8   84.42    7.15
  -1   1   8   81.69    6.69
  -1   1   7   97.29    6.67
  -1   1   6  763.97   21.45
   1  -1  -6  727.29   22.02
   1  -1  -5    1.82    0.79
  -1   1   5    1.54    0.93
   1  -1  -4   97.65    5.19
  -1   1   4  103.01    5.06
   1  -1  -3  666.04   16.54
  -1   1   3  693.83   16.39
   1  -1  -2    1.77    0.44
  -1   1   2    1.20    0.42
  -1   1   1 2688.36   53.99
  -1   1   1 2635.83   53.98
  -1   1   0 1051.67   23.52
  -1   1  -1  282.08    7.59
   1  -1   1  266.78    7.51
  -1   1  -2 1249.72   27.39
   1  -1   2 1190.77   27.26
   1  -1   3  758.53   20.09
  -1   1  -3  799.82   20.21
   1  -1   4  152.71    7.54
  -1   1  -4  164.60    7.84
   1  -1   5 2199.09   50.46
   1  -1   6  790.81   23.98
   1  -1   7  555.02   20.03
  -1   1  -8  729.17   25.09
   1  -1   8  719.80   24.23
  -1   1  -9    6.06    0.84
  -1   1  -9    4.12    0.82
   1  -1   9    7.61    2.72
   1  -1  10  303.04   16.34
   1  -1  11  590.89   25.26
   1  -1  12   32.21    5.81
   1  -1  13  346.71   20.43
   1  -1  14  135.14   12.97
  -1   0  15   75.32    9.89
  -1   0  14  198.86   15.27
  -1   0  13   14.74    4.35
  -1   0  12  138.92   11.33
  -1   0  11  165.50   11.83
  -1   0  10    0.52    1.48
   1   0  -9   75.58    7.47
  -1   0   9   71.74    6.78
  -1   0   8  444.48   17.55
   1   0  -8  450.65   18.53
  -1   0   7  206.67   10.46
   1   0  -7  211.00   11.12
  -1   0   6  853.48   24.35
  -1   0   5  171.03    8.17
   1   0  -5  182.92    8.66
  -1   0   4    2.50    0.99
   1   0  -4    3.82    1.15
  -1   0   4    3.30    0.49
  -1   0   3   43.88    2.03
  -1   0   3   46.13    3.15
   1   0  -3   45.06    3.17
  -1   0   2  878.22   18.92
   1   0  -2  835.12   19.03
   1   0  -2  771.17   18.08
  -1   0   2  809.54   17.82
  -1   0   1  369.01    9.75
  -1   0   1  406.34    9.52
   1   0  -1  361.09    9.89
   1   0  -1  400.84    9.55
  -1   0  -1  390.19   10.00
   1   0   2 1135.08   23.47
  -1   0  -2  906.27   22.21
  -1   0  -3  258.79    8.27
   1   0   3  304.91    9.86
  -1   0  -4   53.52    3.20
   1   0   4   56.19    4.22
   1   0   5  839.13   23.43
  -1   0  -5  826.59   19.55
   1   0   6 2191.17   50.90
  -1   0  -6 2148.93   44.44
   1   0   7    0.75    1.03
  -1   0  -7    0.78    0.50
  -1   0  -8  944.98   19.90
   1   0   8  999.97   29.96
  -1   0  -9  630.11   24.25
   1   0   9  593.49   22.63
   1   0  10   30.88    4.79
   1   0  11  496.81   22.23
   1   0  12  294.57   17.33
   1   0  13  135.72   12.13
   1   0  14  222.98   16.57
   1   0  15  136.45   13.63
  -1  -1  14  127.01   12.25
  -1  -1  13  129.12   11.99
  -1  -1  12   66.98    8.02
  -1  -1  11  325.94   17.63
  -1  -1  10  170.63   11.81
  -1  -1   9    7.14    2.46
  -1  -1   8  359.76   16.21
   1   1  -8  394.19   17.42
   1   1  -7  106.15    7.98
  -1  -1   7   98.29    7.42
   1   1  -7  104.13    3.86
   1   1  -6  317.48    8.61
  -1  -1   6  316.09   13.29
  -1  -1   5  826.86   23.28
   1   1  -5  799.83   18.12
  -1  -1   4   15.07    2.22
   1   1  -4   17.69    1.50
  -1  -1   4   16.71    1.42
   1   1  -3 1067.17   22.98
  -1  -1   3 1075.07   22.86
  -1  -1   3 1006.46   25.56
   1   1  -2  707.85   16.16
  -1  -1   2  703.86   16.05
  -1  -1   2  686.70   17.72
  -1  -1   1   76.10    3.39
   1   1  -1   85.78    3.57
  -1  -1   1   81.59    3.99
  -1  -1   0 1814.18   35.86
   1   1   0 1836.91   37.19
  -1  -1   0 1778.75   35.82
   1   1   1 2434.18   48.49
   1   1   1 2404.51   47.11
  -1  -1  -1 2375.84   47.00
  -1  -1  -2   10.17    1.20
   1   1   2   10.06    1.21
  -1  -1  -3 2025.87   41.36
   1   1   3 2026.34   44.09
   1   1   3 2000.95   41.55
  -1  -1  -4 1596.59   33.28
   1   1   4 1573.82   37.05
   1   1   4 1595.98   33.74
  -1  -1  -5  140.00    4.92
   1   1   5  132.31    5.31
   1   1   5  129.94    7.23
  -1  -1  -6 1271.21   26.97
   1   1   6 1282.76   33.16
  -1  -1  -7  222.81    6.32
   1   1   7  195.95   10.46
  -1  -1  -8  154.01    4.49
  -1  -1  -8  156.92   10.31
   1   1   8  144.27    9.38
  -1  -1  -9 1234.19   37.20
   1   1   9 1157.09   34.78
   1   1  10  424.25   18.90
   1   1  11  312.53   16.54
   1   1  12  358.47   19.05
   1   1  13   -0.09    2.02
   1   1  14  108.30   11.12
   1   1  15  205.58   16.02
  -1  -2  14    3.98    3.07
  -1  -2  13  130.89   12.47
  -1  -2  12   19.48    4.85
  -1  -2  11   36.39    5.88
  -1  -2  10  312.28   16.93
   1   2  -9    3.00    0.72
  -1  -2   9    9.15    3.05
   1   2  -8  137.46   10.18
   1   2  -8  137.39    5.64
  -1  -2   8  153.15   10.35
  -1  -2   7  391.81   16.54
   1   2  -7  357.60   10.75
   1   2  -7  390.01   16.83
  -1  -2   6  106.37    7.50
   1   2  -6   99.59    4.85
   1   2  -5  121.72    5.46
  -1  -2   5  124.05    7.75
  -1  -2   4  905.93   25.43
   1   2  -4  942.80   22.19
  -1  -2   3   20.13    2.04
   1   2  -3   19.90    2.00
  -1  -2   3   18.36    2.54
  -1  -2   2  639.28   16.24
   1   2  -2  639.14   16.20
  -1  -2   2  597.73   17.43
   1   2  -1 1034.29   24.84
  -1  -2   1 1016.59   24.20
   1   2  -1 1063.67   24.28
  -1  -2   1 1055.64   25.27
   1   2   0  286.64    9.12
   1   2   1  439.36   12.24
  -1  -2  -2  760.54   18.68
   1   2   2  770.65   18.78
   1   2   3  485.79   12.98
  -1  -2  -3  456.08   12.78
  -1  -2  -4 4708.47   93.81
   1   2   4 4740.23   93.88
   1   2   5  298.88   11.80
  -1  -2  -5  302.90    9.38
   1   2   5  307.25    9.50
   1   2   6  902.73   25.50
  -1  -2  -6  905.23   21.08
   1   2   6  879.37   21.29
  -1  -2  -7  916.23   21.52
   1   2   7  947.90   22.25
   1   2   7  912.43   27.04
   1   2   8   27.65    2.43
   1   2   8   26.65    3.82
   1   2   9  521.47   20.12
   1   2  10 1162.52   35.52
   1   2  11    6.86    2.40
   1   2  12  378.19   19.04
   1   2  13  302.37   17.65
   1   2  14   67.81    8.51
   1   2  15  169.95   14.27
  -1  -3  13   72.82    9.66
  -1  -3  12  153.06   13.29
  -1  -3  11   35.41    6.18
  -1  -3  10  162.02   12.42
   1   3 -10  129.00    6.04
   1   3  -9  131.68    6.38
  -1  -3   9  146.01   11.28
   1   3  -8  116.95    5.98
  -1  -3   8  100.36    8.92
   1   3  -7  389.73   12.87
   1   3  -7  427.56   18.46
  -1  -3   7  401.71   17.75
   1   3  -6  105.69    8.11
  -1  -3   6  124.16    8.73
   1   3  -6  105.17    5.87
   1   3  -5  112.92    6.03
  -1  -3   5  105.07    7.63
  -1  -3   4  333.84   13.74
   1   3  -4  329.72   11.49
   1   3  -3  538.17   17.68
  -1  -3   3  539.52   17.86
   1   3  -3  564.29   16.24
  -1  -3   2 1082.59   27.59
   1   3  -2  987.70   25.70
   1   3  -2 1025.11   26.85
  -1  -3   2 1069.43   26.06
   1   3  -1 2376.56   50.62
   1   3  -1 2255.57   50.53
  -1  -3   1 2340.02   51.50
  -1  -3   1 2300.63   50.46
  -1  -3   0   92.49    5.31
   1   3   0   98.88    5.47
   1   3   0   90.18    5.18
   1   3   1  475.02   14.35
  -1  -3  -2 1355.59   32.09
   1   3   2 1376.47   32.01
   1   3   3  153.51    7.00
  -1  -3  -3  158.89    7.14
   1   3   4 1308.72   30.55
  -1  -3  -4 1288.69   30.75
  -1  -3  -5 1507.20   34.59
   1   3   5 1492.61   34.35
   1   3   6    1.53    0.99
   1   3   6    3.28    0.92
  -1  -3  -6    4.30    1.23
  -1  -3  -7 1196.38   28.04
   1   3   7 1142.21   32.09
   1   3   7 1174.04   27.99
   1   3   8  943.07   23.48
   1   3   8  946.35   28.50
   1   3   9   82.53    7.17
   1   3   9   74.22    4.56
   1   3  10  551.34   21.59
   1   3  10  542.70   15.47
   1   3  11  206.08   12.87
   1   3  12   66.31    7.43
   1   3  13  384.86   19.78
   1   3  14  118.29   10.93
   1   3  15   42.55    7.07
   1   3  16  121.94   12.44
  -1  -4  12  148.35   13.73
  -1  -4  11   71.54    8.99
  -1  -4  10    7.25    3.62
   1   4 -10    1.01    1.21
   1   4  -9  255.10   10.72
  -1  -4   9  283.08   16.51
   1   4  -8  126.94    7.28
  -1  -4   8  123.46   10.30
   1   4  -7  108.64    6.69
  -1  -4   7  112.14    9.24
   1   4  -6  492.32   16.51
   1   4  -6  491.80   20.18
  -1  -4   6  526.35   20.76
   1   4  -5   51.87    5.58
   1   4  -5   48.53    4.42
  -1  -4   5   46.04    5.37
   1   4  -4   92.94    7.11
   1   4  -4   83.90    5.83
   1   4  -3  880.88   26.13
  -1  -4   3  940.38   27.28
   1   4  -3  907.43   25.17
  -1  -4   2    1.89    1.00
   1   4  -2    2.21    1.20
   1   4  -2    1.83    1.19
   1   4  -1  577.20   17.74
   1   4  -1  512.82   16.81
   1   4   0 1099.76   28.55
   1   4   0 1186.23   29.84
   1   4   1   40.29    3.96
   1   4   2 2891.66   63.16
   1   4   3  868.70   18.50
  -1  -4  -3  905.64   24.31
   1   4   3  918.73   24.35
   1   4   3  871.47   18.51
  -1  -4  -4  180.90    8.63
   1   4   4  175.89    8.50
  -1  -4  -5 1105.60   28.34
   1   4   5 1075.58   28.02
   1   4   6  371.68   13.13
   1   4   7  232.64    9.77
   1   4   7  217.43   11.15
   1   4   8 1910.44   47.95
   1   4   8 1897.09   43.60
   1   4   9   97.08    5.87
   1   4   9   98.34    7.88
   1   4  10  256.55   13.90
   1   4  10  275.65   10.62
   1   4  11  447.89   19.81
   1   4  11  455.58   14.59
   1   4  12   20.10    2.46
   1   4  12   21.52    4.38
   1   4  13  145.85   11.59
   1   4  14  370.74   20.03
   1   4  15    9.91    3.77
   1   4  16  161.88   13.97
  -1  -5  11   75.71    9.66
   1   5 -10   -0.42    1.33
  -1  -5  10    6.30    2.45
  -1  -5   9   89.27    9.48
   1   5  -9   73.33    5.94
  -1  -5   8  168.24   12.77
   1   5  -8  145.82    8.76
   1   5  -7    0.73    1.15
  -1  -5   7   -1.38    1.69
  -1  -5   6  134.90   10.45
   1   5  -6  138.00    8.50
   1   5  -5  481.88   17.76
   1   5  -5  509.36   20.34
  -1  -5   5  513.29   20.98
   1   5  -4  156.32    9.92
   1   5  -4  149.56    8.80
  -1  -5   4  142.67    9.91
  -1  -5   3  945.37   29.40
   1   5  -3  925.36   27.26
   1   5  -3  935.30   28.02
   1   5  -2  295.41   13.12
   1   5  -2  305.82   13.22
   1   5  -1    2.80    1.20
   1   5  -1    2.56    1.48
  -1  -5   0  657.51   16.90
   1   5   0  670.49   20.41
   1   5   0  676.75   21.40
   1   5   1  629.72   19.15
  -1  -5  -1  605.96   14.04
   1   5   1  650.98   20.55
  -1  -5  -1  598.42   14.08
   1   5   2  592.95   19.68
   1   5   3 2213.42   51.91
   1   5   4  103.91    4.15
   1   5   4   99.92    4.08
   1   5   5  459.39   16.25
   1   5   5  440.98   12.42
   1   5   5  436.92   12.39
   1   5   6 1082.28   29.51
   1   5   7   21.25    3.33
   1   5   7   28.64    3.59
   1   5   8  450.66   18.08
   1   5   8  485.80   16.66
   1   5   9  984.40   30.66
   1   5   9 1018.78   27.74
   1   5  10    3.63    1.47
   1   5  10    1.50    1.51
   1   5  11  354.34   13.48
   1   5  11  346.05   17.12
   1   5  12  201.66    9.49
   1   5  12  184.85   12.52
   1   5  13    0.44    2.06
   1   5  14  170.16   13.03
   1   5  15   39.42    6.46
   1   5  16   39.54    6.79
  -1  -6  10   87.95   10.55
  -1  -6   9   36.15    6.42
   1   6  -9   20.31    3.58
   1   6  -8  152.01    9.83
  -1  -6   8  160.11   13.32
  -1  -6   7  115.38   10.63
   1   6  -7  103.79    8.15
   1   6  -6    9.16    2.42
  -1  -6   6    8.57    2.84
   1   6  -5  467.91   18.62
  -1  -6   5  490.07   21.82
   1   6  -4   79.29    6.89
  -1  -6   4   83.15    8.03
   1   6  -3  294.74   13.98
  -1  -6   3  285.11   15.19
   1   6  -3  304.39   14.43
   1   6  -2  624.20   22.39
   1   6  -2  707.75   23.49
   1   6  -1   44.19    5.07
   1   6  -1   42.74    4.62
  -1  -6   1   42.27    3.83
   1   6   0  530.67   19.62
  -1  -6   0  493.58   14.86
   1   6   0  523.96   17.98
   1   6   1  832.45   26.20
   1   6   1  788.64   23.95
  -1  -6  -1  806.44   18.66
  -1  -6  -1  818.38   18.66
   1   6   2   22.38    3.62
   1   6   2   21.41    3.02
   1   6   3  737.17   24.18
   1   6   4  730.16   24.00
   1   6   5   11.96    1.47
   1   6   5    8.24    1.23
   1   6   5   11.75    2.61
   1   6   6 1132.31   31.87
   1   6   6 1083.69   26.33
   1   6   6 1097.04   26.47
   1   6   7  290.91   11.09
   1   6   7  316.88   13.98
   1   6   7  298.75   11.13
   1   6   8   30.64    4.37
   1   6   8   35.30    4.31
   1   6   9  557.73   19.66
   1   6   9  537.68   20.89
   1   6  10   13.90    3.02
   1   6  10   13.67    2.75
   1   6  11   51.53    6.29
   1   6  11   55.37    5.28
   1   6  12  538.12   18.82
   1   6  12  539.99   22.76
   1   6  13   81.69    8.48
   1   6  14   89.11    9.39
   1   6  15   77.38    9.10
   1   6  16    2.22    1.86
   1   7  -9    5.07    2.26
  -1  -7   9    6.64    2.62
  -1  -7   8   35.24    6.74
   1   7  -8   31.54    4.78
   1   7  -7  229.19   13.28
  -1  -7   7  231.86   16.59
   1   7  -6    3.64    2.23
  -1  -7   6    1.12    1.81
   1   7  -5  186.67   11.77
  -1  -7   5  182.57   13.59
   1   7  -4  306.69   15.63
   1   7  -3   53.64    6.21
  -1  -7   2  268.29   12.53
   1   7  -2  296.10   14.41
   1   7  -2  307.05   15.21
   1   7  -1  594.80   22.36
   1   7  -1  542.23   20.15
  -1  -7   1  529.45   17.85
  -1  -7   0   57.48    4.48
   1   7   0   57.19    5.56
  -1  -7   0   57.76    4.51
  -1  -7  -1 1180.38   25.63
  -1  -7  -1 1175.52   25.70
   1   7   1 1186.81   35.20
   1   7   1 1105.57   32.00
   1   7   2  313.22   15.32
   1   7   2  308.37   13.45
   1   7   3   32.94    4.82
   1   7   3   29.86    3.80
   1   7   4  751.19   25.87
   1   7   5  234.31   12.81
   1   7   6  167.44   10.63
   1   7   6  167.45    6.42
   1   7   6  169.46    6.42
   1   7   7 1448.48   34.62
   1   7   7 1495.81   34.83
   1   7   7 1523.64   41.32
   1   7   8   62.01    4.92
   1   7   8   53.04    5.87
   1   7   8   60.89    4.91
   1   7   8   63.57    6.47
   1   7   9  156.36   10.19
   1   7   9  136.05    8.23
   1   7   9  136.47    9.68
   1   7   9  142.87    8.38
   1   7  10  192.80   11.34
   1   7  10  174.40   11.55
   1   7  10  187.04   10.41
   1   7  10  179.69   10.16
   1   7  11   21.08    4.09
   1   7  11   16.24    3.24
   1   7  12  128.24   10.42
   1   7  12  145.54    9.50
   1   7  13  210.35   13.92
   1   7  14    7.38    3.29
   1   7  15   83.59    9.25
   1   8  -8   28.53    4.97
  -1  -8   8   32.61    6.83
  -1  -8   7  143.63   13.67
   1   8  -7  154.79   11.65
  -1  -8   6   57.76    8.25
   1   8  -6   69.57    7.76
   1   8  -5   64.09    7.38
   1   8  -4  259.16   15.03
  -1  -8   4  223.75   13.53
  -1  -8   3  125.46    9.26
   1   8  -3  141.24   10.99
   1   8  -2   10.18    3.25
  -1  -8   2    5.05    1.98
  -1  -8   1  361.98   15.03
   1   8  -1  422.11   19.43
   1   8   0  151.28    9.90
  -1  -8   0  148.99    7.64
  -1  -8   0  133.62    7.42
  -1  -8  -1  266.48    7.41
  -1  -8  -1  268.62    7.45
   1   8   1  248.07   12.73
   1   8   1  278.42   15.45
   1   8   2  606.78   24.23
   1   8   2  597.24   21.11
   1   8   3   34.03    4.34
   1   8   3   39.52    5.73
   1   8   4  197.95   12.59
   1   8   4  182.32   10.58
   1   8   5  317.56   16.28
   1   8   6   22.01    4.19
   1   8   7  472.04   20.58
   1   8   7  493.28   12.83
   1   8   8  134.31    6.90
   1   8   8  133.73   10.10
   1   8   9    3.19    1.68
   1   8   9    1.40    1.31
   1   8   9    3.65    2.04
   1   8  10  320.28   16.13
   1   8  10  316.10   13.72
   1   8  10  288.71   15.47
   1   8  11  186.00   11.93
   1   8  11  181.71   12.13
   1   8  12    9.78    3.05
   1   8  12    9.91    2.57
   1   8  13   93.92    9.27
   1   8  14   10.87    3.08
   1   9  -7    3.39    2.84
   1   9  -6  142.01   11.86
   1   9  -5   32.98    5.84
   1   9  -4   82.15    8.99
   1   9  -3  264.64   16.34
   1   9  -2    2.97    2.63
   1   9  -1  255.29   15.77
  -1  -9   1  196.05   10.82
  -1  -9   0  285.95   10.63
   1   9   0  286.24   16.87
   1   9   1    9.65    3.27
   1   9   2  412.18   20.37
   1   9   2  402.14   17.26
   1   9   3  283.71   13.93
   1   9   3  286.45   16.68
   1   9   4   -0.30    2.18
   1   9   4    0.65    2.12
   1   9   5  840.77   30.94
   1   9   5  825.14   27.26
   1   9   6  155.31   11.97
   1   9   7    7.18    2.94
   1   9   8  128.41   10.60
   1   9   9   83.03    8.48
   1   9   9   58.48    6.62
   1   9  10   52.40    6.54
   1   9  10   40.21    5.68
   1   9  11  333.83   17.05
   1   9  11  327.30   17.60
   1   9  12    7.29    2.59
   1  10  -6   36.92    6.57
   1  10  -5  107.51   11.01
   1  10  -4   10.52    3.92
   1  10  -3  116.47   11.35
   1  10  -2  151.35   13.03
   1  10  -1   26.86    5.88
   1  10   0  284.35   17.85
   1  10   1   81.17    9.37
   1  10   2    1.25    1.87
   1  10   3  184.92   14.04
   1  10   4  107.89   10.68
   1  10   5  222.57   15.42
   1  10   6  221.86   15.27
   1  10   7   22.49    4.97
   1  10   8   65.54    8.11
   1  10   9  152.12   12.51
   1  10  10    3.47    2.50
   1  10  11   96.18    9.79
   1  10  12   65.08    8.01
   1  11   0  142.65   13.40
   1  11   1  141.73   13.22
   1  11   2   27.62    6.09
   1  11   3  181.84   14.74
   1  11   4  135.82   12.71
   1  11   5    7.97    3.93
   1  11   6   86.70   10.09
   1  11   7   87.36   10.05
   1  11   8   -5.72    3.40
   1  11   9  201.66   15.32
   1  11  10   40.36    6.82
   1  11  11   -0.41    2.26
  -2  11   9   91.45   10.50
  -2  11   8    2.42    2.17
  -2  11   7  154.88   13.62
  -2  11   6   93.74   10.67
  -2  11   5   11.36    4.33
  -2  11   4  220.44   16.55
  -2  11   3   70.48    9.25
  -2  10  11   87.45    9.31
  -2  10  10   15.13    4.36
  -2  10   9  121.27   11.28
  -2  10   8   60.69    8.01
  -2  10   7   14.63    4.16
  -2  10   6  347.28   19.91
  -2  10   5  117.17   11.17
  -2  10   4  126.35   11.68
  -2  10   3  197.26   14.90
  -2  10   2   -1.78    2.94
  -2  10   1  112.32   11.25
  -2  10   0  237.01   16.60
  -2  10  -1   24.95    5.77
  -2  10  -2  171.95   14.22
  -2  10  -3   72.81    9.29
  -2  10  -4   15.81    4.57
  -2  10  -5   71.59    9.23
  -2   9  11  268.88   15.76
  -2   9  10   28.90    5.19
  -2   9   9  112.10   10.12
  -2   9   9  126.16   10.00
  -2   9   8  165.78   12.34
  -2   9   8  169.16   11.21
  -2   9   7   15.19    3.97
  -2   9   7   11.00    2.52
  -2   9   6  296.91   13.98
  -2   9   6  243.53   15.56
  -2   9   5  456.93   22.02
  -2   9   5  511.34   18.92
  -2   9   4   11.28    3.71
  -2   9   3  317.94   17.87
  -2   9   2  204.12   14.07
   2  -9  -2  198.22   12.32
   2  -9  -2  199.14   12.38
  -2   9   1   29.07    5.22
   2  -9  -1   21.48    4.25
   2  -9  -1   19.05    4.00
  -2   9   0  292.51   17.20
   2  -9   0  256.25   16.31
   2  -9   0  271.75   16.54
  -2   9  -1  122.82   11.20
   2  -9   1  126.76   11.57
  -2   9  -2   47.58    6.90
   2  -9   2   40.21    6.87
  -2   9  -3  187.04   13.88
   2  -9   3  174.32   14.38
  -2   9  -4   80.80    9.37
  -2   9  -5   52.05    7.54
   2  -9   5   46.19    7.48
  -2   9  -6  132.54   11.83
   2  -9   6  146.21   13.59
   2  -9   7   -0.95    2.77
  -2   9  -7    1.03    1.89
  -2   9  -8   41.87    6.90
   2  -9   8   40.16    7.41
  -2   8  13  160.32   13.21
  -2   8  12    6.43    2.23
  -2   8  12    7.76    2.44
  -2   8  11  214.89   14.27
  -2   8  11  189.84   12.07
  -2   8  10  271.91   15.74
  -2   8  10  262.13   14.56
  -2   8   9    2.48    2.32
  -2   8   9    1.98    2.17
  -2   8   8  384.50   17.98
  -2   8   8  369.48   18.07
  -2   8   8  397.35   12.24
  -2   8   8  374.94   17.98
  -2   8   7  342.76   16.25
  -2   8   7  324.08   15.90
  -2   8   7  343.59   10.35
  -2   8   7  313.53   16.58
  -2   8   6   54.23    6.69
  -2   8   6   56.76    5.86
  -2   8   6   56.58    3.20
  -2   8   6   55.53    3.13
  -2   8   5  474.81   18.35
  -2   8   5  462.46   11.78
  -2   8   5  456.44   11.99
  -2   8   4  154.34    5.69
  -2   8   4  163.85    9.57
  -2   8   3   59.02    6.92
  -2   8   3   60.86    3.66
  -2   8   3   72.83    6.08
  -2   8   2  624.33   17.01
  -2   8   2  592.63   24.20
  -2   8   1  227.14    9.41
  -2   8   1  226.82   13.95
   2  -8   0  192.76   13.37
   2  -8   0  213.72   14.13
  -2   8   0  239.02   14.32
  -2   8   0  236.69   10.28
  -2   8  -1  223.87   14.06
  -2   8  -1  239.09   11.15
   2  -8   1  230.73   14.82
   2  -8   1  226.14   14.72
   2  -8   2    5.49    2.69
  -2   8  -2    3.88    2.15
   2  -8   2    9.12    3.19
  -2   8  -2    7.65    2.02
   2  -8   3   84.65    9.12
  -2   8  -3  108.26    9.62
   2  -8   3  103.66    9.42
  -2   8  -3  110.77    8.45
   2  -8   4  193.50   13.66
  -2   8  -4  179.89   12.85
   2  -8   5    4.88    2.74
  -2   8  -5    1.61    2.21
   2  -8   6   98.64   10.50
  -2   8  -6   94.50    9.31
   2  -8   7   43.69    7.37
  -2   8  -7   49.37    6.58
  -2   8  -8   36.39    6.02
   2  -8   8   31.81    6.83
   2  -8   9   92.06   11.44
  -2   7  15   96.25   11.01
  -2   7  14    1.71    2.89
  -2   7  13  256.79   16.77
  -2   7  12  119.60   10.61
  -2   7  12  108.16    8.04
  -2   7  11   36.50    5.58
  -2   7  11   41.11    5.02
  -2   7  11   36.65    4.44
  -2   7  10  211.07   11.94
  -2   7  10  192.32   12.84
  -2   7  10  214.84   10.07
  -2   7   9  199.87   12.50
  -2   7   9  204.03    9.05
  -2   7   9  178.41   11.17
  -2   7   9  187.81   12.23
  -2   7   8  122.20    9.68
  -2   7   8  124.80    9.49
  -2   7   8  127.32    6.40
  -2   7   8  115.35    8.91
  -2   7   7 1055.78   33.00
  -2   7   7 1053.59   32.82
  -2   7   7 1108.98   33.68
  -2   7   7 1104.90   25.78
  -2   7   6  139.05    9.41
  -2   7   6  124.18    9.19
  -2   7   6  133.19    5.42
  -2   7   6  130.20    9.02
  -2   7   5  329.04   15.81
  -2   7   5  354.09   15.22
  -2   7   5  356.72   15.31
  -2   7   5  336.26    9.30
  -2   7   5  336.54    9.39
  -2   7   4  449.36   17.34
  -2   7   4  443.25   11.23
  -2   7   3   13.45    1.49
  -2   7   3   14.82    2.87
  -2   7   2  435.89   16.22
  -2   7   2  398.34   11.73
  -2   7   1  935.73   23.40
  -2   7   0    0.18    0.74
  -2   7  -1  429.71   15.14
   2  -7   1  419.38   19.50
   2  -7   1  430.40   19.69
   2  -7   2  270.74   15.39
   2  -7   2  273.08   14.24
  -2   7  -2  290.71   12.57
   2  -7   3   60.89    7.21
  -2   7  -3   72.72    6.38
   2  -7   3   68.96    7.00
  -2   7  -4  271.79   15.17
  -2   7  -4  308.71   14.78
   2  -7   4  310.91   16.28
   2  -7   5  116.15    9.97
  -2   7  -5  108.48    9.23
  -2   7  -6   10.72    3.12
   2  -7   6   10.29    3.34
  -2   7  -7  149.37   11.13
   2  -7   7  158.75   12.86
   2  -7   8   31.62    6.06
  -2   7  -8   35.68    5.37
  -2   7  -9   27.41    4.59
   2  -7   9   29.30    5.76
   2  -7  10   78.34   10.28
  -2   6  15  144.55   13.44
  -2   6  14   91.97   10.23
  -2   6  14   78.15    7.86
  -2   6  13  140.52   10.08
  -2   6  13  155.58   12.61
  -2   6  12  452.61   18.23
  -2   6  12  485.05   22.41
  -2   6  12  419.25   15.72
  -2   6  11   53.82    5.22
  -2   6  11   48.86    6.35
  -2   6  11   58.80    5.59
  -2   6  10  144.40    8.88
  -2   6  10  169.12    9.14
  -2   6  10  147.55   10.88
  -2   6   9  469.15   17.81
  -2   6   9  488.20   16.28
  -2   6   9  464.33   19.86
  -2   6   9  485.24   20.28
  -2   6   8   23.66    4.11
  -2   6   8   20.34    3.39
  -2   6   8   21.59    3.84
  -2   6   8   21.77    2.70
  -2   6   7  615.90   16.77
  -2   6   7  571.34   20.69
  -2   6   7  619.20   22.24
  -2   6   7  605.87   21.89
  -2   6   6  878.72   20.67
  -2   6   6  819.57   27.09
  -2   6   6  860.01   27.26
  -2   6   5    1.05    1.21
  -2   6   5    2.28    1.64
  -2   6   5    0.91    0.47
  -2   6   4  700.37   22.88
  -2   6   4  710.13   15.74
  -2   6   4  701.72   15.90
  -2   6   4  708.67   22.92
  -2   6   3  691.18   21.91
   2  -6  -3  672.81   21.96
   2  -6  -3  667.41   21.99
  -2   6   3  660.57   15.07
   2  -6  -2   94.67    7.37
  -2   6   2  102.55    7.05
   2  -6  -2   92.89    7.38
  -2   6   2  102.65    4.29
   2  -6  -1  464.66   19.00
  -2   6   1  480.55   13.48
   2  -6  -1  487.99   19.46
  -2   6   1  521.68   17.65
  -2   6   0  182.39    7.71
   2  -6   1   51.68    4.95
  -2   6  -1   47.91    4.08
   2  -6   2  530.40   20.89
  -2   6  -2  499.05   16.96
   2  -6   2  499.44   18.45
   2  -6   3  120.62    9.50
  -2   6  -3  124.52    7.92
   2  -6   3  123.30    8.67
   2  -6   4  128.43   10.20
  -2   6  -4  145.37    9.35
   2  -6   4  155.58   10.40
   2  -6   5  181.35   11.74
  -2   6  -5  170.62   10.87
   2  -6   6   21.83    4.36
  -2   6  -7  131.31    9.64
   2  -6   7  129.15   11.00
  -2   6  -8  102.52    8.48
   2  -6   8  125.51   11.22
   2  -6   9   18.82    4.56
  -2   6  -9   14.61    2.77
  -2   6 -10   55.75    6.16
   2  -6  10   70.49    9.58
   2  -6  11   52.11    8.34
  -2   5  15   83.57    8.69
  -2   5  14  207.21   13.36
  -2   5  13    0.66    1.55
  -2   5  12  224.42   12.50
  -2   5  12  218.70    9.08
  -2   5  11  468.27   18.03
  -2   5  11  454.37   20.69
  -2   5  11  424.20   14.75
  -2   5  10    2.33    1.68
  -2   5  10    1.31    1.35
  -2   5  10    3.34    1.14
  -2   5   9 1005.50   27.16
  -2   5   9  965.62   31.03
  -2   5   9  971.49   31.05
  -2   5   9  946.68   26.78
  -2   5   8  429.19   18.11
  -2   5   8  469.51   15.07
  -2   5   8  430.18   15.76
  -2   5   8  435.23   18.03
  -2   5   7  124.74    6.21
  -2   5   7  127.24    8.62
  -2   5   7  110.00    8.07
  -2   5   6  702.32   22.90
  -2   5   6  700.74   22.75
  -2   5   6  685.29   17.66
  -2   5   5  316.37    9.07
  -2   5   5  327.81   14.00
  -2   5   5  329.74   13.97
  -2   5   4  224.71   11.28
  -2   5   4  223.28   11.12
  -2   5   4  239.89    6.41
  -2   5   3 2156.87   42.25
   2  -5  -3 2157.51   50.86
  -2   5   3 2046.79   50.52
  -2   5   3 2168.74   42.12
  -2   5   3 2106.00   50.86
   2  -5  -3 2144.58   50.72
  -2   5   2  154.85    8.62
   2  -5  -2  148.47    8.79
   2  -5  -2  141.61    8.77
  -2   5   2  154.55    4.63
  -2   5   1  565.77   13.80
   2  -5  -1  536.99   19.74
   2  -5  -1  523.81   19.72
  -2   5   1  583.73   18.78
  -2   5   0  603.57   15.82
   2  -5   0  588.51   20.93
   2  -5   0  602.49   21.19
   2  -5   0  600.35   17.18
  -2   5  -1   18.52    2.39
   2  -5   1   17.78    2.56
  -2   5  -2  395.09   13.71
   2  -5   2  393.25   14.51
   2  -5   3  744.21   23.22
   2  -5   3  738.94   25.24
  -2   5  -3  744.04   22.37
   2  -5   4   44.81    4.99
  -2   5  -4   39.76    4.47
   2  -5   4   36.03    4.85
   2  -5   5  359.62   16.31
   2  -5   5  351.10   16.99
  -2   5  -5  355.31   15.68
  -2   5  -6   88.64    7.81
   2  -5   6   82.57    7.79
   2  -5   7   36.88    5.50
  -2   5  -8  144.30    9.32
   2  -5   8  151.05   11.91
   2  -5   9   52.78    7.27
  -2   5  -9   42.45    4.88
  -2   5 -10   12.08    2.72
   2  -5  10   10.08    3.93
   2  -5  11  148.67   13.66
   2  -5  12   19.48    5.52
  -2   4  16  159.61   13.19
  -2   4  15   18.89    4.69
  -2   4  14  330.46   17.76
  -2   4  13  136.80   10.52
  -2   4  12   14.02    3.35
  -2   4  11  406.90   17.10
  -2   4  11  382.12   11.83
  -2   4  10  293.44   10.50
  -2   4  10  290.64   13.39
  -2   4   9  352.67   12.43
  -2   4   9  373.08   14.46
  -2   4   8 1603.03   37.44
  -2   4   8 1447.57   35.82
  -2   4   7  128.87    8.48
  -2   4   7  126.27    8.40
  -2   4   7  133.28    6.79
  -2   4   6  294.72   12.94
  -2   4   6  273.88   12.61
  -2   4   6  302.58    9.98
  -2   4   5  964.38   22.20
  -2   4   5  958.18   27.18
  -2   4   5  994.27   27.60
  -2   4   4   50.33    4.77
  -2   4   4   46.99    4.52
  -2   4   4   48.43    2.38
  -2   4   3  595.25   19.34
   2  -4  -3  622.11   19.29
   2  -4  -3  619.36   19.28
  -2   4   3  604.89   19.57
  -2   4   2 1482.12   36.04
   2  -4  -2 1404.94   36.05
  -2   4   2 1437.15   35.94
   2  -4  -2 1382.88   36.15
   2  -4  -1   15.24    2.72
  -2   4   1   12.53    2.30
   2  -4  -1   15.33    2.72
  -2   4   1   15.52    1.21
  -2   4   0  644.46   15.50
   2  -4   0  614.65   20.61
   2  -4   0  615.86   20.51
  -2   4   0  655.49   19.68
   2  -4   0  622.46   16.15
   2  -4   1  205.92    8.25
   2  -4   1  205.05   10.48
  -2   4  -1  215.32    7.97
   2  -4   2   60.90    4.55
   2  -4   2   56.50    5.35
  -2   4  -2   59.87    4.36
   2  -4   3  413.47   14.99
  -2   4  -3  427.96   14.81
   2  -4   4   58.83    5.84
   2  -4   4   70.70    5.84
  -2   4  -4   68.02    5.61
  -2   4  -5  100.33    7.54
   2  -4   5  110.10    8.00
   2  -4   6  360.65   16.55
  -2   4  -6  379.02   16.61
   2  -4   7  139.64   10.25
   2  -4   8   82.12    8.36
   2  -4   9  199.66   13.91
  -2   4  -9  181.45    9.74
   2  -4  10   11.04    3.68
  -2   4 -10   12.84    2.58
   2  -4  11  112.15   11.40
   2  -4  12  108.17   11.64
  -2   3  16  189.03   14.91
  -2   3  15   37.79    6.45
  -2   3  14  162.80   12.43
  -2   3  13  439.39   20.40
  -2   3  12   64.63    6.95
  -2   3  11  262.26   13.75
   2  -3 -10  636.05   24.34
  -2   3  10  581.14   14.65
  -2   3  10  612.05   21.53
   2  -3  -9    2.61    1.63
  -2   3   9    1.75    0.76
  -2   3   9    3.61    1.80
  -2   3   8  753.85   22.50
  -2   3   7  893.92   23.93
   2  -3  -7  857.08   25.30
   2  -3  -6   13.66    2.33
  -2   3   6   15.57    2.14
  -2   3   5 1909.38   45.28
  -2   3   5 1900.38   45.19
   2  -3  -5 1908.09   42.32
  -2   3   5 1912.77   40.87
  -2   3   4  497.15   12.29
  -2   3   4  469.07   16.03
  -2   3   4  518.48   16.62
  -2   3   3  277.81   11.21
   2  -3  -3  274.62   11.06
  -2   3   3  288.17   11.41
  -2   3   3  279.53    6.61
  -2   3   2 1170.53   30.31
  -2   3   2 1144.02   29.99
   2  -3  -2 1219.36   30.48
   2  -3  -2 1195.47   30.37
  -2   3   1   92.98    5.95
   2  -3  -1   90.01    6.20
   2  -3  -1   90.92    6.15
  -2   3   0  224.87    6.55
   2  -3   0  220.72    6.66
   2  -3   0  215.74   10.05
  -2   3   0  232.96    9.92
   2  -3   0  222.52   10.16
   2  -3   1 1891.34   40.21
   2  -3   1 1828.54   44.20
  -2   3  -1 1902.96   39.95
  -2   3  -1 1860.89   43.56
   2  -3   2  504.58   17.00
   2  -3   2  486.25   14.68
  -2   3  -2  494.51   14.54
   2  -3   3  401.55   15.42
  -2   3  -3  433.04   14.24
   2  -3   3  424.57   14.39
  -2   3  -4  137.90    7.85
   2  -3   4  130.16    7.73
   2  -3   5   28.91    3.98
  -2   3  -5   25.90    3.52
   2  -3   6  185.03   10.87
  -2   3  -6  194.81   11.11
  -2   3  -7  392.05   17.43
   2  -3   7  363.98   16.93
   2  -3   8   49.13    6.23
   2  -3   9  278.05   16.04
  -2   3 -10   79.41    5.39
   2  -3  10   79.07    8.89
   2  -3  11   12.14    3.69
  -2   3 -11   11.00    1.92
   2  -3  12  166.01   14.19
   2  -3  13   42.06    7.89
  -2   2  16  119.64   12.15
  -2   2  15  156.86   13.29
  -2   2  14    7.65    3.45
  -2   2  13  263.25   15.77
  -2   2  12  533.43   22.48
  -2   2  11   38.30    5.36
  -2   2  10 1106.22   33.09
   2  -2 -10 1132.90   36.12
  -2   2   9  337.84    8.37
  -2   2   9  344.86   14.78
  -2   2   9  335.65    8.84
   2  -2  -9  366.15   16.62
  -2   2   8   14.72    1.80
  -2   2   8   17.07    2.97
  -2   2   7  914.65   25.00
   2  -2  -7  873.25   25.95
   2  -2  -6  595.63   18.44
  -2   2   6  595.33   17.52
  -2   2   5  277.92    9.68
   2  -2  -5  278.23   10.21
  -2   2   4 3122.38   66.30
  -2   2   4 3084.59   66.19
   2  -2  -4 3009.10   62.87
  -2   2   4 3080.88   62.31
  -2   2   3  234.45    6.70
  -2   2   3  239.30    9.63
  -2   2   3  241.05    9.65
   2  -2  -3  237.02    7.03
   2  -2  -2  298.67   11.24
  -2   2   2  334.03   11.62
  -2   2   2  303.67   11.18
   2  -2  -2  311.90   11.39
   2  -2  -1   64.36    4.71
  -2   2   1   57.92    4.37
   2  -2  -1   59.86    4.61
  -2   2   1   65.36    4.64
   2  -2   0   27.06    1.68
  -2   2   0   28.48    3.05
   2  -2   0   25.64    3.02
   2  -2   0   29.74    3.29
  -2   2  -1  714.03   20.08
   2  -2   1  712.79   20.38
  -2   2  -1  711.69   17.34
   2  -2   1  733.02   17.34
   2  -2   2 1041.95   24.98
   2  -2   2 1048.63   27.29
  -2   2  -2 1042.99   25.04
   2  -2   3    8.41    1.71
  -2   2  -3    6.98    1.57
  -2   2  -4  639.52   19.23
   2  -2   4  591.23   18.78
  -2   2  -5  145.80    8.53
   2  -2   5  139.68    8.32
   2  -2   6   33.57    4.46
  -2   2  -6   38.69    4.65
   2  -2   7  381.93   16.81
  -2   2  -7  393.95   17.24
   2  -2   8   41.76    5.42
  -2   2  -8   36.24    5.21
   2  -2   9   69.17    7.40
  -2   2 -10  305.59   13.29
   2  -2  10  343.16   18.18
   2  -2  11   83.79    9.19
  -2   2 -11   71.08    4.11
   2  -2  12   78.87    9.55
   2  -2  13  174.74   14.69
   2  -2  14   -2.90    2.61
  -2   1  15  220.94   16.19
  -2   1  14  140.36   12.12
  -2   1  13    7.58    3.36
  -2   1  12  449.83   20.99
  -2   1  11  125.04    9.90
  -2   1  10  407.69   17.98
  -2   1   9  859.78   27.55
   2  -1  -9  904.27   29.86
  -2   1   8   59.15    5.54
   2  -1  -8   64.27    6.27
  -2   1   7  434.01   15.82
  -2   1   7  439.89   11.18
  -2   1   6  688.06   19.79
   2  -1  -6  686.48   20.56
   2  -1  -5    2.26    0.88
  -2   1   5    4.19    0.99
  -2   1   5    2.38    1.10
  -2   1   4 1817.57   39.61
   2  -1  -4 1805.94   40.28
  -2   1   3  781.64   20.74
   2  -1  -3  762.67   18.83
  -2   1   3  793.51   20.83
  -2   1   3  763.48   18.40
  -2   1   2    2.54    0.87
   2  -1  -2    4.15    0.79
  -2   1   2    4.42    0.82
  -2   1   2    3.83    1.10
  -2   1   1 1376.13   32.03
  -2   1   1 1351.15   31.90
  -2   1   0  983.40   24.87
  -2   1   0 1009.97   24.98
  -2   1  -1  168.34    7.54
   2  -1   1  174.66    6.41
   2  -1   2  202.15    7.77
  -2   1  -3   44.94    3.70
   2  -1   3   49.11    3.90
  -2   1  -4  110.56    6.63
   2  -1   4  111.32    6.57
   2  -1   5  937.54   26.70
  -2   1  -5  959.19   26.96
  -2   1  -6  472.54   17.70
   2  -1   6  453.77   17.28
  -2   1  -7  292.15   12.00
   2  -1   7  279.39   13.90
  -2   1  -8  174.06    8.97
  -2   1  -8  202.09   12.31
   2  -1   8  202.24   11.87
   2  -1   9   -1.41    1.63
  -2   1  -9    4.17    1.31
   2  -1  10  226.97   14.15
  -2   1 -10  215.94    8.79
  -2   1 -11  284.60    7.84
  -2   1 -11  267.46    8.25
   2  -1  12   58.55    7.99
   2  -1  13  190.73   14.92
   2  -1  14  149.06   13.92
  -2   0  15   79.66   10.05
  -2   0  14  380.39   21.43
  -2   0  13   20.49    4.92
  -2   0  12  360.31   18.96
  -2   0  11  430.26   20.00
  -2   0  10   28.48    4.68
   2   0  -9  561.92   22.90
  -2   0   9  571.03   21.60
  -2   0   8  812.19   26.27
   2   0  -8  858.75   27.89
  -2   0   7    4.75    1.79
  -2   0   7    2.10    0.53
   2   0  -7    4.50    1.62
  -2   0   6 1943.82   39.96
  -2   0   6 1990.92   46.43
   2   0  -5  393.94   14.28
  -2   0   5  398.19   13.78
  -2   0   5  393.27   10.68
   2   0  -4   41.43    3.72
  -2   0   4   40.77    2.84
  -2   0   4   40.78    3.48
   2   0  -3   70.03    4.40
  -2   0   3   62.89    3.76
  -2   0   3   69.67    4.21
  -2   0   2  393.79   12.10
  -2   0   2  370.82   11.66
  -2   0   2  388.46   12.08
  -2   0   2  421.23   11.57
   2   0  -2  394.56   11.66
  -2   0   1  587.06   15.61
   2   0  -1  572.38   15.54
   2   0  -1  568.63   14.83
  -2   0   1  559.72   15.83
  -2   0   1  598.78   15.65
   2   0   0 2389.20   51.72
  -2   0   0 2561.71   51.94
   2   0   0 2439.07   51.74
  -2   0   0 2386.58   51.69
  -2   0  -1   68.72    4.19
   2   0   1   65.54    4.02
   2   0   2  391.64   12.05
  -2   0  -2  388.88   12.74
  -2   0  -3   42.57    3.65
   2   0   3   40.54    3.62
  -2   0  -4    4.32    1.26
   2   0   4    3.60    1.28
   2   0   5  448.68   15.41
  -2   0  -5  366.20   13.04
  -2   0  -6  445.99   14.88
   2   0   6  528.81   18.21
  -2   0  -7    4.97    1.26
   2   0   7    5.04    1.69
   2   0   8  533.11   20.69
  -2   0  -8  518.02   15.59
   2   0   9   89.00    8.43
  -2   0  -9  104.07    5.22
   2   0  10   23.20    4.38
  -2   0 -10   29.17    2.25
   2   0  11  253.59   15.58
   2   0  12   95.58    9.87
   2   0  13   72.56    8.99
   2   0  14  346.20   21.20
  -2  -1  14  204.28   15.84
  -2  -1  13  176.56   14.26
  -2  -1  12   82.40    9.34
  -2  -1  11  433.14   20.80
  -2  -1  10  184.26   12.32
  -2  -1   9    7.86    3.09
   2   1  -8  555.79   21.84
  -2  -1   8  526.01   20.45
   2   1  -7  228.58   12.35
  -2  -1   7  245.44   12.10
   2   1  -7  207.35    8.19
  -2  -1   6 1031.57   23.15
   2   1  -6  991.28   25.00
  -2  -1   6 1036.72   29.15
   2   1  -6 1094.28   30.38
  -2  -1   5 1080.59   24.63
   2   1  -5 1073.05   26.11
  -2  -1   5 1134.91   29.55
  -2  -1   4   89.66    4.39
   2   1  -4   95.28    6.23
   2   1  -4   94.05    4.94
  -2  -1   4   95.36    6.01
  -2  -1   3  136.99    5.77
   2   1  -3  142.65    7.17
  -2  -1   3  130.44    6.76
   2   1  -3  144.71    6.27
  -2  -1   2  673.29   17.19
  -2  -1   2  691.62   18.49
   2   1  -2  671.74   17.62
   2   1  -2  661.23   18.47
  -2  -1   1   12.65    1.59
   2   1  -1   16.41    2.09
   2   1  -1   16.18    1.97
  -2  -1   1   12.44    1.58
  -2  -1   1   15.30    1.84
  -2  -1   0  711.55   17.43
   2   1   0  685.14   17.03
  -2  -1   0  694.08   17.31
   2   1   0  691.29   17.02
   2   1   0  707.22   18.28
  -2  -1  -1  761.33   18.62
   2   1   1  755.59   18.44
   2   1   1  768.97   18.57
   2   1   1  742.41   19.49
   2   1   2   16.09    1.79
   2   1   2   17.93    2.16
  -2  -1  -2   16.00    2.01
   2   1   3  725.34   19.26
  -2  -1  -3  710.46   19.03
   2   1   4  748.19   20.24
  -2  -1  -4  771.53   19.98
   2   1   5   91.08    5.48
  -2  -1  -5   98.98    5.38
   2   1   6  426.99   16.42
  -2  -1  -6  426.73   13.06
  -2  -1  -7  145.71    6.55
   2   1   7  140.53    9.08
  -2  -1  -8  207.21    7.79
   2   1   8  184.82   11.34
   2   1   9  719.19   25.82
  -2  -1  -9  712.58   17.83
  -2  -1 -10  368.48   10.09
   2   1  10  355.98   17.68
   2   1  11  137.90   11.11
   2   1  12  326.51   18.37
   2   1  13    2.90    2.12
   2   1  14  171.16   14.24
   2   1  15  202.14   16.21
  -2  -2  13  286.63   18.78
  -2  -2  12   66.25    8.67
  -2  -2  11  261.94   16.51
  -2  -2  10  479.45   21.91
  -2  -2   9  114.60    9.61
   2   2  -9  108.44    5.70
   2   2  -8  443.00   13.90
  -2  -2   8  472.85   19.57
   2   2  -7  417.27   18.29
  -2  -2   7  415.57   17.47
   2   2  -7  419.60   13.25
   2   2  -6    3.91    1.62
  -2  -2   6    3.06    1.00
   2   2  -6    2.88    1.12
  -2  -2   6    4.48    2.15
  -2  -2   5  221.75    8.39
  -2  -2   5  241.70   11.35
   2   2  -5  233.71    8.83
  -2  -2   4  597.53   16.59
  -2  -2   4  610.40   19.61
   2   2  -4  635.71   17.11
  -2  -2   3   47.71    3.57
  -2  -2   3   55.79    4.76
   2   2  -3   56.84    3.90
  -2  -2   2 1521.38   34.21
  -2  -2   2 1526.71   36.17
   2   2  -2 1466.78   34.16
   2   2  -1  253.01    9.23
  -2  -2   1  258.11    9.32
  -2  -2   0   79.56    3.68
  -2  -2   0   78.71    3.70
  -2  -2   0   76.57    4.65
   2   2   0   81.40    4.77
   2   2   1   77.75    3.50
   2   2   1   79.29    3.55
  -2  -2  -1   80.85    3.72
   2   2   1   84.41    4.82
  -2  -2  -2  188.73    7.80
   2   2   2  175.97    6.06
   2   2   2  178.32    7.53
   2   2   3  221.55    7.51
   2   2   3  236.58    8.90
  -2  -2  -3  225.28    8.80
  -2  -2  -4 1201.88   28.89
   2   2   4 1213.74   29.05
  -2  -2  -5  308.51   10.81
   2   2   5  327.27   11.25
  -2  -2  -6  428.47   13.40
   2   2   6  456.30   14.09
   2   2   6  408.48   16.28
  -2  -2  -7   60.18    4.10
   2   2   7   65.57    4.70
   2   2   7   66.85    6.22
  -2  -2  -8    1.26    0.91
   2   2   8    0.57    0.73
   2   2   8    0.38    2.07
  -2  -2  -9  248.63    8.88
   2   2   9  270.07   14.24
   2   2  10  663.15   25.19
  -2  -2 -10  644.02   16.65
   2   2  11    0.70    2.09
   2   2  12  540.65   24.21
   2   2  13  107.76   10.55
   2   2  14   -1.20    2.91
   2   2  15  206.52   16.16
  -2  -3  13  107.78   11.66
  -2  -3  12  142.26   12.77
  -2  -3  11   11.96    3.82
   2   3 -10  232.32    9.59
  -2  -3  10  263.26   16.12
   2   3  -9  341.29   12.42
  -2  -3   9  356.28   18.31
   2   3  -8  202.11    9.00
  -2  -3   8  207.87   13.17
   2   3  -7  556.34   17.03
  -2  -3   7  571.84   22.25
   2   3  -6  181.78    8.48
   2   3  -6  199.78   11.82
  -2  -3   6  198.67   11.51
   2   3  -5   20.59    2.71
  -2  -3   5   19.38    2.48
  -2  -3   5   14.47    2.98
  -2  -3   4  379.27   13.12
   2   3  -4  396.20   13.27
  -2  -3   4  362.98   15.21
  -2  -3   3  221.67   10.85
   2   3  -3  206.07    9.06
  -2  -3   3  230.03    9.46
  -2  -3   2  710.35   20.53
  -2  -3   2  733.21   22.31
  -2  -3   1 1137.91   28.86
   2   3  -1 1178.45   29.05
   2   3   0   10.77    2.03
  -2  -3   0   12.36    2.03
  -2  -3   0    9.55    1.18
  -2  -3   0   11.33    1.28
   2   3   1  150.98    7.34
  -2  -3  -1  134.94    4.46
  -2  -3  -2  346.48   12.07
   2   3   2  321.94    8.06
   2   3   2  315.31    8.03
   2   3   2  351.80   12.12
   2   3   3   14.95    1.42
  -2  -3  -3   12.95    2.09
   2   3   3   13.66    2.11
  -2  -3  -4  753.94   21.13
   2   3   4  775.88   21.15
  -2  -3  -5  908.12   24.31
   2   3   5  936.80   24.37
  -2  -3  -6   53.84    4.33
   2   3   6   57.47    4.42
   2   3   7  595.26   21.81
   2   3   7  646.27   18.83
  -2  -3  -7  637.09   18.43
  -2  -3  -8  579.25   17.50
   2   3   8  590.82   22.10
   2   3   8  626.58   18.44
  -2  -3  -9    6.74    1.54
   2   3   9    6.13    1.76
  -2  -3 -10  572.95   16.62
   2   3  10  593.62   23.43
   2   3  10  587.88   18.18
   2   3  11   52.28    6.62
   2   3  12  120.55   10.71
   2   3  13  431.27   21.77
   2   3  14  167.02   13.62
   2   3  15   91.62   10.37
  -2  -4  12  146.46   13.66
  -2  -4  11  213.63   15.92
   2   4 -10   24.41    3.12
  -2  -4  10   22.75    4.96
  -2  -4   9  293.77   17.07
   2   4  -9  236.73   10.77
  -2  -4   8   34.15    5.62
   2   4  -8   31.80    3.72
  -2  -4   7  182.64   12.24
   2   4  -7  167.46    8.83
  -2  -4   6  415.62   18.51
   2   4  -6  394.43   14.68
   2   4  -5   44.90    5.46
  -2  -4   5   45.96    5.54
   2   4  -5   44.86    4.33
   2   4  -4  254.58   12.83
   2   4  -4  254.04   11.08
  -2  -4   4  234.38   12.69
   2   4  -3  337.87   13.30
  -2  -4   3  347.25   13.48
   2   4  -3  349.95   14.87
  -2  -4   3  367.37   15.53
   2   4  -2    7.05    1.95
   2   4  -2    6.83    1.77
  -2  -4   2    6.43    1.79
   2   4  -1   80.88    5.79
  -2  -4   1   68.50    5.46
   2   4  -1   71.05    5.71
   2   4   0  433.85   16.13
   2   4   0  486.40   16.24
   2   4   1    7.41    1.94
   2   4   2  630.23   19.66
   2   4   3  682.77   20.59
   2   4   4  109.93    6.86
   2   4   5   61.78    4.98
   2   4   6   94.30    6.27
   2   4   7  115.00    7.02
   2   4   8 1335.69   37.14
   2   4   8 1359.05   32.49
   2   4   9  236.93   13.52
  -2  -4  -9  240.28   10.53
   2   4   9  244.67   10.85
   2   4  10  444.19   15.50
   2   4  10  396.71   18.77
   2   4  11  170.05    8.83
   2   4  11  151.69   11.43
   2   4  12   12.32    2.28
   2   4  12    9.13    3.39
   2   4  13  196.15   14.03
   2   4  14  357.79   20.35
   2   4  15    1.28    2.64
  -2  -5  11  223.53   17.03
  -2  -5  10   -1.51    2.71
  -2  -5   9  144.85   12.56
   2   5  -9  129.16    8.28
  -2  -5   8  149.22   12.33
   2   5  -8  155.54    9.16
  -2  -5   7   45.56    6.45
   2   5  -7   44.48    4.81
   2   5  -6  191.19   10.32
  -2  -5   6  192.27   12.94
  -2  -5   5  287.37   15.38
   2   5  -5  223.04   11.60
   2   5  -4  165.60   10.77
  -2  -5   4  176.54   11.55
   2   5  -4  178.30    9.91
   2   5  -3  540.79   19.29
   2   5  -3  553.52   20.66
   2   5  -2   85.06    6.64
  -2  -5   2   67.90    5.92
   2   5  -2   79.91    6.63
   2   5  -1    2.92    1.57
  -2  -5   1    2.68    1.43
   2   5  -1    4.87    1.76
  -2  -5   0  134.10    8.53
   2   5   0  132.11    8.38
   2   5   0  128.02    8.13
   2   5   1  213.03   10.65
   2   5   1  189.25   10.19
   2   5   2  650.69   21.38
   2   5   3 1353.86   35.88
  -2  -5  -3 1340.59   35.99
   2   5   4   14.08    2.76
  -2  -5  -4   15.82    2.90
   2   5   5  162.39    9.15
  -2  -5  -5  141.49    8.78
  -2  -5  -6  377.00   15.16
   2   5   6  372.68   15.03
   2   5   7  102.07    7.09
  -2  -5  -7   94.54    6.95
  -2  -5  -8  643.56   21.15
   2   5   8  628.70   23.67
   2   5   8  649.24   20.98
   2   5   9  390.70   17.96
   2   5   9  382.61   15.18
   2   5  10   12.69    2.68
   2   5  10   17.57    3.78
   2   5  11  465.57   21.20
   2   5  11  486.40   17.56
   2   5  12  335.00   13.97
   2   5  12  313.43   17.67
   2   5  13    8.88    3.52
   2   5  14  280.07   17.69
   2   5  15   51.25    7.47
  -2  -6  10   40.73    7.72
   2   6  -9   40.82    4.95
  -2  -6   9   46.13    7.86
  -2  -6   8  160.67   13.51
   2   6  -8  143.83    9.59
  -2  -6   7  131.64   11.75
   2   6  -7  116.99    8.69
   2   6  -6    3.65    1.93
  -2  -6   6    2.17    2.28
   2   6  -5  243.47   12.81
  -2  -6   5  241.35   15.13
   2   6  -4   59.15    6.03
   2   6  -3  102.24    8.75
   2   6  -3  130.80    9.04
   2   6  -2  406.52   17.04
   2   6  -2  382.01   16.89
   2   6  -1   49.14    5.52
   2   6  -1   46.47    5.34
  -2  -6   0   56.11    3.34
   2   6   0   66.18    6.36
   2   6   0   59.35    5.88
   2   6   1  523.71   19.88
   2   6   1  497.13   18.89
  -2  -6  -1  518.59   19.93
  -2  -6  -2   -0.21    1.34
   2   6   2    0.15    1.30
  -2  -6  -3  150.98    9.74
   2   6   3  151.12    9.63
   2   6   4  301.19   14.13
  -2  -6  -4  294.29   14.15
   2   6   5    5.56    2.18
  -2  -6  -5    9.74    2.56
   2   6   6 1012.60   29.74
   2   6   6  956.78   22.09
   2   6   6  957.09   22.03
   2   6   7  608.51   21.63
   2   6   8  105.27    7.87
   2   6   9  217.93   11.49
   2   6   9  205.72   13.00
   2   6  10  115.28    9.80
   2   6  10  122.63    8.55
   2   6  11   97.84    9.25
   2   6  11  108.58    7.98
   2   6  12  653.77   22.24
   2   6  12  581.77   25.46
   2   6  13   94.91    9.69
   2   6  14  166.13   13.40
   2   6  15  147.40   13.07
  -2  -7   9   32.46    6.88
   2   7  -8   59.64    6.68
  -2  -7   8   79.90   10.21
  -2  -7   7  135.10   12.82
   2   7  -7  123.47    9.78
   2   7  -6    2.46    2.15
  -2  -7   6   -0.76    3.08
   2   7  -5   95.22    8.53
   2   7  -4  105.22    8.80
   2   7  -3   11.75    3.02
   2   7  -2   67.56    6.96
   2   7  -1  244.95   13.65
   2   7  -1  249.73   13.23
   2   7   0  135.97    9.33
   2   7   0  129.10    9.61
  -2  -7   0  118.13    5.34
   2   7   1  692.56   24.83
   2   7   1  633.88   22.93
   2   7   2  114.27    9.00
   2   7   2  118.78    8.54
   2   7   3    3.92    1.87
   2   7   4  156.68   10.71
   2   7   5  292.80   14.96
   2   7   6  409.78   18.14
   2   7   7  674.69   16.92
   2   7   7  682.85   16.90
   2   7   8   37.07    3.42
   2   7   8   41.58    3.59
   2   7   8   30.87    4.70
   2   7   9  187.71   12.59
   2   7   9  202.29   11.94
   2   7  10  270.61   15.59
   2   7  10  278.72   14.30
   2   7  11   30.40    4.75
   2   7  11   32.25    5.50
   2   7  12  259.35   13.73
   2   7  12  241.76   15.44
   2   7  13  256.13   16.32
   2   7  14   11.44    3.95
   2   7  15  168.33   13.97
   2   8  -8    8.47    3.27
   2   8  -7   99.94    9.40
   2   8  -6   63.93    7.44
   2   8  -5   28.31    4.91
   2   8  -4  143.74   11.33
   2   8  -3   98.93    9.10
   2   8  -2   13.19    3.46
  -2  -8   2   12.73    2.62
   2   8  -1  244.03   14.60
  -2  -8   1  215.84    9.79
  -2  -8   0   32.52    2.27
  -2  -8   0   35.09    2.28
   2   8   1  157.85   11.59
   2   8   2  313.97   16.62
   2   8   2  296.62   14.97
   2   8   3   34.71    4.88
   2   8   3   33.97    5.49
   2   8   4  234.55   14.09
   2   8   5  494.07   21.53
   2   8   6   -1.55    2.00
   2   8   7  212.42   13.45
   2   8   8  264.88   14.95
   2   8   9   19.75    4.21
   2   8  10  427.37   20.80
   2   8  10  427.01   19.51
   2   8  11  213.22   14.42
   2   8  11  249.24   14.29
   2   8  12   37.00    5.73
   2   8  12   32.38    5.76
   2   8  13  173.31   13.33
   2   8  14    6.87    3.13
   2   9  -7    0.30    2.38
   2   9  -6   62.31    7.87
   2   9  -5    7.77    3.37
   2   9  -4   39.19    6.33
   2   9  -3  140.96   11.78
   2   9  -2    1.30    2.30
   2   9  -1  134.00   11.51
   2   9   0  147.28   12.10
   2   9   1   26.41    5.02
   2   9   2   67.55    7.97
   2   9   3  290.56   17.02
   2   9   4   77.16    8.61
   2   9   5  422.77   20.78
   2   9   6  182.33   13.21
   2   9   7   24.65    4.74
   2   9   8  188.60   13.30
   2   9   9  109.87   10.16
   2   9  10  124.51   10.65
   2   9  10  125.67   11.02
   2   9  11  458.09   22.44
   2   9  11  457.84   21.50
   2   9  12   16.89    4.14
   2   9  12   23.50    4.89
   2   9  13   88.17    9.49
   2  10  -6   26.62    5.95
   2  10  -5   75.14    9.33
   2  10  -4   30.40    5.86
   2  10  -3   93.39   10.15
   2  10  -2   36.25    6.54
   2  10  -1   48.99    7.40
   2  10   0  162.95   13.44
   2  10   1   96.39   10.35
   2  10   2    5.59    2.99
   2  10   3  227.09   15.90
   2  10   4   50.84    7.44
   2  10   5  123.14   11.45
   2  10   6  311.55   18.72
   2  10   7   12.83    4.42
   2  10   8  112.34   10.96
   2  10   9  243.54   16.28
   2  10  10   10.84    4.00
   2  10  10    8.21    3.39
   2  10  11  129.94   11.52
   2  10  12   47.80    7.07
   2  11   2    4.51    3.34
   2  11   3   93.89   10.59
   2  11   4  198.36   15.72
   2  11   5   -1.82    2.98
   2  11   6   87.77   10.25
   2  11   7  146.99   13.27
   2  11   8   15.25    4.82
   2  11   9  311.58   19.85
  -3  10  11   28.84    5.59
  -3  10  10   24.47    5.33
  -3  10   9   54.21    7.79
  -3  10   8    4.84    2.83
  -3  10   7   36.34    6.46
  -3  10   6  164.95   13.51
  -3  10   5   30.51    5.84
  -3  10   4   76.49    9.09
  -3  10   3   84.57    9.58
   3 -10  -2    8.43    3.00
  -3  10   2    8.76    3.54
   3 -10  -1   77.63    9.24
  -3  10   1   84.68    9.88
   3 -10   0  156.75   13.86
  -3  10   0  169.58   14.08
  -3  10  -1    5.61    2.61
   3 -10   1    0.10    2.28
  -3  10  -2  121.23   11.92
   3 -10   2  130.80   13.61
  -3  10  -3   95.08   10.53
   3 -10   3   86.63   11.13
   3 -10   4   29.48    7.25
  -3   9  11  223.15   14.55
  -3   9  10    5.74    2.21
  -3   9  10    3.80    1.95
  -3   9   9   63.46    7.77
  -3   9   9   42.83    6.38
  -3   9   8   58.15    7.19
  -3   9   8   52.47    7.10
  -3   9   7    1.83    1.44
  -3   9   7    4.17    2.33
  -3   9   6  107.82    9.19
  -3   9   6  100.52    9.74
  -3   9   5  313.95   15.90
  -3   9   5  269.57   16.69
  -3   9   4    0.60    1.49
  -3   9   4   -0.42    1.90
   3  -9  -3  190.61   13.02
  -3   9   3  185.17   13.55
   3  -9  -3  184.52   12.85
   3  -9  -2  116.48   10.42
   3  -9  -2  111.29   10.28
   3  -9  -1   27.28    5.37
   3  -9   0  207.36   15.53
   3  -9   1   74.42    9.64
  -3   9  -1  102.30   10.10
   3  -9   2   29.95    5.80
  -3   9  -2   36.74    6.65
   3  -9   3  246.25   18.09
  -3   9  -3  254.78   16.79
   3  -9   4   69.45    9.71
   3  -9   4   65.98    8.23
  -3   9  -4   56.75    7.93
   3  -9   5   38.13    6.43
  -3   9  -5   36.76    6.22
  -3   9  -6  146.26   12.83
   3  -9   6  143.33   13.28
  -3   9  -7    1.62    2.40
   3  -9   7    0.99    2.91
  -3   8  13   58.57    8.36
  -3   8  12    3.11    1.97
  -3   8  11  119.21    9.73
  -3   8  11  137.94   12.14
  -3   8  10   80.18    8.15
  -3   8  10   91.79    9.46
  -3   8   9    5.44    2.60
  -3   8   9    0.39    1.47
  -3   8   8  156.09   11.70
  -3   8   8  137.38   10.76
  -3   8   7  130.13   10.34
  -3   8   7  118.71    9.90
  -3   8   7  106.42    9.43
  -3   8   6   43.99    5.73
  -3   8   5  227.98   13.33
  -3   8   4   20.59    3.79
  -3   8   3   75.60    7.19
   3  -8  -3   66.49    7.18
   3  -8  -3   74.99    7.82
   3  -8  -2  445.74   21.11
   3  -8  -2  452.60   21.18
  -3   8   1  146.59    6.15
   3  -8  -1  155.29   12.31
   3  -8  -1  139.28   11.62
   3  -8   0  174.97   13.53
   3  -8   0  170.10   13.25
  -3   8   0  173.11    7.88
   3  -8   1  293.13   18.16
  -3   8  -1  310.05   12.44
   3  -8   1  323.01   19.09
   3  -8   2    9.40    3.59
  -3   8  -2    4.27    1.80
   3  -8   3  187.61   14.62
   3  -8   3  184.90   12.47
   3  -8   4  288.61   16.69
  -3   8  -5   27.93    5.42
   3  -8   5   19.77    4.64
  -3   8  -6  160.26   12.72
   3  -8   6  208.15   15.05
  -3   8  -7  137.91   11.64
   3  -8   7  149.62   13.36
  -3   8  -8   15.09    4.27
   3  -8   8   25.08    5.98
   3  -8   9  124.45   13.21
  -3   7  15   71.25    9.91
  -3   7  14    7.11    3.93
  -3   7  13  219.07   16.11
  -3   7  12   36.48    6.22
  -3   7  11   22.62    4.68
  -3   7  11   28.04    4.23
  -3   7  10   69.97    6.99
  -3   7  10   70.30    8.05
  -3   7   9   20.31    3.98
  -3   7   9   23.45    4.56
  -3   7   9   27.64    2.65
  -3   7   8   71.31    3.46
  -3   7   8   75.97    7.94
  -3   7   8   56.09    6.21
  -3   7   8   62.27    7.35
  -3   7   7  743.16   27.31
  -3   7   7  737.25   27.56
  -3   7   6   39.73    5.45
  -3   7   6   38.73    5.32
  -3   7   5  189.16   11.74
  -3   7   5  183.12   11.72
  -3   7   4  191.05   11.56
   3  -7  -4  176.59   11.46
   3  -7  -3    1.38    1.52
  -3   7   3   -0.38    1.46
   3  -7  -3   -1.70    2.04
   3  -7  -2  259.21   14.91
   3  -7  -2  270.38   15.37
  -3   7   1  775.83   18.44
   3  -7  -1  775.58   29.25
   3  -7  -1  762.49   28.84
   3  -7   0    6.15    2.45
   3  -7   0    3.51    1.87
  -3   7   0    5.76    1.38
   3  -7   1  525.42   24.05
  -3   7  -1  570.92   17.35
   3  -7   1  551.38   24.51
   3  -7   2  250.71   15.64
  -3   7  -2  252.24   11.22
   3  -7   2  234.50   15.22
   3  -7   2  224.73   12.26
   3  -7   3   21.80    3.97
  -3   7  -3   21.03    3.34
   3  -7   4  352.76   17.15
  -3   7  -4  321.12   15.30
   3  -7   5   92.19    8.86
   3  -7   6   38.07    6.03
  -3   7  -7  269.39   15.69
   3  -7   7  296.15   17.90
  -3   7  -8   40.11    5.96
   3  -7   8   53.77    7.64
  -3   7  -9   37.50    5.78
   3  -7   9   53.59    8.54
   3  -7  10  114.30   12.43
  -3   6  15   75.28   10.03
  -3   6  14   12.38    3.80
  -3   6  13  135.01   12.25
  -3   6  12  236.61   12.18
  -3   6  12  243.62   16.12
  -3   6  11    2.74    1.42
  -3   6  11    5.53    3.02
  -3   6  11    4.74    1.87
  -3   6  10   38.25    3.87
  -3   6  10   31.15    4.19
  -3   6  10   42.63    6.20
  -3   6   9  182.24    8.17
  -3   6   9  166.39   11.82
  -3   6   9  152.75    9.77
  -3   6   8    0.78    0.78
  -3   6   8    1.94    1.81
  -3   6   8    0.24    1.64
  -3   6   7  404.98   10.74
  -3   6   7  404.57   18.35
  -3   6   7  381.74   18.04
  -3   6   6  346.57   16.74
  -3   6   6  351.67   16.69
  -3   6   5   10.63    2.85
  -3   6   5    8.15    2.42
  -3   6   4  596.63   22.14
  -3   6   4  560.54   21.55
   3  -6  -4  600.89   22.18
  -3   6   3  454.77   18.47
   3  -6  -3  452.78   19.13
   3  -6  -2   56.23    6.20
  -3   6   2   60.25    6.01
   3  -6  -1  746.69   27.57
  -3   6   1  753.82   17.14
  -3   6   1  815.22   25.82
   3  -6  -1  738.55   27.30
  -3   6   0   95.83    4.93
   3  -6   0   95.03    8.71
   3  -6   0   84.80    8.48
  -3   6  -1  176.85    7.95
   3  -6   1  176.93   12.07
   3  -6   1  163.44   11.73
   3  -6   1  179.23    9.04
   3  -6   2  913.38   32.32
  -3   6  -2  978.89   26.49
   3  -6   2  984.98   28.01
   3  -6   3  305.36   16.58
  -3   6  -3  316.15   13.40
   3  -6   3  299.13   13.96
   3  -6   4  255.80   13.40
  -3   6  -4  247.80   12.52
   3  -6   5  479.51   20.59
  -3   6  -5  506.31   20.20
   3  -6   6    1.29    1.56
   3  -6   7  229.62   15.08
   3  -6   8  184.52   14.05
  -3   6  -9   20.69    3.86
   3  -6   9   18.56    5.02
   3  -6  10  139.41   13.19
  -3   6 -10  120.71    9.64
   3  -6  11   85.58   11.22
  -3   5  15   79.34   10.32
  -3   5  14   82.01    9.90
  -3   5  14   78.01    7.93
  -3   5  13    4.58    2.08
  -3   5  13   10.33    3.85
  -3   5  12  112.17    8.51
  -3   5  12  100.07   10.06
  -3   5  11  124.26    8.40
  -3   5  11  123.34    7.40
  -3   5  11  136.43   11.31
  -3   5  10    0.54    1.06
  -3   5  10    2.67    1.23
  -3   5  10    1.02    1.86
  -3   5   9  715.13   21.03
  -3   5   9  720.71   26.65
  -3   5   8  198.58    8.43
  -3   5   8  194.33   12.14
  -3   5   8  189.75   12.05
  -3   5   7   73.26    7.08
  -3   5   7   77.67    4.39
  -3   5   7   77.64    7.24
  -3   5   6  262.51   13.67
  -3   5   6  258.60   13.53
  -3   5   6  267.06    7.76
  -3   5   5  137.41    9.42
  -3   5   5  128.40    9.05
  -3   5   4  152.56    9.76
  -3   5   4  140.23    9.45
  -3   5   3 2090.16   52.21
  -3   5   3 2102.13   52.48
  -3   5   2  303.12   14.06
  -3   5   1  635.09   22.03
  -3   5   0  499.69   18.77
  -3   5   0  492.86   13.14
   3  -5   0  484.86   13.86
   3  -5   1   23.16    4.05
  -3   5  -1   17.86    2.29
   3  -5   1   18.08    3.61
   3  -5   1   23.10    2.69
  -3   5  -2  435.17   14.75
   3  -5   2  466.60   19.53
   3  -5   2  446.37   15.48
   3  -5   3  941.67   27.54
  -3   5  -3  956.68   26.90
   3  -5   3  971.81   31.59
   3  -5   4   18.19    3.26
   3  -5   4   19.79    4.01
  -3   5  -4   25.57    3.68
  -3   5  -5  727.44   24.75
   3  -5   5  726.29   25.23
   3  -5   6  205.41   12.82
  -3   5  -6  237.81   13.34
   3  -5   7   32.83    5.47
   3  -5   8  258.78   16.02
   3  -5   9   78.71    9.10
   3  -5  10   39.26    7.03
  -3   5 -10   36.27    4.84
   3  -5  11  154.20   14.09
  -3   4  16   86.52    9.49
  -3   4  15   38.17    6.30
  -3   4  14  228.73   14.26
  -3   4  13   30.16    4.97
  -3   4  12    5.28    2.18
  -3   4  11  155.54    7.25
  -3   4  11  159.50   10.05
  -3   4  11  156.82   12.04
  -3   4  10   80.82    5.44
   3  -4 -10   95.57    8.38
  -3   4  10   93.73    8.81
  -3   4  10   94.20    7.01
  -3   4   9  348.50   13.71
  -3   4   9  339.05   16.90
  -3   4   8  867.36   28.65
  -3   4   8  830.51   28.08
  -3   4   8  840.63   23.25
  -3   4   7   29.53    2.94
  -3   4   7   23.93    3.90
  -3   4   7   27.13    4.17
  -3   4   6  227.24   12.03
  -3   4   6  231.50   12.20
  -3   4   6  223.00    7.90
  -3   4   5  604.95   20.96
  -3   4   5  556.33   13.46
  -3   4   5  571.72   20.35
  -3   4   4   39.46    4.81
  -3   4   4   44.18    4.94
  -3   4   3 1277.15   34.89
  -3   4   3 1252.53   34.96
  -3   4   2 1063.99   30.44
  -3   4   2 1047.08   30.47
  -3   4   1   22.68    3.45
   3  -4   0 1529.36   32.97
  -3   4   0 1586.55   40.58
   3  -4   1  956.35   23.38
  -3   4  -1  912.64   22.91
   3  -4   2   79.53    5.30
  -3   4  -2   89.40    5.44
   3  -4   3 1118.12   29.94
   3  -4   3 1142.96   33.92
  -3   4  -3 1127.42   29.69
   3  -4   4  195.58   11.96
  -3   4  -4  199.28   10.35
   3  -4   4  208.24   10.71
   3  -4   5  236.83   12.42
   3  -4   5  244.83   13.86
  -3   4  -5  244.96   12.49
   3  -4   6  711.86   25.29
  -3   4  -6  728.07   25.36
   3  -4   7  278.93   15.21
   3  -4   8  164.13   12.09
   3  -4   9  289.42   17.18
   3  -4  10    1.89    2.21
   3  -4  11  152.27   13.57
   3  -4  12   79.30   10.17
  -3   3  16   79.89    9.18
  -3   3  15    4.01    2.63
  -3   3  14   91.21    9.31
  -3   3  13  180.54   12.42
  -3   3  12   44.26    5.81
   3  -3 -11  234.84   14.95
  -3   3  11  215.23    7.09
  -3   3  11  214.43    7.65
   3  -3 -10  318.84   16.49
  -3   3  10  301.88   11.29
  -3   3  10  304.96   14.12
  -3   3   9    1.83    1.68
   3  -3  -9    3.34    2.11
  -3   3   8  401.30   14.63
  -3   3   8  395.58   17.60
  -3   3   7  510.16   16.07
   3  -3  -7  511.28   17.55
  -3   3   7  515.14   19.79
  -3   3   7  544.82   20.24
  -3   3   6    2.12    1.37
  -3   3   6   -0.31    0.64
  -3   3   6    0.86    0.98
   3  -3  -6    2.10    1.06
  -3   3   5 2209.56   52.62
  -3   3   5 2198.20   45.65
  -3   3   5 2105.05   52.08
   3  -3  -5 2149.35   46.61
  -3   3   4 1081.65   29.81
   3  -3  -4 1053.25   23.09
  -3   3   4  990.54   28.93
  -3   3   4 1002.69   22.40
  -3   3   3  195.50   10.35
  -3   3   3  190.54   10.13
   3  -3  -3  199.71   10.33
  -3   3   2  849.08   25.53
  -3   3   2  890.53   25.73
   3  -3  -2  839.29   25.56
   3  -3  -2  800.27   25.29
   3  -3  -1  418.73   16.78
  -3   3   1  420.54   15.98
   3  -3  -1  449.58   17.01
  -3   3   1  419.02   16.02
  -3   3   0  262.45   12.06
   3  -3   0  267.49   12.67
   3  -3   0  269.24   12.62
   3  -3   0  252.70    7.56
  -3   3  -1 2856.08   65.36
   3  -3   1 2852.78   66.38
   3  -3   1 2866.76   66.36
   3  -3   1 2918.64   59.72
   3  -3   2  682.03   18.93
  -3   3  -2  682.51   18.90
  -3   3  -3  999.80   26.50
   3  -3   3  976.41   26.42
   3  -3   4  466.16   18.75
   3  -3   4  480.03   17.10
  -3   3  -4  517.24   17.50
  -3   3  -5    2.74    1.30
   3  -3   5    1.33    1.36
   3  -3   5    2.12    1.26
   3  -3   6  289.10   15.18
  -3   3  -6  305.64   14.53
   3  -3   6  303.69   14.48
  -3   3  -7  682.45   24.95
   3  -3   7  648.44   24.36
   3  -3   8    5.13    2.10
   3  -3   9  396.63   19.84
   3  -3  10  112.03   10.57
   3  -3  11   49.32    7.60
   3  -3  12   85.79   10.58
   3  -3  13   48.87    8.43
  -3   2  15   57.21    8.08
  -3   2  14   26.18    5.30
  -3   2  13  119.67   10.47
  -3   2  12  212.06   13.34
  -3   2  11   86.96    7.82
  -3   2  10  704.71   24.06
   3  -2 -10  679.61   26.26
  -3   2  10  665.01   15.93
  -3   2   9  132.92    6.31
  -3   2   9  149.55    9.16
   3  -2  -9  142.16   10.01
  -3   2   8   10.98    2.49
  -3   2   8    5.74    1.37
   3  -2  -8    8.69    2.37
  -3   2   7  410.29   14.67
   3  -2  -7  403.03   15.60
  -3   2   6  463.09   17.62
  -3   2   6  483.38   17.91
   3  -2  -6  461.58   15.79
  -3   2   6  439.39   14.64
  -3   2   5  973.74   28.02
  -3   2   5  953.03   27.78
   3  -2  -5  948.63   24.78
  -3   2   5  984.39   23.96
  -3   2   4 2629.20   59.07
   3  -2  -4 2550.57   54.21
  -3   2   4 2605.72   58.91
  -3   2   4 2571.32   53.41
   3  -2  -3   99.35    4.46
  -3   2   3   96.74    6.59
  -3   2   3   91.05    6.44
   3  -2  -2  884.03   25.86
  -3   2   2  922.56   25.92
  -3   2   2  895.17   25.65
   3  -2  -2  852.71   25.46
   3  -2  -2  900.01   19.92
   3  -2  -1 1148.47   31.50
   3  -2  -1 1171.54   31.47
  -3   2   1 1165.45   31.15
  -3   2   1 1154.40   31.04
   3  -2   0  150.54    5.66
  -3   2   0  139.25    8.07
   3  -2   0  127.38    8.13
   3  -2   0  120.57    7.82
   3  -2   1 1856.63   40.09
  -3   2  -1 1795.82   44.33
  -3   2  -2 1796.39   43.99
   3  -2   2 1801.94   40.62
   3  -2   3   66.33    5.01
   3  -2   4 1192.55   31.62
  -3   2  -5  729.37   23.41
   3  -2   5  711.94   22.92
  -3   2  -6   48.16    5.37
   3  -2   6   38.80    5.06
  -3   2  -7  615.27   23.01
   3  -2   7  580.04   22.31
   3  -2   8  114.24    9.43
   3  -2   9  179.42   12.12
  -3   2  -9   39.99    5.18
   3  -2  10  257.63   15.98
  -3   2 -10  257.33   13.32
   3  -2  11   95.26   10.19
   3  -2  12   46.63    7.50
   3  -2  13  152.63   14.20
  -3   1  15  115.00   11.60
  -3   1  14  109.72   10.76
  -3   1  13   14.75    4.43
  -3   1  12  259.95   15.59
  -3   1  11   45.40    5.85
  -3   1  10  355.82   16.65
  -3   1   9  611.66   14.80
  -3   1   9  651.11   22.51
   3  -1  -9  645.05   24.39
   3  -1  -8  129.32    9.15
  -3   1   8  116.60    5.42
  -3   1   8  124.11    8.24
  -3   1   7  632.87   20.38
  -3   1   7  623.17   17.30
   3  -1  -6 1277.88   33.71
  -3   1   6 1230.35   30.69
  -3   1   6 1315.30   32.40
  -3   1   5   13.49    2.29
   3  -1  -5   14.19    2.30
  -3   1   5   14.47    2.17
  -3   1   4 1132.65   30.05
  -3   1   4 1136.94   30.09
   3  -1  -4 1094.17   27.81
  -3   1   4 1146.24   28.86
  -3   1   4 1102.55   27.02
  -3   1   3 1417.02   35.43
  -3   1   3 1384.55   35.30
  -3   1   3 1436.32   32.07
   3  -1  -3 1452.10   32.82
  -3   1   2    3.23    1.25
  -3   1   2    4.61    1.35
   3  -1  -2    5.33    1.18
  -3   1   1 3387.47   71.78
  -3   1   1 3245.51   71.62
  -3   1   0 2137.06   49.23
  -3   1   0 2128.23   49.27
  -3   1  -1  451.01   15.68
   3  -1   2  903.20   23.91
  -3   1  -2  924.00   25.59
   3  -1   3  160.84    8.18
   3  -1   4  156.89    8.61
   3  -1   5 1778.19   44.31
  -3   1  -6  356.54   14.86
   3  -1   6  335.04   15.11
  -3   1  -7  492.03   18.60
   3  -1   7  498.80   19.82
   3  -1   8  268.99   14.76
  -3   1  -8  297.25   13.71
   3  -1   9   33.93    5.35
  -3   1  -9   35.59    4.44
   3  -1  10  106.38    9.70
  -3   1 -10   71.78    6.14
   3  -1  11  254.58   16.27
  -3   1 -11  235.92   10.87
   3  -1  12    3.26    3.50
   3  -1  13  182.72   15.15
   3  -1  14   45.02    8.04
  -3   0  14  170.64   14.02
  -3   0  13    1.14    2.59
  -3   0  12  246.75   15.50
  -3   0  11  193.71   13.15
  -3   0  10   25.36    4.73
  -3   0   9  238.58    6.75
   3   0  -9  256.95   14.83
  -3   0   9  247.04   13.25
   3   0  -8  653.24   24.38
  -3   0   8  663.45   16.48
  -3   0   8  709.34   23.58
   3   0  -7  198.60   11.32
  -3   0   7  201.56   10.72
  -3   0   7  195.14    7.35
  -3   0   6 1838.34   45.15
  -3   0   6 1893.22   41.15
   3   0  -5  466.93   16.81
  -3   0   5  489.66   16.25
  -3   0   5  471.84   14.50
   3   0  -4  104.81    6.53
  -3   0   4  108.48    6.30
  -3   0   4  100.54    5.80
  -3   0   3  847.69   23.81
  -3   0   3  859.42   22.54
  -3   0   3  851.76   23.24
  -3   0   3  897.28   24.18
   3   0  -3  883.94   23.40
  -3   0   2 1041.90   26.82
  -3   0   2 1053.65   26.96
  -3   0   2 1011.51   26.83
   3   0  -2 1025.38   25.91
  -3   0   1 1294.16   32.01
  -3   0   1 1302.25   31.92
   3   0  -1 1314.32   32.02
  -3   0   1 1262.84   32.22
   3   0  -1 1276.14   31.87
   3   0   0 4470.54   92.89
  -3   0   0 4386.77   92.64
   3   0   0 4521.27   92.82
  -3   0   0 4493.32   92.83
   3   0   1   62.99    4.86
  -3   0  -1   64.58    4.87
   3   0   1   69.18    5.03
  -3   0  -2  920.38   24.41
   3   0   2  850.60   23.67
  -3   0  -2  881.86   25.07
   3   0   3  731.95   21.14
  -3   0  -3  727.63   22.18
   3   0   4   68.43    5.68
  -3   0  -4   70.48    5.68
   3   0   4   74.49    5.51
   3   0   5  666.81   21.65
  -3   0  -5  609.00   20.29
  -3   0  -6  873.52   26.85
   3   0   6 1050.29   29.75
  -3   0  -7   71.04    5.89
   3   0   7   81.63    7.25
   3   0   8  436.45   18.96
  -3   0  -8  398.04   15.44
   3   0   9  229.05   13.84
  -3   0  -9  219.76   10.46
   3   0  10    7.32    2.65
  -3   0 -10    7.92    1.88
   3   0  11  238.38   15.38
  -3   0 -11  218.74    9.22
   3   0  12   47.14    7.08
   3   0  13   55.67    8.31
   3   0  14  120.85   12.58
  -3  -1  14  145.58   13.50
  -3  -1  13  100.75   10.67
  -3  -1  12  128.24   11.46
  -3  -1  11  369.95   19.29
  -3  -1  10  265.73   15.31
  -3  -1   9   28.75    4.64
  -3  -1   8  774.03   19.48
   3   1  -8  859.40   29.32
  -3  -1   8  839.32   27.45
   3   1  -7  241.39   13.26
  -3  -1   7  244.65    8.74
  -3  -1   7  274.09   13.22
  -3  -1   6  729.15   19.10
   3   1  -6  732.20   24.63
   3   1  -6  691.66   21.53
  -3  -1   6  752.13   23.59
   3   1  -5 1695.41   40.63
  -3  -1   5 1618.24   37.64
  -3  -1   5 1737.81   41.77
   3   1  -4  142.34    8.34
  -3  -1   4  156.25    8.32
   3   1  -4  151.07    8.09
  -3  -1   4  150.40    7.09
  -3  -1   3  879.47   23.83
   3   1  -3  859.34   23.98
  -3  -1   3  834.01   22.51
   3   1  -3  867.80   24.50
  -3  -1   2 2327.05   51.70
  -3  -1   2 2339.91   51.72
   3   1  -2 2361.97   52.98
   3   1  -2 2411.94   52.92
  -3  -1   2 2320.67   51.72
  -3  -1   1   11.78    1.94
   3   1  -1   14.72    2.56
  -3  -1   1   11.74    1.95
  -3  -1   1   12.92    2.12
   3   1   0 1263.38   30.99
  -3  -1   0 1306.69   31.27
   3   1   0 1228.40   30.72
   3   1   0 1337.53   32.79
  -3  -1   0 1329.78   31.55
  -3  -1  -1  977.57   25.61
   3   1   1 1022.60   25.89
   3   1   1 1015.34   25.71
   3   1   1 1016.29   27.15
   3   1   2   14.76    2.18
   3   1   2   12.03    2.38
  -3  -1  -2   11.04    2.25
  -3  -1  -2   14.35    2.17
   3   1   2   12.25    1.91
   3   1   3 1931.72   43.91
   3   1   3 1993.15   45.99
  -3  -1  -3 1899.45   45.32
   3   1   4 1102.63   28.63
   3   1   4 1158.86   30.36
  -3  -1  -4 1114.19   29.65
   3   1   5  173.94    9.99
   3   1   5  168.19    9.01
  -3  -1  -5  168.14    8.80
   3   1   6  437.20   17.59
  -3  -1  -6  417.94   15.15
  -3  -1  -7   10.91    2.16
   3   1   7    8.63    2.63
   3   1   8   36.72    5.10
  -3  -1  -8   34.01    3.72
   3   1   9  588.85   23.47
  -3  -1  -9  548.39   17.52
  -3  -1 -10  122.84    6.76
   3   1  10  131.23   10.76
  -3  -1 -11  172.61    7.67
   3   1  11  188.05   13.37
   3   1  12  122.57   11.30
   3   1  13    8.37    3.74
   3   1  14   67.24    9.16
  -3  -2  13  166.73   14.27
  -3  -2  12   51.54    7.64
  -3  -2  11  104.41   10.24
  -3  -2  10  489.15   22.49
  -3  -2   9    5.89    2.62
  -3  -2   8  476.18   14.26
   3   2  -8  500.87   17.02
  -3  -2   8  488.21   20.66
   3   2  -7  631.60   24.26
  -3  -2   7  601.29   17.41
  -3  -2   7  635.01   23.21
   3   2  -7  649.03   19.89
   3   2  -6   12.65    2.24
   3   2  -6    8.94    2.56
  -3  -2   6   14.33    2.13
  -3  -2   6   14.28    3.16
   3   2  -5  575.15   20.71
  -3  -2   5  528.17   16.18
  -3  -2   5  517.87   19.37
   3   2  -5  554.38   17.53
  -3  -2   4 1217.78   30.63
   3   2  -4 1218.20   31.54
  -3  -2   3  228.04    9.49
  -3  -2   3  223.29   10.70
   3   2  -3  224.68    9.87
  -3  -2   2 3269.66   69.52
  -3  -2   2 3208.72   68.58
  -3  -2   2 3292.74   68.76
   3   2  -2 3233.80   69.84
  -3  -2   1  550.19   16.10
  -3  -2   1  537.95   17.13
  -3  -2   1  587.84   16.35
   3   2  -1  592.33   17.91
   3   2   0   99.74    5.19
  -3  -2   0  102.18    5.58
  -3  -2   0  102.83    5.53
   3   2   0  102.40    6.27
  -3  -2   0  105.70    6.29
   3   2   1  560.48   15.51
  -3  -2  -1  525.99   15.66
  -3  -2  -1  542.28   15.72
   3   2   1  526.77   15.18
   3   2   1  580.69   17.55
   3   2   2  501.77   14.73
   3   2   2  504.43   16.40
   3   2   2  495.17   14.60
  -3  -2  -2  490.26   16.24
  -3  -2  -2  497.85   14.64
   3   2   3  422.83   12.95
   3   2   3  388.28   14.20
  -3  -2  -3  392.25   14.21
   3   2   4 2608.24   56.09
   3   2   4 2613.81   58.16
  -3  -2  -4 2552.63   57.85
   3   2   5    3.48    1.15
  -3  -2  -5    4.14    1.61
  -3  -2  -6  337.96   13.11
   3   2   6  353.26   15.85
   3   2   6  356.59   13.85
   3   2   7  274.16   12.07
   3   2   7  256.77   13.65
  -3  -2  -7  248.81   10.92
   3   2   8   15.14    2.72
   3   2   8   16.85    3.75
  -3  -2  -8   16.50    2.61
   3   2   9  219.82   13.46
  -3  -2  -9  230.32   10.01
  -3  -2 -10  343.08   12.58
   3   2  10  368.44   18.50
   3   2  11   -1.23    2.72
  -3  -2 -11    3.61    1.18
   3   2  12  227.60   15.49
   3   2  13   70.03    8.72
   3   2  14    1.73    2.23
   3   2  15  111.34   12.19
  -3  -3  12  232.94   16.87
  -3  -3  11   14.93    4.20
   3   3 -10  328.13   13.47
  -3  -3  10  346.41   19.09
   3   3  -9  293.86   12.81
  -3  -3   9  333.23   17.94
   3   3  -8  181.28    9.46
  -3  -3   8  186.33   12.66
  -3  -3   7  829.86   23.27
   3   3  -7  832.55   24.53
  -3  -3   6  343.26   13.07
   3   3  -6  365.45   17.31
  -3  -3   6  381.10   17.14
   3   3  -6  343.26   13.59
   3   3  -5   13.97    3.23
   3   3  -5   17.47    2.72
  -3  -3   5   13.87    2.27
  -3  -3   5   14.84    3.27
  -3  -3   4 1200.95   34.27
  -3  -3   4 1190.22   30.65
   3   3  -4 1181.52   30.92
  -3  -3   3  355.10   13.23
   3   3  -3  339.87   13.15
  -3  -3   2  839.81   23.39
   3   3  -2  783.23   23.08
  -3  -3   1 1498.06   37.84
  -3  -3   1 1572.69   35.34
  -3  -3   1 1579.34   35.27
   3   3  -1 1553.03   38.09
  -3  -3   0   61.42    3.98
  -3  -3   0   61.10    3.92
   3   3   0   65.37    5.16
  -3  -3  -1  479.94   13.92
  -3  -3  -1  494.96   13.99
   3   3   1  521.39   16.91
   3   3   2 1171.77   26.69
  -3  -3  -2 1153.44   26.73
   3   3   2 1132.24   26.50
   3   3   3   26.45    2.50
   3   3   3   25.25    2.45
   3   3   3   24.72    3.17
  -3  -3  -3   28.53    3.45
  -3  -3  -4  498.63   17.28
   3   3   4  522.38   14.95
   3   3   4  523.19   17.31
   3   3   5  277.88   10.36
   3   3   5  280.77   11.87
  -3  -3  -5  266.20   11.61
   3   3   6    0.42    0.97
  -3  -3  -6    0.82    1.00
   3   3   7  551.37   21.70
   3   3   7  550.84   18.54
  -3  -3  -7  546.39   18.15
   3   3   8  279.07   15.01
  -3  -3  -8  262.47   11.56
   3   3   8  299.07   12.71
   3   3   9   42.55    5.92
   3   3   9   49.48    4.88
  -3  -3  -9   47.70    4.42
   3   3  10  199.45   13.29
  -3  -3 -10  198.53    9.42
   3   3  10  206.77   10.78
  -3  -3 -11   15.46    2.48
   3   3  11   11.58    3.92
   3   3  12   39.25    6.19
   3   3  13  198.53   14.97
   3   3  14   88.12   10.19
   3   3  15   57.40    8.68
  -3  -4  12  212.77   16.97
  -3  -4  11   92.55   10.78
  -3  -4  10   34.44    6.23
   3   4 -10   28.70    3.99
  -3  -4   9  423.25   21.61
   3   4  -9  401.90   15.95
  -3  -4   8   69.70    8.10
   3   4  -8   73.73    6.20
  -3  -4   7  247.84   14.84
   3   4  -7  219.95   11.01
  -3  -4   6  721.75   22.44
  -3  -4   6  762.05   27.51
   3   4  -6  711.71   22.68
   3   4  -5   11.74    2.71
  -3  -4   5   14.27    3.38
  -3  -4   5   17.54    2.91
   3   4  -4  773.56   26.66
  -3  -4   4  786.19   23.95
  -3  -4   4  768.98   26.67
   3   4  -4  790.81   23.91
  -3  -4   3  697.06   22.46
   3   4  -3  702.06   24.41
   3   4  -3  750.26   22.71
   3   4  -2   16.97    2.82
  -3  -4   2   16.43    2.83
  -3  -4   1  492.07   14.50
  -3  -4   1  507.09   17.87
  -3  -4   1  504.66   14.59
   3   4  -1  542.23   18.20
   3   4   0  694.67   21.65
  -3  -4   0  672.18   17.30
  -3  -4   0  669.32   17.21
  -3  -4  -1   57.27    3.37
   3   4   1   63.13    5.44
  -3  -4  -1   55.81    3.32
   3   4   2 2143.18   50.80
   3   4   3  136.29    5.14
   3   4   3  133.50    5.11
   3   4   3  141.51    8.30
   3   4   4   57.27    3.52
   3   4   4   60.90    5.33
   3   4   5  229.31    8.65
   3   4   5  234.72   11.12
   3   4   6  120.04    7.75
   3   4   7  118.95    7.88
   3   4   8  733.57   27.29
   3   4   8  764.40   23.77
   3   4   9   43.61    6.13
   3   4   9   46.37    4.94
   3   4  10  168.60   12.49
   3   4  10  197.82   10.58
   3   4  11   75.06    6.54
   3   4  11   86.20    8.96
   3   4  12    2.30    1.25
   3   4  12    3.30    2.49
   3   4  13  102.74   10.72
   3   4  14  187.38   14.90
   3   4  15   -3.00    3.66
  -3  -5  11  178.55   15.59
  -3  -5  10    1.69    2.69
  -3  -5   9  231.63   16.44
   3   5  -9  217.00   11.78
  -3  -5   8  342.48   19.52
   3   5  -8  303.44   14.19
  -3  -5   7   44.46    6.51
   3   5  -7   39.03    4.79
  -3  -5   6  452.90   21.42
   3   5  -6  428.30   17.22
  -3  -5   5  414.44   19.76
   3   5  -5  413.82   16.80
  -3  -5   4  164.03    9.90
   3   5  -4  153.94    9.63
   3   5  -3  952.87   28.53
  -3  -5   3  941.96   28.56
   3   5  -3  903.84   30.12
  -3  -5   2  261.06   12.87
   3   5  -2  244.43   13.17
   3   5  -2  244.00   12.25
   3   5  -1    5.09    2.19
  -3  -5   1    5.34    1.73
  -3  -5   1    6.02    1.36
   3   5  -1    5.38    1.96
  -3  -5   0  627.91   16.24
  -3  -5   0  677.39   22.66
   3   5   0  647.02   22.13
  -3  -5   0  649.65   16.31
   3   5   0  595.07   22.19
  -3  -5  -1  247.12    7.04
  -3  -5  -1  278.31   13.22
   3   5   1  272.44   12.89
   3   5   2  354.77   15.25
  -3  -5  -3  635.98   22.28
   3   5   3  672.16   22.33
   3   5   4   27.07    3.82
  -3  -5  -4   28.57    4.10
  -3  -5  -5  172.35   10.21
   3   5   5  172.03    6.36
   3   5   5  177.83   10.15
  -3  -5  -6  241.20   12.36
   3   5   6  238.12   12.02
   3   5   6  243.24    8.90
   3   5   7   14.79    3.07
  -3  -5  -7   10.84    2.56
  -3  -5  -8  224.51   11.83
   3   5   8  222.56   11.62
   3   5   9  177.93   12.54
   3   5   9  201.31   11.02
  -3  -5  -9  173.52   10.37
   3   5  10   10.89    2.70
  -3  -5 -10   10.75    2.53
   3   5  10   11.05    3.51
   3   5  11  179.17   13.30
  -3  -5 -11  168.82    9.91
   3   5  11  196.11   11.02
   3   5  12  153.23   12.68
   3   5  12  164.88   10.20
   3   5  13   14.43    4.19
   3   5  14  146.68   13.16
   3   5  15   15.06    3.88
  -3  -6  10   76.83   10.45
   3   6  -9   45.66    5.47
  -3  -6   9   41.75    7.29
  -3  -6   8  273.32   18.38
   3   6  -8  268.95   14.08
  -3  -6   7  112.99   11.05
   3   6  -7  111.02    8.70
   3   6  -6   36.07    4.90
  -3  -6   6   36.12    5.96
   3   6  -5  408.14   17.77
   3   6  -4   91.28    7.86
   3   6  -3  296.42   14.87
  -3  -6   2  427.60   18.60
   3   6  -2  472.59   19.23
   3   6  -1   12.26    2.99
  -3  -6   1   16.21    3.62
   3   6  -1   15.10    3.34
  -3  -6   0  552.94   21.46
  -3  -6   0  554.94   14.25
  -3  -6   0  559.83   14.25
   3   6   0  541.36   21.38
   3   6   0  594.71   21.86
   3   6   1  261.51   14.00
  -3  -6  -1  252.62   13.65
   3   6   1  281.53   14.01
   3   6   2   12.51    3.06
  -3  -6  -2   17.79    3.61
   3   6   3  254.15   13.24
  -3  -6  -3  234.15   13.08
  -3  -6  -4  219.72   12.67
   3   6   4  228.11   12.54
  -3  -6  -5   11.66    2.90
   3   6   5   10.17    2.84
  -3  -6  -6  546.60   21.37
   3   6   6  547.41   20.83
   3   6   6  542.03   13.49
   3   6   7  178.61    7.40
  -3  -6  -7  185.61   11.41
   3   6   7  172.05   10.77
  -3  -6  -8   45.43    5.53
   3   6   8   43.79    5.36
  -3  -6  -9   83.45    7.45
   3   6   9   82.24    7.25
  -3  -6 -10   46.50    5.49
   3   6  10   38.45    5.16
   3   6  10   32.70    5.58
   3   6  11   44.03    5.39
   3   6  11   41.12    6.49
   3   6  12  333.12   19.31
   3   6  12  344.30   16.04
   3   6  13   68.79    8.92
   3   6  14   96.34   10.92
   3   6  15   51.04    8.32
   3   7  -8  100.32    8.88
   3   7  -7  219.13   13.40
   3   7  -6    0.18    1.73
   3   7  -5  260.30   14.82
   3   7  -4  250.42   14.36
   3   7  -3   45.01    6.14
   3   7  -2  259.61   14.62
   3   7  -1  284.01   15.15
  -3  -7   1  257.21    9.28
  -3  -7   1  267.30    9.38
   3   7   0   71.65    7.48
  -3  -7   0   61.87    3.10
  -3  -7   0   74.21    3.26
  -3  -7   0   69.61    3.15
   3   7   1  444.37   19.84
   3   7   2  113.32    9.20
   3   7   2   91.25    8.25
   3   7   3   10.58    2.82
   3   7   4  122.91    9.78
   3   7   5  104.35    8.92
   3   7   6  119.25    9.58
   3   7   7  380.35   17.76
   3   7   8   11.75    2.97
   3   7   8    7.47    1.34
   3   7   9   70.51    7.21
   3   7  10  110.91   10.58
   3   7  10  109.44    9.07
   3   7  11   10.18    3.10
   3   7  11    4.30    2.46
   3   7  12  137.06   12.27
   3   7  12  137.80   10.27
   3   7  13  121.71   11.73
   3   7  14   10.33    4.38
   3   7  15  105.89   11.65
   3   8  -8    7.16    3.04
   3   8  -7  140.53   11.31
   3   8  -6   69.35    7.88
   3   8  -5   68.88    7.86
   3   8  -4  183.59   13.13
   3   8  -3   90.98    9.06
   3   8  -2   29.72    5.42
  -3  -8   1  157.63    7.41
  -3  -8   1  174.93    6.88
   3   8  -1  175.73   12.61
  -3  -8   1  181.30    6.97
   3   8   0   79.12    8.33
   3   8   1  154.89   11.64
   3   8   2  213.34   13.84
   3   8   3    3.87    2.02
   3   8   4  116.87   10.03
   3   8   5  211.15   13.70
   3   8   6    2.55    2.16
   3   8   7   92.75    8.81
   3   8   8  112.83    9.75
   3   8   9    5.12    2.61
   3   8  10  229.05   15.79
   3   8  10  236.45   14.45
   3   8  11  154.92   13.05
   3   8  11  173.90   12.22
   3   8  12   24.41    4.52
   3   8  12   19.17    4.45
   3   8  13   67.44    8.89
   3   8  14   29.62    5.98
   3   9  -7   25.18    5.15
   3   9  -6  112.41   10.79
   3   9  -5   44.14    6.96
   3   9  -4   79.33    9.09
   3   9  -3  143.86   12.25
   3   9  -2    3.80    2.34
   3   9  -1  108.21   10.59
   3   9   0  142.23   12.07
   3   9   1   13.91    3.96
   3   9   2   67.73    8.23
   3   9   3  132.24   11.55
   3   9   4   26.33    5.14
   3   9   5  271.19   16.70
   3   9   6   59.17    7.48
   3   9   7    3.54    2.58
   3   9   8   58.20    7.62
   3   9   9   57.88    7.43
   3   9  10   60.67    8.32
   3   9  10   79.26    8.73
   3   9  11  222.91   16.12
   3   9  11  203.39   14.44
   3   9  12    5.32    2.20
   3   9  12    8.45    3.39
   3   9  13   57.87    8.25
   3  10  -5   65.39    8.72
   3  10  -4    3.54    3.04
   3  10  -3   77.44    9.65
   3  10  -2   57.99    8.07
   3  10  -1   38.76    6.50
   3  10   0  114.81   11.49
   3  10   1   44.26    7.08
   3  10   2   -0.63    2.76
   3  10   3   96.83   10.56
   3  10   4   22.77    5.27
   3  10   5   82.81    9.44
   3  10   6  139.58   12.48
   3  10   7    1.50    2.64
   3  10   8   60.85    7.99
   3  10   9  141.81   12.31
   3  10  10    3.00    2.73
   3  10  11   65.85    8.68
   3  10  11   82.58    9.39
   3  10  12   89.47    9.76
  -4  10  10   38.38    6.61
  -4  10   9   66.61    8.99
  -4  10   8   16.12    4.61
  -4  10   7   25.75    5.52
  -4  10   6  192.07   15.14
  -4  10   5   34.60    6.63
  -4  10   4  107.04   11.34
   4 -10  -3   61.48    8.44
  -4  10   3   43.39    7.50
   4 -10  -2    5.97    2.76
   4 -10  -1   34.82    6.71
   4 -10   0   70.28    9.97
   4 -10   1    5.28    3.85
  -4  10  -1    2.00    3.19
   4 -10   2   53.84    9.07
   4 -10   3   33.87    7.13
   4 -10   4   18.77    5.90
   4 -10   5   41.85    8.90
  -4   9  11  207.04   14.51
  -4   9  10    4.81    3.02
  -4   9  10    9.15    2.96
  -4   9   9   81.16    9.03
  -4   9   9   95.42   10.17
  -4   9   8   83.14    9.09
  -4   9   8   64.45    8.18
  -4   9   7    2.21    2.20
  -4   9   7    5.39    2.02
  -4   9   6  192.74   13.69
  -4   9   5   98.00    9.40
  -4   9   4   15.74    4.05
   4  -9  -3  133.29   12.09
  -4   9   3  147.32   11.31
   4  -9  -2   32.41    6.21
   4  -9  -1   40.00    7.29
   4  -9   0  111.15   11.94
   4  -9   1   12.00    3.96
   4  -9   2   53.45    8.63
   4  -9   3   82.01   10.88
   4  -9   4   30.01    6.96
   4  -9   5   39.51    7.75
  -4   9  -5   25.01    5.52
   4  -9   6   79.31   11.27
  -4   9  -6   89.22   10.30
  -4   8  13  217.71   17.02
  -4   8  12    4.30    2.95
  -4   8  11  129.66   10.64
  -4   8  11  148.39   13.27
  -4   8  10  134.07   12.18
  -4   8  10  108.83    9.74
  -4   8   9   -0.89    2.32
  -4   8   9    0.46    2.00
  -4   8   8  302.56   17.97
  -4   8   7  169.18   12.79
  -4   8   6   84.86    8.89
  -4   8   5  151.81   11.60
  -4   8   4   12.61    2.93
   4  -8  -3   26.26    5.18
  -4   8   3   29.40    4.89
   4  -8  -2  237.50   16.33
  -4   8   2  270.94   15.32
   4  -8  -1   43.23    7.17
   4  -8   0  150.08   13.42
   4  -8   1   87.36   10.38
   4  -8   2   12.32    4.51
   4  -8   3   70.76    9.56
   4  -8   3   66.35    7.11
   4  -8   4  112.06    9.94
   4  -8   4  122.53   12.65
   4  -8   5   12.62    4.06
   4  -8   6  131.59   11.96
   4  -8   7   63.88    8.62
  -4   8  -8   32.84    5.88
   4  -8   8   18.84    5.09
  -4   7  14   28.54    6.34
  -4   7  13  271.04   18.86
  -4   7  12   69.95    9.12
  -4   7  11   23.39    4.09
  -4   7  11   26.19    5.30
  -4   7  10   83.09    7.75
  -4   7  10   74.89    8.88
  -4   7   9   79.69    9.20
  -4   7   8  124.48   11.01
  -4   7   7  307.51   17.29
  -4   7   6    3.60    2.22
  -4   7   5  189.26   12.77
  -4   7   5  148.75   11.38
   4  -7  -4   64.99    7.51
  -4   7   4   51.11    6.44
   4  -7  -4   52.36    6.76
   4  -7  -3    7.90    2.65
  -4   7   3    4.31    2.47
   4  -7  -3    3.70    1.99
   4  -7  -2  157.00   12.47
  -4   7   2  152.69   11.09
   4  -7  -2  141.20   11.70
   4  -7  -1  247.37   16.41
  -4   7   1  279.40   15.21
   4  -7  -1  237.28   15.82
   4  -7   0   10.37    3.57
   4  -7   0   17.06    4.64
   4  -7   1  228.06   15.86
   4  -7   1  199.76    9.90
  -4   7  -2   77.72    5.82
   4  -7   2   74.47    6.50
   4  -7   2   79.83    9.33
   4  -7   3   44.29    6.90
  -4   7  -3   37.64    4.55
   4  -7   3   36.14    4.94
  -4   7  -4  196.73   11.48
   4  -7   4  175.46   11.75
   4  -7   5   64.27    7.38
   4  -7   6   82.89    8.85
   4  -7   7  130.58   11.75
   4  -7   8   71.28    8.91
  -4   7  -9   47.51    6.77
   4  -7   9   68.17    9.42
   4  -7  10  120.55   13.09
  -4   6  14   22.37    5.57
  -4   6  13  147.45   13.48
  -4   6  12  234.84   16.63
  -4   6  11   12.38    2.77
  -4   6  11   16.22    4.14
  -4   6  10  174.19   13.23
  -4   6  10  179.41    8.35
  -4   6   9  222.27   14.77
  -4   6   9  227.02    8.49
  -4   6   8    5.15    2.67
  -4   6   7  243.40   14.96
  -4   6   6  170.89   12.10
  -4   6   6  188.19   12.78
  -4   6   5   10.04    2.76
  -4   6   5   11.04    3.12
   4  -6  -4  317.20   17.05
  -4   6   4  349.21   17.20
   4  -6  -4  317.96   16.98
  -4   6   4  364.75   17.60
  -4   6   3  161.83   11.18
   4  -6  -3  160.00   11.73
   4  -6  -3  142.34   11.21
   4  -6  -2  105.60    9.64
  -4   6   2  109.42    9.03
   4  -6  -2   90.23    8.81
  -4   6   1  255.54   14.43
   4  -6  -1  265.65   15.96
   4  -6  -1  268.77   16.09
   4  -6   0   11.33    3.31
  -4   6   0    8.97    2.83
   4  -6   0   10.82    3.42
   4  -6   1   65.20    7.98
   4  -6   1   71.52    8.15
   4  -6   1   57.01    4.62
   4  -6   2  407.71   20.36
   4  -6   2  355.05   19.37
   4  -6   2  363.06   14.41
   4  -6   3  151.72    9.44
  -4   6  -3  165.03    9.25
  -4   6  -4  241.69   12.53
   4  -6   4  242.00   13.04
   4  -6   5  203.67   12.70
  -4   6  -5  203.70   12.25
   4  -6   6    6.70    3.03
   4  -6   7  106.41   10.31
   4  -6   8  176.23   13.89
   4  -6   9   10.75    3.77
   4  -6  10  105.36   11.62
   4  -6  11   81.48   10.63
  -4   5  14  140.30   13.58
  -4   5  13   -0.23    2.28
  -4   5  12   80.15    9.41
  -4   5  12   75.93    6.87
  -4   5  11  234.33   15.78
  -4   5  11  210.88   10.96
  -4   5  10   34.42    5.91
  -4   5  10   28.10    3.53
  -4   5   9  386.95   19.58
  -4   5   9  401.87   13.72
  -4   5   8   73.22    7.75
  -4   5   8   74.52    4.61
  -4   5   7   81.86    8.00
  -4   5   7   80.44    4.00
  -4   5   6   83.05    8.07
  -4   5   6   86.91    8.28
  -4   5   5   48.33    5.92
  -4   5   5   47.99    6.01
   4  -5  -4   96.47    8.70
  -4   5   4   93.13    8.18
   4  -5  -4  104.64    8.94
  -4   5   4  106.75    8.77
  -4   5   3  787.27   27.01
  -4   5   3  805.65   27.37
   4  -5  -3  739.51   27.17
   4  -5  -2   14.86    3.38
  -4   5   2    8.75    2.50
   4  -5  -2   10.99    3.06
   4  -5  -1  272.77   15.73
  -4   5   1  287.30   14.91
   4  -5  -1  305.78   16.44
  -4   5   0  117.90    9.13
   4  -5   0  122.58   10.15
   4  -5   0  116.31    9.78
   4  -5   0  113.69    5.06
   4  -5   1    0.94    0.64
   4  -5   1    0.26    1.42
  -4   5  -1    2.05    1.70
   4  -5   1    2.46    1.92
   4  -5   2  248.13   10.80
   4  -5   2  251.31   14.91
   4  -5   2  260.07   15.21
   4  -5   3  612.62   20.46
   4  -5   3  638.99   25.46
   4  -5   4   17.85    3.26
  -4   5  -4   15.83    2.94
   4  -5   5  349.40   16.46
  -4   5  -5  379.62   16.73
   4  -5   6  243.52   14.15
   4  -5   7   78.60    8.28
   4  -5   8  334.93   18.64
   4  -5   9  120.51   11.55
   4  -5  10   62.90    8.70
   4  -5  11  228.00   17.54
  -4   4  14  211.38   16.64
  -4   4  14  204.82   13.49
  -4   4  13   74.09    9.43
  -4   4  13   63.65    6.95
  -4   4  12   27.61    5.61
  -4   4  12   29.38    4.45
   4  -4 -11  206.51   13.83
  -4   4  11  203.88   14.58
  -4   4  11  218.24   11.79
   4  -4 -10   54.72    6.49
  -4   4  10   60.66    7.63
  -4   4  10   68.08    5.88
  -4   4   9  279.99   16.05
  -4   4   9  293.73   12.19
   4  -4  -8  393.29   15.67
  -4   4   8  416.50   19.16
  -4   4   8  409.36   13.87
   4  -4  -7    2.87    1.32
  -4   4   7    0.99    1.43
  -4   4   7    0.91    1.37
  -4   4   7    1.99    0.93
  -4   4   6  168.68   11.19
   4  -4  -6  164.30    7.25
  -4   4   6  172.05   11.20
  -4   4   6  167.09    6.41
  -4   4   5  198.64   11.98
  -4   4   5  198.86   12.30
  -4   4   4    2.31    1.70
  -4   4   4    0.77    1.44
   4  -4  -4    5.62    2.16
   4  -4  -3  437.35   19.21
  -4   4   3  478.02   19.36
   4  -4  -3  457.93   19.48
  -4   4   3  498.79   19.73
   4  -4  -2  313.42   15.90
  -4   4   2  324.02   15.33
   4  -4  -2  321.64   15.90
  -4   4   2  315.04   15.24
   4  -4  -1   14.10    3.00
  -4   4   1   15.08    3.09
   4  -4  -1    9.28    2.83
  -4   4   0  514.17   20.29
   4  -4   0  501.41   13.27
   4  -4   0  514.70   21.17
   4  -4   0  507.73   21.46
  -4   4  -1  517.20   20.01
   4  -4   1  489.71   20.53
   4  -4   1  456.70   14.07
   4  -4   1  458.01   20.18
   4  -4   2  157.73   11.06
   4  -4   2  165.72   11.17
   4  -4   2  146.16    7.65
   4  -4   3  459.75   19.98
   4  -4   3  442.51   16.13
   4  -4   4  113.30    7.81
   4  -4   4  102.60    9.12
   4  -4   5   81.31    7.11
   4  -4   6  597.14   22.95
  -4   4  -6  603.06   23.12
   4  -4   7  208.06   13.24
   4  -4   8  169.53   12.57
   4  -4   9  321.27   18.63
   4  -4  10    3.82    2.67
   4  -4  11  146.97   13.68
   4  -4  12  170.39   15.24
  -4   3  15   19.08    5.02
  -4   3  14   61.58    9.03
  -4   3  14   69.40    8.06
  -4   3  13  232.59   16.77
  -4   3  13  231.10   14.29
  -4   3  12    5.83    3.23
  -4   3  12    5.13    2.59
  -4   3  11  154.07   12.46
  -4   3  11  148.37   10.10
   4  -3 -10  168.90   11.99
  -4   3  10  187.04   13.26
  -4   3  10  187.23    9.44
  -4   3  10  185.61   10.66
  -4   3   9    4.68    1.51
  -4   3   9    1.82    1.44
   4  -3  -9    1.79    1.41
  -4   3   8  141.91   10.59
  -4   3   8  146.75    8.14
  -4   3   7  237.82   13.36
  -4   3   7  218.62   12.76
  -4   3   7  212.55    9.32
   4  -3  -7  210.57   10.41
  -4   3   6   14.22    3.06
   4  -3  -6   13.62    2.22
  -4   3   6    8.69    2.55
  -4   3   6   12.14    1.90
  -4   3   5  815.22   26.87
  -4   3   5  783.31   26.20
   4  -3  -5  790.98   20.62
  -4   3   4  133.84    9.23
  -4   3   4  120.84    8.77
   4  -3  -4  128.35    5.39
   4  -3  -3  161.57   10.42
   4  -3  -3  164.54    5.49
  -4   3   3  164.65   10.22
   4  -3  -3  154.09   10.10
  -4   3   3  167.00   10.41
  -4   3   2  166.69   10.30
   4  -3  -2  167.89    5.32
  -4   3   2  170.30   10.42
  -4   3   1   72.70    6.63
   4  -3  -1   75.93    3.56
  -4   3   1   82.50    7.06
  -4   3   0  147.55    9.66
   4  -3   0  155.92    6.23
  -4   3  -1 1737.97   46.23
   4  -3   1 1786.04   47.10
   4  -3   1 1770.22   39.62
   4  -3   2   33.43    4.65
  -4   3  -2   33.75    4.73
   4  -3   2   34.62    4.83
   4  -3   2   32.00    3.37
   4  -3   3  501.14   20.18
   4  -3   3  501.94   17.08
   4  -3   4  553.41   21.79
   4  -3   4  542.11   19.07
   4  -3   5   19.23    3.89
   4  -3   5   17.65    3.34
   4  -3   6  448.29   18.87
   4  -3   7  811.20   28.66
   4  -3   8    0.89    1.64
   4  -3   9  467.03   22.46
   4  -3  10  193.83   14.50
  -4   3 -10  212.63   13.78
   4  -3  11   34.06    6.46
   4  -3  12  230.38   17.50
  -4   2  15   90.45    9.89
  -4   2  14   -0.07    1.87
  -4   2  13  139.04   11.31
  -4   2  12  181.45   12.43
  -4   2  11  102.76    8.71
   4  -2 -10  387.06   19.22
  -4   2  10  375.15   12.78
  -4   2  10  417.43   17.60
   4  -2  -9   39.15    5.44
  -4   2   9   45.56    6.01
  -4   2   9   34.43    3.70
  -4   2   9   40.76    4.72
   4  -2  -8   16.87    3.31
  -4   2   8   17.67    2.93
  -4   2   8   19.79    4.01
  -4   2   8   17.65    2.79
  -4   2   7  200.27   12.06
  -4   2   7  182.84   11.55
  -4   2   7  204.39   10.30
  -4   2   7  202.01    9.67
  -4   2   6  114.98    8.69
   4  -2  -6  122.33    7.46
  -4   2   6  121.22    8.86
  -4   2   6  125.74    7.94
  -4   2   6  115.49    6.62
  -4   2   5  454.04   17.98
   4  -2  -5  421.05   14.59
  -4   2   5  452.38   17.88
  -4   2   5  433.72   13.79
  -4   2   4  980.60   29.06
   4  -2  -4  920.70   24.10
  -4   2   4  964.28   28.80
   4  -2  -3    5.77    1.31
  -4   2   3    4.75    1.65
  -4   2   3    6.95    2.08
  -4   2   2  254.91   12.47
   4  -2  -2  244.46    8.69
  -4   2   2  252.87   12.50
  -4   2   1  791.47   25.31
  -4   2   1  782.63   25.22
  -4   2   0    1.08    1.30
  -4   2  -1  630.78   21.75
   4  -2   1  602.20   17.85
  -4   2  -2 1369.79   37.12
   4  -2   2 1309.23   33.20
   4  -2   3   -0.05    1.06
   4  -2   4  918.28   27.13
   4  -2   5  672.11   24.20
   4  -2   5  643.48   22.54
   4  -2   6   72.34    7.36
   4  -2   6   70.13    6.88
   4  -2   7  677.68   25.25
   4  -2   8  139.20   10.81
  -4   2  -8  136.81   10.25
   4  -2   9  120.34   10.39
  -4   2  -9  130.18   10.18
   4  -2  10  506.68   24.12
  -4   2 -10  501.54   21.59
   4  -2  11  117.23   11.41
   4  -2  12   97.86   11.19
   4  -2  13  236.18   18.08
  -4   1  15  139.62   13.05
  -4   1  14   43.45    7.02
  -4   1  13    9.96    3.27
  -4   1  12  196.36   13.42
  -4   1  11   19.17    3.81
  -4   1  10  152.30    6.30
  -4   1  10  153.80   10.60
   4  -1  -9  263.02   15.17
  -4   1   9  269.20   13.71
  -4   1   9  256.09    9.76
  -4   1   8   15.60    2.42
  -4   1   8   19.64    3.32
   4  -1  -8   20.32    3.98
  -4   1   7  257.92   13.86
   4  -1  -7  242.73   12.79
  -4   1   7  275.13   12.35
  -4   1   7  253.09   10.94
  -4   1   6  278.98   13.83
  -4   1   6  239.89   12.89
  -4   1   6  275.93   11.68
  -4   1   6  270.40   11.69
  -4   1   5    9.55    2.36
   4  -1  -5    5.42    1.73
  -4   1   5    8.47    2.05
  -4   1   5    3.49    1.26
  -4   1   5    6.19    2.45
   4  -1  -4  299.97   12.07
  -4   1   4  299.06   13.57
  -4   1   4  312.18   13.78
  -4   1   4  298.82   12.98
  -4   1   3  407.05   16.04
  -4   1   3  427.30   16.25
  -4   1   3  416.72   15.99
   4  -1  -3  406.02   13.99
  -4   1   2   23.09    3.48
  -4   1   2   24.81    3.46
  -4   1   2   18.79    3.18
   4  -1  -2   22.44    2.69
  -4   1   1 1750.26   44.04
  -4   1   1 1680.03   43.57
  -4   1   1 1804.26   44.03
  -4   1   0  176.47    9.93
  -4   1   0  174.04    9.84
  -4   1  -1  264.23   12.53
  -4   1  -2 1102.02   31.49
   4  -1   3   81.47    6.27
   4  -1   4  292.16   13.25
   4  -1   5 2080.88   52.30
   4  -1   5 2129.48   52.96
   4  -1   6  249.20   13.42
   4  -1   6  239.90   13.02
   4  -1   7  599.77   23.26
   4  -1   7  574.16   22.73
   4  -1   8  489.36   21.46
   4  -1   9    5.68    2.47
   4  -1  10  309.63   17.94
   4  -1  11  448.80   23.04
   4  -1  12    3.89    2.82
   4  -1  13  294.04   19.86
  -4   0  14  150.44   13.34
  -4   0  13   -2.68    2.84
  -4   0  12  163.53   12.71
  -4   0  11  111.11    9.87
  -4   0  10    2.62    0.71
  -4   0  10    4.52    2.26
  -4   0   9  151.01    6.78
  -4   0   9  163.98   10.91
  -4   0   8  268.06   10.25
   4   0  -8  267.14   14.98
  -4   0   8  283.69   14.02
   4   0  -7  126.32    9.42
  -4   0   7  129.94    8.70
  -4   0   7  124.84    6.84
   4   0  -6  854.14   27.20
  -4   0   6  852.75   25.60
  -4   0   6  823.67   23.47
  -4   0   5  119.39    8.23
  -4   0   5  113.35    8.04
  -4   0   5  102.31    6.89
  -4   0   5  105.47    6.77
   4   0  -4   22.62    3.15
  -4   0   4   27.11    3.66
  -4   0   4   26.35    3.35
  -4   0   4   22.52    3.45
  -4   0   3  745.27   23.11
  -4   0   3  762.02   23.29
  -4   0   3  713.58   22.55
   4   0  -3  771.76   22.52
  -4   0   2  272.99   12.08
  -4   0   2  252.26   11.72
   4   0  -2  259.40   11.92
   4   0  -2  286.01   11.52
  -4   0   2  262.16   11.96
  -4   0   1  345.12   14.10
   4   0  -1  342.84   13.97
   4   0  -1  352.74   14.21
  -4   0   1  353.92   14.46
  -4   0   1  360.65   14.36
  -4   0   0 3367.92   74.11
   4   0   0 3322.63   74.00
   4   0   0 3189.64   74.04
  -4   0   0 3492.09   74.50
  -4   0  -1  158.97    9.06
   4   0   1  163.51    9.16
   4   0   1  152.04    9.04
   4   0   2  571.23   19.71
  -4   0  -2  613.22   20.52
   4   0   2  633.73   20.29
  -4   0  -3 1015.60   29.06
   4   0   3 1008.64   28.53
  -4   0  -3  995.45   29.88
  -4   0  -4   19.55    3.45
   4   0   4   21.69    3.40
   4   0   5 1094.78   30.85
   4   0   5  975.90   30.87
   4   0   6 1263.35   37.47
   4   0   6 1324.91   36.75
   4   0   7    3.96    2.29
   4   0   7    5.68    2.12
   4   0   8  888.95   30.89
   4   0   9  349.18   18.30
   4   0  10   41.11    6.22
   4   0  11  463.53   23.18
   4   0  12   52.75    7.80
   4   0  13   90.34   10.66
   4   0  14  202.33   16.77
  -4  -1  13   47.67    7.49
  -4  -1  12   69.34    8.31
  -4  -1  11  164.11   12.60
  -4  -1  10   66.66    3.85
  -4  -1  10   62.73    7.36
  -4  -1   9   11.81    1.80
  -4  -1   9   12.76    3.31
  -4  -1   8  236.85    9.55
  -4  -1   8  264.65   14.18
  -4  -1   7   52.67    4.26
   4   1  -7   52.23    6.33
  -4  -1   7   59.23    6.27
   4   1  -6  313.97   15.36
  -4  -1   6  290.93   11.63
  -4  -1   6  304.49   14.11
   4   1  -5  612.02   21.66
   4   1  -5  559.18   20.61
  -4  -1   5  590.34   20.37
  -4  -1   5  565.47   18.08
  -4  -1   4   13.88    2.58
   4   1  -4    8.44    2.12
  -4  -1   4   11.82    2.32
  -4  -1   4   12.97    2.64
  -4  -1   3  428.39   15.91
  -4  -1   3  437.75   16.01
   4   1  -3  437.37   17.13
  -4  -1   3  432.23   15.59
  -4  -1   2  407.91   15.01
  -4  -1   2  406.95   14.94
   4   1  -2  380.64   15.86
   4   1  -2  409.04   15.54
  -4  -1   2  394.18   15.01
  -4  -1   1    0.75    0.71
   4   1  -1    1.46    1.34
  -4  -1   1    4.09    1.55
  -4  -1   1    1.21    1.29
   4   1  -1    2.37    1.13
   4   1  -1    2.54    1.28
   4   1   0 1332.38   34.23
  -4  -1   0 1370.41   34.78
  -4  -1   0 1359.24   34.55
   4   1   0 1287.77   33.90
   4   1   0 1368.87   36.57
   4   1   1  778.70   23.54
  -4  -1  -1  785.86   23.73
   4   1   1  847.35   24.02
   4   1   1  793.90   25.26
  -4  -1  -2   34.34    3.94
   4   1   2   25.29    3.79
   4   1   2   33.08    3.75
   4   1   2   28.74    3.55
  -4  -1  -3 2085.83   49.42
   4   1   3 2104.54   49.10
   4   1   3 2116.39   51.76
  -4  -1  -3 2026.30   50.68
   4   1   4  812.70   24.24
   4   1   4  827.77   26.17
   4   1   5  208.48   10.64
   4   1   6  936.98   28.30
   4   1   6  938.27   30.60
   4   1   7  112.13    8.31
   4   1   7   99.97    8.73
   4   1   8  233.76   14.13
   4   1   9 1053.33   35.57
   4   1  10  203.09   14.19
   4   1  11  278.74   17.43
   4   1  12  228.87   16.30
   4   1  13    5.62    3.37
   4   1  14  144.88   13.95
  -4  -2  13   99.50   11.49
  -4  -2  12   19.77    5.34
  -4  -2  11   91.36    9.81
  -4  -2  10  211.67   14.49
  -4  -2   9    2.27    1.18
  -4  -2   9    3.11    2.47
  -4  -2   8  278.81   11.03
   4   2  -8  274.53   13.70
  -4  -2   8  313.67   16.35
  -4  -2   7  197.11    9.35
   4   2  -7  226.01   12.01
  -4  -2   7  236.53   13.40
   4   2  -6    4.91    2.35
   4   2  -6    5.55    2.13
  -4  -2   6    7.74    1.83
  -4  -2   6   10.32    2.85
  -4  -2   5  535.95   17.70
   4   2  -5  503.19   20.84
  -4  -2   5  550.11   20.34
   4   2  -5  543.66   19.52
  -4  -2   4  562.79   19.36
  -4  -2   4  551.28   18.18
   4   2  -4  557.10   19.52
   4   2  -4  531.06   20.92
  -4  -2   3   40.73    4.27
  -4  -2   3   41.56    4.25
  -4  -2   3   40.78    4.28
   4   2  -3   37.77    4.33
   4   2  -3   33.70    4.50
  -4  -2   2 2455.12   55.42
  -4  -2   2 2515.88   55.58
   4   2  -2 2448.34   57.41
  -4  -2   2 2369.74   56.10
  -4  -2   1  441.29   15.40
  -4  -2   1  433.97   15.20
   4   2  -1  452.57   16.80
  -4  -2   1  449.82   16.31
   4   2   0  123.37    6.95
  -4  -2   0  123.43    7.28
   4   2   0  117.60    6.76
   4   2   0  127.15    8.07
  -4  -2   0  121.99    7.27
   4   2   1  973.67   26.23
  -4  -2  -1  961.97   26.67
   4   2   1  973.62   26.06
   4   2   1 1002.17   28.57
  -4  -2  -1  998.06   26.87
  -4  -2  -2  413.20   14.84
   4   2   2  406.02   14.57
   4   2   2  456.15   16.74
   4   2   2  402.76   14.55
   4   2   3  635.18   19.61
  -4  -2  -3  649.39   19.88
   4   2   3  639.82   19.67
   4   2   3  666.10   21.89
   4   2   4 3072.73   67.59
   4   2   4 3111.21   70.47
   4   2   5  204.82   10.08
   4   2   5  203.46   11.04
   4   2   6  788.13   24.23
   4   2   6  777.93   25.39
   4   2   7  525.94   19.19
   4   2   7  509.60   21.63
   4   2   7  486.65   19.23
   4   2   8   10.70    3.08
   4   2   9  582.44   24.75
   4   2  10  499.85   23.28
   4   2  11    9.39    3.75
   4   2  12  343.42   20.18
   4   2  13   95.46   10.85
   4   2  14   17.94    4.36
  -4  -3  12   87.05   10.51
  -4  -3  11    6.93    3.50
  -4  -3  10  167.82   13.46
   4   3  -9  124.07    8.89
  -4  -3   9  133.15   11.40
  -4  -3   8   81.60    5.93
  -4  -3   8   85.56    8.90
   4   3  -8   73.74    6.78
  -4  -3   7  324.28   13.26
  -4  -3   7  326.81   17.13
   4   3  -7  347.19   15.08
  -4  -3   6   85.73    6.34
  -4  -3   6   98.97    8.68
   4   3  -6   84.44    6.94
   4   3  -5    7.80    2.56
   4   3  -5    7.55    2.17
  -4  -3   5    9.20    2.08
  -4  -3   5    6.16    2.38
  -4  -3   4  431.28   15.98
   4   3  -4  397.44   16.14
   4   3  -4  413.11   18.27
  -4  -3   3  220.24   11.01
  -4  -3   3  230.05   10.75
  -4  -3   3  235.32   10.79
   4   3  -3  224.61   11.39
   4   3  -3  238.99   12.83
  -4  -3   2  824.44   23.82
  -4  -3   2  819.46   25.26
  -4  -3   2  846.82   23.87
   4   3  -2  892.17   26.13
  -4  -3   1 1399.35   37.18
  -4  -3   1 1422.01   34.87
  -4  -3   1 1420.63   34.69
   4   3  -1 1416.83   37.34
  -4  -3   0   54.63    4.59
   4   3   0   59.84    5.54
  -4  -3   0   57.43    4.69
  -4  -3  -1  619.72   19.05
   4   3   1  640.31   18.12
  -4  -3  -1  632.18   19.12
   4   3   1  650.00   18.13
   4   3   1  659.95   21.57
   4   3   2  933.48   24.79
  -4  -3  -2  925.73   25.32
   4   3   2  978.91   24.96
   4   3   2 1003.30   28.59
   4   3   3   13.91    2.21
   4   3   3   18.89    3.22
   4   3   3   16.29    2.41
   4   3   4 1285.88   32.19
   4   3   4 1345.91   35.71
   4   3   4 1278.46   32.29
  -4  -3  -4 1288.72   35.68
   4   3   5  789.69   22.73
   4   3   5  808.13   25.35
  -4  -3  -5  775.95   25.14
   4   3   6   38.54    4.13
   4   3   6   38.61    4.73
  -4  -3  -6   38.65    4.68
  -4  -3  -7 1128.01   32.99
   4   3   7 1162.24   32.03
   4   3   7 1177.47   33.52
  -4  -3  -8  572.94   20.48
   4   3   8  577.83   20.78
   4   3   8  522.35   23.34
   4   3   8  597.18   21.50
  -4  -3  -9   95.75    7.32
   4   3   9   87.18    8.85
   4   3   9   91.48    7.69
  -4  -3 -10  397.98   16.29
   4   3  10  404.19   20.92
   4   3  10  445.08   18.27
  -4  -3 -11   33.79    4.20
   4   3  11   30.37    5.70
   4   3  12  138.97   12.59
   4   3  13  303.41   19.57
   4   3  14   79.76   10.21
  -4  -4  11   41.12    7.27
  -4  -4  10   27.67    5.82
  -4  -4   9  196.89   14.71
   4   4  -9  176.85   11.04
   4   4  -8   33.04    4.50
  -4  -4   8   26.39    5.26
  -4  -4   7  255.91   12.35
  -4  -4   7  299.61   16.92
   4   4  -7  269.29   13.47
  -4  -4   6  332.87   14.70
  -4  -4   6  375.95   18.69
   4   4  -6  362.35   15.75
   4   4  -5   35.26    4.52
  -4  -4   5   37.41    4.47
  -4  -4   4  598.99   21.12
   4   4  -4  640.77   21.88
  -4  -4   3  497.59   18.87
  -4  -4   3  536.28   17.85
   4   4  -3  507.01   19.05
   4   4  -3  514.22   21.20
  -4  -4   2    0.12    0.84
   4   4  -2    0.42    1.03
  -4  -4   2    3.29    1.61
  -4  -4   2    1.43    1.12
   4   4  -2    1.77    1.32
  -4  -4   1  724.19   20.80
  -4  -4   1  706.22   23.74
  -4  -4   1  725.15   20.67
   4   4  -1  714.41   25.32
   4   4  -1  755.87   24.07
  -4  -4   0  819.67   22.36
  -4  -4   0  785.63   22.08
  -4  -4   0  806.85   25.69
   4   4   0  816.69   25.65
  -4  -4  -1   79.09    5.15
   4   4   1   87.38    7.02
  -4  -4  -1   73.67    4.96
   4   4   2 2236.51   47.55
  -4  -4  -2 2203.92   48.62
   4   4   2 2217.44   47.52
   4   4   2 2321.44   54.74
   4   4   3  633.90   17.71
  -4  -4  -3  681.30   22.93
   4   4   3  644.93   17.76
   4   4   3  669.53   22.50
  -4  -4  -4  212.17   11.54
   4   4   4  202.29    8.59
   4   4   4  214.35   11.43
   4   4   4  194.85    8.53
  -4  -4  -5  524.03   19.65
   4   4   5  493.74   15.78
   4   4   5  498.22   19.12
  -4  -4  -6  228.52   12.26
   4   4   6  236.25   10.28
   4   4   6  234.48   12.26
  -4  -4  -7  303.68   14.46
   4   4   7  306.14   12.73
   4   4   7  308.90   14.48
  -4  -4  -8 1197.58   35.09
   4   4   8 1277.24   34.08
   4   4   8 1222.89   35.49
  -4  -4  -9   98.35    7.72
   4   4   9  103.04    8.12
   4   4   9   87.45    9.24
  -4  -4 -10  252.39   12.86
   4   4  10  245.31   16.19
   4   4  10  279.16   14.19
   4   4  11  133.52   12.03
  -4  -4 -11  127.95    8.71
   4   4  11  139.88    9.91
   4   4  12    0.84    2.13
   4   4  13  112.92   11.66
   4   4  14  150.29   14.31
  -4  -5  10    0.72    2.52
  -4  -5   9  127.47   12.25
   4   5  -9  100.86    8.43
  -4  -5   8  108.64   10.96
   4   5  -8  108.68    8.71
   4   5  -7   26.79    4.25
  -4  -5   7   39.17    6.37
  -4  -5   6  209.60   11.84
   4   5  -6  217.22   12.31
  -4  -5   5  316.33   15.12
   4   5  -5  332.66   15.53
  -4  -5   4  181.78   11.13
   4   5  -4  193.76   11.45
  -4  -5   3  807.92   27.04
   4   5  -3  826.64   27.00
  -4  -5   2  202.29    9.59
  -4  -5   2  197.44   11.61
  -4  -5   2  211.81    9.72
   4   5  -2  219.66   12.14
  -4  -5   1   32.76    3.34
   4   5  -1   27.61    4.22
  -4  -5   1   34.26    3.39
  -4  -5   1   29.82    4.39
   4   5  -1   25.88    4.36
  -4  -5   0  637.69   23.16
  -4  -5   0  653.29   18.63
   4   5   0  634.72   24.18
   4   5   0  672.57   23.46
  -4  -5   0  665.96   18.75
  -4  -5  -1  299.57   14.72
  -4  -5  -1  288.26   10.11
   4   5   1  301.23   14.45
  -4  -5  -2  810.37   27.43
   4   5   2  870.42   27.62
  -4  -5  -3 1345.29   38.78
   4   5   3 1387.44   38.53
   4   5   4   26.04    2.25
   4   5   4   30.19    4.38
   4   5   4   26.19    2.29
  -4  -5  -4   27.37    4.26
  -4  -5  -5  468.44   19.24
   4   5   5  449.76   13.67
   4   5   5  473.04   18.90
   4   5   5  451.06   13.78
  -4  -5  -6  552.18   21.58
   4   5   6  564.59   16.93
   4   5   6  577.48   21.56
   4   5   7    1.66    1.48
  -4  -5  -7    1.52    1.22
   4   5   7    4.94    1.70
  -4  -5  -8  555.81   21.54
   4   5   8  556.21   18.66
   4   5   8  551.59   21.32
  -4  -5  -9  302.45   15.17
   4   5   9  336.90   14.35
   4   5   9  327.91   15.67
  -4  -5 -10   54.35    6.25
   4   5  10   46.48    7.13
   4   5  10   52.16    6.04
  -4  -5 -11  314.85   15.25
   4   5  11  310.77   19.19
   4   5  11  336.52   16.26
   4   5  12  177.46   14.57
   4   5  12  188.99   12.03
   4   5  13    8.28    3.69
   4   5  14  130.73   13.33
  -4  -6   9   73.59    9.83
   4   6  -8  117.80    9.54
   4   6  -7  138.35   10.29
   4   6  -6   50.06    6.07
   4   6  -5  351.64   17.00
   4   6  -4   50.54    6.20
   4   6  -3  379.38   17.64
  -4  -6   2  590.90   18.74
  -4  -6   2  607.59   18.86
   4   6  -2  606.77   23.24
  -4  -6   1   26.28    3.00
   4   6  -1   25.58    4.15
  -4  -6   1   25.73    3.04
  -4  -6   0  598.13   16.89
   4   6   0  625.02   23.38
  -4  -6   0  586.10   16.85
  -4  -6  -1  685.65   16.27
   4   6   1  767.36   26.17
   4   6   2   -1.02    1.55
   4   6   3  475.51   19.99
   4   6   4  513.91   20.91
   4   6   5   36.39    5.17
   4   6   6  938.78   22.45
   4   6   6 1006.85   31.62
   4   6   6  952.04   22.53
   4   6   7  359.23   12.13
   4   6   7  359.05   17.09
   4   6   8   67.07    5.13
   4   6   8   57.54    6.53
   4   6   9  147.75    8.48
   4   6   9  137.46   10.22
   4   6  10   26.23    4.37
   4   6  10   27.98    3.90
   4   6  10   20.98    4.70
   4   6  11   47.48    7.43
   4   6  11   62.84    6.93
   4   6  12  357.02   21.52
   4   6  12  383.77   18.40
   4   6  13   20.75    5.66
   4   6  14   86.13   10.47
   4   7  -8   59.75    7.07
   4   7  -7  177.97   12.43
   4   7  -6    3.24    2.00
   4   7  -5  212.31   13.67
   4   7  -4  246.28   14.69
   4   7  -3   17.65    3.96
  -4  -7   3   18.37    3.00
  -4  -7   2  275.64   11.51
  -4  -7   2  296.63   11.82
   4   7  -2  301.34   16.26
  -4  -7   1  388.50   13.12
   4   7  -1  417.02   19.57
  -4  -7   1  404.78   13.26
  -4  -7   0  185.30    6.71
  -4  -7   0  183.25    6.71
   4   7   0  197.96   12.91
   4   7   1  874.97   30.68
   4   7   2  162.08   11.68
   4   7   3   38.37    5.54
   4   7   4  329.01   17.02
   4   7   5  114.38    9.68
   4   7   6  361.03   17.93
   4   7   7  654.92   25.56
   4   7   8    0.95    0.70
   4   7   8    1.55    2.29
   4   7   9  137.58   10.74
   4   7  10  143.36   11.10
   4   7  11    4.62    2.48
   4   7  11    3.42    2.18
   4   7  12  117.80   12.51
   4   7  12  133.66   10.70
   4   7  13   90.36   10.80
   4   7  14   14.63    4.47
   4   8  -7  132.34   11.30
   4   8  -6   62.12    7.88
   4   8  -5   76.38    8.64
   4   8  -4  245.58   15.62
  -4  -8   3  128.02    7.95
   4   8  -3  116.96   10.63
   4   8  -2   38.39    5.96
  -4  -8   2   31.93    3.47
  -4  -8   1  446.66   13.30
   4   8  -1  448.75   21.68
   4   8   0   56.49    7.21
   4   8   1  305.78   17.65
   4   8   2  509.11   23.25
   4   8   3   24.95    4.77
   4   8   4  283.46   16.67
   4   8   5  444.78   21.34
   4   8   6    4.26    2.77
   4   8   7  159.93   12.12
   4   8   8   93.89    9.53
   4   8   9    2.64    2.12
   4   8  10  303.23   17.24
   4   8  11   82.07   10.17
   4   8  11  112.31   10.14
   4   8  12   15.62    4.06
   4   8  12   22.21    5.76
   4   8  13   51.94    8.53
   4   9  -7   14.51    4.31
   4   9  -6  114.10   11.20
   4   9  -5   26.48    5.59
   4   9  -4   87.41    9.68
   4   9  -3  224.12   15.89
   4   9  -2    2.96    2.40
   4   9  -1  219.61   15.53
   4   9   0  185.91   14.21
   4   9   1    6.19    2.32
   4   9   2  142.75   12.41
   4   9   3  177.07   13.90
   4   9   4   80.38    9.11
   4   9   5  481.56   23.65
   4   9   6   51.69    7.51
   4   9   7    8.75    3.57
   4   9   8   86.66    9.56
   4   9   9   32.77    5.83
   4   9  10   69.27    8.55
   4   9  11  202.99   16.56
   4   9  11  211.60   15.07
   4   9  12   -0.39    2.91
   4   9  12    1.88    1.96
   4   9  13   34.12    7.03
   4  10  -3  172.64   14.56
   4  10  -2   59.99    8.30
   4  10  -1   66.50    9.12
   4  10   0  241.22   17.48
   4  10   1   81.09    9.88
   4  10   2    6.34    2.79
   4  10   3  244.11   17.37
   4  10   4   30.47    6.36
   4  10   5  115.23   11.66
   4  10   6  134.52   12.64
   4  10   7   11.00    3.65
   4  10   8   80.16    9.67
   4  10   9  128.32   12.22
   4  10  10    1.35    2.69
   4  10  11   63.94    9.34
   4  10  11   66.58    8.85
  -5  10   8   27.08    5.93
  -5  10   7   40.31    6.95
  -5  10   5   60.96    8.25
  -5  10   4  133.94   11.92
   5 -10  -3  107.83   12.11
   5 -10  -2   -2.48    3.01
   5 -10  -1  156.42   15.36
   5 -10   0  118.74   13.59
   5 -10   1   -1.07    3.18
   5 -10   2  148.73   16.15
   5 -10   3   22.44    6.25
   5 -10   4    4.29    4.85
  -5   9  11  283.45   19.78
  -5   9  10   26.70    5.91
  -5   9  10   23.73    5.48
  -5   9   9   83.49    9.52
  -5   9   9   95.23   10.76
  -5   9   8  137.74   12.63
  -5   9   7    0.49    2.38
  -5   9   6  227.36   16.06
  -5   9   5  305.25   18.63
  -5   9   4    1.52    2.50
   5  -9  -3  279.36   19.31
  -5   9   3  287.48   17.67
   5  -9  -2  100.43   11.58
   5  -9  -1   10.21    3.72
   5  -9   0  257.27   19.74
   5  -9   1    1.62    2.60
   5  -9   2   28.97    6.68
   5  -9   3  125.19   14.57
   5  -9   4   16.60    5.91
   5  -9   5   67.73   10.56
   5  -9   6   50.20    9.43
  -5   8  12    2.57    2.33
  -5   8  11  203.91   14.04
  -5   8  11  238.52   17.94
  -5   8  10  180.39   15.16
  -5   8   9    5.41    3.48
  -5   8   8  385.11   21.65
  -5   8   7  206.69   15.09
  -5   8   6   70.69    8.58
  -5   8   5  271.43   17.05
   5  -8  -4   33.58    6.29
  -5   8   4   36.93    6.16
   5  -8  -3   89.08   10.51
  -5   8   3   92.53    9.65
  -5   8   2  474.72   22.72
   5  -8  -2  445.57   24.63
   5  -8  -1  111.44   11.84
   5  -8   0  261.35   18.90
   5  -8   1   90.88   11.26
   5  -8   2   -2.41    3.59
   5  -8   3  122.16   13.05
   5  -8   4   85.97   11.01
   5  -8   5    6.92    4.04
   5  -8   6   78.90   11.29
  -5   7  13  305.71   21.13
  -5   7  12   83.74   10.73
  -5   7  11   32.06    6.70
  -5   7  10  196.16   15.48
  -5   7   9  104.84   10.97
  -5   7   8  172.79   13.94
  -5   7   7  821.78   32.36
  -5   7   6   74.14    8.67
  -5   7   5  259.70   16.22
   5  -7  -4  163.84   13.63
  -5   7   4  197.31   13.77
   5  -7  -3   15.04    4.26
  -5   7   3    9.89    3.23
   5  -7  -2  404.53   22.37
  -5   7   2  414.29   20.85
   5  -7  -1  188.73   15.29
  -5   7   1  200.23   13.84
   5  -7   0    1.38    2.46
   5  -7   1  256.33   10.64
   5  -7   1  333.59   20.50
   5  -7   2   47.91    7.81
   5  -7   2   45.94    4.94
   5  -7   3   68.10    6.51
   5  -7   3   87.69   10.47
   5  -7   4  143.74   10.45
   5  -7   4  138.07   13.45
   5  -7   5    8.31    4.12
   5  -7   5    3.61    2.06
   5  -7   6   43.71    6.59
   5  -7   7  114.91   11.13
   5  -7   8   13.34    4.52
   5  -7   9   31.94    6.80
  -5   6  13  196.43   16.50
  -5   6  12  284.55   19.35
  -5   6  11   35.26    6.69
  -5   6  10  149.59   13.13
  -5   6   9  328.09   19.33
  -5   6   8   -0.46    2.24
  -5   6   7  451.37   22.24
  -5   6   6  334.78   18.42
  -5   6   5    7.81    2.89
   5  -6  -4  618.75   27.09
  -5   6   4  665.36   26.74
   5  -6  -3  331.48   19.15
  -5   6   3  365.73   18.77
   5  -6  -2  159.94   12.96
  -5   6   2  152.49   11.75
   5  -6  -1  247.16   16.77
  -5   6   1  286.32   16.32
   5  -6   0   73.46    8.96
  -5   6   0   86.47    8.72
   5  -6   1  117.73   11.43
   5  -6   1  117.48    6.52
   5  -6   2  332.27   13.61
   5  -6   2  379.04   20.94
   5  -6   3  100.04    7.62
   5  -6   3  114.89   11.37
   5  -6   4  105.86    8.43
   5  -6   4  110.97   11.28
   5  -6   5  110.57    9.23
   5  -6   6   20.14    4.46
   5  -6   7  109.58   10.44
   5  -6   8   74.78    8.93
   5  -6   9    6.38    3.10
   5  -6  10   88.98   10.97
  -5   5  13    3.73    3.26
  -5   5  12  198.33   15.72
  -5   5  11  326.29   19.86
  -5   5  10   22.61    3.13
  -5   5  10   21.49    4.93
  -5   5   9  885.30   33.50
  -5   5   8  266.62   16.40
  -5   5   7  119.97   10.61
  -5   5   6  207.89   13.98
  -5   5   5  224.05   14.23
   5  -5  -4  313.63   17.55
  -5   5   4  323.67   17.21
   5  -5  -4  316.73   17.49
   5  -5  -3  631.48   26.68
  -5   5   3  645.72   25.77
   5  -5  -3  671.49   27.25
  -5   5   3  703.93   26.80
   5  -5  -2   81.69    8.91
  -5   5   2   98.45    8.93
   5  -5  -2   86.11    8.87
   5  -5  -1  402.20   20.74
  -5   5   1  379.02   18.88
   5  -5  -1  399.50   20.36
   5  -5   0   59.11    3.49
   5  -5   0   52.63    7.29
  -5   5   0   68.73    7.59
   5  -5   0   59.33    7.43
   5  -5   1   16.47    4.07
   5  -5   1   21.14    2.60
  -5   5  -1   22.05    4.41
   5  -5   2  210.80   10.03
   5  -5   2  222.00   14.97
   5  -5   3  201.92   10.59
   5  -5   3  184.48   13.86
   5  -5   4    2.85    1.63
   5  -5   5  313.81   15.72
   5  -5   6   34.73    5.47
   5  -5   7   20.88    4.56
   5  -5   8  104.06   10.45
   5  -5   9   18.10    5.01
   5  -5  10   40.03    7.09
   5  -5  11   98.55   11.75
  -5   4  13   85.96   10.32
  -5   4  12   11.53    3.91
  -5   4  12   13.75    3.30
  -5   4  11  339.10   19.96
  -5   4  11  323.47   14.95
   5  -4 -10  123.19    9.66
  -5   4  10  118.79   11.10
  -5   4  10  110.40    7.63
  -5   4   9  386.05   20.29
  -5   4   9  406.24   14.94
   5  -4  -8  682.10   22.19
  -5   4   8  712.22   28.03
   5  -4  -7   37.29    3.89
  -5   4   7   27.93    4.94
   5  -4  -6  377.90   12.22
  -5   4   6  375.15   18.57
  -5   4   5  476.22   21.15
  -5   4   5  459.46   20.72
   5  -4  -5  445.11   11.94
  -5   4   4    3.97    2.07
   5  -4  -4    0.87    1.78
  -5   4   4   -0.05    1.66
   5  -4  -4   -0.40    1.34
   5  -4  -3  572.89   24.08
  -5   4   3  570.72   23.26
   5  -4  -3  555.99   23.63
  -5   4   3  570.02   23.28
   5  -4  -2  565.94   24.33
  -5   4   2  583.86   23.49
   5  -4  -2  594.57   24.57
  -5   4   2  621.19   24.15
   5  -4  -1   66.03    7.65
  -5   4   1   60.45    6.83
   5  -4  -1   53.81    2.82
   5  -4  -1   52.98    6.68
   5  -4   0  505.19   22.98
  -5   4   0  501.14   21.61
   5  -4   0  512.59   22.89
   5  -4   0  517.80   14.33
  -5   4  -1  221.79   13.54
   5  -4   1  232.43   14.52
   5  -4   1  219.10   13.98
   5  -4   1  202.82    8.85
  -5   4  -2   61.27    7.06
   5  -4   2   60.96    7.24
   5  -4   2   52.36    4.72
   5  -4   2   63.66    7.43
   5  -4   3  281.03   12.59
   5  -4   3  288.46   16.48
   5  -4   4    3.19    1.63
   5  -4   5  152.67   10.25
   5  -4   6  283.72   15.35
   5  -4   7   83.41    8.67
   5  -4   8  142.89   11.83
   5  -4   9  141.83   12.44
   5  -4  10   12.73    4.28
   5  -4  11   94.89   11.08
   5  -4  12   92.78   11.67
  -5   3  14  141.19   11.47
  -5   3  13  307.52   20.38
  -5   3  13  341.80   17.71
  -5   3  12   33.50    6.59
  -5   3  12   32.45    5.11
  -5   3  11  379.19   21.10
  -5   3  11  366.62   16.87
  -5   3  10  405.52   21.21
  -5   3  10  419.28   17.26
  -5   3  10  402.40   16.30
   5  -3 -10  351.69   18.35
  -5   3   9    2.07    1.42
   5  -3  -9    4.02    2.31
  -5   3   9   -0.73    2.19
  -5   3   9    2.61    1.38
  -5   3   8  256.00   15.37
  -5   3   8  261.30   11.63
  -5   3   8  256.87   13.34
  -5   3   7  561.85   23.33
   5  -3  -7  540.70   19.06
  -5   3   6   74.85    7.69
   5  -3  -6   64.82    5.21
  -5   3   5  669.26   25.43
   5  -3  -5  678.85   19.45
  -5   3   5  710.93   26.09
  -5   3   4  413.52   18.75
   5  -3  -4  391.81   12.49
  -5   3   4  389.65   18.16
   5  -3  -3  215.95   13.28
   5  -3  -3  208.65    7.91
  -5   3   3  216.52   12.90
   5  -3  -3  219.02   13.32
  -5   3   3  231.90   13.45
   5  -3  -2   99.53    8.83
  -5   3   2   92.18    8.27
   5  -3  -2  113.64    9.32
   5  -3  -2   92.21    4.88
  -5   3   2  101.85    8.63
   5  -3  -1   30.32    4.95
  -5   3   1   28.08    4.47
   5  -3  -1   25.64    4.48
   5  -3   0  154.10   11.29
  -5   3   0  154.33   10.88
   5  -3   0  146.88    7.13
   5  -3   0  160.91   11.41
   5  -3   1  804.62   22.59
  -5   3  -1  828.20   28.68
   5  -3   1  825.27   29.16
   5  -3   1  800.20   29.16
  -5   3  -2  118.88    9.54
   5  -3   2  131.30   10.18
   5  -3   2  112.52    7.07
   5  -3   2  116.02    9.69
   5  -3   3  405.44   19.05
   5  -3   3  397.10   15.60
   5  -3   3  396.70   19.02
   5  -3   4   45.42    6.01
   5  -3   4   45.81    5.12
   5  -3   5    0.40    1.64
   5  -3   6  118.99    9.46
   5  -3   7  221.96   13.93
   5  -3   8    3.18    2.53
   5  -3   9  254.83   16.41
   5  -3  10   87.23   10.10
   5  -3  11   42.12    7.42
   5  -3  12  123.68   13.22
  -5   2  15  110.29   11.40
  -5   2  14   14.68    4.28
  -5   2  13  191.30   15.97
  -5   2  13  210.39   14.39
  -5   2  12  273.00   18.36
  -5   2  12  275.85   15.75
  -5   2  11  125.21   11.79
  -5   2  11  145.64   10.73
  -5   2  10  625.75   26.90
  -5   2  10  607.27   22.69
  -5   2  10  570.30   19.05
  -5   2   9  162.27   12.31
   5  -2  -9  136.26   10.74
  -5   2   9  164.84   10.21
  -5   2   9  150.93    8.94
  -5   2   8   85.93    8.68
   5  -2  -8   76.63    7.33
  -5   2   8   78.10    6.51
  -5   2   8   77.81    6.64
  -5   2   7  404.98   19.02
  -5   2   7  387.71   14.92
  -5   2   7  382.41   16.35
   5  -2  -6  135.70    8.60
  -5   2   6  152.81   10.74
  -5   2   6  145.42    9.64
  -5   2   5  609.42   23.28
   5  -2  -5  563.60   19.07
  -5   2   5  610.36   23.00
  -5   2   5  589.04   21.66
  -5   2   4 1262.97   36.93
   5  -2  -4 1169.23   31.14
  -5   2   4 1212.64   36.33
  -5   2   4 1267.97   35.59
  -5   2   3   -0.01    1.43
   5  -2  -3    0.94    1.83
  -5   2   3    3.66    2.17
   5  -2  -3    1.64    1.54
   5  -2  -3    1.56    0.98
  -5   2   2  296.13   14.88
   5  -2  -2  271.51   10.88
  -5   2   1  160.11   10.60
  -5   2   1  158.06   10.52
  -5   2   0    3.87    1.45
  -5   2  -1  560.88   22.02
  -5   2  -2  171.67   11.30
   5  -2   2  165.20    9.20
  -5   2  -3  115.56    9.21
   5  -2   3  106.29    7.59
   5  -2   3  112.51    9.06
   5  -2   3  114.09    9.25
   5  -2   4  428.48   17.64
   5  -2   4  484.07   20.30
   5  -2   5  190.85   12.51
   5  -2   5  193.59   11.59
  -5   2  -6   69.01    7.29
   5  -2   6   71.47    7.25
  -5   2  -7  320.11   17.02
   5  -2   7  276.73   15.66
   5  -2   8   22.90    4.41
  -5   2  -8   22.16    4.55
   5  -2   9  105.61   10.28
  -5   2  -9  113.28   10.14
   5  -2  10  294.51   18.49
  -5   2 -10  300.39   17.24
   5  -2  11   61.69    8.56
   5  -2  12   70.25    9.59
   5  -2  13  132.36   13.82
  -5   1  14  120.35   11.61
  -5   1  13   42.70    7.65
  -5   1  13   46.58    7.22
  -5   1  12  394.96   22.46
  -5   1  12  361.87   19.24
  -5   1  11   33.11    6.15
  -5   1  11   42.31    6.01
  -5   1  10  236.18   15.76
  -5   1  10  217.43   13.22
  -5   1   9  628.07   25.99
  -5   1   9  629.43   23.05
  -5   1   9  578.18   19.16
  -5   1   8   10.17    2.39
  -5   1   8   16.09    3.27
  -5   1   8    8.92    2.95
   5  -1  -8   15.65    3.67
   5  -1  -7  195.47   11.88
  -5   1   7  214.38   13.25
  -5   1   7  206.85   11.01
  -5   1   7  189.66   10.46
  -5   1   6  612.54   23.58
  -5   1   6  621.05   23.63
  -5   1   6  608.34   21.25
  -5   1   5   24.78    4.18
  -5   1   5   20.30    3.56
  -5   1   5   27.14    4.18
  -5   1   4  250.67   13.31
  -5   1   4  228.72   12.68
  -5   1   4  243.28   12.58
   5  -1  -4  241.33   11.45
  -5   1   3  282.27   14.03
  -5   1   3  256.63   13.36
  -5   1   3  267.32   13.41
   5  -1  -3  252.66   11.38
  -5   1   2   26.59    4.25
  -5   1   2   28.76    4.37
  -5   1   2   35.34    4.69
   5  -1  -2   28.62    3.49
  -5   1   1  947.03   30.10
  -5   1   1  971.29   30.33
  -5   1   1  995.68   30.60
  -5   1   0  510.26   20.27
  -5   1   0  536.16   20.61
  -5   1  -1  204.16   11.85
  -5   1  -2   63.71    6.53
   5  -1   2   60.70    6.34
   5  -1   3   35.77    4.91
  -5   1  -3   42.06    5.34
  -5   1  -3   32.58    4.76
   5  -1   3   36.50    4.80
   5  -1   4   71.48    6.90
   5  -1   4   75.72    6.86
  -5   1  -4   73.99    7.34
   5  -1   5  823.17   28.19
  -5   1  -5  864.51   29.34
   5  -1   6   88.08    8.10
   5  -1   6   89.88    8.40
  -5   1  -6   91.16    8.57
  -5   1  -7  340.21   17.39
   5  -1   7  313.38   16.71
  -5   1  -8  202.67   13.32
   5  -1   8  204.05   13.72
   5  -1   9   13.45    3.40
  -5   1  -9   18.17    4.05
   5  -1  10  175.15   13.75
  -5   1 -10  161.60   11.89
   5  -1  11  281.56   18.55
   5  -1  12    0.29    2.40
   5  -1  13  270.28   19.60
  -5   0  14  223.59   16.67
  -5   0  13   -0.85    2.30
  -5   0  12  208.27   14.76
  -5   0  11  206.05   14.08
  -5   0  10   -0.34    1.90
  -5   0   9  228.97   14.89
  -5   0   9  242.11   13.93
  -5   0   9  213.33    9.83
  -5   0   8  370.15   17.01
  -5   0   8  341.49   13.72
   5   0  -7  215.05   13.28
  -5   0   7  212.87   13.07
  -5   0   7  216.22   11.95
  -5   0   7  194.69   10.15
  -5   0   6 1104.52   33.68
   5   0  -6 1048.77   32.83
  -5   0   6 1062.58   33.14
  -5   0   6  977.43   29.27
   5   0  -5   69.06    6.54
  -5   0   5   66.25    6.67
  -5   0   5   59.40    6.30
  -5   0   5   52.63    5.42
  -5   0   4   32.50    4.61
  -5   0   4   36.25    4.38
  -5   0   4   43.35    5.10
  -5   0   3   62.75    6.21
  -5   0   3   68.03    6.37
  -5   0   3   67.90    6.33
  -5   0   2  171.49   10.33
   5   0  -2  154.96    9.94
  -5   0   2  177.18   10.51
   5   0  -2  163.50   10.19
   5   0  -2  152.66    9.01
  -5   0   2  178.39   10.59
   5   0  -1  657.76   23.11
  -5   0   1  648.23   22.79
   5   0  -1  664.15   23.12
  -5   0   1  705.89   23.79
  -5   0   1  688.21   23.51
   5   0   0  716.06   24.29
  -5   0   0  736.08   24.47
  -5   0   0  688.27   23.86
   5   0   0  701.32   23.99
  -5   0  -1   20.20    3.47
   5   0   1   22.74    3.79
   5   0   1   28.24    4.16
  -5   0  -2  299.14   14.48
   5   0   2  313.96   14.52
   5   0   2  286.10   14.01
  -5   0  -3  158.23   10.40
   5   0   3  177.70   10.62
  -5   0  -3  196.69   11.83
   5   0   3  180.23   10.74
  -5   0  -4    0.68    1.01
   5   0   4    0.42    1.21
   5   0   5  405.01   17.59
   5   0   5  399.30   18.15
  -5   0  -5  425.51   18.92
   5   0   6  425.16   18.69
   5   0   6  415.86   19.18
  -5   0  -6  424.44   19.21
  -5   0  -7   29.38    4.76
   5   0   7   25.67    4.81
   5   0   7   30.35    4.81
   5   0   8  440.45   20.87
  -5   0  -8  405.64   19.19
  -5   0  -9  198.10   12.92
   5   0   9  243.03   15.56
  -5   0 -10   20.68    4.15
   5   0  10   19.50    4.62
   5   0  11  258.65   17.42
  -5   0 -11  225.08   13.49
   5   0  12   91.87   10.73
   5   0  13  113.30   12.50
  -5  -1  13  105.40   11.20
  -5  -1  12   61.95    8.26
  -5  -1  11  341.68   19.37
  -5  -1  10  117.04   10.50
  -5  -1   9    5.24    1.55
  -5  -1   9    7.48    3.02
  -5  -1   8  461.28   16.53
  -5  -1   8  511.91   21.41
  -5  -1   7   19.90    3.07
  -5  -1   7   17.13    3.72
  -5  -1   7   17.32    4.10
  -5  -1   6  354.98   16.85
   5   1  -6  334.47   17.10
  -5  -1   6  361.15   16.94
  -5  -1   6  353.10   14.38
   5   1  -5  421.16   18.58
  -5  -1   5  433.17   18.22
  -5  -1   5  411.19   17.77
  -5  -1   5  421.76   16.38
  -5  -1   4   18.32    3.35
  -5  -1   4   16.98    3.13
  -5  -1   4   17.83    3.55
   5   1  -4   13.66    3.15
  -5  -1   3  332.52   14.66
   5   1  -3  339.23   16.33
  -5  -1   3  350.89   15.14
   5   1  -3  319.76   14.90
  -5  -1   3  329.63   14.62
  -5  -1   2  721.96   23.29
  -5  -1   2  667.96   22.62
   5   1  -2  693.97   24.90
  -5  -1   1    7.41    2.11
   5   1  -1   10.16    2.40
   5   1  -1   12.71    3.00
  -5  -1   1   12.94    2.83
  -5  -1   1   13.63    2.88
   5   1  -1   10.05    2.26
   5   1   0  175.53   10.07
  -5  -1   0  177.67   10.30
   5   1   0  173.73    9.97
   5   1   0  165.44   11.04
  -5  -1   0  181.04   10.51
   5   1   1  211.85   11.30
  -5  -1  -1  214.78   11.54
   5   1   1  207.96   11.18
   5   1   1  203.22   12.21
   5   1   2   19.46    3.29
   5   1   2   21.89    4.03
  -5  -1  -2   23.92    3.84
   5   1   2   16.42    3.00
  -5  -1  -3  896.46   27.65
   5   1   3  863.35   26.94
   5   1   3  880.77   29.33
  -5  -1  -3  812.09   28.04
   5   1   3  880.08   27.18
   5   1   4  326.71   14.47
  -5  -1  -4  290.61   14.97
   5   1   5  160.66    9.93
  -5  -1  -5  132.23    9.91
   5   1   6  337.23   15.64
   5   1   6  333.38   17.10
  -5  -1  -6  298.34   15.51
  -5  -1  -7   11.90    3.04
   5   1   7    4.94    2.45
   5   1   7   14.23    3.22
   5   1   8  147.38   11.65
  -5  -1  -8  127.75    9.86
   5   1   9  718.42   28.70
  -5  -1  -9  621.02   24.24
  -5  -1 -10  103.74    8.71
   5   1  10  144.33   12.19
   5   1  11  300.31   18.95
  -5  -1 -11  269.53   14.39
   5   1  12  246.56   17.77
   5   1  13   12.21    4.26
  -5  -2  12    4.91    3.58
  -5  -2  11   90.47   10.19
  -5  -2  10  315.73   18.71
  -5  -2   9    3.23    1.59
  -5  -2   9    1.43    1.61
  -5  -2   8  317.55   13.34
  -5  -2   8  381.21   18.74
  -5  -2   7  147.03    8.74
  -5  -2   7  156.76   11.17
   5   2  -7  150.77   10.73
   5   2  -6    5.32    1.97
  -5  -2   6    2.94    1.33
  -5  -2   6    4.13    2.20
   5   2  -5   54.80    6.52
  -5  -2   5   52.03    5.33
  -5  -2   5   46.95    5.41
  -5  -2   5   54.51    6.02
   5   2  -5   57.60    6.49
  -5  -2   4  324.55   14.82
  -5  -2   4  316.03   14.65
   5   2  -4  336.00   15.97
   5   2  -4  315.77   15.96
  -5  -2   4  322.29   14.23
  -5  -2   3  261.80   12.72
  -5  -2   3  262.59   12.65
   5   2  -3  263.04   13.91
   5   2  -3  274.21   14.20
  -5  -2   3  255.41   12.66
  -5  -2   2  703.49   23.28
  -5  -2   2  735.62   23.35
   5   2  -2  651.19   24.11
   5   2  -2  744.17   25.39
  -5  -2   2  717.23   23.80
  -5  -2   1   40.02    4.63
  -5  -2   1   37.61    4.52
   5   2  -1   45.80    5.43
  -5  -2   1   45.87    5.14
   5   2   0   53.63    5.16
  -5  -2   0   52.62    5.29
   5   2   0   50.66    4.98
   5   2   0   58.78    6.18
  -5  -2   0   46.91    5.21
  -5  -2   0   54.38    5.34
   5   2   1  119.22    7.90
  -5  -2  -1  122.47    8.16
   5   2   1  120.65    7.83
   5   2   1  116.10    8.86
  -5  -2  -2  170.04    9.90
   5   2   2  161.08    9.41
   5   2   2  159.72    9.44
   5   2   2  184.00   11.33
  -5  -2  -3  296.56   13.64
   5   2   3  324.77   13.79
   5   2   3  326.96   15.58
  -5  -2  -3  299.77   14.80
   5   2   3  305.42   13.59
   5   2   4 1288.40   34.41
   5   2   4 1252.00   37.24
  -5  -2  -4 1192.16   36.16
   5   2   4 1239.49   34.12
   5   2   5   21.51    4.12
  -5  -2  -5   25.40    4.19
   5   2   5   27.93    3.84
   5   2   6  371.90   16.02
   5   2   6  383.39   17.84
  -5  -2  -6  360.36   16.88
   5   2   7  300.51   14.69
   5   2   7  316.14   15.96
  -5  -2  -7  279.93   14.84
  -5  -2  -8   12.22    2.71
   5   2   8   22.58    3.88
   5   2   8   14.57    3.38
   5   2   9  308.76   18.16
  -5  -2  -9  289.72   15.06
   5   2  10  566.30   26.23
  -5  -2 -10  541.12   21.58
  -5  -2 -11   41.81    5.32
   5   2  11   48.72    7.44
   5   2  12  340.55   21.20
   5   2  13  165.73   14.85
   5   2  14    6.14    2.78
  -5  -3  11   17.97    5.11
  -5  -3  10  257.97   17.40
  -5  -3   9   69.13    8.49
   5   3  -9   77.31    7.66
  -5  -3   8  191.04   13.54
   5   3  -8  180.57   11.97
  -5  -3   7  258.43   12.61
   5   3  -7  292.05   15.27
  -5  -3   6   86.37    7.01
  -5  -3   6  107.97    8.94
   5   3  -6  100.75    8.49
  -5  -3   5   17.90    3.65
   5   3  -5   19.62    3.70
  -5  -3   5   13.86    2.89
  -5  -3   5   18.59    3.55
  -5  -3   4  398.80   16.63
  -5  -3   4  412.39   17.01
  -5  -3   4  419.76   17.08
   5   3  -4  389.89   17.50
   5   3  -4  394.90   18.79
  -5  -3   3   37.45    4.79
  -5  -3   3   46.57    5.04
   5   3  -3   32.25    4.50
  -5  -3   3   40.86    4.66
   5   3  -3   36.67    5.27
  -5  -3   2  307.56   13.42
  -5  -3   2  298.15   13.13
   5   3  -2  270.68   14.69
   5   3  -2  298.16   14.70
  -5  -3   2  274.53   13.72
  -5  -3   1  392.78   15.49
  -5  -3   1  394.00   15.45
   5   3  -1  367.50   17.24
   5   3  -1  369.91   16.66
  -5  -3   1  373.80   16.47
  -5  -3   0    4.56    1.65
   5   3   0    4.85    2.25
  -5  -3   0    4.12    1.89
  -5  -3   0    4.00    1.41
   5   3   1  262.39   11.40
  -5  -3  -1  271.76   12.33
   5   3   1  259.87   11.34
   5   3   1  266.73   13.69
  -5  -3  -1  258.65   13.51
   5   3   2  395.21   14.82
  -5  -3  -2  376.55   15.18
   5   3   2  391.74   14.67
   5   3   2  398.48   17.27
  -5  -3  -2  364.50   16.70
   5   3   3    0.32    1.17
   5   3   3   -1.10    1.47
  -5  -3  -3    1.13    1.16
  -5  -3  -3    0.28    1.04
   5   3   3    0.86    0.91
   5   3   4  454.62   16.69
   5   3   4  475.76   19.43
  -5  -3  -4  443.13   19.02
   5   3   4  458.81   16.86
   5   3   5  203.81   10.45
   5   3   5  203.80   11.98
   5   3   5  174.02    9.74
  -5  -3  -5  174.01   11.26
   5   3   6   55.19    5.44
   5   3   6   60.13    6.75
  -5  -3  -6   55.41    6.30
   5   3   7  735.27   24.50
   5   3   7  743.57   26.68
  -5  -3  -7  712.95   25.93
   5   3   8  461.98   18.98
   5   3   8  456.40   20.09
  -5  -3  -8  447.89   19.50
  -5  -3  -9   91.13    8.42
   5   3   9  117.16    9.25
   5   3   9  103.54   10.30
   5   3   9  119.06    9.66
  -5  -3 -10  384.47   17.91
   5   3  10  442.93   22.98
   5   3  11   19.25    4.64
  -5  -3 -11   17.83    3.53
   5   3  12   63.91    8.98
   5   3  13  348.00   22.11
   5   3  14   62.96    9.48
  -5  -4  10   29.52    6.23
  -5  -4   9  144.33   12.94
   5   4  -9  133.90   10.54
   5   4  -8   18.78    4.13
   5   4  -7   35.52    5.18
  -5  -4   7   39.30    4.87
  -5  -4   6  243.12   12.87
   5   4  -6  268.55   14.35
  -5  -4   5   12.75    3.04
   5   4  -5    8.26    2.56
  -5  -4   5    9.10    2.45
  -5  -4   5   11.41    2.80
  -5  -4   4  238.83   12.42
  -5  -4   4  215.85   12.24
  -5  -4   4  227.09   12.11
   5   4  -4  231.88   13.08
  -5  -4   3  166.55    9.83
  -5  -4   3  180.04   10.99
  -5  -4   3  172.65    9.97
   5   4  -3  183.91   11.42
  -5  -4   2    0.74    0.95
   5   4  -2    1.10    1.49
  -5  -4   2    0.70    1.09
  -5  -4   2    1.32    1.23
   5   4  -2    0.67    1.53
  -5  -4   1  111.55    7.50
  -5  -4   1  109.15    8.61
  -5  -4   1  117.31    7.60
   5   4  -1   99.78    8.91
   5   4  -1  118.92    9.10
  -5  -4   0  333.95   15.92
  -5  -4   0  313.84   13.31
   5   4   0  326.93   15.75
  -5  -4   0  323.03   13.56
  -5  -4  -1   79.90    7.45
  -5  -4  -1   87.36    6.36
   5   4   1   90.62    7.93
   5   4   2 1186.67   29.86
  -5  -4  -2 1119.51   31.05
   5   4   2 1151.31   29.63
   5   4   2 1199.32   35.45
  -5  -4  -2 1211.55   35.95
  -5  -4  -3  219.25   12.91
   5   4   3  223.64   10.04
   5   4   3  219.56    9.83
   5   4   3  233.37   13.04
   5   4   4  106.74    6.94
  -5  -4  -4  111.13    8.93
   5   4   4   95.49    6.49
   5   4   4  105.58    8.68
  -5  -4  -5  242.68   13.87
   5   4   5  249.58   11.34
   5   4   5  279.78   14.49
   5   4   5  258.82   11.62
  -5  -4  -6  145.44   10.56
   5   4   6  156.41    8.95
   5   4   6  170.83   11.21
  -5  -4  -7  188.79   12.18
   5   4   7  191.24   10.46
   5   4   7  190.28   12.16
  -5  -4  -8 1262.11   38.36
   5   4   8 1277.42   35.88
   5   4   8 1264.54   38.59
   5   4   9    9.67    2.90
  -5  -4  -9    5.34    2.23
   5   4   9    6.93    2.31
   5   4   9    8.64    2.96
  -5  -4 -10  296.72   15.68
   5   4  10  307.83   19.26
   5   4  10  340.42   17.34
   5   4  11  280.79   18.88
   5   4  11  297.63   16.38
   5   4  12    5.03    2.64
   5   4  13  212.08   17.01
   5   4  14  263.49   19.84
   5   5  -9   82.64    8.30
   5   5  -8  111.57    9.54
   5   5  -7   13.80    3.40
   5   5  -6  160.89   11.31
  -5  -5   5   93.26    8.07
  -5  -5   5  105.21    8.49
   5   5  -5   97.18    8.77
  -5  -5   4  118.96    8.66
  -5  -5   4  137.29    9.21
   5   5  -4  140.31   10.32
  -5  -5   3  277.27   13.16
  -5  -5   3  295.55   13.46
   5   5  -3  294.51   15.31
  -5  -5   2   60.03    5.46
   5   5  -2   46.32    5.86
  -5  -5   2   59.52    5.35
  -5  -5   1    6.98    1.95
   5   5  -1    6.50    2.69
  -5  -5   1    9.95    2.42
  -5  -5   0  246.71   11.31
  -5  -5   0  252.65   11.29
   5   5   0  251.50   14.09
  -5  -5  -1   98.10    6.46
   5   5   1   95.26    8.51
  -5  -5  -2  352.84   13.01
   5   5   2  405.15   18.07
   5   5   3  501.80   20.96
   5   5   4    2.78    1.13
   5   5   4    0.64    1.97
   5   5   4    1.60    0.89
   5   5   5  263.09   10.85
   5   5   5  249.86   10.62
   5   5   5  248.63   14.24
   5   5   6  581.87   18.95
   5   5   6  624.88   24.12
   5   5   6  623.00   19.46
   5   5   7    1.91    1.38
   5   5   7    8.22    2.23
   5   5   8  446.58   17.32
   5   5   8  502.77   21.23
   5   5   9  235.04   12.39
   5   5   9  237.75   14.25
   5   5  10   17.32    3.94
   5   5  10   11.03    2.91
   5   5  11  378.35   22.55
   5   5  11  438.52   20.45
   5   5  12  224.14   17.39
   5   5  12  229.67   14.52
   5   5  13   30.39    6.79
   5   6  -8  105.31    9.65
   5   6  -7   27.48    4.87
   5   6  -6   13.91    3.44
  -5  -6   5  161.79   10.84
   5   6  -5  162.94   11.81
  -5  -6   4   13.22    2.76
   5   6  -4   15.47    3.76
  -5  -6   4   15.25    3.22
  -5  -6   3  113.52    7.99
  -5  -6   3  114.39    7.98
   5   6  -3  103.19    9.26
  -5  -6   2  255.42   11.86
  -5  -6   2  251.86   11.70
   5   6  -2  260.84   14.92
  -5  -6   1    0.44    1.06
   5   6  -1    1.52    1.68
  -5  -6   1    2.30    1.36
  -5  -6   0  399.72   14.47
   5   6   0  399.71   19.06
  -5  -6   0  407.51   14.63
  -5  -6  -1  287.43   10.93
   5   6   1  364.50   17.73
   5   6   2    1.47    1.73
   5   6   3  222.81   13.69
   5   6   4  279.51   15.57
   5   6   5   33.88    2.60
   5   6   5   39.69    5.82
   5   6   5   39.98    2.83
   5   6   6 1175.03   28.37
   5   6   6 1151.97   28.23
   5   6   6 1147.42   37.06
   5   6   7  132.55    7.43
   5   6   7  141.71    7.59
   5   6   8  106.29    7.04
   5   6   8  108.10    9.65
   5   6   8  107.58    7.07
   5   6   9  297.47   16.56
   5   6  10   60.96    7.32
   5   6  11  135.37   13.29
   5   6  11  124.74   10.65
   5   6  12  548.72   28.52
   5   6  12  553.39   24.42
   5   6  13   26.96    6.42
   5   7  -8   43.06    6.28
   5   7  -7   78.43    8.57
   5   7  -6    2.39    1.94
  -5  -7   6    9.28    3.22
  -5  -7   5   83.43    7.83
   5   7  -5   84.34    8.76
  -5  -7   4   94.85    7.74
   5   7  -4   92.57    9.27
   5   7  -3   26.29    4.87
  -5  -7   3   23.53    3.71
  -5  -7   2  114.70    7.53
  -5  -7   2  103.77    7.15
   5   7  -2  111.64   10.13
  -5  -7   1  168.13    8.75
   5   7  -1  185.65   13.04
  -5  -7   1  162.44    8.62
  -5  -7   0  123.98    6.45
   5   7   0  140.57   11.31
   5   7   1  428.65   20.88
   5   7   2   77.03    8.32
   5   7   3   13.36    3.48
   5   7   4  439.27   21.05
   5   7   5  158.34   12.18
   5   7   6  299.45   17.08
   5   7   7  535.12   23.81
   5   7   8   10.69    3.70
   5   7   9  204.30   14.04
   5   7  10  273.61   16.63
   5   7  11   10.23    3.55
   5   7  11   -1.24    3.63
   5   7  12  266.41   19.75
   5   7  12  258.11   16.39
   5   7  13   81.93   11.01
   5   8  -7   71.35    8.66
   5   8  -6   19.02    4.54
   5   8  -5   44.79    6.69
   5   8  -4  101.65   10.26
   5   8  -3   57.43    7.80
   5   8  -2   38.91    6.34
   5   8  -1  233.49   15.80
   5   8   0   26.02    5.21
   5   8   1  122.72   11.20
   5   8   2  254.01   16.44
   5   8   3    9.83    3.87
   5   8   4  444.82   22.32
   5   8   5  250.50   16.16
   5   8   6    2.31    2.71
   5   8   7  283.52   17.38
   5   8   8  157.09   12.71
   5   8   9   23.50    5.12
   5   8  10  520.25   24.76
   5   8  11  112.14   12.80
   5   8  11  141.43   12.18
   5   8  12   48.58    7.24
   5   8  12   40.13    8.04
   5   9  -6   66.49    8.82
   5   9  -5   28.57    5.73
   5   9  -4   40.22    6.75
   5   9  -3  106.63   11.33
   5   9  -2    8.16    3.59
   5   9  -1  140.76   12.90
   5   9   0  147.92   13.18
   5   9   1   22.14    5.48
   5   9   2  237.90   16.73
   5   9   3  214.96   15.71
   5   9   4   76.52    9.40
   5   9   5  458.68   23.75
   5   9   6   86.82   10.01
   5   9   7   28.02    5.79
   5   9   8  223.21   16.11
   5   9   9   66.98    8.58
   5   9  10  152.95   13.32
   5   9  11  205.45   15.40
   5   9  12    1.94    2.44
   5  10   1   47.77    8.06
   5  10   2   42.03    7.90
   5  10   3  170.84   14.89
   5  10   4   40.63    7.55
   5  10   5  162.70   14.39
   5  10   6  190.20   15.88
   5  10   7    8.74    4.02
   5  10   8  183.50   15.48
  -6  10   5    2.66    2.91
  -6  10   4   91.26   10.61
   6 -10  -3   91.71   12.09
   6 -10  -2    2.96    2.79
   6 -10  -1   76.46   11.40
   6 -10   0  116.03   14.25
   6 -10   1   -1.95    3.88
   6 -10   2  117.76   15.12
  -6   9   9   61.74    9.26
  -6   9   8   95.19   11.04
  -6   9   7   -0.27    3.09
  -6   9   6  131.16   12.89
  -6   9   5  136.41   12.80
  -6   9   4    5.57    2.69
   6  -9  -3  179.97   16.38
  -6   9   3  189.10   15.15
   6  -9  -2  110.63   12.87
  -6   9   2  117.61   11.74
   6  -9  -1   33.32    7.21
   6  -9   0  159.61   16.21
   6  -9   1   82.44   11.51
   6  -9   2   73.45   11.26
   6  -9   3  158.77   16.72
   6  -9   4   50.21    9.79
  -6   8  11   45.17    7.76
  -6   8  10   39.15    7.52
  -6   8   9   -3.13    3.54
  -6   8   8  237.65   17.62
  -6   8   7   64.83    8.85
  -6   8   6   65.56    9.15
  -6   8   5  212.84   15.95
   6  -8  -4   20.43    5.17
  -6   8   4    9.61    3.22
   6  -8  -3   60.09    9.08
  -6   8   3   66.92    8.78
   6  -8  -2  427.15   25.47
  -6   8   2  414.89   22.62
   6  -8  -1   74.23   10.43
  -6   8   1   77.45    9.29
   6  -8   0  179.87   16.54
   6  -8   1  236.94   19.15
   6  -8   2   31.38    7.17
   6  -8   3  110.89   13.37
   6  -8   4  168.21   16.31
   6  -8   5    2.67    3.28
   6  -8   6  204.64   18.62
  -6   7  11   17.71    5.76
  -6   7  10  107.60   11.80
  -6   7   9   31.30    6.17
  -6   7   8   95.01   10.65
  -6   7   7  447.81   23.97
  -6   7   6    4.24    2.32
  -6   7   5  186.41   14.55
   6  -7  -4  243.91   17.99
  -6   7   4  262.41   17.29
   6  -7  -3   -2.48    3.48
  -6   7   3   -2.51    3.14
   6  -7  -2  231.22   17.50
  -6   7   2  233.03   16.09
   6  -7  -1  683.10   31.86
  -6   7   1  618.17   27.87
   6  -7   0   23.43    5.87
  -6   7   0   36.37    6.41
   6  -7   1  379.22   23.67
   6  -7   2  278.65   19.98
   6  -7   3   11.71    4.11
   6  -7   4  253.98   14.22
   6  -7   4  316.93   21.48
   6  -7   5   54.36    6.82
   6  -7   5   69.62    9.90
   6  -7   6   51.00    9.33
  -6   6  12  119.00   12.99
  -6   6  11    6.57    3.32
  -6   6  10  140.06   13.54
  -6   6   9  169.12   14.53
  -6   6   8    5.48    3.24
  -6   6   7  293.42   18.55
  -6   6   6  220.57   15.60
  -6   6   5    9.55    3.44
   6  -6  -4  518.38   26.01
  -6   6   4  541.97   25.15
   6  -6  -3  336.95   20.65
  -6   6   3  346.18   19.45
   6  -6  -2  101.98   11.17
  -6   6   2   98.21    9.97
   6  -6  -1  470.48   24.97
  -6   6   1  444.59   22.50
   6  -6   0    0.83    2.14
  -6   6   0    7.61    2.70
   6  -6   1   72.97    9.42
  -6   6  -1   84.47    9.37
   6  -6   1   61.19    4.52
   6  -6   2  508.49   17.84
   6  -6   2  568.88   27.91
   6  -6   3   54.17    5.68
   6  -6   3   61.88    8.94
   6  -6   4  306.74   15.33
   6  -6   4  329.76   21.05
   6  -6   5  186.51   12.48
   6  -6   5  181.76   15.82
   6  -6   6    8.91    3.12
   6  -6   7  111.39   10.66
   6  -6   8  106.29   10.99
   6  -6   9    4.12    3.05
   6  -6  10   92.63   11.34
  -6   5  12   98.87   11.73
  -6   5  11  122.73   12.61
  -6   5  10   22.76    5.60
  -6   5   9  584.61   27.64
  -6   5   8   77.19    9.19
  -6   5   7   74.80    8.88
  -6   5   6  339.88   19.30
  -6   5   5   96.05    9.65
   6  -5  -4  201.67   14.90
  -6   5   4  192.90   13.87
   6  -5  -3 1743.29   54.20
  -6   5   3 1811.80   52.60
   6  -5  -2    3.55    2.20
  -6   5   2   13.03    3.75
   6  -5  -1  480.19   24.18
  -6   5   1  440.05   21.91
   6  -5   0  620.51   27.95
   6  -5   0  545.27   15.12
  -6   5   0  614.84   26.15
   6  -5   1   22.65    4.93
   6  -5   1   23.51    2.85
  -6   5  -1   19.54    4.42
   6  -5   2  429.56   22.87
   6  -5   2  401.90   15.26
   6  -5   3  501.79   18.86
   6  -5   3  527.36   25.80
   6  -5   4    2.40    2.89
   6  -5   4    3.94    1.79
   6  -5   5  372.10   17.81
   6  -5   5  397.20   22.51
   6  -5   6  108.56    9.69
   6  -5   7   32.90    5.68
   6  -5   8  190.40   14.63
   6  -5   9    9.24    3.74
   6  -5  10   21.38    5.70
   6  -5  11  106.56   12.41
  -6   4  12   18.82    5.47
  -6   4  11  185.22   15.36
  -6   4  10   53.92    7.87
  -6   4   9  280.23   17.98
  -6   4   8  452.43   22.87
   6  -4  -8  431.97   16.75
   6  -4  -7   15.77    2.60
  -6   4   7   18.26    4.31
  -6   4   6  207.72   14.38
   6  -4  -6  191.83    8.39
  -6   4   5  598.33   25.34
   6  -4  -5  557.80   15.14
   6  -4  -4    3.29    2.15
  -6   4   4    5.10    2.14
   6  -4  -4    4.77    0.90
   6  -4  -3  593.59   25.94
   6  -4  -3  543.59   13.12
   6  -4  -3  537.31   13.14
  -6   4   3  593.32   24.82
   6  -4  -2  278.14   16.91
  -6   4   2  260.34   15.65
   6  -4  -2  226.50    7.62
   6  -4  -2  245.12    7.62
   6  -4  -1    5.10    2.13
   6  -4  -1    5.50    1.19
  -6   4   1    6.31    2.75
   6  -4   0  934.73   34.36
  -6   4   0  874.06   32.02
   6  -4   0  846.12   22.63
  -6   4  -1  385.59   19.68
   6  -4   1  356.60   13.33
   6  -4   1  392.66   20.83
  -6   4  -2  201.98   13.89
   6  -4   2  186.39    9.86
   6  -4   2  190.88   14.05
   6  -4   3  457.03   17.90
   6  -4   3  498.11   23.88
   6  -4   4   40.21    6.50
   6  -4   4   35.50    4.74
   6  -4   5   91.11    8.20
   6  -4   6  356.75   18.04
   6  -4   7   71.39    8.31
   6  -4   8  154.30   12.73
   6  -4   9  129.15   12.21
   6  -4  10   12.56    4.52
   6  -4  11  113.98   12.58
  -6   3  12   10.68    3.15
  -6   3  12    7.47    3.88
  -6   3  11  302.26   19.67
  -6   3  11  306.31   15.43
  -6   3  10  208.39   15.67
   6  -3  -9    4.80    2.69
  -6   3   9    2.66    1.60
  -6   3   9    2.03    2.59
  -6   3   8  353.27   19.50
   6  -3  -8  345.12   16.19
  -6   3   8  367.19   17.35
  -6   3   7  340.69   18.60
  -6   3   7  318.74   16.43
  -6   3   6   28.92    4.78
  -6   3   6   29.00    5.23
   6  -3  -6   29.43    3.79
   6  -3  -5 1966.46   47.39
  -6   3   5 2186.47   57.61
   6  -3  -4  200.71    9.13
  -6   3   4  206.59   13.57
   6  -3  -3  175.36   13.05
  -6   3   3  191.54   12.91
   6  -3  -3  178.38    8.27
   6  -3  -2  897.53   31.80
  -6   3   2  902.40   30.83
   6  -3  -1  366.80   19.21
  -6   3   1  330.53   17.64
   6  -3  -1  366.70   18.92
   6  -3   0  324.45   18.02
  -6   3   0  320.27   17.18
   6  -3   0  342.19   18.36
   6  -3   0  289.23   12.14
   6  -3   1 1416.97   36.46
  -6   3  -1 1454.00   44.07
   6  -3   1 1422.16   44.97
   6  -3   2   58.61    5.56
  -6   3  -2   70.68    7.86
   6  -3   2   63.63    7.78
   6  -3   3  491.78   18.87
   6  -3   3  512.64   23.40
   6  -3   4  215.70   12.25
   6  -3   4  213.79   14.65
   6  -3   5   -1.33    1.91
   6  -3   6  265.38   15.22
   6  -3   7  199.31   13.61
   6  -3   8    4.35    2.50
   6  -3   9  305.97   18.81
   6  -3  10   16.36    4.61
   6  -3  11   -1.16    2.30
   6  -3  12   67.33    9.88
  -6   2  13  144.91   12.00
  -6   2  12  186.86   15.68
  -6   2  12  157.64   12.04
  -6   2  11   80.32    9.98
  -6   2  11   90.95    8.49
  -6   2  10  520.06   25.55
  -6   2  10  500.09   20.83
  -6   2   9  104.23   10.57
   6  -2  -9  108.62    9.89
  -6   2   9  109.23    8.26
  -6   2   8    3.59    1.25
  -6   2   8    7.36    2.64
   6  -2  -8    8.09    2.96
   6  -2  -7  565.92   22.44
  -6   2   7  635.05   26.09
  -6   2   7  624.71   23.44
  -6   2   6  231.99   14.66
  -6   2   6  248.76   13.84
  -6   2   5  456.28   20.71
  -6   2   5  454.50   19.42
  -6   2   4  851.41   30.12
  -6   2   4  871.78   29.31
   6  -2  -4  774.71   24.49
  -6   2   3   49.85    6.32
   6  -2  -3   50.63    6.58
  -6   2   3   55.24    6.76
   6  -2  -3   55.58    6.94
  -6   2   3   62.45    6.87
   6  -2  -3   51.56    4.97
   6  -2  -2  586.69   24.53
  -6   2   2  602.26   23.92
   6  -2  -2  604.73   24.69
  -6   2   2  634.34   23.96
  -6   2   2  606.32   24.05
   6  -2  -1  752.55   28.63
  -6   2   1  774.53   28.20
   6  -2  -1  763.57   28.56
  -6   2   1  770.73   27.81
  -6   2   1  785.28   28.43
   6  -2   0   -0.72    2.31
  -6   2   0    1.21    1.72
  -6   2   0   -0.35    2.10
   6  -2   0    1.95    1.77
   6  -2   1  809.79   30.12
  -6   2  -1  801.77   29.51
   6  -2   1  792.30   29.68
  -6   2  -1  884.65   30.03
  -6   2  -2  567.60   23.80
   6  -2   2  568.79   23.72
   6  -2   2  528.85   19.96
  -6   2  -2  579.63   23.56
   6  -2   2  541.14   23.52
   6  -2   3   29.37    5.11
   6  -2   3   29.91    4.40
  -6   2  -3   23.26    4.49
  -6   2  -3   34.80    5.52
   6  -2   4  651.79   24.18
  -6   2  -4  696.41   27.08
   6  -2   4  647.99   26.41
   6  -2   5  229.81   13.48
   6  -2   6   66.72    7.33
   6  -2   7  301.66   17.07
   6  -2   8    3.76    2.10
   6  -2   9  104.82   10.71
   6  -2  10  131.61   12.54
   6  -2  11   52.90    8.14
   6  -2  12  118.65   12.79
  -6   1  14   55.89    8.14
  -6   1  13   51.62    7.71
  -6   1  12  210.72   16.72
  -6   1  12  201.36   14.36
  -6   1  11   10.76    3.55
  -6   1  11   12.91    3.81
  -6   1  10  246.31   16.84
  -6   1  10  246.68   14.64
  -6   1   9  372.59   20.22
  -6   1   9  324.97   14.65
  -6   1   8   23.32    3.69
   6  -1  -8   15.70    3.64
  -6   1   8   28.78    5.41
  -6   1   7 1122.43   36.97
  -6   1   7 1127.08   33.28
   6  -1  -6  443.03   19.53
  -6   1   6  466.04   21.18
  -6   1   6  488.82   19.75
   6  -1  -5    2.85    1.56
  -6   1   5    4.13    2.25
  -6   1   5    2.11    1.56
  -6   1   4  871.81   30.22
  -6   1   4  827.07   29.34
  -6   1   4  838.85   28.69
  -6   1   3  852.06   29.70
  -6   1   3  857.32   29.57
  -6   1   3  897.48   30.45
   6  -1  -2   47.62    6.20
  -6   1   2   45.05    5.70
   6  -1  -2   55.78    6.53
  -6   1   2   40.77    5.60
   6  -1  -2   40.75    4.76
  -6   1   2   55.91    6.51
   6  -1  -1 1617.42   47.53
  -6   1   1 1689.95   47.49
   6  -1  -1 1728.69   48.08
  -6   1   1 1766.27   48.18
  -6   1   1 1742.95   48.01
   6  -1   0  426.24   19.87
  -6   1   0  428.44   19.43
   6  -1   0  438.78   19.86
  -6   1   0  469.08   20.21
   6  -1   1  270.20   15.55
  -6   1  -1  300.39   15.96
   6  -1   1  296.67   15.98
  -6   1  -1  312.22   16.28
  -6   1  -2  382.14   18.39
   6  -1   2  349.24   17.54
  -6   1  -2  364.84   18.06
   6  -1   2  329.97   17.30
  -6   1  -3  101.00    9.19
   6  -1   3   94.91    8.69
  -6   1  -3   92.09    8.71
   6  -1   3   95.86    8.72
   6  -1   4  210.73   13.27
   6  -1   4  201.42   12.54
  -6   1  -4  230.59   14.30
   6  -1   4  196.75   12.85
   6  -1   5  704.59   26.98
  -6   1  -5  818.73   29.82
   6  -1   6  121.66   10.20
  -6   1  -6  118.54   10.55
   6  -1   7  392.08   19.99
  -6   1  -7  429.69   21.15
   6  -1   8   45.72    6.71
   6  -1   9    0.70    2.90
   6  -1  10   87.45   10.05
   6  -1  11  126.82   12.68
   6  -1  12   -1.14    2.60
  -6   0  13    7.52    4.01
  -6   0  12  217.11   17.15
  -6   0  12  239.56   16.39
  -6   0  11  177.76   14.99
  -6   0  11  166.59   13.03
  -6   0  10   64.44    8.69
  -6   0  10   58.78    7.24
  -6   0   9  424.87   21.71
  -6   0   9  368.78   15.39
  -6   0   8  458.43   22.10
  -6   0   8  429.70   17.32
   6   0  -7  118.58   10.27
  -6   0   7  105.07    9.74
  -6   0   7  102.81    7.93
   6   0  -6  875.32   30.75
  -6   0   6  883.78   30.94
  -6   0   6  867.15   28.29
   6   0  -5  228.06   13.46
  -6   0   5  246.19   14.22
  -6   0   5  238.72   13.06
  -6   0   4  112.07    9.21
  -6   0   4  109.60    9.13
  -6   0   4  120.59    9.13
   6   0  -4  100.72    8.41
  -6   0   3  816.04   27.85
  -6   0   3  790.95   27.56
   6   0  -3  709.21   25.32
  -6   0   3  790.09   27.18
   6   0  -2  247.92   13.97
  -6   0   2  262.83   14.29
   6   0  -2  252.99   14.09
  -6   0   2  243.64   13.95
  -6   0   2  254.31   14.06
   6   0  -1  683.82   25.46
  -6   0   1  750.92   26.16
   6   0  -1  687.81   25.39
  -6   0   1  684.05   25.63
  -6   0   1  728.79   25.93
   6   0   0 1463.35   42.24
  -6   0   0 1455.78   42.05
   6   0   0 1480.51   42.33
  -6   0   0 1450.96   42.53
  -6   0   0 1514.23   42.67
   6   0   1    7.75    2.03
  -6   0  -1   13.39    3.53
  -6   0  -1   11.20    3.17
   6   0   1   13.45    3.31
  -6   0  -2  453.54   20.27
   6   0   2  459.40   20.11
  -6   0  -2  515.65   21.69
   6   0   2  476.99   20.53
  -6   0  -3  273.70   15.17
   6   0   3  294.50   15.36
  -6   0  -3  316.18   16.58
   6   0   3  277.32   15.08
   6   0   4   -0.06    1.26
  -6   0  -4    0.79    1.69
   6   0   4   -0.29    1.14
   6   0   5  532.22   22.40
  -6   0  -5  592.09   24.45
   6   0   6  150.64   11.64
  -6   0  -6  153.85   11.81
   6   0   7   89.75    9.29
  -6   0  -7   94.85    9.28
   6   0   8  231.70   15.68
  -6   0  -8  261.02   15.95
  -6   0  -9   91.05    9.40
   6   0   9   96.09   10.03
   6   0  10   86.16    9.93
   6   0  11  191.47   15.76
   6   0  12    1.45    2.89
   6   0  13   69.10   10.11
  -6  -1  12   88.65   10.89
  -6  -1  12   86.77   10.16
  -6  -1  11  227.12   16.97
  -6  -1  11  222.78   15.88
  -6  -1  10  131.63   12.33
  -6  -1  10  125.59   11.27
  -6  -1   9  228.15   15.66
  -6  -1   8  486.03   22.66
  -6  -1   8  412.89   17.13
  -6  -1   7  120.14   10.40
  -6  -1   7  102.04    7.86
  -6  -1   6  563.81   22.92
  -6  -1   6  492.55   19.59
  -6  -1   5  846.16   29.15
  -6  -1   5  785.47   26.73
   6   1  -5  825.66   29.61
  -6  -1   4   29.16    4.66
  -6  -1   4   22.58    4.04
  -6  -1   4   29.80    4.63
   6   1  -4   32.75    4.90
  -6  -1   3  734.03   25.52
  -6  -1   3  698.38   25.02
   6   1  -3  629.68   24.31
  -6  -1   3  660.30   24.40
  -6  -1   2  733.26   25.46
  -6  -1   2  687.35   24.75
  -6  -1   2  676.68   24.83
  -6  -1   1   10.58    2.70
   6   1  -1    8.32    2.73
  -6  -1   1   14.28    3.29
  -6  -1   1   10.81    2.97
   6   1  -1    7.31    2.17
  -6  -1   0  554.52   21.62
   6   1   0  561.86   21.50
   6   1   0  529.24   21.08
  -6  -1   0  545.14   22.09
  -6  -1   0  552.83   21.65
   6   1   1  477.26   19.71
  -6  -1  -1  469.19   19.76
   6   1   1  478.76   19.57
  -6  -1  -1  471.57   20.53
   6   1   2   46.07    5.71
  -6  -1  -2   43.79    5.93
   6   1   2   54.41    6.09
  -6  -1  -2   45.91    5.72
  -6  -1  -3  877.31   29.67
   6   1   3  873.34   29.05
  -6  -1  -3  874.94   30.79
   6   1   3  920.17   29.71
   6   1   4  471.05   19.79
  -6  -1  -4  477.47   21.45
   6   1   4  488.45   20.13
   6   1   5  282.97   14.73
  -6  -1  -5  251.11   15.09
   6   1   5  245.62   13.94
   6   1   6   91.43    8.31
  -6  -1  -6   86.96    8.65
   6   1   7   85.15    9.03
  -6  -1  -7   76.43    8.28
  -6  -1  -8   39.87    5.81
   6   1   8   57.47    7.54
   6   1   9  371.30   20.75
  -6  -1  -9  305.84   17.52
  -6  -1 -10   55.15    7.11
   6   1  10   67.91    8.98
   6   1  11  124.68   12.54
   6   1  12   55.55    8.71
   6   1  13   -3.55    4.28
  -6  -2  12  100.79   11.37
  -6  -2  11  175.21   14.93
  -6  -2  11  182.89   14.81
  -6  -2  10  348.03   20.63
  -6  -2   9    5.12    3.43
  -6  -2   8  348.71   15.52
  -6  -2   8  392.21   20.27
  -6  -2   7  325.48   15.28
  -6  -2   7  376.89   19.01
  -6  -2   6    2.49    1.79
  -6  -2   6   -1.91    2.67
  -6  -2   5  526.46   21.73
   6   2  -5  538.31   23.43
  -6  -2   5  510.65   20.32
  -6  -2   4  572.24   22.42
  -6  -2   4  595.25   22.57
   6   2  -4  577.91   24.32
   6   2  -4  553.79   23.45
  -6  -2   4  527.96   21.20
  -6  -2   3  180.30   11.39
  -6  -2   3  174.26   11.15
   6   2  -3  190.75   12.90
   6   2  -3  171.45   11.86
  -6  -2   3  160.57   10.77
  -6  -2   2 1289.39   36.95
  -6  -2   2 1241.56   36.34
   6   2  -2 1254.23   39.19
   6   2  -2 1176.96   37.24
  -6  -2   2 1186.04   36.30
  -6  -2   1  158.02   10.28
   6   2  -1  147.54   10.57
   6   2  -1  164.02   11.75
  -6  -2   1  139.49   10.21
  -6  -2   1  160.19   10.46
   6   2   0   99.29    8.01
  -6  -2   0  121.03    8.96
   6   2   0  125.25    8.76
   6   2   0  120.99   10.08
  -6  -2   0  120.17    9.48
  -6  -2   0  126.40    9.11
   6   2   1  193.50   11.13
  -6  -2  -1  177.56   11.13
   6   2   1  186.72   10.96
   6   2   1  174.48   12.30
  -6  -2  -1  155.06   11.07
   6   2   2  166.58   10.48
  -6  -2  -2  150.76   10.39
   6   2   2  166.14   10.46
   6   2   2  166.87   11.98
  -6  -2  -2  152.20   11.05
   6   2   3  451.06   18.84
  -6  -2  -3  452.71   19.14
   6   2   3  445.44   18.61
   6   2   3  473.73   21.29
  -6  -2  -3  448.44   20.22
   6   2   4  441.34   18.51
   6   2   4  469.57   21.28
  -6  -2  -4  434.92   20.28
   6   2   4  489.96   19.43
   6   2   5   17.88    3.49
   6   2   5   13.15    3.00
  -6  -2  -5   13.28    3.48
   6   2   5   14.32    3.20
   6   2   6  199.74   12.01
  -6  -2  -6  170.97   12.24
   6   2   7   75.92    7.58
  -6  -2  -7   77.96    8.17
   6   2   8   11.11    3.37
  -6  -2  -8    9.84    3.05
   6   2   9  236.34   16.52
   6   2  10   96.65   10.86
   6   2  11    8.10    3.74
   6   2  12  177.77   15.64
   6   2  13   51.06    8.88
  -6  -3  11    5.19    2.72
  -6  -3  10  230.64   16.73
  -6  -3   9  199.93   14.91
  -6  -3   8  147.46   12.29
   6   3  -8  165.45   12.50
  -6  -3   7  498.91   22.41
   6   3  -7  498.97   22.60
  -6  -3   6  153.93   10.32
  -6  -3   6  151.14   11.29
   6   3  -6  160.52   12.01
  -6  -3   5   71.58    7.03
  -6  -3   5   61.52    6.79
   6   3  -5   54.71    6.99
  -6  -3   4  574.59   22.67
  -6  -3   4  612.75   23.14
  -6  -3   4  590.51   22.76
   6   3  -4  629.24   25.16
  -6  -3   3   89.56    7.77
  -6  -3   3   82.85    7.43
   6   3  -3   86.50    8.29
  -6  -3   3   78.96    7.63
  -6  -3   2  522.22   20.43
  -6  -3   2  538.85   20.60
   6   3  -2  529.49   22.40
  -6  -3   2  512.90   21.34
  -6  -3   1  673.88   23.76
   6   3  -1  650.36   25.92
   6   3  -1  693.23   26.32
  -6  -3   1  671.65   25.17
  -6  -3   1  699.77   24.28
  -6  -3   0    6.07    2.07
   6   3   0    6.13    2.61
  -6  -3   0    7.96    2.91
  -6  -3   0    3.67    1.48
   6   3   1  382.82   16.01
  -6  -3  -1  438.18   17.75
   6   3   1  394.88   16.09
   6   3   1  390.77   18.93
  -6  -3  -1  382.43   18.29
   6   3   2  690.73   23.04
  -6  -3  -2  635.89   23.37
   6   3   2  666.72   22.69
   6   3   2  719.67   26.75
  -6  -3  -2  657.32   25.59
   6   3   3   22.92    3.61
   6   3   3   30.25    5.04
  -6  -3  -3   27.24    4.56
  -6  -3  -3   24.08    3.87
   6   3   3   27.16    3.93
   6   3   4  182.46   10.81
   6   3   4  184.62   12.69
  -6  -3  -4  175.76   12.22
   6   3   4  194.57   11.23
   6   3   5  336.60   15.47
   6   3   5  359.27   18.25
  -6  -3  -5  325.39   17.27
   6   3   5  349.60   15.77
   6   3   6   14.63    3.10
   6   3   6   13.46    3.97
   6   3   6   16.29    3.38
   6   3   7  421.60   18.40
   6   3   7  414.59   20.51
   6   3   8  205.49   12.67
   6   3   8  200.51   13.80
   6   3   9   54.97    8.09
   6   3  10  110.06   11.71
   6   3  11   13.37    4.65
   6   3  12   73.68   10.24
   6   3  13  225.75   18.13
  -6  -4  10   62.82    8.85
  -6  -4   9  261.07   17.39
   6   4  -9  274.35   16.76
   6   4  -8   26.35    5.10
  -6  -4   8   36.79    6.23
  -6  -4   7  233.36   14.94
   6   4  -7  212.65   14.30
  -6  -4   6  446.47   20.43
   6   4  -6  402.02   20.02
   6   4  -5    1.26    1.90
  -6  -4   5    1.56    1.75
  -6  -4   4  443.88   19.11
  -6  -4   4  445.32   19.03
   6   4  -4  426.57   20.21
  -6  -4   3  289.83   14.63
  -6  -4   3  292.71   14.51
   6   4  -3  309.29   16.47
  -6  -4   2    0.64    1.26
   6   4  -2    0.87    1.70
  -6  -4   2    0.06    1.44
  -6  -4   1  112.92    8.39
   6   4  -1  112.53    9.76
  -6  -4   1  115.38    8.51
  -6  -4   0  370.33   16.07
   6   4   0  344.70   17.73
  -6  -4   0  377.81   16.27
  -6  -4  -1  169.82   10.27
   6   4   1  160.99   11.73
   6   4   2  403.72   15.51
  -6  -4  -2  389.16   16.45
   6   4   2  381.06   15.19
   6   4   2  409.39   19.23
   6   4   3   28.25    3.71
   6   4   3   25.56    4.63
  -6  -4  -3   24.31    3.64
   6   4   3   31.20    3.85
   6   4   4   53.53    5.46
   6   4   4   57.60    5.56
   6   4   4   66.79    7.44
   6   4   5   57.34    5.68
   6   4   5   63.80    7.39
   6   4   5   56.44    5.73
   6   4   6   28.47    4.14
   6   4   6   21.11    4.51
   6   4   6   19.35    3.34
   6   4   7  187.08   11.17
   6   4   7  191.42   13.20
   6   4   7  181.86   11.06
   6   4   8  318.72   15.73
   6   4   8  359.40   18.87
   6   4   9    9.98    3.24
   6   4   9    6.84    1.91
   6   4  10  144.83   13.62
   6   4  10  160.50   12.53
   6   4  11   56.10    8.93
   6   4  12   -0.49    2.73
   6   4  13  103.03   12.25
  -6  -5  10    3.87    3.34
  -6  -5   9  162.22   13.64
  -6  -5   8  184.80   13.89
   6   5  -8  156.64   12.44
   6   5  -7    8.28    3.05
  -6  -5   7    3.84    2.36
  -6  -5   6  303.97   16.60
   6   5  -6  274.88   16.36
  -6  -5   5  169.27   11.66
   6   5  -5  190.20   13.14
  -6  -5   4  213.32   12.65
  -6  -5   4  213.34   12.59
   6   5  -4  205.98   13.83
  -6  -5   3  445.13   18.69
  -6  -5   3  464.01   18.85
   6   5  -3  435.34   20.82
  -6  -5   2   73.12    6.77
  -6  -5   2   64.94    6.35
   6   5  -2   66.82    7.48
  -6  -5   1   56.31    5.82
   6   5  -1   53.55    6.92
  -6  -5   1   53.54    5.73
  -6  -5   0  521.60   19.38
   6   5   0  508.75   22.64
  -6  -5   0  525.07   19.43
   6   5   1   27.84    4.92
  -6  -5  -1   22.32    3.49
  -6  -5  -2  201.56   10.72
   6   5   2  236.41   14.49
   6   5   3  537.64   23.40
   6   5   4    2.21    1.27
   6   5   4    3.40    2.30
   6   5   4    1.00    0.97
   6   5   5  151.82    8.94
   6   5   5  160.28    9.06
   6   5   5  161.24   12.04
   6   5   6  187.68   10.28
   6   5   6  182.71   13.00
   6   5   6  188.84   10.43
   6   5   7    1.15    1.41
   6   5   7   -1.10    2.84
   6   5   7   -1.32    1.60
   6   5   8  191.68   11.21
   6   5   8  194.40   13.68
   6   5   8  191.66   11.31
   6   5   9   98.06    8.16
   6   5   9   92.49    9.49
   6   5  10   29.18    5.35
   6   5  10   27.83    5.92
   6   5  11  214.46   17.55
   6   5  11  222.07   15.33
   6   5  12  139.79   14.30
   6   5  12  132.59   11.79
  -6  -6   9   45.30    7.35
  -6  -6   8  164.49   13.25
   6   6  -8  151.16   12.38
   6   6  -7   69.72    8.22
  -6  -6   7   73.63    8.55
   6   6  -6   39.09    6.10
  -6  -6   6   41.11    5.98
  -6  -6   5  251.88   14.46
   6   6  -5  221.77   14.95
   6   6  -4   23.06    4.52
  -6  -6   4   24.29    4.31
  -6  -6   3   54.46    5.96
   6   6  -3   51.85    7.04
  -6  -6   3   64.73    6.48
  -6  -6   2  282.60   13.80
  -6  -6   2  274.52   13.70
   6   6  -2  268.16   16.33
  -6  -6   1    1.89    1.37
   6   6  -1    5.09    3.06
  -6  -6   1    1.26    1.21
  -6  -6   0  103.20    7.49
   6   6   0  114.00   10.32
  -6  -6   0  108.29    7.70
  -6  -6  -1  105.80    7.20
   6   6   1  108.34   10.19
   6   6   2    2.66    2.87
  -6  -6  -2    0.02    0.76
   6   6   3   60.16    7.55
   6   6   4   97.70    9.58
   6   6   5   46.63    3.93
   6   6   5   44.88    6.52
   6   6   5   39.49    3.62
   6   6   6  345.12   13.06
   6   6   6  338.30   12.89
   6   6   6  339.23   18.71
   6   6   7  104.60    7.19
   6   6   7  105.97   10.12
   6   6   8   47.03    6.73
   6   6   8   51.04    5.22
   6   6   9   52.06    7.25
   6   6   9   57.37    5.82
   6   6  10   30.32    5.99
   6   6  11   73.92   10.59
   6   6  11   83.47    9.43
   6   6  12  287.83   21.12
   6   6  12  297.80   18.33
   6   7  -7  112.44   10.99
   6   7  -6   21.25    5.01
  -6  -7   6   21.50    4.33
  -6  -7   5  145.38   10.76
   6   7  -5  150.27   12.71
  -6  -7   4  102.24    8.47
   6   7  -4   91.72    9.78
   6   7  -3    2.62    2.47
  -6  -7   3   -0.79    1.59
  -6  -7   2  245.74   12.57
   6   7  -2  216.21   15.27
  -6  -7   1   92.34    6.93
   6   7  -1   79.74    9.19
  -6  -7   0   96.93    6.66
   6   7   0   88.64    9.61
  -6  -7  -1  290.09   10.68
   6   7   1  358.73   19.42
   6   7   2   28.44    5.70
   6   7   3   18.38    4.87
   6   7   4  104.12   10.50
   6   7   5   36.41    6.20
   6   7   6  176.72   13.68
   6   7   7  217.84   15.32
   6   7   8    4.70    3.04
   6   7   9  105.14   10.48
   6   7  10  140.93   12.43
   6   7  11   -5.39    4.08
   6   7  11    3.09    2.35
   6   7  12  136.35   12.46
   6   8  -6   42.41    7.09
   6   8  -5   13.28    4.34
   6   8  -4  139.13   12.73
   6   8  -3   21.69    4.99
   6   8  -2    5.75    3.50
   6   8  -1  132.86   12.39
   6   8   0   13.63    4.02
   6   8   1   71.10    9.06
   6   8   2  147.29   12.85
   6   8   3    0.47    2.44
   6   8   4  109.27   11.21
   6   8   5  187.10   14.70
   6   8   6    5.58    3.07
   6   8   7   66.69    8.77
   6   8   8   61.39    8.42
   6   8   9   17.99    4.17
   6   8  10  272.43   18.21
   6   8  11   47.63    7.32
   6   8  12   51.85    7.98
   6   9  -3   68.84    9.64
   6   9  -2    6.22    3.50
   6   9  -1   81.89   10.05
   6   9   0   46.44    7.38
   6   9   1   -0.54    3.43
   6   9   2   51.22    7.91
   6   9   3   85.16   10.42
   6   9   4   69.72    9.48
   6   9   5  218.11   16.65
   6   9   6   26.30    5.92
   6   9   7    7.35    3.62
   6   9   8   88.42   10.61
   6   9   9   42.49    7.49
   6   9  10   94.85   11.10
   6   9  11  166.78   14.69
   7 -10  -3   10.53    5.43
   7 -10  -2    7.75    4.88
  -7   9   8   29.72    6.92
  -7   9   7    2.86    2.81
  -7   9   6  116.65   12.80
  -7   9   5   29.63    6.36
  -7   9   4   20.49    4.84
   7  -9  -3   93.32   12.63
  -7   9   3   96.90   11.19
   7  -9  -2   38.81    8.63
  -7   9   2   42.00    8.12
   7  -9  -1   34.90    8.04
   7  -9   0  122.48   14.79
   7  -9   1    3.66    3.90
   7  -9   2   17.09    5.83
  -7   8   9   10.40    4.61
  -7   8   8  162.56   15.00
  -7   8   7   53.92    8.72
  -7   8   6   89.51   10.90
  -7   8   5   37.69    7.36
   7  -8  -4    0.05    4.19
  -7   8   4    9.89    4.18
   7  -8  -3   32.33    7.08
  -7   8   3   28.96    6.24
   7  -8  -2  177.50   16.88
  -7   8   2  170.95   15.02
   7  -8  -1    2.75    3.01
  -7   8   1    5.54    3.14
   7  -8   0  115.74   13.87
   7  -8   1   61.40   10.21
   7  -8   2    2.94    3.36
   7  -8   3  105.06   13.61
   7  -8   4  106.83   13.60
  -7   7  10   55.03    9.10
  -7   7   9    8.51    3.87
  -7   7   8  140.05   13.84
  -7   7   7  152.72   14.17
  -7   7   6    1.39    2.27
  -7   7   5  115.71   12.02
   7  -7  -4   79.11   10.81
  -7   7   4   78.99    9.69
   7  -7  -3   10.10    3.93
  -7   7   3    2.78    2.37
   7  -7  -2  201.22   17.36
  -7   7   2  212.45   16.46
   7  -7  -1   58.00    9.54
  -7   7   1   77.08    9.74
   7  -7   0    5.06    3.79
  -7   7   0    8.15    3.31
   7  -7   1  185.09   16.73
   7  -7   2   57.11    9.54
   7  -7   3   57.43    9.61
   7  -7   4  166.61   16.54
   7  -7   5   20.02    6.13
  -7   6  10  101.75   12.14
  -7   6   9  132.68   13.41
  -7   6   8   14.94    4.05
  -7   6   7   70.02    9.34
  -7   6   6   59.45    8.50
  -7   6   5    8.26    3.62
   7  -6  -4  301.64   20.46
  -7   6   4  318.20   19.71
   7  -6  -3   51.97    8.49
  -7   6   3   56.88    8.35
   7  -6  -2  107.57   12.13
  -7   6   2  118.71   11.71
   7  -6  -1  168.40   15.21
  -7   6   1  178.13   14.58
   7  -6   0   17.62    4.98
  -7   6   0   18.22    4.92
   7  -6   1  109.29   12.37
  -7   6  -1  109.83   11.46
   7  -6   2  429.75   25.45
   7  -6   3   67.77    9.66
   7  -6   3   57.11    5.95
   7  -6   4  146.82   10.51
   7  -6   4  175.56   15.90
   7  -6   5  175.90   12.35
   7  -6   5  207.96   17.81
   7  -6   6   13.67    4.96
   7  -6   6   11.65    3.45
   7  -6   7   99.01   12.70
   7  -6   7  102.06   10.42
   7  -6   8  129.48   12.42
  -7   5  10   70.64    9.99
  -7   5   9  241.55   18.27
  -7   5   8    8.13    3.42
  -7   5   7   59.20    8.36
  -7   5   6   77.57    9.58
  -7   5   5   19.58    4.78
   7  -5  -4  155.93   14.05
  -7   5   4  167.17   13.67
   7  -5  -3  327.47   20.69
  -7   5   3  342.09   19.91
   7  -5  -2    6.26    3.50
  -7   5   2    6.83    3.01
   7  -5  -1  224.69   16.56
   7  -5  -1  174.75    5.30
  -7   5   1  215.68   15.48
   7  -5   0   95.57   11.08
  -7   5   0   91.89   10.00
   7  -5   0   84.24    4.96
   7  -5   1    9.98    3.91
  -7   5  -1    6.43    2.97
   7  -5   1   11.19    2.27
   7  -5   2  227.46   11.29
   7  -5   2  250.17   18.14
   7  -5   3  261.94   13.38
   7  -5   3  296.44   19.89
   7  -5   4   22.69    5.99
   7  -5   4   24.01    4.20
   7  -5   5  341.24   17.69
   7  -5   5  363.37   22.67
   7  -5   6  168.64   12.54
   7  -5   6  182.00   16.08
   7  -5   7   48.48    8.86
   7  -5   7   29.44    5.59
   7  -5   8  187.82   14.86
   7  -5   9   55.51    8.70
   7  -5  10   80.24   10.77
  -7   4  11  145.41   14.23
  -7   4  10    3.31    2.25
  -7   4   9  100.76   11.41
  -7   4   8  206.83   15.93
  -7   4   7   -2.63    2.46
  -7   4   6  224.37   15.90
  -7   4   5  110.51   10.95
   7  -4  -5  102.10    5.66
   7  -4  -4   18.33    4.89
   7  -4  -4   17.84    2.16
  -7   4   4   18.16    4.54
   7  -4  -3  310.22   10.61
   7  -4  -3  336.96   20.21
  -7   4   3  358.64   19.80
   7  -4  -2  265.71   17.62
   7  -4  -2  202.64    8.29
  -7   4   2  250.96   16.23
   7  -4  -2  192.30    8.29
   7  -4  -1   30.08    3.19
   7  -4  -1   28.68    5.82
  -7   4   1   37.18    6.20
   7  -4  -1   33.81    3.50
   7  -4   0  650.89   29.04
  -7   4   0  653.37   27.93
   7  -4   1  283.48   18.63
  -7   4  -1  266.61   17.25
   7  -4   1  274.49   12.29
  -7   4  -2   87.23    9.73
   7  -4   2   89.63    7.07
   7  -4   2  102.34   11.12
   7  -4   3  384.32   16.80
   7  -4   3  395.09   22.31
   7  -4   4   14.33    3.58
   7  -4   4   20.87    4.97
   7  -4   5   92.82    8.74
   7  -4   5  116.39   12.00
   7  -4   6  449.79   21.47
   7  -4   6  465.73   25.47
   7  -4   7   71.88    8.59
   7  -4   8  214.13   15.51
   7  -4   9  159.33   14.00
   7  -4  10    9.62    4.59
   7  -4  11   81.71   10.90
  -7   3  11  116.41   12.70
  -7   3  10   53.15    8.49
  -7   3   9    5.05    3.11
  -7   3   8  104.03   11.07
  -7   3   7  134.29   12.22
   7  -3  -6   -1.18    0.92
  -7   3   6   47.19    7.17
   7  -3  -5  361.20   14.95
  -7   3   5  378.45   20.47
   7  -3  -4   85.20    6.34
  -7   3   4  106.58   10.33
   7  -3  -3  106.85   10.68
  -7   3   3  129.05   11.30
   7  -3  -3  103.06    6.92
   7  -3  -2  153.44   12.72
  -7   3   2  140.65   11.78
   7  -3  -2  131.32    7.92
   7  -3  -1   34.70    6.10
  -7   3   1   50.78    7.09
   7  -3   0  214.82   15.28
  -7   3   0  225.70   15.21
   7  -3   1 1155.12   40.05
  -7   3  -1 1136.71   38.88
   7  -3   1 1023.90   31.00
   7  -3   2   15.63    4.36
   7  -3   2   18.55    3.38
  -7   3  -2   16.41    4.30
   7  -3   3  421.77   18.40
  -7   3  -3  459.60   23.05
   7  -3   3  466.36   23.57
   7  -3   4  385.89   18.04
   7  -3   4  398.70   21.78
   7  -3   5    1.86    2.09
   7  -3   5   -1.29    1.62
   7  -3   6  321.34   17.75
   7  -3   6  319.52   19.95
   7  -3   7  432.56   21.90
   7  -3   8   15.90    4.32
   7  -3   9  232.25   17.13
   7  -3  10  152.66   14.21
   7  -3  11   58.53    9.41
  -7   2  11   56.20    9.04
  -7   2  10  230.29   17.35
  -7   2   9   10.32    3.57
  -7   2   8   62.00    8.35
   7  -2  -8   49.51    6.33
   7  -2  -7  113.57    9.67
  -7   2   7  145.11   12.46
   7  -2  -6   18.66    3.72
  -7   2   6   22.77    5.16
  -7   2   5  402.52   20.94
  -7   2   4  566.56   25.05
   7  -2  -3    1.64    1.72
  -7   2   3    2.14    2.38
   7  -2  -2  362.34   18.68
  -7   2   2  352.09   17.80
   7  -2  -1  452.99   22.52
  -7   2   1  480.03   22.36
   7  -2   0    0.27    2.08
  -7   2   0    2.85    2.29
   7  -2   1  598.14   26.37
  -7   2  -1  588.49   25.76
  -7   2  -2  369.38   19.73
   7  -2   2  335.49   19.31
   7  -2   3   29.24    5.60
  -7   2  -3   21.28    4.41
   7  -2   3   25.39    4.41
   7  -2   4  719.20   27.20
   7  -2   4  777.42   30.78
   7  -2   5  354.87   18.28
   7  -2   5  365.02   20.27
   7  -2   6  133.04   11.96
   7  -2   6  116.34   10.43
   7  -2   7  364.67   19.79
   7  -2   8   48.02    7.17
   7  -2   9  109.46   11.42
   7  -2  10  301.86   20.21
   7  -2  11   35.11    7.24
  -7   1  11    6.10    3.51
  -7   1  10  113.97   11.99
  -7   1   9  209.10   15.85
  -7   1   8   -0.39    2.67
   7  -1  -7  164.88   12.43
  -7   1   7  177.24   13.69
   7  -1  -6  211.61   13.60
  -7   1   6  240.41   15.60
   7  -1  -5    9.42    2.74
  -7   1   5   19.55    4.74
  -7   1   4  252.11   15.43
   7  -1  -4  214.15   12.87
  -7   1   3  241.07   14.83
   7  -1  -3  199.58   11.97
   7  -1  -2   65.69    7.85
  -7   1   2   58.74    7.13
   7  -1  -2   50.50    5.72
   7  -1  -1 1536.12   46.98
  -7   1   1 1572.34   46.60
   7  -1   0  253.78   15.87
  -7   1   0  278.58   16.21
   7  -1   1  237.35   15.14
  -7   1  -1  233.92   15.02
   7  -1   2  581.22   25.47
  -7   1  -2  624.71   26.21
  -7   1  -3   99.63    9.69
   7  -1   3  105.75   10.08
   7  -1   4  267.68   15.50
   7  -1   4  279.21   16.76
   7  -1   5 1241.60   40.83
   7  -1   5 1371.55   43.20
   7  -1   6   25.95    5.46
   7  -1   6   21.69    4.64
   7  -1   7  310.33   18.33
   7  -1   8  361.36   20.62
   7  -1   9   30.95    6.20
   7  -1  10  185.31   15.61
   7  -1  11  166.09   15.06
   7  -1  12   10.94    4.41
  -7   0  11   43.50    7.85
  -7   0  10    9.32    3.52
  -7   0   9  114.92   11.67
  -7   0   8  147.66   12.80
  -7   0   7  197.08   14.34
  -7   0   6  599.77   25.96
   7   0  -5   51.47    6.80
  -7   0   5   61.48    7.35
  -7   0   4   47.16    6.55
   7   0  -4   47.19    6.15
  -7   0   3  442.84   20.53
   7   0  -3  377.43   18.07
   7   0  -2  171.54   12.49
  -7   0   2  200.22   13.14
   7   0  -2  175.60   11.51
   7   0  -1  520.63   23.02
  -7   0   1  555.02   23.35
   7   0   0 1120.50   36.94
  -7   0   0 1111.25   36.68
   7   0   0 1132.42   36.89
   7   0   1   21.59    4.60
  -7   0  -1   20.09    4.27
   7   0   1   19.22    3.84
   7   0   2  519.45   23.13
  -7   0  -2  506.87   22.95
   7   0   2  528.60   23.05
  -7   0  -3  682.91   27.33
   7   0   3  647.75   26.50
   7   0   4    1.00    2.07
   7   0   5  496.20   22.75
   7   0   6  536.36   24.96
   7   0   6  587.14   25.23
   7   0   7   31.42    5.85
   7   0   8  522.84   25.69
   7   0   9  191.42   15.25
   7   0  10   15.40    4.51
   7   0  11  204.37   17.16
   7   0  12   13.08    4.10
  -7  -1  11  137.31   13.72
  -7  -1  10   54.06    8.40
  -7  -1   9   10.27    3.93
  -7  -1   8  275.54   17.68
  -7  -1   7    8.23    3.57
  -7  -1   6  246.06   15.54
  -7  -1   5  344.77   18.29
  -7  -1   4    4.91    2.46
  -7  -1   3  698.24   26.98
   7   1  -3  668.43   26.29
  -7  -1   2  522.07   22.21
   7   1  -2  479.31   21.32
  -7  -1   2  528.26   22.51
  -7  -1   1    9.16    3.35
   7   1  -1    8.23    2.64
  -7  -1   1    6.81    2.27
   7   1  -1    4.41    2.30
   7   1   0  749.99   27.82
  -7  -1   0  731.26   27.65
   7   1   0  783.20   28.19
  -7  -1   0  744.61   27.95
   7   1   1  467.83   21.04
  -7  -1  -1  506.19   21.92
   7   1   1  476.99   20.99
   7   1   2   64.38    7.31
  -7  -1  -2   62.83    7.18
   7   1   2   63.92    7.07
   7   1   3 1483.35   44.29
  -7  -1  -3 1439.84   44.36
   7   1   3 1545.53   44.67
   7   1   4  268.76   15.36
   7   1   4  261.83   15.38
   7   1   5  147.34   11.33
   7   1   6  549.24   23.84
   7   1   7    2.45    1.98
   7   1   8  143.16   13.01
   7   1   9  577.54   28.33
   7   1  10   20.72    5.44
   7   1  11  261.55   19.21
   7   1  12   86.59   11.40
  -7  -2  10  150.09   13.86
  -7  -2   9   19.02    4.86
  -7  -2   8  307.13   18.73
  -7  -2   7  154.04   12.52
  -7  -2   6    3.57    2.52
  -7  -2   5  303.62   16.86
  -7  -2   4  415.33   19.75
  -7  -2   3  166.54   11.89
   7   2  -3  167.95   13.24
  -7  -2   2 1184.94   37.39
   7   2  -2 1205.73   40.85
  -7  -2   2 1212.21   37.98
  -7  -2   1  189.69   12.45
   7   2  -1  202.33   14.37
  -7  -2   1  199.23   12.80
   7   2   0  111.48    9.17
  -7  -2   0  116.78    9.58
   7   2   0  110.02    9.03
   7   2   0  106.38   10.35
  -7  -2   0  113.03    9.48
   7   2   1  727.92   26.54
  -7  -2  -1  771.14   27.73
   7   2   1  699.37   26.13
   7   2   1  738.24   29.80
   7   2   2  147.09   10.69
  -7  -2  -2  178.87   12.01
   7   2   2  144.80   10.57
   7   2   2  152.32   12.40
   7   2   3  435.93   19.56
  -7  -2  -3  378.35   18.82
   7   2   3  400.34   18.74
   7   2   3  413.16   21.28
   7   2   4 1580.23   45.36
   7   2   4 1572.29   45.52
   7   2   5    7.74    2.87
   7   2   5   12.33    3.21
   7   2   6  437.37   20.28
   7   2   7  353.56   18.25
   7   2   8    8.38    3.25
   7   2   9  285.91   19.39
   7   2  10  192.03   16.27
   7   2  11   35.77    7.24
   7   2  12  194.47   17.10
  -7  -3  10  140.24   13.69
  -7  -3   9   44.64    7.47
  -7  -3   8  116.84   11.39
  -7  -3   7  268.17   16.83
  -7  -3   6   84.15    8.88
   7   3  -6   77.27    8.95
  -7  -3   5   82.03    8.41
   7   3  -5   82.01    9.38
  -7  -3   4  480.55   21.34
   7   3  -4  446.83   22.56
  -7  -3   3   61.67    7.02
   7   3  -3   68.11    8.24
  -7  -3   2  533.66   22.04
   7   3  -2  496.11   23.69
  -7  -3   2  505.66   21.77
  -7  -3   1  711.14   26.26
   7   3  -1  695.23   28.70
  -7  -3   1  708.14   26.31
  -7  -3   0    8.09    2.36
   7   3   0    9.25    3.09
  -7  -3   0   15.22    3.48
   7   3   1  628.89   23.33
  -7  -3  -1  653.16   24.86
   7   3   1  612.42   23.12
   7   3   1  647.37   27.37
   7   3   2  540.40   21.05
  -7  -3  -2  508.59   21.65
   7   3   2  497.23   20.34
   7   3   2  478.80   23.41
   7   3   3    1.05    1.43
   7   3   3    0.18    2.00
  -7  -3  -3    0.58    1.88
   7   3   3    0.56    1.89
   7   3   4  671.37   25.19
   7   3   4  656.70   24.84
   7   3   4  707.51   28.97
   7   3   5   98.83    8.62
   7   3   5   98.26   10.16
   7   3   5   97.61    8.68
   7   3   6   40.29    5.77
   7   3   6   31.87    6.00
   7   3   6   47.40    6.00
   7   3   7  706.03   29.51
   7   3   7  671.45   26.19
   7   3   8  217.98   13.95
   7   3   9  102.95   11.73
   7   3  10  154.90   14.64
   7   3  11    4.81    3.20
   7   3  12   71.41   10.30
  -7  -4  10   58.69    8.79
  -7  -4   9  148.08   13.46
   7   4  -8   30.56    5.79
  -7  -4   8   29.65    6.02
  -7  -4   7  148.31   12.45
   7   4  -7  159.99   13.25
  -7  -4   6  351.83   18.88
   7   4  -6  322.02   19.19
   7   4  -5   -1.67    2.81
  -7  -4   5   -0.80    2.04
  -7  -4   4  517.30   22.33
   7   4  -4  516.04   24.37
  -7  -4   3  323.82   16.85
  -7  -4   3  326.10   16.83
   7   4  -3  336.83   18.95
  -7  -4   2   -1.64    1.47
   7   4  -2    2.74    2.64
  -7  -4   2    0.99    1.55
  -7  -4   1  583.19   22.92
   7   4  -1  557.41   25.49
  -7  -4   1  575.18   22.90
  -7  -4   0  403.73   18.12
   7   4   0  372.81   19.97
  -7  -4   0  357.98   17.33
  -7  -4  -1  101.12    8.54
   7   4   1   94.73    9.77
   7   4   2 1747.75   45.94
  -7  -4  -2 1714.89   47.97
   7   4   2 1729.66   45.83
   7   4   3  186.98   11.03
  -7  -4  -3  157.81   10.73
   7   4   3  164.73   10.30
   7   4   3  165.66   13.20
   7   4   4  132.48    9.41
   7   4   4  126.19    9.12
   7   4   4  129.00   11.48
   7   4   5  332.62   16.14
   7   4   5  328.46   15.97
   7   4   5  377.14   20.21
   7   4   6  122.05    9.39
   7   4   6  119.38   11.28
   7   4   6  129.43    9.82
   7   4   7  223.11   13.27
   7   4   7  221.63   15.59
   7   4   7  213.65   13.11
   7   4   8  583.34   26.91
   7   4   8  570.08   23.47
   7   4   9   -1.17    1.74
   7   4   9    2.71    2.33
   7   4  10  159.82   15.31
   7   4  11   70.78   10.16
   7   4  12    2.36    3.52
  -7  -5   9   96.16   11.07
  -7  -5   8  107.06   11.05
   7   5  -8  112.69   11.31
   7   5  -7    1.06    2.48
  -7  -5   7   -1.13    2.56
  -7  -5   6  235.99   15.32
   7   5  -6  212.73   15.62
  -7  -5   5  158.25   11.90
   7   5  -5  126.50   11.90
  -7  -5   4  148.98   11.18
   7   5  -4  168.35   13.25
  -7  -5   3  517.36   21.74
  -7  -5   3  479.47   21.03
   7   5  -3  472.62   23.43
  -7  -5   2  138.07   10.23
   7   5  -2  109.64   10.66
  -7  -5   2  112.80    9.38
  -7  -5   1   32.08    4.70
  -7  -5   1   47.30    5.83
   7   5  -1   36.53    6.17
  -7  -5   0  450.24   19.16
   7   5   0  424.75   21.79
  -7  -5   0  418.43   18.62
  -7  -5  -1  137.30    9.87
   7   5   1  133.37   11.64
  -7  -5  -2  450.20   19.10
   7   5   2  510.45   23.99
   7   5   3  310.05   18.39
   7   5   4   -0.59    1.69
   7   5   4    0.95    2.12
   7   5   4    2.23    1.59
   7   5   5  334.91   15.19
   7   5   5  339.80   15.12
   7   5   5  357.29   19.85
   7   5   6  368.62   16.53
   7   5   6  367.14   16.44
   7   5   6  361.08   20.49
   7   5   7    3.30    2.01
   7   5   7    5.70    2.82
   7   5   7    1.75    1.44
   7   5   8  223.83   15.99
   7   5   8  240.07   13.68
   7   5   9   74.97    9.23
   7   5   9   75.31    7.69
   7   5  10   20.46    4.54
   7   5  10   23.65    6.06
   7   5  10   30.71    6.02
   7   5  11  183.59   16.93
   7   5  11  210.92   15.93
  -7  -6   8  132.30   12.38
   7   6  -7   35.76    6.56
  -7  -6   7   45.45    6.91
  -7  -6   6   79.22    8.83
   7   6  -6   94.27   10.25
  -7  -6   5  241.59   15.01
   7   6  -5  258.88   17.16
   7   6  -4   25.08    5.37
  -7  -6   4   25.81    4.73
  -7  -6   3  318.74   16.44
   7   6  -3  300.13   18.45
  -7  -6   2  294.06   15.22
   7   6  -2  275.44   17.67
   7   6  -1    5.36    3.11
  -7  -6   1    3.84    1.86
  -7  -6   0  860.16   28.10
   7   6   0  834.27   33.24
  -7  -6  -1  298.48   14.42
   7   6   1  318.51   18.88
   7   6   2   -3.75    2.51
  -7  -6  -2    0.67    1.23
   7   6   3  253.48   16.74
   7   6   4  222.89   15.85
   7   6   5   58.65    5.26
   7   6   5   69.56    8.87
   7   6   6  576.40   19.82
   7   6   6  596.06   27.43
   7   6   7   54.65    5.60
   7   6   7   53.56    7.78
   7   6   8   60.10    8.21
   7   6   9   66.17    9.05
   7   6  10   19.25    5.07
   7   6  11   61.40    8.73
   7   6  11   58.39    9.77
   7   6  12  147.67   13.76
   7   7  -7  112.97   11.71
   7   7  -6    2.76    2.55
   7   7  -5  149.66   13.44
   7   7  -4  150.25   13.48
   7   7  -3   16.26    4.08
   7   7  -2  189.34   15.14
   7   7  -1  220.53   16.20
   7   7   0  183.36   14.76
   7   7   1  336.84   20.48
   7   7   2   67.60    8.78
   7   7   3   44.35    7.38
   7   7   4  289.13   18.77
   7   7   5   37.19    6.76
   7   7   6  201.38   15.60
   7   7   7  203.21   15.75
   7   7   8    1.24    2.42
   7   7   9  104.83   11.39
   7   7  10  108.17   11.58
   7   7  11    2.69    3.08
   7   7  12  100.65   11.32
   7   8  -5   91.24   10.85
   7   8  -4  121.00   12.29
   7   8  -3   87.89   10.65
   7   8  -2  172.95   14.98
   7   8  -1  225.99   17.18
   7   8   0   22.42    5.41
   7   8   1  127.80   12.86
   7   8   2  200.21   16.04
   7   8   3   -1.31    3.37
   7   8   4  222.38   17.03
   7   8   5  137.11   12.97
   7   8   6    1.32    2.42
   7   8   7   50.60    7.89
   7   8   8   62.63    9.20
   7   8   9   11.44    3.98
   7   8  10  137.45   13.56
   7   8  11   60.84    8.84
  -8   8   6   61.60    9.50
  -8   8   5  158.86   15.40
  -8   8   4   -1.72    3.85
   8  -8  -3   68.04   10.84
  -8   8   3   77.59   10.63
   8  -8  -2  226.60   19.97
  -8   8   2  232.94   18.41
   8  -8  -1   24.86    6.23
  -8   8   1   17.69    5.70
   8  -8   0  143.14   16.13
   8  -8   1   41.56    8.94
  -8   7   7  330.68   22.32
  -8   7   6    6.38    3.95
  -8   7   5  142.79   14.22
   8  -7  -4  111.71   13.66
  -8   7   4   71.46    9.85
   8  -7  -3   -0.49    3.81
  -8   7   3    0.98    3.02
   8  -7  -2  139.91   14.94
  -8   7   2  142.89   13.98
   8  -7  -1   62.88   10.49
  -8   7   1   78.49   10.27
   8  -7   0   24.73    6.30
  -8   7   0   27.75    6.52
   8  -7   1  135.85   15.18
   8  -7   2   18.85    5.76
   8  -7   3   39.58    8.34
  -8   6   8    3.59    3.80
  -8   6   7  232.11   18.24
  -8   6   6   91.24   11.12
  -8   6   5   34.08    6.76
   8  -6  -4  365.87   23.99
  -8   6   4  350.69   22.10
   8  -6  -3  100.73   12.57
  -8   6   3  117.52   12.35
   8  -6  -2  121.49   13.47
  -8   6   2   99.84   11.48
   8  -6  -1  103.03   12.53
  -8   6   1  100.84   11.47
   8  -6   0    0.36    2.79
  -8   6   0   -1.17    3.30
   8  -6   1   56.96    9.35
  -8   6  -1   65.82    9.35
   8  -6   2  144.86   15.28
   8  -6   3   13.38    5.48
   8  -6   4  140.81   15.17
   8  -6   5   31.19    7.53
  -8   5   9  436.81   26.10
  -8   5   8   56.07    8.91
  -8   5   7   57.43    8.47
  -8   5   6  100.31   11.46
  -8   5   5   42.13    7.47
   8  -5  -4  166.58   15.34
  -8   5   4  151.46   13.78
   8  -5  -3  337.65   22.27
  -8   5   3  330.59   20.71
   8  -5  -2    2.40    2.66
  -8   5   2   -0.13    2.52
   8  -5  -1  208.29   17.26
  -8   5   1  215.28   16.58
   8  -5   0   50.54    8.50
  -8   5   0   62.05    8.77
   8  -5   1    5.21    3.08
  -8   5  -1    0.74    2.32
   8  -5   2  155.08   15.09
  -8   5  -2  160.31   14.39
   8  -5   2  142.63    9.11
   8  -5   3   60.42    9.45
   8  -5   3   57.42    6.27
   8  -5   4   14.24    5.36
   8  -5   4   15.56    3.31
   8  -5   5  149.77   11.61
   8  -5   5  160.88   15.54
   8  -5   6   17.60    6.20
   8  -5   6   24.65    4.82
   8  -5   7   35.99    6.45
   8  -5   8   72.86    9.53
  -8   4   9  259.47   19.36
  -8   4   8  242.82   18.23
  -8   4   7    2.00    3.14
  -8   4   6  213.46   16.43
  -8   4   5  242.32   17.42
  -8   4   4   16.00    4.35
   8  -4  -3  173.67   15.21
  -8   4   3  184.90   14.79
   8  -4  -2   65.67    9.31
   8  -4  -2   48.79    4.37
  -8   4   2   65.42    8.62
   8  -4  -1   25.29    5.74
   8  -4  -1   27.79    3.42
  -8   4   1   37.07    6.64
   8  -4   0  255.45   18.32
  -8   4   0  263.94   17.87
   8  -4   0  212.01   10.77
   8  -4   1   84.72   10.65
  -8   4  -1   92.19   10.62
   8  -4   1   72.47    6.48
   8  -4   2  148.21   14.00
  -8   4  -2  134.83   12.84
   8  -4   2  123.43    8.98
   8  -4   3   93.51    8.22
   8  -4   3  102.42   11.97
   8  -4   4    2.19    3.27
   8  -4   4    0.77    2.12
   8  -4   5   86.59   11.08
   8  -4   5   80.85    8.59
   8  -4   6  153.65   12.47
   8  -4   6  183.08   16.39
   8  -4   7   36.20    7.82
   8  -4   7   30.25    5.81
   8  -4   8   90.06   10.51
   8  -4   9  102.25   11.58
   8  -4  10   12.47    4.85
  -8   3   9    6.35    3.67
  -8   3   8  107.95   11.95
  -8   3   7  166.53   14.66
  -8   3   6   69.43    9.29
  -8   3   5  465.53   24.28
   8  -3  -4    0.51    0.76
  -8   3   4   19.73    5.04
   8  -3  -3  134.38   12.73
  -8   3   3  134.25   12.26
   8  -3  -3  102.76    7.76
   8  -3  -2   60.79    8.66
  -8   3   2   63.48    8.35
   8  -3  -2   35.63    4.54
   8  -3  -1   23.09    5.76
  -8   3   1   17.81    4.76
   8  -3   0  156.89   13.89
  -8   3   0  146.75   13.07
   8  -3   1  273.38   18.46
  -8   3  -1  277.75   18.18
   8  -3   1  239.22   13.27
   8  -3   2    2.42    2.47
  -8   3  -2    1.89    2.55
   8  -3   2    0.54    1.34
   8  -3   3  209.03   13.10
  -8   3  -3  219.52   16.44
   8  -3   3  215.36   16.73
   8  -3   4   46.74    7.63
   8  -3   4   39.22    5.80
   8  -3   5   10.22    4.24
   8  -3   5    8.48    2.92
   8  -3   6   95.29    9.81
   8  -3   6  124.35   12.92
   8  -3   7  111.24   10.94
   8  -3   7  120.78   12.97
   8  -3   8   15.18    4.28
   8  -3   8   23.61    6.59
   8  -3   9  202.71   16.49
   8  -3  10   29.24    6.20
  -8   2  10  222.51   17.92
  -8   2   9   35.42    6.80
  -8   2   8   42.86    7.64
  -8   2   7  266.13   18.39
   8  -2  -6   10.89    2.85
  -8   2   6   22.06    5.12
   8  -2  -5  167.17   11.68
  -8   2   5  229.82   16.23
  -8   2   4  208.57   15.22
   8  -2  -4  169.33   11.35
   8  -2  -3   10.80    3.99
  -8   2   3    6.66    3.66
   8  -2  -3    4.78    2.10
   8  -2  -2  175.49   14.22
  -8   2   2  186.48   14.13
   8  -2  -2  151.11   10.35
   8  -2  -1  155.11   13.34
  -8   2   1  189.65   14.35
   8  -2   0   29.84    5.65
  -8   2   0   30.26    5.78
   8  -2   1  229.74   16.55
  -8   2  -1  247.00   16.72
   8  -2   2   98.67   10.72
  -8   2  -2  109.92   11.01
  -8   2  -3   73.24    9.20
   8  -2   3   55.97    6.88
   8  -2   3   78.56    9.71
   8  -2   4  270.79   16.15
   8  -2   4  311.80   19.54
   8  -2   5  158.55   12.50
   8  -2   5  164.58   14.24
   8  -2   6   67.65    9.25
   8  -2   6   59.52    7.83
   8  -2   7  253.04   17.14
   8  -2   7  288.24   19.58
   8  -2   8   -1.15    2.74
   8  -2   8   -0.58    2.31
   8  -2   9   55.33    8.48
   8  -2  10  186.07   16.30
   8  -2  11   29.65    6.51
  -8   1  10   81.79   10.83
  -8   1   9  201.17   16.60
  -8   1   8   -2.42    2.88
  -8   1   7  301.30   19.32
  -8   1   6  116.10   11.63
   8  -1  -5   14.40    3.71
  -8   1   5   23.01    5.26
  -8   1   4   77.10    8.82
   8  -1  -4   80.32    8.19
  -8   1   3  128.84   11.58
   8  -1  -3  118.73    9.68
   8  -1  -2   53.85    7.60
  -8   1   2   58.97    7.85
   8  -1  -2   48.61    6.05
   8  -1  -1  461.95   23.22
  -8   1   1  429.99   22.06
   8  -1   0   39.79    6.66
  -8   1   0   52.79    7.49
   8  -1   1  140.43   12.35
  -8   1  -1  151.75   12.63
   8  -1   2   50.99    7.44
  -8   1  -2   65.50    8.41
   8  -1   3   10.66    3.74
  -8   1  -3    4.63    1.98
   8  -1   4   83.67    9.10
   8  -1   4   86.66    9.81
   8  -1   5  453.17   22.82
   8  -1   5  487.69   24.66
   8  -1   6    4.10    2.33
   8  -1   6    4.28    2.51
   8  -1   7  306.40   19.36
   8  -1   7  334.50   20.56
   8  -1   8  120.90   12.52
   8  -1   8   95.88   10.82
   8  -1   9    0.20    2.66
   8  -1  10  175.27   15.75
   8  -1  11  175.94   16.47
  -8   0  10   -0.77    3.93
  -8   0   9  186.64   15.69
  -8   0   8   94.97   10.61
  -8   0   7  119.53   11.92
  -8   0   6  287.10   18.31
  -8   0   5    6.05    3.24
  -8   0   4   46.27    6.91
  -8   0   3  162.92   12.75
   8   0  -3  151.83   11.57
  -8   0   2   13.96    3.78
   8   0  -2   11.97    3.31
   8   0  -1  319.45   18.57
  -8   0   1  330.16   18.54
   8   0   0  364.54   20.13
  -8   0   0  387.49   20.43
   8   0   1   16.77    4.13
  -8   0  -1   25.17    4.97
   8   0   2  216.72   15.00
  -8   0  -2  244.96   16.21
   8   0   3  268.88   16.94
  -8   0  -3  243.72   16.38
   8   0   4   -2.61    2.66
   8   0   5  419.74   22.12
   8   0   6  101.58   10.66
   8   0   6  107.70   10.87
   8   0   7   26.58    5.74
   8   0   7   24.80    5.48
   8   0   8  344.52   21.38
   8   0   8  349.42   21.10
   8   0   9  153.12   14.43
   8   0  10   63.03    9.47
   8   0  11  252.75   19.74
  -8  -1   9   73.60    9.76
  -8  -1   8  167.15   14.35
  -8  -1   7    4.27    3.13
  -8  -1   6   91.51   10.04
  -8  -1   5  196.93   14.70
  -8  -1   4    0.26    2.13
  -8  -1   3  201.45   14.24
  -8  -1   2  189.67   13.55
   8   1  -1   26.59    5.21
  -8  -1   1   34.79    5.56
   8   1   0  100.80    9.73
  -8  -1   0  111.03   10.24
   8   1   1   96.93    9.61
  -8  -1  -1  104.18    9.94
   8   1   2   23.06    4.81
  -8  -1  -2   34.47    5.97
   8   1   3  716.57   28.95
  -8  -1  -3  714.37   29.38
   8   1   4  131.81   11.56
  -8  -1  -4  134.78   11.77
   8   1   5  212.52   14.88
   8   1   6  200.45   14.61
   8   1   7   50.97    7.43
   8   1   7   43.26    7.11
   8   1   8  112.84   12.21
   8   1   8  137.50   12.47
   8   1   9  510.35   27.47
   8   1  10   10.88    4.42
   8   1  11  217.23   18.15
  -8  -2   9   17.47    5.30
  -8  -2   8  136.22   12.94
  -8  -2   7   29.16    6.00
  -8  -2   6    1.36    2.08
  -8  -2   5  124.05   11.26
  -8  -2   4   84.33    9.11
  -8  -2   3  188.75   13.56
  -8  -2   2  465.88   22.05
  -8  -2   1    6.75    2.79
   8   2   0   47.56    6.35
  -8  -2   0   40.59    6.11
   8   2   1  240.12   14.98
  -8  -2  -1  230.10   14.97
   8   2   2  107.07    9.72
  -8  -2  -2   91.57    9.42
   8   2   3  442.89   20.99
  -8  -2  -3  395.98   20.65
   8   2   4  406.15   20.32
   8   2   5    5.69    2.88
   8   2   6  283.35   17.18
   8   2   7  278.96   17.31
   8   2   8    3.19    2.90
   8   2   8   -2.40    3.56
   8   2   9  311.80   21.45
   8   2   9  357.39   20.56
   8   2  10  174.65   16.35
   8   2  11   27.85    7.00
  -8  -3   9   27.94    6.08
  -8  -3   8   69.63    9.28
  -8  -3   7  145.11   13.01
  -8  -3   6   26.67    5.46
  -8  -3   5   18.55    4.46
  -8  -3   4  223.93   15.12
   8   3  -4  230.93   16.81
   8   3  -3    2.13    2.25
  -8  -3   3    4.39    2.85
  -8  -3   2  130.66   10.89
   8   3  -2  116.75   11.72
  -8  -3   1  192.32   13.30
   8   3  -1  179.57   14.69
   8   3   0    2.32    2.69
  -8  -3   0   -0.49    1.75
   8   3   1  386.60   18.95
  -8  -3  -1  430.35   20.68
   8   3   1  407.11   22.67
   8   3   2  296.88   16.37
  -8  -3  -2  324.60   17.85
   8   3   2  301.70   16.45
   8   3   2  327.55   19.89
   8   3   3   28.60    4.77
   8   3   3   33.48    6.35
  -8  -3  -3   29.29    5.20
   8   3   4  298.56   16.58
   8   3   4  309.10   19.57
   8   3   5  224.03   14.55
   8   3   5  251.08   17.42
   8   3   6   34.40    5.66
   8   3   7  683.47   27.94
   8   3   8  166.12   13.03
   8   3   9  124.89   13.53
   8   3   9  128.36   11.61
   8   3  10  236.06   19.42
   8   3  10  267.02   17.66
   8   3  11   10.91    4.06
  -8  -4   9   68.37    9.73
  -8  -4   8    0.48    2.36
  -8  -4   7   53.40    7.75
  -8  -4   6  103.55   10.56
   8   4  -6   96.55   10.93
   8   4  -5   16.21    4.61
  -8  -4   5   21.95    4.82
  -8  -4   4  232.37   15.45
   8   4  -4  241.34   17.21
   8   4  -3   43.45    7.38
  -8  -4   3   60.60    7.56
   8   4  -2    1.53    2.48
  -8  -4   2    1.18    2.02
  -8  -4   1  155.56   11.80
   8   4  -1  159.26   13.80
  -8  -4   0  257.79   15.34
   8   4   0  258.38   17.58
  -8  -4  -1  154.00   11.77
   8   4   1  184.05   14.57
   8   4   2  517.27   21.32
  -8  -4  -2  516.99   22.79
   8   4   2  491.41   20.85
   8   4   2  487.45   25.21
   8   4   3   66.80    7.16
  -8  -4  -3   66.47    7.57
   8   4   3   76.98    7.59
   8   4   3   79.76    9.64
   8   4   4  100.48    8.82
   8   4   4   89.10    8.31
   8   4   4   82.90    9.97
   8   4   5  287.90   15.98
   8   4   5  292.99   15.89
   8   4   5  326.37   20.29
   8   4   6   95.66    9.18
   8   4   6  103.67   11.09
   8   4   7  268.06   18.62
   8   4   7  265.70   15.88
   8   4   8  633.60   29.63
   8   4   8  570.47   25.16
   8   4   9    6.69    3.45
   8   4  10  221.81   19.00
   8   4  10  227.26   15.75
   8   4  11  203.66   15.24
  -8  -5   8   50.84    7.83
   8   5  -7   -0.21    2.76
  -8  -5   7    1.51    2.63
  -8  -5   6  149.69   12.70
   8   5  -6  141.54   13.48
   8   5  -5   44.34    7.81
  -8  -5   5   36.79    6.17
   8   5  -4   58.58    8.64
  -8  -5   4   76.80    8.69
  -8  -5   3  128.36   10.95
   8   5  -3  153.52   13.64
   8   5  -2   37.68    6.60
  -8  -5   2   34.10    5.54
  -8  -5   1   70.32    7.80
   8   5  -1   83.79    9.92
  -8  -5   0  321.54   17.04
   8   5   0  291.31   19.19
   8   5   1   18.40    5.22
  -8  -5  -1   15.64    3.62
  -8  -5  -2  239.13   14.50
   8   5   2  286.68   18.96
  -8  -5  -3  335.30   17.17
   8   5   3  359.36   21.37
   8   5   4    0.72    1.60
   8   5   4    0.27    2.05
   8   5   5  347.82   16.62
   8   5   5  354.44   21.52
   8   5   6  326.36   16.52
   8   5   6  324.13   20.55
   8   5   7    3.51    2.14
   8   5   7    2.19    2.71
   8   5   8  306.30   20.55
   8   5   8  322.75   17.29
   8   5   9   78.28   10.29
   8   5   9   83.97    8.71
   8   5  10   17.34    4.94
   8   6  -7   -0.22    2.62
   8   6  -6   48.45    8.14
   8   6  -5   79.18    9.92
  -8  -6   5   82.89    9.25
   8   6  -4   18.42    5.48
  -8  -6   4    9.52    3.02
   8   6  -3   75.11    9.45
  -8  -6   3   70.11    7.99
  -8  -6   2  222.03   14.27
   8   6  -2  242.79   17.42
   8   6  -1    6.42    3.34
  -8  -6   1    6.03    2.86
  -8  -6   0  242.34   14.24
   8   6   0  228.35   17.14
  -8  -6  -1  185.94   12.15
   8   6   1  180.49   14.97
   8   6   2    1.12    2.34
  -8  -6  -2    0.73    1.51
   8   6   3  245.64   17.69
   8   6   4  227.75   17.24
   8   6   5   91.28   10.80
   8   6   6  714.62   32.62
   8   6   7   94.15   11.18
   8   6   8   75.32    9.80
   8   6   9  223.36   17.68
   8   6  10   44.77    8.16
   8   6  11  122.62   13.33
   8   7  -6    2.90    2.90
   8   7  -5   60.04    8.93
   8   7  -4   61.43    9.10
   8   7  -3   -2.68    2.88
   8   7  -2  178.36   15.63
   8   7  -1   71.85    9.80
   8   7   0   91.67   11.12
   8   7   1  318.39   20.91
   8   7   2   59.16    8.93
   8   7   3   64.57    9.17
   8   7   4  277.15   19.70
   8   7   5   40.49    7.34
   8   7   6  258.87   19.00
   8   7   7  234.97   18.17
   8   7   8   -1.88    3.22
   8   7   9  177.63   15.94
   8   7  10  198.08   16.97
  -9   6   5    9.97    4.30
  -9   6   4  440.62   26.28
   9  -6  -3  142.12   15.40
  -9   6   3  167.87   15.69
   9  -6  -2  137.44   15.25
  -9   6   2  136.05   14.01
   9  -6  -1  176.41   17.30
  -9   6   1  196.78   17.03
   9  -6   0   33.87    8.04
  -9   6   0   20.51    5.87
   9  -6   1   99.59   13.05
  -9   6  -1   84.75   11.26
   9  -6   2  297.62   22.79
  -9   5   6  221.15   18.15
  -9   5   5   76.34   10.48
  -9   5   4  252.94   19.09
   9  -5  -3  506.07   29.38
  -9   5   3  539.07   28.42
   9  -5  -2    3.83    3.27
  -9   5   2    0.73    2.71
   9  -5  -1  274.88   20.92
  -9   5   1  247.09   18.91
   9  -5   0  214.25   18.37
  -9   5   0  236.87   18.31
   9  -5   1   -3.55    3.56
  -9   5  -1    5.57    3.50
   9  -5   2  213.75   18.63
   9  -5   3  141.93   15.29
   9  -5   4   36.72    8.19
  -9   4   7    2.71    2.82
  -9   4   6  264.16   19.68
  -9   4   5  377.20   23.30
  -9   4   4   24.34    5.93
   9  -4  -3  336.08   22.75
  -9   4   3  333.03   21.43
   9  -4  -2  225.16   18.43
  -9   4   2  225.20   17.35
   9  -4  -1   34.20    7.27
  -9   4   1   24.85    6.07
   9  -4   0  521.78   28.28
  -9   4   0  473.42   26.35
   9  -4   1  150.20   14.72
  -9   4  -1  170.24   15.21
   9  -4   2  142.19   14.45
  -9   4  -2  134.84   13.59
   9  -4   2  112.15    9.09
   9  -4   3  151.27   15.10
   9  -4   3  138.36   10.60
   9  -4   4    4.50    3.18
   9  -4   4   -1.43    2.37
   9  -4   5   43.25    6.47
   9  -4   5   30.90    7.25
   9  -4   6  172.34   13.66
   9  -4   7    1.82    2.12
   9  -4   8   94.30   10.95
  -9   3   7  296.69   20.72
  -9   3   6   90.29   11.06
  -9   3   5  660.92   31.48
  -9   3   4   96.40   11.11
   9  -3  -3  111.72   12.51
  -9   3   3  135.86   13.03
   9  -3  -2  301.25   20.72
  -9   3   2  278.32   19.10
   9  -3  -1   69.19    9.55
  -9   3   1   72.81    9.62
   9  -3   0  224.41   17.60
  -9   3   0  245.39   17.94
   9  -3   1  509.67   27.42
   9  -3   1  465.03   20.70
   9  -3   2   -1.61    3.40
  -9   3  -2    0.20    2.78
   9  -3   2   -1.43    1.83
   9  -3   3  207.66   17.22
   9  -3   3  168.32   12.42
  -9   3  -3  206.13   16.73
   9  -3   4   94.73    9.47
   9  -3   4   92.04   11.48
   9  -3   5   17.47    5.75
   9  -3   5    4.58    2.38
   9  -3   6  138.05   12.35
   9  -3   6  151.79   15.10
   9  -3   7   64.01    9.93
   9  -3   7   54.12    8.09
   9  -3   8   22.15    5.48
   9  -3   9  106.97   11.96
  -9   2   8   71.76   10.44
  -9   2   7  381.21   23.60
  -9   2   6   36.98    7.11
  -9   2   5  297.82   19.80
  -9   2   4  485.82   25.58
  -9   2   3    5.89    3.09
   9  -2  -2  327.68   21.10
  -9   2   2  335.54   20.52
   9  -2  -2  304.78   16.16
   9  -2  -1  341.12   21.38
  -9   2   1  383.74   21.90
   9  -2   0   20.61    5.19
  -9   2   0   18.10    5.08
   9  -2   1  290.69   19.67
  -9   2  -1  299.69   19.69
   9  -2   2   95.26   11.14
  -9   2  -2  104.38   11.40
   9  -2   3   26.38    6.25
  -9   2  -3   16.99    4.66
   9  -2   3   12.59    3.29
   9  -2   4  293.21   20.22
   9  -2   4  261.32   16.71
   9  -2   5   55.02    8.76
   9  -2   5   53.34    7.72
   9  -2   6   84.46    9.85
   9  -2   6   88.58   11.23
   9  -2   7   68.05   10.05
   9  -2   7   73.76    9.49
   9  -2   8    4.33    2.76
   9  -2   8    3.82    2.57
   9  -2   9   60.09    9.17
   9  -2  10   73.88   10.19
  -9   1   8    2.81    3.35
  -9   1   7  374.76   23.23
  -9   1   6  249.69   18.04
  -9   1   5    4.98    2.80
  -9   1   4  280.74   18.81
  -9   1   3  287.06   18.80
   9  -1  -2   87.53   10.37
  -9   1   2   76.48    9.44
   9  -1  -2   65.65    7.50
   9  -1  -1  757.53   32.50
  -9   1   1  794.14   32.55
   9  -1   0   35.27    6.85
  -9   1   0   36.50    6.53
   9  -1   1  131.35   12.98
  -9   1  -1  142.18   13.09
   9  -1   2  158.21   13.89
  -9   1  -2  157.07   13.87
   9  -1   3   13.64    4.48
  -9   1  -3   17.46    5.01
   9  -1   4  139.75   13.43
   9  -1   4  130.27   11.84
   9  -1   5  251.72   17.36
   9  -1   5  251.22   18.42
   9  -1   6   -2.78    2.52
   9  -1   6   -1.03    2.28
   9  -1   7  141.17   13.46
   9  -1   7  155.00   14.70
   9  -1   8   35.15    7.08
   9  -1   8   37.62    7.15
   9  -1   9    5.35    4.15
   9  -1   9    5.09    3.58
   9  -1  10   76.43   11.08
  -9   0   8  167.13   15.49
  -9   0   7  117.88   12.53
  -9   0   6  482.97   25.96
  -9   0   5   63.32    8.83
  -9   0   4   72.12    9.15
  -9   0   3  405.67   22.46
  -9   0   2   33.04    6.44
   9   0  -1  291.77   18.82
  -9   0   1  314.84   19.30
   9   0   0  337.02   20.26
  -9   0   0  348.18   20.36
   9   0   1   -0.80    2.42
  -9   0  -1   -0.38    3.10
   9   0   2  203.64   15.55
  -9   0  -2  248.37   17.23
   9   0   3  116.35   11.68
  -9   0  -3  121.07   12.00
   9   0   4   10.92    4.17
   9   0   5  144.78   13.37
   9   0   6   41.27    7.14
   9   0   6   33.36    6.64
   9   0   7   47.59    7.79
   9   0   7   33.19    6.58
   9   0   8  127.49   13.49
   9   0   8  152.65   14.50
   9   0   9   52.71    8.72
   9   0   9   45.55    8.50
   9   0  10   37.20    7.92
   9   0  10   37.97    7.83
  -9  -1   8  278.16   20.10
  -9  -1   7   23.07    5.76
  -9  -1   6  207.83   16.43
  -9  -1   5  335.90   20.69
  -9  -1   4   -2.48    2.18
  -9  -1   3  447.16   23.29
  -9  -1   2  135.24   12.20
  -9  -1   1   12.72    3.82
   9   1   0  198.27   14.86
  -9  -1   0  209.43   15.36
   9   1   1  109.72   10.80
  -9  -1  -1  113.98   11.22
   9   1   2   71.33    8.72
  -9  -1  -2   69.19    8.76
   9   1   3  452.54   23.24
  -9  -1  -3  418.74   23.02
   9   1   4   34.38    6.37
  -9  -1  -4   45.28    7.36
   9   1   5   95.04   10.42
   9   1   6   55.42    8.31
   9   1   7    5.08    3.04
   9   1   7   -0.68    2.41
   9   1   8   84.34   11.04
   9   1   8   85.50   10.37
   9   1   9  172.73   16.40
   9   1   9  182.83   15.88
   9   1  10    2.83    3.89
   9   1  10   -0.14    3.03
  -9  -2   8  231.73   18.26
  -9  -2   7  135.01   13.35
  -9  -2   6    3.31    2.87
  -9  -2   5  285.18   18.87
  -9  -2   4  165.17   13.72
  -9  -2   3  132.77   12.15
  -9  -2   2  422.80   22.18
  -9  -2   1   30.96    5.75
   9   2   0   55.44    7.50
  -9  -2   0   59.53    7.86
   9   2   1  114.62   10.85
  -9  -2  -1  120.51   11.48
   9   2   2   14.25    3.73
  -9  -2  -2   12.75    3.77
   9   2   3  183.16   14.00
  -9  -2  -3  173.74   14.06
   9   2   4  222.16   15.59
   9   2   5   11.34    3.77
   9   2   6  128.39   12.03
   9   2   7   83.03    9.90
   9   2   8   -0.36    2.41
   9   2   8    9.42    4.39
   9   2   9  126.38   14.17
   9   2   9  149.66   13.79
   9   2  10   40.65    7.30
   9   2  11   34.83    7.18
  -9  -3   8   77.33   10.50
  -9  -3   7  198.07   16.22
  -9  -3   6   45.23    7.70
  -9  -3   5   69.85    9.04
  -9  -3   4  176.04   14.11
  -9  -3   3    8.83    3.59
  -9  -3   2  212.74   15.20
  -9  -3   1  155.34   12.74
  -9  -3   0    5.13    2.66
  -9  -3  -1  232.51   15.94
   9   3   2  127.59   11.12
  -9  -3  -2  133.28   11.82
   9   3   3   30.75    5.74
  -9  -3  -3   23.90    5.23
   9   3   4  103.66   10.24
   9   3   5   45.05    7.20
   9   3   6   38.98    6.74
   9   3   7  256.88   17.19
   9   3   8   58.41    8.07
   9   3   9   81.69    9.84
   9   3   9   92.16   12.39
   9   3  10   67.32    9.35
   9   3  11   -0.56    3.61
  -9  -4   7  126.29   12.76
  -9  -4   6  182.98   15.25
  -9  -4   5   -0.60    2.52
  -9  -4   4  193.52   14.93
   9   4  -4  205.99   16.86
  -9  -4   3   86.93    9.76
   9   4  -3   94.97   11.67
   9   4  -2    0.47    2.90
  -9  -4   2    4.09    2.78
  -9  -4   1   95.76    9.70
   9   4  -1   90.35   11.12
  -9  -4   0   81.51    9.12
   9   4   0   77.37   10.06
  -9  -4  -1  105.18   10.31
   9   4   1  111.83   12.39
  -9  -4  -2  286.53   17.54
   9   4   2  288.35   20.30
   9   4   3    3.54    2.48
  -9  -4  -3   -1.04    2.72
   9   4   4   39.65    6.18
   9   4   4   42.27    7.43
   9   4   5   58.17    7.35
   9   4   5   58.17    8.73
   9   4   6   10.42    3.40
   9   4   6   12.63    4.60
   9   4   7  125.44   11.46
   9   4   8  174.05   13.72
   9   4   9   -0.52    2.60
   9   4  10  105.38   11.19
  -9  -5   6  138.09   13.02
   9   5  -6  113.45   12.70
   9   5  -5   42.96    8.11
  -9  -5   5   38.65    6.87
  -9  -5   4  100.75   10.54
   9   5  -4  105.08   12.41
  -9  -5   3  149.37   12.57
   9   5  -3  134.05   13.84
   9   5  -2   15.74    5.15
  -9  -5   2   13.15    3.81
   9   5  -1   27.64    6.32
  -9  -5   1   37.30    6.35
  -9  -5   0  146.35   11.87
   9   5   0  144.01   14.27
   9   5   1   -1.06    3.14
  -9  -5  -1    5.72    2.49
  -9  -5  -2  116.49   10.64
   9   5   2  141.23   14.07
   9   5   3  109.00   12.33
   9   5   4   -0.19    1.82
   9   5   4    5.75    3.79
   9   5   5  125.79   10.19
   9   5   5  132.31   13.90
   9   5   6  128.70   10.59
   9   5   6  151.79   14.84
   9   5   7    8.52    4.30
   9   5   8   78.69   10.83
   9   6  -5   86.62   11.44
   9   6  -4    2.22    3.45
   9   6  -3   61.24    9.44
   9   6  -2   90.09   11.68
   9   6  -1    4.11    2.71
   9   6   0  152.01   15.05
   9   6   1   45.42    8.11
   9   6   2    3.12    2.79
   9   6   3   64.26   10.04
   9   6   4   52.42    9.03
   9   6   5   52.65    8.62
   9   6   6  227.06   18.47
   9   6   7   26.53    6.99
   9   6   8   48.49    8.86
  10  -4  -3  214.43   18.89
 -10   4   3  221.20   18.20
  10  -4  -2   59.50   10.08
 -10   4   2   73.88   10.44
  10  -4  -1   18.66    5.14
 -10   4   1   27.44    6.52
  10  -4   0  431.77   26.88
 -10   4   0  427.30   26.13
  10  -4   1   76.28   10.89
 -10   4  -1  101.69   12.40
  10  -4   2  109.14   13.37
 -10   4  -2  122.05   13.52
 -10   3   4   24.05    5.87
 -10   3   3  100.52   11.84
  10  -3  -2  230.99   19.03
 -10   3   2  221.57   17.89
  10  -3  -1   51.77    9.06
 -10   3   1   50.30    8.43
  10  -3   0  186.20   16.91
 -10   3   0  186.88   16.38
  10  -3   1  463.65   27.35
 -10   3  -1  475.02   27.16
  10  -3   2    8.79    4.08
 -10   3  -2   12.00    4.97
  10  -3   3  317.21   22.39
  10  -3   3  268.66   16.77
  10  -3   4  190.64   17.56
  10  -3   4  147.91   12.53
  10  -3   5    2.44    2.02
  10  -3   6  167.35   14.29
  10  -3   7   77.43    9.98
 -10   2   5  224.79   18.07
 -10   2   4  185.73   16.21
 -10   2   3    2.20    2.24
  10  -2  -2  317.74   21.94
 -10   2   2  329.95   21.54
  10  -2  -1  266.68   19.83
 -10   2   1  250.38   18.77
  10  -2   0    2.49    2.67
 -10   2   0    1.20    3.31
  10  -2   1  363.90   23.58
 -10   2  -1  404.99   24.40
  10  -2   2  138.04   14.21
 -10   2  -2  151.40   14.75
  10  -2   2  153.39   12.70
  10  -2   3   50.18    8.59
 -10   2  -3   53.72    8.71
  10  -2   3   41.58    7.02
  10  -2   4  464.66   26.92
  10  -2   4  385.47   21.88
  10  -2   5  141.38   14.77
  10  -2   5  119.90   12.04
  10  -2   6   95.00   10.94
  10  -2   7  170.51   15.09
  10  -2   8    3.63    2.66
 -10   1   6  101.72   12.23
 -10   1   5    9.22    4.07
 -10   1   4  220.47   17.48
 -10   1   3  184.81   15.85
 -10   1   2   69.58    9.61
  10  -1  -1  737.47   34.00
 -10   1   1  736.98   33.50
  10  -1   0  111.75   12.24
 -10   1   0  106.82   11.79
  10  -1   1  182.68   15.79
 -10   1  -1  166.60   15.12
  10  -1   2  263.66   19.30
 -10   1  -2  282.92   19.80
  10  -1   3   69.68   10.05
 -10   1  -3   73.40    9.97
  10  -1   4  179.96   16.10
  10  -1   4  177.28   14.78
  10  -1   5  414.92   25.27
  10  -1   5  393.49   23.07
  10  -1   6    6.18    3.32
  10  -1   6    8.86    4.12
  10  -1   7  195.22   16.59
  10  -1   7  237.49   19.44
  10  -1   8   77.85   10.51
 -10   0   6  235.75   18.50
 -10   0   5   40.19    7.55
 -10   0   4   88.53   10.68
 -10   0   3  315.55   20.78
 -10   0   2   44.00    7.78
  10   0  -1  378.43   22.85
 -10   0   1  364.66   22.15
  10   0   0  394.14   23.52
 -10   0   0  438.85   24.49
  10   0   1   -3.50    3.75
 -10   0  -1    3.84    3.13
  10   0   2  336.55   21.47
 -10   0  -2  386.44   23.17
  10   0   3  308.91   20.65
 -10   0  -3  305.09   20.68
  10   0   4   11.54    3.68
  10   0   5  341.69   22.30
  10   0   6  127.22   13.75
  10   0   6  102.76   11.96
  10   0   7   37.42    7.45
  10   0   7   66.73    9.99
  10   0   8  187.95   16.94
  10   0   8  224.55   18.66
 -10  -1   6  180.69   15.97
 -10  -1   5  229.88   17.67
 -10  -1   4   -1.17    3.69
 -10  -1   3  493.72   26.16
 -10  -1   2  319.17   20.40
 -10  -1   1   22.03    5.36
  10   1   0  297.16   19.51
 -10  -1   0  295.23   19.53
  10   1   1  250.53   17.95
 -10  -1  -1  287.88   19.46
  10   1   2   62.54    8.83
 -10  -1  -2   56.86    8.29
  10   1   3  628.48   29.87
 -10  -1  -3  652.37   30.79
  10   1   4  131.48   12.96
  10   1   5  153.35   14.12
  10   1   6  135.58   13.70
  10   1   7   19.91    5.85
  10   1   7   15.13    4.56
  10   1   8   69.29   10.00
  10   1   8   62.87    9.89
  10   1   9  186.33   17.15
 -10  -2   6    2.59    3.30
 -10  -2   5  202.08   16.52
 -10  -2   4  174.99   15.10
 -10  -2   3  139.45   13.47
 -10  -2   2  459.99   24.67
 -10  -2   1   41.99    7.20
 -10  -2   0  112.72   11.89
  10   2   1  370.17   21.71
 -10  -2  -1  406.33   22.94
  10   2   2   48.33    7.57
 -10  -2  -2   41.19    7.15
  10   2   3  329.04   20.26
 -10  -2  -3  317.56   20.35
  10   2   4  362.73   21.41
  10   2   5    3.97    2.45
  10   2   6  199.42   16.00
  10   2   7  139.63   13.65
  10   2   8   10.04    4.13
  10   2   8    4.07    2.61
  10   2   9  147.47   14.59
 -10  -3   6   49.47    8.43
 -10  -3   5  110.41   11.82
 -10  -3   4  324.33   20.86
 -10  -3   3   16.19    5.19
 -10  -3   2  228.06   16.73
 -10  -3   1  370.15   21.57
 -10  -3   0   -0.60    3.42
 -10  -3  -1  393.46   22.47
  10   3   2  313.98   19.07
 -10  -3  -2  337.77   20.60
  10   3   3   24.11    5.21
 -10  -3  -3   15.11    4.45
  10   3   4  192.33   14.91
  10   3   5   75.26    9.22
  10   3   6   29.88    6.26
  10   3   7  300.47   19.61
  10   3   8   45.50    7.94
  10   3   9   67.77   10.03
  10   3  10   75.03   10.23
 -10  -4   6  181.75   15.88
 -10  -4   5   21.37    5.76
 -10  -4   4  251.52   17.98
 -10  -4   3  148.90   13.40
 -10  -4   2    7.74    3.71
 -10  -4   1  230.77   16.49
 -10  -4   0  185.32   14.70
 -10  -4  -1  150.87   13.35
 -10  -4  -2  412.22   22.79
  10   4   3   11.37    3.63
 -10  -4  -3    7.29    3.10
  10   4   4   64.06    8.14
  10   4   5  156.36   13.10
  10   4   6   12.52    4.11
  10   4   7  136.34   12.60
  10   4   8  150.47   13.34
 -10  -5   1   84.63    9.82
 -10  -5   0  357.15   20.69
  10   5   0  361.38   24.60
  10   5   1    9.92    4.83
  10   5   2  151.66   15.63
 -11   1   2   56.27    8.97
  11  -1  -1  274.95   20.84
 -11   1   1  280.48   20.57
  11  -1   0   -2.88    3.68
 -11   1   0    3.00    3.56
  11  -1   1   72.76   10.26
 -11   1  -1   78.19   10.91
  11  -1   2  105.74   12.67
 -11   1  -2  101.75   12.41
  11  -1   3    5.47    2.95
 -11   1  -3   20.06    5.84
  11  -1   4   95.84   11.33
  11  -1   5  294.41   20.53
  11  -1   6    4.36    2.78
  11  -1   7  154.95   15.14
 -11   0   3   84.80   11.08
 -11   0   2    2.33    2.56
 -11   0   1  161.00   15.25
  11   0   0  103.92   12.38
 -11   0   0   95.51   11.87
  11   0   1    1.87    2.59
 -11   0  -1    1.47    2.87
  11   0   2  194.80   16.83
 -11   0  -2  179.82   16.33
  11   0   3  145.93   14.64
 -11   0  -3  146.78   14.79
  11   0   4   15.99    5.00
  11   0   5  186.81   16.72
  11   0   6   39.37    7.78
  11   0   7    7.73    4.28
 -11  -1   3  197.97   17.05
 -11  -1   2   42.71    7.86
 -11  -1   1   25.42    6.44
 -11  -1   0  116.68   12.92
  11   1   1   61.24    9.28
 -11  -1  -1   77.61   10.38
  11   1   2   42.55    7.56
 -11  -1  -2   52.51    8.54
  11   1   3  491.40   27.10
 -11  -1  -3  497.18   27.81
  11   1   4   12.04    4.56
  11   1   5  111.89   12.83
  11   1   6  168.42   15.88
 -11  -2   3   99.43   11.71
 -11  -2   2  139.68   13.96
 -11  -2   1    5.40    3.18
 -11  -2   0   55.40    8.55
 -11  -2  -1  229.11   17.99
  11   2   2   17.91    4.87
 -11  -2  -2   17.97    4.71
  11   2   3  223.68   17.28
 -11  -2  -3  211.95   17.44
  11   2   4  205.74   16.74
  11   2   5    3.17    2.60
  11   2   6  200.46   16.95
  11   2   7  199.59   17.15
 -11  -3   4   90.06   11.16
 -11  -3   3   -0.19    2.49
 -11  -3   2  117.37   12.51
 -11  -3   1  101.02   11.58
 -11  -3   0    1.81    2.76
 -11  -3  -1  322.89   21.22
 -11  -3  -2   88.67   10.88
  11   3   3    9.72    3.63
 -11  -3  -3   10.54    4.19
  11   3   4  197.85   16.11
  11   3   5   94.26   11.15
  11   3   6   46.16    7.96
  11   3   7  396.38   23.85
 -11  -4   2   -3.92    3.95
 -11  -4   1  178.85   15.26
 -11  -4   0   96.55   11.33
 -11  -4  -1   96.11   11.06
 -11  -4  -2  312.03   20.42
   0   0   0    0.00    0.00
TITL LS010_Mo in P-1
REM P-1 (#2 in standard setting)
CELL 0.71073   8.814449   8.998199  12.343977  76.7840  87.1113  88.5141
ZERR    4.00   0.000322   0.000288   0.000395   0.0027   0.0029   0.0028
LATT  1
SFAC C H N Cl Bi
UNIT 24.00 36.00 8.00 12.00 4.00
TREF
HKLF 4
END
_computing_structure_solution     'SHELXT 2014/5 (Sheldrick, 2014)'
_computing_structure_solution     'SHELXT 2014/5 (Sheldrick, 2014)'
;
_shelx_hkl_checksum              2250
_shelx_res_file
;
TITL ls010_mo_a.res in P-1
    x.res
    created by SHELXL-2018/3 at 09:48:51 on 04-May-2020
REM Old TITL ls010_mo_a.res in P-1
REM SHELXT solution in P-1
REM R1 0.062, Rweak 0.011, Alpha 0.023, Orientation as input
REM Formula found by SHELXT: C13 N3 Cl5 Bi
CELL 0.71073 8.8144 8.9982 12.344 76.784 87.111 88.514
ZERR 1 0.0003 0.0003 0.0004 0.003 0.003 0.003
LATT 1
SFAC C H Bi Cl N
UNIT 24 36 2 10 8
L.S. 8
SIZE 0.25 0.15 0.07
PLAN  15
TEMP -113
CONF
BOND $H
fmap 2
acta
RIGU N3 > C12
HTAB N1 Cl4
EQIV $2 x-1, y, z
HTAB N2 Cl4
HTAB N2 Cl2_$2
EQIV $3 -x+1, -y+1, -z+1
EQIV $1 -x+1, -y+1, -z
HTAB N3 Cl5_$1
HTAB N4 Cl3_$1
EQIV $4 -x, -y+1, -z
HTAB N4 Cl5_$4
WGHT    0.015000
FVAR       0.28772
BI1   3    0.507689    0.394474    0.177323    11.00000    0.01407    0.02466 =
         0.01962   -0.00777   -0.00009   -0.00037
CL1   4    0.500207    0.128002    0.305469    11.00000    0.03289    0.02990 =
         0.03704   -0.00271    0.00115    0.00110
CL2   4    0.539404    0.530685    0.338996    11.00000    0.02457    0.04642 =
         0.02984   -0.02091   -0.00135   -0.00234
CL3   4    0.804327    0.367624    0.147814    11.00000    0.01447    0.03814 =
         0.04273   -0.01416    0.00125    0.00067
CL4   4    0.199021    0.429847    0.207098    11.00000    0.01407    0.03534 =
         0.03604   -0.01430   -0.00062    0.00072
CL5   4    0.478784    0.298346   -0.023429    11.00000    0.04578    0.03104 =
         0.02804   -0.01257   -0.00295   -0.00577
N1    5    0.146945    0.642439    0.390227    11.00000    0.02288    0.02331 =
         0.02405   -0.00540    0.00303    0.00394
AFIX  43
H1    2    0.190004    0.588325    0.345739    11.00000   -1.20000
AFIX   0
N2    5   -0.085428    0.579656    0.336262    11.00000    0.02207    0.02818 =
         0.02377   -0.01013    0.00250    0.00115
AFIX  93
H21   2   -0.037783    0.526435    0.293025    11.00000   -1.20000
H22   2   -0.185334    0.584809    0.339472    11.00000   -1.20000
AFIX   0
C1    1   -0.006870    0.651909    0.396430    11.00000    0.02165    0.01782 =
         0.01704    0.00322    0.00215    0.00099
C2    1   -0.076239    0.740159    0.468292    11.00000    0.02645    0.01843 =
         0.01918   -0.00124    0.00256    0.00365
C3    1    0.017731    0.805964    0.528670    11.00000    0.03401    0.02333 =
         0.02477   -0.00800   -0.00081    0.00269
AFIX  43
H31   2   -0.026500    0.862991    0.578447    11.00000   -1.20000
AFIX   0
C4    1    0.175735    0.792486    0.519896    11.00000    0.02809    0.02920 =
         0.03961   -0.01177   -0.00923    0.00054
AFIX  43
H4    2    0.238106    0.839019    0.562910    11.00000   -1.20000
AFIX   0
C5    1    0.238113    0.711042    0.448201    11.00000    0.02101    0.02723 =
         0.03781   -0.00142   -0.00185   -0.00038
AFIX  43
H5    2    0.345384    0.702426    0.438924    11.00000   -1.20000
AFIX   0
C6    1   -0.245226    0.757778    0.474470    11.00000    0.02459    0.03122 =
         0.03176   -0.00953    0.00186    0.00506
AFIX 137
H61   2   -0.280318    0.809261    0.401056    11.00000   -1.50000
H62   2   -0.274901    0.818780    0.528682    11.00000   -1.50000
H63   2   -0.291321    0.656853    0.497726    11.00000   -1.50000
AFIX   0
N3    5    0.158264    0.810558    0.094343    11.00000    0.03289    0.03500 =
         0.05412    0.01071    0.01758    0.01128
AFIX  43
H3    2    0.207612    0.748010    0.059175    11.00000   -1.20000
AFIX   0
N4    5   -0.058052    0.723282    0.039913    11.00000    0.06083    0.03550 =
         0.03626   -0.01504    0.01158   -0.00478
AFIX  93
H41   2   -0.002586    0.663843    0.005540    11.00000   -1.20000
H42   2   -0.157750    0.722971    0.038404    11.00000   -1.20000
AFIX   0
C7    1    0.007782    0.812213    0.093320    11.00000    0.04694    0.02403 =
         0.03200    0.00319    0.00629   -0.00132
C8    1   -0.077601    0.912749    0.149227    11.00000    0.03362    0.02300 =
         0.02269   -0.00086    0.00534    0.00185
C9    1    0.008489    1.000405    0.198274    11.00000    0.03851    0.03287 =
         0.03800    0.00187   -0.00258   -0.00093
AFIX  43
H9    2   -0.043656    1.069626    0.235317    11.00000   -1.20000
AFIX   0
C10   1    0.165936    0.996830    0.198537    11.00000    0.05226    0.04871 =
         0.04487    0.00168   -0.01500   -0.01562
AFIX  43
H10   2    0.218704    1.061239    0.234552    11.00000   -1.20000
AFIX   0
C11   1    0.243605    0.897381    0.145174    11.00000    0.04575    0.03637 =
         0.04344    0.00768    0.00446   -0.00237
AFIX  43
H11   2    0.351336    0.889422    0.143717    11.00000   -1.20000
AFIX   0
C12   1   -0.242777    0.915044    0.149797    11.00000    0.03722    0.04329 =
         0.03894   -0.00979    0.00120   -0.00100
AFIX 137
H121  2   -0.275546    0.939059    0.072959    11.00000   -1.50000
H122  2   -0.282958    0.992859    0.188067    11.00000   -1.50000
H123  2   -0.281062    0.814759    0.188748    11.00000   -1.50000
AFIX   0
HKLF 4
REM  ls010_mo_a.res in P-1
REM wR2 = 0.0486, GooF = S = 1.024, Restrained GooF = 1.023 for all data
REM R1 = 0.0241 for 4137 Fo > 4sig(Fo) and 0.0277 for all 4463 data
REM 201 parameters refined using 54 restraints
END
WGHT      0.0150      0.0000
REM Highest difference peak  0.894,  deepest hole -1.033,  1-sigma level  0.133
Q1    1   0.5177  0.4299  0.1059  11.00000  0.05    0.89
Q2    1   0.5035  0.3613  0.2432  11.00000  0.05    0.85
Q3    1   0.0726  1.0664  0.2440  11.00000  0.05    0.84
Q4    1   0.4287  0.3292  0.1798  11.00000  0.05    0.73
Q5    1   0.5514  0.0988  0.2533  11.00000  0.05    0.72
Q6    1   0.5764  0.4563  0.1846  11.00000  0.05    0.71
Q7    1  -0.1459  0.8330  0.0807  11.00000  0.05    0.67
Q8    1   0.0386  0.9429  0.1657  11.00000  0.05    0.63
Q9    1   0.6888  0.2983  0.1733  11.00000  0.05    0.61
Q10   1   0.1402  0.8797  0.1334  11.00000  0.05    0.58
Q11   1   0.0937  0.7662  0.0673  11.00000  0.05    0.52
Q12   1   0.3290  0.4764 -0.0240  11.00000  0.05    0.51
Q13   1  -0.0230  0.6726  0.4541  11.00000  0.05    0.50
Q14   1   0.3299  0.4846  0.1912  11.00000  0.05    0.49
Q15   1   0.1447  1.1638  0.2175  11.00000  0.05    0.47
;
_shelx_res_checksum              84978
loop_
_space_group_symop_operation_xyz
'x, y, z'
'-x, -y, -z'
loop_
_atom_site_type_symbol
_atom_site_label
_atom_site_fract_x
_atom_site_fract_y
_atom_site_fract_z
_atom_site_U_iso_or_equiv
_atom_site_adp_type
_atom_site_calc_flag
_atom_site_occupancy
_atom_site_disorder_assembly
_atom_site_disorder_group
Bi Bi1 0.50769(2) 0.39447(2) 0.17732(2) 0.01904(5) Uani d 1 . .
Cl Cl1 0.50021(11) 0.12800(10) 0.30547(8) 0.0342(2) Uani d 1 . .
Cl Cl2 0.53940(10) 0.53069(11) 0.33900(8) 0.0316(2) Uani d 1 . .
Cl Cl3 0.80433(10) 0.36762(11) 0.14781(9) 0.0311(2) Uani d 1 . .
Cl Cl4 0.19902(10) 0.42985(10) 0.20710(8) 0.0275(2) Uani d 1 . .
Cl Cl5 0.47878(12) 0.29835(11) -0.02343(8) 0.0339(2) Uani d 1 . .
N N1 0.1469(3) 0.6424(3) 0.3902(2) 0.0236(7) Uani d 1 . .
H H1 0.190004 0.588325 0.345739 0.028 Uiso calc 1 . .
N N2 -0.0854(3) 0.5797(3) 0.3363(2) 0.0241(7) Uani d 1 . .
H H21 -0.037783 0.526435 0.293025 0.029 Uiso calc 1 . .
H H22 -0.185334 0.584809 0.339472 0.029 Uiso calc 1 . .
C C1 -0.0069(4) 0.6519(4) 0.3964(3) 0.0201(7) Uani d 1 . .
C C2 -0.0762(4) 0.7402(4) 0.4683(3) 0.0220(8) Uani d 1 . .
C C3 0.0177(4) 0.8060(4) 0.5287(3) 0.0270(8) Uani d 1 . .
H H31 -0.026500 0.862991 0.578447 0.032 Uiso calc 1 . .
C C4 0.1757(4) 0.7925(4) 0.5199(3) 0.0314(9) Uani d 1 . .
H H4 0.238106 0.839019 0.562910 0.038 Uiso calc 1 . .
C C5 0.2381(4) 0.7110(4) 0.4482(3) 0.0296(9) Uani d 1 . .
H H5 0.345384 0.702426 0.438924 0.036 Uiso calc 1 . .
C C6 -0.2452(4) 0.7578(4) 0.4745(3) 0.0290(9) Uani d 1 . .
H H61 -0.280318 0.809261 0.401056 0.044 Uiso calc 1 . .
H H62 -0.274901 0.818780 0.528682 0.044 Uiso calc 1 . .
H H63 -0.291321 0.656853 0.497726 0.044 Uiso calc 1 . .
N N3 0.1583(4) 0.8106(4) 0.0943(3) 0.0449(10) Uani d 1 . .
H H3 0.207612 0.748010 0.059175 0.054 Uiso calc 1 . .
N N4 -0.0581(4) 0.7233(4) 0.0399(3) 0.0435(9) Uani d 1 . .
H H41 -0.002586 0.663843 0.005540 0.052 Uiso calc 1 . .
H H42 -0.157750 0.722971 0.038404 0.052 Uiso calc 1 . .
C C7 0.0078(5) 0.8122(4) 0.0933(3) 0.0361(9) Uani d 1 . .
C C8 -0.0776(5) 0.9127(4) 0.1492(3) 0.0274(8) Uani d 1 . .
C C9 0.0085(5) 1.0004(5) 0.1983(4) 0.0380(10) Uani d 1 . .
H H9 -0.043656 1.069626 0.235317 0.046 Uiso calc 1 . .
C C10 0.1659(6) 0.9968(5) 0.1985(4) 0.0499(12) Uani d 1 . .
H H10 0.218704 1.061239 0.234552 0.060 Uiso calc 1 . .
C C11 0.2436(6) 0.8974(5) 0.1452(4) 0.0447(11) Uani d 1 . .
H H11 0.351336 0.889422 0.143717 0.054 Uiso calc 1 . .
C C12 -0.2428(5) 0.9150(5) 0.1498(4) 0.0398(10) Uani d 1 . .
H H121 -0.275546 0.939059 0.072959 0.060 Uiso calc 1 . .
H H122 -0.282958 0.992859 0.188067 0.060 Uiso calc 1 . .
H H123 -0.281062 0.814759 0.188748 0.060 Uiso calc 1 . .
loop_
_atom_site_aniso_label
_atom_site_aniso_U_11
_atom_site_aniso_U_22
_atom_site_aniso_U_33
_atom_site_aniso_U_12
_atom_site_aniso_U_13
_atom_site_aniso_U_23
Bi1 0.01407(8) 0.02466(8) 0.01962(8) -0.00037(5) -0.00009(5) -0.00777(5)
Cl1 0.0329(6) 0.0299(5) 0.0370(6) 0.0011(4) 0.0011(4) -0.0027(4)
Cl2 0.0246(5) 0.0464(6) 0.0298(5) -0.0023(4) -0.0013(4) -0.0209(4)
Cl3 0.0145(4) 0.0381(5) 0.0427(6) 0.0007(4) 0.0013(4) -0.0142(4)
Cl4 0.0141(4) 0.0353(5) 0.0360(6) 0.0007(4) -0.0006(4) -0.0143(4)
Cl5 0.0458(6) 0.0310(5) 0.0280(5) -0.0058(4) -0.0029(4) -0.0126(4)
N1 0.0229(17) 0.0233(15) 0.0240(17) 0.0039(13) 0.0030(13) -0.0054(12)
N2 0.0221(16) 0.0282(16) 0.0238(17) 0.0011(13) 0.0025(13) -0.0101(13)
C1 0.0217(19) 0.0178(17) 0.0170(18) 0.0010(14) 0.0022(14) 0.0032(13)
C2 0.026(2) 0.0184(17) 0.0192(19) 0.0037(15) 0.0026(15) -0.0012(13)
C3 0.034(2) 0.0233(19) 0.025(2) 0.0027(16) -0.0008(17) -0.0080(15)
C4 0.028(2) 0.029(2) 0.040(3) 0.0005(17) -0.0092(18) -0.0118(17)
C5 0.021(2) 0.027(2) 0.038(2) -0.0004(16) -0.0019(17) -0.0014(17)
C6 0.025(2) 0.031(2) 0.032(2) 0.0051(16) 0.0019(17) -0.0095(16)
N3 0.033(2) 0.035(2) 0.054(3) 0.0113(15) 0.0176(18) 0.0107(16)
N4 0.061(3) 0.0355(19) 0.036(2) -0.0048(18) 0.0116(18) -0.0150(16)
C7 0.047(2) 0.024(2) 0.032(2) -0.0013(17) 0.0063(19) 0.0032(16)
C8 0.034(2) 0.0230(18) 0.023(2) 0.0018(16) 0.0053(16) -0.0009(14)
C9 0.039(2) 0.033(2) 0.038(3) -0.0009(18) -0.003(2) 0.0019(18)
C10 0.052(3) 0.049(3) 0.045(3) -0.016(2) -0.015(2) 0.002(2)
C11 0.046(3) 0.036(2) 0.043(3) -0.002(2) 0.004(2) 0.0077(19)
C12 0.037(2) 0.043(3) 0.039(3) -0.001(2) 0.001(2) -0.010(2)
loop_
_atom_type_symbol
_atom_type_description
_atom_type_scat_dispersion_real
_atom_type_scat_dispersion_imag
_atom_type_scat_source
C C 0.0033 0.0016 'International Tables Vol C Tables 4.2.6.8 and 6.1.1.4'
H H 0.0000 0.0000 'International Tables Vol C Tables 4.2.6.8 and 6.1.1.4'
Bi Bi -4.1077 10.2566 'International Tables Vol C Tables 4.2.6.8 and 6.1.1.4'
Cl Cl 0.1484 0.1585 'International Tables Vol C Tables 4.2.6.8 and 6.1.1.4'
N N 0.0061 0.0033 'International Tables Vol C Tables 4.2.6.8 and 6.1.1.4'
loop_
_exptl_crystal_face_index_h
_exptl_crystal_face_index_k
_exptl_crystal_face_index_l
_exptl_crystal_face_perp_dist
1 0 0 0.0525
-1 0 0 0.0213
0 -3 -5 0.1295
2 4 5 0.0990
-1 1 5 0.0786
-1 0 -5 0.0472
1 4 -5 0.0573
-1 -5 5 0.0687
loop_
_geom_angle_atom_site_label_1
_geom_angle_atom_site_label_2
_geom_angle_atom_site_label_3
_geom_angle_site_symmetry_1
_geom_angle_site_symmetry_3
_geom_angle
_geom_angle_publ_flag
Cl1 Bi1 Cl2 . . 93.93(3) ?
Cl1 Bi1 Cl3 . . 90.08(3) ?
Cl2 Bi1 Cl3 . . 91.38(3) ?
Cl1 Bi1 Cl4 . . 91.13(3) ?
Cl2 Bi1 Cl4 . . 87.92(3) ?
Cl3 Bi1 Cl4 . . 178.64(3) ?
Cl1 Bi1 Cl5 . . 96.18(3) ?
Cl2 Bi1 Cl5 . . 169.86(3) ?
Cl3 Bi1 Cl5 . . 87.88(3) ?
Cl4 Bi1 Cl5 . . 92.59(3) ?
Cl1 Bi1 Cl5 . 2_665 178.47(3) ?
Cl2 Bi1 Cl5 . 2_665 87.27(3) ?
Cl3 Bi1 Cl5 . 2_665 88.94(3) ?
Cl4 Bi1 Cl5 . 2_665 89.86(3) ?
Cl5 Bi1 Cl5 . 2_665 82.60(3) ?
Bi1 Cl5 Bi1 . 2_665 97.40(3) y
C5 N1 C1 . . 124.0(3) ?
C5 N1 H1 . . 118.0 ?
C1 N1 H1 . . 118.0 ?
C1 N2 H21 . . 120.0 ?
C1 N2 H22 . . 120.0 ?
H21 N2 H22 . . 120.0 ?
N2 C1 N1 . . 119.0(3) ?
N2 C1 C2 . . 123.1(3) ?
N1 C1 C2 . . 117.9(3) ?
C3 C2 C1 . . 117.5(3) ?
C3 C2 C6 . . 123.1(3) ?
C1 C2 C6 . . 119.5(3) ?
C2 C3 C4 . . 122.6(3) ?
C2 C3 H31 . . 118.7 ?
C4 C3 H31 . . 118.7 ?
C5 C4 C3 . . 118.3(4) ?
C5 C4 H4 . . 120.8 ?
C3 C4 H4 . . 120.8 ?
N1 C5 C4 . . 119.7(3) ?
N1 C5 H5 . . 120.1 ?
C4 C5 H5 . . 120.1 ?
C2 C6 H61 . . 109.5 ?
C2 C6 H62 . . 109.5 ?
H61 C6 H62 . . 109.5 ?
C2 C6 H63 . . 109.5 ?
H61 C6 H63 . . 109.5 ?
H62 C6 H63 . . 109.5 ?
C7 N3 C11 . . 125.8(4) ?
C7 N3 H3 . . 117.1 ?
C11 N3 H3 . . 117.1 ?
C7 N4 H41 . . 120.0 ?
C7 N4 H42 . . 120.0 ?
H41 N4 H42 . . 120.0 ?
N4 C7 N3 . . 118.8(4) ?
N4 C7 C8 . . 122.1(4) ?
N3 C7 C8 . . 119.1(4) ?
C9 C8 C7 . . 114.6(4) ?
C9 C8 C12 . . 125.5(4) ?
C7 C8 C12 . . 119.8(4) ?
C8 C9 C10 . . 125.4(4) ?
C8 C9 H9 . . 117.3 ?
C10 C9 H9 . . 117.3 ?
C11 C10 C9 . . 118.2(5) ?
C11 C10 H10 . . 120.9 ?
C9 C10 H10 . . 120.9 ?
N3 C11 C10 . . 116.8(4) ?
N3 C11 H11 . . 121.6 ?
C10 C11 H11 . . 121.6 ?
C8 C12 H121 . . 109.5 ?
C8 C12 H122 . . 109.5 ?
H121 C12 H122 . . 109.5 ?
C8 C12 H123 . . 109.5 ?
H121 C12 H123 . . 109.5 ?
H122 C12 H123 . . 109.5 ?
loop_
_geom_bond_atom_site_label_1
_geom_bond_atom_site_label_2
_geom_bond_site_symmetry_2
_geom_bond_distance
_geom_bond_publ_flag
Bi1 Cl1 . 2.5533(10) y
Bi1 Cl2 . 2.5992(9) y
Bi1 Cl3 . 2.6342(9) y
Bi1 Cl4 . 2.7471(8) y
Bi1 Cl5 . 2.8300(9) y
Bi1 Cl5 2_665 2.9760(10) y
N1 C5 . 1.351(5) ?
N1 C1 . 1.356(4) ?
N1 H1 . 0.8800 ?
N2 C1 . 1.323(4) y
N2 H21 . 0.8800 ?
N2 H22 . 0.8800 ?
C1 C2 . 1.426(5) ?
C2 C3 . 1.372(5) ?
C2 C6 . 1.494(5) ?
C3 C4 . 1.396(5) ?
C3 H31 . 0.9500 ?
C4 C5 . 1.360(5) ?
C4 H4 . 0.9500 ?
C5 H5 . 0.9500 ?
C6 H61 . 0.9800 ?
C6 H62 . 0.9800 ?
C6 H63 . 0.9800 ?
N3 C7 . 1.327(5) ?
N3 C11 . 1.368(6) ?
N3 H3 . 0.8800 ?
N4 C7 . 1.310(5) y
N4 H41 . 0.8800 ?
N4 H42 . 0.8800 ?
C7 C8 . 1.435(5) ?
C8 C9 . 1.364(6) ?
C8 C12 . 1.455(6) ?
C9 C10 . 1.387(6) ?
C9 H9 . 0.9500 ?
C10 C11 . 1.377(6) ?
C10 H10 . 0.9500 ?
C11 H11 . 0.9500 ?
C12 H121 . 0.9800 ?
C12 H122 . 0.9800 ?
C12 H123 . 0.9800 ?
loop_
_geom_hbond_atom_site_label_D
_geom_hbond_atom_site_label_H
_geom_hbond_atom_site_label_A
_geom_hbond_site_symmetry_A
_geom_hbond_distance_DH
_geom_hbond_distance_HA
_geom_hbond_distance_DA
_geom_hbond_angle_DHA
_geom_hbond_publ_flag
N1 H1 Cl4 . 0.88 2.46 3.287(3) 156 yes
N2 H21 Cl4 . 0.88 2.52 3.324(3) 153 yes
N2 H22 Cl2 1_455 0.88 2.49 3.345(3) 165 yes
N3 H3 Cl5 2_665 0.88 2.81 3.451(4) 131 yes
N4 H41 Cl3 2_665 0.88 2.57 3.360(3) 150 yes
N4 H42 Cl5 2_565 0.88 2.86 3.737(4) 175 yes
loop_
_geom_torsion_atom_site_label_1
_geom_torsion_atom_site_label_2
_geom_torsion_atom_site_label_3
_geom_torsion_atom_site_label_4
_geom_torsion_site_symmetry_1
_geom_torsion_site_symmetry_2
_geom_torsion_site_symmetry_3
_geom_torsion_site_symmetry_4
_geom_torsion
_geom_torsion_publ_flag
C5 N1 C1 N2 . . . . -179.8(3) ?
C5 N1 C1 C2 . . . . 0.2(5) ?
N2 C1 C2 C3 . . . . 178.2(3) ?
N1 C1 C2 C3 . . . . -1.8(5) ?
N2 C1 C2 C6 . . . . -2.1(5) ?
N1 C1 C2 C6 . . . . 177.9(3) ?
C1 C2 C3 C4 . . . . 1.6(5) ?
C6 C2 C3 C4 . . . . -178.1(3) ?
C2 C3 C4 C5 . . . . 0.2(6) ?
C1 N1 C5 C4 . . . . 1.6(6) ?
C3 C4 C5 N1 . . . . -1.8(6) ?
C11 N3 C7 N4 . . . . 179.3(4) ?
C11 N3 C7 C8 . . . . 0.2(6) ?
N4 C7 C8 C9 . . . . -178.4(4) ?
N3 C7 C8 C9 . . . . 0.7(6) ?
N4 C7 C8 C12 . . . . 1.5(6) ?
N3 C7 C8 C12 . . . . -179.4(4) ?
C7 C8 C9 C10 . . . . -0.9(6) ?
C12 C8 C9 C10 . . . . 179.3(4) ?
C8 C9 C10 C11 . . . . 0.1(7) ?
C7 N3 C11 C10 . . . . -1.0(7) ?
C9 C10 C11 N3 . . . . 0.9(6) ?

_cod_database_fobs_code 2022114
