#------------------------------------------------------------------------------
#$Date: 2021-06-06 19:15:37 +0300 (Sun, 06 Jun 2021) $
#$Revision: 266206 $
#$URL: file:///home/coder/svn-repositories/cod/cif/2/02/23/2022348.cif $
#------------------------------------------------------------------------------
#
# This file is available in the Crystallography Open Database (COD),
# http://www.crystallography.net/. The original data for this entry
# were provided by IUCr Journals, http://journals.iucr.org/.
#
# The file may be used within the scientific community so long as
# proper attribution is given to the journal article from which the
# data were obtained.
#
data_2022348
loop_
_publ_author_name
'Kumasaki, Mieko'
'Gontani, Saori'
'Mori, Kanae'
'Matsumoto, Shinya'
'Inoue, Kazuki'
_publ_section_title
;
 Crystallographic study of the energetic salt 1,2,4-triazolium perchlorate
;
_journal_coeditor_code           WP3012
_journal_issue                   5
_journal_name_full               'Acta Crystallographica Section C'
_journal_page_first              197
_journal_page_last               201
_journal_paper_doi               10.1107/S2053229621003260
_journal_volume                  77
_journal_year                    2021
_chemical_formula_iupac          'C2 H4 N3 +, Cl O4 -'
_chemical_formula_moiety         'C2 H4 N3 +, Cl O4 -'
_chemical_formula_sum            'C2 H4 Cl N3 O4'
_chemical_formula_weight         169.53
_chemical_name_systematic        '1<i>H</i>-1,2,4-Triazolium perchlorate'
_space_group_crystal_system      monoclinic
_space_group_IT_number           11
_space_group_name_Hall           '-P 2yb'
_space_group_name_H-M_alt        'P 1 21/m 1'
_atom_sites_solution_hydrogens   mixed
_atom_sites_solution_primary     iterative
_cell_angle_alpha                90
_cell_angle_beta                 96.1530(10)
_cell_angle_gamma                90
_cell_formula_units_Z            4
_cell_length_a                   5.18590(10)
_cell_length_b                   11.84970(10)
_cell_length_c                   9.64610(10)
_cell_measurement_reflns_used    2328
_cell_measurement_temperature    223(2)
_cell_measurement_theta_max      73.0720
_cell_measurement_theta_min      4.6110
_cell_volume                     589.351(14)
_computing_cell_refinement
;
CrysAlis PRO (Rigaku OD, 2018)
;
_computing_data_collection
;
CrysAlis PRO (Rigaku OD, 2018)
;
_computing_data_reduction
;
CrysAlis PRO (Rigaku OD, 2018)
;
_computing_molecular_graphics
;
Mercury (Macrae <i>et al.</i>,  2020)
;
_computing_publication_material
;
publCIF (Westrip, 2010)
;
_computing_structure_refinement
;
SHELXL2018 (Sheldrick, 2015)
and OLEX2 (Dolomanov <i>et al.</i>,  2009)
;
_computing_structure_solution
;
olex2.solve (Bourhis <i>et al.</i>,  2015)
;
_diffrn_ambient_temperature      223(2)
_diffrn_detector                 'CCD plate'
_diffrn_measured_fraction_theta_full 0.999
_diffrn_measured_fraction_theta_max 0.978
_diffrn_measurement_device       'four-circle diffractometer'
_diffrn_measurement_device_type  'XtaLAB AFC12 (RINC) Kappa dual home/near'
_diffrn_measurement_method       '\w scans'
_diffrn_radiation_monochromator  mirror
_diffrn_radiation_probe          x-ray
_diffrn_radiation_type           CuK\a
_diffrn_radiation_wavelength     1.54184
_diffrn_reflns_av_R_equivalents  0.0296
_diffrn_reflns_av_unetI/netI     0.0321
_diffrn_reflns_limit_h_max       6
_diffrn_reflns_limit_h_min       -6
_diffrn_reflns_limit_k_max       14
_diffrn_reflns_limit_k_min       -13
_diffrn_reflns_limit_l_max       11
_diffrn_reflns_limit_l_min       -11
_diffrn_reflns_number            3611
_diffrn_reflns_theta_full        67.684
_diffrn_reflns_theta_max         73.342
_diffrn_reflns_theta_min         4.611
_diffrn_source                   'micro-focus sealed X-ray tube'
_exptl_absorpt_coefficient_mu    5.537
_exptl_absorpt_correction_T_max  1.00000
_exptl_absorpt_correction_T_min  0.83791
_exptl_absorpt_correction_type   multi-scan
_exptl_absorpt_process_details
;
(CrysAlis PRO; Rigaku OD, 2018)
;
_exptl_crystal_colour            'clear pale yellow'
_exptl_crystal_density_diffrn    1.911
_exptl_crystal_description       plate
_exptl_crystal_F_000             344
_exptl_crystal_size_max          1
_exptl_crystal_size_mid          0.6
_exptl_crystal_size_min          0.3
_refine_diff_density_max         0.265
_refine_diff_density_min         -0.753
_refine_ls_extinction_method     none
_refine_ls_goodness_of_fit_ref   1.116
_refine_ls_hydrogen_treatment    mixed
_refine_ls_matrix_type           full
_refine_ls_number_parameters     108
_refine_ls_number_reflns         1217
_refine_ls_number_restraints     0
_refine_ls_restrained_S_all      1.116
_refine_ls_R_factor_all          0.0362
_refine_ls_R_factor_gt           0.0347
_refine_ls_shift/su_max          0.000
_refine_ls_shift/su_mean         0.000
_refine_ls_structure_factor_coef Fsqd
_refine_ls_weighting_details
'w=1/[\s^2^(Fo^2^)+(0.0523P)^2^+0.1864P] where P=(Fo^2^+2Fc^2^)/3'
_refine_ls_weighting_scheme      calc
_refine_ls_wR_factor_gt          0.0925
_refine_ls_wR_factor_ref         0.0942
_reflns_number_gt                1136
_reflns_number_total             1217
_reflns_threshold_expression     'I > 2\s(I)'
_cod_data_source_file            wp3012sup1.cif
_cod_data_source_block           I
_cod_depositor_comments          'Adding full bibliography for 2022348.cif.'
_cod_original_sg_symbol_H-M      'P 21/m'
_cod_database_code               2022348
_cod_database_fobs_code          2022348
_shelx_space_group_comment
;
The symmetry employed for this shelxl refinement is uniquely defined
by the following loop, which should always be used as a source of
symmetry information in preference to the above space-group names.
They are only intended as comments.
;
_shelx_estimated_absorpt_t_min   0.072
_shelx_estimated_absorpt_t_max   0.287
_shelx_hkl_file
;
   0   0   1   55.86    2.43
   0   0   2   98.10    4.41
   0   0  -3    2.14    0.68
   0   0   3    2.60    0.65
   0   0  -4 4321.95  147.13
   0   0  -5  131.50    7.68
   0   0  -6  100.70    7.17
   0   0   6  105.65    6.73
   0   0   7   16.78    2.71
   0   0   7   20.68    2.88
   0   0  -7   17.47    3.03
   0   0   8  754.82   30.07
   0   0   8  766.70   30.58
   0   0   9    2.06    1.22
   0   0  -9    0.44    0.92
   0   0   9   -0.35    0.52
   0   0  10   16.28    2.74
   0   0  11   74.51    5.28
   0  -1   1   18.76    1.13
   0   1  -1   21.66    1.37
   0   1   1   20.47    1.17
   0  -1   2 1997.66   69.52
   0   1   2 2092.90   69.33
   0  -1   2 2029.11   69.29
   0   1   3   70.11    3.99
   0  -1   3   71.94    4.01
   0  -1   3   77.26    4.25
   0   1   4 3454.32  121.28
   0   1  -4 3662.96  121.81
   0  -1  -4 3575.92  121.29
   0  -1   4 3503.11  121.32
   0  -1   4 3599.07  121.59
   0  -1  -5   11.49    1.92
   0   1  -5   15.86    2.34
   0   1   6 1752.96   63.81
   0  -1  -6 1770.54   64.39
   0  -1   6 1766.70   63.86
   0   1  -6 1851.23   65.30
   0  -1   7   56.81    5.08
   0  -1   7   51.91    4.80
   0   1  -7   51.08    5.53
   0  -1   7   49.06    5.10
   0  -1  -7   52.44    5.30
   0   1   7   49.45    4.77
   0   1   7   54.78    5.32
   0  -1   8    8.03    2.05
   0   1   8    8.60    2.04
   0   1  -8   15.10    3.17
   0  -1   8    9.46    2.17
   0  -1   8   12.35    2.66
   0   1   8   12.85    2.76
   0  -1  -8   12.26    2.75
   0  -1   9    0.41    0.87
   0  -1   9    0.37    0.56
   0   1  -9   -0.47    0.98
   0   1   9    1.21    0.95
   0  -1  10   25.33    3.20
   0   1 -10   25.03    3.57
   0   1  10   34.20    3.86
   0  -1  10   34.42    3.95
   0   1  11   12.79    1.99
   0  -1  11   14.47    2.13
   0   2   0 1536.61   51.42
   0  -2   0 1499.59   51.43
   0  -2  -1    2.53    0.44
   0  -2   1    2.16    0.48
   0   2  -1    2.76    0.57
   0   2   1    2.27    0.36
   0  -2   1    2.62    0.37
   0   2  -2 9790.83  330.64
   0   2   2 9999.00  329.95
   0  -2   2 9797.03  329.92
   0  -2   3  142.28    6.59
   0   2   3  145.85    6.62
   0  -2   4  453.09   18.04
   0  -2   4  439.68   17.55
   0  -2   5   62.73    4.92
   0  -2  -5   63.93    4.71
   0   2   6  758.91   29.30
   0  -2  -6  756.09   29.62
   0  -2   6  772.90   29.63
   0  -2   6  713.49   29.19
   0   2  -6  734.43   30.64
   0   2  -7   49.68    5.47
   0  -2   7   49.04    4.78
   0   2   7   42.02    4.71
   0  -2  -7   45.90    4.84
   0  -2   7   49.13    5.03
   0   2   7   44.36    4.53
   0   2   8  135.10    8.88
   0   2  -8  134.44   10.37
   0  -2   8  133.41    9.60
   0   2   8  129.13    9.54
   0  -2  -8  127.42    9.32
   0   2  -8  134.13    9.83
   0  -2   8  137.80    9.15
   0   2  -9   18.08    3.43
   0   2   9   17.80    3.03
   0  -2   9   21.95    3.30
   0   2  10   74.93    5.84
   0  -2  10   70.30    6.00
   0   2 -10   74.71    6.39
   0  -2  10   69.68    5.61
   0   2  11    2.50    0.91
   0  -2  11    3.77    1.13
   0   3   0    1.44    0.42
   0  -3   0   -0.08    0.27
   0  -3  -1   52.41    2.70
   0   3  -1   46.52    2.90
   0  -3   1   44.33    2.79
   0   3   1   49.67    2.19
   0  -3   2 6566.34  221.47
   0   3  -2 6602.26  221.69
   0   3  -3   21.47    2.36
   0  -3   4   64.19    4.78
   0   3  -4   69.93    5.12
   0  -3  -5   70.21    4.97
   0   3  -5   78.54    6.04
   0  -3   5   72.93    5.64
   0   3   6 1569.95   57.46
   0  -3  -6 1564.85   57.53
   0  -3   6 1631.03   58.88
   0  -3   6 1644.12   58.17
   0  -3   6 1567.42   58.05
   0   3   6 1575.22   57.98
   0   3  -6 1590.52   58.51
   0   3  -6 1565.99   59.40
   0  -3   7    0.36    0.66
   0   3   7    0.40    0.60
   0  -3  -7    1.51    0.97
   0   3   7    0.34    0.71
   0  -3   7    0.80    0.85
   0   3  -7   -0.47    0.70
   0  -3   7    0.38    0.79
   0   3   8  236.19   13.81
   0  -3   8  264.62   13.65
   0  -3   8  243.26   13.93
   0  -3   8  264.36   13.79
   0   3   8  233.27   12.87
   0   3  -8  242.48   14.44
   0   3  -9   35.24    4.74
   0   3   9   40.92    4.33
   0  -3   9   38.85    4.49
   0  -3   9   32.14    4.08
   0   3 -10  277.20   14.50
   0   3  10  259.45   12.96
   0  -3  10  277.29   13.50
   0   3 -11   11.14    1.90
   0  -3  11   10.54    1.57
   0  -4   0 5448.31  182.34
   0   4   0 5395.37  182.31
   0  -4   1    3.88    0.80
   0   4  -2  698.46   25.58
   0  -4   2  653.04   25.32
   0   4   2  688.61   24.13
   0  -4   2  669.84   24.08
   0  -4  -2  704.99   24.62
   0  -4  -3   14.86    1.62
   0  -4   3   19.94    2.30
   0   4  -3   18.82    2.36
   0   4  -4   21.38    2.79
   0   4  -5  186.27   10.76
   0   4   5  205.25    9.83
   0  -4   5  183.56    9.47
   0   4  -5  176.45   10.53
   0  -4   5  188.17    9.84
   0  -4   5  157.62    9.96
   0  -4  -5  170.92    9.00
   0  -4   6 1128.35   43.65
   0  -4   6 1099.15   42.51
   0   4  -6 1140.13   44.32
   0   4  -6 1147.47   44.49
   0   4   6 1130.24   42.74
   0   4  -6 1117.00   43.56
   0   4   6 1086.57   41.83
   0  -4   6 1151.86   43.03
   0   4   7    8.41    2.09
   0   4  -7    9.80    2.51
   0   4  -7    7.63    2.35
   0  -4   7   11.13    2.35
   0  -4   7    8.41    2.09
   0   4   7   10.96    2.18
   0  -4   7   13.77    2.53
   0   4  -7   10.35    2.42
   0  -4   8 1013.87   40.98
   0   4   8 1004.63   41.05
   0  -4   8 1098.73   40.80
   0   4  -8 1058.32   43.46
   0   4   8  995.14   39.66
   0   4  -8 1031.54   42.54
   0  -4   8 1011.87   40.60
   0   4  -9   17.26    3.38
   0  -4   9   16.53    2.92
   0  -4   9   18.49    3.04
   0   4   9   16.22    2.59
   0   4 -10   41.46    4.57
   0  -4  10   39.98    4.11
   0  -4  10   39.60    4.10
   0  -4  11   13.35    1.73
   0  -4  11   16.39    2.09
   0   4 -11   13.35    1.98
   0   5   0    0.13    0.31
   0  -5   0   -0.14    0.33
   0   5  -1    6.68    1.19
   0  -5   1    3.77    0.93
   0  -5  -1    6.01    1.00
   0  -5   2   47.94    3.69
   0  -5   3  146.74    8.10
   0   5  -3  155.44    8.41
   0   5  -4 1812.17   65.61
   0  -5   4 1789.21   65.17
   0   5   4 1825.81   63.43
   0   5   5   44.75    3.83
   0  -5   5   31.29    3.65
   0   5  -5   39.07    4.57
   0  -5   5   32.35    4.02
   0   5  -6   37.96    4.87
   0   5  -6   48.44    5.41
   0   5  -7   21.70    3.79
   0   5  -7   19.22    3.71
   0  -5   7   17.80    2.91
   0  -5   7   17.28    3.07
   0  -5   8  403.51   18.91
   0  -5   8  391.20   19.16
   0   5  -8  394.95   20.54
   0   5  -9   42.71    5.20
   0  -5   9   45.70    4.84
   0  -5   9   40.40    4.41
   0  -5  10  236.77   11.32
   0   5 -10  208.26   11.81
   0  -5  10  204.30   10.93
   0  -5  11   10.49    1.47
   0  -6   0 2317.93   80.59
   0   6   0 2356.67   80.29
   0  -6  -1   17.31    1.90
   0  -6   1   17.73    2.17
   0   6  -1   20.38    2.30
   0   6  -2    9.68    1.79
   0  -6   2   11.42    1.87
   0  -6   3    3.80    1.20
   0   6   4  131.84    8.84
   0  -6   4  134.59    8.13
   0   6  -4  127.40    8.86
   0  -6   4  136.25    8.69
   0   6  -5   39.94    4.92
   0  -6   5   47.35    5.01
   0  -6   5   40.67    4.34
   0   6   5   44.23    4.81
   0  -6   6  568.88   25.78
   0  -6   6  560.52   24.62
   0  -6   7  107.66    7.68
   0  -6   8  823.52   34.41
   0  -6   8  863.91   33.98
   0   6  -8  853.80   36.25
   0  -6   9   17.54    2.81
   0   6  -9   14.50    2.90
   0  -6   9   12.13    2.28
   0  -6  10   77.56    5.22
   0  -6  10   76.91    5.41
   0   6 -10   70.75    5.79
   0  -7   0    0.85    0.55
   0  -7   1   86.76    5.76
   0   7  -2 1534.24   56.79
   0  -7   2 1614.13   57.05
   0   7  -3    8.94    2.24
   0  -7   3    7.81    1.84
   0   7  -3    8.46    1.95
   0  -7   3    9.18    1.86
   0   7   3    8.47    2.20
   0  -7   4  104.23    7.63
   0  -7   4   94.47    6.93
   0   7  -4  108.84    8.32
   0   7   4   90.34    7.65
   0   7  -5    6.72    2.25
   0  -7   5    6.96    1.92
   0   7   5    3.81    1.60
   0  -7   6  708.56   29.75
   0   7  -6  703.58   31.66
   0  -7   6  700.20   30.90
   0  -7   7    5.80    1.72
   0   7  -7    5.71    2.25
   0  -7   7    6.54    2.01
   0  -7   8   91.16    6.72
   0  -7   9   17.43    2.42
   0  -7   9   16.59    2.66
   0   7  -9   14.23    2.80
   0  -7  10  150.99    7.58
   0  -7  10  168.86    8.28
   0   8   0 1653.72   61.56
   0  -8   1    0.87    0.68
   0   8  -1    0.73    0.86
   0   8   1    0.85    1.10
   0  -8   2  989.50   38.64
   0  -8   2 1059.42   39.34
   0  -8   3   50.34    4.69
   0  -8   3   51.17    5.07
   0   8   3   42.96    5.23
   0   8  -4  210.05   12.96
   0  -8   4  204.51   12.22
   0   8   4  213.12   13.12
   0  -8   4  190.16   11.34
   0   8   5   47.48    5.71
   0  -8   5   51.59    5.62
   0  -8   5   40.48    4.64
   0   8  -5   55.63    6.11
   0  -8   6  529.69   23.32
   0   8  -6  515.14   24.91
   0  -8   6  483.26   23.86
   0   8   6  501.69   23.93
   0  -8   7    0.83    0.88
   0   8  -7    1.10    1.41
   0  -8   7    0.33    0.69
   0   8  -8  142.08   10.13
   0  -8   8  156.01    9.47
   0  -8   8  149.05    8.59
   0  -8   9    0.80    0.51
   0  -8  10   16.48    1.82
   0   9   0    4.13    1.75
   0   9  -1   50.59    5.32
   0   9   1   49.44    5.60
   0  -9   2  815.89   32.03
   0  -9   2  813.92   32.72
   0   9   2  785.53   34.66
   0  -9   3   12.25    2.43
   0   9   3   13.30    3.16
   0  -9   3   12.28    2.59
   0  -9   4  467.90   22.65
   0  -9   4  492.65   22.00
   0   9   4  507.06   24.36
   0  -9   5   12.41    2.79
   0  -9   5   11.92    2.51
   0   9   5   11.66    3.00
   0   9   6  606.84   27.82
   0  -9   6  629.51   26.61
   0  -9   7   77.27    6.31
   0  -9   8   10.20    2.05
   0  -9   9    0.20    0.42
   0  10   0 3607.44  128.21
   0  10   1   14.67    3.23
   0  10  -1   19.43    3.38
   0  10   2  463.57   23.16
   0 -10   3    7.30    1.93
   0  10   3    5.28    2.40
   0  10   4  167.04   11.95
   0 -10   4  174.08   10.42
   0 -10   5   20.61    3.20
   0  10   5   18.41    3.57
   0 -10   6    1.78    1.06
   0  10   6    2.72    1.58
   0 -10   7    4.53    1.39
   0 -10   8  204.70    9.95
   0  11   0   -0.52    1.22
   0  11   1   88.73    8.07
   0  11  -1   85.96    7.46
   0  11   2  183.35   12.55
   0  11   3    9.49    2.73
   0 -11   3    9.91    2.05
   0  11   4  679.62   29.88
   0 -11   4  638.12   26.77
   0  11   5   12.50    2.79
   0 -11   5   10.42    2.08
   0  11   6  181.02   10.78
   0 -11   6  195.57   10.10
   0 -11   7    2.74    0.94
   0  12   0  816.91   34.36
   0  12   1   10.19    2.70
   0  12  -1    9.51    2.36
   0  12   2  243.69   14.43
   0  12   3    4.77    1.77
   0  12  -4   39.01    4.15
   0  12   4   53.88    5.54
   0 -12   5    9.91    1.66
   0  12   5    7.61    1.98
   0  12  -5    8.06    1.76
   0  12  -6  106.71    6.37
   0 -12   6  113.22    5.96
   0  12   6  115.24    6.97
   0  13   0    0.75    0.96
   0  13   1   63.71    5.92
   0  13   2  336.86   17.04
   0  13   2  371.72   17.76
   0  13   3   14.10    2.74
   0  13   4   20.62    3.03
   0  13   5    0.50    0.70
   0  14   0  165.96    9.66
   0  14   1   -0.57    0.79
   0  14   1    0.53    0.73
   0  14   2   32.48    3.44
   0  14   3   15.23    2.19
   1   0 -11   12.96    2.31
  -1   0  11   16.30    2.20
  -1   0  10    1.71    0.95
  -1   0   9    0.39    0.71
   1   0  -8   16.89    3.38
  -1   0   8   17.88    2.91
  -1   0   7   20.74    3.09
  -1   0   7   22.62    3.08
   1   0  -7   18.65    3.21
   1   0  -6   11.74    2.28
  -1   0   5   90.91    5.46
  -1   0   4 4917.64  166.12
   1   0  -3   30.21    2.65
  -1   0   3   28.95    2.10
  -1   0   2 7757.54  252.60
   1   0  -2 7073.65  254.14
  -1   0   1   87.68    3.79
   1   0  -1   83.36    4.82
  -1   0   0 1324.09   45.33
   1   0   0 1310.19   46.18
   1   0   1   13.66    1.49
  -1   0  -1   15.62    1.44
  -1   0  -2 2218.43   75.97
  -1   0  -4   22.94    2.62
  -1   0  -5   84.51    6.04
   1   0   6 1333.26   50.61
  -1   0  -6 1339.39   51.41
   1   0   6 1427.63   50.69
  -1   0  -7  714.08   31.15
   1   0   7  758.99   30.44
  -1   0  -8    7.92    2.22
   1   0   8    5.64    1.81
   1   0   9  191.62   11.16
   1   0  10   13.28    2.23
   1   0  10   12.24    2.29
   1   0  11  227.84   10.66
   1   1 -11    8.41    1.89
  -1  -1  11    6.66    1.48
  -1   1  11    6.72    1.37
   1  -1 -11    3.42    1.15
   1   1 -10    8.26    2.29
  -1  -1  10   12.42    2.39
  -1   1  10   11.50    2.25
  -1  -1   9    2.04    1.13
  -1   1   9    1.12    0.96
   1   1  -8   60.82    6.06
   1  -1  -8   50.58    5.85
  -1  -1   8   66.76    5.86
  -1   1   8   63.78    5.58
   1   1  -8   67.48    6.86
  -1   1   7   19.19    3.04
  -1  -1   7   16.08    2.73
   1   1  -7   15.66    3.05
  -1  -1   7   13.98    2.66
  -1   1   7   23.45    3.26
  -1   1   7   24.77    3.11
  -1  -1   7   19.14    2.96
   1  -1  -7   26.00    3.64
  -1  -1   7   21.77    3.08
  -1   1   7   16.81    2.73
  -1  -1   6 1922.74   69.20
  -1   1   6 1882.22   69.07
  -1  -1   6 1959.82   69.01
  -1  -1   6 1922.37   69.39
  -1   1   6 1929.95   69.09
  -1  -1   6 1958.55   69.01
  -1   1   6 1955.21   69.47
  -1  -1   5  119.42    6.94
  -1  -1   5  122.24    7.15
  -1   1   5  130.50    7.26
  -1  -1   4   30.97    2.72
   1  -1  -4   33.58    3.09
  -1  -1   3  161.69    7.16
  -1   1   3  155.38    6.40
  -1  -1   2  786.49   27.70
  -1   1   2  782.23   26.74
  -1  -1   1  977.12   34.67
  -1   1   1 1003.72   33.72
  -1  -1   0 2233.83   76.51
  -1   1   0 2214.99   76.49
  -1   1   0 2326.36   77.07
  -1  -1   0 2262.03   76.02
  -1  -1  -1  246.89    9.59
  -1   1  -1  268.86   10.53
  -1  -1  -2 4848.11  163.37
   1  -1   2 4906.54  163.96
  -1   1  -2 4855.92  164.21
   1   1   2 4814.66  163.93
  -1  -1  -3  418.30   16.30
   1  -1   3  429.22   16.83
   1   1   3  427.35   16.81
  -1   1  -3  410.14   17.04
  -1  -1  -4  267.60   11.86
  -1   1  -4  269.41   12.47
   1   1   4  262.79   12.25
   1  -1   4  276.94   12.38
  -1   1  -5   62.38    5.27
   1   1   5   71.97    5.42
   1  -1   5   66.56    5.20
  -1  -1  -5   64.59    4.99
   1   1   6  256.18   12.85
  -1   1  -6  248.45   13.75
   1  -1   6  257.39   13.03
   1  -1   6  266.95   12.92
   1  -1   6  269.83   13.55
   1   1   6  258.97   13.58
   1   1   6  250.47   12.88
  -1  -1  -6  264.12   13.36
  -1   1  -7  473.10   22.98
   1  -1   7  492.28   21.81
   1  -1   7  495.87   22.79
   1   1   7  480.81   22.69
   1   1   7  501.88   21.97
   1  -1   7  513.92   22.36
  -1  -1  -7  493.99   22.49
   1   1   7  512.16   21.99
   1   1   8  289.60   15.07
   1  -1   8  284.41   16.01
   1  -1   8  309.61   15.45
   1  -1   8  271.68   14.72
   1   1   8  281.03   15.83
   1   1   8  289.59   14.80
   1   1   9    4.39    1.58
   1  -1   9    2.79    1.40
   1   1   9    4.66    1.51
   1  -1   9    5.50    1.71
   1  -1  10   89.37    6.37
   1  -1  10   77.63    6.23
   1   1  10   97.50    6.77
   1   1  11   26.21    2.67
  -1  -2  11    8.70    1.69
   1   2 -11    6.92    1.74
   1   2 -10   75.15    6.87
  -1  -2  10   79.08    6.24
  -1   2  10   69.70    5.37
  -1  -2   9    4.14    1.63
   1   2  -9    3.61    1.65
  -1   2   9    3.45    1.26
  -1  -2   8  692.59   28.49
  -1   2   8  682.43   28.26
   1  -2  -8  667.82   30.02
   1   2  -8  703.14   30.25
  -1  -2   8  703.71   29.19
  -1   2   7   55.75    5.37
  -1   2   7   51.95    4.63
  -1  -2   7   56.43    5.33
  -1  -2   7   48.61    4.67
   1  -2  -7   45.71    5.06
  -1   2   7   49.27    4.93
  -1  -2   7   58.34    5.22
   1   2  -7   61.72    6.16
   1   2  -7   54.16    5.62
  -1   2   7   50.94    4.99
  -1  -2   6  341.18   15.10
  -1  -2   6  325.69   15.36
  -1   2   6  322.58   15.16
  -1   2   6  300.38   14.74
  -1   2   6  325.54   15.03
  -1  -2   6  307.07   14.90
   1   2  -6  328.70   16.25
  -1  -2   6  328.77   14.80
  -1  -2   6  333.24   15.34
  -1  -2   5   14.61    2.16
  -1  -2   5    9.77    1.78
   1   2  -5   13.71    2.30
  -1   2   5   13.54    2.02
  -1  -2   4  513.92   20.28
  -1  -2   3   33.13    2.70
  -1  -2   2  634.05   23.20
  -1   2   1   14.03    1.55
  -1   2   0 7700.64  251.90
  -1  -2   0 7640.68  251.97
  -1   2   0 7018.23  252.97
  -1  -2  -1 2453.50   82.30
   1  -2   2 2515.62   88.17
  -1  -2  -2 2594.43   87.27
   1   2   2 2630.20   88.23
  -1  -2  -3   41.49    2.86
  -1   2  -3   40.95    3.60
   1   2   3   46.56    3.43
   1  -2   3   47.17    3.44
  -1  -2  -4    7.71    1.32
   1   2   4    4.19    1.16
  -1   2  -4    4.80    1.41
   1  -2   4    8.10    1.51
  -1   2  -5   59.58    5.22
   1  -2   5   51.17    4.49
   1   2   5   46.65    4.36
  -1  -2  -5   53.19    4.24
   1   2   6  853.92   32.20
  -1   2  -6  815.74   33.50
  -1  -2  -6  758.58   31.53
   1  -2   6  792.76   32.52
   1  -2   6  779.68   31.65
   1   2   6  843.95   32.67
   1  -2   6  809.77   32.19
   1   2   6  811.08   31.77
  -1   2  -6  812.14   32.45
   1   2   7   12.78    2.45
   1  -2   7   12.43    2.63
   1   2   7   13.38    2.72
   1  -2   7    9.84    2.30
   1  -2   7    7.31    1.96
  -1   2  -7   14.12    2.72
   1   2   7   17.01    2.81
  -1   2  -7    9.66    2.54
   1   2   8  298.98   15.10
   1  -2   8  289.49   15.87
  -1   2  -8  272.69   15.01
   1  -2   8  293.51   15.15
   1  -2   8  298.82   15.10
   1   2   8  270.10   15.59
   1   2   8  275.80   14.46
   1  -2   9  420.92   19.37
   1   2   9  420.29   19.36
   1  -2   9  401.10   19.28
   1  -2  10   27.70    3.32
   1   2  10   27.10    3.29
   1  -2  10   24.52    3.15
   1  -2  11  123.17    6.45
   1  -2  11  102.83    5.80
  -1  -3  11   27.58    2.94
   1   3 -11   25.48    3.17
  -1  -3  10   10.87    2.25
   1   3 -10   13.71    2.91
  -1  -3   9   27.32    3.84
   1   3  -9   31.94    4.32
   1   3  -9   37.63    5.02
  -1  -3   9   25.16    3.48
  -1  -3   8   10.46    2.25
   1   3  -8    5.81    2.22
   1  -3  -8    7.58    2.19
   1   3  -8    9.06    2.55
  -1  -3   8    7.46    2.01
   1   3  -7   85.80    7.53
  -1  -3   7   82.40    6.45
   1  -3  -7   76.23    6.71
   1   3  -7   78.05    7.07
  -1   3   7   84.52    6.46
  -1  -3   7   78.02    6.73
  -1   3   6 1408.52   51.91
  -1  -3   6 1425.38   51.97
  -1  -3   6 1470.37   53.05
  -1  -3   6 1439.48   52.33
   1   3  -6 1457.73   53.71
  -1   3   6 1388.21   51.88
  -1  -3   6 1358.35   52.16
  -1   3   6 1402.08   52.17
   1   3  -6 1468.76   53.99
  -1  -3   6 1382.98   52.13
   1   3  -5  140.15    8.54
  -1   3   5  143.72    7.96
  -1  -3   5  136.43    7.80
  -1  -3   5  140.92    8.35
   1   3  -4  885.98   33.21
  -1   3   4  891.35   32.35
  -1  -3   4  903.96   33.05
  -1  -3   4  840.77   32.23
  -1  -3   3  993.42   37.83
   1   3  -3 1097.88   37.80
   1   3  -2  405.17   15.48
   1   3  -1 1609.87   54.48
  -1   3   1 1580.06   55.95
   1  -3   0 1126.59   38.86
  -1   3   0 1145.95   40.63
  -1   3  -1  263.28   11.86
  -1   3  -1  273.47   10.73
  -1  -3  -1  277.85   10.80
   1  -3   1  269.00   10.87
  -1  -3  -1  279.78   11.62
   1  -3   2  227.04    9.85
   1   3   3  675.34   25.49
   1  -3   3  668.05   25.34
   1  -3   3  688.60   25.84
   1  -3   4  693.41   25.84
   1   3   4  632.71   25.66
  -1   3  -5  630.33   26.71
   1   3   5  634.00   25.37
   1   3   5  640.76   25.65
   1  -3   5  636.39   25.54
   1  -3   5  619.76   25.60
   1   3   6  162.45    9.71
  -1   3  -6  160.01   10.15
   1  -3   6  178.30   10.28
   1   3   6  158.44    9.97
   1  -3   6  168.28    9.55
   1   3   6  160.78    9.33
  -1   3  -6  163.66   10.89
   1  -3   7  116.92    8.24
  -1   3  -7  111.80    8.43
   1  -3   7   93.90    7.73
   1  -3   7  101.29    7.39
   1   3   7  114.51    7.90
   1   3   7  103.17    7.32
   1   3   7  107.26    8.12
  -1   3  -8  807.79   34.18
   1   3   8  855.54   33.44
   1  -3   8  817.70   33.26
   1  -3   8  785.70   33.65
  -1   3  -9    2.44    1.28
   1   3   9    1.48    1.03
   1  -3   9    3.57    1.50
   1  -3   9    1.11    0.96
   1  -3  10  128.96    7.96
   1  -3  10  129.70    7.88
   1   3  10  126.30    7.66
   1  -3  11    0.87    0.58
   1  -3  11    0.16    0.34
   1   4 -11    2.50    1.01
  -1  -4  11    2.80    0.96
   1   4 -10  237.26   13.17
  -1  -4  10  230.69   11.93
  -1  -4  10  210.72   11.04
   1   4  -9   36.18    4.89
  -1  -4   9   34.47    3.99
   1   4  -9   23.67    3.75
  -1  -4   9   30.03    3.97
   1   4  -8  911.65   39.06
  -1  -4   8  895.16   36.38
   1   4  -8  895.78   38.09
  -1   4   8  915.81   37.00
  -1  -4   8  909.62   36.95
  -1  -4   7    2.34    1.23
   1   4  -7    1.02    1.20
   1   4  -7    0.53    0.56
  -1  -4   7    1.86    1.29
   1  -4  -7    1.24    0.87
   1   4  -6  797.94   32.63
   1   4  -6  775.15   32.29
  -1  -4   6  793.46   31.68
  -1   4   6  758.84   29.96
  -1   4   6  755.94   30.03
  -1  -4   6  740.49   29.93
  -1  -4   6  740.88   30.41
  -1   4   6  774.88   30.57
  -1  -4   6  768.25   30.81
  -1   4   5  212.03   10.94
   1   4  -5  229.11   12.63
   1   4  -5  233.02   12.26
  -1  -4   5  234.29   11.18
  -1  -4   5  234.23   12.12
  -1  -4   5  222.90   11.46
  -1   4   4   49.66    3.72
  -1  -4   4   45.90    3.57
   1   4  -4   45.08    4.10
  -1  -4   4   54.25    4.48
   1   4  -3   52.32    3.77
  -1   4   3   43.19    3.06
  -1  -4   3   41.55    3.65
   1   4  -2   37.59    2.77
  -1  -4   1  126.55    6.87
   1   4  -1  132.62    5.69
  -1   4   0  180.32    8.65
  -1  -4   0  173.41    8.26
   1  -4   0  164.72    6.98
  -1   4  -1 1444.62   49.90
  -1  -4  -1 1463.82   49.15
  -1  -4  -1 1415.55   47.66
   1  -4   1 1370.10   48.16
  -1   4  -1 1289.30   47.51
  -1   4  -2  364.42   15.85
  -1  -4  -2  356.12   15.07
   1  -4   2  347.58   14.56
   1  -4   3  640.61   25.06
   1  -4   4 1309.14   47.94
   1   4   4 1336.09   47.88
  -1   4  -5  528.24   22.98
   1   4   5  513.35   21.64
   1  -4   5  501.17   21.76
   1  -4   5  516.16   21.06
   1   4   5  506.57   21.54
   1  -4   5  525.96   21.75
  -1   4  -6  851.65   34.70
   1   4   6  863.58   33.34
   1   4   6  812.11   33.35
   1  -4   6  810.98   32.59
   1  -4   6  842.58   33.53
   1  -4   6  832.86   33.43
  -1   4  -7    4.42    1.80
   1   4   7    7.24    1.97
   1  -4   7    6.17    1.80
   1  -4   8  173.45   10.79
   1  -4   8  159.50   10.02
  -1   4  -8  173.31   11.29
   1   4   8  174.72   10.45
  -1   4  -9   31.96    4.33
   1  -4   9   46.43    4.55
   1   4   9   41.12    4.28
   1  -4   9   55.45    5.12
   1  -4  10    0.85    0.60
   1  -4  10    0.52    0.61
   1  -4  11   33.37    2.54
   1  -4  11   30.70    2.53
  -1   4 -11   33.68    2.70
   1   5 -11   11.87    1.94
   1   5 -10  168.59   10.22
  -1  -5  10  154.87    8.72
  -1  -5   9   62.56    5.79
  -1  -5   9   80.77    6.33
   1   5  -8   39.07    5.19
  -1  -5   8   46.44    5.03
  -1  -5   8   45.61    4.99
   1   5  -8   53.44    6.08
   1   5  -7    7.68    2.46
   1   5  -7    9.79    2.63
  -1  -5   7    5.42    1.82
  -1  -5   7    7.01    2.18
   1   5  -7    4.89    2.07
  -1  -5   6 1167.75   44.75
   1   5  -6 1132.79   45.26
   1   5  -6 1143.61   45.56
  -1  -5   6 1122.89   43.78
   1   5  -6 1099.01   44.59
  -1   5   5  645.77   28.96
  -1  -5   5  723.53   28.85
  -1   5   5  653.25   26.72
   1   5  -5  661.36   29.34
   1   5  -5  743.32   29.06
  -1  -5   5  720.10   28.27
   1   5  -4  129.14    8.02
  -1  -5   4  130.58    8.32
  -1   5   4  140.95    7.15
   1   5  -3  266.17   12.10
   1   5  -2 1882.24   64.50
  -1  -5   2 1826.35   65.58
  -1   5   1 2526.62   88.34
  -1  -5   1 2566.03   88.49
  -1   5   0    4.06    1.18
   1  -5   0    4.31    0.81
  -1  -5  -1 1684.35   57.71
   1  -5   1 1587.07   56.46
  -1   5  -1 1603.39   58.49
  -1   5  -2  804.89   31.00
  -1  -5  -2  794.40   29.84
   1  -5   2  759.78   29.22
   1  -5   3  156.57    8.82
  -1  -5  -3  176.97    9.13
  -1   5  -3  166.25    9.97
   1  -5   4  869.77   33.32
  -1   5  -4  875.30   35.12
   1  -5   4  868.68   33.92
  -1  -5  -4  863.75   33.62
  -1   5  -5  237.92   13.29
  -1  -5  -5  232.95   12.27
   1  -5   5  220.35   11.90
   1  -5   5  222.74   11.12
   1   5   5  220.43   11.69
   1  -5   6   14.01    2.39
   1  -5   6   22.16    3.26
  -1   5  -6   15.36    3.12
   1   5   6   11.90    2.41
  -1   5  -7  350.77   18.79
   1  -5   7  350.04   17.01
   1   5   7  382.12   17.50
   1  -5   7  363.18   17.88
  -1   5  -8  816.68   33.84
   1  -5   8  762.82   31.54
  -1   5  -9    0.41    1.13
   1  -5   9    0.92    0.79
   1  -5   9    0.73    0.85
   1  -5  10  367.08   15.51
   1  -5  10  370.14   16.09
  -1  -6  10  191.38    9.82
  -1  -6  10  187.13    9.57
  -1  -6   9   17.70    2.88
   1   6  -9   10.62    2.63
  -1  -6   9   18.01    2.85
  -1  -6   8  995.85   38.41
   1   6  -8  928.66   40.32
  -1  -6   8  960.32   38.58
   1   6  -7  151.51   11.02
  -1  -6   7  173.15   11.49
   1   6  -7  159.93   11.46
  -1  -6   7  145.09   10.00
   1   6  -6  226.33   13.66
   1   6  -6  228.19   14.23
   1   6  -6  258.37   14.67
  -1  -6   6  230.22   13.78
  -1  -6   6  233.81   13.14
  -1  -6   5    3.35    1.30
   1   6  -5    5.45    1.85
   1   6  -5   -0.50    0.74
  -1   6   5    5.56    1.80
  -1  -6   5    2.18    1.30
   1   6  -5    4.45    1.53
  -1   6   5    4.29    1.81
   1   6  -4   48.99    4.96
  -1   6   4   46.74    4.92
   1   6  -4   49.03    4.55
  -1   6   4   47.89    5.29
  -1  -6   3   24.06    2.99
   1   6  -3   34.70    4.08
  -1  -6   3   28.74    3.39
  -1  -6   2  222.06   11.23
  -1  -6   1  237.18   11.53
  -1  -6   0   61.49    4.77
  -1   6   0   67.63    5.04
   1  -6   1  426.75   16.78
  -1   6  -1  392.34   18.56
   1  -6   2  924.65   34.38
  -1  -6  -2  904.01   34.97
  -1   6  -2  931.72   36.11
  -1   6  -3  819.85   32.67
   1   6   3  796.96   32.63
   1  -6   3  807.53   31.02
  -1  -6  -3  759.35   30.92
  -1   6  -4   35.51    4.61
  -1   6  -4   34.38    4.36
   1   6   4   37.16    4.49
  -1  -6  -4   28.12    3.45
   1  -6   4   28.89    3.63
   1  -6   4   37.08    3.80
  -1   6  -5  380.59   19.08
   1  -6   5  333.29   16.32
   1   6   5  324.37   17.24
  -1   6  -5  352.63   18.17
  -1   6  -6 1905.35   70.66
  -1   6  -6 1815.38   69.52
   1  -6   6 1802.16   66.09
   1  -6   6 1837.06   67.38
  -1   6  -7    8.14    2.51
  -1   6  -7    7.62    2.52
   1  -6   7   13.09    2.42
   1  -6   7   14.43    2.74
   1  -6   8   34.17    3.74
   1  -6   8   30.55    4.02
  -1   6  -8   31.09    4.41
   1  -6   9   18.49    2.46
   1  -6  10   -0.43    0.64
   1  -6  10   -0.15    0.32
  -1   6 -10   -0.16    0.38
  -1  -7  10    2.02    0.82
  -1  -7  10    1.77    0.80
   1   7 -10    2.26    1.03
  -1  -7   9   16.95    2.61
   1   7  -9   15.67    2.90
  -1  -7   9   14.32    2.34
  -1  -7   8    5.26    1.82
   1   7  -8    7.28    2.39
  -1  -7   8    5.60    1.72
   1   7  -7   58.53    6.64
  -1  -7   7   81.05    6.80
  -1  -7   6 1116.61   46.88
  -1  -7   6 1210.36   45.92
  -1   7   6 1189.97   46.81
   1   7  -6 1165.14   47.34
   1   7  -5    0.49    1.15
  -1   7   5    0.98    1.15
  -1   7   5    0.52    0.78
   1   7  -4  322.56   16.79
  -1  -7   4  354.24   17.18
  -1   7   4  323.56   17.82
  -1   7   4  335.48   17.39
  -1  -7   4  343.18   16.54
  -1   7   3  776.67   32.40
  -1  -7   3  759.35   31.41
  -1  -7   3  796.45   31.26
  -1   7   2  390.48   18.28
  -1  -7   2  405.52   18.32
  -1  -7   2  411.19   17.97
  -1  -7   1  448.28   19.73
  -1   7   1  479.49   20.87
  -1  -7   1  456.31   19.64
  -1  -7   0  223.56   11.46
  -1   7   0  217.54   11.30
   1   7   1   98.97    7.40
  -1  -7  -1   89.29    6.27
  -1   7  -1   87.49    6.66
   1  -7   2  117.11    7.18
   1   7   2  114.70    6.76
  -1   7  -2  121.87    8.49
   1   7   2  109.17    8.40
   1   7   3  278.03   15.79
   1   7   3  309.70   13.81
   1  -7   3  318.81   14.80
   1  -7   3  286.80   13.79
  -1   7  -3  293.70   15.96
   1  -7   4  218.34   12.15
   1   7   4  206.45   12.95
  -1   7  -4  235.06   13.66
   1  -7   4  200.74   11.24
   1   7   4  214.83   11.01
   1  -7   5  281.45   14.45
  -1   7  -5  296.77   17.03
  -1   7  -5  294.78   16.54
   1   7   5  288.03   13.85
   1   7   5  260.13   15.46
   1  -7   6   31.05    4.00
  -1   7  -6   27.21    4.60
  -1   7  -6   28.19    4.50
   1  -7   7   30.22    3.92
  -1   7  -7   29.26    4.54
   1   7   7   25.17    3.19
   1  -7   8  400.50   18.57
   1  -7   9    0.83    0.77
  -1  -8   9    9.42    1.82
   1   8  -9    8.94    2.04
  -1  -8   9   12.31    1.96
   1   8  -8  287.68   15.32
  -1  -8   8  272.59   13.68
  -1  -8   8  273.67   14.16
  -1  -8   7   13.23    2.72
   1   8  -7   10.44    2.66
  -1   8   6    4.09    1.94
  -1  -8   6    1.08    1.27
   1   8  -6    0.54    1.13
  -1  -8   5   93.74    7.54
   1   8  -5   87.96    7.87
  -1  -8   5   84.24    7.74
  -1   8   5   93.10    8.32
  -1   8   5   96.07    8.30
   1   8  -4  393.89   19.57
  -1  -8   4  411.75   20.05
  -1   8   4  411.02   20.58
  -1  -8   4  416.10   19.28
  -1   8   4  366.73   20.46
  -1  -8   3   13.60    2.54
  -1   8   3   12.99    2.88
  -1   8   2  169.48   10.52
  -1   8   2  184.17   11.53
  -1  -8   2  174.75   10.66
  -1  -8   2  181.04   10.32
   1   8  -1   45.78    4.90
  -1   8   1   42.33    4.89
  -1  -8   1   40.32    4.29
  -1   8   1   51.54    5.14
  -1  -8   1   45.90    4.46
  -1   8   0 1915.25   68.21
  -1  -8   0 1780.29   66.75
   1   8   0 1938.44   68.81
  -1  -8   0 1858.74   66.66
  -1   8   0 1758.51   67.95
   1   8   1  896.66   35.84
  -1   8  -1  854.85   34.30
  -1  -8  -1  833.16   33.47
  -1   8  -1  845.99   34.10
  -1   8  -2   57.51    5.71
  -1   8  -3    2.54    1.41
   1  -8   3    1.81    1.08
   1   8   3    1.06    1.12
   1  -8   4  303.20   15.11
  -1   8  -4  320.90   17.76
   1   8   4  313.90   17.53
   1   8   5   78.92    7.63
  -1   8  -5   88.75    8.30
   1  -8   5   89.51    6.91
   1   8   6  102.09    8.22
   1  -8   6   88.16    7.06
   1  -8   7   11.15    2.31
   1  -8   8  317.46   14.94
   1  -8   9  175.61    8.81
  -1  -9   9    0.20    0.53
  -1  -9   9    0.16    0.37
  -1  -9   8   63.59    5.31
  -1  -9   8   69.21    5.01
   1   9  -7   40.71    4.90
  -1   9   6  386.50   19.84
  -1  -9   6  422.15   19.25
   1   9  -5  180.24   11.94
  -1   9   5  196.18   12.93
  -1   9   5  194.54   12.92
  -1  -9   5  193.47   11.75
  -1   9   4  332.88   18.85
  -1   9   4  349.94   18.80
  -1  -9   4  336.44   18.04
  -1  -9   4  344.72   17.36
  -1  -9   3    6.97    1.98
  -1   9   3    4.45    1.94
  -1   9   3    1.84    1.45
  -1  -9   3    7.08    2.05
  -1  -9   2   54.70    5.40
  -1   9   2   51.36    5.92
  -1  -9   2   61.45    5.94
  -1   9   1  167.64   11.17
  -1  -9   1  151.23    9.94
  -1   9   1  157.49   10.46
   1   9  -1  167.69   10.92
  -1  -9   1  171.56   10.07
   1   9   0  528.17   23.82
  -1  -9   0  460.83   21.35
  -1   9   0  455.95   22.58
  -1   9   0  502.51   23.12
  -1  -9   0  509.29   21.62
  -1   9  -1  105.47    8.18
   1   9   1  129.68    9.67
  -1  -9  -1  112.33    7.58
   1   9   2  437.72   22.27
   1   9   3  125.58   10.14
   1   9   4  333.50   18.69
   1  -9   4  333.44   16.06
   1  -9   5    7.67    1.93
   1   9   5    4.94    2.01
   1   9   6   43.89    5.19
   1  -9   6   54.38    5.03
   1  -9   7  188.84   10.43
   1  -9   8  152.25    8.25
  -1 -10   8   89.78    5.01
  -1 -10   7   14.34    2.43
  -1 -10   7   13.21    2.02
  -1 -10   6    2.65    1.32
  -1  10   6    2.77    1.68
  -1  10   5    0.51    0.93
  -1  10   5   -0.54    1.40
  -1 -10   5    1.24    1.06
  -1 -10   4  451.52   20.47
  -1  10   4  394.33   21.76
  -1  10   4  438.82   22.30
  -1 -10   3   49.23    5.15
  -1 -10   3   49.23    5.50
  -1  10   3   43.14    5.99
  -1 -10   2  889.94   38.26
  -1  10   2  985.39   40.47
  -1 -10   2  981.82   38.00
  -1  10   1  103.55    8.27
  -1  10   1  108.52    9.15
   1  10  -1  115.21    8.90
  -1 -10   1  124.63    8.27
   1  10   0  687.22   30.85
  -1 -10   0  692.17   28.42
  -1  10   0  679.56   29.97
  -1  10   0  688.19   30.45
  -1  10  -1    3.60    1.88
  -1  10  -1    1.86    1.55
   1  10   1    5.70    2.16
   1  10   2   11.27    3.01
   1  10   3  164.26   11.87
   1  10   4    2.88    1.92
   1  10   5    0.51    0.94
   1 -10   5   -0.32    0.74
   1  10   6  509.35   23.83
   1 -10   6  575.07   22.87
   1 -10   7  113.62    6.71
   1 -10   8    7.15    1.20
  -1 -11   7    9.04    1.68
  -1 -11   6  557.57   22.92
  -1  11   6  540.63   23.88
  -1 -11   5   16.03    2.61
  -1  11   5   10.10    2.67
  -1  11   5   17.19    3.06
  -1 -11   4   12.04    2.43
  -1  11   4    8.44    2.44
  -1  11   4   12.99    3.08
  -1 -11   3   79.01    6.32
  -1  11   3   62.29    7.16
  -1 -11   2  136.09    9.04
  -1  11   2  154.57   11.25
  -1  11   1  101.49    8.80
   1  11  -1  114.98    8.72
  -1 -11   1  101.41    7.45
  -1  11   0  139.32    9.84
  -1  11   0  152.27   10.62
   1  11   0  149.86   10.79
  -1  11  -1    9.56    2.46
  -1  11  -1    8.23    2.35
   1  11   1    7.33    2.39
  -1  11  -2  689.38   31.58
   1  11   2  793.47   33.20
  -1  11  -3    1.00    1.18
   1  11   4   38.50    5.02
   1  11   5   87.67    7.25
   1  11   6   25.99    3.29
  -1  11  -7   86.74    5.73
  -1 -12   6    3.19    0.99
  -1  12   6    2.35    1.10
  -1 -12   5   24.35    2.86
  -1  12   5   21.57    3.30
  -1 -12   4   62.72    5.08
  -1  12   4   70.20    6.51
  -1  12   4   57.80    5.68
  -1  12   3   10.88    2.93
  -1 -12   3   12.57    2.32
  -1  12   3   19.06    3.40
  -1  12   2  318.18   17.86
  -1  12   2  319.32   17.16
  -1 -12   2  314.26   14.89
  -1  12   1   33.03    4.54
   1  12  -1   34.07    4.22
  -1  12   0  344.93   17.63
   1  12   0  346.45   17.84
   1  12   1  267.11   14.90
  -1  12  -1  234.41   13.25
   1  12   2    0.50    1.06
  -1  12  -2   -1.62    1.21
  -1  12  -3    0.39    0.83
  -1  12  -4   39.81    4.31
   1  12   4   46.22    4.98
   1  12   5   19.05    2.90
  -1  12  -5   24.93    3.16
  -1  12  -6  158.89    8.17
  -1  13   5   45.01    3.88
  -1  13   4  217.81   11.11
  -1  13   4  179.63    9.70
  -1  13   3   46.79    4.72
  -1  13   3   39.13    4.30
  -1  13   2   30.19    4.05
  -1  13   2   37.66    4.41
  -1  13   1   34.38    4.56
  -1  13   1   39.35    4.43
  -1  13   0   73.31    5.93
   1  13   0   67.03    5.80
   1  13   1   87.28    6.85
  -1  13  -2   14.00    2.18
   1  13   2   13.04    2.59
   1  13   3   12.34    2.37
  -1  13  -3   10.40    1.88
   1  13   4   85.87    6.02
  -1  13  -4   79.59    5.15
  -1  14   2    6.35    1.47
  -1  14   2    5.68    1.44
  -1  14   1   39.36    3.60
  -1  14   1   50.05    4.45
  -1  14   0  194.24   10.58
   1  14   1   14.72    2.20
   1  14   2   19.94    2.47
  -1  14  -2   19.43    2.58
   1  14   3   52.09    3.92
   2   0 -11   42.10    4.12
   2   0 -10  187.84   11.05
  -2   0   9  126.47    8.21
  -2   0   8  317.61   15.52
  -2   0   7  155.60    9.16
  -2   0   6  963.12   37.44
  -2   0   5  447.30   21.21
  -2   0   5  478.46   19.91
  -2   0   4    5.47    1.02
   2   0  -4    3.60    1.32
  -2   0   3 1656.36   58.52
   2   0  -3 1828.57   62.33
  -2   0   2 2630.25   89.27
   2   0  -2 2592.69   92.61
  -2   0   1   62.40    3.76
   2   0   0  458.73   19.49
  -2   0   0  459.01   18.03
   2   0   1  137.94    8.01
  -2   0  -1  144.22    7.39
  -2   0  -2  114.23    6.61
  -2   0  -3 1244.00   45.50
  -2   0  -4  491.81   20.98
   2   0   5  860.34   33.39
  -2   0  -6  374.23   18.57
   2   0   6  393.89   18.14
   2   0   6  372.84   17.64
   2   0   7  660.54   27.63
   2   0   7  654.11   28.00
   2   0   8    9.50    2.23
   2   0   8    7.82    1.99
   2   0   9  993.92   38.29
   2   0   9  992.43   38.43
   2   0  10   12.45    1.99
  -2   0 -10   10.90    1.94
   2   1 -11   33.21    3.71
   2   1 -10    3.19    1.51
   2  -1 -10    2.21    1.29
  -2  -1  10    2.32    1.06
  -2  -1   9  131.60    8.62
   2   1  -9  135.54    9.94
  -2  -1   8   79.12    7.09
   2   1  -8   96.15    8.45
  -2  -1   8   89.94    6.93
  -2   1   8   81.50    7.15
  -2   1   8  108.51    7.91
  -2  -1   8   94.11    7.54
   2  -1  -8   86.42    7.96
  -2   1   8   96.16    7.98
  -2  -1   8   98.04    8.04
   2   1  -7  185.56   12.24
  -2  -1   7  202.35   11.62
  -2   1   7  191.37   11.46
  -2  -1   7  193.90   11.83
  -2   1   7  197.57   11.44
  -2  -1   7  196.30   11.34
  -2   1   7  188.68   11.66
  -2   1   6  853.05   37.70
  -2   1   6  932.96   35.98
  -2  -1   6  914.88   36.06
  -2   1   6  943.61   36.20
  -2  -1   6  908.96   36.39
  -2   1   6  953.68   36.49
  -2  -1   6  916.42   35.70
  -2   1   5   51.84    5.24
  -2   1   5   50.42    4.39
  -2  -1   5   42.77    3.75
  -2  -1   5   50.80    4.33
   2  -1  -5   40.91    4.60
   2  -1  -4   13.92    2.57
  -2  -1   4   10.89    1.64
  -2  -1   3   84.39    4.98
   2  -1  -3  108.81    7.45
   2  -1  -2    0.34    0.72
  -2   1   2    0.42    0.28
  -2  -1   2    0.48    0.48
  -2  -1   1  157.03    7.74
  -2   1   1  165.86    7.08
  -2  -1   0 2898.66  100.03
   2  -1   0 2927.70  102.02
  -2   1   0 2921.07  100.37
  -2  -1  -1  374.25   15.90
  -2   1  -1  383.32   15.95
   2  -1   1  393.14   17.13
  -2  -1  -1  370.56   15.10
  -2   1  -1  406.07   16.54
  -2   1  -2  478.95   19.66
  -2  -1  -2  460.83   19.30
  -2   1  -2  433.64   19.09
   2  -1   2  470.20   19.47
  -2  -1  -2  510.73   18.79
  -2  -1  -3  302.66   13.24
  -2   1  -3  295.86   14.07
  -2  -1  -4  434.26   18.73
  -2   1  -4  452.95   19.76
  -2   1  -5  561.79   24.80
   2   1   5  578.39   23.82
   2  -1   5  577.08   23.47
   2   1   5  568.58   24.04
   2  -1   5  562.25   23.97
   2   1   6   10.30    2.24
  -2   1  -6   17.08    3.22
   2   1   6   16.26    2.69
   2  -1   6   11.95    2.25
  -2   1  -7   66.97    6.78
   2   1   7   64.79    5.92
   2  -1   7   65.68    5.82
   2  -1   7   60.13    5.90
   2   1   7   77.26    6.41
   2   1   8  138.03    8.99
   2  -1   8  123.36    8.47
   2   1   8  127.62    8.81
   2  -1   8  114.31    8.54
   2  -1   9  124.14    8.20
   2   1   9  135.14    8.69
   2  -1   9  149.68    8.98
   2  -1  10    0.94    0.74
  -2  -1 -10    0.23    0.64
  -2   1 -10    1.57    0.91
   2   2 -11   13.30    2.29
  -2  -2  11   14.21    1.82
  -2  -2  10   63.43    5.15
   2   2 -10   58.22    5.60
  -2  -2   9   20.09    3.08
   2   2  -9   19.32    3.53
  -2  -2   8  367.92   17.92
   2   2  -8  367.04   19.93
  -2  -2   8  387.74   18.87
  -2   2   8  375.86   18.75
   2   2  -8  374.11   20.03
   2  -2  -8  363.97   19.55
  -2   2   8  390.78   18.68
  -2  -2   8  364.21   18.38
  -2   2   8  374.16   19.04
  -2  -2   8  387.67   19.17
  -2   2   7  450.07   21.33
  -2  -2   7  469.45   21.58
  -2  -2   7  465.75   21.08
  -2   2   7  471.01   21.10
  -2   2   7  416.27   20.46
  -2  -2   7  462.39   20.71
   2   2  -7  453.06   22.14
  -2   2   7  470.20   22.85
  -2   2   6   47.17    4.58
  -2   2   6   47.11    4.69
  -2  -2   6   60.02    5.14
  -2   2   6   51.43    5.02
  -2  -2   6   48.12    4.78
   2   2  -6   49.58    5.14
  -2  -2   6   46.57    4.52
  -2   2   6   45.70    5.39
  -2  -2   6   44.14    4.42
  -2   2   5  312.55   14.90
  -2  -2   5  324.52   14.88
   2  -2  -5  359.17   17.30
  -2   2   5  311.57   16.37
  -2  -2   5  323.49   14.70
  -2  -2   4 1325.75   48.45
   2  -2  -4 1380.52   51.56
  -2  -2   3   10.53    1.63
  -2  -2   2   11.43    1.70
  -2  -2   1  337.99   13.73
  -2   2   1  310.20   11.91
  -2   2   1  326.68   14.17
  -2   2   0 1066.77   39.14
  -2  -2   0 1049.50   38.56
  -2  -2  -1  178.82    8.78
  -2   2  -1  192.58    8.84
  -2  -2  -1  163.05    7.36
  -2   2  -1  180.51    9.55
  -2   2  -2  951.14   35.00
  -2  -2  -2  869.52   34.02
  -2   2  -2  896.22   34.10
   2  -2   2  934.70   34.82
  -2   2  -3  212.23   11.44
  -2   2  -4   56.28    5.35
   2   2   4   46.84    4.25
   2   2   4   51.80    4.50
   2  -2   4   55.89    4.58
   2   2   5   22.61    3.07
   2  -2   5   22.02    3.03
  -2   2  -5   16.27    3.05
   2   2   5   20.78    2.88
   2  -2   5   22.57    2.81
  -2   2  -6  470.44   22.89
   2   2   6  472.04   21.15
   2  -2   6  461.70   20.59
   2   2   6  504.93   21.49
   2  -2   6  461.99   21.35
  -2   2  -7 1317.30   54.29
   2  -2   7 1355.45   51.49
   2   2   7 1450.91   52.48
   2  -2   8   19.50    3.17
   2  -2   8   16.05    2.72
   2  -2   9  127.20    7.96
   2  -2   9  131.29    8.50
   2  -2  10   24.17    2.71
   2  -2  10   20.90    2.40
  -2  -2 -10   19.43    2.23
  -2   2 -10   19.51    2.55
  -2  -3  11   27.71    2.62
   2   3 -11   28.94    3.24
   2   3 -10   14.75    2.74
  -2  -3  10   13.08    2.26
  -2  -3   9   11.15    2.35
   2   3  -9   11.44    2.81
   2   3  -8  494.84   24.08
   2   3  -8  489.22   24.00
  -2   3   8  488.83   21.90
   2  -3  -8  440.81   22.80
  -2   3   8  472.44   22.65
  -2  -3   8  470.11   22.52
  -2   3   8  500.12   22.10
  -2  -3   8  476.02   21.85
  -2   3   7    7.77    2.55
  -2  -3   7    9.11    2.17
  -2   3   7    5.93    1.78
  -2  -3   7    7.35    2.09
   2   3  -7    8.26    2.31
   2   3  -7    8.89    2.56
  -2   3   7    9.21    2.18
  -2  -3   7    4.21    1.53
  -2   3   7    9.08    2.24
   2   3  -6 1038.98   41.63
  -2   3   6 1006.89   42.87
  -2  -3   6 1040.90   40.62
  -2  -3   6 1069.23   40.98
  -2   3   6 1045.05   41.07
  -2  -3   6 1055.64   40.55
  -2   3   6 1108.47   40.78
  -2  -3   6 1070.88   41.03
  -2   3   6 1081.27   40.85
  -2  -3   6 1037.36   40.17
   2   3  -5   94.76    6.83
  -2  -3   5   96.12    6.39
  -2  -3   5   91.11    6.54
  -2   3   5   80.00    6.04
  -2  -3   5   84.06    6.00
   2  -3  -5  105.51    8.37
  -2  -3   4  129.57    7.71
  -2  -3   3  305.77   13.82
  -2  -3   2  799.40   30.26
  -2  -3   1  998.23   37.00
  -2  -3   0  145.09    7.99
  -2   3  -1  139.61    7.36
  -2  -3  -1  139.56    7.45
  -2   3  -1  162.00    9.04
  -2  -3  -2  455.36   18.97
  -2   3  -2  463.36   19.04
  -2   3  -2  472.48   20.49
  -2   3  -3  707.40   29.73
  -2  -3  -3  723.89   28.62
  -2   3  -3  752.83   28.73
   2  -3   4   13.14    2.18
  -2   3  -4    9.08    2.26
  -2   3  -5   81.00    7.17
   2  -3   5   69.52    5.26
   2  -3   5   68.77    5.74
  -2   3  -6   87.00    8.01
   2  -3   6   91.92    6.57
   2  -3   6   78.60    6.76
  -2   3  -7  334.58   18.42
   2  -3   7  305.59   15.32
   2   3   7  322.49   16.24
   2  -3   7  299.88   16.12
   2   3   8   46.98    4.92
   2  -3   8   58.70    5.14
   2  -3   9   29.74    3.27
   2   3  10   53.32    4.01
   2  -3  10   57.22    3.97
  -2   3 -10   64.28    4.58
   2  -3  10   57.30    4.30
   2  -3  10   53.32    3.98
  -2  -4  11    2.62    0.81
   2   4 -10  547.10   23.51
  -2  -4  10  515.59   22.02
   2   4  -9    3.05    1.60
  -2  -4   9    3.03    1.32
   2   4  -9    1.03    1.33
   2   4  -8  833.13   36.21
  -2   4   8  817.13   35.47
  -2  -4   8  804.85   33.13
  -2   4   8  863.28   33.92
   2   4  -7  162.13   11.46
  -2  -4   7  186.67   11.58
  -2   4   7  189.20   10.89
  -2   4   7  164.94   11.98
  -2   4   7  173.31   10.37
  -2  -4   7  199.35   10.94
  -2  -4   7  186.06   10.73
   2   4  -7  172.35   12.17
  -2   4   7  164.68   10.66
  -2  -4   7  161.98   10.61
  -2  -4   6    1.79    1.13
   2   4  -6    0.89    1.05
  -2   4   6    0.54    0.99
  -2   4   6    0.37    0.55
  -2  -4   6    0.74    0.78
  -2  -4   6    0.68    0.71
  -2   4   6    0.33    0.60
  -2   4   6    1.04    0.89
  -2  -4   6    0.43    0.63
  -2  -4   6    2.30    1.09
  -2   4   5    0.28    0.51
  -2  -4   5    1.96    0.98
  -2  -4   5    2.27    1.08
  -2  -4   5    1.56    0.93
   2   4  -5    1.85    1.37
  -2   4   5    0.60    0.71
  -2  -4   5    1.50    0.96
  -2   4   5    1.56    0.87
  -2   4   5    1.01    1.18
   2   4  -5    2.51    1.19
   2   4  -4  208.40   10.95
   2   4  -4  222.04   12.40
  -2  -4   4  214.05   11.59
  -2   4   4  231.52   13.04
  -2  -4   4  226.71   11.31
   2   4  -3    6.30    1.29
  -2  -4   3    7.47    1.64
  -2  -4   2  959.00   36.22
  -2   4   1  391.86   17.55
  -2   4   0  136.96    8.41
  -2  -4  -1 1264.07   44.45
  -2   4  -1 1098.40   45.03
  -2  -4  -2  235.00   11.41
  -2   4  -2  239.39   11.40
  -2  -4  -2  252.73   12.52
  -2   4  -3  148.15   10.13
  -2  -4  -3  172.31    9.31
  -2   4  -3  170.34    9.25
  -2   4  -4   70.77    6.62
  -2  -4  -4   64.82    5.48
  -2   4  -4   69.60    5.65
   2  -4   4   63.81    5.16
   2   4   4   59.26    5.77
   2  -4   5   22.85    3.14
  -2   4  -5   15.75    3.34
  -2   4  -6  505.10   24.52
   2  -4   6  482.12   21.89
   2  -4   6  467.94   20.54
  -2   4  -7  165.01   12.11
   2  -4   7  164.46    9.61
   2  -4   7  163.51   10.46
   2  -4   8   21.45    3.26
   2  -4   8   17.84    2.62
   2   4   9  141.09    8.40
   2  -4   9  154.21    8.55
   2  -4   9  168.27    8.55
  -2   4  -9  175.13    9.52
   2  -4   9  148.41    8.90
   2   4  10    0.70    0.55
   2   4  10    1.58    0.62
   2  -4  10    1.20    0.53
  -2   4 -10    1.01    0.64
   2   5 -10   47.90    4.73
  -2  -5  10   47.15    4.08
  -2  -5   9    0.30    0.71
   2   5  -9    1.44    1.43
   2   5  -9    0.95    1.32
  -2  -5   9    0.36    0.93
   2   5  -8   63.19    6.65
  -2   5   8   70.75    6.87
   2   5  -8   69.94    7.29
  -2  -5   8   70.21    5.99
  -2  -5   7    0.41    0.85
   2   5  -7    0.59    0.88
  -2   5   7    0.36    0.65
  -2  -5   7    0.50    0.52
  -2   5   7    0.57    1.04
   2   5  -6 1652.41   64.55
  -2   5   6 1746.35   63.07
  -2  -5   6 1791.83   65.38
  -2  -5   6 1724.63   64.06
  -2   5   5  660.22   29.15
   2   5  -5  665.32   29.98
  -2  -5   5  677.25   28.83
  -2   5   5  686.55   30.70
  -2  -5   5  707.73   28.42
   2   5  -4  441.58   21.09
  -2  -5   4  440.05   20.44
  -2   5   4  466.79   21.17
  -2   5   4  445.75   21.85
  -2  -5   4  460.62   20.05
  -2  -5   3  564.21   23.51
  -2   5   3  599.19   24.67
  -2  -5   3  551.14   23.19
   2   5  -3  526.45   23.88
  -2  -5   2  669.37   27.24
  -2   5   1  542.14   23.03
  -2  -5   0  180.21   10.07
  -2   5   0  178.86   10.43
  -2   5  -1    1.18    1.17
  -2  -5  -1    1.71    1.02
  -2  -5  -2   91.50    5.90
   2   5   2  101.94    6.47
  -2  -5  -2  101.47    7.32
   2   5   2   99.75    7.69
  -2   5  -2  114.01    8.43
  -2   5  -3    5.31    1.83
  -2  -5  -3    2.82    1.04
  -2  -5  -3    6.81    1.93
   2   5   3    4.44    1.75
  -2   5  -3    6.99    1.67
   2  -5   4    0.31    0.46
   2   5   4   -0.46    0.69
  -2  -5  -4    0.44    0.66
  -2  -5  -5  965.82   39.23
   2  -5   5  942.54   37.37
   2  -5   6   38.68    4.34
  -2   5  -6   32.76    5.08
  -2  -5  -6   31.45    4.51
   2  -5   7   38.02    4.43
   2   5   8  344.89   15.99
   2  -5   8  378.14   17.31
   2  -5   9   12.54    2.10
  -2   5  -9   13.65    2.21
   2  -5  10    2.62    0.79
   2   5  10    2.48    0.69
  -2   5 -10    2.10    0.67
   2   6 -10  306.81   14.26
  -2  -6  10  302.19   13.42
  -2  -6   9   20.35    2.74
   2   6  -9   16.85    3.04
  -2  -6   9   21.06    2.98
   2   6  -8  729.14   32.94
  -2   6   8  729.09   31.77
   2   6  -8  706.18   31.99
  -2  -6   8  807.73   30.90
  -2  -6   7   12.72    2.65
  -2   6   7   17.47    3.54
   2   6  -7   16.17    3.65
   2   6  -7   17.37    3.40
  -2  -6   6   25.60    3.65
   2   6  -6   17.95    3.46
   2   6  -6   21.23    3.98
  -2   6   6   19.56    3.55
  -2  -6   6   19.53    3.52
  -2   6   5  108.84    8.61
  -2  -6   5  100.38    8.08
   2   6  -5   98.20    7.81
  -2   6   5  109.79    9.27
   2   6  -5   94.35    8.35
  -2  -6   5   89.70    7.25
  -2   6   4  129.29    9.32
  -2  -6   4  122.03    8.78
  -2   6   4  107.01    9.16
  -2  -6   4  118.67    8.28
   2   6  -4  126.59    9.29
   2   6  -3   32.90    4.26
  -2   6   3   27.39    3.94
  -2  -6   3   25.44    3.54
  -2   6   3   34.32    4.74
  -2  -6   3   36.93    3.99
  -2   6   2   69.64    5.96
   2   6  -2   72.43    5.95
  -2   6   2   60.20    6.08
  -2  -6   2   51.74    4.92
  -2   6   1  244.54   13.47
  -2   6   1  241.00   13.34
   2   6  -1  267.48   13.83
  -2  -6   1  260.69   13.42
  -2   6   0  645.24   27.14
   2   6   0  655.86   27.97
   2   6   0  635.80   25.66
  -2   6   0  661.45   27.49
  -2   6  -1 1194.89   48.23
   2   6   1 1295.75   49.95
   2   6   1 1275.12   47.40
  -2  -6  -1 1353.90   49.21
  -2   6  -1 1365.14   50.01
   2   6   2  442.26   21.98
   2   6   2  463.25   19.75
  -2  -6  -2  443.68   21.01
  -2   6  -2  500.59   22.73
   2   6   3   60.90    6.39
   2   6   3   68.90    5.50
  -2  -6  -3   64.55    6.09
  -2   6  -3   68.89    6.88
   2   6   4  340.59   18.36
  -2  -6  -4  339.78   17.67
  -2   6  -4  348.47   16.58
   2  -6   4  346.71   16.18
  -2   6  -4  377.13   19.69
  -2   6  -5   32.86    5.17
   2   6   5   28.60    4.33
  -2  -6  -5   43.59    5.06
  -2   6  -5   43.74    4.64
   2  -6   5   39.38    4.31
   2  -6   6   35.07    4.25
  -2   6  -6   39.07    5.67
  -2   6  -6   43.27    4.65
  -2   6  -7  124.96    8.38
   2  -6   7  121.20    8.38
   2   6   8   39.98    3.95
   2  -6   8   45.65    4.36
  -2   6  -8   42.48    4.19
   2   6   9   91.60    5.48
  -2   6  -9   94.49    5.66
   2  -6   9   88.91    5.73
   2   7 -10    0.41    0.53
   2   7  -9   22.76    3.22
  -2  -7   9   29.81    3.16
   2   7  -8  402.99   19.42
  -2  -7   8  393.42   18.41
  -2  -7   7   -0.42    0.99
  -2   7   7    0.54    0.97
   2   7  -7   -0.49    1.26
   2   7  -6  398.16   20.59
  -2   7   6  441.89   21.56
  -2  -7   6  427.96   21.48
  -2  -7   6  436.40   20.59
   2   7  -5  227.80   14.54
  -2  -7   5  229.61   14.07
  -2   7   5  266.60   15.00
  -2   7   5  227.52   15.16
  -2  -7   5  226.04   13.18
  -2   7   4  349.45   17.99
  -2  -7   4  325.85   17.08
  -2   7   4  324.15   18.33
  -2  -7   4  290.30   15.95
  -2   7   3   17.00    3.33
  -2   7   3   18.99    3.63
   2   7  -2   55.21    5.45
  -2   7   2   54.61    5.62
  -2  -7   2   54.49    5.41
  -2   7   2   47.21    5.73
  -2  -7   2   57.92    5.33
  -2   7   1  803.71   33.89
  -2   7   1  800.14   33.81
   2   7  -1  845.39   34.16
  -2  -7   1  811.04   33.22
  -2   7   0  276.88   14.76
   2   7   0  271.39   14.97
  -2  -7   0  272.39   14.15
  -2   7   0  245.19   14.11
  -2   7   0  249.87   14.09
  -2   7  -1   29.04    4.14
   2   7   1   25.72    3.98
   2   7   1   24.02    3.04
  -2   7  -1   21.41    3.36
   2   7   2   75.61    5.83
   2   7   2   66.96    6.84
  -2   7  -2   77.68    7.35
  -2  -7  -3  310.50   16.86
   2   7   3  306.50   17.66
   2   7   3  326.64   15.71
  -2   7  -3  368.37   19.06
  -2   7  -4   62.34    7.01
  -2  -7  -4   44.17    5.27
   2   7   4   55.27    5.17
   2   7   4   55.75    6.26
  -2   7  -5   42.69    5.88
   2   7   5   30.09    4.54
   2   7   5   28.10    3.65
   2  -7   5   39.29    4.19
   2   7   6   57.66    5.16
  -2   7  -6   54.61    4.99
   2  -7   6   47.92    4.88
   2   7   7  266.87   13.21
  -2   7  -7  278.97   13.29
   2  -7   7  256.73   13.32
   2   7   8   44.19    3.70
   2  -7   8   39.76    3.80
   2  -7   9   56.68    3.86
   2   7   9   53.35    3.35
  -2  -8   9   10.75    1.69
  -2  -8   9   10.66    1.76
   2   8  -9    8.89    1.72
   2   8  -8  166.86   10.20
  -2  -8   8  185.77   10.08
   2   8  -7  271.87   14.77
  -2   8   7  262.96   15.24
  -2  -8   7  303.46   15.00
  -2  -8   6    1.33    1.32
  -2   8   6    1.56    1.45
   2   8  -6    2.22    1.40
  -2  -8   5   39.75    4.81
  -2   8   5   48.14    5.79
  -2  -8   5   35.31    4.91
  -2   8   5   34.25    5.32
  -2   8   4  126.46    9.99
  -2   8   4  131.86   10.63
  -2  -8   3   42.15    4.79
  -2   8   3   42.01    5.44
  -2  -8   3   40.98    5.06
  -2   8   3   39.74    5.60
  -2   8   2  627.24   28.34
   2   8  -2  635.83   27.33
  -2   8   2  561.08   28.64
  -2  -8   2  604.63   27.12
  -2  -8   2  643.75   27.02
  -2  -8   1   32.22    4.17
  -2   8   1   46.09    5.36
   2   8  -1   38.86    4.96
  -2   8   1   42.84    5.23
  -2  -8   1   34.26    4.52
  -2   8   0    4.21    1.64
  -2   8   0    6.61    2.14
  -2   8   0    3.32    1.66
   2   8   0    2.11    1.36
  -2  -8   0    8.99    2.27
  -2   8  -1   46.08    5.43
  -2   8  -1   49.04    5.52
  -2   8  -1   40.41    4.85
   2   8   1   39.54    5.26
  -2  -8  -1   38.63    4.72
   2   8   2  118.91    8.03
  -2  -8  -2  136.69    9.49
  -2   8  -2  130.00    9.89
  -2   8  -3   14.89    3.35
   2   8   3   13.02    3.27
   2   8   3   17.23    2.79
  -2   8  -4   11.32    3.04
   2   8   4    6.97    2.30
   2   8   4    7.48    1.96
   2  -8   5   16.17    2.63
   2   8   5   14.87    3.30
   2   8   5   16.26    2.67
   2   8   6  584.20   23.93
   2   8   6  560.76   25.27
   2  -8   6  574.80   24.00
   2   8   7  448.66   18.84
   2  -8   7  455.21   19.30
   2  -8   8    0.20    0.48
   2   8   8   -0.16    0.37
  -2  -9   9   23.12    2.14
  -2  -9   8   50.13    4.05
  -2  -9   8   41.34    3.89
  -2  -9   7   21.65    3.13
  -2   9   7   21.21    3.28
  -2   9   6  645.33   28.84
  -2  -9   6  653.28   27.82
  -2   9   5    7.32    2.45
  -2   9   5    9.16    2.81
  -2  -9   4   27.07    3.91
  -2   9   4   28.85    4.60
  -2   9   4   27.31    4.72
  -2  -9   3  165.96   11.62
  -2   9   3  174.78   12.94
  -2  -9   3  184.04   11.37
  -2  -9   2   17.37    3.08
  -2   9   2   22.20    4.05
   2   9  -2   12.97    2.85
  -2  -9   2   17.52    3.37
  -2  -9   1    5.67    1.84
  -2   9   1    5.83    2.09
  -2   9   1    3.81    1.90
   2   9  -1    3.12    1.55
  -2  -9   1    5.63    1.85
  -2   9   0  491.97   23.57
  -2   9   0  457.82   22.83
   2   9   0  463.13   23.43
  -2  -9   0  463.51   22.41
  -2  -9   0  499.88   22.15
  -2   9  -1   21.71    3.85
  -2   9  -1   22.43    3.71
   2   9   1   23.56    4.11
  -2  -9  -1   16.23    3.12
  -2   9  -2  511.50   24.72
  -2   9  -2  493.95   24.10
   2   9   3   95.53    8.77
  -2   9  -3   97.31    8.62
   2   9   4   14.93    3.35
   2   9   4   17.64    2.74
   2   9   5  305.14   16.82
   2   9   5  316.48   14.66
   2   9   6    5.99    1.86
   2   9   6    6.08    1.44
   2  -9   7    3.73    1.04
  -2   9  -8   17.01    2.05
  -2 -10   8   70.90    4.24
  -2 -10   8   67.96    4.45
  -2 -10   7   88.52    6.05
  -2  10   6   93.34    7.34
  -2  10   6   75.60    6.75
  -2  10   5  155.05   10.97
  -2  10   5  149.35   10.94
  -2 -10   5  164.22   10.20
  -2  10   4  112.94    9.50
  -2  10   4  113.15    9.81
  -2 -10   4  124.27    8.78
  -2  10   3   61.63    7.11
  -2 -10   3   60.20    5.90
  -2  10   2  253.27   15.46
  -2 -10   2  244.05   13.87
  -2  10   1   37.88    5.07
  -2  10   1   36.25    5.12
   2  10  -1   43.37    5.35
  -2  10   1   43.12    5.90
  -2 -10   1   45.15    4.95
  -2  10   0   97.54    8.50
  -2  10   0  100.48    8.45
   2  10   0   93.88    8.55
  -2 -10   0  100.17    7.74
  -2  10  -1  147.08   10.63
  -2  10  -1  130.99    9.53
   2  10   1  139.64   10.76
  -2 -10  -1  118.94    8.70
  -2  10  -2   43.17    5.40
   2  10   2   33.37    5.02
  -2 -10  -2   41.79    4.55
  -2 -10  -3  123.05    8.21
  -2  10  -3  138.41   10.17
   2  10   3  124.37   10.04
   2  10   4  178.14   12.04
  -2  10  -5   55.43    5.64
   2  10   5   48.92    5.35
  -2  10  -6   79.98    6.26
   2  10   6   72.45    5.63
  -2  10  -7  290.78   13.14
  -2  11   6  130.03    8.11
  -2  11   6  110.13    7.49
  -2 -11   6  133.52    7.68
  -2  11   5  117.62    8.52
  -2  11   5  120.11    8.70
  -2 -11   5  113.31    7.59
  -2  11   4  105.22    8.59
  -2  11   4  108.22    8.91
  -2 -11   4  105.40    7.61
  -2 -11   3   16.42    2.85
  -2  11   3   19.14    3.80
  -2  11   3   17.62    3.68
  -2 -11   2   31.01    4.03
  -2  11   2   44.29    5.42
  -2  11   1  165.72   11.49
   2  11  -1  155.76   10.71
  -2  11   1  187.48   12.87
  -2 -11   1  163.99   10.33
  -2  11   0  320.86   18.28
  -2  11   0  364.90   18.67
   2  11   0  392.19   19.40
  -2  11   0  372.93   20.16
  -2 -11   0  369.94   17.43
   2  11   1   71.20    6.99
  -2  11  -1   68.15    6.68
  -2 -11  -1   67.80    5.75
  -2 -11  -2   29.35    3.49
  -2  11  -2   33.22    4.51
   2  11   2   33.32    4.81
   2  11   3   89.69    7.92
  -2  11  -3   97.20    7.78
  -2  11  -4  137.98    9.30
   2  11   4  129.50    9.14
   2  11   5  106.04    7.36
  -2  11  -6    1.97    0.90
  -2 -12   6    3.36    0.89
  -2  12   5   64.95    5.29
  -2 -12   5   63.27    4.63
  -2  12   4  127.87    8.74
  -2  12   4  138.24    9.04
  -2 -12   4  128.67    7.70
  -2  12   3   34.88    4.38
  -2  12   3   39.75    4.82
  -2 -12   3   32.17    3.54
  -2 -12   2   29.38    3.40
  -2  12   2   20.68    3.63
  -2  12   2   24.17    3.94
  -2  12   1   37.92    4.64
   2  12  -1   37.85    4.21
  -2  12   1   50.77    5.69
  -2 -12   1   40.19    4.06
  -2  12   0  135.33    8.99
   2  12   0  120.95    8.86
  -2  12   0  147.49   10.35
  -2 -12   0  126.96    7.86
  -2  12  -1    4.74    1.61
   2  12   1    3.08    1.54
  -2  12  -1    7.55    2.28
  -2  12  -2  102.29    7.54
   2  12   2  111.25    8.15
  -2  12  -2  102.05    7.82
  -2  12  -3   22.19    3.08
  -2  12  -3   18.41    2.80
  -2  12  -4   44.48    4.19
   2  12   4   52.22    4.68
   2  12   5   35.36    3.22
  -2  12  -5   35.22    3.24
  -2 -13   4    7.54    1.26
  -2  13   3  168.55    9.31
  -2  13   3  161.56    9.29
  -2 -13   3  152.18    7.76
  -2  13   2   44.09    4.35
  -2  13   2   51.65    4.89
  -2 -13   2   42.24    3.45
  -2  13   1   36.34    3.85
  -2  13   1   32.13    3.94
   2  13   0   64.65    5.17
  -2  13   0   74.55    6.09
   2  13   1   -0.31    0.72
  -2  13  -1   -0.34    0.71
   2  13   2   58.17    4.92
  -2  13  -2   62.47    4.88
   3   0 -11  262.58   11.93
   3   0 -10   11.63    2.35
  -3   0   9   27.05    3.69
  -3   0   8    0.45    0.95
  -3   0   7 2268.34   82.77
  -3   0   6  205.63   11.99
  -3   0   5  833.99   33.86
  -3   0   5  858.46   36.31
  -3   0   4  498.56   23.51
  -3   0   4  517.11   22.04
  -3   0   3   54.20    5.36
  -3   0   3   60.19    4.99
   3   0  -2  155.39   10.90
  -3   0   1  602.77   24.21
   3   0  -1  659.16   28.27
  -3   0   0    2.17    0.95
  -3   0  -1  319.30   14.79
  -3   0  -2 1303.26   48.91
  -3   0  -2 1341.98   49.05
  -3   0  -3  417.99   19.10
   3   0   3  434.02   18.76
  -3   0  -3  421.31   19.24
   3   0   4   12.33    2.40
   3   0   4   19.93    2.74
  -3   0  -4   14.19    2.62
   3   0   5  175.11   10.15
  -3   0  -5  170.99   10.61
   3   0   5  180.56   10.79
   3   0   6  249.13   13.01
  -3   0  -6  240.07   13.36
   3   0   6  229.62   13.39
  -3   0  -7  979.50   38.69
  -3   0  -8    2.70    1.28
  -3   0  -9   84.25    5.52
   3   1 -10   11.35    2.38
   3  -1 -10   13.31    2.42
  -3   1   9  312.54   16.17
  -3   1   9  329.09   16.33
  -3  -1   9  335.62   16.36
   3   1  -9  324.51   17.51
  -3  -1   8  123.77    8.99
  -3   1   8  133.46    9.33
  -3   1   8  129.67    9.16
  -3  -1   8  129.21    9.17
  -3  -1   7    1.31    1.02
   3   1  -7    1.62    1.14
  -3  -1   7    0.44    0.93
  -3   1   7    0.50    0.74
  -3  -1   7    2.00    1.28
  -3   1   7    1.31    1.02
  -3  -1   6   87.13    6.98
  -3   1   6   77.48    8.02
  -3   1   5  115.87    9.38
  -3  -1   5  116.01    7.95
  -3  -1   4  448.49   19.44
  -3   1   4  431.27   21.35
  -3   1   4  452.71   19.49
  -3  -1   4  424.09   19.43
   3  -1  -4  488.26   23.53
  -3  -1   3  314.89   14.26
  -3  -1   3  309.97   14.34
  -3  -1   3  270.41   13.17
  -3   1   3  297.56   14.09
  -3   1   3  313.03   15.76
  -3  -1   2  391.94   17.33
   3  -1  -2  457.80   21.67
  -3  -1   1  532.83   22.32
   3  -1  -1  578.78   25.91
  -3   1   0 1363.38   49.54
   3  -1   0 1479.34   53.51
  -3   1   0 1389.12   50.81
  -3  -1   0 1306.70   50.17
   3  -1   1  682.42   29.63
  -3   1  -1  707.27   28.27
  -3   1  -2  478.75   21.36
  -3  -1  -2  489.91   21.34
   3  -1   2  497.13   20.84
   3   1   2  462.89   20.59
  -3  -1  -2  477.27   20.51
  -3   1  -2  496.15   20.98
  -3   1  -2  498.18   21.63
  -3  -1  -3  194.38   11.32
  -3   1  -3  193.29   11.26
   3  -1   3  169.49   10.11
   3   1   3  171.92   10.17
  -3  -1  -3  179.03   10.13
  -3   1  -3  184.56   10.57
   3  -1   3  189.31   10.06
  -3   1  -3  178.37   11.05
  -3  -1  -4   52.97    5.41
   3   1   4   41.58    4.47
  -3   1  -4   32.31    4.46
  -3  -1  -4   46.88    4.65
   3  -1   4   31.39    3.94
   3  -1   4   46.63    4.55
  -3   1  -4   35.24    4.23
  -3   1  -4   49.30    5.35
  -3  -1  -5  318.70   17.10
  -3   1  -5  328.16   17.18
   3  -1   5  319.34   15.06
  -3  -1  -5  305.03   15.62
  -3   1  -5  312.45   16.11
   3  -1   5  305.51   15.63
   3  -1   6   24.57    3.52
  -3  -1  -6   18.85    3.56
  -3   1  -6   23.50    3.91
   3  -1   6   21.36    3.05
  -3  -1  -6   22.41    3.34
  -3   1  -6   24.74    3.75
   3  -1   7    0.79    0.84
   3  -1   7    1.64    0.98
   3  -1   7    2.42    1.34
   3   1   7    2.42    1.41
  -3  -1  -7    1.14    1.05
  -3   1  -7    0.83    0.97
   3  -1   8    1.02    1.01
   3   1   8    1.37    1.08
  -3  -1  -8    1.25    0.87
  -3   1  -8   -0.35    0.73
   3  -1   9  162.56    8.49
   3   1   9  160.17    8.44
  -3  -1  -9  142.66    7.78
  -3   1  -9  153.83    8.40
   3   2 -11    0.40    0.47
   3   2 -10   65.79    5.62
   3  -2 -10   56.37    5.04
   3   2  -9  563.79   25.34
  -3   2   9  549.68   23.76
  -3  -2   9  515.25   21.98
   3   2  -8   20.26    3.92
  -3  -2   8   37.89    4.04
  -3  -2   8   21.72    3.45
  -3   2   8   29.37    4.02
  -3   2   8   33.30    4.17
  -3  -2   8   31.60    4.12
  -3   2   7  474.28   25.06
  -3   2   7  505.90   23.35
  -3  -2   7  497.02   22.60
  -3   2   7  478.52   22.68
  -3  -2   7  472.22   22.97
  -3   2   7  539.72   22.74
  -3  -2   7  440.14   21.92
   3   2  -7  489.57   23.55
  -3   2   6  513.69   25.13
  -3  -2   6  500.02   22.54
  -3   2   6  479.03   22.55
  -3   2   5  203.79   13.38
  -3  -2   5  212.09   11.77
  -3   2   5  210.59   11.96
   3  -2  -5  231.15   14.78
  -3   2   4   74.25    6.99
  -3  -2   4   73.50    5.76
  -3   2   4   79.93    6.18
  -3  -2   4   66.99    5.30
   3  -2  -4   85.24    8.25
  -3   2   3  471.65   19.64
  -3  -2   3  458.39   19.63
  -3   2   3  464.60   21.49
  -3   2   3  463.47   20.02
  -3  -2   3  455.13   19.60
  -3  -2   3  426.89   19.30
   3  -2  -3  516.49   24.06
  -3   2   2  442.35   18.47
  -3  -2   2  389.06   17.87
   3  -2  -2  433.56   21.90
  -3  -2   1  989.72   39.66
   3  -2  -1 1186.49   44.21
  -3  -2   0  179.34   10.23
  -3   2   0  178.22   10.53
   3  -2   0  191.72   12.28
   3  -2   1   89.06    6.13
   3   2   1   86.38    6.09
  -3  -2  -1   86.23    6.73
   3  -2   1   92.05    7.76
  -3   2  -1   90.58    6.94
  -3   2  -2    8.31    2.14
  -3   2  -2    2.11    1.06
  -3  -2  -2    6.73    1.75
   3  -2   2    6.76    1.72
   3   2   2    5.25    1.53
  -3  -2  -2    7.84    1.72
   3  -2   2    6.19    1.92
   3  -2   3    0.59    0.62
  -3   2  -3    1.38    1.08
  -3   2  -3    0.41    0.86
  -3  -2  -3    0.41    0.75
   3  -2   3    1.01    0.87
   3   2   3    1.02    0.87
  -3  -2  -3    0.31    0.72
  -3  -2  -4  520.40   23.89
  -3   2  -4  542.69   23.77
   3  -2   4  502.54   22.49
   3   2   4  512.46   22.75
  -3  -2  -4  472.10   21.90
   3  -2   4  516.06   22.24
  -3   2  -4  575.21   25.18
  -3  -2  -5  156.50   10.50
  -3   2  -5  153.02   10.41
   3   2   5  134.86    9.18
   3  -2   5  146.21    9.47
  -3  -2  -5  122.24    8.57
  -3   2  -5  130.45    9.31
   3  -2   5  145.04    9.19
  -3   2  -5  147.19   10.69
   3  -2   6   16.90    2.91
  -3  -2  -6   15.93    3.23
  -3   2  -6   11.74    2.78
   3  -2   6   14.14    2.41
   3  -2   6   17.69    3.06
   3   2   6   13.64    2.72
  -3  -2  -6   13.38    2.57
  -3   2  -6   13.24    2.75
   3  -2   7  459.97   21.33
   3   2   7  484.94   21.53
   3  -2   7  488.34   20.36
  -3   2  -7  489.38   21.94
   3  -2   7  466.02   21.38
  -3  -2  -7  451.36   20.64
   3  -2   8   22.88    3.02
   3  -2   8   19.32    2.82
   3   2   8   14.92    2.56
  -3  -2  -8   15.47    2.36
  -3   2  -8   22.92    3.13
   3  -2   9   84.28    5.43
   3   2   9   83.20    5.47
  -3   2  -9   89.11    5.77
   3   3 -10   71.68    5.79
   3   3 -10   66.08    5.52
   3   3  -9   20.22    3.59
  -3   3   9   26.74    3.46
  -3  -3   9   23.99    2.99
  -3  -3   8  211.84   12.16
  -3   3   8  219.92   12.49
  -3   3   8  217.63   12.24
  -3  -3   8  209.27   12.23
  -3  -3   7   57.62    5.94
   3   3  -7   56.40    6.14
  -3   3   7   58.06    5.98
   3   3  -7   60.56    6.77
  -3  -3   7   64.03    5.95
  -3   3   7   53.93    5.54
  -3   3   7   66.06    5.87
  -3  -3   7   51.32    5.30
  -3   3   7   58.73    6.88
   3   3  -6   77.20    6.95
  -3   3   6   87.51    8.39
  -3  -3   6   86.14    6.76
  -3   3   6   81.08    6.80
  -3   3   6   67.55    6.25
  -3  -3   6   83.37    6.74
  -3   3   5 1310.26   50.41
  -3  -3   5 1315.93   49.84
   3  -3  -5 1393.72   55.15
   3  -3  -4    2.74    1.91
  -3   3   4    4.14    1.73
  -3   3   4    3.72    1.83
  -3  -3   4    4.03    1.31
  -3   3   4    7.14    1.88
  -3  -3   4    3.41    1.25
  -3   3   3   76.64    6.74
  -3  -3   3   70.83    5.40
  -3   3   3   75.45    5.92
  -3  -3   3   59.83    5.35
  -3   3   3   73.92    5.47
  -3   3   3   82.14    7.12
   3  -3  -3   91.28    8.63
  -3  -3   2  345.15   15.48
  -3   3   2  337.50   15.32
  -3   3   2  346.29   17.42
  -3   3   2  352.42   16.15
  -3  -3   2  361.01   16.39
  -3   3   2  367.97   17.48
   3  -3  -2  313.86   18.82
  -3   3   1  152.08    9.99
  -3   3   1  152.17    8.95
  -3  -3   0 1242.22   48.05
   3   3   0 1229.52   46.39
  -3   3   0 1214.27   47.21
  -3   3   0 1367.87   49.11
   3  -3   0 1430.64   51.69
   3  -3   1  178.18    9.74
   3   3   1  172.26    9.70
  -3  -3  -1  194.86   11.22
   3   3   1  186.30    9.75
  -3   3  -1  182.61   10.27
  -3   3  -1  192.12   11.37
   3  -3   1  193.33   12.46
   3  -3   2    0.49    0.89
  -3   3  -2    0.46    0.84
  -3   3  -2    0.34    0.51
  -3  -3  -2    0.69    0.63
  -3  -3  -2    1.75    1.03
   3  -3   2    0.92    0.85
   3   3   2    2.47    1.17
   3   3   2    1.47    0.93
  -3   3  -2    1.75    1.04
  -3   3  -3  831.44   35.18
  -3  -3  -3  855.46   35.48
   3  -3   3  836.95   34.33
  -3   3  -3  901.39   35.40
   3   3   3  909.10   34.73
  -3   3  -3  980.19   37.72
  -3  -3  -4   57.60    5.87
  -3   3  -4   57.42    5.76
   3   3   4   54.78    5.93
  -3   3  -4   57.35    5.62
   3   3   4   54.52    5.30
   3  -3   4   59.25    5.17
   3  -3   4   63.23    5.52
  -3   3  -4   70.30    7.12
  -3  -3  -5  560.55   25.38
  -3   3  -5  553.72   25.24
   3  -3   5  532.21   23.87
   3   3   5  536.59   23.99
  -3   3  -5  544.64   24.51
   3  -3   5  527.90   23.55
  -3   3  -5  588.68   27.03
   3  -3   6    3.91    1.54
   3  -3   6    3.92    1.49
   3   3   6    3.56    1.51
  -3   3  -6    7.49    2.13
   3  -3   7   69.18    5.85
   3   3   7   73.15    6.05
  -3   3  -7   74.56    6.36
   3  -3   7   70.44    5.95
   3  -3   8   69.52    5.42
   3   3   8   74.23    5.59
   3  -3   8   76.72    5.72
   3  -3   9   99.20    5.60
   3   3   9   90.96    5.49
   3   3   9   97.01    5.70
   3   4 -10   58.06    4.66
  -3  -4  10   48.80    3.63
   3   4  -9    7.20    1.99
   3   4  -9    9.06    2.40
  -3  -4   9    8.99    1.82
  -3   4   8   90.84    6.86
  -3   4   8   71.62    6.12
  -3  -4   8   90.91    6.75
  -3   4   7  458.86   23.35
   3   4  -7  437.23   22.53
  -3  -4   7  444.65   20.17
  -3   4   7  411.95   20.22
  -3   4   7  447.54   20.29
  -3  -4   7  447.62   20.26
  -3   4   6  184.63   13.13
  -3  -4   6  189.80   10.80
  -3   4   6  186.02   11.28
  -3   4   6  170.71   11.04
  -3  -4   6  182.22   11.32
  -3   4   6  176.26   10.57
   3   4  -6  169.48   12.22
  -3  -4   6  187.22   10.83
   3  -4  -5    1.47    1.34
  -3  -4   5    2.48    1.18
   3   4  -5    1.05    1.23
  -3   4   5    0.51    1.07
  -3  -4   5    2.53    1.17
  -3   4   4  349.43   17.93
  -3   4   4  308.81   15.89
  -3  -4   4  292.48   15.81
  -3   4   4  369.86   18.85
   3   4  -4  307.17   16.72
   3  -4  -4  381.63   20.89
  -3  -4   4  333.18   15.81
  -3   4   3  238.37   14.00
  -3   4   3  244.77   11.87
  -3  -4   3  240.58   11.92
   3   4  -3  233.38   13.02
  -3   4   3  227.10   12.36
  -3  -4   3  230.34   12.74
  -3   4   3  260.19   14.67
   3  -4  -3  246.47   16.16
  -3  -4   3  242.83   12.54
  -3   4   2    0.46    0.97
  -3   4   2    0.32    0.58
  -3  -4   2    1.15    0.90
  -3  -4   2    0.27    0.40
  -3  -4   1 1120.22   41.77
  -3   4   1 1167.52   43.93
  -3   4   1 1076.62   44.24
  -3   4   1 1141.38   42.72
  -3   4   1 1140.63   43.99
  -3   4   0  219.36   13.01
  -3   4   0  230.66   12.59
  -3  -4   0  243.31   13.24
  -3   4   0  223.92   11.96
   3   4   0  230.15   11.64
  -3   4   0  256.95   13.86
  -3   4  -1 1886.49   68.49
  -3  -4  -1 1814.54   69.08
   3   4   1 1815.41   67.24
  -3   4  -1 1868.50   67.92
  -3   4  -1 1971.21   70.13
   3  -4   1 1954.61   71.57
   3  -4   2  558.44   24.44
   3   4   2  609.88   24.83
  -3   4  -2  595.92   25.72
   3   4   2  606.17   25.04
  -3   4  -2  609.57   25.69
   3  -4   2  657.22   28.41
  -3   4  -2  639.06   27.80
  -3   4  -3   86.28    6.70
  -3  -4  -3   77.84    6.47
   3  -4   3   79.78    6.13
   3   4   3   82.73    6.27
  -3  -4  -3   82.73    7.41
   3   4   3   72.35    7.27
   3   4   3   78.87    6.28
  -3   4  -3   91.12    7.05
  -3   4  -3   90.99    8.10
   3  -4   4    7.27    1.83
  -3   4  -4    7.81    2.46
  -3   4  -4    7.12    1.94
  -3  -4  -4    8.52    2.16
   3   4   4    8.26    2.38
  -3  -4  -4    9.25    2.44
   3  -4   4    7.76    1.95
   3   4   4   11.05    2.26
  -3   4  -4    9.65    2.35
   3  -4   5    0.73    0.77
  -3   4  -5   10.13    2.82
  -3  -4  -5    5.97    1.87
  -3   4  -5    3.61    1.50
  -3  -4  -5    6.22    2.23
   3  -4   5    4.41    1.55
   3   4   5    4.10    1.52
  -3   4  -5    2.19    1.22
   3  -4   6   31.65    3.87
   3  -4   6   32.38    3.87
   3   4   6   34.67    4.01
  -3   4  -6   35.22    4.38
   3  -4   7  246.81   12.67
   3   4   7  245.42   12.67
  -3   4  -7  270.91   13.82
   3  -4   7  249.40   12.96
   3  -4   8    2.74    1.08
   3  -4   8    3.58    1.15
   3   4   8    2.44    1.00
  -3   4  -8    2.72    1.24
  -3   4  -9   19.65    2.23
   3   5 -10   40.97    3.49
  -3  -5  10   40.80    3.07
   3   5  -9  101.40    7.16
  -3  -5   9  102.70    6.61
   3   5  -9  102.00    7.73
   3   5  -8  300.56   15.64
  -3   5   8  306.46   16.62
  -3   5   8  320.42   14.70
   3   5  -7  389.11   18.65
   3   5  -7  379.90   19.81
  -3   5   7  369.74   20.20
  -3   5   7  361.97   17.29
  -3   5   7  329.85   16.55
  -3  -5   7  359.23   16.84
  -3   5   6  337.09   19.18
  -3   5   6  332.88   17.76
  -3   5   6  334.08   16.42
   3   5  -6  340.75   18.64
  -3  -5   6  316.43   16.12
   3   5  -5   94.52    8.21
  -3   5   5   85.68    7.99
  -3   5   5   76.45    6.48
  -3  -5   5   76.45    7.08
   3  -5  -5  106.17   10.34
  -3  -5   5   98.45    7.31
   3   5  -4  108.32    8.61
  -3   5   4  112.36    7.70
  -3  -5   4  101.75    8.04
  -3   5   4  105.46    9.35
  -3   5   4  101.77    8.68
  -3  -5   4  110.00    7.90
   3  -5  -4  124.91   11.20
   3   5  -3  471.03   21.91
  -3   5   3  484.05   23.25
  -3   5   3  474.87   20.90
  -3  -5   3  493.96   22.04
  -3   5   3  479.21   23.63
  -3  -5   3  468.65   21.40
  -3   5   2    7.53    1.84
  -3  -5   2    6.89    2.04
  -3   5   1  443.02   20.18
  -3   5   1  403.22   20.27
  -3   5   1  397.95   18.36
  -3  -5   1  422.18   19.86
  -3   5   1  412.85   20.15
  -3   5   0  392.76   19.30
  -3   5   0  380.96   18.69
   3   5   0  384.98   17.49
  -3   5   0  386.06   17.68
  -3   5  -1 1215.78   47.26
  -3   5  -1 1148.64   47.28
   3   5   1 1274.62   45.91
  -3   5  -1 1215.53   46.14
  -3   5  -2  236.10   13.21
  -3  -5  -2  196.38   13.02
   3   5   2  203.03   13.53
   3   5   2  236.44   12.26
  -3   5  -2  234.23   12.49
  -3   5  -2  234.08   14.35
   3  -5   2  240.82   14.78
  -3   5  -3  328.79   17.25
  -3  -5  -3  374.62   18.74
   3   5   3  316.97   18.27
   3   5   3  322.57   16.43
  -3   5  -3  372.02   17.39
  -3   5  -3  372.13   19.64
  -3   5  -4   26.41    4.58
  -3  -5  -4   21.03    3.79
   3   5   4   26.85    4.36
  -3   5  -4   15.85    2.96
   3   5   5  850.85   33.39
  -3  -5  -5  836.43   36.26
   3   5   5  796.54   35.28
  -3   5  -5  876.67   34.65
   3  -5   5  837.87   33.46
  -3   5  -5  874.44   37.86
   3   5   6   65.13    5.36
  -3   5  -6   66.02    6.02
   3  -5   6   62.20    5.41
   3   5   7   68.78    5.51
  -3   5  -7   66.51    5.60
   3  -5   7   68.62    5.43
   3  -5   8   19.08    2.35
   3   5   8   16.77    2.27
  -3   5  -8   16.26    2.33
   3   5   9    9.94    1.34
  -3   5  -9    8.59    1.28
   3   6  -9   14.04    2.21
  -3  -6   9   17.93    2.35
   3   6  -8    1.42    1.06
   3   6  -8    0.95    1.22
  -3   6   8    2.32    1.46
   3   6  -7  223.41   14.28
  -3   6   7  258.51   15.35
  -3  -6   7  236.85   12.61
  -3   6   6   71.35    7.00
   3   6  -6   65.88    7.10
  -3   6   6   92.13    8.60
  -3  -6   6   76.57    6.49
   3  -6  -5    4.12    2.29
  -3  -6   5    7.62    2.14
   3   6  -5    1.11    1.17
  -3   6   5    1.12    1.57
  -3   6   5    3.16    1.33
  -3  -6   5    4.05    1.68
   3   6  -4   75.03    7.15
  -3   6   4   86.49    7.91
  -3   6   4   74.12    6.03
  -3  -6   4   69.02    6.76
  -3   6   4   91.13    8.53
  -3  -6   4   69.61    6.46
   3  -6  -4   89.34    9.71
  -3   6   3  363.72   18.71
  -3   6   3  313.33   15.51
  -3  -6   3  288.11   16.51
  -3   6   3  361.63   19.17
  -3  -6   3  341.71   16.76
  -3  -6   2  571.04   25.31
   3   6  -2  586.90   26.59
  -3   6   2  553.83   24.03
  -3  -6   2  600.28   26.21
  -3   6   2  610.60   27.56
  -3   6   1  823.67   33.30
   3   6  -1  763.98   33.44
  -3   6   1  781.12   33.28
  -3   6   1  725.50   30.32
  -3  -6   1  768.32   32.56
  -3   6   1  764.49   33.15
  -3   6   0  325.48   16.72
  -3   6   0  284.64   16.29
   3   6   0  311.64   17.22
  -3   6   0  292.60   14.55
  -3   6   0  295.42   16.12
  -3   6   0  312.01   17.05
  -3   6  -1 1139.85   46.96
  -3   6  -1 1179.82   47.06
  -3   6  -1 1185.45   45.27
  -3   6  -1 1282.72   48.63
  -3   6  -2    8.79    2.63
  -3   6  -2    8.72    2.40
  -3  -6  -2    4.85    1.90
   3   6   2    7.66    2.41
  -3   6  -2   10.32    2.24
  -3   6  -3  124.36    9.17
  -3  -6  -3  114.37    9.42
   3   6   3  116.69    9.74
  -3   6  -3  117.77    8.26
  -3   6  -4   49.49    6.32
  -3   6  -4   50.20    5.48
   3   6   4   56.17    6.34
  -3  -6  -4   48.08    5.82
   3   6   4   44.79    4.81
  -3   6  -4   43.10    4.79
  -3   6  -5    4.81    1.78
   3   6   5    6.93    2.27
   3   6   5    3.45    1.46
  -3   6  -5    3.92    1.49
  -3   6  -6  102.12    7.51
   3   6   6  121.24    7.87
  -3   6  -6  109.52    7.62
   3  -6   6  107.31    7.10
   3   6   7  257.44   12.24
  -3   6  -7  232.20   12.01
   3  -6   7  243.37   11.73
   3  -6   8    5.70    1.21
   3   6   8    5.15    1.21
  -3   6  -8    3.91    1.04
  -3  -7   9   12.26    1.80
  -3   7   8  144.16    9.25
  -3  -7   8  130.51    7.53
  -3  -7   7   25.30    3.30
  -3   7   7   25.59    4.08
  -3   7   6   95.08    8.72
  -3   7   6   77.99    7.64
  -3   7   5  660.69   29.41
  -3  -7   5  607.36   27.29
  -3  -7   4   16.18    3.10
  -3   7   4   23.04    4.15
  -3  -7   4   10.01    2.70
  -3   7   4   18.28    3.79
  -3   7   3  163.91   11.54
  -3  -7   3  141.80   10.41
  -3   7   3  161.98   11.86
  -3  -7   3  144.40   10.07
  -3   7   2  158.78   11.30
   3   7  -2  156.53   10.91
  -3  -7   2  137.66   10.25
  -3   7   2  151.77   11.43
  -3  -7   2  146.16   10.08
  -3   7   1   29.00    4.45
  -3   7   1   23.67    4.14
   3   7  -1   26.78    4.40
  -3   7   1   26.32    4.29
  -3   7   0  494.87   22.95
  -3   7   0  467.55   22.68
   3   7   0  440.87   22.88
  -3  -7   0  412.45   21.93
  -3   7   0  463.75   22.43
  -3   7  -1   78.98    7.31
  -3   7  -1   71.55    6.97
   3   7   1   75.45    7.70
  -3   7  -1   85.08    8.00
  -3   7  -2  150.30   10.58
   3   7   2  135.84   10.91
   3   7   2  134.19    8.95
  -3   7  -2  121.57   10.31
  -3  -7  -3  634.38   29.59
  -3   7  -3  666.06   29.49
   3   7   3  581.73   29.58
   3   7   3  680.99   27.84
  -3   7  -3  651.47   27.11
  -3   7  -3  680.46   30.83
  -3   7  -4    2.44    1.54
   3   7   4    3.39    1.68
   3   7   4    1.53    1.07
  -3   7  -4    2.86    1.19
  -3   7  -5  261.65   14.46
   3   7   5  246.98   14.61
   3   7   5  290.75   14.06
  -3   7  -5  265.31   13.50
  -3   7  -6   16.99    2.75
   3   7   6   18.77    2.68
  -3   7  -6   12.62    2.21
   3   7   7   19.26    2.41
  -3   7  -7   18.94    2.28
   3   7   8   21.29    2.02
  -3   8   8   48.07    4.38
  -3  -8   8   49.61    3.76
  -3   8   7  329.06   16.82
  -3  -8   7  324.47   15.21
  -3   8   6  316.45   17.40
  -3   8   6  311.24   16.60
  -3  -8   6  295.71   15.23
  -3  -8   5   11.54    2.54
  -3   8   5   17.15    3.52
  -3   8   4  120.19    9.80
  -3  -8   4  102.86    8.15
  -3   8   3  104.45    9.17
  -3  -8   3   98.09    8.44
  -3   8   3  115.25    9.84
  -3  -8   3   97.05    7.91
  -3  -8   2    0.47    0.70
  -3   8   2    1.77    1.52
   3   8  -2    1.03    1.09
  -3   8   2    3.12    1.85
  -3   8   1  439.10   22.25
   3   8  -1  450.54   22.51
  -3  -8   1  409.25   21.38
  -3   8   1  450.30   22.74
  -3   8   0   82.70    7.66
  -3   8   0   73.25    7.22
   3   8   0   65.66    7.30
  -3  -8   0   65.47    6.88
  -3   8   0   71.85    7.20
  -3   8  -1  148.24   10.88
  -3   8  -1  139.81   10.30
   3   8   1  159.55   11.74
  -3  -8  -1  148.66   10.81
  -3   8  -1  146.71   10.52
  -3   8  -1  148.34   11.23
  -3   8  -2  241.79   14.00
   3   8   2  181.72   13.32
  -3   8  -3   -0.52    0.94
   3   8   3    0.60    1.09
   3   8   3    0.38    0.88
  -3   8  -4  114.61    8.65
   3   8   4   98.13    8.57
   3   8   4  102.92    7.39
  -3   8  -5   58.18    5.59
   3   8   5   58.86    5.80
   3   8   5   59.44    5.04
  -3   8  -6   16.15    2.53
   3   8   6   19.39    2.50
   3   8   7  240.24   10.55
  -3  -9   8   38.55    3.02
  -3  -9   7    3.69    1.13
  -3   9   7    0.34    0.80
  -3  -9   6   19.75    2.85
  -3   9   6   20.34    3.42
  -3   9   6   14.16    2.88
  -3   9   5  123.08    9.37
  -3  -9   5  124.39    8.46
  -3  -9   4   18.42    3.24
  -3   9   4   17.87    3.67
  -3   9   3   60.96    6.95
  -3  -9   3   52.66    5.52
   3   9  -2  187.07   12.21
  -3   9   2  189.73   13.47
  -3   9   1  216.15   13.87
   3   9  -1  221.13   13.78
  -3   9   1  220.59   14.28
  -3  -9   1  210.52   12.76
  -3   9   0  420.57   21.58
   3   9   0  439.64   22.33
  -3   9   0  445.15   22.17
  -3  -9   0  425.78   20.80
  -3   9  -1  379.96   19.53
  -3   9  -1  372.70   18.57
   3   9   1  330.07   19.23
  -3   9  -1  345.18   18.47
  -3   9  -2   17.65    3.41
  -3   9  -3   55.12    5.74
   3   9   3   41.14    5.36
  -3   9  -4   99.97    7.65
   3   9   4   87.29    7.58
  -3   9  -5  158.76    9.47
   3   9   5  150.92    9.51
  -3   9  -6    8.68    1.71
  -3  10   7  366.30   15.56
  -3 -10   7  372.61   15.01
  -3  10   6   25.31    3.46
  -3 -10   6   27.00    3.02
  -3  10   5  287.30   15.20
  -3 -10   5  288.22   14.10
  -3  10   4  108.69    8.58
  -3 -10   4   85.86    6.86
  -3  10   3    6.68    2.42
  -3  10   2   82.65    7.52
   3  10  -2   65.05    6.09
  -3  10   2   81.87    7.74
  -3 -10   2   71.96    6.39
  -3 -10   1    2.53    1.40
  -3  10   1    2.07    1.44
   3  10  -1    1.45    1.24
  -3  10   1    1.65    1.42
  -3 -10   0   29.54    3.92
  -3  10   0   24.50    3.95
   3  10   0   30.79    4.48
  -3  10   0   24.17    3.96
   3  10   1   87.05    7.86
  -3  10  -1   89.50    7.50
  -3 -10  -1   87.55    6.96
  -3  10  -2   56.92    5.80
  -3 -10  -2   51.34    5.05
  -3 -10  -3   30.73    3.55
  -3  10  -3   28.82    3.90
   3  10   3   26.79    4.04
  -3  10  -4   31.43    3.82
   3  10   4   32.66    4.01
  -3 -10  -4   35.35    3.45
  -3  10  -5  112.56    6.91
   3  10   5  108.35    6.92
  -3  11   6   34.86    3.21
  -3 -11   6   34.10    2.86
  -3  11   5   53.37    4.85
  -3  11   5   55.84    4.82
  -3 -11   5   43.79    3.85
  -3  11   4   93.06    7.13
  -3  11   4   79.38    6.83
  -3  11   3  179.33   10.97
  -3  11   3  175.00   11.08
  -3 -11   3  162.13    9.58
  -3 -11   2   10.28    2.12
  -3  11   2   10.66    2.58
  -3  11   2    8.00    2.34
  -3 -11   1    9.02    2.08
  -3  11   1    7.74    2.28
   3  11  -1   12.96    2.58
  -3  11   1    7.86    2.40
  -3  11   0  147.07    9.44
   3  11   0  144.18    9.70
  -3  11   0  158.94   10.08
  -3 -11   0  136.84    8.77
   3  11   1   43.32    4.86
  -3  11  -1   41.21    4.47
  -3 -11  -1   40.46    4.12
   3  11   2   82.77    6.94
  -3 -11  -2   92.49    6.19
  -3  11  -3  201.81   10.84
   3  11   3  193.45   11.02
  -3 -11  -3  185.39    9.35
  -3  11  -4    0.77    0.81
   3  11   4    0.28    0.59
  -3 -12   4   17.85    2.11
  -3  12   4   19.70    2.60
  -3 -12   3   17.51    2.27
  -3  12   3   16.96    2.66
  -3  12   3   20.18    2.86
  -3  12   2   66.77    5.49
  -3  12   2   71.17    5.81
  -3 -12   2   65.43    4.84
  -3  12   1  180.70   10.21
  -3 -12   1  162.51    8.85
  -3 -12   0    6.27    1.40
   3  12   0    5.85    1.52
  -3  12   0    6.84    1.71
   3  12   1   77.49    5.68
  -3  12  -1   61.68    4.82
  -3 -12  -1   65.13    4.52
   3  12   2   17.95    2.56
   3  12   3    3.27    1.08
   4   0 -10    2.69    0.97
  -4   0   9  732.25   28.96
  -4   0   8    1.13    0.97
  -4   0   7  309.73   16.10
  -4   0   6   14.89    2.96
  -4   0   5    1.79    1.33
  -4   0   4  173.16   11.01
  -4   0   3    5.37    1.74
  -4   0   2  253.95   13.61
  -4   0   1 1119.47   43.39
  -4   0   0  147.15    9.47
  -4   0  -1    7.50    1.97
  -4   0  -1    8.30    2.09
  -4   0  -2   58.66    6.01
  -4   0  -2   70.04    6.08
  -4   0  -3  158.77   10.91
  -4   0  -3  150.69    9.92
  -4   0  -4   15.78    2.94
  -4   0  -5  227.46   12.70
   4   0   6  222.17   11.14
  -4   0  -6  261.71   12.92
  -4   0  -7  383.39   16.79
  -4   0  -8    0.17    0.43
   4   1 -10    2.86    1.01
   4  -1 -10    1.93    0.79
  -4   1   9    4.50    1.30
  -4  -1   9    4.78    1.39
   4   1  -8   24.73    3.84
  -4  -1   8   29.78    3.64
  -4   1   8   27.28    3.53
  -4  -1   8   22.56    3.31
  -4  -1   7  212.92   12.04
  -4   1   7  189.38   11.72
  -4  -1   7  194.10   11.83
  -4  -1   6   25.37    3.72
  -4   1   6   26.03    3.84
  -4  -1   5  834.27   34.34
  -4   1   5  835.48   34.54
  -4   1   4    0.41    0.74
  -4  -1   4    1.23    0.96
  -4   1   4   -0.56    1.18
  -4  -1   4    0.84    0.88
  -4   1   4    0.44    0.93
  -4  -1   3  118.30    8.14
  -4   1   3  115.56    8.95
  -4   1   3  108.69    8.00
  -4  -1   3   98.23    7.66
  -4   1   3  103.83    7.92
  -4  -1   2   12.25    2.43
  -4   1   2    8.00    2.07
  -4  -1   2    8.03    2.07
  -4   1   2   11.86    2.49
  -4  -1   1    2.60    1.17
  -4   1   1   -0.40    1.03
  -4  -1   0    7.04    1.91
  -4  -1   0    6.30    1.84
  -4   1   0    6.83    1.90
  -4  -1  -1  486.30   22.93
  -4  -1  -1  493.26   22.11
  -4   1  -1  515.47   22.74
  -4  -1  -2  102.89    8.39
  -4  -1  -2  111.04    7.85
  -4   1  -2  106.46    8.07
   4  -1   3  245.61   13.68
   4   1   3  258.86   13.84
  -4  -1  -3  262.47   15.05
   4   1   3  230.37   12.19
  -4  -1  -3  250.86   13.46
  -4   1  -3  255.82   14.03
   4  -1   4    0.42    0.88
   4   1   4    0.42    0.99
  -4  -1  -4    0.55    0.82
   4   1   4   -0.31    0.66
  -4  -1  -4    0.39    0.71
  -4   1  -4   -0.43    0.64
   4  -1   5   17.65    3.01
   4   1   5   16.90    3.08
   4   1   5   19.69    2.73
  -4  -1  -5   19.58    3.02
  -4   1  -5   18.83    3.10
   4  -1   6    1.06    0.99
   4   1   6    0.71    0.84
   4   1   6    2.69    1.13
  -4  -1  -6    0.32    0.89
  -4   1  -6    0.36    0.76
   4  -1   7  116.50    7.32
   4   1   7  118.70    7.32
   4   1   7  115.00    6.55
  -4  -1  -7  117.51    6.90
  -4   1  -7  116.91    7.31
   4  -1   8    0.37    0.52
   4   1   8    1.50    0.79
   4   1   8    0.37    0.41
  -4   1  -8    0.18    0.50
   4   2 -10    5.30    1.22
   4   2  -9   99.02    7.22
  -4   2   9  101.55    6.56
   4   2  -8    3.68    1.61
  -4  -2   8    7.69    1.87
  -4   2   8    3.27    1.33
  -4   2   8    4.12    1.41
  -4  -2   8    6.53    1.74
   4   2  -7  534.37   24.73
  -4  -2   7  481.70   22.75
  -4   2   7  539.94   23.51
  -4   2   7  511.29   22.80
  -4  -2   7  516.81   23.05
  -4  -2   6  116.63    8.40
  -4   2   6  109.59    8.41
  -4   2   5  154.61   11.71
  -4  -2   5  159.64   10.04
  -4   2   5  143.24   10.02
  -4   2   4   66.45    7.03
  -4  -2   4   69.53    6.03
  -4   2   4   55.97    5.88
  -4   2   3  448.57   20.84
  -4  -2   3  438.94   20.74
  -4   2   3  466.59   22.44
  -4  -2   3  451.22   20.75
   4  -2  -3  523.12   26.61
  -4   2   2  227.91   12.52
  -4  -2   2  235.56   12.67
  -4  -2   2  223.65   12.39
  -4   2   1  755.89   30.53
  -4  -2   1  725.09   30.46
  -4  -2   1  706.88   29.91
   4  -2  -1  824.43   35.88
  -4  -2   0   54.49    5.75
  -4  -2   0   67.76    5.59
  -4  -2  -1  218.90   13.34
   4   2   1  235.90   11.75
  -4  -2  -1  237.52   12.40
  -4   2  -1  211.95   12.66
  -4   2  -2   -0.49    0.73
  -4  -2  -2    0.52    0.94
   4   2   2    2.21    1.15
  -4  -2  -2    0.36    0.76
   4  -2   3   81.26    6.65
   4   2   3   75.10    6.47
  -4  -2  -3   66.73    6.93
   4   2   3   73.23    5.87
  -4  -2  -3   75.16    6.19
  -4   2  -3   73.25    6.66
   4  -2   4  213.72   12.68
   4   2   4  235.06   13.06
   4   2   4  248.42   14.20
   4   2   4  229.54   12.19
  -4  -2  -4  238.78   12.60
  -4   2  -4  236.76   13.41
   4  -2   5  266.31   14.02
   4   2   5  258.32   13.97
   4   2   5  272.95   13.33
  -4  -2  -5  259.60   13.29
  -4   2  -5  269.34   14.31
   4  -2   6    8.06    1.89
   4   2   6    8.80    1.96
   4   2   6    6.44    1.63
  -4  -2  -6    7.45    1.66
  -4   2  -6    8.29    1.98
   4  -2   7  178.29    9.54
   4   2   7  169.82    9.45
   4   2   7  192.47    9.25
  -4   2  -7  199.57   10.10
   4   2   8   13.54    1.58
  -4   2  -8   15.74    1.92
   4   3  -9    5.73    1.37
   4   3  -9    5.18    1.57
   4   3  -8    2.17    1.29
  -4  -3   8    1.74    0.96
  -4   3   8    0.67    0.71
  -4   3   8    0.31    0.56
  -4  -3   8    1.24    0.86
   4   3  -7  607.06   26.61
  -4  -3   7  576.01   24.37
  -4   3   7  542.07   24.68
  -4   3   7  580.20   24.61
  -4  -3   7  565.86   24.51
   4   3  -6   51.32    5.92
  -4   3   6   54.74    6.55
  -4  -3   6   50.33    5.05
  -4   3   6   60.96    5.90
  -4   3   5  122.02   10.25
  -4  -3   5  114.20    8.20
  -4   3   5  137.98    9.37
   4   3  -5  123.50    9.48
   4   3  -4  263.27   14.81
  -4   3   4  278.11   16.34
  -4  -3   4  265.79   13.96
  -4   3   4  278.18   14.87
   4  -3  -4  287.75   18.83
  -4   3   3  133.68    8.70
  -4  -3   3  124.44    8.50
  -4   3   3  129.29    9.82
  -4  -3   3  122.97    8.28
  -4   3   3  128.65    9.13
   4  -3  -3  129.09   11.75
  -4   3   2    2.57    1.28
  -4  -3   2   -0.37    0.78
  -4   3   2    0.94    0.99
  -4   3   2    1.28    1.00
  -4  -3   2    2.53    1.26
   4  -3  -2    0.79    1.44
  -4   3   1   14.23    2.54
  -4  -3   1    7.03    1.94
  -4   3   1   10.10    2.41
   4  -3  -1   16.63    3.91
  -4  -3   0   13.33    2.89
  -4   3   0   19.03    3.18
   4  -3   0   12.86    3.48
  -4  -3  -1 1950.71   75.89
   4   3   1 2029.56   73.08
  -4   3  -1 2055.73   74.73
   4  -3   1 2104.80   78.18
  -4  -3  -2   86.08    7.77
   4   3   2   79.02    6.30
  -4   3  -2   87.72    7.19
  -4   3  -2   88.91    7.92
  -4  -3  -3  200.81   13.24
   4   3   3  202.50   11.34
  -4   3  -3  198.31   12.13
  -4   3  -3  224.31   13.52
   4  -3   4   40.12    4.54
   4   3   4   49.47    4.95
   4   3   4   45.55    5.45
   4   3   4   45.24    4.61
   4  -3   5  364.62   17.73
   4   3   5  401.49   18.22
   4   3   5  400.69   17.74
   4  -3   6    0.61    0.84
   4   3   6    0.92    0.79
   4   3   6    0.84    0.72
   4   3   7   89.66    5.72
   4   3   7   84.45    5.40
   4   3   8   16.19    1.68
  -4   3  -8   17.57    1.94
   4   4  -9   70.83    5.32
   4   4  -8    9.51    2.30
  -4   4   8    7.57    1.72
  -4   4   8   10.18    1.85
  -4  -4   8    6.66    1.52
   4   4  -7    8.48    2.33
  -4   4   7    5.47    1.68
  -4   4   7    6.11    1.67
  -4  -4   7    6.79    1.78
  -4   4   6   13.04    2.50
  -4  -4   6   19.32    3.00
   4   4  -6   20.04    3.58
  -4   4   6   18.81    3.81
  -4   4   6   18.47    3.07
   4   4  -5  278.40   15.51
  -4   4   5  270.07   16.57
  -4   4   5  277.79   14.89
  -4   4   4   37.41    5.26
  -4   4   4   44.66    4.92
   4  -4  -4   45.96    7.00
  -4   4   3 1034.15   40.76
  -4  -4   3 1085.66   41.15
  -4   4   3 1102.70   43.97
  -4   4   3 1072.03   42.15
   4  -4  -3 1173.32   48.29
  -4  -4   3  978.00   40.68
   4  -4  -2    4.15    2.31
  -4   4   2    4.55    1.47
  -4  -4   2    1.79    1.07
  -4   4   2    4.46    1.81
  -4   4   2    4.27    1.68
  -4  -4   2    0.93    0.85
  -4   4   1 1420.25   53.22
  -4  -4   1 1470.48   53.55
  -4   4   1 1460.17   54.52
  -4  -4   1 1315.85   54.96
   4  -4  -1 1528.15   60.41
   4  -4   0    0.74    1.36
  -4   4   0    1.28    1.10
  -4  -4  -1  427.80   22.41
   4   4   1  466.90   20.70
  -4   4  -1  473.31   21.65
   4  -4   1  468.14   24.53
  -4   4  -2   21.68    3.94
  -4  -4  -2   16.44    3.43
   4   4   2   22.86    3.21
  -4   4  -2   18.42    3.19
   4   4   3   11.53    2.86
   4   4   3    8.75    2.09
  -4   4  -3    8.32    2.23
   4   4   4    1.02    1.32
   4   4   4    1.42    1.12
  -4   4  -4    0.84    0.99
   4   4   5  113.99    7.51
  -4   4  -5  112.92    7.97
   4   4   6   18.47    2.56
  -4   4  -6   21.55    2.92
   4   4   7  263.71   11.80
  -4   4  -7  267.30   12.29
   4   5  -8   59.85    5.23
  -4   5   8   57.60    4.39
  -4  -5   8   57.63    4.19
   4   5  -7   59.97    5.77
  -4   5   7   51.77    4.70
   4   5  -6  144.88    9.93
  -4   5   6  138.43   10.59
  -4   5   6  127.12    8.61
   4   5  -5  727.02   30.77
  -4   5   5  730.07   32.60
  -4   5   5  683.90   29.53
  -4  -5   4   29.08    3.74
  -4   5   4   34.60    5.12
  -4   5   4   31.48    4.05
   4  -5  -3    9.53    3.29
  -4  -5   3    7.99    2.02
  -4   5   3    6.77    2.30
  -4   5   3    5.44    1.82
  -4  -5   3    2.77    1.38
  -4   5   2  118.85    8.48
  -4  -5   2  110.01    8.81
   4  -5  -2  106.70   11.05
  -4  -5   2  114.68    8.34
  -4   5   1  280.24   14.94
  -4  -5   1  268.87   15.75
   4  -5  -1  302.01   19.46
  -4   5   0   93.89    7.40
   4  -5   0   98.72    9.97
  -4   5  -1  763.36   31.24
   4  -5   1  703.28   34.27
  -4  -5  -2   92.78    8.41
   4   5   2   82.23    8.20
   4   5   2   96.44    7.15
  -4   5  -2   88.65    7.26
  -4   5  -2   91.04    8.44
   4   5   3 1182.29   50.47
   4   5   3 1302.22   47.97
  -4   5  -3 1284.93   48.60
   4   5   4   59.96    6.25
   4   5   4   62.34    5.47
  -4   5  -4   71.10    6.04
   4   5   5  108.57    7.14
  -4   5  -5  108.11    7.55
   4   5   6    4.75    1.32
  -4   5  -6    3.36    1.22
   4   5   7    2.10    0.83
  -4   5  -7    4.45    1.10
  -4  -6   8    2.36    0.79
  -4   6   7   50.77    5.38
  -4   6   6  118.23    9.38
  -4   6   6  116.23    7.44
   4   6  -5  582.30   25.36
  -4   6   5  621.64   27.91
  -4   6   5  559.98   24.16
  -4  -6   5  550.91   24.03
  -4  -6   4    3.09    1.41
  -4   6   4    2.92    1.74
  -4   6   4    0.37    0.96
  -4   6   3  254.75   15.20
   4   6  -3  250.79   14.46
  -4   6   3  235.09   12.93
  -4  -6   3  225.91   13.15
  -4  -6   2   25.26    3.71
   4   6  -2   17.47    3.61
  -4   6   2   16.01    2.85
   4   6  -1 1936.13   70.08
  -4   6   1 1800.52   66.39
  -4  -6   1 1713.59   68.34
  -4   6   1 1768.75   67.86
   4  -6  -1 1896.41   74.09
   4  -6   0   37.03    6.03
   4   6   0   29.18    4.74
  -4   6   0   23.71    3.49
  -4  -6   0   23.66    4.06
  -4   6  -1  209.56   12.02
  -4   6  -2   15.81    2.95
   4   6   2   15.76    3.53
  -4   6  -2   18.79    3.02
   4   6   3    3.90    1.76
   4   6   3    1.80    1.13
  -4   6  -3    0.75    0.97
   4   6   4   -0.47    0.86
   4   6   4    1.32    0.98
  -4   6  -4    2.07    1.09
   4   6   5   99.48    7.27
   4   6   5  109.97    7.04
  -4   6  -5  115.91    7.28
   4   6   6    0.65    0.69
  -4   6  -6    1.11    0.70
  -4   7   7  281.76   14.42
  -4  -7   6   22.30    2.74
  -4   7   6   22.80    3.64
  -4   7   5  107.53    8.84
  -4  -7   5  106.25    7.25
  -4   7   4  211.67   13.25
  -4  -7   4  190.67   11.23
  -4  -7   3   58.16    5.65
  -4  -7   2   -0.44    0.92
  -4   7   2   -0.34    0.62
  -4  -7   1    9.84    2.37
   4   7  -1    9.83    2.87
  -4   7   1    7.96    1.92
  -4   7   1   12.45    2.82
   4   7   0    7.81    2.54
  -4   7   0    6.98    1.85
   4   7   1  943.61   42.07
  -4   7  -1 1065.38   39.67
  -4   7  -2   15.75    2.93
   4   7   2   16.61    3.44
  -4   7  -2   14.09    2.52
  -4   7  -3   94.16    6.91
   4   7   3   84.00    7.71
  -4   7  -3   87.65    6.38
   4   7   4    0.84    1.17
  -4   7  -4    1.37    0.86
   4   7   5  228.65   11.68
  -4   7  -5  241.33   11.11
  -4   7  -6    1.39    0.57
  -4   8   7  139.34    8.15
  -4  -8   6    1.91    0.84
  -4  -8   5    0.29    0.53
  -4   8   5    0.90    0.95
  -4  -8   4    0.35    0.63
  -4   8   4    0.49    1.03
  -4  -8   3  589.12   25.33
   4   8  -2   82.55    7.31
  -4  -8   2   90.78    7.13
   4   8  -1  175.84   11.55
  -4   8   1  157.34   10.50
  -4  -8   1  146.51    9.98
   4   8   0  105.75    8.86
  -4  -8   0  101.74    7.84
   4   8   1  166.09   11.60
   4   8   2   23.57    4.03
   4   8   3   36.28    4.53
   4   8   4    8.36    1.99
   4   8   5  115.34    6.54
  -4  -9   6   11.53    1.53
  -4   9   5  308.17   15.09
  -4  -9   5  301.26   13.57
  -4  -9   4    0.29    0.69
  -4   9   4   -0.81    0.96
  -4   9   3   45.60    4.94
  -4  -9   3   42.62    4.35
  -4  -9   2   18.02    2.87
   4   9  -2    9.77    2.24
  -4  -9   1    0.37    0.87
   4   9  -1   -0.44    1.03
  -4   9   1    0.78    0.92
   4   9   0    0.46    1.19
   4   9   1  179.16   11.53
  -4  -9  -1  181.85   10.53
  -4  -9  -2    1.29    0.96
   4   9   3  173.40   10.23
  -4  -9  -4    0.43    0.59
   4   9   4    0.79    0.67
  -4  10   5   38.85    3.57
  -4 -10   5   36.41    2.92
  -4 -10   4   10.01    1.69
  -4  10   4   10.60    2.04
  -4 -10   3    1.85    0.92
  -4  10   3    0.99    0.77
  -4 -10   2   13.30    2.19
   4  10  -1  438.23   19.43
   4  10   0   48.73    4.72
  -4 -10   0   41.20    4.08
  -4 -10  -1    2.75    1.16
   4  10   1    2.12    1.12
  -4 -10  -2    1.20    0.71
   4  10   3   44.72    3.98
  -4 -10  -3   47.59    3.56
  -4  11   3   81.50    5.10
  -4 -11   3   73.43    4.61
  -4  11   2    0.63    0.62
  -4 -11   1    8.56    1.53
  -4 -11   0    9.66    1.61
   4  11   0    8.20    1.56
   4  11   1  144.61    7.79
  -4 -11  -1  139.83    7.18
   5   0  -8    4.81    1.29
  -5   0   8    6.42    1.31
   5   0  -7  136.80    8.31
  -5   0   7  136.56    8.05
  -5   0   6   46.30    4.62
  -5   0   5  163.85   10.10
  -5   0   4   26.69    3.69
  -5   0   3   92.81    7.40
  -5   0   2  844.44   34.53
  -5   0   1  303.33   15.66
  -5   0   0    0.82    0.96
  -5   0  -1  129.82    8.78
  -5   0  -2  244.91   13.10
  -5   0  -3   39.23    4.14
  -5   0  -4  183.87    9.94
  -5   0  -5  157.97    8.32
  -5   0  -6   64.03    3.90
   5   1  -8   14.89    2.05
   5  -1  -8   19.76    2.44
  -5  -1   8   15.15    1.94
  -5   1   8   16.34    2.11
  -5   1   8   16.19    2.05
  -5  -1   8   17.83    2.14
   5   1  -7  470.08   20.10
  -5  -1   7  478.78   19.74
  -5   1   7  477.55   20.01
  -5   1   7  460.98   19.81
  -5  -1   7  463.29   19.81
   5   1  -6   62.55    5.38
  -5  -1   6   65.85    5.31
  -5   1   6   58.87    5.25
  -5   1   6   53.14    5.00
  -5  -1   5  213.25   11.98
  -5   1   5  228.97   12.54
  -5  -1   4   43.55    4.61
  -5   1   4   43.27    4.85
  -5   1   3   54.43    5.32
  -5  -1   3   55.52    5.43
  -5  -1   3   44.34    4.91
  -5   1   3   63.67    5.92
  -5   1   2   82.95    6.71
  -5  -1   2   75.16    6.50
  -5  -1   2   75.66    6.39
  -5   1   2   73.09    6.56
  -5   1   1   10.60    2.33
  -5  -1   1    9.02    2.26
  -5  -1   1    9.48    2.22
  -5   1   1   11.22    2.51
  -5   1   0   61.13    5.75
  -5  -1   0   62.26    5.79
  -5  -1   0   58.58    5.51
  -5   1   0   66.91    6.09
  -5  -1  -1  182.15   10.75
  -5   1  -1  189.34   11.32
  -5  -1  -2   46.51    4.64
  -5   1  -2   48.68    4.94
  -5  -1  -3    6.87    1.75
  -5   1  -3    6.40    1.77
  -5  -1  -4    5.25    1.36
  -5   1  -4    5.52    1.52
  -5  -1  -5   34.73    3.09
  -5   1  -5   40.05    3.56
  -5   1  -6   24.81    2.32
   5  -2  -8    0.22    0.61
  -5   2   8    0.19    0.40
  -5   2   8   -0.17    0.41
  -5  -2   8    0.17    0.37
   5   2  -7   11.30    2.04
  -5  -2   7   11.50    1.86
  -5   2   7   12.96    2.02
  -5  -2   7   12.26    2.03
  -5   2   6    0.32    0.58
  -5  -2   6    0.64    0.75
   5   2  -6    0.62    0.66
  -5  -2   6    0.29    0.52
  -5  -2   5  126.01    8.14
  -5  -2   4  179.29   10.41
  -5   2   3  271.07   13.97
  -5  -2   3  246.34   13.52
  -5  -2   3  278.99   13.74
  -5   2   2   50.33    5.03
  -5  -2   2   45.32    4.83
  -5  -2   2   43.81    4.62
  -5   2   2   47.63    5.16
  -5   2   1  114.19    8.15
  -5  -2   1  116.25    8.24
  -5  -2   1  105.59    7.65
  -5   2   1  126.99    8.81
  -5   2   0  583.97   24.68
  -5  -2   0  555.23   24.51
  -5  -2   0  555.65   23.94
  -5   2   0  556.63   24.97
  -5  -2  -1    1.32    0.85
  -5   2  -1    2.89    1.38
  -5  -2  -2   39.00    3.98
  -5   2  -2   44.68    4.70
   5   2   3  266.39   14.49
  -5   2  -3  257.62   13.40
  -5   2  -4    3.38    1.25
  -5   2  -5   82.35    5.52
  -5   2  -6   17.27    1.91
   5  -3  -8    6.22    1.28
  -5   3   8    7.43    1.24
   5   3  -7  212.65   10.44
  -5   3   7  230.90   10.88
  -5   3   7  206.10   10.23
  -5  -3   7  227.08   10.52
  -5   3   6    4.47    1.28
  -5  -3   6    1.97    0.94
  -5   3   6    2.21    1.05
  -5   3   5  190.26   10.91
  -5   3   4  100.56    7.57
  -5   3   3    6.72    1.94
  -5   3   2   20.41    3.07
  -5  -3   2   23.40    3.29
  -5   3   2   29.87    3.99
  -5   3   1  180.24   10.75
  -5  -3   1  201.50   11.21
  -5   3   1  185.87   11.44
  -5   3   0   22.65    3.15
  -5  -3   0   19.05    2.96
  -5   3  -1  258.99   13.56
  -5  -3  -1  281.22   13.97
   5   3   2   44.97    5.50
   5   3   3   32.49    4.21
   5   3   4  109.24    7.23
  -5   3  -5    5.69    1.39
  -5   3  -6    8.87    1.31
  -5   4   7    0.62    0.53
  -5  -4   7    0.31    0.43
  -5   4   6    0.83    0.82
  -5   4   6    1.34    0.70
  -5  -4   6    1.59    0.79
  -5   4   5  444.96   18.99
  -5   4   5  397.83   17.90
  -5   4   4   19.57    3.03
  -5   4   3  114.36    8.14
  -5   4   2   85.95    6.30
  -5  -4   2   78.33    6.14
  -5   4   2   89.53    7.08
  -5   4   1  521.60   22.48
  -5  -4   1  502.50   22.45
  -5   4   0    0.95    0.67
  -5  -4   0    1.31    0.84
  -5   4   0   -0.40    1.11
  -5   4  -1   59.77    5.03
  -5  -4  -1   59.86    5.10
   5   4   1   62.55    6.69
  -5   4  -1   67.71    5.87
  -5   4  -2   37.94    3.78
  -5  -4  -2   43.07    4.11
   5   4   2   35.61    4.80
  -5   4  -2   44.65    4.53
  -5   4  -3   81.91    5.54
   5   4   3   79.07    6.67
  -5   4  -3   78.74    6.01
   5   4   4    0.56    0.66
  -5   4  -4    0.53    0.56
  -5  -4  -5  153.19    7.27
  -5   4  -5  168.40    8.16
  -5   5   6   22.31    2.52
  -5   5   5   16.45    2.41
  -5   5   4   20.59    3.15
  -5   5   4   20.23    2.88
   5   5  -3   10.96    2.48
  -5   5   3    7.68    1.86
   5   5  -2   24.32    3.89
  -5   5   2   19.62    3.04
  -5  -5   1  179.62    9.63
   5   5  -1  199.91   12.48
  -5   5   1  175.69   10.43
  -5  -5   1  174.87   10.04
  -5  -5   0   43.60    4.00
   5   5   0   54.50    5.95
  -5   5   0   44.45    4.56
  -5  -5  -1  473.02   19.65
   5   5   1  455.84   22.89
  -5   5  -1  491.67   21.08
   5   5   2  184.29   11.74
  -5   5  -2  201.65   10.70
   5   5   3   33.42    3.95
  -5   5  -3   35.51    3.57
   5   5   4    4.87    1.28
  -5   5  -4    2.92    1.03
  -5   5  -5   -0.16    0.37
  -5   6   5  159.44    8.14
  -5   6   4    1.66    1.10
  -5   6   4    0.25    0.65
   5   6  -3  445.07   19.99
  -5   6   3  446.29   19.10
  -5  -6   2    6.41    1.57
   5   6  -2    6.38    2.06
  -5   6   2    9.45    1.94
   5   6  -1   76.99    6.81
  -5   6   1   69.88    5.58
  -5  -6   1   71.58    5.63
  -5  -6   0    9.74    2.04
   5   6   0   10.84    2.64
  -5   6   0   11.32    2.14
  -5   6  -1   -0.29    0.74
   5   6   2    1.19    1.18
  -5   6  -2    0.26    0.55
   5   6   3  114.96    7.48
  -5   6  -3  106.91    6.42
   5   6   4    1.70    0.72
  -5   6  -4    2.49    0.78
  -5   7   4   53.95    4.48
  -5  -7   3    0.63    0.54
  -5  -7   2    1.25    0.79
   5   7  -2   -0.34    0.72
  -5   7   2    0.22    0.47
   5   7  -1   46.53    4.86
  -5   7   1   45.73    3.85
  -5  -7   1   46.76    4.14
  -5  -7   0   -0.28    0.51
   5   7   0    0.80    0.84
  -5   7   0   -0.23    0.48
  -5   7  -1  244.15   11.20
  -5  -7  -1  239.67   11.80
   5   7   2    1.31    0.91
  -5   7  -2    1.66    0.70
   5   7   3    6.89    1.49
  -5   7  -3    3.65    0.87
  -5  -8   3   31.56    2.69
  -5  -8   2    1.62    0.77
   5   8  -2    0.72    0.62
   5   8  -1  213.73   10.90
  -5  -8   1  194.08    9.70
   5   8   0   97.19    6.70
  -5  -8   0   94.08    5.88
  -5  -8  -1   10.47    1.72
   5   8   1   12.83    2.22
   5   8   2   36.33    3.47
  -5  -8  -2   36.83    3.10
  -5  -9   1   41.60    3.11
  -5  -9   0    1.11    0.55
   5   9   0    1.01    0.60
  -6   0   5  217.38    9.59
  -6   0   4   26.60    2.65
  -6   0   3   82.84    5.39
  -6   0   2    8.95    1.69
  -6   0   1   21.31    2.56
  -6   0   0  228.93   10.80
  -6   0  -1    5.61    1.23
   6   0   2   14.75    2.00
  -6   0  -2   10.88    1.50
  -6   1   5   75.01    4.57
  -6   1   5   72.93    4.55
  -6  -1   5   78.17    4.66
  -6  -1   4   30.38    2.68
  -6   1   4   34.16    3.08
  -6  -1   3    0.39    0.54
  -6   1   3    1.89    0.86
  -6  -1   2   34.70    3.08
  -6   1   2   30.53    3.18
  -6   1   1   86.62    5.53
  -6  -1   1   78.56    5.36
  -6  -1   1   72.83    4.93
  -6   1   1   79.51    5.40
  -6   1   0    9.18    1.73
  -6  -1   0   14.39    2.04
  -6  -1   0   12.19    1.75
  -6   1   0    9.61    1.75
  -6   1  -1   66.12    4.58
  -6  -1  -1   71.11    4.72
   6   1   1   61.56    5.11
  -6   1  -1   68.82    4.67
  -6  -1  -2   35.51    2.96
   6   1   2   32.07    3.09
   6  -1   2   29.24    2.84
  -6   1  -2   35.45    2.91
  -6   1  -3    3.77    0.80
  -6  -1  -3    3.05    0.75
  -6   2   5  117.07    6.10
  -6  -2   5  115.46    5.91
  -6   2   4    1.03    0.61
   6   2  -3   89.54    6.24
  -6   2   3  102.35    6.11
  -6   2   2   74.41    5.25
  -6  -2   1   58.03    4.34
  -6   2   1   62.24    4.65
  -6   2   0   11.82    1.81
  -6  -2   0   13.60    1.93
   6   2   0   15.04    2.51
  -6   2   0   12.15    1.90
  -6   2  -1  159.70    7.64
  -6  -2  -1  142.01    7.42
   6   2   1  139.84    8.33
  -6   2  -1  144.97    7.64
  -6   2  -2    8.23    1.28
  -6  -2  -2    7.58    1.25
   6   2   2    6.29    1.31
  -6   2  -2    6.37    1.21
  -6   3   4   28.62    2.63
  -6   3   4   25.43    2.29
  -6  -3   4   27.09    2.35
   6   3  -3    9.73    1.73
   6   3  -2   13.28    2.25
   6   3  -1  119.49    7.67
  -6   3   0   11.50    1.61
  -6  -3   0   13.33    1.76
  -6   3  -1   67.14    4.10
  -6  -3  -1   66.15    4.17
   6   3   1   72.17    5.20
  -6   3  -1   76.65    4.72
  -6   3  -2   90.92    5.05
  -6   4   3   91.48    5.27
   6   4  -2    6.50    1.49
  -6   4   2    7.03    1.35
   6   4  -1    0.80    0.63
  -6   4   1    1.39    0.72
  -6   4   0   31.41    2.84
   6   4   1   39.24    3.44
  -6   4  -1   34.85    2.86
   6   5  -1   92.94    5.70
  -6   5   1   96.26    5.14
   6   5   0    5.38    1.22
TITL 190924 in P2(1)/m
REM P2(1)/m (#11 in standard setting)
CELL 1.54184   5.185885  11.849719   9.646145  90.0000  96.1532  90.0000
ZERR    3.00   0.000060   0.000144   0.000112   0.0000   0.0011   0.0000
LATT  1
SYMM -x, y+1/2,-z
SFAC C H N O
UNIT 33.00 30.00 3.00 3.00
TREF
HKLF 4
END
_computing_structure_solution     'SHELXT 2014/4 (Sheldrick, 2014)'
;
_shelx_hkl_checksum              61872
_shelx_res_file
;
TITL 190924_a.res in P2(1)/m
    190924.res
    created by SHELXL-2018/3 at 10:20:26 on 17-Sep-2020
REM Old TITL 190924 in P2(1)/m
REM SHELXT solution in P2(1)/m
REM R1 0.153, Rweak 0.011, Alpha 0.028, Orientation as input
REM Formula found by SHELXT: C9 Cl
CELL 1.54184 5.1859 11.8497 9.6461 90 96.153 90
ZERR 4 0.0001 0.0001 0.0001 0 0.001 0
LATT 1
SYMM -X,0.5+Y,-Z
SFAC C H Cl N O
UNIT 8 16 4 12 16
L.S. 10
PLAN  5
SIZE 0.3 0.6 1
TEMP -50(2)
CONF
BOND $H
LIST 6
MORE -1
fmap 2
acta
REM <olex2.extras>
REM <HklSrc "%.\\190924.hkl">
REM </olex2.extras>
WGHT    0.052300    0.186400
FVAR       0.98190
CL10  3    0.852328    0.750000    0.428038    10.50000    0.02432    0.02675 =
         0.01909    0.00000    0.00531    0.00000
O11   5    0.868536    0.750000    0.280555    10.50000    0.04590    0.03080 =
         0.01949    0.00000    0.00581    0.00000
O12   5    0.586566    0.750000    0.456254    10.50000    0.02442    0.05582 =
         0.04638    0.00000    0.01163    0.00000
O13   5    0.979886    0.650633    0.488516    11.00000    0.04470    0.04098 =
         0.03182    0.01213    0.00963    0.01314
N1    4    0.512145    0.437786    0.835198    11.00000    0.03131    0.02265 =
         0.03036    0.00449    0.00888   -0.00064
H1    2    0.476566    0.391293    0.887603    11.00000    0.04397
N2    4    0.332228    0.513387    0.782670    11.00000    0.02339    0.03287 =
         0.07422    0.01467    0.01380    0.00357
N4    4    0.696193    0.533461    0.691265    11.00000    0.02875    0.03310 =
         0.02858    0.00191    0.00927   -0.00665
H4    2    0.807664    0.560682    0.647827    11.00000    0.05247
C3    1    0.452972    0.571122    0.694445    11.00000    0.02747    0.03272 =
         0.05290    0.01685   -0.00474   -0.00244
AFIX  43
H3    2    0.379350    0.631209    0.640211    11.00000   -1.20000
AFIX   0
C5    1    0.730013    0.449665    0.781636    11.00000    0.02320    0.02763 =
         0.03558   -0.00105    0.00358    0.00166
AFIX  43
H5    2    0.881871    0.406992    0.803017    11.00000   -1.20000
AFIX   0
CL6   3    1.030815    0.250000    0.062202    10.50000    0.02332    0.02121 =
         0.01841    0.00000    0.00338    0.00000
O7    5    0.769777    0.250000   -0.007024    10.50000    0.02421    0.03076 =
         0.04155    0.00000   -0.00438    0.00000
O8    5    1.024123    0.250000    0.210076    10.50000    0.04558    0.03067 =
         0.02069    0.00000    0.00915    0.00000
O9    5    1.163184    0.349492    0.020564    11.00000    0.03587    0.03093 =
         0.02793    0.00234    0.00702   -0.00975
HKLF 4
REM  190924_a.res in P2(1)/m
REM wR2 = 0.0942, GooF = S = 1.116, Restrained GooF = 1.116 for all data
REM R1 = 0.0347 for 1136 Fo > 4sig(Fo) and 0.0362 for all 1217 data
REM 108 parameters refined using 0 restraints
END
WGHT      0.0523      0.1864
REM Highest difference peak  0.265,  deepest hole -0.753,  1-sigma level  0.140
Q1    1   1.0952  0.4578 -0.0623  11.00000  0.05    0.27
Q2    1   0.9187  0.4189  0.0857  11.00000  0.05    0.26
Q3    1   0.6044  0.7103  0.7623  11.00000  0.05    0.25
Q4    1   0.9640  0.5070  0.5634  11.00000  0.05    0.25
Q5    1   1.0262  0.5322  0.4650  11.00000  0.05    0.24
;
_shelx_res_checksum              69217
loop_
_space_group_symop_operation_xyz
'x, y, z'
'-x, y+1/2, -z'
'-x, -y, -z'
'x, -y-1/2, z'
loop_
_atom_site_type_symbol
_atom_site_label
_atom_site_fract_x
_atom_site_fract_y
_atom_site_fract_z
_atom_site_U_iso_or_equiv
_atom_site_adp_type
_atom_site_calc_flag
_atom_site_occupancy
_atom_site_disorder_assembly
_atom_site_disorder_group
Cl Cl10 0.85233(11) 0.750000 0.42804(6) 0.0232(2) Uani d 1 . .
O O11 0.8685(4) 0.750000 0.28056(18) 0.0319(5) Uani d 1 . .
O O12 0.5866(4) 0.750000 0.4563(2) 0.0416(5) Uani d 1 . .
O O13 0.9799(3) 0.65063(13) 0.48852(15) 0.0388(4) Uani d 1 . .
N N1 0.5121(3) 0.43779(14) 0.83520(17) 0.0277(4) Uani d 1 . .
H H1 0.477(5) 0.391(2) 0.888(3) 0.044(7) Uiso d 1 . .
N N2 0.3322(3) 0.51339(16) 0.7827(2) 0.0429(5) Uani d 1 . .
N N4 0.6962(3) 0.53346(15) 0.69127(17) 0.0297(4) Uani d 1 . .
H H4 0.808(6) 0.561(3) 0.648(3) 0.052(8) Uiso d 1 . .
C C3 0.4530(4) 0.57112(19) 0.6944(2) 0.0384(5) Uani d 1 . .
H H3 0.379350 0.631209 0.640211 0.046 Uiso calc 1 . .
C C5 0.7300(4) 0.44967(17) 0.7816(2) 0.0288(4) Uani d 1 . .
H H5 0.881871 0.406992 0.803017 0.035 Uiso calc 1 . .
Cl Cl6 1.03081(10) 0.250000 0.06220(5) 0.0209(2) Uani d 1 . .
O O7 0.7698(4) 0.250000 -0.0070(2) 0.0327(5) Uani d 1 . .
O O8 1.0241(4) 0.250000 0.21008(18) 0.0319(5) Uani d 1 . .
O O9 1.1632(3) 0.34949(12) 0.02056(13) 0.0313(3) Uani d 1 . .
loop_
_atom_site_aniso_label
_atom_site_aniso_U_11
_atom_site_aniso_U_22
_atom_site_aniso_U_33
_atom_site_aniso_U_12
_atom_site_aniso_U_13
_atom_site_aniso_U_23
Cl10 0.0243(3) 0.0267(3) 0.0191(3) 0.000 0.0053(2) 0.000
O11 0.0459(12) 0.0308(11) 0.0195(9) 0.000 0.0058(8) 0.000
O12 0.0244(10) 0.0558(15) 0.0464(12) 0.000 0.0116(9) 0.000
O13 0.0447(8) 0.0410(9) 0.0318(7) 0.0131(7) 0.0096(6) 0.0121(6)
N1 0.0313(8) 0.0227(8) 0.0304(8) -0.0006(7) 0.0089(7) 0.0045(7)
N2 0.0234(8) 0.0329(10) 0.0742(13) 0.0036(7) 0.0138(8) 0.0147(9)
N4 0.0288(8) 0.0331(9) 0.0286(8) -0.0067(7) 0.0093(7) 0.0019(7)
C3 0.0275(9) 0.0327(11) 0.0529(13) -0.0024(8) -0.0047(9) 0.0169(10)
C5 0.0232(9) 0.0276(10) 0.0356(10) 0.0017(7) 0.0036(7) -0.0011(8)
Cl6 0.0233(3) 0.0212(3) 0.0184(3) 0.000 0.0034(2) 0.000
O7 0.0242(9) 0.0308(11) 0.0416(11) 0.000 -0.0044(8) 0.000
O8 0.0456(12) 0.0307(11) 0.0207(9) 0.000 0.0091(8) 0.000
O9 0.0359(7) 0.0309(8) 0.0279(7) -0.0098(6) 0.0070(5) 0.0023(6)
loop_
_atom_type_symbol
_atom_type_description
_atom_type_scat_dispersion_real
_atom_type_scat_dispersion_imag
_atom_type_scat_source
C C 0.0181 0.0091 'International Tables Vol C Tables 4.2.6.8 and 6.1.1.4'
H H 0.0000 0.0000 'International Tables Vol C Tables 4.2.6.8 and 6.1.1.4'
Cl Cl 0.3639 0.7018 'International Tables Vol C Tables 4.2.6.8 and 6.1.1.4'
N N 0.0311 0.0180 'International Tables Vol C Tables 4.2.6.8 and 6.1.1.4'
O O 0.0492 0.0322 'International Tables Vol C Tables 4.2.6.8 and 6.1.1.4'
loop_
_geom_angle_atom_site_label_1
_geom_angle_atom_site_label_2
_geom_angle_atom_site_label_3
_geom_angle_site_symmetry_1
_geom_angle_site_symmetry_3
_geom_angle
_geom_angle_publ_flag
O11 Cl10 O13 . . 109.15(8) ?
O11 Cl10 O13 . 4_575 109.15(8) ?
O12 Cl10 O11 . . 110.38(13) ?
O12 Cl10 O13 . . 109.38(8) ?
O12 Cl10 O13 . 4_575 109.38(8) ?
O13 Cl10 O13 . 4_575 109.40(14) ?
N2 N1 H1 . . 120(2) ?
C5 N1 H1 . . 127(2) ?
C5 N1 N2 . . 111.94(17) ?
C3 N2 N1 . . 103.41(17) ?
C3 N4 H4 . . 127(2) ?
C5 N4 H4 . . 126(2) ?
C5 N4 C3 . . 107.08(16) ?
N2 C3 N4 . . 111.04(19) ?
N2 C3 H3 . . 124.5 ?
N4 C3 H3 . . 124.5 ?
N1 C5 N4 . . 106.52(17) ?
N1 C5 H5 . . 126.7 ?
N4 C5 H5 . . 126.7 ?
O8 Cl6 O7 . . 109.84(12) ?
O8 Cl6 O9 . 4_565 109.92(7) ?
O8 Cl6 O9 . . 109.92(7) ?
O9 Cl6 O7 4_565 . 108.77(8) ?
O9 Cl6 O7 . . 108.77(7) ?
O9 Cl6 O9 4_565 . 109.60(12) ?
loop_
_geom_bond_atom_site_label_1
_geom_bond_atom_site_label_2
_geom_bond_site_symmetry_2
_geom_bond_distance
_geom_bond_publ_flag
Cl10 O11 . 1.4341(18) ?
Cl10 O12 . 1.433(2) ?
Cl10 O13 4_575 1.4428(15) ?
Cl10 O13 . 1.4428(15) ?
N1 H1 . 0.78(3) ?
N1 N2 . 1.352(2) ?
N1 C5 . 1.299(2) ?
N2 C3 . 1.303(3) ?
N4 H4 . 0.82(3) ?
N4 C3 . 1.341(3) ?
N4 C5 . 1.321(3) ?
C3 H3 . 0.9400 ?
C5 H5 . 0.9400 ?
Cl6 O7 . 1.4438(19) ?
Cl6 O8 . 1.4305(18) ?
Cl6 O9 . 1.4428(14) ?
Cl6 O9 4_565 1.4427(14) ?
loop_
_geom_hbond_atom_site_label_D
_geom_hbond_atom_site_label_H
_geom_hbond_atom_site_label_A
_geom_hbond_site_symmetry_A
_geom_hbond_distance_DH
_geom_hbond_distance_HA
_geom_hbond_distance_DA
_geom_hbond_angle_DHA
_geom_hbond_publ_flag
N4 H4 O13 . 0.818 2.141 2.921 159.61 yes
N1 H1 O9 . 0.787 2.230 2.874 139.46 yes
N H1 O7 . 0.787 2.407 2.936 125.59 yes
N4 H4 O8 . 0.818 2.719 3.049 106.14 yes
loop_
_geom_torsion_atom_site_label_1
_geom_torsion_atom_site_label_2
_geom_torsion_atom_site_label_3
_geom_torsion_atom_site_label_4
_geom_torsion_site_symmetry_1
_geom_torsion_site_symmetry_2
_geom_torsion_site_symmetry_3
_geom_torsion_site_symmetry_4
_geom_torsion
_geom_torsion_publ_flag
N1 N2 C3 N4 . . . . 0.2(3) ?
N2 N1 C5 N4 . . . . -0.5(2) ?
C3 N4 C5 N1 . . . . 0.6(2) ?
C5 N1 N2 C3 . . . . 0.2(3) ?
C5 N4 C3 N2 . . . . -0.5(3) ?
