#------------------------------------------------------------------------------
#$Date: 2022-04-27 04:43:06 +0300 (Wed, 27 Apr 2022) $
#$Revision: 274713 $
#$URL: file:///home/coder/svn-repositories/cod/cif/2/02/25/2022597.cif $
#------------------------------------------------------------------------------
#
# This file is available in the Crystallography Open Database (COD),
# http://www.crystallography.net/. The original data for this entry
# were provided by IUCr Journals, http://journals.iucr.org/.
#
# The file may be used within the scientific community so long as
# proper attribution is given to the journal article from which the
# data were obtained.
#
data_2022597
loop_
_publ_author_name
'Belhouas, Ratiba'
'Trifa, Chahrazed'
'Bouacida, Sofiane'
'Benmerad, Belkacem'
'Souici, Abdel Hafid'
'Boudaren, Chaouki'
'Merazig, Hocine'
_publ_section_title
;
 A new chiral rare-earth organic framework constructed by tartaric acid:
 synthesis, structural, thermal investigations and optical properties
;
_journal_coeditor_code           WP3026
_journal_issue                   5
_journal_name_full               'Acta Crystallographica Section C'
_journal_page_first              314
_journal_page_last               321
_journal_paper_doi               10.1107/S2053229622004302
_journal_volume                  78
_journal_year                    2022
_chemical_absolute_configuration unk
_chemical_formula_iupac          '[Ce (C4 H4 O6) (H2 O1)3] Cl'
_chemical_formula_moiety         'C4 H10 Ce O9 +, Cl -'
_chemical_formula_sum            'C4 H10 Ce Cl O9'
_chemical_formula_weight         377.69
_chemical_name_systematic
;
Poly[[triaqua(\m~4~-<i>L</i>-tartrato)cerium(III)] chloride]
;
_space_group_IT_number           4
_space_group_name_Hall           'P 2yb'
_space_group_name_H-M_alt        'P 1 21 1'
_symmetry_cell_setting           monoclinic
_symmetry_space_group_name_Hall  'P 2yb'
_symmetry_space_group_name_H-M   'P 1 21 1'
_atom_sites_solution_hydrogens   mixed
_audit_creation_method           'WinGX routine CIF_UPDATE'
_cell_angle_alpha                90
_cell_angle_beta                 97.8160(10)
_cell_angle_gamma                90
_cell_formula_units_Z            2
_cell_length_a                   5.90970(10)
_cell_length_b                   7.7974(2)
_cell_length_c                   11.7206(3)
_cell_measurement_reflns_used    9267
_cell_measurement_temperature    296(2)
_cell_measurement_theta_max      41.97
_cell_measurement_theta_min      3.15
_cell_volume                     535.07(2)
_computing_cell_refinement
;
APEX2 (Bruker, 2011)
;
_computing_data_collection
;
APEX2 (Bruker, 2011)
;
_computing_data_reduction
;
APEX2 (Bruker, 2011)
;
_computing_molecular_graphics
;
ORTEP-3 for Windows (Farrugia, 2012) and
DIAMOND (Brandenburg & Berndt, 2001)
;
_computing_publication_material
;
WinGX (Farrugia, 2012)
;
_computing_structure_refinement
;
SHELXL97 (Sheldrick, 2008)
;
_computing_structure_solution
;
SIR2002 (Burla <i>et al.</i>,  2005)
;
_diffrn_ambient_temperature      296(2)
_diffrn_detector                 'CCD plate'
_diffrn_measured_fraction_theta_full 0.989
_diffrn_measured_fraction_theta_max 0.992
_diffrn_measurement_device_type  'Bruker APEXII'
_diffrn_measurement_method       'CCD rotation images, thin slices'
_diffrn_radiation_monochromator  graphite
_diffrn_radiation_probe          x-ray
_diffrn_radiation_type           MoK\a
_diffrn_radiation_wavelength     0.71073
_diffrn_reflns_av_R_equivalents  0.0336
_diffrn_reflns_av_unetI/netI     0.0431
_diffrn_reflns_limit_h_max       7
_diffrn_reflns_limit_h_min       -7
_diffrn_reflns_limit_k_max       10
_diffrn_reflns_limit_k_min       -10
_diffrn_reflns_limit_l_max       15
_diffrn_reflns_limit_l_min       -15
_diffrn_reflns_number            8182
_diffrn_reflns_theta_full        25
_diffrn_reflns_theta_max         27.473
_diffrn_reflns_theta_min         3.147
_exptl_absorpt_coefficient_mu    4.531
_exptl_absorpt_correction_T_max  0.7499
_exptl_absorpt_correction_T_min  0.6086
_exptl_absorpt_correction_type   multi-scan
_exptl_absorpt_process_details
;
(SADABS; Sheldrick, 2002)
;
_exptl_crystal_colour            Colorless
_exptl_crystal_density_diffrn    2.344
_exptl_crystal_density_method    'not measured'
_exptl_crystal_description       prism
_exptl_crystal_F_000             362
_exptl_crystal_size_max          0.17
_exptl_crystal_size_mid          0.09
_exptl_crystal_size_min          0.07
_refine_diff_density_max         0.726
_refine_diff_density_min         -0.416
_refine_ls_abs_structure_details
;
Flack <i>x</i> determined using 1056 quotients [(I+)-(I-)]/[(I+)+(I-)]
(Parsons <i>et al.</i>,  2013)
;
_refine_ls_abs_structure_Flack   0.003(14)
_refine_ls_extinction_method     none
_refine_ls_goodness_of_fit_ref   1.044
_refine_ls_hydrogen_treatment    mixed
_refine_ls_matrix_type           full
_refine_ls_number_constraints    0
_refine_ls_number_parameters     162
_refine_ls_number_reflns         2403
_refine_ls_number_restraints     11
_refine_ls_restrained_S_all      1.042
_refine_ls_R_factor_all          0.0195
_refine_ls_R_factor_gt           0.0189
_refine_ls_shift/su_max          0.002
_refine_ls_shift/su_mean         0
_refine_ls_structure_factor_coef Fsqd
_refine_ls_weighting_details
'w=1/[\s^2^(Fo^2^)+(0.0034P)^2^+0.0910P] where P=(Fo^2^+2Fc^2^)/3'
_refine_ls_weighting_scheme      calc
_refine_ls_wR_factor_gt          0.0425
_refine_ls_wR_factor_ref         0.0428
_reflns_number_gt                2351
_reflns_number_total             2403
_reflns_threshold_expression     'I > 2\s(I)'
_cod_data_source_file            wp3026sup1.cif
_cod_data_source_block           TCH
_cod_original_sg_symbol_H-M      'P 21'
_cod_database_code               2022597
_shelx_hkl_file
;
   1   0   0  351.18   21.12
  -1   0   0  353.22   21.13
   1   0   0  341.54   21.12
   1   0   0  362.94   21.11
  -1   0   0  347.25   21.16
  -1   0   0  356.93   21.14
   2   0   0   -0.05    0.07
  -2   0   0    0.22    0.12
  -2   0   0    0.11    0.11
   2   0   0    0.19    0.09
  -2   0   0   -0.10    0.08
  -3   0   0    1.29    0.16
  -3   0   0    0.83    0.17
  -3   0   0    1.26    0.20
   3   0   0    0.88    0.17
  -4   0   0   74.99    4.61
   4   0   0   75.23    4.66
  -4   0   0   75.54    4.65
  -4   0   0   77.97    4.68
  -4   0   0   75.51    4.68
  -5   0   0  108.41    6.43
  -5   0   0  101.97    6.39
  -5   0   0  104.77    6.41
   5   0   0  102.16    6.40
  -5   0   0  104.40    6.43
  -6   0   0   20.57    1.42
  -6   0   0   19.03    1.45
  -6   0   0   19.92    1.46
   6   0   0   21.33    1.43
  -6   0   0   20.61    1.45
  -7   0   0   29.95    2.17
  -7   0   0   32.09    2.15
  -7   0   0   33.25    2.21
  -7   0   0   34.19    2.23
   7   0   0   31.57    2.15
  -8   0   0   30.83    2.16
  -8   0   0   28.26    2.12
  -8   0   0   31.49    2.16
  -9   0   0   10.19    1.04
  -9   0   0    9.73    1.07
  -9   0   0   10.07    1.22
 -10   0   0    5.33    0.85
 -10   0   0    4.84    0.79
 -11   0   0    0.03    0.45
 -11   0   0    0.19    0.44
 -12   0   0    2.86    0.64
 -12   0   0    1.16    0.50
   0  -1   0   -0.32    0.05
   0  -1   0   -0.40    0.05
   0   1   0   -0.46    0.05
   0   1   0   -0.34    0.05
  -1  -1   0  209.51   12.64
   1  -1   0  209.29   12.65
   1  -1   0  211.21   12.64
   1  -1   0  199.96   12.64
  -1  -1   0  206.95   12.64
   1   1   0  225.80   12.65
  -2  -1   0  358.58   21.18
  -2  -1   0  367.37   21.17
  -2  -1   0  363.10   21.17
   2  -1   0  352.22   21.17
   2  -1   0  354.28   21.19
  -2   1   0  342.04   21.17
  -2   1   0  330.34   21.18
  -3  -1   0  236.00   14.28
   3  -1   0  245.28   14.21
  -3  -1   0  241.29   14.26
  -3  -1   0  246.13   14.26
   3  -1   0  234.84   14.28
  -3   1   0  223.72   14.28
  -3   1   0  230.03   14.26
  -4  -1   0    3.58    0.27
  -4  -1   0    3.45    0.35
  -4  -1   0    3.59    0.36
  -4  -1   0    3.88    0.42
   4  -1   0    3.43    0.27
   4  -1   0    4.28    0.39
  -4  -1   0    3.45    0.38
  -4   1   0    3.65    0.40
   4   1   0    2.80    0.33
  -4   1   0    3.30    0.35
  -4   1   0    2.65    0.35
   5  -1   0   46.74    2.85
  -5  -1   0   44.75    2.86
  -5  -1   0   46.84    2.82
  -5  -1   0   46.73    2.79
  -5  -1   0   45.40    2.85
  -5  -1   0   45.24    2.85
  -5   1   0   43.85    2.83
   5   1   0   43.24    2.81
  -5   1   0   42.82    2.83
  -5   1   0   41.78    2.81
  -5   1   0   42.62    2.85
  -6  -1   0   73.01    4.80
  -6  -1   0   74.97    4.79
   6  -1   0   77.09    4.80
  -6  -1   0   76.04    4.82
  -6  -1   0   75.88    4.76
  -6   1   0   77.71    4.79
   6   1   0   76.70    4.76
  -6   1   0   79.45    4.80
  -6   1   0   77.82    4.82
  -7  -1   0   43.81    2.65
   7  -1   0   37.96    2.59
  -7  -1   0   39.70    2.63
  -7  -1   0   40.13    2.58
  -7  -1   0   40.76    2.65
  -7   1   0   37.12    2.60
  -7   1   0   37.77    2.60
   7   1   0   38.54    2.55
  -7   1   0   37.53    2.62
  -8  -1   0    8.04    0.86
  -8  -1   0    8.97    0.84
  -8  -1   0    7.86    0.91
  -8   1   0    4.82    0.74
  -8   1   0    7.23    0.84
  -8   1   0    5.90    0.80
  -9  -1   0    0.42    0.34
  -9  -1   0    0.64    0.48
  -9  -1   0    0.97    0.45
  -9   1   0    1.45    0.49
  -9   1   0    1.24    0.41
 -10  -1   0    8.31    1.04
 -10  -1   0    6.54    0.94
 -10   1   0    6.44    0.90
 -10   1   0    9.22    0.99
 -11  -1   0    4.67    0.81
 -11  -1   0    3.98    0.74
 -11   1   0    5.80    0.83
 -11   1   0    4.61    0.79
 -12  -1   0    1.03    0.49
 -12  -1   0    0.51    0.48
 -12   1   0   -0.02    0.37
   0  -2   0  377.43   22.67
   0  -2   0  382.33   22.70
   0   2   0  369.56   22.67
   0   2   0  381.07   22.69
   1  -2   0  216.58   13.13
  -1  -2   0  214.68   13.12
   1  -2   0  219.03   13.09
  -1   2   0  219.88   13.13
  -1   2   0  220.99   13.09
  -2  -2   0   77.27    4.72
  -2  -2   0   77.76    4.72
   2  -2   0   76.96    4.70
  -3  -2   0   64.67    3.96
  -3  -2   0   65.51    3.98
   3  -2   0   65.88    4.00
  -3  -2   0   64.55    3.96
  -3  -2   0   63.43    3.97
  -3   2   0   64.08    3.99
   4  -2   0   83.47    5.05
  -4  -2   0   84.53    5.01
  -4  -2   0   79.92    4.96
  -4  -2   0   82.33    5.02
  -4  -2   0   83.71    5.04
  -4  -2   0   83.00    5.00
  -4   2   0   73.97    5.02
   5  -2   0  154.74    9.52
  -5  -2   0  150.88    9.47
  -5  -2   0  159.73    9.53
  -5  -2   0  153.90    9.51
  -5  -2   0  156.82    9.51
  -5  -2   0  155.21    9.47
  -5  -2   0  158.75    9.41
   5   2   0  156.78    9.45
  -5   2   0  162.37    9.49
  -5   2   0  152.77    9.50
  -5   2   0  151.80    9.52
  -6  -2   0    4.88    0.36
  -6  -2   0    5.32    0.56
  -6  -2   0    4.71    0.50
  -6  -2   0    4.64    0.61
  -6  -2   0    5.90    0.67
   6  -2   0    4.93    0.58
  -6  -2   0    4.30    0.56
  -6   2   0    3.48    0.54
  -6   2   0    5.24    0.56
   6   2   0    4.44    0.47
  -6   2   0    4.74    0.56
  -7  -2   0   12.42    0.99
   7  -2   0   11.19    0.95
  -7  -2   0   11.46    0.99
  -7  -2   0   10.67    0.90
  -7  -2   0    9.06    0.97
  -7   2   0   10.62    0.93
  -7   2   0   11.09    0.93
  -8  -2   0   18.18    1.45
  -8  -2   0   21.16    1.57
  -8  -2   0   20.56    1.60
  -8  -2   0   20.33    1.54
  -8   2   0   20.49    1.51
  -8   2   0   18.47    1.50
  -9  -2   0    9.58    1.11
  -9  -2   0   10.93    1.12
  -9   2   0   12.06    1.07
  -9   2   0   11.69    1.05
 -10  -2   0    3.05    0.67
 -10  -2   0    1.78    0.53
 -10   2   0    0.88    0.42
 -10   2   0    1.94    0.56
 -11  -2   0   -0.47    0.44
 -11  -2   0    0.05    0.53
 -11   2   0    0.39    0.45
 -12  -2   0    1.84    0.58
 -12  -2   0    1.93    0.59
   0  -3   0   -0.43    0.10
   0  -3   0   -0.38    0.09
   0   3   0   -0.30    0.10
  -1  -3   0   27.97    2.12
   1  -3   0   28.23    2.12
  -1   3   0   40.48    2.14
  -1   3   0   39.94    2.10
  -2  -3   0  332.65   20.09
   2  -3   0  335.03   20.10
   3  -3   0  197.11   12.18
  -3  -3   0  193.83   12.15
  -3  -3   0  205.91   12.17
  -3  -3   0  198.71   12.13
  -3  -3   0  194.81   12.15
  -3  -3   0  203.11   12.16
  -3   3   0  214.23   12.13
   4  -3   0    4.98    0.53
  -4  -3   0    4.38    0.45
  -4  -3   0    3.76    0.46
  -4  -3   0    4.60    0.45
  -4  -3   0    4.74    0.48
  -4  -3   0    5.58    0.57
  -4  -3   0    5.06    0.51
  -4   3   0    5.73    0.39
   5  -3   0   51.27    3.38
  -5  -3   0   52.08    3.32
  -5  -3   0   53.29    3.36
  -5  -3   0   54.04    3.30
  -5  -3   0   55.14    3.35
  -5  -3   0   53.49    3.39
  -5  -3   0   55.58    3.38
  -5   3   0   50.33    3.35
  -5   3   0   53.79    3.31
   5   3   0   51.00    3.27
  -6  -3   0   42.01    2.58
  -6  -3   0   40.69    2.65
   6  -3   0   42.65    2.73
  -6  -3   0   39.84    2.65
  -6  -3   0   40.02    2.73
  -6  -3   0   40.58    2.71
  -6  -3   0   39.36    2.69
  -6   3   0   41.77    2.69
   6   3   0   42.29    2.62
  -6   3   0   40.97    2.64
  -7  -3   0   26.81    1.91
   7  -3   0   27.20    1.89
  -7  -3   0   25.23    1.85
  -7  -3   0   27.32    1.64
  -7  -3   0   24.54    1.78
  -7  -3   0   26.74    1.89
  -7   3   0   25.04    1.80
  -7   3   0   25.57    1.84
  -8  -3   0    5.67    0.81
  -8  -3   0    6.09    0.69
  -8  -3   0    7.70    0.80
  -8  -3   0    6.34    0.80
  -8   3   0    6.67    0.77
  -8   3   0    4.78    0.68
  -9  -3   0    1.66    0.54
  -9  -3   0    1.12    0.54
  -9   3   0    1.17    0.41
  -9   3   0    1.03    0.47
 -10  -3   0    3.86    0.78
 -10  -3   0    6.84    0.98
 -10   3   0    5.19    0.79
 -11  -3   0    4.77    0.86
 -11  -3   0    4.34    0.81
 -11   3   0    4.66    0.75
 -12  -3   0    0.85    0.52
 -12  -3   0    0.98    0.51
   0  -4   0  303.35   17.77
   0  -4   0  297.95   17.77
   0   4   0  284.45   17.76
   1  -4   0   65.64    3.87
   1  -4   0   67.04    3.84
  -1  -4   0   65.70    3.88
  -1   4   0   61.48    3.89
  -1   4   0   58.79    3.86
   1   4   0   59.30    3.82
   2  -4   0    0.79    0.21
  -3  -4   0   87.72    5.54
  -3  -4   0   85.99    5.51
  -3  -4   0   99.13    5.56
  -3  -4   0   89.62    5.55
   3  -4   0   87.74    5.56
  -3  -4   0   88.00    5.53
  -3   4   0   92.54    5.51
  -4  -4   0  150.51    9.46
  -4  -4   0  150.04    9.42
  -4  -4   0  154.29    9.48
  -4  -4   0  149.52    9.47
   4  -4   0  152.64    9.50
  -4   4   0  162.57    9.41
  -4   4   0  168.29    9.48
  -5  -4   0   62.24    3.94
  -5  -4   0   61.20    3.96
   5  -4   0   62.47    3.99
  -5  -4   0   61.36    3.94
  -5  -4   0   61.06    3.89
  -5  -4   0   67.19    3.92
  -5  -4   0   64.28    3.97
  -5   4   0   61.12    3.82
  -5   4   0   62.67    3.90
  -5   4   0   61.50    3.93
   5   4   0   62.27    3.83
   6  -4   0   10.24    0.95
  -6  -4   0   10.88    0.92
  -6  -4   0   10.95    0.91
  -6  -4   0   10.88    0.96
  -6  -4   0   11.28    0.97
  -6  -4   0   10.52    0.83
  -6  -4   0    9.97    0.85
  -6   4   0   11.87    0.92
  -7  -4   0    8.71    0.67
  -7  -4   0    9.64    0.92
  -7  -4   0    7.68    0.78
  -7  -4   0    8.04    0.80
  -7  -4   0    8.75    0.90
  -7  -4   0    9.67    1.03
  -7   4   0    7.73    0.85
  -8  -4   0   14.41    1.34
  -8  -4   0   16.27    1.30
  -8  -4   0   16.45    1.23
  -8  -4   0   16.50    1.40
  -8   4   0   15.31    1.27
  -9  -4   0    8.13    1.06
  -9  -4   0   10.60    1.20
  -9   4   0    8.48    0.99
 -10  -4   0    2.19    0.74
 -10  -4   0    2.00    0.68
 -10   4   0    1.92    0.56
 -11  -4   0    0.75    0.64
 -11  -4   0   -0.01    0.44
 -11   4   0    0.53    0.43
 -12  -4   0    1.40    0.45
   0  -5   0   -0.24    0.13
   0  -5   0   -0.12    0.12
   0   5   0   -0.33    0.14
   0   5   0   -0.18    0.09
   1  -5   0   46.28    3.03
   1  -5   0   47.94    3.06
  -1  -5   0   46.11    3.07
  -1  -5   0   45.59    3.10
  -1   5   0   50.03    3.06
  -1   5   0   56.20    3.12
   1   5   0   51.95    3.02
  -2  -5   0  177.22   11.74
   2  -5   0  195.17   11.73
   2  -5   0  194.08   11.64
  -2  -5   0  195.67   11.73
  -2   5   0  200.66   11.74
   2   5   0  197.13   11.64
  -3  -5   0  160.53   10.54
  -3  -5   0  176.09   10.54
  -3  -5   0  174.81   10.51
   3  -5   0  173.04   10.55
  -3  -5   0  169.23   10.50
  -3   5   0  174.54   10.52
   3   5   0  177.09   10.41
  -3   5   0  179.51   10.54
   4  -5   0    0.78    0.29
  -4  -5   0    1.51    0.35
  -4  -5   0    1.37    0.32
  -4  -5   0    1.01    0.33
  -4  -5   0    0.90    0.31
  -4  -5   0    1.35    0.30
  -4  -5   0    1.32    0.24
  -4   5   0    1.94    0.19
  -4   5   0    1.76    0.20
  -4   5   0    2.32    0.33
  -4   5   0    1.78    0.34
  -5  -5   0   15.95    1.24
  -5  -5   0   16.21    1.26
   5  -5   0   17.85    1.29
  -5  -5   0   15.76    1.24
  -5  -5   0   15.27    1.20
  -5  -5   0   15.85    1.16
  -5  -5   0   18.47    1.23
  -5   5   0   17.19    1.13
  -5   5   0   16.25    1.22
   6  -5   0   34.94    2.41
  -6  -5   0   37.38    2.38
  -6  -5   0   34.00    2.40
  -6  -5   0   35.42    2.35
  -6  -5   0   34.62    2.29
  -6  -5   0   33.26    2.31
  -6  -5   0   32.67    2.38
  -6   5   0   36.44    2.37
  -6   5   0   36.26    2.18
  -7  -5   0   14.47    1.21
  -7  -5   0   13.75    1.28
  -7  -5   0   16.25    1.14
  -7  -5   0   15.52    1.16
  -7  -5   0   14.45    1.28
  -7  -5   0   16.48    1.24
  -7   5   0   14.45    1.20
  -8  -5   0    2.42    0.63
  -8  -5   0    1.90    0.48
  -8  -5   0    1.75    0.38
  -8  -5   0    1.91    0.31
  -8  -5   0    2.05    0.67
  -8   5   0    2.15    0.48
  -9  -5   0    0.09    0.46
  -9  -5   0    1.22    0.58
  -9   5   0    0.20    0.35
 -10  -5   0    6.20    1.00
 -10  -5   0    7.74    1.06
 -10   5   0    6.36    0.86
 -11  -5   0    4.10    0.79
 -12  -5   0    1.00    0.57
   0  -6   0  232.04   13.18
   0  -6   0  222.41   13.16
   0  -6   0  209.69   13.24
   0   6   0  202.32   13.23
   0   6   0  222.35   13.16
   1  -6   0   89.80    5.33
   1  -6   0   85.03    5.36
  -1  -6   0   85.79    5.37
  -1  -6   0   81.23    5.41
   1   6   0   89.50    5.43
   1   6   0   88.50    5.30
  -1   6   0   91.44    5.36
  -1   6   0   84.98    5.41
   2  -6   0    4.31    0.50
  -2  -6   0    5.33    0.59
  -2  -6   0    4.99    0.46
  -2  -6   0    5.77    0.56
   2  -6   0    4.74    0.42
   2   6   0    5.92    0.58
   2   6   0    6.22    0.41
  -2   6   0    5.20    0.58
  -3  -6   0   26.72    1.77
   3  -6   0   26.32    1.82
  -3  -6   0   26.25    1.77
  -3  -6   0   26.55    1.83
   3   6   0   28.77    1.66
  -3   6   0   27.25    1.84
  -3   6   0   25.16    1.80
  -4  -6   0   49.94    3.33
  -4  -6   0   48.27    3.33
  -4  -6   0   52.18    3.24
  -4  -6   0   49.92    3.28
  -4  -6   0   49.54    3.29
   4  -6   0   52.10    3.35
  -4   6   0   54.78    3.19
  -4   6   0   53.42    3.33
  -4   6   0   54.78    3.30
  -5  -6   0   44.75    2.88
  -5  -6   0   46.28    2.94
  -5  -6   0   44.60    2.83
   5  -6   0   45.32    2.96
  -5  -6   0   43.74    2.91
  -5  -6   0   44.64    2.92
  -5   6   0   44.04    2.83
  -5   6   0   42.41    2.89
  -6  -6   0    7.14    0.70
  -6  -6   0    7.92    0.85
  -6  -6   0    8.30    0.89
  -6  -6   0    6.46    0.70
  -6  -6   0    7.71    0.79
  -6  -6   0    6.99    0.64
  -6   6   0    5.86    0.73
  -6   6   0    5.43    0.55
  -7  -6   0    6.11    0.80
  -7  -6   0    5.75    0.64
  -7  -6   0    6.09    0.68
  -7  -6   0    6.36    0.77
  -7  -6   0    7.03    0.74
  -7  -6   0    6.06    0.85
  -7   6   0    7.23    0.80
  -8  -6   0   14.20    1.37
  -8  -6   0   15.60    1.42
  -8  -6   0   15.32    1.13
  -8  -6   0   14.80    1.26
  -8   6   0   15.10    1.28
  -9  -6   0    8.57    1.14
  -9   6   0   10.42    1.09
 -10  -6   0    0.53    0.59
 -10   6   0    0.29    0.38
 -11  -6   0    0.07    0.40
   0  -7   0    0.06    0.14
   0  -7   0   -0.17    0.16
   0  -7   0   -0.27    0.21
   0   7   0   -0.20    0.22
   0   7   0   -0.04    0.12
  -1  -7   0   58.53    3.82
   1  -7   0   61.39    3.81
   1  -7   0   58.92    3.77
   1  -7   0   58.16    3.86
   1   7   0   65.63    3.75
  -1   7   0   65.67    3.90
   1   7   0   56.35    3.87
  -2  -7   0   94.21    5.66
  -2  -7   0   82.10    5.78
   2  -7   0   94.98    5.64
  -2  -7   0   98.59    5.76
   2  -7   0   90.24    5.73
  -2   7   0   86.11    5.76
   2   7   0  101.50    5.82
   3  -7   0   37.05    2.49
  -3  -7   0   35.74    2.50
  -3  -7   0   37.99    2.44
  -3  -7   0   36.81    2.43
  -3  -7   0   40.44    2.56
  -3   7   0   38.30    2.52
  -3   7   0   37.80    2.50
  -4  -7   0    4.42    0.56
   4  -7   0    4.52    0.58
  -4  -7   0    4.92    0.64
  -4  -7   0    5.10    0.63
  -4  -7   0    4.30    0.52
  -4   7   0    4.90    0.60
  -4   7   0    4.79    0.59
  -5  -7   0   16.76    1.13
  -5  -7   0   15.61    1.22
  -5  -7   0   16.00    1.28
  -5  -7   0   15.54    1.27
  -5  -7   0   15.18    1.18
  -5   7   0   14.02    1.14
  -5   7   0   16.15    1.22
  -6  -7   0   33.57    2.30
  -6  -7   0   33.53    2.42
  -6  -7   0   33.63    2.41
  -6  -7   0   33.47    2.36
  -6  -7   0   34.94    2.42
  -6   7   0   38.95    2.29
  -6   7   0   35.47    2.41
  -7  -7   0   16.66    1.36
  -7  -7   0   17.45    1.42
  -7  -7   0   17.43    1.47
  -7  -7   0   16.24    1.35
  -7   7   0   19.10    1.41
  -8  -7   0    1.30    0.54
  -8  -7   0    2.06    0.42
  -8   7   0    1.40    0.42
  -9  -7   0    1.01    0.60
 -10  -7   0    3.16    0.71
 -11  -7   0    3.18    0.76
   0  -8   0  140.09    9.29
   0  -8   0  150.56    9.20
   0   8   0  161.58    9.33
  -1  -8   0   53.44    3.35
   1  -8   0   51.09    3.31
  -1  -8   0   53.00    3.43
   1  -8   0   50.40    3.40
   1  -8   0   52.23    3.28
  -1   8   0   49.87    3.41
   1   8   0   55.23    3.44
   2  -8   0    3.87    0.39
  -2  -8   0    4.14    0.55
  -2  -8   0    3.31    0.59
   2  -8   0    3.16    0.47
  -2   8   0    2.79    0.52
   2   8   0    4.54    0.62
  -3  -8   0   22.77    1.55
  -3  -8   0   24.99    1.72
   3  -8   0   23.14    1.62
  -3  -8   0   22.77    1.54
  -3  -8   0   21.88    1.63
  -3   8   0   22.12    1.65
  -3   8   0   19.47    1.63
  -4  -8   0   42.99    2.91
  -4  -8   0   43.74    2.83
   4  -8   0   42.66    2.90
  -4  -8   0   44.89    2.83
  -4  -8   0   45.49    2.97
  -4   8   0   42.03    2.88
  -4   8   0   42.37    2.89
  -5  -8   0   46.66    3.00
  -5  -8   0   45.96    3.04
  -5  -8   0   42.13    2.92
  -5  -8   0   46.82    2.93
  -5  -8   0   42.84    2.84
  -5   8   0   41.93    2.90
  -5   8   0   43.53    2.74
  -5   8   0   46.50    2.97
  -6  -8   0    3.33    0.62
  -6  -8   0    3.43    0.62
  -6  -8   0    3.87    0.56
  -6  -8   0    3.96    0.64
  -6   8   0    4.33    0.53
  -6   8   0    3.85    0.62
  -7  -8   0    3.40    0.62
  -7  -8   0    3.66    0.62
  -7  -8   0    4.35    0.73
  -7  -8   0    3.23    0.56
  -7   8   0    3.94    0.62
  -7   8   0    4.61    0.48
  -8  -8   0   10.92    1.03
  -8  -8   0   11.73    1.19
  -8   8   0   12.08    1.12
  -9  -8   0    7.93    1.04
  -9  -8   0    7.48    0.76
 -10  -8   0    1.09    0.53
 -11  -8   0    0.13    0.44
   0  -9   0   -0.12    0.24
   0  -9   0   -0.31    0.20
   0   9   0   -0.28    0.31
   1  -9   0   41.76    2.71
  -1  -9   0   41.69    2.77
   1  -9   0   40.96    2.74
  -1  -9   0   42.25    2.89
  -1   9   0   43.10    2.88
   1   9   0   43.99    2.89
  -2  -9   0   62.90    4.24
  -2  -9   0   68.65    4.17
   2  -9   0   67.71    4.14
   2   9   0   61.23    4.22
  -2   9   0   63.48    4.22
  -3  -9   0   52.44    3.29
   3  -9   0   50.18    3.27
  -3  -9   0   55.89    3.40
  -3  -9   0   52.03    3.20
  -3   9   0   46.28    3.29
  -3   9   0   41.60    3.27
  -4  -9   0    1.93    0.42
  -4  -9   0    1.90    0.47
  -4  -9   0    2.42    0.43
  -4  -9   0    2.53    0.58
  -4   9   0    2.44    0.50
  -4   9   0    2.33    0.50
  -5  -9   0    8.63    0.85
  -5  -9   0    9.44    1.00
  -5  -9   0    8.35    0.82
  -5  -9   0   10.68    1.04
  -5   9   0    8.79    0.86
  -5   9   0    8.12    0.67
  -5   9   0    7.91    0.92
  -6  -9   0   23.45    1.90
  -6  -9   0   26.89    1.95
  -6  -9   0   25.46    1.98
  -6  -9   0   26.49    1.98
  -6   9   0   25.68    1.92
  -6   9   0   27.43    1.84
  -7  -9   0   15.67    1.38
  -7  -9   0   14.96    1.38
  -7   9   0   17.12    1.36
  -8  -9   0    2.50    0.55
  -8  -9   0    1.35    0.57
  -8   9   0    1.93    0.51
  -9  -9   0    0.27    0.47
  -9  -9   0    0.41    0.31
 -10  -9   0    0.97    0.51
   0 -10   0   80.46    4.89
   0 -10   0   71.76    5.01
   0  10   0   80.14    5.06
  -1 -10   0   30.41    2.08
  -1 -10   0   30.30    2.22
   1 -10   0   29.50    2.01
   1  10   0   29.96    2.22
  -1  10   0   29.82    2.23
  -2 -10   0    3.51    0.56
   2 -10   0    3.05    0.48
  -2 -10   0    3.23    0.65
   2  10   0    4.37    0.71
  -2  10   0    3.15    0.66
  -3 -10   0   11.02    1.13
  -3 -10   0   12.01    1.04
  -3 -10   0   11.11    0.92
  -3  10   0    9.87    1.08
  -3  10   0   10.67    1.16
  -4 -10   0   31.66    2.43
  -4 -10   0   34.51    2.35
  -4  10   0   30.09    2.30
  -4  10   0   34.37    2.36
  -5 -10   0   14.53    1.25
  -5 -10   0   14.14    1.39
  -5 -10   0   15.44    1.32
  -5  10   0   15.34    1.29
  -5  10   0   14.34    1.26
  -5  10   0   14.91    1.05
  -6 -10   0    2.46    0.55
  -6 -10   0    2.63    0.68
  -6  10   0    2.57    0.49
  -6  10   0    2.66    0.58
  -7 -10   0    2.20    0.65
  -7 -10   0    2.47    0.61
  -7  10   0    3.20    0.49
  -8 -10   0    8.07    1.03
  -8 -10   0    8.76    1.02
  -9 -10   0    4.44    0.63
  -9 -10   0    4.95    0.79
 -10 -10   0    0.68    0.39
   0 -11   0   -0.19    0.22
   0 -11   0   -0.13    0.38
   0  11   0   -0.06    0.42
  -1 -11   0    6.74    0.97
  -1 -11   0    5.74    0.76
  -1  11   0    6.75    0.94
   1  11   0    8.13    1.03
  -2 -11   0   39.25    2.93
  -2 -11   0   40.78    2.78
   2  11   0   41.50    2.94
  -2  11   0   41.87    2.93
  -3 -11   0   26.23    1.89
  -3 -11   0   23.34    2.00
  -3  11   0   24.69    1.95
  -3  11   0   24.62    1.91
  -4 -11   0   -0.16    0.37
  -4 -11   0    0.45    0.33
  -4  11   0    0.31    0.35
  -4  11   0    0.26    0.43
  -5 -11   0    6.32    0.99
  -5  11   0    6.49    0.86
  -5  11   0    5.82    0.59
  -5  11   0    5.92    0.85
  -6 -11   0   11.05    1.29
  -6  11   0    9.09    0.97
  -7 -11   0    5.63    0.92
  -7  11   0    6.23    0.72
  -7  11   0    5.53    0.83
  -8 -11   0    1.23    0.50
  -8 -11   0    1.67    0.51
  -9 -11   0   -0.05    0.38
  -9 -11   0    0.78    0.39
   0  12   0   20.42    1.78
  -1 -12   0   16.53    1.57
   1  12   0   17.23    1.60
  -1  12   0   18.45    1.63
  -2 -12   0    0.81    0.39
  -2 -12   0    0.63    0.55
  -2  12   0    0.80    0.46
   2  12   0    1.49    0.59
  -3 -12   0    7.98    0.93
  -3 -12   0    7.78    1.09
  -3  12   0    7.00    1.03
  -3  12   0    8.71    1.04
  -4 -12   0   11.68    1.50
  -4  12   0   16.33    1.43
  -4  12   0   15.25    1.36
  -4  12   0   16.65    1.22
  -5 -12   0   10.60    1.30
  -5  12   0    9.60    1.12
  -5  12   0   11.13    1.21
  -5  12   0    9.63    0.81
  -6 -12   0    1.41    0.63
  -6  12   0    0.64    0.44
  -6  12   0    0.97    0.47
  -7 -12   0    0.61    0.54
  -7  12   0    1.53    0.42
  -8 -12   0    3.21    0.65
   0  13   0   -0.06    0.48
  -1 -13   0    5.08    0.92
  -1  13   0    4.85    0.96
   1  13   0    5.56    0.93
  -2 -13   0   18.07    1.72
  -2  13   0   18.14    1.65
  -2  13   0   19.89    1.76
  -3 -13   0   13.61    1.46
  -3  13   0   13.90    1.39
  -3  13   0   12.33    1.26
  -4 -13   0   -0.03    0.48
  -4  13   0   -0.40    0.34
  -4  13   0   -0.65    0.43
  -4  13   0   -0.08    0.31
  -5 -13   0    3.26    0.87
  -5  13   0    4.01    0.44
  -5  13   0    3.80    0.77
  -5  13   0    3.94    0.72
  -6 -13   0    5.31    0.96
  -6  13   0    4.32    0.72
  -7 -13   0    5.41    0.88
  -8 -13   0    0.61    0.47
   0  14   0   16.39    1.65
  -1 -14   0    4.71    0.93
  -1  14   0    4.74    0.92
   1  14   0    5.02    0.99
  -2 -14   0   -0.26    0.48
  -2  14   0    0.46    0.51
  -2  14   0    0.12    0.51
  -3 -14   0    3.45    0.84
  -3  14   0    3.63    0.85
  -3  14   0    4.48    0.81
  -4 -14   0    8.52    1.26
  -4  14   0    8.62    1.06
  -4  14   0    8.30    1.16
  -4  14   0   11.17    0.92
  -5 -14   0    5.18    0.97
  -5  14   0    7.27    1.00
  -6 -14   0    1.52    0.64
  -6  14   0    0.88    0.49
  -7 -14   0    0.92    0.54
   0  15   0    0.35    0.55
  -1  15   0    3.50    0.77
  -1  15   0    4.52    0.88
   1  15   0    3.87    0.86
  -2 -15   0   11.00    1.38
  -2  15   0    8.43    1.19
  -2  15   0   10.73    1.25
  -3 -15   0    6.47    1.06
  -3  15   0    4.96    0.93
  -3  15   0    4.89    0.81
  -3  15   0    5.28    0.73
  -4 -15   0    0.06    0.55
  -4  15   0    0.27    0.34
  -4  15   0   -0.48    0.41
  -4  15   0    0.16    0.47
  -5 -15   0    1.61    0.70
  -5  15   0    0.81    0.48
   0  16   0   11.88    1.45
  -1  16   0    4.51    0.85
   1  16   0    4.44    0.89
  -1  16   0    3.48    0.77
  -2 -16   0    0.00    0.59
  -2  16   0    0.00    0.35
  -2  16   0    0.25    0.54
  -2  16   0    0.29    0.42
  -3 -16   0    1.89    0.66
  -3  16   0    2.42    0.52
  -3  16   0    0.85    0.49
  -3  16   0    1.75    0.66
 -12   0   1   -0.01    0.45
 -12   0   1   -0.09    0.40
 -11   0   1    3.45    0.68
 -11   0   1    1.51    0.61
 -10   0   1   16.63    1.41
 -10   0   1   14.60    1.40
  -9   0   1    2.62    0.57
  -9   0   1    2.98    0.56
  -9   0   1    1.94    0.48
  -8   0   1   -0.24    0.34
  -8   0   1   -0.26    0.34
  -8   0   1    0.33    0.38
  -7   0   1   18.41    1.32
  -7   0   1   17.90    1.32
   7   0  -1   16.48    1.25
  -7   0   1   17.08    1.31
  -7   0   1   15.39    1.26
  -6   0   1   76.80    5.03
   6   0  -1   81.17    5.04
  -6   0   1   81.16    5.07
  -6   0   1   80.55    5.07
  -6   0   1   81.49    5.08
  -6   0   1   84.46    4.96
   5   0  -1   72.39    4.52
  -5   0   1   74.16    4.46
  -5   0   1   72.81    4.55
  -5   0   1   71.30    4.51
  -5   0   1   74.50    4.55
  -5   0   1   72.90    4.54
  -4   0   1   36.92    2.43
  -4   0   1   38.54    2.37
  -4   0   1   38.81    2.42
   4   0  -1   38.55    2.41
   3   0  -1  128.65    7.89
  -3   0   1  130.65    7.86
  -3   0   1  131.94    7.89
  -3   0   1  130.57    7.91
  -2   0   1  248.58   15.47
   2   0  -1  265.88   15.45
  -2   0   1  260.61   15.45
   2   0  -1  260.29   15.47
   2   0  -1  254.62   15.47
  -2   0   1  253.16   15.46
  -1   0   1  407.03   24.29
   1   0  -1  413.43   24.36
   1   0  -1  401.21   24.32
   1   0  -1  407.79   24.29
  -1   0   1  405.74   24.32
  -1   0   1  394.99   24.31
   0   0  -1   -0.27    0.05
  -1   0  -1   21.83    1.36
   1   0   1   21.53    1.36
  -1   0  -1   21.48    1.37
   1   0   1   22.45    1.36
  -2   0  -1   68.80    4.22
   2   0   1   67.45    4.20
   2   0   1   70.91    4.20
  -2   0  -1   69.20    4.21
  -3   0  -1  192.13   11.88
  -3   0  -1  201.39   11.87
  -4   0  -1   19.85    1.31
  -4   0  -1   18.80    1.30
  -4   0  -1   19.40    1.28
  -5   0  -1    8.01    0.71
  -5   0  -1    8.22    0.69
  -5   0  -1    7.66    0.68
   5   0   1    7.98    0.67
  -5   0  -1    9.07    0.68
  -6   0  -1   52.71    3.45
  -6   0  -1   56.26    3.46
  -6   0  -1   53.94    3.43
   6   0   1   52.77    3.42
   7   0   1   52.08    3.26
  -7   0  -1   50.21    3.29
  -7   0  -1   48.22    3.26
  -7   0  -1   50.87    3.30
  -8   0  -1   14.47    1.18
  -8   0  -1   13.00    1.12
  -8   0  -1   11.94    1.14
  -9   0  -1   -0.77    0.28
  -9   0  -1    0.72    0.41
 -10   0  -1    1.74    0.51
 -10   0  -1    2.13    0.63
 -11   0  -1    2.75    0.62
 -11   0  -1    3.47    0.68
 -12   0  -1    0.38    0.66
 -12   0  -1    1.53    0.48
 -12  -1   1    2.74    0.60
 -12  -1   1    2.60    0.63
 -12   1   1    2.89    0.67
 -11  -1   1    1.68    0.57
 -11  -1   1    1.87    0.53
 -11   1   1    1.55    0.54
 -11   1   1    1.04    0.51
 -10  -1   1    1.01    0.54
 -10  -1   1    2.08    0.65
 -10   1   1    2.07    0.52
 -10   1   1    1.10    0.51
  -9  -1   1   11.01    1.17
  -9  -1   1   10.90    1.17
  -9  -1   1   11.25    1.19
  -9   1   1   11.59    1.10
  -9   1   1    9.78    1.04
  -8  -1   1   24.17    1.79
  -8  -1   1   24.90    1.77
  -8  -1   1   26.47    1.78
  -8  -1   1   25.11    1.71
   8  -1  -1   23.74    1.70
  -8   1   1   22.13    1.75
  -8   1   1   21.53    1.72
  -8   1   1   21.28    1.72
  -7  -1   1   30.43    2.16
  -7  -1   1   32.65    2.18
   7  -1  -1   33.05    2.14
  -7  -1   1   32.69    2.17
  -7  -1   1   32.14    2.11
  -7   1   1   31.96    2.23
  -7   1   1   29.67    2.13
  -7   1   1   29.88    2.14
   7   1  -1   30.15    2.08
  -6  -1   1    4.56    0.44
  -6  -1   1    4.06    0.57
  -6  -1   1    4.42    0.50
  -6  -1   1    5.09    0.62
  -6  -1   1    5.40    0.59
   6  -1  -1    3.98    0.49
  -6   1   1    4.25    0.55
  -6   1   1    4.42    0.55
  -6   1   1    4.77    0.54
  -6   1   1    4.09    0.52
   6   1  -1    4.32    0.47
  -5  -1   1   67.40    4.44
  -5  -1   1   69.46    4.44
   5  -1  -1   68.00    4.43
  -5  -1   1   68.25    4.41
  -5  -1   1   70.54    4.38
  -5  -1   1   70.88    4.31
  -5  -1   1   67.32    4.44
  -5   1   1   72.19    4.42
  -5   1   1   78.06    4.44
   5   1  -1   72.74    4.40
  -5   1   1   75.73    4.46
  -5   1   1   75.31    4.46
  -4  -1   1  267.11   16.15
   4  -1  -1  257.10   16.23
  -4  -1   1  259.21   16.21
  -4  -1   1  262.89   16.19
  -4  -1   1  259.68   16.23
  -4  -1   1  261.80   16.23
  -4   1   1  282.62   16.23
  -4   1   1  270.70   16.24
   4   1  -1  269.10   16.20
  -4   1   1  274.99   16.15
   4   1  -1  296.16   16.18
  -4   1   1  263.43   16.21
  -3  -1   1   87.85    5.39
  -3  -1   1   86.62    5.40
  -3  -1   1   86.59    5.38
   3  -1  -1   88.43    5.41
  -3   1   1   90.26    5.34
   3   1  -1   89.48    5.37
  -3   1   1   89.05    5.39
  -3   1   1   88.79    5.40
   3   1  -1   89.76    5.37
   2  -1  -1   36.77    2.13
   2  -1  -1   36.13    2.15
  -2  -1   1   38.09    2.14
  -2  -1   1   37.31    2.15
  -2   1   1   32.18    2.14
  -2   1   1   32.42    2.13
  -2   1   1   33.20    2.09
   2   1  -1   32.07    2.11
  -2   1   1   32.82    2.15
  -1   1   1   -0.03    0.09
   1   1  -1    0.05    0.05
  -1   1   1   -0.10    0.10
  -1   1   1   -0.01    0.09
   1   1  -1    0.12    0.10
   0  -1   1  440.27   26.32
   0   1   1  438.23   26.35
   0   1  -1  437.17   26.36
  -1  -1  -1  635.16   37.85
  -1  -1  -1  589.63   37.79
  -1  -1  -1  620.32   37.77
   1   1   1  633.75   37.78
   1   1   1  667.01   37.77
  -2  -1  -1   64.25    4.00
  -2  -1  -1   64.84    4.01
  -2  -1  -1   64.55    4.01
   2  -1   1   65.50    3.97
   2   1   1   67.25    4.00
  -2   1  -1   63.89    4.02
   2   1   1   70.20    4.04
  -3  -1  -1   92.57    5.70
   3  -1   1   93.54    5.66
  -3  -1  -1   90.66    5.70
  -3  -1  -1   92.70    5.72
  -3   1  -1  100.19    5.73
  -4  -1  -1  124.03    7.27
  -4  -1  -1  121.23    7.32
  -4  -1  -1  118.71    7.33
  -4  -1  -1  124.51    7.36
   4  -1   1  116.99    7.36
  -4  -1  -1  123.60    7.37
  -4   1  -1  120.52    7.35
  -4   1  -1  115.08    7.36
  -5  -1  -1   77.35    4.83
   5  -1   1   78.10    4.87
  -5  -1  -1   76.90    4.86
  -5  -1  -1   77.36    4.85
  -5  -1  -1   75.67    4.87
  -5   1  -1   79.54    4.87
  -5   1  -1   80.65    4.86
  -5   1  -1   80.30    4.84
  -6  -1  -1   35.60    2.37
  -6  -1  -1   37.36    2.37
  -6  -1  -1   36.38    2.39
  -6  -1  -1   36.00    2.33
   6  -1   1   34.85    2.35
  -6   1  -1   35.38    2.34
   6   1   1   37.12    2.34
  -6   1  -1   34.41    2.35
  -6   1  -1   34.66    2.37
   7  -1   1   -0.13    0.17
  -7  -1  -1    0.17    0.31
  -7  -1  -1    0.35    0.31
  -7  -1  -1    0.56    0.25
  -7  -1  -1    0.13    0.22
  -7   1  -1    0.63    0.31
  -7   1  -1    0.21    0.31
  -7   1  -1    0.60    0.35
   7   1   1    0.36    0.22
  -8  -1  -1   13.16    1.13
  -8  -1  -1   13.12    1.17
  -8  -1  -1   14.42    1.18
  -8   1  -1   13.39    1.14
  -8   1  -1   12.50    1.10
  -9  -1  -1   11.74    1.13
  -9  -1  -1   10.62    1.22
  -9   1  -1   12.55    1.12
  -9   1  -1   13.13    1.14
 -10  -1  -1    5.83    0.87
 -10  -1  -1    4.63    0.77
 -10   1  -1    4.11    0.71
 -10   1  -1    3.68    0.70
 -11  -1  -1    0.24    0.50
 -11  -1  -1   -0.57    0.41
 -11   1  -1   -0.25    0.37
 -11   1  -1    0.42    0.41
 -12  -1  -1    0.28    0.46
 -12  -1  -1    0.32    0.48
 -12  -2   1    0.43    0.48
 -12  -2   1    0.11    0.52
 -12   2   1    0.08    0.40
 -11  -2   1    2.64    0.64
 -11  -2   1    4.66    0.83
 -11   2   1    3.46    0.68
 -10  -2   1   11.08    1.19
 -10  -2   1    8.57    1.12
 -10   2   1   10.17    1.11
 -10   2   1    7.47    0.97
  -9  -2   1   10.92    1.17
  -9  -2   1    8.17    1.04
  -9  -2   1   13.05    1.64
  -9   2   1    8.41    1.02
  -9   2   1    9.43    0.97
  -8  -2   1    1.56    0.45
  -8  -2   1    1.31    0.49
  -8  -2   1    1.59    0.44
  -8  -2   1    2.04    0.43
  -8   2   1    1.82    0.43
  -8   2   1    1.37    0.39
  -7  -2   1   23.14    1.72
  -7  -2   1   25.49    1.67
  -7  -2   1   23.92    1.63
  -7  -2   1   22.43    1.74
  -7  -2   1   25.09    1.75
   7  -2  -1   24.23    1.71
  -7   2   1   24.35    1.74
  -7   2   1   24.95    1.70
  -7   2   1   22.27    1.70
  -6  -2   1   44.80    2.93
  -6  -2   1   43.11    2.92
  -6  -2   1   46.36    2.87
   6  -2  -1   41.49    2.91
  -6  -2   1   44.74    2.77
  -6  -2   1   43.31    2.88
  -6  -2   1   45.51    2.94
  -6   2   1   45.90    2.93
  -6   2   1   47.46    2.90
  -6   2   1   47.73    2.94
   6   2  -1   44.98    2.84
  -5  -2   1   59.37    4.03
  -5  -2   1   62.09    4.08
  -5  -2   1   65.04    4.13
   5  -2  -1   65.48    4.13
  -5  -2   1   65.35    4.09
  -5  -2   1   62.29    4.13
  -5  -2   1   64.16    4.12
  -5   2   1   71.53    4.11
  -5   2   1   70.60    4.13
   5   2  -1   68.90    4.06
  -5   2   1   71.34    4.14
  -4  -2   1    0.24    0.19
  -4  -2   1    0.55    0.15
  -4  -2   1    0.55    0.19
  -4  -2   1    0.54    0.23
  -4  -2   1    0.52    0.18
  -4  -2   1    0.88    0.42
   4  -2  -1    0.46    0.18
  -4   2   1    0.14    0.17
  -4   2   1    0.39    0.17
  -4   2   1    0.63    0.12
   4   2  -1    0.44    0.13
  -3  -2   1   68.64    4.14
  -3  -2   1   68.25    4.12
   3  -2  -1   65.43    4.15
  -3  -2   1   64.31    4.12
  -3  -2   1   64.65    4.14
  -3   2   1   68.84    4.14
   3   2  -1   69.82    4.09
  -3   2   1   68.67    4.12
   2  -2  -1  675.90   39.63
  -2  -2   1  686.16   39.62
  -2  -2   1  659.81   39.61
   2  -2  -1  681.00   39.59
  -2   2   1  645.66   39.62
  -2   2   1  612.38   39.60
   1  -2  -1  379.99   23.16
  -1  -2   1  401.97   23.19
   1  -2  -1  390.78   23.16
   1  -2  -1  397.82   23.19
  -1   2   1  373.60   23.18
  -1   2   1  372.99   23.15
   0  -2   1    3.11    0.25
   0  -2  -1    2.70    0.26
   0  -2  -1    3.10    0.26
   0  -2   1    2.87    0.25
   0   2   1    1.75    0.25
   0   2  -1    1.86    0.24
   1  -2   1   68.61    4.15
  -1  -2  -1   68.97    4.15
   1  -2   1   66.46    4.11
   2  -2   1  357.06   21.93
  -2  -2  -1  372.27   21.95
  -2  -2  -1  370.89   21.92
  -2  -2  -1  370.15   21.94
   2  -2   1  361.68   21.96
   2  -2   1  358.61   21.88
  -3  -2  -1  197.52   11.70
  -3  -2  -1  198.06   11.71
  -3  -2  -1  200.54   11.68
  -3  -2  -1  179.72   11.68
   3  -2   1  193.42   11.73
  -4  -2  -1   60.14    3.82
   4  -2   1   61.82    3.91
  -4  -2  -1   64.57    3.89
  -4  -2  -1   63.11    3.86
  -4  -2  -1   63.28    3.86
  -5  -2  -1    5.51    0.51
  -5  -2  -1    4.17    0.52
  -5  -2  -1    4.71    0.52
  -5  -2  -1    4.47    0.54
  -5  -2  -1    4.56    0.39
  -5  -2  -1    4.90    0.48
   5  -2   1    4.81    0.53
  -5   2  -1    4.85    0.49
  -5   2  -1    4.90    0.49
  -6  -2  -1   48.17    3.16
   6  -2   1   46.11    3.17
  -6  -2  -1   46.49    3.18
  -6  -2  -1   47.31    3.11
  -6  -2  -1   49.57    3.17
  -6   2  -1   53.80    3.16
  -6   2  -1   48.99    3.13
   6   2   1   51.35    3.11
  -7  -2  -1   41.83    2.79
  -7  -2  -1   44.04    2.83
   7  -2   1   40.35    2.78
  -7  -2  -1   42.36    2.79
  -7  -2  -1   43.06    2.74
  -7   2  -1   40.21    2.74
  -7   2  -1   41.69    2.75
  -8  -2  -1    8.09    0.91
  -8  -2  -1   10.03    0.98
  -8  -2  -1    9.74    1.01
  -8   2  -1    8.12    0.90
  -8   2  -1    8.44    0.86
  -9  -2  -1    0.89    0.41
  -9  -2  -1    0.33    0.45
  -9   2  -1    0.34    0.36
  -9   2  -1    0.36    0.39
 -10  -2  -1    3.23    0.71
 -10  -2  -1    5.28    0.82
 -10   2  -1    4.34    0.70
 -10   2  -1    5.17    0.75
 -11  -2  -1    3.61    0.75
 -11  -2  -1    5.70    0.92
 -11   2  -1    5.82    0.83
 -12  -2  -1    2.70    0.60
 -12  -2  -1    1.30    0.57
 -12  -3   1    2.09    0.66
 -12  -3   1    1.88    0.55
 -12   3   1    1.25    0.52
 -11  -3   1    0.85    0.62
 -11  -3   1    2.10    0.64
 -11   3   1    1.11    0.50
 -10  -3   1    0.21    0.45
 -10  -3   1    0.32    0.56
 -10   3   1   -0.27    0.39
  -9  -3   1   14.09    1.32
  -9  -3   1   12.95    1.27
  -9   3   1   12.63    1.14
  -9   3   1   13.10    1.18
  -8  -3   1   25.94    1.93
  -8  -3   1   28.65    2.02
  -8  -3   1   26.48    1.98
  -8  -3   1   25.91    1.87
  -8   3   1   25.49    1.93
  -8   3   1   28.14    1.90
  -7  -3   1   16.65    1.28
  -7  -3   1   17.52    1.34
  -7  -3   1   16.43    1.37
  -7  -3   1   18.33    1.28
   7  -3  -1   17.15    1.35
  -7  -3   1   19.20    1.42
  -7  -3   1   18.00    1.14
  -7   3   1   16.06    1.28
  -7   3   1   17.51    1.35
  -6  -3   1    1.97    0.35
  -6  -3   1    2.06    0.29
  -6  -3   1    2.29    0.46
   6  -3  -1    1.86    0.39
  -6  -3   1    1.92    0.44
  -6  -3   1    2.62    0.38
  -6  -3   1    1.78    0.36
  -6   3   1    1.98    0.42
  -6   3   1    2.39    0.39
  -5  -3   1   53.00    3.43
  -5  -3   1   55.01    3.44
  -5  -3   1   54.69    3.40
  -5  -3   1   53.80    3.42
  -5  -3   1   53.27    3.38
  -5  -3   1   60.08    3.37
   5  -3  -1   55.04    3.45
  -5   3   1   49.76    3.28
   5   3  -1   53.07    3.32
  -5   3   1   53.15    3.36
  -5   3   1   52.85    3.47
  -4  -3   1  131.72    8.21
  -4  -3   1  119.26    8.20
  -4  -3   1  133.69    8.22
  -4  -3   1  131.31    8.18
   4  -3  -1  130.45    8.24
  -4  -3   1  139.39    8.19
  -4  -3   1  128.60    8.22
  -4   3   1  144.63    8.14
   4   3  -1  140.59    8.13
  -4   3   1  145.41    8.24
   3  -3  -1   89.65    5.25
  -3  -3   1   84.94    5.21
  -3  -3   1   88.25    5.22
  -3  -3   1   79.04    5.20
  -3  -3   1   86.44    5.22
  -3   3   1   82.93    5.18
   2  -3  -1   17.56    1.05
   2  -3  -1   16.08    1.10
  -2  -3   1   18.16    1.10
  -2   3   1   14.35    1.00
  -2   3   1   16.03    1.09
   1  -3  -1  157.06    9.27
   1  -3  -1  158.05    9.23
  -1  -3   1  153.73    9.27
   1   3  -1  151.50    9.21
  -1   3   1  150.98    9.27
  -1   3   1  149.03    9.23
   0  -3  -1  212.35   12.60
   0  -3  -1  207.37   12.60
   0  -3   1  207.00   12.60
   0  -3   1  214.28   12.59
   0   3   1  205.01   12.60
   1  -3   1  600.54   36.56
  -1  -3  -1  603.50   36.60
   1  -3   1  608.13   36.60
  -1   3  -1  626.69   36.56
   1   3   1  609.10   36.57
   2  -3   1   27.00    1.84
  -2  -3  -1   33.28    1.91
  -2  -3  -1   28.70    1.81
   2  -3   1   27.64    1.75
  -2  -3  -1   28.21    1.83
  -3  -3  -1   57.41    3.66
  -3  -3  -1   57.20    3.68
  -3  -3  -1   59.78    3.64
   3  -3   1   58.42    3.70
  -3  -3  -1   60.86    3.69
  -3  -3  -1   60.83    3.67
  -3   3  -1   60.65    3.64
  -4  -3  -1   89.17    5.34
  -4  -3  -1   84.19    5.29
  -4  -3  -1   85.35    5.32
  -4  -3  -1   89.46    5.35
  -4  -3  -1   78.09    5.29
   4  -3   1   85.57    5.35
  -4  -3  -1   87.02    5.32
  -4   3  -1   92.68    5.25
  -5  -3  -1   91.22    5.53
  -5  -3  -1   88.46    5.45
  -5  -3  -1   89.14    5.48
  -5  -3  -1   88.70    5.54
  -5  -3  -1   88.50    5.50
   5  -3   1   93.51    5.56
  -5  -3  -1   91.04    5.52
  -5   3  -1   81.73    5.48
  -5   3  -1   89.68    5.48
  -6  -3  -1   17.98    1.27
  -6  -3  -1   18.90    1.34
  -6  -3  -1   17.69    1.20
   6  -3   1   18.68    1.36
  -6  -3  -1   18.77    1.30
  -6  -3  -1   17.44    1.37
  -6  -3  -1   17.78    1.35
  -6   3  -1   18.15    1.28
   6   3   1   17.46    1.24
  -6   3  -1   18.53    1.31
  -7  -3  -1   -0.26    0.18
  -7  -3  -1    0.18    0.23
  -7  -3  -1    0.53    0.34
   7  -3   1    0.28    0.29
  -7  -3  -1    0.45    0.36
  -7   3  -1    0.57    0.32
  -7   3  -1    0.42    0.30
  -8  -3  -1   22.52    1.63
  -8  -3  -1   20.28    1.66
  -8  -3  -1   23.31    1.67
  -8  -3  -1   18.05    1.52
  -8   3  -1   20.85    1.57
  -8   3  -1   22.61    1.58
  -9  -3  -1   18.87    1.53
  -9  -3  -1   19.31    1.53
  -9   3  -1   18.72    1.48
  -9   3  -1   15.25    1.40
 -10  -3  -1    3.41    0.75
 -10  -3  -1    2.71    0.67
 -11  -3  -1    0.34    0.48
 -11  -3  -1    0.58    0.45
 -12  -3  -1    0.17    0.39
 -12  -4   1   -0.13    0.38
 -11  -4   1    2.54    0.73
 -11  -4   1    1.89    0.67
 -11   4   1    2.16    0.60
 -10  -4   1    8.13    1.12
 -10  -4   1    7.87    1.02
 -10   4   1    8.34    0.99
  -9  -4   1    6.43    0.95
  -9  -4   1    5.02    0.82
  -9   4   1    5.38    0.79
  -8  -4   1    0.42    0.28
  -8  -4   1    1.63    0.54
  -8  -4   1    1.16    0.52
  -8  -4   1    0.51    0.32
  -8   4   1    0.05    0.37
  -7  -4   1   31.71    2.16
  -7  -4   1   32.42    2.27
  -7  -4   1   28.56    2.20
  -7  -4   1   31.81    2.26
  -7  -4   1   34.14    2.09
  -7  -4   1   33.32    2.19
  -7   4   1   31.62    2.22
  -6  -4   1   50.74    3.33
  -6  -4   1   50.56    3.29
  -6  -4   1   49.92    3.25
  -6  -4   1   52.13    3.31
  -6  -4   1   49.97    3.23
   6  -4  -1   52.00    3.34
  -6  -4   1   51.44    3.34
  -6   4   1   52.43    3.31
  -5  -4   1   19.53    1.54
  -5  -4   1   24.97    1.63
   5  -4  -1   24.65    1.64
  -5  -4   1   22.19    1.54
  -5  -4   1   23.86    1.60
  -5  -4   1   21.70    1.58
  -5  -4   1   22.51    1.60
  -5   4   1   24.14    1.55
   5   4  -1   24.10    1.45
  -5   4   1   23.92    1.61
  -5   4   1   22.57    1.48
  -4  -4   1   16.26    1.16
  -4  -4   1   16.92    1.18
  -4  -4   1   16.86    1.19
   4  -4  -1   15.78    1.20
  -4  -4   1   16.43    1.17
  -4  -4   1   17.65    1.14
  -4  -4   1   16.69    1.19
  -4   4   1   17.22    1.19
  -4   4   1   15.49    1.10
  -3  -4   1   43.04    2.57
  -3  -4   1   40.32    2.54
   3  -4  -1   39.79    2.57
  -3  -4   1   39.86    2.54
  -3  -4   1   43.43    2.63
  -3  -4   1   40.03    2.56
  -3   4   1   36.36    2.52
  -2  -4   1  307.08   16.96
  -2  -4   1  271.64   16.93
   2  -4  -1  270.93   16.94
  -2   4   1  268.41   16.94
  -2   4   1  300.05   16.94
  -2   4   1  266.94   16.85
   1  -4  -1  210.75   12.51
   1  -4  -1  216.24   12.48
  -1  -4   1  208.22   12.51
  -1   4   1  186.60   12.52
  -1   4   1  213.19   12.51
   1   4  -1  208.06   12.45
   0  -4  -1    5.57    0.46
   0  -4   1    5.47    0.45
   0  -4   1    5.41    0.44
   0  -4  -1    5.25    0.44
   0   4   1    7.09    0.47
  -1  -4  -1   88.31    5.60
   1  -4   1   89.86    5.60
   1  -4   1   85.84    5.56
  -1   4  -1  101.52    5.63
   1   4   1   93.51    5.56
  -2  -4  -1  107.93    6.70
   2  -4   1  108.28    6.71
  -2  -4  -1  118.18    6.73
  -2  -4  -1  107.11    6.67
   2  -4   1  109.67    6.62
  -2   4  -1  107.83    6.70
  -3  -4  -1  175.39   10.48
  -3  -4  -1  172.83   10.42
  -3  -4  -1  172.49   10.47
  -3  -4  -1  167.13   10.47
  -3  -4  -1  167.14   10.45
  -3  -4  -1  178.11   10.48
   3  -4   1  169.29   10.50
  -3   4  -1  177.87   10.45
  -4  -4  -1   42.50    3.01
  -4  -4  -1   44.78    2.98
  -4  -4  -1   50.63    3.06
  -4  -4  -1   48.62    3.05
   4  -4   1   47.60    3.07
  -4  -4  -1   45.61    3.04
  -4  -4  -1   48.46    3.02
  -4   4  -1   51.06    3.03
  -4   4  -1   51.83    2.98
  -5  -4  -1    3.72    0.47
  -5  -4  -1    3.60    0.50
  -5  -4  -1    3.48    0.45
   5  -4   1    3.41    0.46
  -5  -4  -1    2.95    0.50
  -5  -4  -1    4.23    0.46
  -5  -4  -1    3.35    0.39
  -5   4  -1    2.68    0.32
  -5   4  -1    4.71    0.44
  -5   4  -1    3.94    0.48
  -6  -4  -1   39.77    2.51
  -6  -4  -1   38.82    2.57
  -6  -4  -1   37.64    2.62
  -6  -4  -1   39.63    2.58
  -6  -4  -1   39.52    2.53
   6  -4   1   38.03    2.62
  -6  -4  -1   41.34    2.62
  -6   4  -1   37.38    2.55
  -7  -4  -1   37.09    2.19
  -7  -4  -1   31.14    2.32
  -7  -4  -1   32.45    2.26
  -7  -4  -1   34.57    2.38
  -7  -4  -1   35.21    2.40
  -7   4  -1   32.91    2.30
  -8  -4  -1    7.14    0.75
  -8  -4  -1    7.23    0.83
  -8  -4  -1    6.61    0.85
  -8  -4  -1    6.81    0.92
  -8   4  -1    6.65    0.78
  -9  -4  -1    0.76    0.48
  -9  -4  -1    1.17    0.54
  -9   4  -1    1.24    0.40
 -10  -4  -1    3.31    0.69
 -10  -4  -1    4.13    0.83
 -10   4  -1    3.36    0.63
 -11  -4  -1    4.31    0.89
 -12  -4  -1    1.47    0.48
 -12  -5   1    1.35    0.51
 -11  -5   1    0.85    0.47
 -11   5   1    2.36    0.54
 -10  -5   1    0.20    0.58
 -10  -5   1    0.00    0.45
 -10   5   1    0.47    0.37
  -9  -5   1    5.55    0.91
  -9  -5   1    6.83    0.97
  -9   5   1    7.70    0.88
  -8  -5   1   14.20    1.34
  -8  -5   1   15.21    1.04
  -8  -5   1   13.52    1.33
  -8  -5   1   14.37    1.24
  -8  -5   1   13.92    1.20
  -8  -5   1   15.36    1.17
  -8   5   1   14.54    1.25
  -7  -5   1   10.34    0.86
  -7  -5   1   10.34    0.92
  -7  -5   1    9.77    0.83
  -7  -5   1   10.37    0.94
  -7  -5   1    9.51    0.99
  -7  -5   1   10.42    1.03
  -7   5   1    9.98    0.95
  -6  -5   1    0.76    0.26
  -6  -5   1    1.67    0.42
   6  -5  -1    0.98    0.35
  -6  -5   1    0.74    0.30
  -6  -5   1    0.91    0.36
  -6  -5   1    0.92    0.29
  -6  -5   1    0.29    0.27
  -6   5   1    0.94    0.21
  -6   5   1    0.95    0.37
  -5  -5   1   30.99    2.03
  -5  -5   1   30.32    2.04
  -5  -5   1   31.60    2.08
  -5  -5   1   32.32    1.99
  -5  -5   1   29.51    2.04
   5  -5  -1   31.03    2.08
  -5  -5   1   29.01    2.05
  -5   5   1   29.54    2.04
  -5   5   1   28.46    1.94
  -4  -5   1  177.85   11.26
  -4  -5   1  183.38   11.24
   4  -5  -1  186.95   11.28
  -4  -5   1  184.36   11.26
  -4  -5   1  179.95   11.23
  -4  -5   1  183.91   11.26
  -4   5   1  183.24   11.12
  -4   5   1  188.70   11.21
  -4   5   1  194.35   11.27
  -3  -5   1  107.35    6.66
  -3  -5   1  105.68    6.69
  -3  -5   1  105.32    6.69
  -3  -5   1  106.37    6.66
   3  -5  -1  109.97    6.71
  -3  -5   1  107.88    6.71
  -3   5   1  116.80    6.69
  -3   5   1  111.70    6.71
   2  -5  -1    0.65    0.21
  -2  -5   1    0.83    0.24
  -2   5   1    1.15    0.36
  -2   5   1    0.98    0.26
  -1  -5   1    8.06    0.66
   1  -5  -1    7.93    0.60
   1  -5  -1    8.18    0.64
  -1  -5   1    9.11    0.70
   0  -5  -1  162.62    9.69
   0  -5  -1  153.04    9.67
   0  -5   1  160.66    9.68
   0  -5   1  153.12    9.66
   0   5  -1  166.41    9.74
   0   5   1  162.50    9.68
   0   5   1  161.34    9.74
  -1  -5  -1  193.03   10.18
   1  -5   1  165.69   10.08
  -1  -5  -1  165.86   10.12
   1  -5   1  165.71   10.11
  -1   5  -1  146.95   10.13
   1   5   1  164.75   10.07
   2  -5   1   34.38    2.19
  -2  -5  -1   30.73    2.19
   2  -5   1   34.78    2.09
  -2  -5  -1   33.20    2.18
   2   5   1   34.56    2.10
  -2   5  -1   34.07    2.18
  -3  -5  -1   49.37    2.89
   3  -5   1   44.88    2.88
  -3  -5  -1   44.34    2.82
  -3  -5  -1   43.71    2.83
  -3  -5  -1   42.46    2.86
  -3   5  -1   41.84    2.83
   3   5   1   46.68    2.76
  -4  -5  -1   90.18    5.45
   4  -5   1   89.08    5.47
  -4  -5  -1   92.10    5.46
  -4  -5  -1   89.98    5.44
  -4  -5  -1   85.72    5.44
  -4  -5  -1   90.06    5.37
  -4  -5  -1   91.18    5.42
  -4   5  -1   84.85    5.38
  -4   5  -1   77.85    5.29
  -4   5  -1   86.10    5.29
  -4   5  -1   89.55    5.42
  -5  -5  -1   32.32    2.14
  -5  -5  -1   34.34    2.14
  -5  -5  -1   30.32    2.12
  -5  -5  -1   31.21    2.09
   5  -5   1   32.05    2.16
  -5  -5  -1   30.29    2.09
  -5  -5  -1   31.74    2.04
  -5   5  -1   31.36    2.09
  -5   5  -1   30.45    2.00
  -6  -5  -1   23.99    1.73
   6  -5   1   26.27    1.82
  -6  -5  -1   24.17    1.79
  -6  -5  -1   23.80    1.78
  -6  -5  -1   24.09    1.67
  -6  -5  -1   23.58    1.75
  -6  -5  -1   27.00    1.72
  -6   5  -1   24.12    1.71
  -7  -5  -1    0.43    0.25
  -7  -5  -1    0.59    0.28
  -7  -5  -1    0.64    0.40
  -7  -5  -1    0.40    0.40
  -7  -5  -1    0.62    0.28
  -7   5  -1    0.73    0.35
  -8  -5  -1   15.01    1.43
  -8  -5  -1   17.56    1.45
  -8  -5  -1   16.39    1.33
  -8  -5  -1   15.80    1.11
  -8  -5  -1   18.15    1.28
  -8   5  -1   15.43    1.29
  -9  -5  -1   12.20    1.31
  -9  -5  -1   11.10    1.27
  -9   5  -1   10.56    1.04
 -10  -5  -1    5.60    0.98
 -11  -5  -1   -0.22    0.44
 -11  -6   1    1.69    0.58
 -10  -6   1    5.67    0.92
 -10   6   1    3.37    0.65
  -9  -6   1    2.06    0.66
  -9  -6   1    1.76    0.62
  -9   6   1    2.46    0.57
  -8  -6   1    0.40    0.37
  -8  -6   1    0.80    0.50
  -8  -6   1    0.19    0.31
  -8  -6   1    0.78    0.29
  -8  -6   1    0.62    0.49
  -8   6   1    0.75    0.39
  -7  -6   1   18.16    1.47
  -7  -6   1   15.69    1.26
  -7  -6   1   17.09    1.41
  -7  -6   1   17.04    1.26
  -7  -6   1   16.74    1.33
  -7  -6   1   16.19    1.33
  -7   6   1   17.46    1.37
  -6  -6   1   51.45    3.39
  -6  -6   1   51.15    3.45
  -6  -6   1   52.94    3.50
  -6  -6   1   54.84    3.50
  -6  -6   1   52.97    3.46
  -6  -6   1   51.81    3.51
  -6   6   1   55.99    3.35
  -6   6   1   55.11    3.51
   5  -6  -1   30.86    2.16
  -5  -6   1   29.45    2.11
  -5  -6   1   30.91    2.15
  -5  -6   1   31.58    2.03
  -5  -6   1   33.87    2.16
  -5  -6   1   33.71    2.11
  -5  -6   1   30.43    2.11
  -5   6   1   30.32    2.11
  -5   6   1   29.17    2.02
  -4  -6   1    1.94    0.36
   4  -6  -1    2.47    0.44
  -4  -6   1    1.66    0.33
  -4  -6   1    1.89    0.38
  -4  -6   1    1.76    0.42
  -4   6   1    1.61    0.34
  -4   6   1    2.06    0.28
  -4   6   1    1.74    0.40
  -3  -6   1   15.88    1.14
  -3  -6   1   16.38    1.23
   3  -6  -1   15.54    1.20
  -3  -6   1   16.37    1.20
  -3   6   1   16.81    1.20
  -3   6   1   16.65    1.23
  -2  -6   1  140.80    8.60
   2  -6  -1  139.94    8.66
  -2  -6   1  138.56    8.66
  -2  -6   1  132.22    8.70
   2   6  -1  147.87    8.71
  -2   6   1  151.35    8.70
   1  -6  -1  133.74    8.15
   1  -6  -1  132.67    8.11
  -1  -6   1  132.75    8.16
  -1  -6   1  118.92    8.19
  -1   6   1  149.69    8.17
   1   6  -1  118.36    8.19
  -1   6   1  150.19    8.23
   0  -6   1    0.47    0.24
   0  -6  -1    0.84    0.28
   0  -6  -1    0.52    0.20
   0  -6   1    0.63    0.19
   0  -6   1    0.42    0.16
   0   6  -1    0.06    0.22
   0   6   1    0.51    0.17
   0   6   1    0.21    0.24
   1  -6   1   57.86    3.42
  -1  -6  -1   55.39    3.46
   1  -6   1   55.64    3.45
  -1  -6  -1   51.30    3.50
   1   6   1   48.31    3.48
  -1   6  -1   58.82    3.52
   1   6   1   57.96    3.41
   2  -6   1  104.35    6.28
  -2  -6  -1  105.34    6.22
  -2  -6  -1  106.29    6.29
  -2  -6  -1   91.94    6.30
   2  -6   1  106.22    6.19
  -2   6  -1   99.21    6.29
   2   6   1  103.14    6.19
   2   6   1   97.91    6.30
  -3  -6  -1   82.31    5.52
  -3  -6  -1   90.66    5.47
  -3  -6  -1   85.93    5.44
  -3  -6  -1   87.65    5.51
   3  -6   1   88.47    5.51
   3   6   1   93.08    5.38
  -3   6  -1   84.80    5.49
  -3   6  -1   95.66    5.51
  -4  -6  -1   29.16    2.13
  -4  -6  -1   32.51    2.11
  -4  -6  -1   30.94    2.13
  -4  -6  -1   31.75    2.02
  -4  -6  -1   33.30    2.08
   4  -6   1   33.01    2.16
  -4   6  -1   31.57    2.08
  -4   6  -1   30.29    2.09
  -5  -6  -1    4.77    0.62
   5  -6   1    4.07    0.55
  -5  -6  -1    5.54    0.65
  -5  -6  -1    5.02    0.56
  -5  -6  -1    4.51    0.58
  -5  -6  -1    4.10    0.46
  -5   6  -1    3.94    0.54
  -5   6  -1    4.34    0.49
  -6  -6  -1   46.05    3.00
  -6  -6  -1   47.06    3.02
  -6  -6  -1   44.81    2.89
  -6  -6  -1   42.44    2.95
  -6  -6  -1   45.08    2.95
  -6   6  -1   44.83    2.82
  -6   6  -1   44.96    2.94
  -7  -6  -1   26.74    1.82
  -7  -6  -1   27.77    1.99
  -7  -6  -1   27.14    1.90
  -7  -6  -1   23.66    1.82
  -7   6  -1   28.93    1.91
  -8  -6  -1    5.17    0.60
  -8  -6  -1    7.42    0.97
  -8  -6  -1    6.86    0.81
  -8   6  -1    8.39    0.86
  -9  -6  -1    0.30    0.47
  -9   6  -1    0.57    0.41
 -10  -6  -1    1.58    0.69
 -11  -6  -1    2.97    0.72
 -11  -7   1    0.87    0.57
 -10  -7   1   -0.08    0.39
 -10   7   1    0.08    0.38
  -9  -7   1    8.12    1.09
  -9   7   1    6.72    0.92
  -8  -7   1   10.63    1.14
  -8  -7   1    8.08    0.82
  -8   7   1    8.77    1.02
  -7  -7   1    5.73    0.85
  -7  -7   1    6.68    0.78
  -7  -7   1    5.55    0.77
  -7  -7   1    7.62    0.73
  -7  -7   1    5.84    0.73
  -7   7   1    7.40    0.87
  -6  -7   1    3.76    0.47
  -6  -7   1    3.49    0.58
  -6  -7   1    2.94    0.53
  -6  -7   1    2.75    0.48
  -6  -7   1    3.47    0.57
  -6   7   1    2.75    0.54
  -6   7   1    3.67    0.47
  -5  -7   1   34.17    2.38
  -5  -7   1   36.10    2.31
   5  -7  -1   36.33    2.55
  -5  -7   1   38.50    2.46
  -5  -7   1   37.33    2.38
  -5  -7   1   34.80    2.43
  -5   7   1   34.29    2.17
  -5   7   1   35.60    2.34
  -5   7   1   32.63    2.40
  -4  -7   1   96.03    5.83
  -4  -7   1   92.34    5.77
  -4  -7   1   82.06    5.83
  -4  -7   1   95.41    5.78
   4  -7  -1   93.16    5.84
  -4   7   1   92.76    5.68
  -4   7   1   95.76    5.80
  -4   7   1   96.03    5.84
  -3  -7   1   37.96    2.62
  -3  -7   1   41.47    2.56
   3  -7  -1   39.77    2.63
  -3  -7   1   37.04    2.66
  -3   7   1   43.23    2.68
   2  -7  -1    2.80    0.40
  -2  -7   1    4.07    0.59
  -2  -7   1    3.56    0.40
  -2  -7   1    2.40    0.43
   2   7  -1    5.13    0.60
  -2   7   1    2.93    0.49
   1  -7  -1   30.32    1.97
   1  -7  -1   30.09    1.93
  -1  -7   1   30.46    1.98
   1  -7  -1   31.25    2.04
  -1  -7   1   30.13    2.06
   1   7  -1   25.51    2.02
  -1   7   1   31.12    2.05
   0  -7   1   77.27    4.66
   0  -7  -1   71.55    4.65
   0  -7   1   73.21    4.57
   0  -7  -1   73.91    4.57
   0  -7   1   73.53    4.54
   0   7   1   74.22    4.55
   0   7  -1   71.65    4.65
   0   7   1   73.65    4.65
  -1  -7  -1  229.76   13.78
   1  -7   1  230.61   13.72
   1  -7   1  214.27   13.81
   1  -7   1  222.85   13.75
  -1  -7  -1  228.94   13.84
  -1   7  -1  255.85   13.86
   1   7   1  225.92   13.71
   1   7   1  208.39   13.82
  -2  -7  -1   23.42    1.57
   2  -7   1   24.42    1.55
  -2  -7  -1   23.81    1.66
  -2  -7  -1   21.51    1.69
   2  -7   1   25.01    1.65
  -2   7  -1   24.24    1.70
   2   7   1   25.43    1.71
   3  -7   1   25.24    1.78
  -3  -7  -1   25.30    1.71
  -3  -7  -1   24.64    1.72
  -3  -7  -1   27.46    1.84
  -3  -7  -1   25.80    1.80
  -3   7  -1   27.97    1.80
  -3   7  -1   24.41    1.78
  -4  -7  -1   39.22    2.61
  -4  -7  -1   40.56    2.54
  -4  -7  -1   45.41    2.67
  -4  -7  -1   37.45    2.47
   4  -7   1   38.64    2.61
  -4  -7  -1   38.05    2.55
  -4   7  -1   35.12    2.55
  -4   7  -1   38.97    2.57
  -5  -7  -1   39.06    2.47
  -5  -7  -1   38.74    2.53
  -5  -7  -1   37.03    2.59
  -5  -7  -1   39.32    2.58
  -5  -7  -1   37.29    2.60
  -5   7  -1   40.50    2.56
  -5   7  -1   37.08    2.51
  -6  -7  -1    9.10    0.90
  -6  -7  -1    8.17    0.80
  -6  -7  -1    8.06    0.94
  -6  -7  -1    9.37    0.80
  -6  -7  -1    8.86    0.89
  -6   7  -1    9.01    0.74
  -6   7  -1    8.91    0.84
  -7  -7  -1    0.06    0.30
  -7  -7  -1    0.08    0.41
  -7  -7  -1    0.63    0.29
  -7   7  -1    0.13    0.31
  -8  -7  -1    9.47    0.86
  -8  -7  -1   10.08    1.14
  -8   7  -1    9.63    1.02
  -9  -7  -1   12.96    1.42
 -10  -7  -1    2.35    0.63
 -11  -7  -1    0.95    0.57
 -11  -8   1    2.85    0.67
 -10  -8   1    3.00    0.68
  -9  -8   1    2.43    0.44
  -9  -8   1    3.79    0.75
  -9   8   1    3.46    0.67
  -8  -8   1    0.22    0.34
  -8  -8   1    0.25    0.49
  -8   8   1    0.32    0.42
  -7  -8   1    8.59    0.92
  -7  -8   1    7.98    0.88
  -7  -8   1    9.29    1.02
  -7  -8   1    8.49    1.01
  -7   8   1    8.80    0.74
  -7   8   1    8.17    0.99
  -6  -8   1   24.27    1.79
  -6  -8   1   25.77    1.85
  -6  -8   1   26.47    1.95
  -6  -8   1   26.55    1.93
  -6  -8   1   26.01    1.90
  -6   8   1   25.02    1.79
  -6   8   1   27.43    1.93
  -5  -8   1   25.78    1.79
  -5  -8   1   22.97    1.67
  -5  -8   1   23.11    1.86
  -5  -8   1   21.84    1.72
  -5  -8   1   22.93    1.82
  -5   8   1   26.78    1.60
  -5   8   1   27.99    1.78
  -5   8   1   25.43    1.83
  -4  -8   1   -0.11    0.24
   4  -8  -1    0.00    0.23
  -4  -8   1    0.35    0.35
  -4  -8   1   -0.39    0.24
  -4  -8   1    0.20    0.19
  -4   8   1    0.22    0.22
  -4   8   1    0.31    0.29
  -4   8   1    0.32    0.26
  -3  -8   1   14.85    1.14
  -3  -8   1   12.18    1.15
   3  -8  -1   14.59    1.12
  -3  -8   1   12.60    1.00
  -3   8   1   13.32    1.16
  -3   8   1   14.62    1.17
  -2  -8   1   80.59    5.19
  -2  -8   1   88.05    5.29
   2  -8  -1   80.37    5.18
  -2   8   1   87.86    5.27
   2   8  -1   77.33    5.24
  -1  -8   1  108.09    6.67
  -1  -8   1  104.24    6.57
   1  -8  -1  100.94    6.54
   1  -8  -1  103.66    6.52
   1  -8  -1  107.13    6.64
   1   8  -1  114.86    6.69
  -1   8   1  105.68    6.65
   0  -8   1   12.45    1.01
   0  -8   1   14.46    1.15
   0  -8   1   13.17    0.98
   0  -8  -1   14.40    1.14
   0  -8  -1   12.01    1.01
   0   8  -1   16.60    1.19
   1  -8   1   26.38    1.76
  -1  -8  -1   24.71    1.76
  -1  -8  -1   23.40    1.68
   1  -8   1   23.60    1.62
   1  -8   1   25.63    1.66
  -1   8  -1   21.84    1.74
   1   8   1   24.67    1.77
   2  -8   1   43.38    2.87
  -2  -8  -1   44.65    2.97
  -2  -8  -1   43.05    2.89
   2  -8   1   44.47    2.78
  -2   8  -1   45.33    2.95
   2   8   1   44.79    2.96
   3  -8   1   65.92    3.98
  -3  -8  -1   63.56    3.98
  -3  -8  -1   63.93    3.89
  -3  -8  -1   63.52    3.89
  -3  -8  -1   53.94    4.00
  -3   8  -1   63.77    3.98
  -3   8  -1   58.35    3.97
  -4  -8  -1   27.54    1.96
  -4  -8  -1   27.54    2.01
  -4  -8  -1   30.00    1.86
  -4  -8  -1   27.68    1.86
   4  -8   1   26.00    1.94
  -4  -8  -1   28.01    1.88
  -4   8  -1   25.98    1.93
  -4   8  -1   26.80    1.91
  -5  -8  -1    2.14    0.52
  -5  -8  -1    1.79    0.43
  -5  -8  -1    2.10    0.39
  -5  -8  -1    1.68    0.41
  -5   8  -1    2.09    0.40
  -5   8  -1    1.89    0.24
  -5   8  -1    2.23    0.44
  -5   8  -1    2.06    0.23
  -6  -8  -1   17.34    1.51
  -6  -8  -1   18.91    1.53
  -6  -8  -1   18.36    1.41
  -6  -8  -1   20.15    1.50
  -6   8  -1   19.54    1.36
  -6   8  -1   18.19    1.46
  -7  -8  -1   15.56    1.31
  -7  -8  -1   15.83    1.37
  -7   8  -1   15.03    1.28
  -8  -8  -1    2.67    0.53
  -8  -8  -1    2.02    0.63
  -9  -8  -1    1.02    0.51
 -10  -8  -1    1.72    0.58
 -11  -8  -1    4.00    0.74
 -10  -9   1    1.08    0.55
  -9  -9   1    7.22    0.97
  -9  -9   1    5.28    0.68
  -9   9   1    6.15    0.86
  -8  -9   1   11.95    1.29
  -8  -9   1   10.89    1.08
  -8   9   1   11.37    1.13
  -7  -9   1   12.51    1.13
  -7  -9   1   10.31    1.14
  -7   9   1    8.93    1.07
  -7   9   1   10.02    0.88
  -6  -9   1    2.33    0.61
  -6  -9   1    2.14    0.43
  -6  -9   1    2.23    0.50
  -6  -9   1    2.25    0.53
  -6   9   1    3.25    0.51
  -6   9   1    2.84    0.55
  -5  -9   1    7.20    0.80
  -5  -9   1    7.53    0.91
  -5  -9   1    7.48    0.93
  -5  -9   1    6.51    0.75
  -5   9   1    6.82    0.60
  -5   9   1    6.78    0.85
  -5   9   1    6.73    0.79
  -4  -9   1   51.87    3.56
  -4  -9   1   53.97    3.40
  -4  -9   1   52.09    3.50
  -4  -9   1   52.22    3.41
  -4   9   1   50.31    3.48
  -4   9   1   57.50    3.55
   3  -9  -1   29.60    2.07
  -3  -9   1   30.17    2.09
  -3  -9   1   28.71    2.16
  -3   9   1   33.39    2.16
  -3   9   1   25.88    2.10
  -2  -9   1    1.05    0.33
   2  -9  -1    0.99    0.30
  -2  -9   1    1.87    0.46
  -2   9   1    0.93    0.44
   2   9  -1    0.43    0.36
  -1  -9   1    3.05    0.48
   1  -9  -1    4.16    0.69
  -1  -9   1    4.86    0.68
   1   9  -1    4.31    0.69
  -1   9   1    3.86    0.62
   0  -9   1   56.56    3.56
   0  -9  -1   65.63    3.73
   0  -9   1   55.63    3.68
   0  -9  -1   55.60    3.56
   0   9   1   49.30    3.66
   0   9  -1   52.66    3.67
  -1  -9  -1   67.54    4.50
   1  -9   1   68.73    4.36
  -1  -9  -1   69.63    4.40
   1  -9   1   68.87    4.34
   1   9   1   70.25    4.52
  -1   9  -1   71.33    4.51
  -2  -9  -1   15.12    1.29
  -2  -9  -1   17.21    1.41
   2  -9   1   16.66    1.28
   2   9   1   16.11    1.40
  -2   9  -1   20.31    1.43
   3  -9   1    6.84    0.73
  -3  -9  -1    6.15    0.76
  -3  -9  -1    6.63    0.85
  -3  -9  -1    5.63    0.62
  -3   9  -1    6.99    0.80
  -3   9  -1    6.13    0.79
  -4  -9  -1   28.77    2.02
  -4  -9  -1   31.49    2.23
  -4  -9  -1   31.20    2.16
  -4  -9  -1   30.27    2.05
  -4   9  -1   31.49    2.16
  -4   9  -1   27.47    2.08
  -5  -9  -1   16.19    1.38
  -5  -9  -1   16.74    1.26
  -5  -9  -1   16.75    1.35
  -5   9  -1   13.85    1.25
  -5   9  -1   14.71    1.24
  -5   9  -1   15.93    1.05
  -6  -9  -1   10.99    1.12
  -6  -9  -1   10.17    1.08
  -6   9  -1    9.48    0.88
  -6   9  -1    9.44    1.00
  -7  -9  -1    0.09    0.41
  -7  -9  -1    0.32    0.42
  -7   9  -1    0.82    0.40
  -7   9  -1    0.48    0.27
  -8  -9  -1    4.93    0.83
  -8  -9  -1    5.39    0.75
  -9  -9  -1    5.01    0.86
  -9  -9  -1    5.44    0.64
 -10  -9  -1    1.59    0.56
 -10 -10   1    2.77    0.62
  -9 -10   1    2.42    0.59
  -9 -10   1    2.43    0.50
  -8 -10   1   -0.13    0.38
  -8 -10   1    0.18    0.40
  -8  10   1    0.38    0.42
  -7 -10   1    8.16    1.02
  -7 -10   1    8.40    0.99
  -7  10   1    7.18    0.93
  -7  10   1    7.63    0.78
  -6 -10   1   21.37    1.78
  -6 -10   1   24.69    1.70
  -6  10   1   20.31    1.71
  -6  10   1   20.84    1.64
  -5 -10   1    6.14    0.97
  -5 -10   1    6.36    0.89
  -5 -10   1    8.46    1.06
  -5 -10   1    6.86    0.83
  -5  10   1   10.18    0.71
  -5  10   1    9.66    1.02
  -5  10   1    7.97    0.94
  -4 -10   1    1.65    0.41
  -4 -10   1    1.39    0.57
  -4 -10   1    1.84    0.49
  -4  10   1    1.90    0.48
  -4  10   1    1.77    0.50
  -4  10   1    1.98    0.38
  -3 -10   1    8.56    1.11
  -3 -10   1   10.95    1.04
  -3  10   1   14.02    1.17
  -3  10   1   11.54    1.11
  -2 -10   1   66.73    4.14
  -2 -10   1   71.45    4.29
   2 -10  -1   63.05    4.09
   2  10  -1   63.69    4.23
  -2  10   1   55.05    4.19
  -1 -10   1   71.58    4.55
  -1 -10   1   67.32    4.39
   1  10  -1   66.86    4.52
  -1  10   1   69.89    4.55
   0 -10   1    5.97    0.67
   0 -10  -1    6.72    0.90
   0 -10  -1    5.33    0.65
   0 -10   1    6.14    0.85
   0  10  -1    7.62    0.88
   0  10   1    5.59    0.81
  -1 -10  -1    8.00    0.81
  -1 -10  -1    5.75    0.83
   1 -10   1    6.89    0.66
   1  10   1    7.31    0.94
  -1  10  -1    6.62    0.87
  -2 -10  -1   23.03    1.77
  -2 -10  -1   24.86    1.91
   2 -10   1   25.05    1.75
  -3 -10  -1   26.97    2.05
  -3 -10  -1   28.66    2.18
  -3  10  -1   29.76    2.09
  -3  10  -1   29.42    2.15
  -4 -10  -1   14.03    1.31
  -4 -10  -1   13.69    1.21
  -4  10  -1   11.97    1.14
  -4  10  -1   14.17    1.24
  -5 -10  -1    1.01    0.43
  -5 -10  -1    1.40    0.45
  -5 -10  -1    2.38    0.61
  -5  10  -1    1.34    0.45
  -5  10  -1    1.58    0.29
  -5  10  -1    1.49    0.44
  -6 -10  -1   14.78    1.42
  -6 -10  -1   15.85    1.29
  -6  10  -1   14.27    1.22
  -6  10  -1   14.88    1.27
  -7 -10  -1    8.41    1.03
  -7 -10  -1    9.38    1.11
  -7  10  -1    9.87    0.84
  -8 -10  -1    2.90    0.65
  -8 -10  -1    3.43    0.62
  -9 -10  -1    0.46    0.46
  -9 -10  -1    0.25    0.34
 -10 -10  -1    1.53    0.46
  -9 -11   1    2.76    0.55
  -9 -11   1    2.56    0.62
  -8 -11   1    7.97    0.98
  -8 -11   1    9.69    1.08
  -8  11   1    6.68    1.03
  -7 -11   1    2.31    0.64
  -7  11   1    4.08    0.58
  -7  11   1    2.70    0.59
  -6 -11   1   -0.15    0.40
  -6  11   1   -0.08    0.37
  -6  11   1    0.25    0.39
  -5 -11   1    9.64    1.22
  -5  11   1   10.00    1.05
  -5  11   1   11.35    1.18
  -5  11   1    9.83    0.82
  -4 -11   1   26.34    1.87
  -4 -11   1   25.51    1.99
  -4  11   1   24.32    1.87
  -4  11   1   19.49    1.64
  -4  11   1   25.89    1.89
  -3 -11   1   22.35    1.90
  -3 -11   1   24.24    1.79
  -3  11   1   23.17    1.86
  -3  11   1   22.69    1.83
  -2 -11   1    2.47    0.52
  -2 -11   1    2.55    0.59
   2  11  -1    2.43    0.62
  -2  11   1    2.67    0.64
  -1 -11   1   11.09    1.15
  -1 -11   1   10.40    0.98
   1  11  -1   11.78    1.16
  -1  11   1   10.81    1.16
   0 -11  -1   28.56    2.19
   0 -11   1   28.76    2.19
   0 -11   1   28.82    2.01
   0  11  -1   29.57    2.22
   0  11   1   29.69    2.24
  -1 -11  -1   27.81    2.18
  -1  11  -1   28.79    2.19
   1  11   1   29.09    2.21
  -2 -11  -1    4.63    0.78
  -2 -11  -1    4.36    0.65
  -2  11  -1    4.10    0.80
   2  11   1    6.15    0.90
  -3 -11  -1    5.91    0.78
  -3 -11  -1    7.36    0.98
  -3  11  -1    7.14    0.95
  -3  11  -1    6.31    0.86
  -4 -11  -1   21.42    1.80
  -4  11  -1   21.58    1.65
  -4  11  -1   19.85    1.68
  -5 -11  -1   20.02    1.81
  -5  11  -1   20.11    1.39
  -5  11  -1   22.78    1.69
  -5  11  -1   21.02    1.64
  -6 -11  -1    5.33    0.91
  -6  11  -1    5.21    0.73
  -6  11  -1    4.63    0.91
  -7 -11  -1   -0.18    0.35
  -7  11  -1    0.70    0.34
  -8 -11  -1    2.51    0.57
  -8 -11  -1    2.05    0.56
  -9 -11  -1    4.99    0.65
  -9 -11  -1    3.69    0.68
  -8 -12   1    0.00    0.38
  -7 -12   1    5.27    0.95
  -7  12   1    8.80    0.90
  -7  12   1    8.69    0.98
  -6 -12   1    7.89    1.11
  -6  12   1    8.99    1.06
  -6  12   1    7.69    0.96
  -5 -12   1    6.89    1.07
  -5  12   1    7.05    0.65
  -5  12   1    5.38    0.86
  -5  12   1    5.02    0.81
  -4 -12   1    1.62    0.58
  -4  12   1    0.07    0.46
  -4  12   1    0.70    0.37
  -4  12   1    0.33    0.42
  -3 -12   1    3.61    0.81
  -3 -12   1    2.80    0.58
  -3  12   1    5.84    0.85
  -3  12   1    5.61    0.85
  -2 -12   1   31.49    2.21
  -2 -12   1   29.82    2.38
  -2  12   1   30.98    2.36
   2  12  -1   29.67    2.38
  -1 -12   1   26.20    2.09
  -1 -12   1   26.13    1.90
   1  12  -1   27.03    2.13
  -1  12   1   25.04    2.09
   0 -12  -1    0.60    0.54
   0  12   1    0.30    0.41
   0  12  -1    0.56    0.45
  -1 -12  -1    5.49    0.90
  -1  12  -1    4.49    0.83
   1  12   1    4.68    0.84
  -2 -12  -1   17.84    1.67
  -2  12  -1   20.41    1.73
   2  12   1   18.46    1.69
  -3 -12  -1   23.40    1.94
  -3  12  -1   19.96    1.73
  -3  12  -1   22.94    1.85
  -4 -12  -1    6.16    1.00
  -4  12  -1    4.66    0.80
  -4  12  -1    5.11    0.76
  -5 -12  -1    1.17    0.61
  -5  12  -1    1.26    0.46
  -5  12  -1    1.03    0.28
  -5  12  -1    1.01    0.44
  -6 -12  -1    8.92    1.18
  -6  12  -1    8.64    1.02
  -7 -12  -1    6.97    1.00
  -7  12  -1    7.97    0.87
  -8 -12  -1    2.11    0.57
  -8 -13   1    3.36    0.64
  -7 -13   1    3.53    0.70
  -7  13   1    3.26    0.58
  -6 -13   1    0.12    0.50
  -6  13   1   -0.37    0.37
  -6  13   1    0.34    0.44
  -5 -13   1    4.72    0.89
  -5  13   1    3.32    0.74
  -5  13   1    4.46    0.51
  -5  13   1    4.56    0.76
  -4 -13   1   11.81    1.37
  -4  13   1    9.88    0.92
  -4  13   1    9.00    1.10
  -4  13   1    9.09    1.09
  -3 -13   1   11.67    1.42
  -3  13   1   10.58    1.30
  -3  13   1   11.72    1.32
  -2 -13   1    1.21    0.59
   2  13  -1    1.25    0.62
  -2  13   1    2.01    0.55
  -2  13   1    0.43    0.45
  -1 -13   1    7.10    1.07
  -1  13   1    7.29    1.11
   1  13  -1    5.90    1.02
   0  13   1   21.22    1.96
   0  13  -1   25.67    2.06
  -1 -13  -1   21.75    1.81
   1  13   1   18.11    1.74
  -1  13  -1   17.35    1.71
  -2 -13  -1    3.54    0.78
  -2  13  -1    1.99    0.58
  -2  13  -1    2.93    0.72
  -3 -13  -1    1.63    0.70
  -3  13  -1    1.41    0.63
  -3  13  -1    1.22    0.49
  -4 -13  -1    8.18    1.21
  -4  13  -1    8.96    1.03
  -4  13  -1    8.64    1.11
  -4  13  -1    9.26    0.87
  -5 -13  -1    8.49    1.22
  -5  13  -1    9.19    1.11
  -6 -13  -1    1.71    0.65
  -6  13  -1    2.40    0.56
  -7 -13  -1    0.65    0.51
  -7 -14   1    2.43    0.67
  -6 -14   1    6.04    1.06
  -6  14   1    8.89    1.03
  -5 -14   1    3.31    0.90
  -5  14   1    4.22    0.76
  -5  14   1    4.58    0.81
  -4 -14   1   -0.05    0.61
  -4  14   1    0.13    0.34
  -4  14   1   -0.49    0.32
  -4  14   1   -0.03    0.36
  -3 -14   1    4.24    0.93
  -3  14   1    2.11    0.67
  -3  14   1    4.51    0.65
  -3  14   1    3.67    0.76
  -2 -14   1   11.24    1.47
  -2  14   1   11.79    1.45
  -2  14   1   12.22    1.44
   1  14  -1    6.73    1.05
  -1  14   1    8.96    1.22
   0  14  -1    1.11    0.55
   0  14   1    1.20    0.56
  -1 -14  -1    3.49    0.84
  -1  14  -1    3.01    0.77
   1  14   1    2.79    0.71
  -2 -14  -1   12.44    1.59
  -2  14  -1   12.90    1.43
  -2  14  -1   12.95    1.41
  -3 -14  -1   14.65    1.68
  -3  14  -1   11.26    1.41
  -3  14  -1   12.56    1.25
  -4 -14  -1    2.34    0.82
  -4  14  -1    2.98    0.68
  -4  14  -1    2.78    0.49
  -5 -14  -1    0.69    0.63
  -5  14  -1    0.84    0.51
  -6 -14  -1    3.19    0.77
  -6  14  -1    3.07    0.64
  -5 -15   1    3.98    0.84
  -5  15   1    3.72    0.78
  -5  15   1    3.41    1.09
  -4 -15   1    8.89    1.27
  -4  15   1    8.33    1.16
  -4  15   1    9.99    1.13
  -4  15   1    9.18    0.89
  -3 -15   1    4.16    0.96
  -3  15   1    4.56    0.68
  -3  15   1    3.31    0.72
  -3  15   1    4.41    0.85
  -2 -15   1   -0.50    0.56
  -2  15   1   -0.08    0.48
  -2  15   1    0.52    0.59
  -1  15   1    2.88    0.84
   1  15  -1    2.79    0.82
  -1  15   1    2.59    0.70
   0  15   1   13.30    1.63
   0  15  -1   14.01    1.53
   1  15   1    9.28    1.30
  -1  15  -1    8.80    1.32
  -1  15  -1    8.49    1.14
  -2 -15  -1    0.40    0.58
  -2  15  -1    2.07    0.71
  -2  15  -1    1.53    0.56
  -3 -15  -1    0.28    0.55
  -3  15  -1    0.55    0.47
  -3  15  -1    0.93    0.43
  -3  15  -1    0.81    0.54
  -4 -15  -1    7.33    1.15
  -4  15  -1    6.16    0.69
  -4  15  -1    6.35    1.01
  -5 -15  -1    4.35    0.84
  -5  15  -1    5.65    0.87
  -3 -16   1    2.20    0.75
  -3  16   1    2.83    0.54
  -3  16   1    2.64    0.59
  -3  16   1    2.03    0.64
  -2  16   1    5.27    0.92
  -2  16   1    5.58    0.94
  -2  16   1    7.41    0.87
  -1  16   1    4.32    0.89
  -1  16   1    6.04    1.07
   1  16  -1    6.07    1.03
   0  16   1    0.99    0.59
   0  16  -1    1.16    0.67
  -1  16  -1    0.43    0.58
   1  16   1    1.34    0.59
  -1  16  -1    0.53    0.51
  -2 -16  -1    8.12    1.21
  -2  16  -1    6.25    1.10
  -2  16  -1    7.09    1.04
  -3 -16  -1    5.19    0.96
  -3  16  -1    5.00    0.87
  -3  16  -1    7.66    0.78
 -12   0   2    0.36    0.45
 -12   0   2    1.10    0.49
 -11   0   2    2.81    0.66
 -11   0   2    3.54    0.73
 -10   0   2    0.14    0.49
 -10   0   2    0.04    0.42
  -9   0   2    7.81    0.96
  -9   0   2    7.63    0.92
  -9   0   2    6.15    0.86
  -8   0   2   32.55    2.23
  -8   0   2   31.45    2.23
  -8   0   2   30.37    2.16
  -8   0   2   31.62    2.23
  -7   0   2   26.55    2.08
  -7   0   2   26.59    1.89
  -7   0   2   26.10    1.83
  -7   0   2   26.93    1.89
   7   0  -2   27.34    1.75
   7   0  -2   26.49    1.82
  -6   0   2   -0.16    0.24
  -6   0   2    0.02    0.25
  -6   0   2    0.16    0.19
  -6   0   2    0.07    0.21
  -6   0   2    0.04    0.13
   6   0  -2    0.13    0.16
   6   0  -2   -0.07    0.17
  -5   0   2    0.01    0.23
  -5   0   2   -0.10    0.17
  -5   0   2    0.14    0.12
  -5   0   2    0.13    0.21
  -5   0   2   -0.13    0.19
   5   0  -2    0.12    0.17
  -4   0   2  111.01    6.98
  -4   0   2  109.90    6.97
  -4   0   2  121.29    6.90
   4   0  -2  112.06    6.96
  -4   0   2  115.46    6.92
  -4   0   2  115.47    6.96
  -3   0   2  395.70   24.29
   3   0  -2  402.20   24.27
  -3   0   2  415.74   24.25
  -3   0   2  401.97   24.27
  -2   0   2   24.79    1.51
  -2   0   2   24.12    1.51
  -2   0   2   24.17    1.50
  -2   0   2   24.47    1.53
   2   0  -2   23.67    1.51
  -1   0   2  194.87   11.97
   1   0  -2  211.83   12.00
  -1   0   2  191.45   11.97
   1   0  -2  198.40   11.97
   0   0  -2  198.09   11.93
   1   0   2   16.41    1.05
   2   0   2  289.24   17.51
  -2   0  -2  293.77   17.52
  -3   0  -2    2.83    0.33
  -4   0  -2  171.75   10.55
  -4   0  -2  176.05   10.55
  -5   0  -2   96.47    5.79
  -5   0  -2   94.64    5.81
  -5   0  -2   90.83    5.80
   6   0   2   28.38    1.95
  -6   0  -2   28.97    1.98
  -6   0  -2   30.67    2.00
  -6   0  -2   28.86    1.95
  -7   0  -2    0.45    0.32
   7   0   2    0.09    0.22
  -7   0  -2    0.46    0.29
  -7   0  -2    0.48    0.29
  -8   0  -2    7.12    0.83
  -8   0  -2    7.91    0.94
  -9   0  -2   12.11    1.17
  -9   0  -2   13.08    1.15
 -10   0  -2    6.55    0.94
 -10   0  -2    6.63    0.88
 -11   0  -2   -0.24    0.36
 -11   0  -2   -0.50    0.37
 -12   0  -2    0.44    0.42
 -12  -1   2   -0.04    0.48
 -12  -1   2   -0.48    0.36
 -12   1   2   -0.19    0.40
 -11  -1   2    1.27    0.47
 -11  -1   2    0.72    0.60
 -11   1   2    0.91    0.48
 -11   1   2    1.08    0.53
 -10  -1   2   12.54    1.39
 -10  -1   2   12.32    1.27
 -10   1   2   14.52    1.25
 -10   1   2   13.24    1.29
  -9  -1   2   13.02    1.31
  -9  -1   2   13.88    1.28
  -9  -1   2   11.80    1.26
  -9   1   2   15.71    1.33
  -9   1   2   17.16    1.32
  -9   1   2   15.42    1.32
   8  -1  -2    2.09    0.44
   8  -1  -2    1.67    0.36
  -8  -1   2    1.67    0.47
  -8  -1   2    2.00    0.43
  -8  -1   2    2.14    0.47
  -8  -1   2    0.71    0.48
  -8   1   2    1.40    0.44
  -8   1   2    1.25    0.40
  -8   1   2    0.49    0.38
  -7  -1   2    7.72    0.78
  -7  -1   2    9.91    0.80
  -7  -1   2   10.40    0.88
  -7  -1   2    9.30    0.88
   7  -1  -2    7.51    0.78
  -7  -1   2    8.99    0.87
   7   1  -2    9.96    0.81
  -7   1   2   10.09    0.88
  -7   1   2   10.07    0.88
  -7   1   2    8.89    0.86
  -7   1   2    9.22    0.83
  -6  -1   2   53.05    3.49
   6  -1  -2   54.74    3.46
  -6  -1   2   53.96    3.45
  -6  -1   2   53.86    3.50
  -6  -1   2   55.99    3.41
  -6  -1   2   55.30    3.50
  -6   1   2   55.61    3.48
   6   1  -2   54.73    3.42
  -6   1   2   53.71    3.45
  -6   1   2   55.61    3.50
  -6   1   2   52.80    3.48
  -5  -1   2   82.58    5.09
  -5  -1   2   77.82    5.19
  -5  -1   2   80.42    5.17
  -5  -1   2   76.45    5.19
  -5  -1   2   80.63    5.14
  -5  -1   2   81.30    5.20
   5  -1  -2   80.14    5.18
  -5   1   2   87.72    5.09
  -5   1   2   88.55    5.22
   5   1  -2   85.92    5.15
   5   1  -2   92.99    5.16
  -5   1   2   87.33    5.19
  -5   1   2   86.96    5.18
  -5   1   2   84.87    5.21
  -4  -1   2   40.11    2.30
   4  -1  -2   33.75    2.35
  -4  -1   2   34.52    2.36
  -4  -1   2   38.24    2.30
  -4  -1   2   35.90    2.33
  -4  -1   2   35.01    2.34
  -4  -1   2   34.28    2.36
  -4   1   2   36.94    2.35
  -4   1   2   38.04    2.37
  -4   1   2   39.25    2.27
  -4   1   2   38.11    2.28
   4   1  -2   38.25    2.32
   4   1  -2   37.75    2.34
  -4   1   2   38.28    2.35
   3  -1  -2   31.13    1.95
  -3  -1   2   32.15    1.94
  -3  -1   2   32.17    1.94
  -3   1   2   30.00    1.95
  -3   1   2   29.56    1.95
  -3   1   2   30.44    1.89
   3   1  -2   31.82    1.96
  -3   1   2   30.53    1.94
   3   1  -2   29.87    1.91
   2  -1  -2  194.06   11.38
   2  -1  -2  192.80   11.40
  -2  -1   2  186.79   11.40
   2  -1  -2  195.84   11.39
  -2  -1   2  198.24   11.39
  -2  -1   2  200.89   11.37
  -2   1   2  178.53   11.39
   2   1  -2  188.33   11.42
   2   1  -2  177.30   11.36
  -2   1   2  182.15   11.38
  -2   1   2  185.26   11.40
   1  -1  -2  250.47   15.49
   1  -1  -2  256.77   15.51
  -1  -1   2  244.79   15.50
   1   1  -2  272.34   15.52
  -1   1   2  261.74   15.48
  -1   1   2  262.34   15.49
  -1   1   2  256.89   15.51
  -1  -1  -2   29.16    1.80
  -1  -1  -2   29.56    1.81
  -1  -1  -2   30.54    1.85
   1   1   2   28.22    1.80
   1   1   2   28.63    1.81
   2  -1   2  342.65   21.03
  -2  -1  -2  345.13   21.03
  -2  -1  -2  350.79   21.02
   2   1   2  362.24   21.02
  -3  -1  -2  238.29   14.82
  -3  -1  -2  236.67   14.84
  -3   1  -2  246.61   14.85
   3   1   2  262.27   14.82
  -4  -1  -2   57.74    3.52
  -4  -1  -2   57.87    3.47
  -4  -1  -2   57.24    3.56
  -4  -1  -2   56.49    3.55
  -4   1  -2   55.97    3.68
  -4   1  -2   55.57    3.55
  -5  -1  -2   14.05    1.05
  -5  -1  -2   14.03    1.06
  -5  -1  -2   13.28    1.02
   5  -1   2   14.01    1.06
  -5  -1  -2   14.29    1.07
  -5   1  -2   15.42    1.09
  -5   1  -2   15.80    1.04
  -5   1  -2   14.62    1.05
  -6  -1  -2   11.34    0.96
   6  -1   2   11.08    0.94
  -6  -1  -2   11.15    0.94
  -6  -1  -2   10.95    0.96
  -6   1  -2   12.53    0.98
   6   1   2   12.15    0.93
  -6   1  -2   12.95    0.94
  -6   1  -2   12.15    0.95
  -7  -1  -2   44.07    2.91
   7  -1   2   42.43    2.87
  -7  -1  -2   44.29    2.88
  -7  -1  -2   44.91    2.90
  -7   1  -2   46.01    2.90
   7   1   2   41.88    2.83
  -7   1  -2   42.17    2.84
  -8  -1  -2   18.94    1.45
  -8  -1  -2   19.32    1.50
  -8  -1  -2   19.53    1.49
  -8   1  -2   18.04    1.41
  -8   1  -2   17.39    1.44
  -9  -1  -2    0.29    0.45
  -9  -1  -2   -0.69    0.28
  -9   1  -2    0.06    0.41
  -9   1  -2    0.42    0.37
 -10  -1  -2    3.27    0.67
 -10  -1  -2    3.06    0.65
 -10   1  -2    3.50    0.69
 -10   1  -2    2.10    0.57
 -11  -1  -2    3.57    0.73
 -11  -1  -2    2.80    0.65
 -11   1  -2    2.88    0.64
 -12  -1  -2    2.18    0.60
 -12  -2   2    3.25    0.71
 -12  -2   2    3.78    0.75
 -12   2   2    1.54    0.59
 -11  -2   2    2.33    0.70
 -11  -2   2    2.67    0.66
 -11   2   2    1.73    0.58
 -10  -2   2    0.45    0.45
 -10  -2   2    0.42    0.44
 -10   2   2    0.67    0.41
 -10   2   2    0.96    0.41
  -9  -2   2    4.68    0.78
  -9  -2   2    6.20    1.01
  -9  -2   2    4.07    0.77
  -9   2   2    5.49    0.77
  -9   2   2    8.42    0.86
  -8  -2   2   32.59    2.34
  -8  -2   2   33.12    2.32
  -8  -2   2   32.70    2.25
  -8  -2   2   32.56    2.36
  -8   2   2   32.39    2.31
  -8   2   2   33.09    2.33
  -8   2   2   34.45    2.29
  -7  -2   2   21.65    1.52
  -7  -2   2   20.69    1.55
  -7  -2   2   21.09    1.64
   7  -2  -2   23.20    1.61
  -7  -2   2   20.43    1.62
  -7  -2   2   23.63    1.64
  -7   2   2   22.88    1.63
  -7   2   2   23.44    1.64
  -7   2   2   22.52    1.58
  -6  -2   2    6.60    0.67
  -6  -2   2    6.26    0.70
  -6  -2   2    6.23    0.60
  -6  -2   2    7.07    0.63
  -6  -2   2    7.59    0.78
   6  -2  -2    6.79    0.66
  -6  -2   2    7.01    0.52
  -6   2   2    7.55    0.66
  -6   2   2    7.31    0.71
   6   2  -2    6.84    0.57
  -6   2   2    6.94    0.68
  -6   2   2    6.12    0.63
   5  -2  -2   21.43    1.48
  -5  -2   2   23.83    1.40
  -5  -2   2   23.40    1.46
  -5  -2   2   23.99    1.46
  -5  -2   2   21.06    1.48
  -5  -2   2   22.54    1.50
  -5   2   2   20.01    1.48
  -5   2   2   20.24    1.44
  -5   2   2   21.03    1.48
   5   2  -2   19.65    1.39
  -5   2   2   19.18    1.44
  -4  -2   2  130.51    7.74
  -4  -2   2  123.84    7.69
  -4  -2   2  128.13    7.68
  -4  -2   2  124.04    7.72
   4  -2  -2  127.85    7.73
  -4  -2   2  127.37    7.70
  -4  -2   2  124.44    7.72
  -4   2   2  122.60    7.65
   4   2  -2  130.84    7.65
  -4   2   2  127.95    7.72
  -4   2   2  124.37    7.69
  -3  -2   2  398.38   23.52
  -3  -2   2  389.28   23.53
   3  -2  -2  387.12   23.54
  -3  -2   2  373.04   23.51
  -3  -2   2  385.25   23.51
  -3   2   2  392.45   23.51
  -3   2   2  404.45   23.54
   3   2  -2  389.15   23.46
  -3   2   2  392.58   23.52
  -3   2   2  399.49   23.44
   2  -2  -2  238.23   14.34
  -2  -2   2  251.37   14.34
   2  -2  -2  245.24   14.30
  -2   2   2  236.17   14.34
  -2   2   2  227.12   14.31
  -2   2   2  229.69   14.30
   1  -2  -2  116.59    7.01
   1  -2  -2  117.68    7.06
  -1  -2   2  117.14    7.05
   1  -2  -2  113.61    7.02
  -1   2   2  117.61    7.05
   0  -2   2   47.87    3.27
   0   2   2   60.05    3.29
  -1  -2  -2  274.32   16.29
  -1  -2  -2  268.76   16.30
  -1  -2  -2  276.24   16.34
   1  -2   2  266.81   16.31
  -2  -2  -2  185.17   10.97
  -2  -2  -2  183.55   11.01
  -2  -2  -2  178.60   10.99
  -3  -2  -2    2.95    0.35
  -3  -2  -2    2.93    0.34
  -3  -2  -2    2.99    0.31
  -3  -2  -2    2.55    0.28
  -3  -2  -2    3.34    0.33
   3  -2   2    2.74    0.22
   4  -2   2  117.28    6.91
  -4  -2  -2  118.95    7.04
   4  -2   2  112.77    7.04
  -4  -2  -2  117.02    6.98
  -4  -2  -2  118.37    7.02
  -4   2  -2  107.94    6.91
  -4   2  -2  112.41    6.99
  -5  -2  -2  147.67    8.49
  -5  -2  -2  141.39    8.58
  -5  -2  -2  141.74    8.54
   5  -2   2  139.74    8.60
  -5  -2  -2  138.41    8.60
  -5  -2  -2  140.61    8.58
  -5   2  -2  133.55    8.54
  -5   2  -2  138.53    8.56
   6  -2   2   21.24    1.54
  -6  -2  -2   20.84    1.52
  -6  -2  -2   20.73    1.53
  -6  -2  -2   21.52    1.48
  -6  -2  -2   20.75    1.55
  -6   2  -2   23.61    1.52
  -6   2  -2   21.56    1.49
  -7  -2  -2    3.08    0.49
  -7  -2  -2    2.81    0.52
  -7  -2  -2    2.76    0.49
   7  -2   2    2.57    0.45
  -7   2  -2    2.43    0.46
  -7   2  -2    2.42    0.46
  -8  -2  -2    3.15    0.54
  -8  -2  -2    2.79    0.64
  -8  -2  -2    2.35    0.56
  -8   2  -2    3.31    0.54
  -8   2  -2    3.36    0.53
  -9  -2  -2   14.95    1.34
  -9  -2  -2   13.42    1.28
  -9   2  -2   15.84    1.26
  -9   2  -2   14.81    1.25
 -10  -2  -2    6.89    0.98
 -10  -2  -2    7.08    0.92
 -10   2  -2    6.49    0.88
 -10   2  -2    7.94    0.93
 -11  -2  -2    0.40    0.49
 -11  -2  -2    0.02    0.44
 -12  -2  -2    0.47    0.46
 -12  -3   2    0.12    0.52
 -12  -3   2    0.28    0.45
 -12   3   2   -0.08    0.38
 -11  -3   2    2.97    0.70
 -11  -3   2    3.56    0.80
 -11   3   2    2.74    0.68
 -10  -3   2    4.19    0.84
 -10  -3   2    2.90    0.67
 -10   3   2    2.94    0.69
  -9  -3   2   11.96    1.26
  -9  -3   2   10.49    1.16
  -9   3   2   10.05    1.01
  -9   3   2   10.89    1.10
  -8  -3   2    1.65    0.39
  -8  -3   2    1.92    0.51
  -8  -3   2    1.80    0.46
  -8  -3   2    1.80    0.55
  -8   3   2    1.10    0.45
  -8   3   2    1.56    0.44
  -7  -3   2   11.93    1.03
  -7  -3   2   10.69    0.96
   7  -3  -2   10.78    1.13
  -7  -3   2   11.55    1.09
  -7  -3   2   12.38    0.97
  -7  -3   2   12.43    1.08
  -7  -3   2   12.37    0.84
  -7   3   2   12.71    1.06
  -7   3   2   13.28    1.00
  -6  -3   2   76.44    4.53
   6  -3  -2   73.05    4.58
  -6  -3   2   61.50    4.44
  -6  -3   2   71.23    4.58
  -6  -3   2   71.59    4.51
  -6  -3   2   74.25    4.59
  -6  -3   2   72.41    4.56
  -6   3   2   76.72    4.58
  -6   3   2   75.89    4.51
  -5  -3   2  122.91    7.47
  -5  -3   2  112.48    7.39
  -5  -3   2  121.35    7.47
   5  -3  -2  119.21    7.47
  -5  -3   2  120.07    7.45
  -5  -3   2  117.16    7.41
  -5  -3   2  126.17    7.44
  -5   3   2  125.91    7.47
  -5   3   2  123.20    7.35
  -5   3   2  126.07    7.40
  -5   3   2  121.41    7.46
   5   3  -2  120.29    7.34
  -4  -3   2    4.27    0.47
  -4  -3   2    3.70    0.42
   4  -3  -2    4.66    0.50
  -4  -3   2    4.81    0.46
  -4  -3   2    4.37    0.47
  -4  -3   2    4.23    0.42
  -4  -3   2    5.07    0.52
  -3  -3   2   14.09    0.97
   3  -3  -2   14.52    1.01
  -3  -3   2   14.32    0.99
  -3  -3   2   13.91    0.99
  -3  -3   2   13.77    0.98
  -3   3   2   13.14    0.99
  -3   3   2   13.93    0.90
  -3   3   2   14.79    0.95
  -2  -3   2  161.31   10.18
   2  -3  -2  168.48   10.14
  -2   3   2  171.28   10.12
  -2   3   2  171.88   10.19
   1  -3  -2  578.13   34.62
   1  -3  -2  579.00   34.56
  -1  -3   2  572.56   34.57
  -1  -3   2  585.27   34.61
  -1   3   2  567.59   34.61
   0  -3   2  351.28   20.66
   0  -3  -2  344.29   20.67
   0  -3   2  335.13   20.66
   0   3   2  345.17   20.67
   1  -3   2   11.90    0.83
   1  -3   2   12.01    0.79
  -1  -3  -2   12.29    0.84
  -2  -3  -2  133.90    8.76
   2  -3   2  147.55    8.69
  -2  -3  -2  152.68    8.71
  -2  -3  -2  151.24    8.73
   2  -3   2  147.62    8.77
  -2  -3  -2  148.15    8.76
  -2   3  -2  130.38    8.73
  -3  -3  -2  102.56    5.97
  -3  -3  -2   97.10    5.98
  -3  -3  -2  100.20    5.96
  -3  -3  -2  101.16    5.93
  -3  -3  -2   94.11    5.97
   3  -3   2   95.56    5.99
  -3   3  -2   92.40    5.93
  -4  -3  -2   46.20    3.05
  -4  -3  -2   45.96    3.04
   4  -3   2   45.65    3.08
  -4  -3  -2   47.96    3.04
  -4  -3  -2   52.10    3.03
  -4  -3  -2   46.52    3.00
  -4  -3  -2   46.60    3.06
  -4   3  -2   53.52    2.97
  -5  -3  -2    5.31    0.50
  -5  -3  -2    5.17    0.55
  -5  -3  -2    5.57    0.63
  -5  -3  -2    5.09    0.48
   5  -3   2    5.97    0.60
  -5  -3  -2    6.25    0.62
  -5   3  -2    4.79    0.50
  -5   3  -2    5.23    0.54
  -6  -3  -2   23.77    1.61
  -6  -3  -2   25.36    1.55
  -6  -3  -2   23.30    1.66
  -6  -3  -2   23.12    1.66
   6  -3   2   22.79    1.70
  -6  -3  -2   22.52    1.70
  -6   3  -2   25.18    1.64
  -6   3  -2   22.67    1.62
  -7  -3  -2   39.62    2.89
  -7  -3  -2   44.39    2.91
  -7  -3  -2   45.74    2.85
  -7  -3  -2   45.39    2.97
  -7   3  -2   40.86    2.85
  -7   3  -2   47.04    2.88
  -8  -3  -2   18.77    1.59
  -8  -3  -2   21.01    1.67
  -8  -3  -2   20.45    1.58
  -8   3  -2   22.13    1.56
  -8   3  -2   21.31    1.55
  -9  -3  -2    2.81    0.61
  -9  -3  -2    3.17    0.66
  -9   3  -2    4.32    0.84
  -9   3  -2    3.01    0.55
 -10  -3  -2    2.33    0.61
 -10  -3  -2    1.20    0.55
 -11  -3  -2    2.33    0.65
 -11  -3  -2    2.16    0.61
 -12  -3  -2    2.78    1.07
 -12  -4   2    1.72    0.59
 -12  -4   2    2.56    0.68
 -12   4   2    2.46    0.56
 -11  -4   2    1.11    0.56
 -11  -4   2    2.60    0.71
 -11   4   2    2.20    0.56
 -10  -4   2   -0.21    0.51
 -10  -4   2   -0.36    0.42
 -10   4   2    0.49    0.37
  -9  -4   2    5.35    0.82
  -9  -4   2    3.62    0.78
  -9   4   2    3.84    0.71
  -8  -4   2   23.56    1.83
  -8  -4   2   22.68    1.67
  -8  -4   2   22.27    1.50
  -8  -4   2   22.95    1.73
  -8  -4   2   22.31    1.65
  -8  -4   2   25.01    1.83
  -8   4   2   24.98    1.78
  -7  -4   2   37.52    2.57
  -7  -4   2   37.64    2.57
  -7  -4   2   37.77    2.39
  -7  -4   2   35.62    2.45
  -7  -4   2   39.43    2.49
  -7  -4   2   37.38    2.52
  -7   4   2   34.16    2.52
  -6  -4   2    4.44    0.52
  -6  -4   2    4.10    0.61
  -6  -4   2    3.52    0.47
   6  -4  -2    3.89    0.54
  -6  -4   2    3.30    0.46
  -6  -4   2    4.01    0.53
  -6  -4   2    4.30    0.59
  -6   4   2    3.87    0.56
  -5  -4   2    4.30    0.54
  -5  -4   2    4.65    0.51
  -5  -4   2    4.91    0.54
  -5  -4   2    4.62    0.55
   5  -4  -2    4.55    0.56
  -5  -4   2    5.38    0.53
  -5  -4   2    5.82    0.66
  -5   4   2    5.31    0.47
  -5   4   2    4.98    0.59
  -5   4   2    5.41    0.45
  -4  -4   2  102.74    6.15
  -4  -4   2   96.83    6.15
  -4  -4   2   98.15    6.15
  -4  -4   2  102.95    6.17
   4  -4  -2  102.60    6.19
  -4  -4   2  101.13    6.16
  -4   4   2  103.73    6.10
  -4   4   2   86.53    6.03
  -4   4   2  107.43    6.19
  -3  -4   2  173.13    9.79
  -3  -4   2  162.39    9.69
   3  -4  -2  162.65    9.73
  -3  -4   2  168.89    9.72
  -3  -4   2  153.39    9.71
  -3   4   2  155.23    9.63
  -3   4   2  144.49    9.68
   2  -4  -2   14.53    1.04
  -2  -4   2   15.47    1.06
  -2  -4   2   16.11    1.05
  -2   4   2   15.36    1.04
  -2   4   2   13.74    1.04
   1  -4  -2   33.81    2.09
  -1  -4   2   31.83    2.00
  -1  -4   2   32.49    2.07
  -1   4   2   33.37    2.11
  -1   4   2   32.20    2.09
   0  -4  -2  237.52   14.31
   0  -4   2  236.84   14.29
   0  -4   2  239.77   14.31
   0   4   2  236.01   14.31
  -1  -4  -2  209.34   12.90
   1  -4   2  211.36   12.86
  -1  -4  -2  205.29   12.92
   1  -4   2  205.59   12.89
  -1   4  -2  230.77   12.92
   1   4   2  218.65   12.87
   2  -4   2  141.83    8.63
  -2  -4  -2  143.61    8.64
  -2  -4  -2  142.01    8.58
  -2  -4  -2  142.73    8.63
   2  -4   2  143.74    8.55
  -2   4  -2  137.64    8.62
  -3  -4  -2    5.21    0.51
  -3  -4  -2    4.83    0.42
   3  -4   2    5.31    0.53
  -3  -4  -2    5.65    0.52
  -3  -4  -2    5.90    0.48
  -3  -4  -2    5.12    0.49
  -3   4  -2    5.49    0.47
  -4  -4  -2   95.25    5.74
  -4  -4  -2   96.33    5.77
  -4  -4  -2   95.21    5.81
  -4  -4  -2   91.14    5.78
   4  -4   2   92.32    5.83
  -4  -4  -2   91.00    5.79
  -4  -4  -2   95.00    5.81
  -4   4  -2   95.10    5.73
  -5  -4  -2   87.85    5.38
  -5  -4  -2   87.24    5.35
   5  -4   2   85.47    5.41
  -5  -4  -2   85.23    5.36
  -5  -4  -2   86.75    5.30
  -5  -4  -2   87.45    5.33
  -5  -4  -2   86.04    5.39
  -5   4  -2   88.98    5.30
  -5   4  -2   81.75    5.32
  -5   4  -2   84.86    5.24
  -6  -4  -2   21.54    1.58
   6  -4   2   20.64    1.59
  -6  -4  -2   22.61    1.55
  -6  -4  -2   21.03    1.59
  -6  -4  -2   19.48    1.47
  -6  -4  -2   22.84    1.47
  -6   4  -2   22.95    1.73
  -6   4  -2   21.38    1.51
  -7  -4  -2    0.97    0.42
  -7  -4  -2    2.12    0.47
  -7  -4  -2    1.10    0.37
  -7  -4  -2    1.75    0.29
  -7  -4  -2    1.78    0.36
  -7   4  -2    1.74    0.41
  -8  -4  -2    3.44    0.67
  -8  -4  -2    3.35    0.60
  -8  -4  -2    3.64    0.68
  -8   4  -2    3.22    0.56
  -9  -4  -2   12.57    1.28
  -9  -4  -2   14.44    1.31
  -9   4  -2   13.08    1.21
 -10  -4  -2    7.86    1.04
 -10  -4  -2    9.62    1.22
 -11  -4  -2    0.65    0.60
 -12  -4  -2    1.33    0.57
 -12  -5   2    0.31    0.36
 -12   5   2   -0.15    0.38
 -11  -5   2    1.86    0.59
 -11  -5   2    1.28    0.64
 -11   5   2    1.16    0.48
 -10  -5   2    7.82    1.12
 -10  -5   2    8.47    1.13
 -10   5   2    8.04    1.01
  -9  -5   2    4.41    0.79
  -9  -5   2    4.42    0.82
  -9   5   2    4.22    0.67
  -8  -5   2    3.15    0.70
  -8  -5   2    2.29    0.63
  -8  -5   2    3.15    0.43
  -8  -5   2    3.71    0.63
  -8  -5   2    2.87    0.67
  -8  -5   2    4.23    0.58
  -8   5   2    3.19    0.59
  -7  -5   2    6.74    0.78
  -7  -5   2    6.57    0.75
  -7  -5   2    7.99    0.77
  -7  -5   2    6.06    0.83
  -7  -5   2    7.22    0.69
  -7  -5   2    6.75    0.86
  -7   5   2    9.46    0.88
  -6  -5   2   78.78    5.01
  -6  -5   2   85.48    4.99
   6  -5  -2   80.05    5.05
  -6  -5   2   77.93    5.03
  -6  -5   2   79.00    5.01
  -6  -5   2   80.46    5.05
  -6  -5   2   72.37    4.93
  -6   5   2   78.22    4.87
  -6   5   2   81.84    5.04
  -5  -5   2   45.57    3.08
  -5  -5   2   50.22    3.09
  -5  -5   2   48.29    3.10
  -5  -5   2   47.39    3.03
  -5  -5   2   46.35    3.09
   5  -5  -2   49.53    3.13
  -5  -5   2   46.23    3.11
  -5   5   2   51.51    3.12
  -5   5   2   46.15    3.00
  -4  -5   2   13.48    1.04
   4  -5  -2   14.44    1.10
  -4  -5   2   14.10    1.07
  -4  -5   2   15.16    1.09
  -4  -5   2   13.81    1.06
  -4  -5   2   13.52    1.03
  -4   5   2   13.97    1.01
  -4   5   2   13.61    0.93
  -4   5   2   14.19    1.08
  -3  -5   2   18.11    1.16
  -3  -5   2   16.51    1.14
  -3  -5   2   16.48    1.14
   3  -5  -2   14.18    1.12
  -3  -5   2   15.18    1.08
  -3   5   2   14.70    1.14
  -3   5   2   14.58    1.10
  -3   5   2   14.90    0.97
  -2  -5   2   74.28    4.43
   2  -5  -2   69.77    4.40
  -2  -5   2   69.18    4.39
  -2   5   2   70.08    4.41
  -1  -5   2  210.77   13.61
   1  -5  -2  208.53   13.68
  -1  -5   2  223.73   13.72
  -1  -5   2  217.57   13.68
   1   5  -2  263.32   13.75
  -1   5   2  235.63   13.73
  -1   5   2  226.92   13.68
   0  -5   2  128.42    7.75
   0  -5   2  127.17    7.77
   0  -5  -2  127.04    7.77
   0  -5  -2  136.57    7.90
   0   5   2  121.27    7.76
   1  -5   2   47.44    3.01
  -1  -5  -2   48.17    3.06
  -1  -5  -2   49.53    3.03
   1  -5   2   47.51    2.98
  -1   5  -2   48.69    3.05
   1   5   2   47.39    2.98
  -2  -5  -2  145.68    8.74
  -2  -5  -2  131.18    8.75
   2  -5   2  145.90    8.74
  -2  -5  -2  145.37    8.68
   2  -5   2  147.10    8.65
  -2  -5  -2  150.74    8.71
  -2   5  -2  141.06    8.74
   2   5   2  139.85    8.67
   3  -5   2  113.85    7.18
  -3  -5  -2  118.43    7.15
  -3  -5  -2  110.86    7.17
  -3  -5  -2  116.76    7.12
  -3  -5  -2  120.16    7.08
   3  -5   2  115.56    7.03
  -3  -5  -2  113.95    7.16
  -3   5  -2  124.15    7.16
  -4  -5  -2   62.39    3.98
  -4  -5  -2   61.93    3.90
  -4  -5  -2   65.30    3.99
  -4  -5  -2   62.37    3.98
  -4  -5  -2   64.25    3.95
   4  -5   2   60.78    4.01
  -4   5  -2   64.84    3.93
  -4   5  -2   64.60    3.83
  -4   5  -2   61.41    3.93
  -5  -5  -2    3.26    0.48
   5  -5   2    3.49    0.53
  -5  -5  -2    3.81    0.54
  -5  -5  -2    3.92    0.43
  -5  -5  -2    3.63    0.51
  -5  -5  -2    3.68    0.48
  -5  -5  -2    4.15    0.56
  -5   5  -2    3.34    0.38
  -5   5  -2    3.22    0.45
  -6  -5  -2   16.52    1.35
  -6  -5  -2   18.33    1.39
  -6  -5  -2   18.54    1.31
  -6  -5  -2   17.35    1.23
  -6  -5  -2   16.28    1.26
  -6   5  -2   17.52    1.27
  -7  -5  -2   30.07    2.16
  -7  -5  -2   30.04    2.00
  -7  -5  -2   29.66    1.97
  -7  -5  -2   29.21    2.13
  -7  -5  -2   30.49    2.07
  -7   5  -2   27.90    2.03
  -8  -5  -2   16.62    1.34
  -8  -5  -2   17.05    1.24
  -8  -5  -2   17.02    1.46
  -8  -5  -2   17.21    1.37
  -8  -5  -2   18.04    1.48
  -8   5  -2   15.32    1.30
  -9  -5  -2    0.15    0.46
 -10  -5  -2    1.45    0.65
 -11  -5  -2    3.92    0.82
 -11  -6   2    1.15    0.57
 -11   6   2    1.27    0.52
 -10  -6   2   -0.05    0.51
 -10   6   2    0.02    0.42
  -9  -6   2    5.75    0.92
  -9  -6   2    6.74    0.97
  -9   6   2    6.93    0.95
  -8  -6   2   22.83    1.64
  -8  -6   2   22.91    1.82
  -8  -6   2   23.89    1.87
  -8  -6   2   22.13    1.88
  -8  -6   2   24.22    1.77
  -8   6   2   25.52    1.84
  -7  -6   2   17.08    1.48
  -7  -6   2   16.50    1.31
  -7  -6   2   16.36    1.27
  -7  -6   2   18.95    1.39
  -7  -6   2   15.42    1.33
  -7  -6   2   18.53    1.47
  -7   6   2   18.39    1.43
  -6  -6   2    7.42    0.84
  -6  -6   2    9.04    0.95
  -6  -6   2    7.95    0.78
  -6  -6   2    8.02    0.83
  -6  -6   2    9.28    0.95
  -6  -6   2    8.14    0.72
  -6   6   2    6.44    0.63
  -6   6   2    6.85    0.84
  -5  -6   2    1.85    0.39
  -5  -6   2    1.69    0.32
  -5  -6   2    2.50    0.47
  -5  -6   2    1.21    0.35
  -5  -6   2    1.00    0.40
   5  -6  -2    1.44    0.37
  -5  -6   2    2.82    0.51
  -5   6   2    2.23    0.45
  -5   6   2    2.21    0.35
  -4  -6   2   73.83    4.61
  -4  -6   2   75.53    4.65
  -4  -6   2   71.38    4.60
  -4  -6   2   78.32    4.66
  -4  -6   2   72.47    4.66
   4  -6  -2   73.04    4.65
  -4   6   2   71.55    4.66
  -4   6   2   71.80    4.60
  -4   6   2   74.95    4.51
  -3  -6   2  130.73    7.99
  -3  -6   2  125.33    8.01
   3  -6  -2  127.23    7.99
  -3  -6   2  132.24    7.94
  -3   6   2  133.98    7.99
   2  -6  -2   19.26    1.44
  -2  -6   2   20.05    1.44
  -2  -6   2   20.09    1.37
  -2   6   2   22.37    1.48
   2   6  -2   22.28    1.49
  -1  -6   2   33.62    2.07
   1  -6  -2   35.34    2.17
  -1  -6   2   36.01    2.18
  -1  -6   2   30.07    2.20
   1   6  -2   29.59    2.20
  -1   6   2   35.80    2.23
   0  -6  -2   95.22    5.89
   0  -6   2   94.21    5.89
   0  -6   2   93.93    5.86
   0  -6  -2  107.49    5.98
   0  -6   2   94.28    5.95
   0   6  -2   90.43    5.95
   0   6   2   96.89    5.89
   0   6   2   96.53    5.96
  -1  -6  -2  165.41   10.13
   1  -6   2  167.72   10.11
   1  -6   2  171.33   10.09
  -1  -6  -2  158.56   10.18
   1   6   2  167.37   10.09
  -1   6  -2  173.16   10.18
   1   6   2  161.71   10.18
   2  -6   2  143.30    8.64
  -2  -6  -2  135.73    8.63
  -2  -6  -2  158.45    8.71
  -2  -6  -2  143.29    8.59
   2  -6   2  142.23    8.55
  -2   6  -2  128.62    8.65
   2   6   2  129.67    8.66
   2   6   2  149.31    8.57
  -3  -6  -2    2.20    0.41
  -3  -6  -2    2.59    0.28
  -3  -6  -2    1.98    0.31
  -3  -6  -2    2.29    0.39
   3  -6   2    2.33    0.23
  -3  -6  -2    2.94    0.40
   3  -6   2    1.75    0.36
  -3   6  -2    2.53    0.38
   3   6   2    2.61    0.29
  -3   6  -2    2.15    0.38
  -4  -6  -2   37.31    2.33
  -4  -6  -2   35.28    2.42
  -4  -6  -2   36.31    2.45
  -4  -6  -2   36.60    2.44
  -4  -6  -2   39.03    2.39
   4  -6   2   35.50    2.46
  -4   6  -2   36.97    2.39
  -4   6  -2   37.24    2.39
   5  -6   2   43.92    2.91
  -5  -6  -2   45.20    2.82
  -5  -6  -2   44.44    2.76
  -5  -6  -2   44.50    2.87
  -5  -6  -2   43.50    2.87
  -5  -6  -2   44.83    2.88
  -5   6  -2   43.19    2.81
  -5   6  -2   39.22    2.76
  -6  -6  -2   22.38    1.49
  -6  -6  -2   20.41    1.54
  -6  -6  -2   20.18    1.40
  -6  -6  -2   19.73    1.48
  -6   6  -2   19.13    1.44
  -6   6  -2   19.42    1.33
  -7  -6  -2    1.23    0.45
  -7  -6  -2    1.18    0.38
  -7  -6  -2    1.13    0.33
  -7   6  -2    1.38    0.40
  -8  -6  -2    5.28    0.57
  -8  -6  -2    4.47    0.64
  -8  -6  -2    4.23    0.77
  -9  -6  -2   12.74    1.29
 -10  -6  -2    4.08    0.85
 -11  -6  -2   -0.08    0.48
 -11  -7   2    1.72    0.63
 -11   7   2    2.46    0.60
 -10  -7   2    4.06    0.76
 -10   7   2    3.98    0.71
  -9  -7   2    8.73    0.79
  -9  -7   2    7.89    1.09
  -9   7   2   10.70    1.14
  -8  -7   2    0.65    0.32
  -8  -7   2    0.32    0.35
  -8  -7   2    0.75    0.46
  -8   7   2    0.53    0.47
  -7  -7   2    7.86    0.87
  -7  -7   2    9.26    0.88
  -7  -7   2    9.60    0.99
  -7  -7   2    8.43    0.80
  -7  -7   2    8.94    1.03
  -7   7   2    9.16    1.02
  -7   7   2    8.76    0.72
  -6  -7   2   32.46    2.22
  -6  -7   2   30.73    2.09
  -6  -7   2   31.17    2.17
  -6  -7   2   31.99    2.21
  -6  -7   2   31.84    2.22
  -6   7   2   29.47    2.22
  -6   7   2   31.44    2.09
   5  -7  -2   53.61    3.77
  -5  -7   2   55.00    3.54
  -5  -7   2   55.23    3.52
  -5  -7   2   58.98    3.59
  -5  -7   2   55.34    3.46
  -5   7   2   57.40    3.60
  -5   7   2   51.79    3.36
  -5   7   2   51.66    3.48
  -4  -7   2    8.41    0.80
  -4  -7   2    7.54    0.87
  -4  -7   2    7.23    0.72
  -4  -7   2    7.44    0.72
   4  -7  -2    7.64    0.78
  -4   7   2    8.33    0.76
  -4   7   2    8.63    0.90
  -4   7   2    8.89    0.65
   3  -7  -2    0.76    0.29
  -3  -7   2    0.69    0.29
  -3  -7   2    0.69    0.25
  -3  -7   2    0.99    0.36
  -3   7   2    0.60    0.34
  -3   7   2    0.32    0.27
   2  -7  -2   65.87    4.07
  -2  -7   2   65.38    4.07
  -2  -7   2   65.09    3.98
  -2  -7   2   67.23    4.13
  -2   7   2   63.32    4.11
   2   7  -2   59.43    4.10
  -1  -7   2  167.50    9.49
  -1  -7   2  149.27    9.40
   1  -7  -2  161.55    9.47
   1  -7  -2  146.39    9.38
   1   7  -2  160.89    9.49
  -1   7   2  138.93    9.45
   0  -7   2   48.78    3.01
   0  -7  -2   49.69    3.02
   0  -7   2   51.72    3.11
   0  -7   2   47.72    2.97
   0  -7  -2   48.36    3.10
   0   7  -2   42.65    3.08
   0   7   2   43.68    3.08
  -1  -7  -2    0.70    0.29
   1  -7   2    1.16    0.24
   1  -7   2    1.14    0.34
  -1  -7  -2    1.37    0.38
   1  -7   2    1.30    0.28
   1   7   2    1.41    0.24
   1   7   2    1.10    0.34
  -1   7  -2    1.11    0.37
   2  -7   2   67.63    4.11
  -2  -7  -2   68.45    4.22
   2  -7   2   67.77    4.20
  -2  -7  -2   70.12    4.14
  -2  -7  -2   67.68    4.27
   2   7   2   58.68    4.24
   2   7   2   66.92    4.22
  -2   7  -2   67.43    4.25
   3  -7   2   64.64    4.14
  -3  -7  -2   66.15    4.06
  -3  -7  -2   66.70    4.15
  -3  -7  -2   57.37    4.16
  -3  -7  -2   67.63    4.01
  -3  -7  -2   64.85    4.08
  -3   7  -2   63.08    4.14
  -3   7  -2   71.15    4.13
   4  -7   2   29.84    2.03
  -4  -7  -2   29.23    1.93
  -4  -7  -2   28.08    1.97
  -4  -7  -2   28.45    2.01
  -4  -7  -2   30.91    1.88
  -4  -7  -2   27.94    2.03
  -4   7  -2   30.02    1.96
  -4   7  -2   27.79    1.97
  -5  -7  -2    4.20    0.63
  -5  -7  -2    4.88    0.54
  -5  -7  -2    3.89    0.47
  -5  -7  -2    3.50    0.56
  -5  -7  -2    2.73    0.50
  -5   7  -2    3.31    0.48
  -5   7  -2    4.85    0.55
  -6  -7  -2   11.51    1.05
  -6  -7  -2   12.79    1.07
  -6  -7  -2   12.02    0.98
  -6   7  -2   11.93    0.98
  -6   7  -2   10.64    0.88
  -7  -7  -2   29.46    1.97
  -7  -7  -2   27.87    1.96
  -7  -7  -2   27.44    2.07
  -7   7  -2   24.24    2.03
  -8  -7  -2    7.72    0.97
  -8  -7  -2    7.83    0.76
  -9  -7  -2    0.85    0.59
 -10  -7  -2    0.93    0.52
 -11  -7  -2    2.01    0.68
 -11  -8   2    1.05    0.50
 -10  -8   2    0.27    0.46
 -10   8   2    1.36    0.45
  -9  -8   2    2.41    0.45
  -9  -8   2    2.75    0.66
  -9   8   2    2.52    0.61
  -8  -8   2    9.36    1.15
  -8  -8   2   10.08    0.97
  -8   8   2    9.12    1.08
  -7  -8   2    5.20    0.79
  -7  -8   2    5.29    0.77
  -7  -8   2    6.98    0.88
  -7  -8   2    7.05    0.80
  -7   8   2    5.40    0.80
  -7   8   2    5.90    0.64
  -6  -8   2    1.50    0.41
  -6  -8   2    0.80    0.29
  -6  -8   2    1.38    0.43
  -6  -8   2    1.03    0.36
  -6  -8   2    0.56    0.41
  -6   8   2    0.91    0.33
  -6   8   2    0.85    0.38
  -5  -8   2    4.57    0.66
  -5  -8   2    3.39    0.51
  -5  -8   2    3.12    0.53
  -5  -8   2    3.36    0.45
  -5  -8   2    3.33    0.62
  -5   8   2    3.49    0.53
  -5   8   2    3.96    0.61
  -5   8   2    3.88    0.41
  -4  -8   2   54.39    3.54
  -4  -8   2   56.86    3.62
  -4  -8   2   53.56    3.46
   4  -8  -2   56.22    3.56
  -4  -8   2   52.13    3.48
  -4   8   2   55.13    3.40
  -4   8   2   55.50    3.53
  -4   8   2   48.74    3.55
  -3  -8   2  127.18    7.27
  -3  -8   2  111.48    7.16
   3  -8  -2  109.74    7.16
  -3  -8   2  109.23    7.07
  -3   8   2  119.78    7.20
  -2  -8   2   16.19    1.22
   2  -8  -2   15.31    1.18
  -2  -8   2   15.96    1.28
  -2   8   2   14.36    1.25
   2   8  -2   16.64    1.27
   1  -8  -2    8.82    0.86
  -1  -8   2    9.17    0.82
  -1  -8   2    9.62    0.91
  -1   8   2   10.88    0.94
   1   8  -2    8.56    0.89
   0  -8  -2   21.55    1.45
   0  -8   2   19.65    1.43
   0  -8   2   20.50    1.39
   0  -8  -2   24.70    1.59
   0  -8   2   21.33    1.55
   0   8   2   17.43    1.52
   0   8  -2   19.86    1.54
   1  -8   2   59.90    3.96
  -1  -8  -2   60.30    3.83
   1  -8   2   63.05    3.78
   1  -8   2   59.55    3.79
  -1   8  -2   56.24    3.89
   1   8   2   62.30    3.93
  -2  -8  -2   36.53    2.50
   2  -8   2   36.62    2.31
   2  -8   2   37.39    2.41
  -2  -8  -2   36.31    2.43
   2   8   2   36.49    2.49
  -2   8  -2   34.74    2.47
  -3  -8  -2    1.49    0.44
  -3  -8  -2    1.30    0.28
  -3  -8  -2    2.12    0.42
  -3  -8  -2    1.39    0.32
   3  -8   2    1.27    0.36
  -3   8  -2    1.80    0.45
  -3   8  -2    1.93    0.43
  -4  -8  -2   34.30    2.30
  -4  -8  -2   34.33    2.33
  -4  -8  -2   36.39    2.46
   4  -8   2   35.06    2.41
  -4  -8  -2   36.73    2.43
  -4   8  -2   35.54    2.34
  -4   8  -2   32.96    2.36
  -5  -8  -2   35.80    2.42
  -5  -8  -2   35.53    2.32
  -5  -8  -2   34.06    2.25
  -5  -8  -2   34.89    2.37
  -5   8  -2   32.26    2.26
  -5   8  -2   30.25    2.26
  -6  -8  -2   14.22    1.25
  -6  -8  -2   14.03    1.22
  -6   8  -2   14.28    1.14
  -6   8  -2   13.05    1.05
  -7  -8  -2    1.37    0.49
  -7  -8  -2    0.94    0.43
  -8  -8  -2    4.35    0.78
  -8  -8  -2    3.74    0.58
  -9  -8  -2    5.12    0.84
 -10  -8  -2    1.20    0.53
 -10  -9   2    3.09    0.70
 -10   9   2    3.15    0.62
  -9  -9   2    3.53    0.74
  -9  -9   2    3.18    0.54
  -9   9   2    4.33    0.72
  -8  -9   2    1.27    0.50
  -8  -9   2    1.14    0.44
  -8   9   2    1.28    0.51
  -7  -9   2    2.83    0.60
  -7  -9   2    2.96    0.63
  -7   9   2    3.71    0.67
  -7   9   2    3.57    0.53
  -6  -9   2   20.57    1.69
  -6  -9   2   22.85    1.69
  -6  -9   2   22.14    1.63
  -6  -9   2   20.30    1.58
  -6   9   2   18.79    1.54
  -6   9   2   21.57    1.68
  -5  -9   2   13.05    1.13
  -5  -9   2   14.54    1.13
  -5  -9   2   14.55    1.31
  -5  -9   2   14.94    1.27
  -5  -9   2   13.44    1.14
  -5   9   2   12.79    1.23
  -5   9   2   15.36    1.02
  -5   9   2   13.05    1.16
  -4  -9   2    6.59    0.81
  -4  -9   2    6.61    0.75
  -4  -9   2    8.13    0.99
  -4  -9   2    7.02    0.72
  -4   9   2    7.50    0.94
  -4   9   2    8.88    0.72
  -4   9   2    8.76    0.86
   3  -9  -2    5.82    0.67
  -3  -9   2    5.25    0.69
  -3  -9   2    5.28    0.79
  -3   9   2    5.96    0.76
  -3   9   2    5.14    0.79
  -2  -9   2   41.42    3.04
   2  -9  -2   42.18    2.93
  -2  -9   2   40.61    2.94
   2   9  -2   52.00    3.11
  -2   9   2   49.14    3.07
  -1  -9   2   73.40    4.57
  -1  -9   2   69.67    4.44
   1  -9  -2   79.01    4.57
   1   9  -2   67.65    4.55
  -1   9   2   61.41    4.52
   0  -9   2   26.40    1.79
   0  -9   2   28.96    1.95
   0  -9  -2   25.50    1.92
   0   9   2   27.44    1.96
   0   9  -2   22.61    1.89
   1  -9   2    5.93    0.61
   1  -9   2    5.57    0.59
  -1  -9  -2    5.12    0.64
  -1  -9  -2    7.28    0.87
   1   9   2    5.47    0.76
  -1   9  -2    6.58    0.81
  -2  -9  -2   28.21    1.97
  -2  -9  -2   28.81    2.06
   2  -9   2   27.80    1.92
  -2   9  -2   27.60    2.03
   2   9   2   26.87    2.03
  -3  -9  -2   35.81    2.46
  -3  -9  -2   33.95    2.37
   3  -9   2   35.63    2.43
  -3  -9  -2   32.39    2.50
  -3   9  -2   38.31    2.44
  -3   9  -2   38.38    2.51
  -4  -9  -2   16.12    1.43
  -4  -9  -2   15.99    1.37
  -4  -9  -2   16.96    1.27
  -4   9  -2   17.33    1.30
  -4   9  -2   17.12    1.36
  -5  -9  -2    1.07    0.40
  -5  -9  -2    0.81    0.44
  -5   9  -2    0.27    0.29
  -5   9  -2    0.54    0.18
  -5   9  -2    0.58    0.33
  -6  -9  -2    8.77    0.97
  -6  -9  -2    7.97    0.98
  -6   9  -2    8.22    0.80
  -7  -9  -2   14.99    1.32
  -7  -9  -2   13.66    1.29
  -8  -9  -2    5.07    0.85
  -8  -9  -2    5.61    0.76
  -9  -9  -2    0.47    0.47
 -10  -9  -2    0.57    0.50
 -10 -10   2    0.61    0.43
  -9 -10   2    1.56    0.53
  -9 -10   2    1.42    0.45
  -9  10   2    1.34    0.49
  -8 -10   2    5.71    0.84
  -8 -10   2    7.83    0.94
  -8  10   2    5.94    0.88
  -7 -10   2    7.52    1.04
  -7 -10   2    8.28    0.97
  -7  10   2    8.87    0.85
  -7  10   2    8.00    1.04
  -6 -10   2    0.69    0.52
  -6 -10   2    1.45    0.45
  -6  10   2    1.83    0.53
  -6  10   2    1.54    0.45
  -5 -10   2    1.44    0.38
  -5 -10   2    2.52    0.61
  -5 -10   2    2.18    0.54
  -5 -10   2    1.24    0.54
  -5  10   2    1.81    0.36
  -5  10   2    1.13    0.45
  -5  10   2    1.01    0.40
  -4 -10   2   27.27    1.89
  -4 -10   2   25.89    2.06
  -4 -10   2   31.40    2.03
  -4  10   2   28.02    1.82
  -4  10   2   23.87    1.96
  -4  10   2   23.21    1.98
  -3 -10   2   32.87    2.35
  -3 -10   2   32.08    2.22
  -3  10   2   23.67    2.22
  -3  10   2   36.10    2.32
  -2 -10   2    9.00    0.97
  -2 -10   2   11.19    1.13
   2  10  -2   12.16    1.15
  -2  10   2   12.40    1.14
  -1 -10   2    3.08    0.49
  -1 -10   2    2.64    0.61
   1  10  -2    3.81    0.66
  -1  10   2    2.58    0.62
   0 -10   2   28.08    2.04
   0 -10   2   28.57    2.18
   0 -10  -2   30.94    2.21
   0  10   2   32.63    2.26
   0  10  -2   30.53    2.22
   1 -10   2   31.79    2.27
  -1 -10  -2   35.90    2.51
   1  10   2   36.05    2.51
  -1  10  -2   35.76    2.50
   2 -10   2   23.22    1.75
  -2 -10  -2   26.92    1.94
   2  10   2   23.39    1.88
  -2  10  -2   25.64    1.92
  -3 -10  -2    0.05    0.39
  -3  10  -2    0.35    0.30
  -3  10  -2    0.65    0.39
  -4 -10  -2   26.50    1.92
  -4  10  -2   21.99    1.67
  -4  10  -2   20.61    1.74
  -5 -10  -2   20.92    1.49
  -5 -10  -2   17.35    1.64
  -5  10  -2   17.16    1.24
  -5  10  -2   20.08    1.52
  -5  10  -2   20.56    1.48
  -6 -10  -2   11.07    1.19
  -6 -10  -2   10.20    1.03
  -6  10  -2   10.07    0.96
  -7 -10  -2    0.01    0.38
  -7 -10  -2    0.11    0.43
  -7  10  -2    0.43    0.32
  -8 -10  -2    1.24    0.47
  -8 -10  -2    1.69    0.52
  -9 -10  -2    3.97    0.74
  -9 -10  -2    4.38    0.65
  -9 -11   2    3.41    0.57
  -9 -11   2    2.39    0.59
  -8 -11   2    2.23    0.55
  -8 -11   2    0.58    0.46
  -8  11   2    1.02    0.51
  -7 -11   2    0.83    0.51
  -7  11   2    1.21    0.57
  -7  11   2    1.69    0.45
  -6 -11   2   14.25    1.43
  -6  11   2   14.48    1.32
  -6  11   2   16.33    1.42
  -5 -11   2   16.58    1.68
  -5  11   2   19.64    1.65
  -5  11   2   20.05    1.38
  -5  11   2   20.72    1.62
  -4 -11   2    2.24    0.57
  -4 -11   2    2.85    0.67
  -4 -11   2    2.17    0.64
  -4  11   2    3.43    0.52
  -4  11   2    2.89    0.63
  -4  11   2    3.15    0.67
  -3 -11   2    1.29    0.46
  -3 -11   2    1.22    0.50
  -3  11   2    1.26    0.52
  -3  11   2    2.65    0.65
  -2 -11   2   17.75    1.54
  -2 -11   2   15.72    1.37
   2  11  -2   18.32    1.55
  -2  11   2   17.42    1.52
  -1 -11   2   46.47    3.23
  -1 -11   2   41.55    3.05
  -1  11   2   49.24    3.27
   1  11  -2   48.83    3.26
   0 -11   2   18.10    1.43
   0 -11   2   16.88    1.58
   0 -11  -2   21.87    1.67
   0  11   2   18.58    1.63
   0  11  -2   21.59    1.68
  -1 -11  -2    3.02    0.69
   1  11   2    2.37    0.62
  -1  11  -2    1.91    0.55
  -2 -11  -2   21.96    1.89
   2  11   2   24.63    1.91
  -2  11  -2   23.43    1.88
  -3 -11  -2   25.87    2.13
  -3  11  -2   27.07    1.99
  -3  11  -2   28.62    2.13
  -4 -11  -2   18.10    1.56
  -4  11  -2   15.20    1.30
  -4  11  -2   15.27    1.42
  -5 -11  -2    1.72    0.59
  -5  11  -2    1.03    0.25
  -5  11  -2    0.92    0.46
  -6 -11  -2    5.14    0.85
  -6  11  -2    5.05    0.71
  -7 -11  -2    5.98    0.94
  -7  11  -2    6.20    0.81
  -8 -11  -2    2.90    0.61
  -8 -11  -2    3.06    0.61
  -9 -11  -2    1.35    0.44
  -9 -11  -2    0.45    0.39
  -8 -12   2    4.24    0.75
  -8  12   2    5.23    0.77
  -7 -12   2    7.28    1.07
  -7  12   2    9.25    0.94
  -7  12   2    7.75    1.01
  -6 -12   2    1.30    0.62
  -6  12   2    2.89    0.70
  -6  12   2    1.72    0.53
  -5 -12   2    2.95    0.73
  -5  12   2    3.32    0.72
  -5  12   2    4.52    0.76
  -5  12   2    3.59    0.50
  -4 -12   2   13.61    1.46
  -4  12   2   13.27    1.35
  -4  12   2   13.80    1.35
  -4  12   2   15.09    1.15
  -3 -12   2   20.41    1.59
  -3 -12   2   22.18    1.80
  -3  12   2   14.35    1.59
  -3  12   2   20.37    1.71
  -2 -12   2    6.04    0.98
  -2 -12   2    7.25    0.82
  -2  12   2    7.26    0.99
   2  12  -2    7.14    1.03
  -1 -12   2    0.72    0.36
  -1 -12   2    0.67    0.45
  -1  12   2    0.76    0.52
   1  12  -2    1.61    0.54
   0 -12  -2   17.34    1.68
   0  12   2   21.33    1.74
   0  12  -2   19.78    1.72
  -1 -12  -2   27.73    2.38
   1  12   2   32.52    2.44
  -1  12  -2   34.21    2.47
  -2 -12  -2   10.67    1.30
  -2  12  -2   10.81    1.27
  -3 -12  -2    0.24    0.46
  -3  12  -2    0.36    0.38
  -3  12  -2    0.10    0.45
  -4 -12  -2    6.52    1.06
  -4  12  -2    5.76    0.78
  -4  12  -2    6.21    0.93
  -5 -12  -2   14.05    1.54
  -5  12  -2   15.66    1.38
  -6 -12  -2    5.27    0.91
  -6  12  -2    4.44    0.72
  -7 -12  -2    0.48    0.53
  -8 -12  -2    0.53    0.43
  -8 -13   2    0.24    0.44
  -7 -13   2    2.42    0.72
  -7  13   2    1.15    0.45
  -7  13   2    1.15    0.48
  -6 -13   2    8.09    1.16
  -6  13   2    7.90    1.03
  -6  13   2    8.62    1.05
  -5 -13   2   10.42    1.36
  -5  13   2   12.37    0.96
  -5  13   2   10.97    1.27
  -5  13   2   10.98    1.25
  -4 -13   2    1.13    0.56
  -4  13   2    1.32    0.52
  -4  13   2    2.28    0.48
  -4  13   2    0.43    0.55
  -3 -13   2    2.04    0.72
  -3  13   2    2.11    0.50
  -3  13   2    2.31    0.68
  -3  13   2    2.63    0.66
  -2 -13   2    8.37    1.20
  -2  13   2   11.16    1.29
  -2  13   2    8.14    1.18
   2  13  -2   10.46    1.27
  -1 -13   2   18.91    1.75
  -1  13   2   19.17    1.76
   1  13  -2   19.33    1.77
   0  13   2   10.25    1.32
   0  13  -2   10.20    1.36
  -1 -13  -2    0.88    0.57
  -1  13  -2    1.43    0.62
   1  13   2    0.75    0.58
  -2 -13  -2   12.65    1.53
  -2  13  -2   13.59    1.27
  -2  13  -2   12.18    1.37
  -3 -13  -2   15.15    1.56
  -3  13  -2   14.00    1.45
  -3  13  -2   15.11    1.32
  -4 -13  -2    5.56    1.06
  -4  13  -2    6.22    0.98
  -4  13  -2    7.56    0.76
  -5 -13  -2    0.53    0.52
  -5  13  -2    0.42    0.48
  -6 -13  -2    1.74    0.64
  -6  13  -2    3.35    0.62
  -7 -13  -2    5.77    0.86
  -7 -14   2    3.52    0.67
  -6 -14   2    0.27    0.46
  -6  14   2    0.74    0.45
  -6  14   2    0.18    0.40
  -5 -14   2    0.80    0.56
  -5  14   2    1.35    0.60
  -5  14   2    0.73    0.48
  -4 -14   2    8.94    1.21
  -4  14   2    7.07    1.10
  -4  14   2    8.72    0.87
  -4  14   2    6.95    0.98
  -3 -14   2   11.33    1.44
  -3  14   2   13.30    1.11
  -3  14   2    9.75    1.27
  -3  14   2   10.04    1.33
  -2 -14   2    5.10    0.98
  -2  14   2    4.83    0.92
  -2  14   2    3.13    0.76
  -1  14   2    0.81    0.60
   1  14  -2    0.06    0.59
   0  14  -2   10.85    1.43
   0  14   2   13.95    1.58
  -1 -14  -2   14.25    1.58
   1  14   2   15.17    1.57
  -1  14  -2   15.76    1.60
  -2 -14  -2    6.02    1.02
  -2  14  -2    4.11    0.89
  -2  14  -2    5.68    0.88
  -3 -14  -2   -0.01    0.48
  -3  14  -2   -0.05    0.46
  -4 -14  -2    4.15    0.85
  -4  14  -2    4.53    0.87
  -4  14  -2    5.01    0.63
  -5 -14  -2    7.59    1.16
  -5  14  -2    9.22    1.11
  -6 -14  -2    6.66    1.06
  -6  14  -2    5.02    0.76
  -5 -15   2    9.23    1.25
  -5  15   2    5.98    0.95
  -5  15   2    6.41    0.92
  -4 -15   2    1.80    0.67
  -4  15   2    2.25    0.72
  -4  15   2    2.19    0.48
  -4  15   2    1.60    0.56
  -3 -15   2    0.88    0.64
  -3  15   2    1.54    0.45
  -3  15   2    1.24    0.59
  -3  15   2    1.59    0.63
  -2 -15   2    7.57    1.16
  -2  15   2    5.53    0.99
  -2  15   2    7.56    0.90
  -2  15   2    8.05    1.11
   1  15  -2   10.33    1.37
  -1  15   2    7.44    1.21
  -1  15   2    9.87    1.35
   0  15  -2    5.99    1.04
   0  15   2    4.70    0.91
   1  15   2    0.35    0.53
  -1  15  -2   -0.21    0.42
  -1  15  -2    0.56    0.51
  -2 -15  -2    7.51    1.18
  -2  15  -2    7.51    1.13
  -3 -15  -2    6.52    1.07
  -3  15  -2    9.00    1.17
  -3  15  -2    6.64    0.80
  -4 -15  -2    3.45    0.81
  -4  15  -2    3.71    0.51
  -4  15  -2    3.83    0.77
  -5 -15  -2   -0.26    0.55
  -5  15  -2    0.54    0.48
  -3 -16   2    6.48    1.03
  -3  16   2    7.18    0.80
  -3  16   2    5.40    0.91
  -3  16   2    6.43    1.06
  -2  16   2    1.65    0.70
  -2  16   2    1.72    0.57
  -2  16   2    1.77    0.54
  -1  16   2    0.81    0.60
  -1  16   2    0.51    0.59
  -1  16   2    0.12    0.42
   1  16  -2    1.27    0.57
   0  16   2    5.14    1.01
   0  16  -2    5.25    0.95
  -1  16  -2    6.22    0.99
  -2 -16  -2    2.85    0.81
  -2  16  -2    2.22    0.66
  -3 -16  -2    0.88    0.60
  -3  16  -2    0.27    0.50
  -3  16  -2    0.26    0.37
 -12   0   3    0.10    0.44
 -12   0   3   -0.47    0.37
 -11   0   3    1.12    0.50
 -11   0   3    0.73    0.57
 -10   0   3   10.48    1.16
 -10   0   3    9.76    1.14
  -9   0   3    8.49    1.05
  -9   0   3    8.50    1.00
  -9   0   3    8.49    0.97
  -8   0   3    9.19    0.91
  -8   0   3    8.65    0.99
  -8   0   3    9.68    0.94
  -8   0   3    9.33    0.92
  -7   0   3    1.50    0.34
   7   0  -3    1.78    0.35
  -7   0   3    2.23    0.46
   7   0  -3    1.88    0.34
  -7   0   3    2.38    0.51
  -7   0   3    2.12    0.43
  -6   0   3   80.72    5.01
  -6   0   3   80.55    5.05
  -6   0   3   79.76    5.06
  -6   0   3   80.01    4.94
   6   0  -3   79.50    5.00
  -6   0   3   76.40    5.04
   6   0  -3   86.36    4.99
  -5   0   3  117.40    7.20
  -5   0   3  115.74    7.08
  -5   0   3  120.72    7.12
   5   0  -3  117.63    7.14
   5   0  -3  114.82    7.15
  -5   0   3  114.58    7.16
  -5   0   3  119.52    7.19
  -4   0   3  173.99   10.39
  -4   0   3  175.43   10.44
  -4   0   3  170.62   10.45
  -4   0   3  172.29   10.42
   4   0  -3  166.75   10.41
  -4   0   3  173.96   10.38
  -3   0   3   36.08    2.28
   3   0  -3   35.34    2.25
  -3   0   3   35.60    2.26
  -3   0   3   37.32    2.25
  -3   0   3   36.53    2.26
  -2   0   3  199.99   11.87
  -2   0   3  194.07   11.86
  -2   0   3  196.55   11.88
   2   0  -3  196.40   11.90
   2   0  -3  198.98   11.87
   1   0  -3   91.58    5.62
   0   0  -3  345.31   20.77
   1   0   3   70.60    4.28
   2   0   3  200.29   12.05
  -3   0  -3  410.82   24.71
  -4   0  -3  102.54    6.26
  -4   0  -3  102.37    6.16
  -4   0  -3  101.30    6.26
  -5   0  -3    5.03    0.57
  -5   0  -3    4.05    0.52
  -5   0  -3    4.73    0.50
   5   0   3    5.77    0.42
  -6   0  -3    1.64    0.36
  -6   0  -3    1.81    0.40
  -6   0  -3    1.77    0.36
  -7   0  -3   26.20    1.81
   7   0   3   25.31    1.81
  -7   0  -3   26.52    1.86
  -8   0  -3   37.60    2.64
  -8   0  -3   38.99    2.60
  -9   0  -3    4.80    0.69
  -9   0  -3    4.85    0.77
 -10   0  -3   -0.25    0.35
 -10   0  -3   -0.04    0.39
 -11   0  -3    2.50    0.66
 -12   0  -3    1.66    0.54
 -12  -1   3    2.63    0.66
 -12  -1   3    2.72    0.64
 -12   1   3    1.43    0.57
 -11  -1   3    2.75    0.69
 -11  -1   3    2.43    0.58
 -11   1   3    2.64    0.62
 -11   1   3    2.74    0.70
 -10  -1   3    2.37    0.64
 -10  -1   3    2.42    0.62
 -10   1   3    2.82    0.67
 -10   1   3    2.47    0.58
  -9  -1   3   -0.14    0.39
  -9  -1   3    0.33    0.40
  -9  -1   3    0.19    0.41
  -9   1   3    0.64    0.47
  -9   1   3    0.21    0.36
  -9   1   3    0.47    0.36
   8  -1  -3   19.82    1.49
  -8  -1   3   23.97    1.71
  -8  -1   3   23.22    1.71
  -8  -1   3   23.09    1.66
  -8  -1   3   21.87    1.58
  -8   1   3   20.63    1.57
  -8   1   3   21.97    1.64
  -8   1   3   22.82    1.67
  -8   1   3   21.01    1.65
  -7  -1   3   55.51    3.50
  -7  -1   3   55.53    3.60
  -7  -1   3   54.28    3.59
  -7  -1   3   54.91    3.54
   7  -1  -3   55.33    3.46
  -7  -1   3   55.16    3.61
   7  -1  -3   56.29    3.55
  -7   1   3   55.16    3.59
  -7   1   3   56.43    3.61
  -7   1   3   56.57    3.54
  -7   1   3   52.97    3.56
  -6  -1   3    5.75    0.52
  -6  -1   3    6.14    0.66
  -6  -1   3    7.24    0.74
  -6  -1   3    5.20    0.56
  -6  -1   3    6.49    0.43
   6  -1  -3    5.59    0.55
  -6  -1   3    7.17    0.73
  -6   1   3    4.38    0.60
  -6   1   3    4.93    0.57
   6   1  -3    4.88    0.51
  -6   1   3    5.15    0.59
  -6   1   3    4.68    0.59
  -5  -1   3   14.15    1.01
  -5  -1   3   13.60    0.93
  -5  -1   3   13.33    0.88
   5  -1  -3   11.76    0.94
  -5  -1   3   12.50    0.94
  -5  -1   3   12.64    0.98
  -5  -1   3   11.66    0.97
   5   1  -3   12.68    0.91
  -5   1   3   13.76    0.84
  -5   1   3   13.23    0.95
  -5   1   3   13.05    0.96
  -5   1   3   13.24    0.86
  -5   1   3   13.39    0.98
   5   1  -3   12.50    0.96
  -4  -1   3   61.41    3.91
   4  -1  -3   61.65    3.94
  -4  -1   3   60.84    3.95
  -4  -1   3   59.12    3.95
  -4  -1   3   60.45    3.92
  -4  -1   3   60.94    3.90
  -4   1   3   67.51    3.94
   4   1  -3   63.22    3.90
   4   1  -3   64.68    3.96
  -4   1   3   64.67    3.94
  -4   1   3   63.49    3.95
  -4   1   3   67.99    3.88
  -4   1   3   70.65    3.89
  -3  -1   3  302.36   19.92
   3  -1  -3  338.03   19.92
  -3  -1   3  343.56   19.91
  -3  -1   3  339.01   19.93
  -3   1   3  334.96   19.92
  -3   1   3  332.60   19.87
  -3   1   3  334.07   19.92
   3   1  -3  319.28   19.95
   3   1  -3  330.89   19.88
  -3   1   3  335.38   19.90
   2  -1  -3  471.80   28.13
  -2  -1   3  463.39   28.12
  -2  -1   3  460.01   28.12
   2  -1  -3  485.16   28.15
  -2  -1   3  474.03   28.09
   2   1  -3  438.99   28.16
  -2   1   3  476.47   28.10
  -2   1   3  476.15   28.11
  -2   1   3  469.91   28.12
  -1  -1   3   42.98    2.74
  -1   1   3   44.88    2.72
  -1   1   3   45.23    2.75
  -1  -1  -3  234.34   12.96
  -1  -1  -3  211.59   13.02
   1   1   3  204.86   12.95
   1   1   3  212.32   12.96
  -2  -1  -3  164.79    9.50
   2   1   3  164.60    9.49
   2   1   3  143.43    9.55
  -3  -1  -3   52.57    3.17
  -3  -1  -3   51.37    3.13
  -3  -1  -3   51.18    3.15
   3   1   3   48.69    3.15
  -4  -1  -3   26.57    1.75
  -4  -1  -3   26.32    1.73
  -4  -1  -3   26.78    1.67
  -4   1  -3   27.02    1.63
  -4   1  -3   25.58    1.73
   4   1   3   26.17    1.70
  -5  -1  -3  106.76    6.49
  -5  -1  -3  106.02    6.47
  -5  -1  -3  101.37    6.37
  -5  -1  -3  106.09    6.51
  -5   1  -3  105.92    6.49
  -5   1  -3  106.93    6.45
  -6  -1  -3   47.40    3.29
   6  -1   3   50.61    3.29
  -6  -1  -3   52.16    3.29
  -6  -1  -3   52.43    3.26
  -6   1  -3   50.06    3.24
  -6   1  -3   53.38    3.29
   7  -1   3    5.13    0.60
  -7  -1  -3    4.34    0.60
  -7  -1  -3    4.28    0.64
  -7  -1  -3    4.58    0.61
  -7   1  -3    3.95    0.59
  -7   1  -3    5.16    0.60
   7   1   3    3.46    0.50
  -8  -1  -3    0.96    0.42
  -8  -1  -3    1.65    0.44
  -8   1  -3    0.73    0.32
  -8   1  -3    0.49    0.42
  -9  -1  -3    9.66    1.02
  -9  -1  -3   10.98    1.20
  -9   1  -3   10.84    1.03
  -9   1  -3   10.97    1.06
 -10  -1  -3   11.10    1.22
 -10   1  -3   11.52    1.25
 -11  -1  -3    1.88    0.56
 -11   1  -3    2.75    0.62
 -12  -1  -3    0.14    0.43
 -12  -2   3    0.53    0.51
 -12  -2   3    0.39    0.59
 -12   2   3    0.52    0.51
 -11  -2   3    1.90    0.58
 -11  -2   3    3.08    0.71
 -11   2   3    0.66    0.44
 -10  -2   3    5.63    0.87
 -10  -2   3    5.11    0.87
 -10   2   3    5.70    0.91
 -10   2   3    5.66    0.78
  -9  -2   3   17.73    1.53
  -9  -2   3   14.93    1.50
  -9   2   3   18.37    1.43
  -9   2   3   18.92    1.51
  -8  -2   3    4.23    0.59
  -8  -2   3    4.69    0.77
  -8  -2   3    5.58    0.78
  -8   2   3    7.15    0.80
  -8   2   3    7.89    0.82
  -8   2   3    5.96    0.76
  -7  -2   3    0.67    0.35
  -7  -2   3    0.17    0.36
   7  -2  -3    0.80    0.26
  -7  -2   3    0.81    0.15
  -7  -2   3    0.48    0.25
  -7  -2   3    0.71    0.25
  -7  -2   3    0.81    0.34
  -7   2   3    0.29    0.28
  -7   2   3    1.10    0.42
  -7   2   3    0.69    0.30
  -6  -2   3   28.33    1.97
  -6  -2   3   29.64    1.91
  -6  -2   3   30.54    2.00
  -6  -2   3   28.79    1.93
   6  -2  -3   30.78    1.97
  -6  -2   3   27.91    1.84
  -6  -2   3   30.84    2.01
  -6   2   3   28.96    1.97
  -6   2   3   28.20    1.93
  -6   2   3   29.42    1.99
  -6   2   3   27.70    1.92
   6   2  -3   27.19    1.85
   5  -2  -3  178.22   10.90
  -5  -2   3  173.76   10.82
  -5  -2   3  189.73   10.87
  -5  -2   3  185.01   10.91
  -5  -2   3  180.13   10.90
  -5  -2   3  178.19   10.86
  -5  -2   3  180.99   10.91
  -5   2   3  170.57   10.88
  -5   2   3  172.57   10.86
   5   2  -3  179.08   10.81
  -5   2   3  181.13   10.87
  -5   2   3  181.81   10.92
  -5   2   3  175.44   10.78
  -4  -2   3   52.07    2.82
  -4  -2   3   47.31    2.86
  -4  -2   3   45.80    2.83
  -4  -2   3   46.53    2.85
  -4  -2   3   46.90    2.86
  -4  -2   3   52.91    2.83
   4  -2  -3   44.32    2.85
  -4  -2   3   42.74    2.81
   4   2  -3   41.57    2.75
  -4   2   3   42.39    2.73
  -4   2   3   43.02    2.81
  -4   2   3   39.58    2.78
  -4   2   3   45.74    2.90
  -4   2   3   43.35    2.86
  -4   2   3   42.40    2.83
  -3  -2   3    2.09    0.26
  -3  -2   3    1.82    0.28
  -3  -2   3    1.07    0.24
  -3  -2   3    1.69    0.24
   3  -2  -3    1.10    0.23
  -3   2   3    1.84    0.23
  -3   2   3    1.43    0.21
   3   2  -3    1.18    0.15
  -3   2   3    1.58    0.25
  -3   2   3    1.82    0.17
  -3   2   3    1.74    0.24
   2  -2  -3   85.82    5.12
   2  -2  -3   87.31    5.15
   2  -2  -3   84.78    5.17
  -2  -2   3   83.63    5.08
  -2  -2   3   87.86    5.16
  -2   2   3   83.60    5.16
  -2   2   3   81.28    5.13
  -2   2   3   82.33    5.12
  -1  -2   3  188.35   11.90
   1  -2  -3  189.97   11.86
   1  -2  -3  187.52   11.91
  -1   2   3  211.27   11.91
  -1   2   3  208.71   11.86
   0  -2   3  137.16    8.27
  -1  -2  -3   40.63    2.48
  -2  -2  -3  181.32   10.76
  -2  -2  -3  173.21   10.78
  -2  -2  -3  181.07   10.74
  -3  -2  -3  250.48   15.11
  -3  -2  -3  265.72   15.14
  -3  -2  -3  253.16   15.16
  -3  -2  -3  246.26   15.13
  -3   2  -3  240.02   15.10
  -4  -2  -3   77.53    4.78
  -4  -2  -3   76.97    4.81
  -4  -2  -3   80.10    4.79
  -4  -2  -3   78.02    4.84
  -4   2  -3   76.57    4.80
  -4   2  -3   78.97    4.73
  -5  -2  -3   15.88    0.97
  -5  -2  -3   14.61    1.05
  -5  -2  -3   14.21    1.04
   5  -2   3   12.91    1.07
  -5  -2  -3   13.88    1.07
  -5  -2  -3   14.39    1.01
  -5   2  -3   13.05    0.99
  -5   2  -3   12.83    1.01
   6  -2   3    4.48    0.57
  -6  -2  -3    4.49    0.64
  -6  -2  -3    4.49    0.39
  -6  -2  -3    4.49    0.58
  -6  -2  -3    4.29    0.54
  -6   2  -3    5.66    0.53
  -6   2  -3    7.42    0.68
  -7  -2  -3   27.45    1.89
  -7  -2  -3   29.78    1.90
   7  -2   3   26.39    1.97
  -7  -2  -3   26.21    1.92
  -7   2  -3   25.98    1.83
  -7   2  -3   25.40    1.85
   7   2   3   25.22    1.97
  -8  -2  -3   14.08    1.27
  -8  -2  -3   16.41    1.29
  -8  -2  -3   16.43    1.39
  -8   2  -3   16.05    1.25
  -8   2  -3   16.03    1.28
  -9  -2  -3    5.29    0.86
  -9  -2  -3    5.34    0.83
  -9   2  -3    5.47    0.78
  -9   2  -3    6.91    0.84
 -10  -2  -3    0.88    0.48
 -10  -2  -3    0.43    0.51
 -10   2  -3    0.98    0.45
 -11  -2  -3    3.24    0.68
 -11  -2  -3    1.01    0.53
 -12  -2  -3    1.89    0.62
 -12  -3   3    2.41    0.70
 -12  -3   3    1.20    0.64
 -12   3   3    2.20    0.59
 -11  -3   3    3.66    0.83
 -11  -3   3    4.59    0.88
 -11   3   3    3.15    0.75
 -10  -3   3    0.27    0.52
 -10  -3   3    0.07    0.54
 -10   3   3    0.64    0.44
  -9  -3   3    0.78    0.46
  -9  -3   3    1.40    0.60
  -9   3   3    1.43    0.51
  -9   3   3    1.00    0.41
  -8  -3   3   22.87    1.76
  -8  -3   3   22.88    1.68
  -8  -3   3   23.18    1.84
  -8  -3   3   23.97    1.82
  -8   3   3   23.23    1.69
  -8   3   3   25.11    1.81
  -7  -3   3   52.25    3.49
  -7  -3   3   53.68    3.29
   7  -3  -3   53.14    3.46
  -7  -3   3   51.66    3.48
  -7  -3   3   50.37    3.38
  -7  -3   3   52.99    3.45
  -7  -3   3   51.16    3.38
  -7   3   3   54.48    3.49
  -7   3   3   55.01    3.40
  -6  -3   3   27.00    2.02
  -6  -3   3   28.33    2.10
  -6  -3   3   31.65    2.13
   6  -3  -3   29.97    2.10
  -6  -3   3   31.68    2.00
  -6  -3   3   29.89    2.09
  -6  -3   3   29.40    2.05
  -6   3   3   34.00    2.12
  -6   3   3   34.72    2.15
  -6   3   3   32.78    2.04
  -5  -3   3   -0.17    0.26
  -5  -3   3    0.21    0.19
  -5  -3   3    0.26    0.20
  -5  -3   3    0.51    0.23
  -5  -3   3    0.38    0.27
  -5  -3   3    0.40    0.21
   5  -3  -3    0.16    0.23
  -5   3   3    0.33    0.22
  -5   3   3    0.15    0.27
  -5   3   3    0.40    0.19
   5   3  -3    0.33    0.11
  -5   3   3    0.51    0.19
  -4  -3   3   17.11    1.18
  -4  -3   3   15.95    1.17
  -4  -3   3   15.76    1.18
  -4  -3   3   15.53    1.16
  -4  -3   3   17.12    1.16
   4  -3  -3   16.03    1.18
  -4   3   3   17.02    1.19
  -4   3   3   15.95    1.15
  -4   3   3   18.05    1.11
  -4   3   3   16.96    1.03
  -3  -3   3   77.79    4.92
  -3  -3   3   84.01    4.92
   3  -3  -3   78.94    4.93
  -3  -3   3   79.48    4.92
  -3  -3   3   75.01    4.91
  -3  -3   3   79.15    4.91
  -3   3   3   75.88    4.85
  -3   3   3   81.63    4.89
  -3   3   3   83.35    4.93
  -3   3   3   83.57    4.89
  -2  -3   3  196.29   11.81
   2  -3  -3  196.92   11.74
  -2  -3   3  190.49   11.79
   2  -3  -3  192.60   11.80
  -2   3   3  202.78   11.79
  -2   3   3  191.50   11.80
  -1  -3   3    7.06    0.55
   1  -3  -3    7.00    0.57
   1  -3  -3    6.86    0.47
   1  -3  -3    7.13    0.48
  -1   3   3    7.69    0.56
   0  -3   3  371.88   22.31
   0   3   3  370.87   22.32
   1  -3   3  285.51   17.70
  -1  -3  -3  300.66   17.66
  -1  -3  -3  297.31   17.68
  -2  -3  -3   51.33    3.02
   2  -3   3   45.99    2.94
  -2  -3  -3   48.23    2.94
  -2  -3  -3   47.98    2.96
  -2   3  -3   47.82    2.99
  -3  -3  -3   51.44    3.32
  -3  -3  -3   53.10    3.36
  -3  -3  -3   55.06    3.35
  -3  -3  -3   54.07    3.29
  -3   3  -3   54.55    3.31
  -4  -3  -3    3.94    0.44
  -4  -3  -3    3.34    0.35
   4  -3   3    2.40    0.38
  -4  -3  -3    3.03    0.42
  -4  -3  -3    3.79    0.40
  -4  -3  -3    3.54    0.41
  -4   3  -3    3.67    0.32
  -4   3  -3    4.18    0.40
  -5  -3  -3  115.16    6.88
  -5  -3  -3  114.67    6.93
  -5  -3  -3  112.41    6.92
  -5  -3  -3  111.68    6.96
   5  -3   3  111.17    6.97
  -5  -3  -3  111.04    6.87
  -5   3  -3  109.96    6.88
  -5   3  -3  113.89    6.89
  -6  -3  -3   53.64    3.44
  -6  -3  -3   53.86    3.50
  -6  -3  -3   56.54    3.50
  -6  -3  -3   59.38    3.40
   6  -3   3   55.11    3.54
  -6  -3  -3   51.57    3.53
  -6   3  -3   50.34    3.44
  -6   3  -3   54.69    3.47
  -7  -3  -3    2.43    0.57
  -7  -3  -3    3.20    0.51
  -7  -3  -3    2.97    0.53
  -7   3  -3    4.16    0.53
  -7   3  -3    4.71    0.59
  -8  -3  -3    1.25    0.47
  -8  -3  -3    0.19    0.47
  -8  -3  -3    0.65    0.34
  -8   3  -3    1.12    0.41
  -8   3  -3    0.91    0.35
  -9  -3  -3    5.03    0.79
  -9  -3  -3    5.50    0.83
 -10  -3  -3    7.38    0.97
 -10  -3  -3    6.38    0.92
 -11  -3  -3    1.66    0.65
 -12  -4   3    0.32    0.51
 -12  -4   3    0.65    0.57
 -12   4   3    0.09    0.39
 -11  -4   3    0.66    0.62
 -11  -4   3    0.63    0.52
 -11   4   3    0.37    0.40
 -10  -4   3   10.54    1.22
 -10  -4   3   10.51    1.29
 -10   4   3    8.42    1.06
  -9  -4   3   11.03    1.26
  -9  -4   3   10.68    1.21
  -9   4   3    9.82    1.13
  -8  -4   3    8.76    0.83
  -8  -4   3    8.26    1.02
  -8  -4   3    8.02    0.90
  -8  -4   3    8.44    0.79
  -8  -4   3    6.72    0.94
  -8  -4   3    6.64    0.59
  -8   4   3    8.68    1.00
  -7  -4   3   -0.59    0.30
  -7  -4   3    0.05    0.23
  -7  -4   3    0.25    0.22
  -7  -4   3    0.70    0.43
  -7  -4   3   -0.09    0.28
  -7  -4   3    0.00    0.18
  -7   4   3    0.06    0.34
  -6  -4   3   36.53    2.49
  -6  -4   3   40.73    2.44
   6  -4  -3   34.83    2.50
  -6  -4   3   36.35    2.43
  -6  -4   3   37.06    2.52
  -6  -4   3   37.17    2.51
  -6  -4   3   34.56    2.45
  -6   4   3   39.26    2.53
  -6   4   3   38.01    2.57
  -6   4   3   37.22    2.34
  -5  -4   3   88.61    5.70
  -5  -4   3   88.00    5.74
  -5  -4   3   93.39    5.77
  -5  -4   3   92.76    5.76
  -5  -4   3  100.83    5.73
   5  -4  -3   95.35    5.78
  -5  -4   3   92.86    5.74
  -5   4   3   88.35    5.65
  -5   4   3   93.47    5.66
  -5   4   3   90.66    5.77
  -4  -4   3   69.14    4.06
   4  -4  -3   64.35    4.07
  -4  -4   3   64.61    4.05
  -4  -4   3   66.03    4.05
  -4  -4   3   65.30    4.05
  -4  -4   3   68.37    4.07
  -4   4   3   57.43    3.93
  -4   4   3   66.06    4.08
  -4   4   3   63.05    4.00
  -3  -4   3   14.59    1.09
   3  -4  -3   15.66    1.11
  -3  -4   3   18.08    1.12
  -3  -4   3   15.79    1.15
  -3  -4   3   15.50    1.07
  -3   4   3   14.18    1.11
  -3   4   3   13.81    1.01
  -3   4   3   16.16    0.97
  -3   4   3   15.09    1.07
  -2  -4   3   94.70    5.99
   2  -4  -3   97.85    5.92
   2  -4  -3   93.60    6.00
  -2  -4   3   98.86    6.02
  -2   4   3  104.35    6.00
  -2   4   3   97.82    6.00
   1  -4  -3  250.16   15.42
   1  -4  -3  258.04   15.34
   1  -4  -3  244.86   15.35
  -1  -4   3  257.71   15.42
  -1  -4   3  258.92   15.35
  -1   4   3  263.31   15.42
   0  -4   3  340.29   21.35
   0  -4   3  352.92   21.34
   0   4   3  355.21   21.36
   0   4  -3  372.39   21.45
   1  -4   3   25.29    1.53
   1  -4   3   24.20    1.49
  -1  -4  -3   22.97    1.55
   1   4   3   23.08    1.51
  -1   4  -3   21.23    1.53
   2  -4   3   25.99    1.61
  -2  -4  -3   26.78    1.63
  -2  -4  -3   27.01    1.67
  -2  -4  -3   25.98    1.60
   2  -4   3   26.97    1.70
  -2  -4  -3   21.87    1.68
  -3  -4  -3   98.16    5.80
  -3  -4  -3   90.81    5.88
  -3  -4  -3   99.09    5.83
   3  -4   3   96.79    5.90
  -3  -4  -3   97.20    5.88
   3  -4   3   98.13    5.77
  -3  -4  -3   99.12    5.87
  -3   4  -3   84.92    5.83
  -4  -4  -3   96.37    5.92
  -4  -4  -3   91.26    5.93
  -4  -4  -3   93.75    5.89
  -4  -4  -3   93.65    5.92
  -4  -4  -3   97.03    5.86
   4  -4   3   92.56    5.95
  -4   4  -3  105.82    5.87
  -5  -4  -3    9.76    0.72
   5  -4   3   10.05    0.85
  -5  -4  -3    9.36    0.77
  -5  -4  -3    9.22    0.76
  -5  -4  -3    8.65    0.82
  -5  -4  -3    9.73    0.83
  -5   4  -3    9.14    0.65
  -5   4  -3    8.68    0.72
  -5   4  -3    9.09    0.73
  -6  -4  -3    5.76    0.59
  -6  -4  -3    6.68    0.67
   6  -4   3    6.13    0.72
  -6  -4  -3    6.32    0.77
  -6  -4  -3    7.49    0.63
  -6  -4  -3    7.82    0.77
  -6   4  -3    6.55    0.68
  -6   4  -3    6.31    0.62
  -7  -4  -3   23.77    1.76
  -7  -4  -3   23.28    1.55
  -7  -4  -3   23.88    1.75
  -7  -4  -3   25.30    1.71
  -7   4  -3   20.62    1.62
  -8  -4  -3   15.68    1.46
  -8  -4  -3   16.68    1.38
  -8  -4  -3   16.54    1.34
  -9  -4  -3    3.80    0.73
  -9  -4  -3    4.99    0.81
 -10  -4  -3   -0.11    0.49
 -11  -4  -3    1.71    0.64
 -12  -5   3    2.71    0.56
 -12   5   3    1.55    0.55
 -11  -5   3    2.86    0.69
 -11  -5   3    3.14    0.84
 -11   5   3    3.18    0.66
 -10  -5   3    2.58    0.75
 -10  -5   3    1.33    0.66
 -10   5   3    0.99    0.53
  -9  -5   3    1.44    0.60
  -9  -5   3    0.39    0.48
  -9   5   3    1.18    0.51
  -8  -5   3   11.99    1.23
  -8  -5   3   12.40    0.95
  -8  -5   3   12.70    1.24
  -8  -5   3   12.26    1.08
  -8  -5   3   13.20    1.14
  -8   5   3   12.70    1.22
  -7  -5   3   36.06    2.47
  -7  -5   3   36.06    2.59
  -7  -5   3   39.43    2.54
  -7  -5   3   35.59    2.61
  -7  -5   3   37.19    2.54
  -7  -5   3   38.76    2.47
  -7   5   3   37.74    2.59
   6  -5  -3   15.68    1.27
  -6  -5   3   16.69    1.25
  -6  -5   3   15.82    1.22
  -6  -5   3   14.79    1.17
  -6  -5   3   15.07    1.26
  -6  -5   3   15.57    1.23
  -6  -5   3   16.94    1.32
  -6   5   3   16.93    1.31
  -6   5   3   17.02    1.14
  -5  -5   3    2.70    0.48
  -5  -5   3    1.77    0.41
   5  -5  -3    1.96    0.39
  -5  -5   3    2.77    0.43
  -5  -5   3    2.39    0.39
  -5  -5   3    2.18    0.39
  -5   5   3    3.18    0.49
  -5   5   3    2.36    0.36
  -4  -5   3   47.58    3.01
  -4  -5   3   47.58    2.99
  -4  -5   3   46.17    2.99
   4  -5  -3   48.06    3.03
  -4  -5   3   44.85    3.01
  -4  -5   3   47.46    3.01
  -4   5   3   44.68    3.03
  -4   5   3   47.74    2.90
  -4   5   3   46.59    2.97
  -3  -5   3  148.94    7.96
  -3  -5   3  133.36    7.88
  -3  -5   3  132.60    7.91
   3  -5  -3  132.08    7.93
  -3  -5   3  132.95    7.91
  -3   5   3  118.34    7.89
  -3   5   3  106.93    7.91
  -3   5   3  128.28    7.83
  -2  -5   3  181.37   11.16
  -2  -5   3  192.92   11.25
  -2  -5   3  183.91   11.20
   2  -5  -3  183.58   11.22
  -2   5   3  181.17   11.22
   1  -5  -3   23.93    1.46
  -1  -5   3   20.13    1.58
  -1  -5   3   23.49    1.55
   1  -5  -3   24.57    1.57
  -1  -5   3   24.29    1.47
  -1   5   3   24.51    1.56
   1   5  -3   23.01    1.59
  -1   5   3   23.30    1.59
   0  -5   3  151.71    9.08
   0  -5  -3  154.21    9.14
   0  -5   3  145.12    9.05
   0   5  -3  139.86    9.12
   0   5   3  152.09    9.09
   0   5   3  155.35    9.14
   1  -5   3  126.99    7.89
  -1  -5  -3  126.18    7.91
  -1  -5  -3  124.55    7.94
   1  -5   3  129.99    7.87
  -1   5  -3  136.55    7.95
   1   5   3  134.20    7.89
   2  -5   3   58.22    3.70
  -2  -5  -3   60.46    3.72
  -2  -5  -3   59.88    3.68
  -2  -5  -3   62.65    3.82
  -2  -5  -3   57.26    3.83
  -2  -5  -3   58.43    3.79
   2  -5   3   60.02    3.78
  -2   5  -3   65.73    3.81
   2   5   3   62.08    3.74
  -3  -5  -3   21.15    1.49
  -3  -5  -3   22.49    1.45
  -3  -5  -3   23.87    1.54
   3  -5   3   21.87    1.53
  -3  -5  -3   22.38    1.41
   3  -5   3   22.12    1.38
  -3   5  -3   20.26    1.48
   4  -5   3    2.68    0.43
  -4  -5  -3    3.13    0.44
  -4  -5  -3    3.64    0.37
  -4  -5  -3    3.54    0.41
  -4  -5  -3    3.63    0.49
  -4   5  -3    3.84    0.43
  -4   5  -3    3.44    0.29
  -4   5  -3    3.48    0.41
   5  -5   3   74.04    4.59
  -5  -5  -3   72.23    4.51
  -5  -5  -3   74.33    4.54
  -5  -5  -3   70.52    4.45
  -5  -5  -3   72.01    4.57
  -5   5  -3   67.02    4.47
  -5   5  -3   74.10    4.44
  -6  -5  -3   56.32    3.44
  -6  -5  -3   52.78    3.41
  -6  -5  -3   52.88    3.37
  -6  -5  -3   52.71    3.50
  -6   5  -3   52.21    3.40
  -7  -5  -3    4.11    0.52
  -7  -5  -3    4.39    0.71
  -7  -5  -3    4.61    0.61
  -7  -5  -3    4.76    0.55
  -8  -5  -3    0.63    0.35
  -8  -5  -3   -0.51    0.38
  -9  -5  -3    3.47    0.74
 -10  -5  -3    4.32    0.88
 -11  -5  -3    1.42    0.66
 -11  -6   3   -0.13    0.44
 -11   6   3    0.43    0.38
 -10  -6   3    3.36    0.89
 -10  -6   3    3.41    0.77
 -10   6   3    2.96    0.69
  -9  -6   3   10.89    1.28
  -9  -6   3    8.64    1.10
  -9   6   3    8.79    1.10
  -8  -6   3    5.87    0.67
  -8  -6   3    6.52    0.89
  -8  -6   3    5.23    0.86
  -8  -6   3    7.64    1.09
  -8  -6   3    6.21    0.76
  -8   6   3    6.44    0.91
  -7  -6   3    0.79    0.42
  -7  -6   3    0.27    0.43
  -7  -6   3    1.29    0.49
  -7  -6   3    0.43    0.32
  -7  -6   3    0.96    0.34
  -7  -6   3    0.59    0.27
  -7   6   3    0.89    0.41
  -7   6   3    0.98    0.23
  -6  -6   3   20.36    1.58
  -6  -6   3   21.45    1.66
  -6  -6   3   21.69    1.61
  -6  -6   3   19.20    1.50
  -6  -6   3   21.55    1.59
  -6  -6   3   21.32    1.61
  -6   6   3   23.33    1.66
  -6   6   3   23.72    1.51
  -5  -6   3   53.90    3.45
  -5  -6   3   51.59    3.46
  -5  -6   3   55.08    3.43
   5  -6  -3   56.01    3.48
  -5  -6   3   54.30    3.43
  -5  -6   3   51.92    3.45
  -5   6   3   52.73    3.38
  -5   6   3   55.61    3.49
  -5   6   3   49.09    3.24
  -4  -6   3   34.43    2.24
   4  -6  -3   32.30    2.23
  -4  -6   3   35.10    2.20
  -4  -6   3   31.62    2.16
  -4  -6   3   32.55    2.21
  -4  -6   3   33.08    2.21
  -4   6   3   32.48    2.08
  -4   6   3   29.04    2.21
  -4   6   3   34.72    2.19
  -3  -6   3    2.25    0.36
  -3  -6   3    2.64    0.45
   3  -6  -3    2.27    0.37
  -3  -6   3    2.58    0.39
  -3   6   3    2.46    0.40
  -3   6   3    2.39    0.32
   3   6  -3    2.24    0.53
  -3   6   3    2.65    0.47
  -2  -6   3   69.42    4.30
  -2  -6   3   69.57    4.24
  -2  -6   3   73.66    4.36
   2  -6  -3   68.57    4.31
   2   6  -3   64.84    4.33
  -2   6   3   66.82    4.33
   1  -6  -3  139.32    8.48
  -1  -6   3  134.82    8.58
   1  -6  -3  144.93    8.64
  -1  -6   3  137.01    8.49
   1   6  -3  145.05    8.65
  -1   6   3  143.62    8.64
   0  -6  -3  112.34    6.27
   0  -6   3  103.44    6.17
   0  -6   3  101.89    6.14
   0  -6   3  115.50    6.26
   0   6   3   95.96    6.16
   0   6  -3   85.69    6.21
   0   6   3   91.51    6.22
   1  -6   3   28.29    1.84
   1  -6   3   27.70    1.81
  -1  -6  -3   23.97    1.89
  -1  -6  -3   29.11    1.86
  -1   6  -3   30.36    1.91
   1   6   3   26.88    1.81
   1   6   3   30.64    1.92
  -2  -6  -3   22.42    1.57
  -2  -6  -3   23.20    1.44
  -2  -6  -3   23.04    1.61
  -2  -6  -3   23.55    1.52
  -2  -6  -3   24.09    1.48
   2  -6   3   22.32    1.56
   2  -6   3   22.44    1.47
   2   6   3   23.41    1.50
   2   6   3   21.09    1.58
  -2   6  -3   22.52    1.59
   3  -6   3   95.96    5.63
  -3  -6  -3   95.93    5.74
  -3  -6  -3   95.93    5.65
  -3  -6  -3   93.18    5.78
   3  -6   3   95.96    5.79
  -3  -6  -3   82.24    5.78
   3   6   3   96.38    5.70
  -3   6  -3   85.52    5.76
  -3   6  -3   94.57    5.73
  -4  -6  -3   43.30    2.81
   4  -6   3   44.09    2.81
  -4  -6  -3   42.27    2.71
  -4  -6  -3   44.64    2.66
  -4  -6  -3   40.88    2.76
  -4   6  -3   44.65    2.74
  -4   6  -3   37.43    2.69
  -5  -6  -3    3.02    0.52
  -5  -6  -3    3.58    0.53
   5  -6   3    3.29    0.51
  -5  -6  -3    3.69    0.48
  -5  -6  -3    2.33    0.36
  -5   6  -3    4.45    0.52
  -5   6  -3    4.27    0.46
  -6  -6  -3    8.70    0.88
  -6  -6  -3    9.64    0.96
  -6  -6  -3    9.24    0.86
  -6   6  -3   11.51    0.76
  -7  -6  -3   14.52    1.17
  -7  -6  -3   14.49    1.13
  -7  -6  -3   14.15    1.29
  -8  -6  -3   17.77    1.50
  -8  -6  -3   16.69    1.23
  -9  -6  -3    4.07    0.77
 -10  -6  -3    0.01    0.53
 -11  -6  -3    0.57    0.51
 -11  -7   3    2.19    0.64
 -11   7   3    2.51    0.61
 -10  -7   3    1.39    0.55
 -10   7   3    0.47    0.42
  -9  -7   3    0.79    0.29
  -9  -7   3    1.53    0.63
  -9   7   3    0.94    0.48
  -8  -7   3   14.34    1.12
  -8  -7   3   12.48    1.18
  -8  -7   3   13.76    1.29
  -8   7   3   11.38    1.21
  -7  -7   3   23.02    1.84
  -7  -7   3   24.66    1.80
  -7  -7   3   24.46    1.79
  -7  -7   3   24.75    1.94
  -7  -7   3   24.24    1.83
  -7  -7   3   23.54    1.71
  -7   7   3   24.71    1.66
  -7   7   3   24.29    1.88
  -6  -7   3   14.29    1.10
  -6  -7   3   10.78    1.06
  -6  -7   3   11.39    1.07
  -6  -7   3   11.98    1.16
  -6  -7   3   12.01    0.96
  -6  -7   3   12.15    1.07
  -6   7   3   11.89    1.11
  -6   7   3   11.99    0.96
  -5  -7   3    1.96    0.43
  -5  -7   3    2.17    0.48
  -5  -7   3    1.93    0.43
  -5  -7   3    1.28    0.37
  -5   7   3    2.30    0.55
  -5   7   3    2.04    0.29
  -5   7   3    3.13    0.48
  -4  -7   3   27.90    1.97
   4  -7  -3   25.76    1.93
  -4  -7   3   28.47    1.91
  -4  -7   3   24.93    1.90
  -4  -7   3   25.55    1.85
  -4   7   3   32.54    1.80
  -4   7   3   26.59    1.95
  -4   7   3   27.02    1.90
  -3  -7   3   68.12    4.31
  -3  -7   3   72.93    4.28
   3  -7  -3   67.78    4.27
  -3  -7   3   69.70    4.19
  -3   7   3   65.56    4.31
  -3   7   3   58.80    4.25
   2  -7  -3   70.87    4.51
  -2  -7   3   71.44    4.51
  -2  -7   3   60.86    4.53
  -2  -7   3   72.85    4.43
   2   7  -3   83.48    4.61
  -2   7   3   72.35    4.56
   1  -7  -3    1.39    0.35
  -1  -7   3    0.69    0.31
  -1  -7   3    0.89    0.27
  -1  -7   3    1.21    0.19
   1   7  -3    1.84    0.43
  -1   7   3    1.62    0.37
   0  -7   3   40.07    2.63
   0  -7   3   39.07    2.58
   0  -7  -3   42.62    2.73
   0   7  -3   40.11    2.72
   0   7   3   44.50    2.74
   1  -7   3   98.29    6.05
  -1  -7  -3  103.95    6.17
   1  -7   3   98.20    6.03
   1  -7   3   93.79    6.12
  -1   7  -3   94.33    6.14
   1   7   3  102.15    6.16
  -2  -7  -3   51.95    3.14
   2  -7   3   49.83    3.13
  -2  -7  -3   49.83    3.24
  -2  -7  -3   52.35    3.17
   2  -7   3   52.43    3.23
  -2  -7  -3   57.34    3.32
  -2   7  -3   45.45    3.25
   2   7   3   51.74    3.28
   2   7   3   42.97    3.24
  -3  -7  -3    2.89    0.52
  -3  -7  -3    4.86    0.47
  -3  -7  -3    4.07    0.54
  -3  -7  -3    4.99    0.55
  -3  -7  -3    4.64    0.38
   3  -7   3    3.67    0.51
  -3   7  -3    4.19    0.49
  -3   7  -3    4.08    0.54
   4  -7   3   11.85    1.05
  -4  -7  -3    9.35    1.02
  -4  -7  -3   11.57    0.98
  -4  -7  -3   13.16    0.94
  -4   7  -3   14.08    1.02
  -4   7  -3   12.51    0.95
  -5  -7  -3   39.89    2.56
  -5  -7  -3   36.81    2.61
  -5  -7  -3   41.42    2.68
  -5   7  -3   39.11    2.56
  -5   7  -3   38.19    2.60
  -6  -7  -3   25.39    1.87
  -6  -7  -3   26.18    1.82
  -6  -7  -3   23.97    1.88
  -6   7  -3   26.92    1.73
  -7  -7  -3    5.48    0.82
  -7  -7  -3    5.71    0.73
  -8  -7  -3    1.31    0.54
  -8  -7  -3    1.27    0.37
  -9  -7  -3    6.12    0.97
 -10  -7  -3    4.66    0.84
 -11  -7  -3    0.68    0.52
 -11  -8   3    0.43    0.47
 -11   8   3    1.23    0.48
 -10  -8   3    2.72    0.63
 -10   8   3    1.88    0.58
  -9  -8   3   10.38    1.19
  -9  -8   3    8.33    0.82
  -9   8   3    8.92    1.12
  -8  -8   3    3.27    0.56
  -8  -8   3    2.53    0.65
  -8   8   3    3.60    0.68
  -7  -8   3    1.91    0.50
  -7  -8   3    1.80    0.46
  -7  -8   3    1.23    0.51
  -7  -8   3    1.82    0.47
  -7   8   3    2.10    0.54
  -7   8   3    3.04    0.45
  -6  -8   3   18.77    1.52
  -6  -8   3   18.20    1.57
  -6  -8   3   17.66    1.54
  -6  -8   3   19.78    1.43
  -6   8   3   20.35    1.61
  -6   8   3   22.54    1.49
  -5  -8   3   47.90    3.08
  -5  -8   3   45.30    3.02
  -5  -8   3   45.51    2.96
  -5  -8   3   44.80    2.96
  -5   8   3   43.21    2.95
  -5   8   3   43.79    2.81
  -5   8   3   42.59    3.05
  -4  -8   3   27.05    1.86
  -4  -8   3   28.34    1.91
   4  -8  -3   31.13    2.15
  -4  -8   3   26.09    1.94
  -4  -8   3   27.67    2.01
  -4   8   3   28.00    1.80
  -4   8   3   22.86    1.94
  -4   8   3   27.49    1.94
  -3  -8   3    2.79    0.41
  -3  -8   3    3.49    0.50
   3  -8  -3    2.88    0.48
  -3  -8   3    2.68    0.53
  -3   8   3    1.57    0.47
  -3   8   3    1.87    0.46
  -2  -8   3   45.21    3.01
  -2  -8   3   44.24    2.94
   2  -8  -3   45.02    2.94
   2   8  -3   46.78    3.02
  -2   8   3   43.64    3.00
  -1  -8   3   63.14    3.99
   1  -8  -3   62.30    3.98
  -1  -8   3   53.42    3.87
   1   8  -3   67.61    4.02
   0  -8   3   35.07    2.30
   0  -8   3   33.47    2.39
   0  -8  -3   32.37    2.39
   0  -8   3   35.21    2.25
   0   8   3   36.69    2.42
   0   8  -3   37.93    2.44
   1  -8   3   11.90    0.92
   1  -8   3   12.40    0.90
  -1  -8  -3   12.88    1.06
  -1   8  -3   11.03    1.04
   1   8   3   10.89    1.02
  -2  -8  -3   32.98    2.31
   2  -8   3   32.72    2.12
  -2  -8  -3   31.83    2.12
   2  -8   3   32.00    2.21
   2   8   3   34.02    2.31
  -2   8  -3   36.11    2.32
   3  -8   3  105.86    6.64
  -3  -8  -3  112.03    6.73
  -3  -8  -3  106.42    6.57
  -3  -8  -3  108.86    6.54
  -3   8  -3  106.76    6.60
  -3   8  -3   99.87    6.66
  -4  -8  -3   42.67    2.83
  -4  -8  -3   41.94    2.90
  -4  -8  -3   40.79    2.77
  -4   8  -3   42.49    2.75
  -4   8  -3   43.08    2.82
  -5  -8  -3    2.88    0.54
  -5  -8  -3    3.01    0.63
  -5   8  -3    3.47    0.52
  -6  -8  -3    0.94    0.39
  -6  -8  -3    0.35    0.36
  -6   8  -3    0.62    0.26
  -7  -8  -3    9.43    1.06
  -7  -8  -3    8.38    0.97
  -8  -8  -3   10.65    1.19
  -8  -8  -3    9.81    0.94
  -9  -8  -3    2.69    0.67
 -10  -8  -3    0.97    0.52
 -10  -9   3    0.16    0.49
 -10   9   3    0.83    0.48
  -9  -9   3    0.91    0.52
  -9  -9   3    1.63    0.42
  -9   9   3    2.35    0.65
  -8  -9   3    7.25    0.89
  -8  -9   3    6.91    0.90
  -8   9   3    5.68    0.92
  -7  -9   3   17.54    1.48
  -7  -9   3   16.34    1.50
  -7   9   3   18.06    1.57
  -7   9   3   18.72    1.36
  -6  -9   3    5.92    0.81
  -6  -9   3    7.93    0.90
  -6  -9   3    6.79    0.95
  -6   9   3    7.51    0.83
  -6   9   3    6.87    0.93
  -5  -9   3    0.87    0.36
  -5  -9   3    1.61    0.44
  -5  -9   3    1.06    0.44
  -5  -9   3    0.81    0.35
  -5   9   3    0.61    0.48
  -5   9   3    1.22    0.30
  -5   9   3    1.20    0.41
  -4  -9   3   23.97    1.59
  -4  -9   3   22.74    1.70
  -4  -9   3   23.56    1.65
  -4  -9   3   22.24    1.78
  -4   9   3   18.17    1.69
  -4   9   3   20.48    1.69
  -4   9   3   23.99    1.55
  -3  -9   3   54.06    3.44
  -3  -9   3   55.73    3.55
   3  -9  -3   52.20    3.46
  -3   9   3   44.39    3.47
  -3   9   3   54.53    3.50
  -2  -9   3   28.42    2.13
  -2  -9   3   31.64    2.06
  -2   9   3   29.89    2.13
   2   9  -3   27.13    2.10
  -1  -9   3    0.51    0.36
   1  -9  -3    0.32    0.33
  -1  -9   3    0.45    0.29
  -1   9   3    0.09    0.33
   1   9  -3   -0.12    0.30
   0  -9   3   36.08    2.64
   0  -9  -3   40.25    2.67
   0  -9   3   38.84    2.52
   0   9   3   38.67    2.66
   0   9  -3   37.77    2.66
   1  -9   3   78.77    4.69
   1  -9   3   76.10    4.69
  -1  -9  -3   76.13    4.86
  -1   9  -3   79.19    4.87
   1   9   3   64.69    4.81
  -2  -9  -3   44.46    3.20
   2  -9   3   46.69    3.08
  -2   9  -3   47.71    3.19
   2   9   3   50.59    3.22
  -3  -9  -3    4.47    0.72
   3  -9   3    4.10    0.57
  -3   9  -3    5.51    0.75
  -3   9  -3    4.91    0.61
  -4  -9  -3    7.37    0.79
  -4  -9  -3    7.76    0.96
  -4   9  -3    6.98    0.84
  -4   9  -3    6.91    0.71
  -5  -9  -3   23.15    1.73
  -5  -9  -3   23.73    1.87
  -5   9  -3   23.94    1.75
  -6  -9  -3   20.22    1.56
  -6  -9  -3   22.76    1.67
  -6   9  -3   17.08    1.42
  -7  -9  -3    3.58    0.70
  -7  -9  -3    4.10    0.73
  -8  -9  -3    0.90    0.50
  -8  -9  -3    0.55    0.38
  -9  -9  -3    4.51    0.81
 -10  -9  -3    2.72    0.68
 -10 -10   3    2.07    0.55
 -10  10   3    2.24    0.56
  -9 -10   3    3.53    0.69
  -9 -10   3    3.53    0.59
  -9  10   3    3.06    0.65
  -8 -10   3    2.28    0.56
  -8 -10   3    0.74    0.44
  -8  10   3    1.81    0.62
  -7 -10   3    0.17    0.36
  -7 -10   3    1.26    0.51
  -7  10   3    0.85    0.51
  -7  10   3    1.28    0.41
  -6 -10   3   12.03    1.09
  -6 -10   3   12.47    1.29
  -6  10   3   10.99    1.09
  -6  10   3   12.76    1.25
  -5 -10   3   21.78    1.65
  -5 -10   3   20.39    1.71
  -5 -10   3   24.79    1.99
  -5 -10   3   26.25    1.88
  -5  10   3   22.27    1.51
  -5  10   3   19.60    1.76
  -5  10   3   19.49    1.68
  -4 -10   3   20.51    1.58
  -4 -10   3   23.09    1.71
  -4 -10   3   19.81    1.50
  -4  10   3   14.87    1.55
  -4  10   3   19.08    1.59
  -4  10   3   20.27    1.41
  -3 -10   3    1.01    0.37
  -3 -10   3    1.12    0.49
  -3  10   3    2.43    0.56
  -3  10   3    1.62    0.50
  -2 -10   3   29.65    2.11
  -2 -10   3   32.31    2.27
   2  10  -3   29.07    2.22
  -2  10   3   28.87    2.20
  -1 -10   3   38.53    2.62
  -1 -10   3   40.62    2.78
  -1  10   3   38.13    2.76
   1  10  -3   39.21    2.78
   0 -10   3   36.61    2.43
   0 -10   3   41.82    2.64
   0 -10  -3   35.32    2.60
   0  10  -3   31.17    2.57
   0  10   3   37.54    2.61
  -1 -10  -3    3.67    0.67
   1 -10   3    3.01    0.43
  -1  10  -3    2.85    0.63
   1  10   3    3.68    0.66
  -2 -10  -3   12.06    1.22
  -2  10  -3   12.30    1.19
   2  10   3   13.06    1.19
  -3 -10  -3   38.12    2.75
  -3  10  -3   39.77    2.69
  -3  10  -3   36.07    2.55
  -4 -10  -3   24.07    1.90
  -4  10  -3   21.84    1.77
  -5 -10  -3    2.32    0.60
  -5 -10  -3    1.54    0.43
  -5  10  -3    2.30    0.28
  -5  10  -3    2.28    0.51
  -6 -10  -3    1.15    0.45
  -6 -10  -3    1.66    0.55
  -6  10  -3    1.21    0.39
  -7 -10  -3    8.47    1.02
  -7 -10  -3    8.63    1.05
  -8 -10  -3    7.68    1.00
  -8 -10  -3    8.88    0.98
  -9 -10  -3    0.96    0.47
  -9 -11   3    0.84    0.40
  -9  11   3    0.35    0.45
  -8 -11   3    3.17    0.65
  -8 -11   3    3.96    0.69
  -8  11   3    2.57    0.66
  -7 -11   3    4.32    0.81
  -7  11   3    5.62    0.74
  -7  11   3    5.75    0.92
  -6 -11   3    3.27    0.69
  -6  11   3    3.83    0.67
  -6  11   3    4.34    0.78
  -5 -11   3    0.75    0.48
  -5  11   3    0.82    0.34
  -5  11   3    1.32    0.56
  -5  11   3    0.74    0.42
  -4 -11   3   15.26    1.25
  -4 -11   3   16.22    1.48
  -4 -11   3   15.15    1.34
  -4  11   3   14.83    1.37
  -4  11   3   14.99    1.17
  -4  11   3   13.15    1.38
  -3 -11   3   26.41    1.82
  -3 -11   3   26.87    2.00
  -3  11   3   19.81    1.85
  -3  11   3   20.80    1.84
  -2 -11   3   23.95    1.87
  -2 -11   3   23.10    1.71
  -2  11   3   20.61    1.82
   2  11  -3   22.78    1.85
  -1 -11   3    0.91    0.35
  -1 -11   3    0.69    0.48
  -1  11   3    1.23    0.51
   1  11  -3    0.93    0.51
   0 -11   3   15.61    2.10
   0 -11   3   15.39    1.35
   0 -11  -3   21.37    1.63
   0  11  -3   18.29    1.60
   0  11   3   20.14    1.61
  -1 -11  -3   32.44    2.41
  -1  11  -3   30.52    2.37
   1  11   3   32.03    2.38
  -2 -11  -3   16.37    1.54
   2  11   3   16.66    1.80
  -2  11  -3   17.96    1.52
  -3 -11  -3    0.94    0.49
  -3  11  -3    2.49    0.62
  -3  11  -3    1.71    0.42
  -4 -11  -3    1.79    0.60
  -4  11  -3    2.05    0.60
  -5 -11  -3   17.12    1.64
  -5  11  -3   18.14    1.50
  -6 -11  -3   13.25    1.41
  -6  11  -3   14.11    1.21
  -7 -11  -3    0.29    0.43
  -8 -11  -3    0.80    0.44
  -8 -11  -3    0.80    0.44
  -9 -11  -3    2.45    0.54
  -8 -12   3    0.89    0.52
  -8  12   3    1.24    0.53
  -7 -12   3    0.36    0.53
  -7  12   3   -0.20    0.37
  -7  12   3    0.82    0.54
  -6 -12   3    1.80    0.62
  -6  12   3    2.25    0.68
  -6  12   3    3.58    0.64
  -5 -12   3   17.48    1.64
  -5  12   3   14.80    1.46
  -5  12   3   16.84    1.24
  -5  12   3   17.29    1.54
  -4 -12   3    5.81    0.96
  -4  12   3    5.98    0.90
  -4  12   3    8.04    0.79
  -4  12   3    6.85    1.00
  -3 -12   3   -0.05    0.46
  -3 -12   3    0.59    0.43
  -3  12   3    0.16    0.41
  -3  12   3    0.10    0.40
  -3  12   3    0.40    0.38
  -2 -12   3    9.03    0.98
  -2 -12   3    9.88    1.21
  -2  12   3    9.69    1.23
   2  12  -3    7.09    1.05
  -1 -12   3   24.00    2.07
  -1 -12   3   24.19    1.88
   1  12  -3   27.02    2.11
  -1  12   3   30.01    2.17
   0 -12  -3   16.20    1.53
   0  12  -3   17.68    1.56
   0  12   3   15.03    1.51
  -1 -12  -3    0.89    0.60
   1  12   3    2.08    0.65
  -1  12  -3    1.66    0.60
  -2 -12  -3    7.62    1.07
  -2  12  -3    5.81    0.95
  -2  12  -3    6.02    0.85
  -3 -12  -3   23.02    1.86
  -3  12  -3   17.41    1.70
  -4 -12  -3    9.52    1.28
  -4  12  -3   10.75    1.15
  -5 -12  -3    0.93    0.58
  -5  12  -3    2.93    0.59
  -6 -12  -3    2.30    0.75
  -6  12  -3    2.54    0.56
  -7 -12  -3    7.52    1.02
  -8 -12  -3    4.19    0.69
  -8 -13   3    2.27    0.58
  -8  13   3    1.99    0.55
  -7 -13   3    8.18    1.06
  -7  13   3    7.41    0.91
  -7  13   3    6.67    0.97
  -6 -13   3    2.99    0.76
  -6  13   3    2.65    0.69
  -6  13   3    2.39    0.62
  -5 -13   3    0.38    0.44
  -5  13   3    0.08    0.46
  -5  13   3   -0.19    0.29
  -5  13   3    0.00    0.48
  -4 -13   3    3.98    0.89
  -4  13   3    4.30    0.82
  -4  13   3    5.59    0.93
  -4  13   3    5.45    0.66
  -3 -13   3   17.81    1.67
  -3  13   3   13.04    1.54
  -3  13   3   16.51    1.58
  -3  13   3   17.16    1.35
  -2 -13   3    9.94    1.31
  -2  13   3    9.89    1.28
  -2  13   3   10.88    1.34
   2  13  -3   13.51    1.35
  -1 -13   3    0.10    0.55
   1  13  -3    0.50    0.54
  -1  13   3    0.79    0.48
   0  13   3    7.52    1.11
   0  13  -3    9.68    1.27
  -1 -13  -3   18.99    1.75
   1  13   3   16.35    1.67
  -1  13  -3   20.06    1.77
  -2 -13  -3   11.44    1.46
  -2  13  -3   12.73    1.50
  -2  13  -3   11.71    1.17
  -3 -13  -3    4.64    0.97
  -3  13  -3    3.21    0.77
  -4 -13  -3    0.66    0.55
  -4  13  -3    1.85    0.57
  -5 -13  -3    8.52    1.25
  -5  13  -3    9.71    1.12
  -6 -13  -3    4.97    0.92
  -6  13  -3    6.27    0.82
  -7 -13  -3    1.72    0.58
  -7 -14   3    0.00    0.48
  -7  14   3    0.61    0.42
  -6 -14   3    3.60    0.83
  -6  14   3    2.96    0.70
  -6  14   3    4.41    0.75
  -5 -14   3    8.02    1.19
  -5  14   3    6.29    1.00
  -5  14   3    8.28    1.08
  -5  14   3    7.44    0.70
  -4 -14   3    6.09    1.11
  -4  14   3    7.16    0.77
  -4  14   3    6.99    1.03
  -4  14   3    5.01    0.86
  -3 -14   3   -0.21    0.58
  -3  14   3    0.43    0.55
  -3  14   3   -0.04    0.38
  -3  14   3    0.30    0.43
  -2 -14   3    7.55    1.09
  -2  14   3    7.06    1.17
  -2  14   3    6.73    0.88
  -2  14   3    6.81    1.08
   1  14  -3   11.64    1.35
  -1  14   3    7.82    1.17
   0  14  -3   14.50    1.55
   0  14   3   11.87    1.54
  -1 -14  -3    2.65    0.76
   1  14   3    3.01    0.79
  -1  14  -3    2.68    0.78
  -2 -14  -3    4.08    0.88
  -2  14  -3    4.71    0.91
  -3 -14  -3   10.38    1.43
  -3  14  -3   12.74    1.44
  -4 -14  -3    5.48    1.06
  -4  14  -3    7.45    0.75
  -4  14  -3    7.83    1.04
  -5 -14  -3    1.32    0.67
  -5  14  -3    1.29    0.52
  -6 -14  -3    0.41    0.46
  -6  14  -3    0.12    0.38
  -5 -15   3    1.45    0.58
  -5  15   3    0.34    0.43
  -5  15   3    0.75    0.47
  -4 -15   3    3.09    0.87
  -4  15   3    3.77    0.60
  -4  15   3    2.95    0.68
  -4  15   3    2.47    0.74
  -3 -15   3    8.70    1.21
  -3  15   3    5.76    1.04
  -3  15   3    7.98    1.14
  -3  15   3    7.24    0.87
  -2 -15   3    5.21    0.95
  -2  15   3    6.15    1.07
  -2  15   3    3.67    0.81
  -2  15   3    6.73    0.85
  -1  15   3   -0.89    0.40
  -1  15   3    0.78    0.49
  -1  15   3    0.50    0.47
   1  15  -3    0.26    0.58
   0  15  -3    2.58    0.77
   0  15   3    2.92    0.81
   1  15   3    5.68    1.09
  -1  15  -3    9.36    1.34
  -2 -15  -3    7.59    1.21
  -2  15  -3    8.01    1.23
  -3 -15  -3    1.02    0.62
  -3  15  -3    0.70    0.49
  -4 -15  -3    1.60    0.71
  -4  15  -3    2.56    0.41
  -4  15  -3    3.26    0.77
  -5 -15  -3    4.65    0.88
  -5  15  -3    4.02    0.96
  -3 -16   3    0.10    0.50
  -3  16   3    0.86    0.55
  -3  16   3   -0.13    0.35
  -3  16   3    0.17    0.39
  -2  16   3    1.72    0.62
  -2  16   3    3.11    0.60
  -2  16   3    3.39    0.73
  -1  16   3    3.95    0.80
   1  16  -3    5.63    1.04
  -1  16   3    7.75    1.15
  -1  16   3    6.36    0.91
   0  16   3    5.73    0.83
   0  16  -3    5.25    1.05
   0  16   3    4.76    0.97
  -1  16  -3    1.50    0.68
  -2 -16  -3    2.56    0.77
  -2  16  -3    0.90    0.51
  -3 -16  -3    6.91    1.11
  -3  16  -3    6.63    1.03
  -3  16  -3    6.95    0.78
 -12   0   4    1.36    0.67
 -12   0   4    0.53    0.47
 -11   0   4    5.01    0.82
 -11   0   4    5.86    0.92
 -10   0   4    4.12    0.72
 -10   0   4    4.74    0.84
  -9   0   4    0.47    0.38
  -9   0   4    1.50    0.48
  -9   0   4   -0.07    0.38
  -8   0   4   11.69    1.12
  -8   0   4   12.76    1.00
  -8   0   4   11.40    1.05
  -8   0   4   10.23    1.03
  -7   0   4   63.23    4.12
  -7   0   4   66.96    4.12
   7   0  -4   65.66    4.04
  -7   0   4   67.26    4.07
   7   0  -4   55.67    4.03
  -7   0   4   67.68    4.12
   6   0  -4   81.99    4.80
  -6   0   4   75.28    4.66
  -6   0   4   75.90    4.81
   6   0  -4   74.81    4.76
  -6   0   4   73.96    4.77
  -6   0   4   76.31    4.81
  -6   0   4   77.34    4.66
  -6   0   4   77.75    4.84
  -6   0   4   75.89    4.71
  -5   0   4   11.92    0.79
  -5   0   4   11.78    0.92
  -5   0   4   10.48    0.85
   5   0  -4   11.35    0.88
  -5   0   4   11.94    0.81
  -5   0   4   11.89    0.89
  -5   0   4   11.62    0.88
   5   0  -4    9.89    0.82
  -4   0   4   15.34    1.12
  -4   0   4   17.91    1.12
   4   0  -4   18.33    1.17
   4   0  -4   15.27    1.11
  -4   0   4   16.49    1.10
  -4   0   4   16.40    1.15
  -4   0   4   15.82    1.15
  -4   0   4   17.39    1.11
  -3   0   4  154.14    9.46
  -3   0   4  155.79    9.45
  -3   0   4  153.89    9.44
   3   0  -4  168.49    9.50
   3   0  -4  152.25    9.44
  -3   0   4  158.89    9.46
  -3   0   4  150.07    9.43
  -2   0   4  174.67    9.91
   2   0  -4  145.54    9.95
  -2   0   4  172.17    9.90
   1   0  -4   70.21    4.35
   0   0  -4   17.93    1.23
   2   0   4  302.27   18.17
  -3   0  -4   40.40    2.67
   3   0   4   45.67    2.70
  -3   0  -4   43.33    2.71
  -4   0  -4    0.87    0.27
  -4   0  -4    0.17    0.13
   4   0   4    0.57    0.18
  -5   0  -4   37.90    2.59
  -5   0  -4   42.48    2.46
  -5   0  -4   39.08    2.55
  -6   0  -4   53.01    3.29
  -6   0  -4   50.31    3.34
  -7   0  -4   15.50    1.16
  -7   0  -4   15.31    1.21
   7   0   4   14.21    1.15
  -8   0  -4    0.34    0.33
  -8   0  -4    0.44    0.43
  -9   0  -4    4.93    0.80
  -9   0  -4    4.11    0.67
 -10   0  -4    4.84    0.79
 -11   0  -4    4.23    0.76
 -12   0  -4    0.43    0.47
 -12  -1   4    1.90    0.64
 -12  -1   4    1.74    0.59
 -12   1   4    2.33    0.61
 -11  -1   4    0.23    0.38
 -11  -1   4    0.13    0.55
 -11   1   4   -0.05    0.40
 -11   1   4    0.22    0.41
 -10  -1   4    8.28    1.09
 -10  -1   4    9.30    1.10
 -10   1   4    8.39    0.99
 -10   1   4    6.78    0.96
  -9  -1   4   13.43    1.25
  -9  -1   4   14.46    1.31
  -9  -1   4   10.98    1.26
  -9   1   4   14.45    1.25
  -9   1   4   12.98    1.27
  -9   1   4   13.49    1.19
  -8  -1   4   11.05    1.00
  -8  -1   4   10.95    1.12
  -8  -1   4   11.73    1.15
  -8  -1   4   13.49    1.09
   8  -1  -4   11.53    0.98
  -8   1   4   12.48    1.05
  -8   1   4   11.75    1.01
  -8   1   4   12.02    1.08
  -8   1   4   12.41    1.13
  -7  -1   4    0.88    0.28
  -7  -1   4    1.63    0.38
  -7  -1   4    0.30    0.31
  -7  -1   4    0.59    0.22
   7  -1  -4    1.36    0.30
   7  -1  -4    1.03    0.29
  -7  -1   4    1.75    0.43
  -7   1   4    1.23    0.40
  -7   1   4    0.25    0.21
  -7   1   4    1.01    0.35
  -7   1   4    1.00    0.37
  -6  -1   4   24.33    1.55
  -6  -1   4   23.57    1.60
  -6  -1   4   24.43    1.67
  -6  -1   4   24.23    1.50
   6  -1  -4   22.28    1.58
  -6  -1   4   22.80    1.63
  -6  -1   4   23.60    1.64
   6   1  -4   21.41    1.53
  -6   1   4   21.84    1.58
  -6   1   4   23.98    1.54
  -6   1   4   22.36    1.62
  -6   1   4   23.43    1.67
  -6   1   4   23.05    1.45
  -6   1   4   23.70    1.62
  -5  -1   4  105.39    6.46
  -5  -1   4  107.22    6.48
  -5  -1   4  106.36    6.41
  -5  -1   4  105.34    6.46
  -5  -1   4   99.39    6.38
   5  -1  -4  105.17    6.44
  -5  -1   4  107.41    6.43
   5   1  -4  104.53    6.39
  -5   1   4  103.78    6.45
   5   1  -4   94.07    6.46
  -5   1   4  107.85    6.36
  -5   1   4  107.50    6.49
  -5   1   4  107.71    6.43
  -5   1   4  106.43    6.45
  -5   1   4  106.00    6.37
  -4  -1   4  184.38   11.11
  -4  -1   4  187.33   11.13
  -4  -1   4  189.93   11.15
  -4  -1   4  184.36   11.10
  -4  -1   4  187.52   11.14
   4  -1  -4  185.23   11.12
  -4  -1   4  179.49   11.09
   4   1  -4  182.84   11.07
  -4   1   4  180.58   11.06
  -4   1   4  189.66   11.15
   4   1  -4  159.51   11.15
  -4   1   4  192.23   11.09
  -4   1   4  184.72   11.10
  -4   1   4  180.58   11.14
  -4   1   4  183.49   11.12
  -4   1   4  185.18   11.11
  -3  -1   4   34.39    2.24
  -3  -1   4   36.73    2.22
  -3  -1   4   39.40    2.26
   3  -1  -4   36.27    2.26
  -3  -1   4   36.68    2.27
  -3   1   4   35.07    2.25
  -3   1   4   37.30    2.27
  -3   1   4   33.07    2.23
  -3   1   4   33.91    2.21
   3   1  -4   35.65    2.22
  -3   1   4   35.71    2.25
   2  -1  -4   67.43    4.02
  -2  -1   4   65.31    3.98
  -2  -1   4   64.14    4.01
   2   1  -4   70.29    4.10
  -2   1   4   64.05    4.02
  -2   1   4   65.07    3.99
  -2   1   4   63.16    4.00
  -1   1   4  367.61   22.03
  -1   1   4  365.53   21.99
   0  -1  -4  316.31   19.08
  -1  -1  -4   71.29    4.09
   1   1   4   61.14    4.00
  -2  -1  -4    5.00    0.39
   2   1   4    4.84    0.37
  -3  -1  -4  127.04    8.47
  -3  -1  -4  141.93    8.46
  -3  -1  -4  130.05    8.45
   3   1   4  154.71    8.52
  -3   1  -4  138.49    8.47
  -3   1  -4  144.64    8.44
  -4  -1  -4  178.11   10.86
  -4  -1  -4  176.05   10.82
  -4  -1  -4  177.26   10.88
  -4   1  -4  174.19   10.86
  -4   1  -4  181.15   10.79
   4   1   4  187.22   10.88
  -5  -1  -4   43.43    2.85
  -5  -1  -4   47.06    2.94
  -5  -1  -4   42.08    2.96
  -5  -1  -4   47.24    2.96
  -5   1  -4   50.93    2.98
  -5   1  -4   48.41    2.97
  -6  -1  -4    1.35    0.36
  -6  -1  -4    0.66    0.29
  -6  -1  -4    0.84    0.34
  -6   1  -4    1.14    0.32
  -6   1  -4    1.09    0.28
  -7  -1  -4   18.02    1.32
   7  -1   4   18.78    1.37
  -7  -1  -4   17.75    1.37
  -7   1  -4   17.24    1.28
   7   1   4   15.87    1.29
  -7   1  -4   16.44    1.33
  -8  -1  -4   20.10    1.40
  -8  -1  -4   18.11    1.44
  -8   1  -4   15.56    1.33
  -8   1  -4   16.81    1.41
  -9  -1  -4    8.29    0.99
  -9  -1  -4    7.70    0.89
  -9   1  -4    6.54    0.88
 -10  -1  -4    2.01    0.56
 -10   1  -4    0.98    0.47
 -11  -1  -4    0.63    0.50
 -11   1  -4    1.34    0.52
 -12  -1  -4    2.43    0.60
 -12  -2   4    1.88    0.61
 -12  -2   4    1.82    0.58
 -12   2   4    2.26    0.66
 -11  -2   4    4.28    0.94
 -11  -2   4    6.99    0.94
 -11   2   4    7.20    1.06
 -10  -2   4    4.12    0.77
 -10  -2   4    3.48    0.79
 -10   2   4    3.02    0.61
 -10   2   4    3.15    0.71
  -9  -2   4    0.94    0.48
  -9  -2   4    1.05    0.48
  -9   2   4    0.67    0.38
  -9   2   4   -0.03    0.45
  -8  -2   4   10.97    1.04
  -8  -2   4   10.41    1.06
  -8  -2   4   10.40    0.96
   8  -2  -4   11.59    0.92
  -8  -2   4   11.45    1.11
  -8   2   4   10.70    1.07
  -8   2   4   10.88    0.99
  -8   2   4   10.43    1.02
  -7  -2   4   37.06    2.58
  -7  -2   4   36.92    2.45
  -7  -2   4   37.02    2.54
  -7  -2   4   39.68    2.50
  -7  -2   4   37.98    2.57
   7  -2  -4   38.66    2.52
  -7  -2   4   36.60    2.36
  -7   2   4   38.80    2.51
  -7   2   4   36.76    2.53
  -7   2   4   39.05    2.50
  -7   2   4   36.55    2.57
  -6  -2   4   51.34    3.26
  -6  -2   4   49.96    3.33
  -6  -2   4   50.26    3.22
   6  -2  -4   52.95    3.31
  -6  -2   4   53.26    3.36
  -6  -2   4   53.23    3.33
  -6  -2   4   52.42    3.29
  -6   2   4   50.33    3.31
  -6   2   4   50.35    3.15
  -6   2   4   51.09    3.28
   6   2  -4   53.53    3.23
  -6   2   4   52.45    3.29
  -6   2   4   49.97    3.35
  -5  -2   4    0.52    0.30
  -5  -2   4    1.08    0.27
  -5  -2   4    0.26    0.24
  -5  -2   4    0.53    0.20
  -5  -2   4    0.48    0.19
  -5  -2   4    0.92    0.24
   5  -2  -4    0.51    0.22
  -5  -2   4    0.88    0.24
  -5   2   4    0.52    0.23
  -5   2   4    1.03    0.30
  -5   2   4    0.61    0.18
  -5   2   4    0.81    0.14
  -5   2   4    0.88    0.26
   5   2  -4    0.57    0.16
  -5   2   4    1.00    0.26
  -4  -2   4   79.07    4.82
  -4  -2   4   76.62    4.84
   4  -2  -4   72.00    4.83
  -4  -2   4   76.49    4.84
  -4  -2   4   79.33    4.85
  -4  -2   4   77.83    4.82
  -4   2   4   80.90    4.81
  -4   2   4   77.81    4.74
  -4   2   4   76.38    4.81
   4   2  -4   78.24    4.75
  -4   2   4   80.90    4.83
  -4   2   4   80.26    4.87
  -4   2   4   82.43    4.81
   3  -2  -4  147.30    8.80
  -3  -2   4  143.84    8.78
  -3  -2   4  152.06    8.80
  -3  -2   4  142.81    8.79
  -3  -2   4  144.45    8.79
  -3   2   4  144.63    8.79
  -3   2   4  148.39    8.78
  -3   2   4  147.90    8.77
  -3   2   4  153.48    8.76
  -3   2   4  123.49    8.73
  -2  -2   4  178.84   11.03
   2  -2  -4  174.73   11.04
   2  -2  -4  183.78   11.00
  -2  -2   4  175.39   10.97
  -2   2   4  190.53   11.00
  -2   2   4  192.57   10.99
   1  -2  -4  102.49    6.18
  -1  -2   4   97.90    6.23
  -1   2   4  103.43    6.24
  -1   2   4  103.14    6.18
  -1   2   4  105.95    6.18
  -1  -2  -4  510.97   28.89
  -1  -2  -4  410.99   28.98
   1   2   4  505.61   28.89
   1   2   4  499.43   28.89
  -2  -2  -4  288.01   16.47
  -2  -2  -4  271.68   16.42
  -2   2  -4  269.67   16.45
   2   2   4  263.38   16.41
  -3  -2  -4   44.10    2.79
  -3  -2  -4   46.27    2.81
  -3  -2  -4   42.61    2.82
  -3   2  -4   46.48    2.79
  -4  -2  -4    3.06    0.39
  -4  -2  -4    3.85    0.48
  -4  -2  -4    3.18    0.39
  -4   2  -4    4.11    0.34
  -4   2  -4    4.04    0.42
  -5  -2  -4   31.10    2.04
  -5  -2  -4   30.19    1.99
  -5  -2  -4   27.92    2.07
  -5  -2  -4   31.26    2.05
  -5   2  -4   35.29    2.06
  -6  -2  -4   57.48    4.11
  -6  -2  -4   67.45    4.08
   6  -2   4   60.91    4.11
  -6  -2  -4   66.76    4.09
  -6  -2  -4   65.75    3.95
  -6   2  -4   65.40    4.04
  -6   2  -4   66.53    4.09
  -7  -2  -4   24.49    1.76
  -7  -2  -4   25.13    1.83
  -7  -2  -4   26.15    1.80
  -7   2  -4   25.20    1.78
  -7   2  -4   23.94    1.79
  -8  -2  -4    0.64    0.40
  -8  -2  -4   -0.15    0.42
  -8   2  -4    0.78    0.34
  -9  -2  -4    5.35    0.76
  -9  -2  -4    3.75    0.75
  -9   2  -4    3.26    0.62
 -10  -2  -4    6.32    0.98
 -10  -2  -4    6.74    0.91
 -10   2  -4    6.38    0.86
 -11  -2  -4    3.47    0.73
 -12  -2  -4    0.14    0.40
 -12  -3   4    0.20    0.52
 -12  -3   4    1.12    0.53
 -12   3   4    1.33    0.50
 -11  -3   4   -0.27    0.52
 -11  -3   4    0.88    0.68
 -11   3   4   -0.08    0.44
 -10  -3   4    3.76    0.83
 -10  -3   4    4.36    0.88
 -10   3   4    3.62    0.77
  -9  -3   4   18.17    1.58
  -9  -3   4   20.07    1.60
  -9   3   4   16.27    1.41
  -9   3   4   18.51    1.58
  -8  -3   4   10.56    1.04
  -8  -3   4    9.36    0.89
  -8  -3   4    9.83    1.13
  -8   3   4   10.66    1.12
  -8   3   4    9.88    0.91
  -7  -3   4    1.05    0.45
  -7  -3   4    0.55    0.28
   7  -3  -4    1.10    0.32
  -7  -3   4    1.49    0.34
  -7  -3   4    1.14    0.45
  -7  -3   4    0.98    0.26
  -7  -3   4    1.09    0.36
  -7   3   4    1.61    0.41
  -7   3   4    0.76    0.29
  -7   3   4    1.36    0.47
  -6  -3   4   11.56    1.07
   6  -3  -4   14.42    1.08
  -6  -3   4   13.28    0.98
  -6  -3   4   13.13    1.03
  -6  -3   4   14.04    1.09
  -6  -3   4   14.39    1.33
  -6  -3   4   13.79    1.03
  -6   3   4   13.92    0.92
  -6   3   4   12.71    1.10
  -6   3   4   13.46    1.01
  -6   3   4   13.15    1.06
  -5  -3   4  107.48    6.46
   5  -3  -4  109.00    6.50
  -5  -3   4  110.75    6.50
  -5  -3   4  111.08    6.50
  -5  -3   4  105.24    6.49
  -5  -3   4  108.37    6.45
  -5  -3   4  106.97    6.45
  -5   3   4  100.43    6.46
  -5   3   4  102.85    6.43
  -5   3   4  102.56    6.51
  -5   3   4   93.16    6.40
  -5   3   4  102.73    6.42
  -4  -3   4   80.00    4.65
  -4  -3   4   77.76    4.64
   4  -3  -4   76.34    4.65
  -4  -3   4   75.26    4.65
  -4  -3   4   78.20    4.64
  -4  -3   4   78.57    4.64
  -4  -3   4   75.03    4.64
  -4   3   4   72.27    4.59
  -4   3   4   78.21    4.53
  -4   3   4   70.46    4.65
  -4   3   4   71.59    4.51
  -4   3   4   65.21    4.59
  -4   3   4   73.53    4.62
  -3  -3   4   17.26    1.25
  -3  -3   4   17.34    1.27
  -3  -3   4   17.07    1.26
   3  -3  -4   17.91    1.28
  -3   3   4   20.54    1.29
  -3   3   4   19.76    1.26
  -3   3   4   21.13    1.23
  -3   3   4   17.33    1.21
  -3   3   4   19.93    1.24
  -2  -3   4   68.08    4.12
  -2  -3   4   65.18    4.13
   2  -3  -4   65.64    4.13
  -2   3   4   55.96    4.10
  -2   3   4   72.33    4.13
  -2   3   4   73.57    4.06
  -1  -3   4  301.06   18.29
   1  -3  -4  308.24   18.22
  -1   3   4  301.88   18.30
   0  -3   4  252.16   15.24
   0   3   4  253.82   15.26
  -1  -3  -4   85.41    5.22
   1  -3   4   83.15    5.16
  -1  -3  -4   85.97    5.12
  -2  -3  -4    5.23    0.51
  -2  -3  -4    5.95    0.41
  -2  -3  -4    5.61    0.48
  -2  -3  -4    5.50    0.43
  -2  -3  -4    6.61    0.52
  -3  -3  -4   96.86    5.61
  -3  -3  -4   93.12    5.54
  -3  -3  -4   91.04    5.56
  -3  -3  -4   86.74    5.60
  -3   3  -4   88.34    5.57
  -4  -3  -4   92.33    5.64
  -4  -3  -4   88.71    5.67
  -4  -3  -4   92.34    5.65
  -4  -3  -4   87.44    5.59
  -4  -3  -4   92.71    5.63
  -4   3  -4   98.26    5.62
  -4   3  -4   89.61    5.58
  -5  -3  -4   32.65    2.02
  -5  -3  -4   32.11    2.04
  -5  -3  -4   32.23    2.07
   5  -3   4   29.12    2.07
  -5  -3  -4   31.32    1.99
  -5   3  -4   28.00    1.98
  -5   3  -4   28.33    2.11
  -5   3  -4   29.79    1.89
  -6  -3  -4    0.92    0.37
  -6  -3  -4    0.94    0.35
   6  -3   4    0.35    0.26
  -6  -3  -4    0.70    0.23
  -6  -3  -4    0.63    0.27
  -6   3  -4    0.56    0.28
  -7  -3  -4   26.26    1.78
  -7  -3  -4   24.76    1.74
  -7  -3  -4   23.68    1.80
  -7   3  -4   22.52    1.70
  -8  -3  -4   19.01    1.62
  -8  -3  -4   19.95    1.54
  -8  -3  -4   20.97    1.58
  -8   3  -4   19.49    1.50
  -9  -3  -4    9.18    1.08
  -9  -3  -4    7.99    0.98
 -10  -3  -4   -0.27    0.38
 -11  -3  -4    0.69    0.64
 -12  -4   4    0.40    0.60
 -12  -4   4    1.40    0.64
 -12   4   4    0.54    0.45
 -11  -4   4    5.28    0.99
 -11  -4   4    3.75    0.75
 -11   4   4    4.02    0.80
 -10  -4   4    3.90    0.89
 -10  -4   4    4.02    0.83
 -10   4   4    4.33    0.83
  -9  -4   4    0.11    0.47
  -9  -4   4   -0.06    0.49
  -9   4   4   -0.10    0.44
  -8  -4   4    5.11    0.50
  -8  -4   4    6.12    0.85
  -8  -4   4    5.11    0.64
  -8  -4   4    3.90    0.75
  -8  -4   4    5.81    0.67
  -8  -4   4    4.76    0.66
  -8   4   4    3.91    0.69
  -7  -4   4   34.42    2.34
  -7  -4   4   32.11    2.37
  -7  -4   4   35.51    2.39
  -7  -4   4   35.71    2.23
  -7  -4   4   30.35    2.24
  -7  -4   4   35.52    2.29
  -7   4   4   31.47    2.36
  -6  -4   4   46.23    2.95
  -6  -4   4   40.49    2.83
  -6  -4   4   43.47    2.92
  -6  -4   4   42.82    2.84
   6  -4  -4   42.70    2.91
  -6  -4   4   45.26    2.88
  -6  -4   4   44.47    2.90
  -6   4   4   46.19    2.83
  -6   4   4   44.84    2.95
  -6   4   4   45.12    2.79
  -5  -4   4    1.89    0.35
   5  -4  -4    1.37    0.33
  -5  -4   4    1.22    0.32
  -5  -4   4    2.29    0.43
  -5  -4   4    1.41    0.33
  -5  -4   4    1.61    0.32
  -5   4   4    0.83    0.25
  -5   4   4    0.66    0.32
  -4  -4   4   39.64    2.88
  -4  -4   4   47.91    2.91
  -4  -4   4   43.52    2.89
  -4  -4   4   45.00    2.90
   4  -4  -4   46.43    2.92
  -4  -4   4   45.65    2.91
  -4   4   4   48.63    2.80
  -4   4   4   45.60    2.86
  -3  -4   4   81.02    4.90
  -3  -4   4   77.15    4.88
  -3  -4   4   77.33    4.89
   3  -4  -4   80.84    4.92
  -3  -4   4   84.27    4.93
  -3  -4   4   77.36    4.91
  -3   4   4   73.89    4.88
  -3   4   4   81.32    4.83
   2  -4  -4   85.74    5.28
  -2  -4   4   87.25    5.34
  -2  -4   4   82.42    5.36
  -2  -4   4   90.45    5.39
  -2  -4   4   91.67    5.40
   2  -4  -4   84.32    5.37
  -2   4   4   79.66    5.36
  -2   4   4   96.91    5.33
  -2   4   4   86.77    5.37
   1  -4  -4  113.03    6.63
  -1  -4   4  110.09    6.71
  -1  -4   4  103.11    6.74
   1  -4  -4  112.23    6.64
  -1  -4   4  100.81    6.74
  -1  -4   4  110.37    6.65
  -1   4   4  116.32    6.75
  -1   4   4  114.51    6.73
   0  -4   4   21.52    1.28
   0   4   4   17.51    1.28
   0   4  -4   19.08    1.32
  -1  -4  -4  252.28   15.28
   1  -4   4  247.23   15.33
  -1  -4  -4  265.39   15.40
  -1   4  -4  253.22   15.38
  -2  -4  -4  126.43    7.58
  -2  -4  -4  128.06    7.50
   2  -4   4  129.30    7.54
  -2  -4  -4  125.88    7.52
  -2  -4  -4  119.39    7.62
  -2   4  -4  117.18    7.59
   3  -4   4    6.87    0.66
  -3  -4  -4    8.33    0.54
  -3  -4  -4    7.42    0.65
  -3  -4  -4    6.51    0.62
   3  -4   4    8.01    0.52
  -3  -4  -4    8.13    0.57
  -3   4  -4    5.30    0.57
  -4  -4  -4    0.87    0.18
   4  -4   4    0.64    0.25
  -4  -4  -4    0.82    0.28
  -4  -4  -4    0.88    0.28
  -4  -4  -4    1.07    0.26
  -4   4  -4    1.00    0.24
  -4   4  -4    1.08    0.24
  -5  -4  -4   23.19    1.54
   5  -4   4   22.66    1.62
  -5  -4  -4   21.68    1.59
  -5  -4  -4   20.91    1.52
  -5  -4  -4   22.37    1.48
  -5   4  -4   21.95    1.44
  -5   4  -4   22.93    1.50
  -6  -4  -4   50.20    3.38
   6  -4   4   50.39    3.47
  -6  -4  -4   53.66    3.27
  -6  -4  -4   50.81    3.34
  -6  -4  -4   49.88    3.30
  -6   4  -4   52.38    3.27
  -7  -4  -4   19.38    1.55
  -7  -4  -4   19.82    1.46
  -7  -4  -4   18.23    1.31
  -7  -4  -4   21.25    1.53
  -8  -4  -4    0.15    0.47
  -8  -4  -4    0.92    0.34
  -9  -4  -4    5.43    0.82
 -10  -4  -4    5.07    0.89
 -11  -4  -4    2.75    0.66
 -12  -5   4   -0.14    0.34
 -12   5   4   -0.20    0.36
 -11  -5   4    0.66    0.66
 -11  -5   4    0.37    0.49
 -11   5   4   -0.71    0.36
 -10  -5   4    5.78    1.05
 -10  -5   4    5.29    0.94
 -10   5   4    6.76    0.90
  -9  -5   4    8.87    1.16
  -9  -5   4   10.14    1.19
  -9   5   4    9.52    1.16
  -8  -5   4   12.53    1.16
  -8  -5   4   13.02    1.25
  -8  -5   4   12.87    1.12
  -8  -5   4   13.06    1.30
  -8  -5   4   13.15    1.01
  -8   5   4   14.57    1.30
  -7  -5   4    0.43    0.31
  -7  -5   4    0.26    0.40
  -7  -5   4    0.36    0.45
  -7  -5   4    0.55    0.29
  -7  -5   4    0.44    0.27
  -7  -5   4    0.42    0.28
  -7   5   4    0.56    0.17
  -7   5   4    1.12    0.46
  -6  -5   4   15.01    1.20
  -6  -5   4   15.31    1.16
  -6  -5   4   15.19    1.19
  -6  -5   4   14.10    1.22
   6  -5  -4   14.90    1.22
  -6  -5   4   13.76    1.12
  -6  -5   4   15.41    1.19
  -6   5   4   14.31    1.09
  -6   5   4   16.55    1.27
  -5  -5   4   32.60    2.28
  -5  -5   4   34.93    2.31
  -5  -5   4   32.77    2.27
  -5  -5   4   31.93    2.27
   5  -5  -4   33.74    2.31
  -5  -5   4   33.70    2.28
  -5   5   4   35.78    2.34
  -5   5   4   36.24    2.09
  -5   5   4   33.95    2.22
  -4  -5   4   91.33    5.47
  -4  -5   4   89.96    5.48
  -4  -5   4   82.39    5.49
   4  -5  -4   91.90    5.51
  -4  -5   4   90.23    5.48
  -4  -5   4   89.01    5.48
  -4   5   4   77.43    5.49
  -4   5   4   88.20    5.38
  -4   5   4   91.86    5.46
  -3  -5   4   17.38    1.14
  -3  -5   4   15.34    1.10
  -3  -5   4   14.51    1.05
   3  -5  -4   14.83    1.12
  -3  -5   4   15.57    1.09
  -3   5   4   12.57    1.06
  -3   5   4   13.89    1.00
  -2  -5   4   29.65    1.96
  -2  -5   4   28.89    1.91
  -2  -5   4   30.49    2.00
   2  -5  -4   29.90    1.97
   2  -5  -4   29.26    1.85
   2   5  -4   31.36    2.00
  -2   5   4   29.58    1.98
   1  -5  -4  121.72    7.61
  -1  -5   4  131.48    7.75
  -1  -5   4  119.41    7.61
   1  -5  -4  124.90    7.59
  -1  -5   4  120.52    7.69
   1   5  -4  128.96    7.74
  -1   5   4  137.72    7.75
   0  -5   4   92.44    5.43
   0  -5   4   94.44    5.46
   0  -5  -4   76.98    5.50
   0   5  -4   75.37    5.49
   0   5   4   90.70    5.52
   0   5   4  104.17    5.49
   1  -5   4   12.77    0.94
   1  -5   4   10.67    0.90
  -1  -5  -4   11.93    0.99
  -1  -5  -4   12.24    0.85
   1   5   4   15.94    0.96
  -1   5  -4   16.37    1.02
   1   5   4   15.11    1.01
  -2  -5  -4    6.48    0.49
   2  -5   4    6.05    0.51
  -2  -5  -4    6.27    0.55
  -2  -5  -4    6.26    0.63
  -2  -5  -4    6.62    0.46
   2  -5   4    6.53    0.60
  -2   5  -4    8.29    0.63
   3  -5   4   79.40    4.70
  -3  -5  -4   80.04    4.74
   3  -5   4   74.59    4.83
  -3  -5  -4   77.95    4.80
  -3   5  -4   73.57    4.79
  -4  -5  -4  110.39    6.99
   4  -5   4  114.29    7.02
  -4  -5  -4  116.99    6.99
  -4  -5  -4  118.86    6.93
  -4  -5  -4  117.49    6.88
  -4   5  -4  104.38    6.93
  -4   5  -4  110.32    6.83
  -5  -5  -4   17.84    1.46
  -5  -5  -4   19.93    1.35
   5  -5   4   20.45    1.51
  -5  -5  -4   20.83    1.46
  -5  -5  -4   20.87    1.41
  -5   5  -4   20.29    1.35
  -6  -5  -4    0.38    0.38
  -6  -5  -4    0.28    0.27
  -6  -5  -4   -0.03    0.24
  -6   5  -4   -0.01    0.13
  -7  -5  -4    8.07    0.93
  -7  -5  -4    7.42    0.71
  -7  -5  -4    8.12    0.84
  -8  -5  -4   12.08    1.20
  -9  -5  -4    2.24    0.67
 -10  -5  -4    1.07    0.61
 -11  -5  -4    1.85    0.71
 -11  -6   4    2.86    0.73
 -11   6   4    3.68    0.75
 -10  -6   4    1.68    0.68
 -10  -6   4    1.97    0.79
 -10   6   4    2.36    0.69
  -9  -6   4    0.30    0.23
  -9  -6   4    0.61    0.59
  -9  -6   4    0.25    0.48
  -9   6   4    0.07    0.41
  -8  -6   4    6.39    0.69
  -8  -6   4    7.42    0.82
  -8  -6   4    5.04    0.89
  -8  -6   4    7.19    0.94
  -8   6   4    5.75    0.89
  -7  -6   4   25.50    1.80
  -7  -6   4   24.86    1.81
  -7  -6   4   25.26    1.90
  -7  -6   4   23.82    1.74
  -7  -6   4   22.70    1.75
  -7  -6   4   27.29    1.88
  -7   6   4   27.62    1.92
  -7   6   4   21.84    1.61
  -6  -6   4   37.69    2.58
  -6  -6   4   38.74    2.70
  -6  -6   4   33.66    2.63
  -6  -6   4   37.96    2.66
  -6  -6   4   42.40    2.67
  -6  -6   4   38.76    2.66
  -6   6   4   40.91    2.73
  -6   6   4   43.60    2.59
  -5  -6   4    3.74    0.58
   5  -6  -4    3.77    0.56
  -5  -6   4    5.99    0.67
  -5  -6   4    3.84    0.54
  -5  -6   4    3.91    0.56
  -5  -6   4    4.29    0.58
  -5   6   4    3.98    0.39
  -5   6   4    5.49    0.55
  -5   6   4    4.77    0.64
  -4  -6   4   37.76    2.56
   4  -6  -4   41.07    2.63
  -4  -6   4   38.70    2.62
  -4  -6   4   40.44    2.61
  -4  -6   4   39.61    2.60
  -4  -6   4   39.75    2.60
  -4   6   4   44.13    2.60
  -4   6   4   33.53    2.61
  -4   6   4   39.11    2.49
  -3  -6   4   65.96    4.17
  -3  -6   4   66.12    4.22
   3  -6  -4   65.51    4.23
  -3  -6   4   70.64    4.27
  -3   6   4   66.60    4.27
   3   6  -4   69.17    4.26
  -3   6   4   65.20    4.23
  -3   6   4   66.26    4.14
  -2  -6   4   98.83    5.74
  -2  -6   4   86.78    5.82
  -2  -6   4   94.98    5.79
   2  -6  -4   94.84    5.80
   2   6  -4   92.97    5.83
  -2   6   4   92.29    5.82
  -1  -6   4   50.86    3.18
  -1  -6   4   54.04    3.35
   1  -6  -4   52.82    3.16
  -1  -6   4   50.86    3.28
   1  -6  -4   54.66    3.35
  -1   6   4   47.49    3.32
   1   6  -4   53.28    3.34
   0  -6   4    9.36    0.81
   0  -6   4   10.31    0.77
   0  -6   4    8.99    0.86
   0  -6  -4   11.26    0.90
   0   6   4   13.40    0.92
   0   6  -4   11.47    0.89
   1  -6   4  136.25    8.33
  -1  -6  -4  115.90    8.38
  -1  -6  -4  136.59    8.29
   1  -6   4  137.20    8.31
  -1  -6  -4  138.98    8.25
  -1  -6  -4  135.47    8.20
  -1   6  -4  143.29    8.40
   1   6   4  148.98    8.41
  -2  -6  -4  100.41    6.33
   2  -6   4   99.32    6.29
   2  -6   4  100.53    6.37
  -2  -6  -4  101.26    6.43
  -2  -6  -4  100.73    6.28
  -2  -6  -4  103.54    6.24
   2   6   4  113.08    6.35
  -2   6  -4  111.64    6.42
   2   6   4  100.78    6.41
  -3  -6  -4    7.56    0.59
   3  -6   4    7.55    0.55
  -3  -6  -4    7.53    0.66
   3  -6   4    7.89    0.73
  -3  -6  -4    7.14    0.73
  -3  -6  -4    7.71    0.54
  -3   6  -4    6.67    0.69
   4  -6   4    2.20    0.43
  -4  -6  -4    2.44    0.29
  -4  -6  -4    2.68    0.35
  -4  -6  -4    2.67    0.44
  -4  -6  -4    2.44    0.47
  -4   6  -4    2.37    0.38
  -5  -6  -4   25.47    1.78
  -5  -6  -4   26.38    1.70
  -5  -6  -4   25.07    1.79
   5  -6   4   25.71    1.87
  -5   6  -4   22.72    1.66
  -6  -6  -4   41.17    2.92
  -6  -6  -4   43.25    2.99
  -6  -6  -4   43.78    2.89
  -6   6  -4   47.86    2.79
  -7  -6  -4   12.03    1.14
  -7  -6  -4   11.03    0.97
  -8  -6  -4   -0.20    0.44
  -9  -6  -4    1.85    0.60
 -10  -6  -4    5.52    0.93
 -11  -6  -4    1.24    0.59
 -11  -7   4    0.65    0.52
 -11   7   4    1.01    0.47
 -10  -7   4    1.29    0.54
 -10   7   4    1.33    0.51
  -9  -7   4   10.49    1.31
  -9  -7   4   12.30    0.96
  -9   7   4   11.30    1.33
  -8  -7   4    7.34    0.83
  -8  -7   4    8.99    1.05
  -8  -7   4    6.04    0.82
  -8  -7   4    7.64    1.08
  -8   7   4    8.60    1.06
  -7  -7   4    0.34    0.33
  -7  -7   4    0.61    0.29
  -7  -7   4    0.66    0.49
  -7  -7   4    0.65    0.33
  -7  -7   4    0.53    0.33
  -7  -7   4    0.01    0.36
  -7   7   4    0.70    0.30
  -7   7   4    0.47    0.46
  -6  -7   4    7.80    0.88
  -6  -7   4    5.83    0.77
  -6  -7   4    5.14    0.80
  -6  -7   4    5.71    0.65
  -6  -7   4    5.74    0.74
  -6  -7   4    7.61    0.84
  -6   7   4    6.50    0.84
  -6   7   4    6.60    0.66
  -5  -7   4   40.79    2.66
  -5  -7   4   39.22    2.69
  -5  -7   4   39.17    2.67
  -5  -7   4   39.52    2.72
  -5   7   4   42.78    2.53
  -5   7   4   36.98    2.73
  -5   7   4   39.69    2.65
   4  -7  -4   46.64    2.90
  -4  -7   4   43.52    2.81
  -4  -7   4   47.07    2.88
  -4  -7   4   41.20    2.89
  -4   7   4   45.20    2.74
  -4   7   4   43.01    2.85
  -4   7   4   35.47    2.87
  -3  -7   4   16.59    1.15
  -3  -7   4   14.92    1.24
  -3  -7   4   15.64    1.22
   3  -7  -4   16.94    1.24
  -3   7   4   15.43    1.28
  -3   7   4   17.19    1.25
  -3   7   4   14.58    1.12
   3   7  -4   15.80    1.34
  -2  -7   4   52.02    3.25
  -2  -7   4   52.07    3.31
   2   7  -4   44.24    3.27
  -2   7   4   53.87    3.31
  -1  -7   4  151.37    9.37
  -1  -7   4  141.63    9.36
   1  -7  -4  146.84    9.43
  -1  -7   4  160.36    9.45
   1   7  -4  171.11    9.47
  -1   7   4  149.38    9.43
   0  -7   4   50.87    3.33
   0  -7  -4   52.85    3.36
   0  -7   4   48.65    3.24
   0  -7   4   49.37    3.20
   0   7   4   54.13    3.35
   0   7  -4   53.61    3.36
   1  -7   4   29.85    1.95
   1  -7   4   25.73    1.80
   1  -7   4   26.06    1.78
  -1  -7  -4   25.48    1.90
   1   7   4   28.87    1.91
  -1   7  -4   27.51    1.90
  -2  -7  -4    6.98    0.78
  -2  -7  -4    5.42    0.54
   2  -7   4    5.63    0.51
   2  -7   4    5.12    0.60
  -2  -7  -4    6.26    0.50
  -2   7  -4    8.40    0.73
   2   7   4    7.06    0.69
  -3  -7  -4   58.43    3.99
  -3  -7  -4   65.65    3.85
   3  -7   4   63.28    3.96
  -3  -7  -4   62.62    3.90
  -3   7  -4   58.80    3.95
  -4  -7  -4   91.01    5.36
  -4  -7  -4   90.18    5.28
  -4  -7  -4   81.70    5.41
   4  -7   4   88.22    5.41
  -4   7  -4   75.86    5.32
  -5  -7  -4   16.76    1.44
  -5  -7  -4   20.58    1.52
  -5   7  -4   20.05    1.39
  -6  -7  -4    1.67    0.49
  -6  -7  -4    1.72    0.44
  -6   7  -4    1.35    0.31
  -7  -7  -4    6.26    0.80
  -7  -7  -4    7.32    0.95
  -8  -7  -4    6.66    0.72
  -8  -7  -4    6.84    0.95
  -9  -7  -4    7.23    1.05
 -10  -7  -4    0.56    0.48
 -11  -7  -4    0.38    0.50
 -11  -8   4    4.74    0.80
 -11   8   4    4.66    0.92
 -10  -8   4    1.58    0.58
 -10   8   4    2.27    0.60
  -9  -8   4   -0.20    0.42
  -9  -8   4    0.14    0.29
  -9   8   4   -0.20    0.40
  -8  -8   4    3.25    0.57
  -8  -8   4    2.16    0.61
  -8   8   4    3.14    0.74
  -7  -8   4   16.40    1.46
  -7  -8   4   16.70    1.45
  -7  -8   4   18.02    1.46
  -7   8   4   18.45    1.34
  -7   8   4   17.01    1.56
  -6  -8   4   21.53    1.68
  -6  -8   4   23.04    1.57
  -6  -8   4   19.99    1.62
  -6  -8   4   21.19    1.71
  -6  -8   4   21.77    1.65
  -6   8   4   21.85    1.59
  -6   8   4   21.35    1.74
  -5  -8   4    2.11    0.47
  -5  -8   4    2.77    0.57
  -5  -8   4    2.22    0.47
  -5  -8   4    2.58    0.49
  -5   8   4    2.05    0.36
  -5   8   4    2.80    0.58
  -5   8   4    2.60    0.51
  -4  -8   4   20.69    1.57
  -4  -8   4   19.23    1.50
  -4  -8   4   20.03    1.42
  -4   8   4   21.75    1.52
  -4   8   4   16.71    1.53
  -4   8   4   19.09    1.36
  -3  -8   4   58.73    3.99
  -3  -8   4   60.49    3.84
   3  -8  -4   62.33    3.95
  -3  -8   4   60.09    3.93
  -3   8   4   63.37    4.02
  -3   8   4   60.37    3.84
  -3   8   4   62.71    3.98
  -2  -8   4   56.06    3.59
  -2  -8   4   51.40    3.49
  -2   8   4   52.15    3.56
   2   8  -4   57.91    3.60
   1  -8  -4   29.95    2.04
  -1  -8   4   27.27    1.93
   1   8  -4   29.32    2.04
  -1   8   4   27.37    2.02
   0  -8   4    5.67    0.69
   0  -8  -4    5.41    0.69
   0  -8   4    4.52    0.45
   0  -8   4    4.17    0.52
   0   8   4    4.33    0.60
   0   8  -4    3.04    0.57
  -1  -8  -4   71.08    5.30
   1  -8   4   84.80    5.21
   1  -8   4   81.66    5.19
   1   8   4   96.51    5.37
  -1   8  -4   86.14    5.34
  -2  -8  -4   62.12    3.90
   2  -8   4   61.79    3.69
   2  -8   4   61.07    3.77
  -2   8  -4   54.24    3.83
   2   8   4   55.93    3.84
  -3  -8  -4   17.05    1.29
   3  -8   4   18.16    1.37
  -3  -8  -4   16.41    1.44
  -3   8  -4   20.70    1.43
  -4  -8  -4    0.56    0.38
  -4  -8  -4    0.26    0.30
  -4   8  -4    0.54    0.34
  -5  -8  -4   13.88    1.21
  -5  -8  -4   15.61    1.32
  -5   8  -4   15.46    1.19
  -6  -8  -4   23.19    1.69
  -6  -8  -4   22.02    1.71
  -6   8  -4   20.27    1.51
  -7  -8  -4    7.84    0.97
  -7  -8  -4    8.63    0.93
  -8  -8  -4    0.40    0.33
  -8  -8  -4    0.24    0.48
  -9  -8  -4    1.67    0.55
 -10  -8  -4    3.63    0.72
 -10  -9   4    1.53    0.61
 -10   9   4    2.29    0.62
  -9  -9   4    6.12    0.93
  -9  -9   4    6.71    0.79
  -9   9   4    6.15    0.98
  -8  -9   4    7.82    0.93
  -8  -9   4    7.35    0.96
  -8   9   4    5.29    0.88
  -7  -9   4    0.35    0.43
  -7  -9   4    0.90    0.45
  -7   9   4    0.34    0.34
  -7   9   4    0.11    0.48
  -6  -9   4    9.04    0.99
  -6  -9   4    9.80    1.05
  -6  -9   4    8.76    0.97
  -6  -9   4    9.46    1.08
  -6   9   4    8.73    0.90
  -6   9   4    8.39    1.05
  -5  -9   4   19.07    1.49
  -5  -9   4   18.06    1.44
  -5  -9   4   18.08    1.52
  -5  -9   4   19.96    1.63
  -5   9   4   20.58    1.53
  -5   9   4   20.47    1.35
  -5   9   4   16.53    1.56
  -4  -9   4   50.52    3.08
  -4  -9   4   48.03    2.98
  -4  -9   4   48.59    3.10
  -4  -9   4   45.39    3.16
  -4   9   4   48.19    2.94
  -4   9   4   36.55    3.09
  -4   9   4   41.69    3.07
  -3  -9   4   11.41    1.05
  -3  -9   4   12.65    1.15
  -3   9   4   11.94    1.27
  -3   9   4   12.02    0.95
  -3   9   4   10.64    1.08
  -2  -9   4   15.73    1.37
  -2  -9   4   17.05    1.29
  -2   9   4   17.72    1.39
   2   9  -4   15.23    1.36
  -1  -9   4   55.46    3.76
   1  -9  -4   60.72    3.79
  -1  -9   4   55.70    3.65
  -1   9   4   54.70    3.76
   1   9  -4   57.92    3.79
   0  -9  -4   51.47    3.30
   0  -9   4   40.38    3.22
   0  -9   4   45.84    3.13
   0   9   4   54.88    3.31
   0   9  -4   52.18    3.30
  -1  -9  -4   16.99    1.38
   1  -9   4   15.86    1.17
   1  -9   4   16.15    1.17
  -1   9  -4   16.39    1.36
   1   9   4   14.18    1.31
   2  -9   4    0.44    0.25
  -2  -9  -4    0.43    0.39
  -2   9  -4    0.24    0.30
   2   9   4    0.29    0.35
  -3  -9  -4   25.51    1.90
   3  -9   4   25.98    1.96
  -3   9  -4   21.66    1.79
  -4  -9  -4   40.43    2.87
  -4  -9  -4   38.88    2.70
  -4   9  -4   43.17    2.80
  -5  -9  -4    5.75    0.75
  -5  -9  -4    5.99    0.86
  -5   9  -4    6.41    0.76
  -6  -9  -4    0.03    0.46
  -6  -9  -4    0.08    0.37
  -6   9  -4    0.86    0.34
  -7  -9  -4    5.54    0.80
  -7  -9  -4    5.14    0.81
  -8  -9  -4    8.69    1.07
  -8  -9  -4    8.45    0.91
  -9  -9  -4    4.53    0.83
 -10  -9  -4    0.34    0.46
 -10  10   4    1.20    0.51
  -9 -10   4   -0.26    0.34
  -9 -10   4    0.20    0.35
  -9  10   4   -0.30    0.42
  -8 -10   4    3.15    0.66
  -8 -10   4    3.31    0.69
  -8  10   4    3.86    0.80
  -7 -10   4   13.46    1.24
  -7 -10   4   15.35    1.37
  -7  10   4   13.12    1.18
  -7  10   4   12.34    1.40
  -6 -10   4   20.27    1.64
  -6 -10   4   19.13    1.47
  -6  10   4   17.18    1.47
  -6  10   4   16.80    1.59
  -5 -10   4    1.32    0.51
  -5 -10   4    1.55    0.45
  -5 -10   4    1.46    0.49
  -5  10   4    1.71    0.57
  -5  10   4    1.06    0.48
  -5  10   4    1.69    0.36
  -4 -10   4    9.50    0.94
  -4 -10   4    9.37    1.13
  -4 -10   4    8.52    0.96
  -4  10   4    9.42    0.83
  -4  10   4   10.60    1.03
  -4  10   4    8.32    1.11
  -3 -10   4   22.39    1.76
  -3 -10   4   23.27    1.90
  -3  10   4   27.38    1.71
  -3  10   4   22.95    1.88
  -3  10   4   22.21    1.84
  -2 -10   4   25.45    1.95
  -2 -10   4   25.63    2.07
   2  10  -4   32.28    2.13
  -2  10   4   27.06    2.08
  -1 -10   4   11.16    0.94
  -1 -10   4    9.04    1.07
  -1  10   4    9.92    1.06
   1  10  -4   10.20    1.07
   0 -10  -4    4.78    0.81
   0 -10   4    5.85    0.67
   0 -10   4    6.42    0.86
   0  10  -4    8.37    1.01
   0  10   4    5.57    0.80
   1 -10   4   60.14    3.79
  -1 -10  -4   55.06    3.86
  -1  10  -4   63.51    3.89
   1  10   4   51.49    3.83
  -2 -10  -4   52.90    3.65
  -2  10  -4   48.84    3.59
   2  10   4   59.81    3.82
  -3 -10  -4    6.67    0.97
  -3  10  -4    9.05    0.96
  -4 -10  -4    0.61    0.46
  -4  10  -4    0.99    0.47
  -5 -10  -4    7.76    0.90
  -5 -10  -4    8.16    1.04
  -5  10  -4    8.68    0.97
  -6 -10  -4   16.24    1.28
  -6 -10  -4   11.46    1.34
  -6  10  -4   15.27    1.21
  -7 -10  -4    5.63    0.83
  -7 -10  -4    6.58    0.94
  -8 -10  -4    0.17    0.40
  -8 -10  -4   -0.08    0.36
  -9 -10  -4    1.03    0.47
  -9 -11   4    5.07    0.70
  -9  11   4    4.48    0.81
  -8 -11   4    1.92    0.58
  -8  11   4    2.15    0.69
  -7 -11   4    0.24    0.39
  -7  11   4    0.82    0.42
  -7  11   4    0.42    0.57
  -6 -11   4    5.89    0.96
  -6  11   4    4.29    0.88
  -6  11   4    5.53    0.78
  -5 -11   4   21.39    1.79
  -5  11   4   20.07    1.45
  -5  11   4   21.00    1.70
  -5  11   4   18.13    1.71
  -4 -11   4   20.90    1.56
  -4 -11   4   20.71    1.75
  -4 -11   4   22.37    1.64
  -4  11   4   18.81    1.67
  -4  11   4   18.83    1.44
  -4  11   4   15.76    1.65
  -3 -11   4    2.91    0.55
  -3 -11   4    4.02    0.75
  -3  11   4    3.91    0.75
  -3  11   4    4.08    0.83
  -3  11   4    1.81    0.46
  -2 -11   4    5.63    0.73
  -2 -11   4    4.99    0.87
  -2  11   4    6.88    0.96
   2  11  -4    5.35    0.88
  -1 -11   4   32.27    2.46
  -1 -11   4   33.23    2.30
   1  11  -4   34.92    2.50
  -1  11   4   31.86    2.46
   0 -11  -4   25.22    2.14
   0 -11   4   27.70    1.97
   0  11  -4   31.10    2.22
   0  11   4   29.21    2.19
  -1 -11  -4    6.95    0.98
   1  11   4    7.91    1.07
  -1  11  -4    6.92    0.96
  -2 -11  -4    2.68    0.66
  -2  11  -4    3.63    0.71
  -2  11  -4    3.95    0.63
  -3 -11  -4   21.95    1.87
  -3  11  -4   21.46    1.78
  -4 -11  -4   23.30    1.93
  -4  11  -4   21.57    1.80
  -5 -11  -4    6.67    1.05
  -5  11  -4    8.62    1.00
  -6 -11  -4    0.49    0.46
  -6  11  -4   -0.17    0.32
  -7 -11  -4    3.96    0.78
  -8 -11  -4    4.48    0.72
  -8 -11  -4    4.67    0.74
  -9 -11  -4    2.21    0.54
  -8 -12   4    2.22    0.59
  -8  12   4    1.36    0.51
  -7 -12   4    5.58    0.91
  -7  12   4    7.28    1.06
  -7  12   4    8.47    0.96
  -6 -12   4    4.25    0.88
  -6  12   4    6.26    0.93
  -6  12   4    4.94    0.80
  -5 -12   4    0.30    0.48
  -5  12   4   -0.10    0.52
  -5  12   4    0.93    0.36
  -5  12   4    0.67    0.47
  -4 -12   4    5.76    1.03
  -4  12   4    5.16    0.86
  -4  12   4    6.35    0.72
  -4  12   4    6.06    0.96
  -3 -12   4   18.79    1.63
  -3  12   4   16.80    1.32
  -3  12   4   15.32    1.52
  -3  12   4   14.54    1.53
  -2 -12   4   14.46    1.28
  -2 -12   4   14.48    1.47
  -2  12   4   14.52    1.46
   2  12  -4   15.82    1.47
  -1 -12   4    6.34    0.77
  -1 -12   4    6.62    0.99
   1  12  -4    5.92    0.95
  -1  12   4    6.64    1.02
   0 -12  -4    4.21    0.81
   0  12  -4    2.87    0.71
   0  12   4    1.57    0.62
  -1 -12  -4   23.23    2.05
   1  12   4   26.34    2.07
  -1  12  -4   25.12    2.04
  -2 -12  -4   24.24    1.87
  -2  12  -4   17.02    1.71
  -3 -12  -4    5.39    0.96
  -3  12  -4    4.16    0.81
  -4 -12  -4    0.81    0.53
  -4  12  -4    0.92    0.56
  -5 -12  -4    5.43    0.96
  -5  12  -4    4.38    0.77
  -6 -12  -4    7.98    1.16
  -6  12  -4    9.57    1.04
  -7 -12  -4    4.34    0.78
  -8 -12  -4   -0.33    0.36
  -8 -13   4    2.03    0.57
  -8  13   4    1.37    0.52
  -7 -13   4    1.01    0.56
  -7  13   4    1.17    0.51
  -7  13   4    0.29    0.46
  -6 -13   4    2.93    0.74
  -6  13   4    1.79    0.54
  -6  13   4    2.07    0.67
  -5 -13   4    5.41    1.07
  -5  13   4    6.87    0.99
  -5  13   4    6.86    1.00
  -5  13   4    7.79    0.76
  -4 -13   4    4.65    0.96
  -4  13   4    6.87    1.00
  -4  13   4    4.93    0.88
  -4  13   4    5.53    0.70
  -3 -13   4    0.76    0.52
  -3  13   4    0.44    0.46
  -3  13   4    1.82    0.49
  -3  13   4    0.98    0.58
  -2 -13   4    4.14    0.81
   2  13  -4    4.49    0.83
  -2  13   4    4.98    0.72
  -2  13   4    5.19    0.90
  -2  13   4    3.52    0.84
  -1 -13   4   19.64    1.69
   1  13  -4   14.70    1.58
  -1  13   4   17.36    1.67
   0  13   4   16.48    1.61
   0  13  -4   15.38    1.55
  -1 -13  -4    3.32    0.82
   1  13   4    2.97    0.75
  -1  13  -4    3.55    0.79
  -2 -13  -4    2.43    0.69
  -2  13  -4    3.62    0.79
  -3 -13  -4   10.79    1.38
  -3  13  -4    9.00    1.24
  -4 -13  -4   12.10    1.44
  -4  13  -4    7.24    1.09
  -5 -13  -4    3.14    0.76
  -5  13  -4    2.76    0.63
  -6 -13  -4    0.02    0.45
  -6  13  -4    0.66    0.42
  -7 -13  -4    2.25    0.64
  -7  14   4    3.86    0.69
  -6 -14   4    3.32    0.72
  -6  14   4    2.54    0.65
  -6  14   4    2.37    0.61
  -5 -14   4    0.33    0.48
  -5  14   4    0.21    0.44
  -5  14   4   -0.02    0.40
  -5  14   4    0.67    0.33
  -4 -14   4    2.62    0.71
  -4  14   4    1.39    0.62
  -4  14   4    0.78    0.55
  -4  14   4    2.40    0.53
  -3 -14   4   11.57    1.48
  -3  14   4   13.44    1.15
  -3  14   4   14.53    1.45
  -3  14   4    9.53    1.33
  -2 -14   4   13.80    1.49
   2  14  -4   11.73    1.76
  -2  14   4   12.90    1.57
  -2  14   4   13.07    1.51
  -2  14   4   14.41    1.26
   1  14  -4    1.69    0.72
  -1  14   4    0.45    0.62
   0  14  -4    1.31    0.63
   0  14   4    0.60    0.57
  -1 -14  -4    4.68    0.98
   1  14   4    7.25    1.12
  -1  14  -4    6.45    1.13
  -2 -14  -4    8.53    1.25
  -2  14  -4    8.55    1.20
  -3 -14  -4    1.72    0.74
  -3  14  -4    1.71    0.63
  -4 -14  -4    0.03    0.57
  -4  14  -4    0.24    0.33
  -4  14  -4    0.71    0.54
  -5 -14  -4    4.15    0.91
  -5  14  -4    5.84    0.87
  -6 -14  -4    5.77    0.98
  -6  14  -4    3.96    0.68
  -5 -15   4    5.21    0.95
  -5  15   4    4.01    0.80
  -5  15   4    4.53    0.82
  -4 -15   4    4.68    0.90
  -4  15   4    7.00    0.77
  -4  15   4    3.75    0.84
  -4  15   4    6.81    1.01
  -3 -15   4    0.80    0.59
  -3  15   4    0.36    0.39
  -3  15   4    0.43    0.43
  -3  15   4    1.03    0.52
  -2 -15   4    2.60    0.73
  -2  15   4    2.44    0.59
  -2  15   4    1.28    0.66
  -2  15   4    1.31    0.59
  -1  15   4    9.86    1.30
  -1  15   4   11.18    1.43
  -1  15   4    6.52    0.92
   0  15  -4    8.17    1.18
   0  15   4    6.64    1.14
   1  15   4    2.73    0.95
  -1  15  -4    1.79    0.74
  -2 -15  -4    0.54    0.54
  -2  15  -4    0.42    0.50
  -3 -15  -4    5.53    1.04
  -3  15  -4    5.71    1.01
  -4 -15  -4    8.34    1.14
  -4  15  -4    6.87    0.65
  -4  15  -4    6.90    0.98
  -5 -15  -4    1.85    0.73
  -5  15  -4    1.36    0.59
  -3 -16   4    6.69    1.07
  -3  16   4    3.56    0.78
  -3  16   4    6.89    0.80
  -3  16   4    8.01    1.07
  -2  16   4    5.22    0.76
  -2  16   4    6.27    1.01
  -2  16   4    5.11    0.95
  -1  16   4    0.00    0.37
  -1  16   4    0.41    0.63
  -1  16   4    1.06    0.64
   1  16  -4    0.18    0.42
   0  16  -4    1.66    0.60
   0  16   4    1.36    0.54
   0  16   4    1.16    0.57
  -1  16  -4    3.20    0.75
  -2 -16  -4    6.28    1.08
  -2  16  -4    8.57    1.20
  -3 -16  -4    3.05    0.76
  -3  16  -4    3.41    0.72
  -3  16  -4    4.46    0.59
 -12   0   5    0.68    0.49
 -11   0   5    0.37    0.59
 -11   0   5    0.13    0.43
 -10   0   5    1.83    0.69
 -10   0   5    3.05    0.65
  -9   0   5   10.51    1.09
  -9   0   5   12.01    1.26
  -9   0   5   10.98    1.21
  -8   0   5   33.17    2.30
  -8   0   5   31.87    2.22
  -8   0   5   32.26    2.28
  -8   0   5   33.00    2.35
  -7   0   5   12.82    1.11
   7   0  -5   11.46    1.03
   7   0  -5   12.39    0.97
  -7   0   5   13.33    1.07
  -7   0   5   12.98    1.07
  -7   0   5   12.46    1.00
  -6   0   5    9.48    0.71
   6   0  -5   10.64    0.88
  -6   0   5    9.47    0.84
   6   0  -5    9.08    0.75
  -6   0   5    9.74    0.83
  -6   0   5    9.51    0.87
  -6   0   5    7.90    0.78
  -6   0   5    9.31    0.69
  -5   0   5   36.09    2.49
  -5   0   5   37.09    2.53
  -5   0   5   38.69    2.46
  -5   0   5   39.24    2.56
   5   0  -5   45.44    2.60
  -5   0   5   37.44    2.53
  -5   0   5   40.43    2.47
   5   0  -5   38.12    2.49
  -4   0   5   37.67    2.34
  -4   0   5   36.41    2.36
  -4   0   5   35.93    2.34
   4   0  -5   41.26    2.45
   4   0  -5   36.79    2.35
  -4   0   5   36.11    2.38
  -4   0   5   38.10    2.39
  -4   0   5   36.42    2.40
  -4   0   5   36.58    2.36
  -3   0   5    6.55    0.51
  -3   0   5    6.09    0.51
   3   0  -5    7.83    0.64
  -3   0   5    7.00    0.54
  -3   0   5    5.63    0.53
  -3   0   5    6.57    0.54
   1   0  -5  424.16   25.57
   0   0  -5 1000.00   60.23
  -2   0  -5    3.83    0.39
  -3   0  -5    0.67    0.19
  -3   0  -5    1.03    0.21
  -4   0  -5   58.03    3.48
  -4   0  -5   52.94    3.41
  -5   0  -5   76.67    4.65
  -5   0  -5   73.63    4.72
  -5   0  -5   75.42    4.59
  -6   0  -5    1.53    0.32
  -6   0  -5    1.15    0.38
   7   0   5   11.26    1.35
  -7   0  -5   10.90    0.97
  -7   0  -5   12.36    1.05
  -8   0  -5   21.72    1.70
  -9   0  -5   10.50    1.08
 -10   0  -5    1.94    0.61
 -11   0  -5    0.16    0.40
 -12   0  -5    0.89    0.46
 -12  -1   5    0.10    0.54
 -12   1   5   -0.17    0.54
 -11  -1   5    3.56    0.85
 -11  -1   5    3.31    0.69
 -11   1   5    2.98    0.73
 -10  -1   5   11.16    1.31
 -10  -1   5    8.45    1.10
 -10   1   5    9.76    1.12
 -10   1   5    9.89    1.22
  -9  -1   5    1.30    0.52
  -9  -1   5    1.08    0.49
  -9   1   5    2.46    0.56
  -9   1   5    2.20    0.59
  -9   1   5    2.22    0.49
  -8  -1   5    4.76    0.62
  -8  -1   5    6.68    0.85
  -8  -1   5    6.82    0.76
  -8  -1   5    6.88    0.89
   8  -1  -5    6.10    0.71
  -8   1   5    6.37    0.77
  -8   1   5    5.00    0.63
  -8   1   5    6.54    0.89
  -8   1   5    6.13    0.75
  -7  -1   5   28.34    2.05
  -7  -1   5   30.15    2.07
  -7  -1   5   28.62    1.86
  -7  -1   5   27.99    1.93
   7  -1  -5   27.17    2.01
  -7  -1   5   31.24    2.11
   7  -1  -5   29.28    2.00
  -7  -1   5   27.78    2.00
  -7   1   5   29.18    1.99
  -7   1   5   30.59    2.06
  -7   1   5   33.82    2.13
  -7   1   5   32.72    2.06
  -6  -1   5   56.84    3.55
  -6  -1   5   56.93    3.50
  -6  -1   5   58.70    3.56
   6  -1  -5   56.79    3.53
   6  -1  -5   56.97    3.51
  -6  -1   5   58.43    3.47
  -6  -1   5   58.32    3.58
  -6  -1   5   53.66    3.43
  -6   1   5   50.79    3.49
  -6   1   5   53.39    3.53
  -6   1   5   56.09    3.58
  -6   1   5   53.01    3.41
   6   1  -5   52.56    3.44
  -6   1   5   55.20    3.40
  -6   1   5   52.28    3.51
   5  -1  -5   43.43    2.73
  -5  -1   5   41.29    2.72
  -5  -1   5   44.77    2.77
  -5  -1   5   41.52    2.70
  -5  -1   5   41.55    2.69
   5   1  -5   42.49    2.81
  -5   1   5   44.34    2.66
  -5   1   5   42.93    2.75
  -5   1   5   42.38    2.78
  -5   1   5   42.46    2.72
   5   1  -5   41.03    2.67
  -5   1   5   46.37    2.69
  -5   1   5   40.91    2.73
   4  -1  -5    7.43    0.69
  -4  -1   5    8.49    0.64
  -4  -1   5    9.24    0.73
  -4  -1   5    8.46    0.73
  -4  -1   5    7.38    0.67
  -4  -1   5    7.71    0.68
   4   1  -5   11.64    0.84
  -4   1   5    9.66    0.75
  -4   1   5    9.78    0.71
  -4   1   5    9.93    0.72
  -4   1   5    8.82    0.70
  -4   1   5   10.39    0.70
  -4   1   5   10.71    0.73
  -4   1   5    9.72    0.65
  -3  -1   5  175.69   10.65
  -3  -1   5  176.44   10.66
  -3  -1   5  184.75   10.67
  -3  -1   5  161.48   10.66
  -3  -1   5  180.66   10.62
   3  -1  -5  174.90   10.66
  -3   1   5  175.92   10.63
  -3   1   5  176.80   10.64
  -3   1   5  178.09   10.65
  -3   1   5  170.05   10.67
   3   1  -5  181.47   10.75
  -3   1   5  176.16   10.61
  -2  -1   5  203.81   12.72
  -2  -1   5  199.87   12.74
  -2   1   5  213.20   12.75
  -2   1   5  210.95   12.83
   2   1  -5  222.91   12.85
  -2   1   5  217.01   12.73
   1  -1  -5  132.62    8.88
  -1   1   5  158.45    8.77
   0  -1  -5   22.89    1.56
  -1  -1  -5   81.49    4.83
   1   1   5   74.91    4.72
  -2  -1  -5  265.91   15.66
  -2  -1  -5  278.74   15.67
  -2   1  -5  230.63   15.64
   2   1   5  262.83   15.60
  -3  -1  -5   86.18    5.18
  -3  -1  -5   84.21    5.20
  -3   1  -5   85.15    5.17
  -3   1  -5   82.37    5.18
  -4  -1  -5    0.13    0.20
  -4  -1  -5    0.29    0.15
  -4   1  -5    0.05    0.20
  -4   1  -5   -0.10    0.12
  -5  -1  -5   24.08    1.61
  -5  -1  -5   25.01    1.68
  -5  -1  -5   24.65    1.56
  -5   1  -5   23.61    1.51
  -5   1  -5   23.31    1.65
  -6  -1  -5   32.52    2.31
  -6  -1  -5   34.38    2.25
  -6   1  -5   35.62    2.31
  -7  -1  -5   29.03    1.94
  -7  -1  -5   27.15    2.01
  -7   1  -5   27.85    1.99
  -8  -1  -5    6.72    0.85
  -8  -1  -5    5.70    0.75
  -8   1  -5    5.72    0.82
  -9  -1  -5    1.45    0.50
  -9   1  -5    1.56    0.50
 -10  -1  -5    3.61    0.76
 -10   1  -5    5.03    0.78
 -11  -1  -5    2.19    0.67
 -11   1  -5    2.32    0.61
 -12  -1  -5    0.26    0.44
 -12  -2   5    2.08    0.75
 -12   2   5    1.52    0.62
 -11  -2   5    0.34    0.62
 -11  -2   5    0.39    0.43
 -11   2   5   -0.54    0.35
 -10  -2   5    1.62    0.63
 -10  -2   5    1.67    0.72
 -10   2   5    0.87    0.42
 -10   2   5    0.54    0.47
  -9  -2   5   15.82    1.43
   9  -2  -5   14.28    1.25
  -9  -2   5   14.88    1.41
  -9   2   5   17.10    1.33
  -9   2   5   16.03    1.44
  -9   2   5   20.94    2.17
  -8  -2   5   20.86    1.69
  -8  -2   5   20.85    1.63
  -8  -2   5   19.83    1.64
  -8  -2   5   20.46    1.55
   8  -2  -5   20.63    1.55
  -8   2   5   21.80    1.70
  -8   2   5   22.11    1.63
  -8   2   5   22.53    1.57
  -8   2   5   22.03    1.59
  -7  -2   5    7.21    0.65
  -7  -2   5    6.28    0.67
  -7  -2   5    6.25    0.73
  -7  -2   5    8.07    0.89
  -7  -2   5    6.31    0.55
   7  -2  -5    6.41    0.68
  -7  -2   5    6.61    0.79
  -7   2   5    7.48    0.79
  -7   2   5    5.83    0.66
  -7   2   5    6.43    0.79
  -7   2   5    7.28    0.69
  -6  -2   5    6.37    0.56
  -6  -2   5    6.26    0.69
   6  -2  -5    6.04    0.63
  -6  -2   5    5.54    0.58
  -6  -2   5    4.76    0.57
  -6  -2   5    7.37    0.78
  -6  -2   5    5.13    0.66
  -6   2   5    6.97    0.65
  -6   2   5    6.58    0.62
  -6   2   5    6.75    0.77
  -6   2   5    6.67    0.69
  -6   2   5    6.82    0.52
  -5  -2   5   89.36    5.60
  -5  -2   5   92.37    5.66
  -5  -2   5   98.20    5.60
  -5  -2   5   90.91    5.64
  -5  -2   5   90.94    5.61
  -5  -2   5   88.61    5.64
   5  -2  -5   93.68    5.64
  -5   2   5   82.88    5.57
  -5   2   5   94.05    5.52
  -5   2   5   87.26    5.66
  -5   2   5   90.58    5.59
  -5   2   5   89.21    5.60
  -5   2   5   92.85    5.62
   4  -2  -5  100.92    6.28
  -4  -2   5   99.23    6.25
  -4  -2   5  102.66    6.28
  -4  -2   5  108.05    6.27
  -4  -2   5  102.91    6.28
  -4  -2   5  100.72    6.28
  -4   2   5  101.43    6.24
  -4   2   5   98.33    6.19
  -4   2   5   94.93    6.29
  -4   2   5  108.02    6.27
  -4   2   5  109.42    6.18
  -4   2   5  100.03    6.23
  -4   2   5  100.27    6.25
  -3  -2   5  112.09    6.88
  -3  -2   5  112.54    6.90
   3  -2  -5  114.24    6.90
  -3  -2   5  116.54    6.90
  -3  -2   5  113.43    6.89
  -3  -2   5  111.13    6.81
  -3   2   5   97.24    6.84
  -3   2   5  116.38    6.90
  -3   2   5  119.01    6.87
  -3   2   5  117.71    6.85
  -2  -2   5    9.74    0.66
  -2  -2   5    9.69    0.72
  -2  -2   5   10.42    0.74
  -2   2   5    9.42    0.74
  -2   2   5    9.75    0.67
  -2   2   5    9.76    0.73
  -2   2   5   10.12    0.67
  -1  -2   5  141.91    9.49
  -1   2   5  163.02    9.51
  -1   2   5  163.57    9.43
  -1   2   5  159.00    9.43
  -1  -2  -5   82.09    5.38
  -1  -2  -5   93.84    5.44
   1   2   5   91.49    5.30
   1   2   5   87.94    5.29
  -1   2  -5   83.57    5.38
  -2  -2  -5    2.06    0.23
  -2  -2  -5    2.61    0.33
  -3  -2  -5   32.72    2.19
  -3  -2  -5   30.30    2.15
  -3   2  -5   39.23    2.19
  -3   2  -5   34.93    2.18
  -4  -2  -5   76.87    4.91
  -4  -2  -5   78.70    4.95
  -4  -2  -5   81.84    4.91
  -4   2  -5   81.31    4.87
  -4   2  -5   78.99    4.91
  -5  -2  -5   69.68    4.25
  -5  -2  -5   72.45    4.25
  -5  -2  -5   62.86    4.19
  -5  -2  -5   65.90    4.28
  -5   2  -5   68.95    4.25
  -5   2  -5   67.69    4.13
  -6  -2  -5    7.01    0.71
  -6  -2  -5    7.32    0.82
  -6  -2  -5    7.15    0.57
  -6  -2  -5    7.82    0.72
   6  -2   5    7.33    0.76
  -6   2  -5    7.34    0.71
  -7  -2  -5    7.76    0.85
  -7  -2  -5    9.59    0.99
  -7   2  -5    7.52    0.84
  -8  -2  -5   11.13    1.13
  -8  -2  -5   10.94    1.05
  -8   2  -5   12.30    1.07
  -9  -2  -5    8.42    1.00
  -9  -2  -5    9.14    1.14
  -9   2  -5   10.03    1.05
 -10  -2  -5    0.28    0.53
 -10   2  -5    0.35    0.38
 -11  -2  -5   -0.18    0.52
 -12  -3   5    0.77    0.68
 -12  -3   5    0.39    0.51
 -12   3   5    0.66    0.50
 -11  -3   5    5.12    0.97
 -11  -3   5    5.25    0.95
 -11   3   5    4.89    0.89
 -10  -3   5    4.81    0.93
 -10  -3   5    4.53    0.85
 -10   3   5    4.53    0.77
   9  -3  -5    0.95    0.40
  -9  -3   5    1.43    0.56
  -9  -3   5    0.90    0.58
  -9   3   5    0.83    0.52
  -8  -3   5    9.46    1.08
  -8  -3   5    8.29    0.95
  -8  -3   5    9.24    1.01
  -8  -3   5    9.02    0.69
  -8  -3   5    9.39    0.87
  -8   3   5    8.27    0.86
  -8   3   5   10.77    1.17
  -7  -3   5   23.74    1.68
  -7  -3   5   24.36    1.63
  -7  -3   5   23.58    1.80
  -7  -3   5   24.25    1.77
  -7  -3   5   24.41    1.79
  -7  -3   5   23.35    1.70
   7  -3  -5   23.34    1.74
  -7   3   5   24.20    1.81
  -7   3   5   25.88    1.77
  -7   3   5   24.49    1.69
  -6  -3   5   45.73    3.15
  -6  -3   5   47.17    3.10
   6  -3  -5   48.86    3.15
  -6  -3   5   49.11    3.18
  -6  -3   5   47.36    3.15
  -6  -3   5   46.57    3.07
  -6  -3   5   47.94    3.11
  -6   3   5   49.99    3.09
  -6   3   5   50.41    3.20
  -6   3   5   48.34    3.09
  -6   3   5   51.79    3.15
  -6   3   5   47.75    3.03
   5  -3  -5   70.87    4.37
  -5  -3   5   71.40    4.33
  -5  -3   5   72.19    4.37
  -5  -3   5   66.88    4.32
  -5  -3   5   72.33    4.37
  -5  -3   5   74.84    4.38
  -5  -3   5   64.29    4.32
  -5   3   5   71.76    4.31
  -5   3   5   66.59    4.29
  -5   3   5   69.18    4.33
  -5   3   5   61.60    4.37
  -4  -3   5    4.31    0.51
   4  -3  -5    3.44    0.46
  -4  -3   5    3.66    0.47
  -4  -3   5    4.44    0.48
  -4  -3   5    3.05    0.42
  -4  -3   5    3.80    0.46
  -4   3   5    4.83    0.45
  -4   3   5    3.93    0.43
  -4   3   5    4.09    0.52
  -4   3   5    3.84    0.32
  -4   3   5    3.46    0.35
  -4   3   5    3.36    0.40
  -3  -3   5  207.54   12.42
  -3  -3   5  209.95   12.40
   3  -3  -5  202.62   12.41
  -3  -3   5  200.48   12.39
  -3   3   5  188.95   12.35
  -3   3   5  209.64   12.36
  -3   3   5  212.19   12.34
  -3   3   5  211.01   12.40
  -3   3   5  199.40   12.42
   2  -3  -5  129.19    8.34
  -2  -3   5  145.76    8.45
  -2  -3   5  127.01    8.41
  -2   3   5  138.01    8.42
  -2   3   5  151.32    8.44
  -2   3   5  139.89    8.35
  -1  -3   5   12.42    0.83
  -1   3   5   11.45    0.85
  -1   3   5   10.82    0.82
   0  -3   5    6.72    0.55
  -1  -3  -5   59.85    4.17
  -1   3  -5   74.98    4.19
  -2  -3  -5  318.52   19.27
  -2  -3  -5  328.03   19.21
  -2  -3  -5  290.14   19.30
  -2  -3  -5  317.69   19.30
  -2   3  -5  344.28   19.29
  -3  -3  -5  161.85    9.12
  -3  -3  -5  148.64    9.17
  -3  -3  -5  136.32    9.16
  -3   3  -5  145.57    9.14
  -3   3  -5  160.06    9.13
  -4  -3  -5    3.79    0.47
  -4  -3  -5    4.28    0.43
  -4  -3  -5    4.52    0.55
  -4   3  -5    4.61    0.44
  -4   3  -5    4.06    0.41
  -5  -3  -5   13.76    1.14
  -5  -3  -5   15.32    1.13
  -5  -3  -5   13.83    1.08
  -5  -3  -5   14.70    1.09
  -5   3  -5   14.90    1.09
  -5   3  -5   16.46    1.00
   6  -3   5   25.56    1.77
  -6  -3  -5   23.83    1.68
  -6  -3  -5   25.50    1.71
  -6  -3  -5   22.62    1.60
  -6  -3  -5   24.35    1.77
  -6   3  -5   24.16    1.68
  -7  -3  -5   28.69    1.82
  -7  -3  -5   29.96    2.03
  -7  -3  -5   27.49    2.08
  -7  -3  -5   27.74    2.01
  -7   3  -5   30.27    2.01
  -8  -3  -5    2.44    0.55
  -8  -3  -5    3.41    0.70
  -9  -3  -5    1.24    0.54
 -10  -3  -5    6.27    0.96
 -11  -3  -5    3.15    0.76
 -12  -4   5    0.70    0.67
 -12  -4   5    0.81    0.59
 -12   4   5   -0.01    0.40
 -11  -4   5    0.46    0.49
 -11  -4   5    0.43    0.60
 -11   4   5    0.58    0.55
 -10  -4   5    2.71    0.79
 -10  -4   5    4.74    0.85
 -10   4   5    3.45    0.75
  -9  -4   5   10.72    1.26
  -9  -4   5   10.83    1.28
   9  -4  -5   11.24    1.02
  -9   4   5   12.35    1.33
  -8  -4   5   13.86    1.30
  -8  -4   5   13.71    1.22
  -8  -4   5   13.49    1.03
  -8  -4   5   14.50    1.16
  -8  -4   5   15.77    1.36
  -8   4   5   14.14    1.32
  -7  -4   5    3.51    0.65
  -7  -4   5    3.19    0.59
  -7  -4   5    3.57    0.47
  -7  -4   5    3.00    0.52
  -7  -4   5    3.48    0.49
  -7  -4   5    2.91    0.46
  -7   4   5    2.99    0.58
  -7   4   5    2.87    0.32
  -6  -4   5   10.31    0.89
   6  -4  -5   10.64    0.97
  -6  -4   5   12.23    1.02
  -6  -4   5   11.28    0.96
  -6  -4   5    9.73    0.94
  -6  -4   5   10.82    0.89
  -6  -4   5   11.55    0.94
  -6   4   5   10.76    1.01
  -6   4   5   11.08    0.86
  -5  -4   5   54.75    3.60
  -5  -4   5   60.77    3.63
  -5  -4   5   53.42    3.57
  -5  -4   5   58.11    3.59
   5  -4  -5   59.47    3.63
  -5  -4   5   56.10    3.59
  -5   4   5   58.94    3.42
  -5   4   5   53.49    3.54
  -5   4   5   51.10    3.61
  -4  -4   5  117.68    8.08
  -4  -4   5  137.47    8.10
  -4  -4   5  136.06    8.10
  -4  -4   5  124.97    8.09
   4  -4  -5  131.96    8.11
  -4  -4   5  132.55    8.08
  -4  -4   5  132.10    8.09
  -4   4   5  136.68    8.01
  -4   4   5  123.59    8.11
  -4   4   5  146.03    8.08
  -3  -4   5   69.12    4.32
  -3  -4   5   71.44    4.35
  -3  -4   5   68.15    4.30
  -3  -4   5   69.23    4.30
  -3  -4   5   70.49    4.34
   3  -4  -5   68.48    4.33
  -3   4   5   65.50    4.31
  -3   4   5   69.75    4.26
  -3   4   5   71.82    4.36
  -2  -4   5    9.32    0.77
  -2  -4   5   11.01    0.82
  -2   4   5    9.56    0.79
  -2   4   5   10.24    0.73
  -2   4   5   11.51    1.03
  -1  -4   5  120.17    7.32
  -1  -4   5  125.94    7.28
   1  -4  -5  126.28    7.17
  -1   4   5  109.26    7.30
  -1   4   5  114.18    7.28
   0  -4  -5  165.99    9.27
   0  -4   5  150.84    9.20
   0   4   5  155.74    9.26
   0   4  -5  142.42    9.25
   0   4   5  144.01    9.21
  -1  -4  -5   52.78    3.54
  -1  -4  -5   59.85    3.40
  -1  -4  -5   59.49    3.49
   1  -4   5   57.50    3.48
  -1   4  -5   50.60    3.52
  -2  -4  -5    3.02    0.24
  -2  -4  -5    0.92    0.24
   2  -4   5    1.86    0.24
  -3  -4  -5   80.11    4.75
  -3  -4  -5   75.03    4.82
  -3  -4  -5   68.10    4.83
   3  -4   5   78.08    4.74
  -3   4  -5   86.82    4.82
  -4  -4  -5  114.37    7.16
   4  -4   5  112.10    7.10
   4  -4   5  115.82    7.26
  -4  -4  -5  122.93    7.23
  -4  -4  -5  119.28    7.24
  -4   4  -5  131.25    7.18
  -4   4  -5  104.77    7.05
  -4   4  -5  119.93    7.16
  -5  -4  -5   54.73    3.25
  -5  -4  -5   52.73    3.21
  -5  -4  -5   49.72    3.28
   5  -4   5   50.49    3.30
  -5   4  -5   47.27    3.18
  -5   4  -5   48.51    3.14
  -6  -4  -5    4.98    0.56
  -6  -4  -5    4.13    0.65
  -6  -4  -5    3.86    0.54
  -6   4  -5    5.35    0.59
  -7  -4  -5    4.54    0.49
  -7  -4  -5    4.43    0.70
  -7  -4  -5    5.27    0.61
  -8  -4  -5   17.06    1.50
  -9  -4  -5    8.51    1.10
 -10  -4  -5    1.89    0.61
 -11  -4  -5   -0.19    0.38
 -12  -5   5    1.83    0.75
 -12   5   5    1.10    0.55
 -11  -5   5    4.14    0.87
 -11  -5   5    3.83    0.80
 -11   5   5    3.43    0.74
 -10  -5   5    8.09    1.13
 -10  -5   5    9.89    1.31
 -10   5   5    8.31    1.17
  -9  -5   5    0.92    0.51
  -9  -5   5   -0.61    0.51
  -9   5   5    0.48    0.56
  -8  -5   5    2.20    0.41
  -8  -5   5    2.19    0.51
  -8  -5   5    3.15    0.70
  -8  -5   5    1.37    0.53
  -8  -5   5    1.50    0.40
  -8   5   5    1.98    0.61
  -7  -5   5   12.30    1.10
  -7  -5   5   15.14    1.10
  -7  -5   5   13.75    1.16
  -7  -5   5   13.14    1.08
  -7  -5   5   13.35    1.20
  -7  -5   5   13.92    1.24
  -7   5   5   12.42    0.96
  -7   5   5   13.61    1.24
  -6  -5   5   33.09    2.19
  -6  -5   5   32.49    2.26
   6  -5  -5   34.56    2.29
  -6  -5   5   33.07    2.26
  -6  -5   5   30.91    2.22
  -6  -5   5   34.22    2.23
  -6  -5   5   31.07    2.27
  -6   5   5   31.97    2.31
  -6   5   5   32.89    2.18
  -5  -5   5   17.01    1.31
   5  -5  -5   17.19    1.35
  -5  -5   5   17.60    1.34
  -5  -5   5   16.70    1.30
  -5  -5   5   16.51    1.32
  -5  -5   5   16.71    1.31
  -5   5   5   18.23    1.15
  -5   5   5   17.52    1.36
  -5   5   5   20.34    1.30
  -4  -5   5   10.81    0.93
  -4  -5   5   11.70    0.95
  -4  -5   5   11.81    0.95
  -4  -5   5   10.53    0.90
   4  -5  -5   11.48    0.96
  -4  -5   5   12.96    0.97
  -4   5   5   11.11    0.84
  -4   5   5   12.49    0.92
  -4   5   5   11.01    0.97
  -3  -5   5  158.21    9.11
   3  -5  -5  153.13    9.15
  -3  -5   5  150.75    9.11
  -3  -5   5  154.78    9.14
  -3  -5   5  127.13    9.13
  -3   5   5  160.54    9.18
  -3   5   5  151.70    9.06
  -3   5   5  139.52    9.13
  -2  -5   5  120.45    8.27
  -2  -5   5  112.27    8.26
  -2  -5   5  141.93    8.26
   2   5  -5  142.85    8.29
  -2   5   5  145.59    8.21
  -2   5   5  146.79    8.29
   1  -5  -5   19.96    1.19
   1  -5  -5   17.01    1.34
  -1  -5   5   19.52    1.22
  -1  -5   5   17.11    1.34
  -1  -5   5   19.01    1.31
  -1   5   5   22.49    1.38
   1   5  -5   18.35    1.35
   0  -5   5    3.21    0.44
   0  -5  -5    3.09    0.44
   0  -5   5    3.35    0.45
   0  -5   5    3.06    0.33
   0  -5   5    2.59    0.35
   0   5   5    2.95    0.43
   0   5  -5    4.25    0.50
   1  -5   5   47.05    2.95
  -1  -5  -5   46.14    2.94
  -1  -5  -5   46.41    3.04
   1  -5   5   46.86    2.98
  -1  -5  -5   48.52    2.87
   1   5   5   52.77    3.23
  -1   5  -5   43.63    3.01
   1   5   5   48.32    3.03
  -2  -5  -5  230.44   13.67
   2  -5   5  229.00   13.70
  -2  -5  -5  236.41   13.59
   2  -5   5  227.74   13.62
  -2  -5  -5  194.70   13.71
  -2   5  -5  235.76   13.72
   3  -5   5   65.90    4.05
   3  -5   5   61.49    4.17
  -3  -5  -5   65.77    4.15
  -3  -5  -5   68.52    4.07
  -3  -5  -5   64.63    4.19
  -3   5  -5   70.39    4.16
  -4  -5  -5    0.40    0.20
  -4  -5  -5    0.23    0.28
   4  -5   5   -0.03    0.26
  -4  -5  -5    0.12    0.27
  -4   5  -5    0.30    0.13
  -4   5  -5    0.03    0.19
  -5  -5  -5   20.62    1.55
  -5  -5  -5   21.37    1.49
  -5  -5  -5   22.58    1.60
   5  -5   5   22.03    1.61
  -5   5  -5   21.80    1.46
  -6  -5  -5   23.09    1.83
  -6  -5  -5   24.84    1.72
  -6  -5  -5   25.72    1.75
  -6   5  -5   25.04    1.59
  -7  -5  -5   18.47    1.52
  -7  -5  -5   17.75    1.57
  -7  -5  -5   18.12    1.33
  -8  -5  -5    4.73    0.79
  -9  -5  -5    2.19    0.67
 -10  -5  -5    4.02    0.84
 -11  -5  -5    2.95    0.80
 -11  -6   5    0.45    0.54
 -11  -6   5   -0.69    0.46
 -11   6   5    0.60    0.45
 -10  -6   5    0.30    0.48
 -10  -6   5    1.64    0.77
 -10   6   5    1.21    0.54
  -9  -6   5   10.29    1.24
  -9  -6   5   10.60    0.86
  -9  -6   5    9.68    1.30
  -9   6   5   12.07    1.33
  -8  -6   5   16.07    1.33
  -8  -6   5   18.28    1.43
  -8  -6   5   19.15    1.54
  -8  -6   5   18.74    1.62
  -8   6   5   17.31    1.56
  -7  -6   5    1.90    0.57
  -7  -6   5    3.25    0.61
  -7  -6   5    2.33    0.49
  -7  -6   5    2.37    0.59
  -7  -6   5    2.82    0.51
  -7  -6   5    2.52    0.45
  -7   6   5    3.00    0.60
  -7   6   5    2.59    0.42
  -6  -6   5    9.79    0.93
  -6  -6   5    9.19    0.92
  -6  -6   5    8.97    0.92
  -6  -6   5   10.65    1.01
  -6  -6   5   11.04    0.87
  -6  -6   5   10.39    0.93
  -6   6   5    9.16    0.83
  -6   6   5    7.67    1.00
  -5  -6   5   34.62    2.33
  -5  -6   5   36.58    2.34
  -5  -6   5   35.35    2.35
  -5  -6   5   33.52    2.34
   5  -6  -5   38.30    2.38
  -5  -6   5   35.78    2.32
  -5   6   5   28.82    2.34
  -5   6   5   33.14    2.27
  -5   6   5   32.40    2.16
  -4  -6   5   54.98    3.61
  -4  -6   5   57.45    3.62
  -4  -6   5   50.47    3.62
   4  -6  -5   55.08    3.63
  -4  -6   5   56.15    3.58
  -4   6   5   60.36    3.52
  -4   6   5   56.29    3.61
  -4   6   5   59.32    3.68
  -3  -6   5   35.11    2.25
   3  -6  -5   36.06    2.27
  -3  -6   5   34.07    2.29
  -3  -6   5   35.08    2.20
   3   6  -5   32.29    2.26
  -3   6   5   36.81    2.32
  -3   6   5   33.24    2.16
  -3   6   5   28.10    2.23
  -2  -6   5    1.45    0.37
   2  -6  -5    1.61    0.47
  -2  -6   5    1.28    0.30
  -2   6   5    1.34    0.27
  -2   6   5    1.47    0.35
   2   6  -5    1.57    0.34
  -1  -6   5  112.22    6.27
   1  -6  -5  102.62    6.42
  -1  -6   5   95.17    6.41
  -1  -6   5  110.36    6.38
  -1   6   5  108.12    6.43
   1   6  -5   90.79    6.40
   0  -6   5  182.56    9.91
   0  -6   5  165.16    9.82
   0  -6   5  166.86    9.78
   0   6   5  154.33    9.88
   0   6  -5  138.09    9.86
  -1  -6  -5   60.48    4.15
  -1  -6  -5   61.24    4.04
   1  -6   5   62.24    4.07
   1  -6   5   63.24    4.06
  -1  -6  -5   64.11    3.97
  -1   6  -5   77.29    4.19
   1   6   5   72.32    4.18
  -2  -6  -5    7.89    0.71
   2  -6   5    5.59    0.60
  -2  -6  -5    6.51    0.49
   2  -6   5    5.86    0.54
  -2  -6  -5    7.37    0.59
  -2   6  -5    7.05    0.66
   2   6   5    6.23    0.65
  -3  -6  -5   19.50    1.34
   3  -6   5   21.57    1.48
  -3  -6  -5   19.32    1.50
   3  -6   5   20.55    1.33
  -3  -6  -5   20.49    1.43
  -3   6  -5   22.10    1.48
  -4  -6  -5   54.24    3.80
  -4  -6  -5   62.67    3.68
   4  -6   5   60.21    3.81
  -4  -6  -5   62.04    3.79
  -4   6  -5   55.89    3.74
  -5  -6  -5   38.79    2.53
  -5  -6  -5   40.80    2.56
  -5  -6  -5   37.02    2.42
  -5   6  -5   33.72    2.41
  -6  -6  -5    3.43    0.54
  -6  -6  -5    3.72    0.62
  -6   6  -5    3.41    0.41
  -7  -6  -5    5.03    0.79
  -7  -6  -5    6.03    0.70
  -8  -6  -5   12.17    0.98
  -8  -6  -5   14.10    1.31
  -9  -6  -5    6.89    1.00
 -10  -6  -5    1.48    0.63
 -11  -6  -5   -0.62    0.41
 -11  -7   5    2.75    0.69
 -11   7   5    4.86    0.83
 -10  -7   5    3.27    0.77
 -10   7   5    3.03    0.74
  -9  -7   5    1.15    0.63
  -9  -7   5    1.36    0.61
  -9  -7   5    1.76    0.40
  -9   7   5    1.45    0.56
  -8  -7   5    1.57    0.56
  -8  -7   5    1.79    0.48
  -8  -7   5    2.76    0.76
  -8  -7   5    2.18    0.47
  -8   7   5    2.23    0.63
  -7  -7   5   18.04    1.61
  -7  -7   5   20.46    1.53
  -7  -7   5   18.50    1.51
  -7  -7   5   18.29    1.50
  -7  -7   5   17.97    1.52
  -7   7   5   19.75    1.63
  -7   7   5   19.05    1.41
  -6  -7   5   31.48    2.02
  -6  -7   5   29.35    2.14
  -6  -7   5   31.36    2.11
  -6  -7   5   29.55    2.09
  -6  -7   5   27.22    2.09
  -6  -7   5   32.20    2.10
  -6   7   5   26.49    2.00
  -6   7   5   26.64    2.14
  -5  -7   5   14.57    1.19
  -5  -7   5   15.56    1.29
  -5  -7   5   17.64    1.27
  -5  -7   5   14.00    1.26
  -5  -7   5   15.78    1.25
  -5   7   5   13.72    1.29
  -5   7   5   15.40    1.21
  -5   7   5   16.35    1.10
   4  -7  -5    3.80    0.58
  -4  -7   5    4.10    0.53
  -4  -7   5    4.23    0.64
  -4  -7   5    4.99    0.59
  -4   7   5    3.48    0.60
  -4   7   5    4.11    0.59
  -4   7   5    5.07    0.52
  -3  -7   5   49.53    3.09
  -3  -7   5   45.39    3.14
   3  -7  -5   48.05    3.17
  -3  -7   5   46.28    3.19
  -3   7   5   50.26    3.07
  -3   7   5   49.62    3.19
   3   7  -5   49.63    3.20
  -3   7   5   48.09    3.22
  -2  -7   5   74.74    4.80
  -2  -7   5   79.96    4.89
   2   7  -5   76.90    4.87
  -2   7   5   74.76    4.86
  -1  -7   5   59.47    3.96
  -1  -7   5   64.03    3.77
  -1  -7   5   60.85    3.89
   1  -7  -5   64.52    3.97
  -1   7   5   64.31    3.98
   1   7  -5   55.61    3.94
   0  -7   5    1.52    0.31
   0  -7  -5    2.14    0.47
   0  -7   5    1.54    0.25
   0  -7   5    1.98    0.42
   0   7   5    0.80    0.31
   0   7  -5    1.14    0.34
  -1  -7  -5   34.72    2.50
  -1  -7  -5   37.41    2.35
   1  -7   5   37.82    2.38
   1  -7   5   38.40    2.40
  -1   7  -5   37.33    2.50
   1   7   5   36.03    2.49
  -2  -7  -5   61.06    4.26
   2  -7   5   71.99    4.22
  -2  -7  -5   67.51    4.15
   2  -7   5   68.85    4.12
  -2   7  -5   60.54    4.23
   2   7   5   68.61    4.27
   3  -7   5   41.64    2.89
  -3  -7  -5   46.84    2.97
  -3  -7  -5   44.27    2.86
  -3   7  -5   44.21    2.92
  -4  -7  -5    0.75    0.37
  -4  -7  -5    1.03    0.34
   4  -7   5    0.90    0.34
  -4   7  -5    0.80    0.34
  -5  -7  -5    5.04    0.74
  -5  -7  -5    5.16    0.70
  -5   7  -5    5.49    0.63
  -6  -7  -5   22.38    1.66
  -6  -7  -5   21.47    1.64
  -6   7  -5   20.36    1.46
  -7  -7  -5   11.86    1.23
  -7  -7  -5   13.35    1.14
  -8  -7  -5    0.46    0.46
  -8  -7  -5    1.16    0.35
  -9  -7  -5    0.30    0.51
 -10  -7  -5    4.52    0.83
 -11   8   5    0.27    0.37
 -10  -8   5    0.38    0.53
 -10   8   5    0.61    0.47
  -9  -8   5    6.41    0.76
  -9  -8   5    6.83    0.99
  -9   8   5    8.02    1.12
  -8  -8   5    9.26    1.09
  -8  -8   5    9.07    0.98
  -8   8   5   10.47    1.23
  -7  -8   5    4.40    0.71
  -7  -8   5    2.90    0.64
  -7  -8   5    3.20    0.60
  -7   8   5    3.74    0.58
  -7   8   5    3.41    0.75
  -6  -8   5    6.55    0.80
  -6  -8   5    6.72    0.86
  -6  -8   5    5.63    0.68
  -6  -8   5    6.23    0.81
  -6  -8   5    5.32    0.75
  -6   8   5    5.20    0.70
  -6   8   5    5.51    0.91
  -5  -8   5   27.94    1.82
  -5  -8   5   24.94    1.80
  -5  -8   5   22.24    1.72
  -5  -8   5   24.41    1.85
  -5   8   5   24.87    1.63
  -5   8   5   23.45    1.77
  -5   8   5   20.87    1.83
  -4  -8   5   28.14    1.90
  -4  -8   5   30.73    2.07
  -4  -8   5   25.50    1.96
  -4   8   5   28.36    2.05
  -4   8   5   26.04    1.84
  -4   8   5   27.65    1.99
  -3  -8   5   30.22    2.01
  -3  -8   5   29.36    2.06
   3   8  -5   27.28    2.26
  -3   8   5   26.61    1.89
  -3   8   5   26.80    2.02
  -3   8   5   30.05    2.09
  -2  -8   5    3.44    0.58
  -2  -8   5    3.85    0.53
   2   8  -5    4.63    0.65
  -2   8   5    4.03    0.64
  -1  -8   5   39.19    2.92
   1  -8  -5   48.80    2.98
  -1  -8   5   45.98    2.87
   1   8  -5   43.83    2.95
  -1   8   5   41.47    2.93
   0  -8   5  100.93    5.86
   0  -8   5   96.42    5.68
   0  -8  -5   81.18    5.82
   0  -8   5   91.75    5.73
   0   8   5   92.78    5.85
   0   8  -5   90.84    5.85
   1  -8   5   21.32    1.44
   1  -8   5   20.35    1.44
  -1  -8  -5   20.47    1.59
   1   8   5   21.84    1.60
  -1   8  -5   19.99    1.59
  -2  -8  -5    0.86    0.26
   2  -8   5    0.27    0.19
   2  -8   5    0.61    0.26
  -2  -8  -5    0.53    0.38
  -2   8  -5    0.58    0.35
   2   8   5    0.82    0.33
  -3  -8  -5    9.87    0.95
   3  -8   5    7.68    0.82
  -3  -8  -5    9.09    0.77
  -3   8  -5    7.85    0.87
  -4  -8  -5   33.71    2.27
  -4  -8  -5   35.50    2.40
  -4   8  -5   31.21    2.29
  -5  -8  -5   29.27    2.13
  -5  -8  -5   34.61    2.26
  -5   8  -5   27.82    2.07
  -6  -8  -5    1.77    0.48
  -6  -8  -5    1.72    0.53
  -6   8  -5    1.31    0.35
  -7  -8  -5    2.83    0.55
  -7  -8  -5    2.44    0.59
  -8  -8  -5    6.81    0.80
  -8  -8  -5    6.83    1.00
  -9  -8  -5    4.25    0.78
 -10  -8  -5    0.27    0.39
 -10   9   5    2.18    0.62
  -9  -9   5    0.21    0.34
  -9  -9   5    0.17    0.47
  -9   9   5    0.36    0.51
  -8  -9   5    1.21    0.54
  -8  -9   5    0.65    0.44
  -8   9   5    1.22    0.67
  -7  -9   5   10.99    1.14
  -7  -9   5   12.54    1.20
  -7   9   5   13.47    1.44
  -7   9   5   11.35    1.07
  -6  -9   5   20.53    1.65
  -6  -9   5   22.48    1.74
  -6  -9   5   20.43    1.74
  -6  -9   5   22.24    1.81
  -6   9   5   19.20    1.77
  -6   9   5   25.01    1.69
  -5  -9   5    6.66    0.79
  -5  -9   5    6.58    0.89
  -5  -9   5    6.37    0.77
  -5  -9   5    6.53    0.75
  -5   9   5    5.35    0.62
  -5   9   5    6.35    0.83
  -5   9   5    5.17    0.86
  -4  -9   5    3.94    0.69
  -4  -9   5    2.70    0.53
  -4   9   5    2.18    0.57
  -4   9   5    2.58    0.44
  -4   9   5    2.40    0.54
  -3  -9   5   24.14    1.87
  -3  -9   5   25.22    1.80
  -3   9   5   25.02    1.90
  -3   9   5   24.24    1.69
  -3   9   5   22.72    1.83
  -2  -9   5   37.05    2.65
  -2  -9   5   38.09    2.55
  -2   9   5   35.21    2.62
   2   9  -5   40.50    2.67
  -1  -9   5   18.43    1.51
   1  -9  -5   17.48    1.49
  -1  -9   5   18.95    1.41
  -1   9   5   20.65    1.55
   1   9  -5   19.05    1.53
   0  -9   5    0.15    0.30
   0  -9   5    0.48    0.26
   0  -9  -5    0.32    0.34
   0   9   5    0.51    0.40
   0   9  -5    0.24    0.31
   1  -9   5   30.61    2.01
  -1  -9  -5   27.29    2.18
   1   9   5   29.39    2.18
  -1   9  -5   32.81    2.22
  -2  -9  -5   48.09    3.45
   2  -9   5   49.17    3.31
  -2   9  -5   52.95    3.45
   2   9   5   56.32    3.74
  -3  -9  -5   21.68    1.62
  -3   9  -5   17.28    1.51
  -4  -9  -5    1.86    0.42
  -4  -9  -5    0.93    0.48
  -4   9  -5    1.68    0.49
  -5  -9  -5    7.29    0.95
  -5  -9  -5    6.88    0.82
  -5   9  -5    5.67    0.76
  -6  -9  -5   19.86    1.54
  -6  -9  -5   15.53    1.41
  -6   9  -5   16.62    1.31
  -7  -9  -5    9.64    1.07
  -7  -9  -5    6.57    0.95
  -8  -9  -5    1.51    0.56
  -8  -9  -5    0.57    0.40
  -9  -9  -5    0.27    0.49
 -10  -9  -5    0.78    0.40
 -10  10   5    0.44    0.48
  -9 -10   5    3.89    0.64
  -9  10   5    2.50    0.67
  -8 -10   5    6.53    0.91
  -8  10   5    6.49    0.98
  -7 -10   5    1.83    0.62
  -7  10   5    1.77    0.50
  -7  10   5    1.43    0.68
  -6 -10   5    0.63    0.50
  -6  10   5    1.43    0.48
  -6  10   5    0.26    0.56
  -5 -10   5   15.13    1.39
  -5 -10   5   12.18    1.24
  -5 -10   5   10.94    1.22
  -5  10   5   15.43    1.10
  -5  10   5   12.40    1.42
  -5  10   5   15.85    1.31
  -4 -10   5   26.60    1.97
  -4 -10   5   26.07    2.09
  -4  10   5   24.98    2.06
  -4  10   5   26.78    2.04
  -4  10   5   27.14    1.83
  -3 -10   5    8.28    1.05
  -3 -10   5    9.54    1.03
  -3  10   5    9.23    0.86
  -3  10   5   11.62    1.22
  -3  10   5    8.43    1.06
  -2 -10   5    1.68    0.46
  -2 -10   5    1.29    0.52
  -2  10   5    1.08    0.48
   2  10  -5    2.20    0.55
   1 -10  -5   26.66    2.61
  -1 -10   5   28.14    2.10
  -1 -10   5   28.91    1.97
   1  10  -5   26.15    2.09
  -1  10   5   27.69    2.11
   0 -10   5   49.96    3.37
   0 -10   5   55.84    3.58
   0 -10  -5   57.30    3.60
   0  10  -5   48.26    3.53
   0  10   5   50.25    3.54
  -1 -10  -5   22.71    1.80
  -1  10  -5   22.86    1.79
   1  10   5   20.74    1.74
  -2 -10  -5    0.70    0.45
  -2  10  -5    1.34    0.47
  -3 -10  -5    7.84    1.07
  -3  10  -5   11.99    1.12
  -4 -10  -5   21.91    1.81
  -4  10  -5   20.88    1.69
  -5 -10  -5   12.04    1.03
  -5 -10  -5   10.09    1.24
  -5  10  -5   11.02    1.09
  -6 -10  -5    0.57    0.40
  -6 -10  -5    1.17    0.55
  -6  10  -5    0.83    0.39
  -7 -10  -5    2.01    0.59
  -7 -10  -5    1.55    0.52
  -8 -10  -5    5.07    0.74
  -8 -10  -5    4.64    0.77
  -9 -10  -5    1.89    0.55
  -9 -11   5    1.07    0.44
  -9  11   5   -0.14    0.38
  -8 -11   5    0.59    0.48
  -8  11   5    1.43    0.65
  -7 -11   5    7.40    1.03
  -7  11   5    4.59    0.87
  -7  11   5    7.69    0.90
  -6 -11   5   10.62    1.24
  -6  11   5    7.95    1.15
  -6  11   5   10.72    1.08
  -5 -11   5    7.15    1.04
  -5  11   5    6.74    0.99
  -5  11   5    7.67    0.78
  -5  11   5    7.45    1.00
  -4 -11   5    0.66    0.54
  -4 -11   5    1.29    0.41
  -4  11   5    1.48    0.53
  -4  11   5    1.33    0.53
  -4  11   5    1.60    0.42
  -3 -11   5   20.59    1.66
  -3 -11   5   19.20    1.78
  -3  11   5   23.36    1.81
  -3  11   5   23.47    1.83
  -3  11   5   20.05    1.58
  -2 -11   5   28.99    2.11
  -2 -11   5   28.46    2.25
  -2  11   5   29.84    2.27
   2  11  -5   28.16    2.25
  -2  11   5   30.29    2.07
  -1 -11   5   11.30    1.26
  -1 -11   5    9.49    0.97
   1  11  -5   11.10    1.16
  -1  11   5    9.79    1.22
   0 -11  -5    0.65    0.48
   0 -11   5    1.00    0.35
   0  11   5    0.47    0.47
   0  11  -5    1.37    0.54
  -1 -11  -5    6.49    0.98
   1  11   5    6.68    0.97
  -1  11  -5    6.52    0.95
  -2 -11  -5   31.59    2.57
  -2  11  -5   37.55    2.60
  -3 -11  -5   20.88    1.69
  -3  11  -5   15.57    1.53
  -4 -11  -5    0.21    0.50
  -4  11  -5   -0.10    0.39
  -5 -11  -5    3.49    0.77
  -5  11  -5    3.82    0.68
  -6 -11  -5    6.68    1.00
  -6  11  -5    7.19    0.86
  -7 -11  -5    5.60    0.87
  -8 -11  -5    1.40    0.48
  -8 -11  -5    1.76    0.74
  -8 -12   5    3.70    0.71
  -8  12   5    2.59    0.65
  -7 -12   5    0.68    0.58
  -7  12   5    0.98    0.58
  -7  12   5    1.10    0.50
  -6 -12   5    0.83    0.56
  -6  12   5    0.09    0.49
  -6  12   5    0.50    0.47
  -5 -12   5    9.80    1.29
  -5  12   5    7.20    1.13
  -5  12   5   11.47    0.95
  -5  12   5   11.38    1.19
  -4 -12   5   12.65    1.56
  -4  12   5   15.61    1.24
  -4  12   5   17.56    1.51
  -4  12   5   14.06    1.46
  -3 -12   5    7.24    1.06
  -3  12   5    6.78    1.05
  -3  12   5    5.99    0.95
  -3  12   5    7.08    0.83
  -2 -12   5    0.66    0.38
  -2 -12   5    0.41    0.53
  -2  12   5    1.84    0.50
   2  12  -5    1.32    0.57
  -2  12   5    0.32    0.51
  -2  12   5    1.19    0.62
  -1 -12   5   14.16    1.41
  -1 -12   5   14.02    1.20
   1  12  -5   12.98    1.40
  -1  12   5   13.56    1.39
   0 -12  -5   24.28    1.96
   0  12  -5   21.30    1.90
   0  12   5   23.32    1.97
  -1 -12  -5   15.49    1.55
   1  12   5   16.54    1.55
  -1  12  -5   17.37    1.58
  -2 -12  -5    0.27    0.46
  -2  12  -5    0.46    0.48
  -3 -12  -5    4.86    0.94
  -3  12  -5    6.27    0.93
  -4 -12  -5   13.57    1.53
  -4  12  -5   12.36    1.32
  -5 -12  -5    7.49    1.14
  -5  12  -5    8.21    1.02
  -6 -12  -5    0.32    0.50
  -6  12  -5    0.26    0.38
  -7 -12  -5    0.44    0.51
  -8 -12  -5    2.48    0.57
  -7 -13   5    6.75    1.00
  -7  13   5    7.32    0.93
  -7  13   5    5.13    0.86
  -6 -13   5    6.50    1.07
  -6  13   5    5.14    0.86
  -6  13   5    6.89    0.93
  -5 -13   5    2.15    0.75
  -5  13   5    2.40    0.48
  -5  13   5    2.18    0.63
  -5  13   5    1.78    0.73
  -4 -13   5    0.68    0.53
  -4  13   5   -0.09    0.36
  -4  13   5    0.46    0.45
  -4  13   5    1.06    0.63
  -3 -13   5   13.33    1.51
  -3  13   5   15.13    1.52
  -3  13   5   15.41    1.27
  -3  13   5   15.60    1.55
  -2 -13   5   17.26    1.65
  -2  13   5   16.81    1.65
  -2  13   5   18.40    1.68
   2  13  -5   15.54    1.59
  -2  13   5   17.39    1.45
   1  13  -5    5.15    0.91
  -1  13   5    5.48    0.99
   0  13   5    0.27    0.53
   0  13  -5    0.27    0.53
  -1 -13  -5    6.00    1.04
  -1  13  -5    7.14    1.09
   1  13   5   10.83    1.36
  -2 -13  -5   17.74    1.79
  -2  13  -5   19.87    1.75
  -3 -13  -5   10.04    1.30
  -3  13  -5   10.04    1.26
  -4 -13  -5    0.10    0.61
  -4  13  -5   -0.16    0.41
  -5 -13  -5    2.91    0.78
  -5  13  -5    3.28    0.69
  -6 -13  -5    6.46    1.09
  -6  13  -5    7.27    0.88
  -7 -13  -5    5.49    0.88
  -6 -14   5    2.96    0.77
  -6  14   5    2.35    0.61
  -6  14   5    2.48    0.66
  -5 -14   5    8.35    1.19
  -5  14   5    7.23    1.06
  -5  14   5    8.06    0.76
  -5  14   5    5.76    1.01
  -4 -14   5    5.36    1.03
  -4  14   5    6.65    0.98
  -4  14   5    6.70    1.02
  -4  14   5    7.68    0.84
  -3 -14   5    3.47    0.86
  -3  14   5    4.46    0.87
  -3  14   5    3.43    0.63
  -3  14   5    2.42    0.69
  -2 -14   5    0.50    0.58
   2  14  -5    0.46    0.59
  -2  14   5    0.05    0.40
  -2  14   5    0.06    0.44
  -2  14   5   -0.17    0.44
   1  14  -5    7.49    1.16
  -1  14   5    8.26    1.19
  -1  14   5    7.82    1.02
   0  14  -5   16.22    1.70
   0  14   5   18.57    1.74
  -1 -14  -5    3.96    0.89
   1  14   5    1.96    0.75
  -1  14  -5    5.44    0.99
  -2 -14  -5    0.71    0.58
  -2  14  -5    0.79    0.61
  -3 -14  -5    4.03    0.89
  -3  14  -5    3.94    0.84
  -4 -14  -5   10.93    1.39
  -4  14  -5   11.66    1.23
  -4  14  -5    8.57    0.85
  -5 -14  -5    8.49    1.18
  -5  14  -5    8.35    1.05
  -6 -14  -5    0.43    0.46
  -6  14  -5    0.15    0.40
  -5 -15   5    0.16    0.58
  -5  15   5    0.83    0.58
  -5  15   5    0.77    0.55
  -4 -15   5    0.64    0.49
  -4  15   5    0.27    0.39
  -4  15   5    0.13    0.44
  -4  15   5    0.46    0.45
  -3 -15   5    3.13    0.84
  -3  15   5    3.84    0.88
  -3  15   5    2.90    0.58
  -3  15   5    3.17    0.85
  -2  15   5   12.63    1.18
  -2  15   5   13.23    1.56
  -2  15   5   10.93    1.42
   1  15  -5    5.68    1.07
  -1  15   5    2.17    0.84
  -1  15   5    5.42    0.98
  -1  15   5    5.84    0.86
   0  15   5    0.35    0.62
   0  15  -5   -0.43    0.57
   0  15   5    0.20    0.44
  -1  15  -5    5.15    1.02
  -2 -15  -5    8.56    1.26
  -2  15  -5    7.97    1.21
  -3 -15  -5    5.34    0.96
  -3  15  -5    3.95    0.79
  -4 -15  -5    0.79    0.62
  -4  15  -5    1.33    0.53
  -3 -16   5    1.54    0.65
  -3  16   5    1.53    0.67
  -3  16   5    1.21    0.62
  -3  16   5    2.66    0.53
  -2  16   5   -0.06    0.36
  -2  16   5   -0.37    0.51
  -2  16   5    0.79    0.47
   1  16  -5    2.68    0.78
  -1  16   5    3.71    0.84
  -1  16   5    3.28    0.72
  -1  16   5    3.66    0.68
   0  16  -5    7.92    1.23
   0  16   5    8.13    1.13
   0  16   5    9.00    1.24
   0  16   5    9.62    1.09
  -1  16  -5    2.78    0.77
  -2 -16  -5    0.25    0.53
  -2  16  -5    0.13    0.41
 -12   0   6   -0.30    0.57
 -11   0   6    1.83    0.75
 -10   0   6    9.28    1.24
 -10   0   6    8.69    1.05
  -9   0   6    2.06    0.56
  -9   0   6    2.07    0.57
  -8   0   6    1.48    0.40
  -8   0   6    0.72    0.26
  -8   0   6    0.68    0.39
  -8   0   6    0.77    0.46
  -7   0   6   24.49    1.78
  -7   0   6   24.05    1.79
  -7   0   6   25.59    1.84
  -7   0   6   22.99    1.60
   7   0  -6   27.66    1.85
  -7   0   6   25.88    1.75
  -6   0   6   65.24    4.06
  -6   0   6   66.36    4.16
   6   0  -6   66.05    4.09
  -6   0   6   65.73    4.12
  -6   0   6   64.62    4.15
   6   0  -6   64.00    4.21
  -6   0   6   69.04    4.21
  -6   0   6   63.75    4.06
  -5   0   6   46.57    3.01
  -5   0   6   47.71    2.98
   5   0  -6   46.11    3.06
  -5   0   6   45.98    2.93
  -5   0   6   46.51    2.91
   5   0  -6   47.37    2.94
  -5   0   6   47.17    2.98
  -5   0   6   47.16    2.95
  -5   0   6   43.89    2.97
  -4   0   6    5.72    0.51
  -4   0   6    5.60    0.46
  -4   0   6    5.06    0.50
   4   0  -6    4.38    0.59
  -4   0   6    4.53    0.52
  -4   0   6    5.35    0.51
  -4   0   6    4.64    0.47
  -4   0   6    5.25    0.46
   3   0  -6   61.72    4.32
  -3   0   6   70.53    4.23
  -3   0   6   66.38    4.25
  -3   0   6   69.11    4.21
  -3   0   6   74.43    4.19
  -3   0   6   68.52    4.22
  -2   0   6  362.23   21.31
  -2   0   6  364.06   21.32
  -2   0   6  336.50   21.36
   1   0  -6  164.44   10.06
   0   0  -6   14.86    1.10
  -1   0  -6   11.08    0.83
  -2   0  -6   99.13    6.07
  -2   0  -6   99.11    6.07
  -3   0  -6   83.96    5.53
  -3   0  -6   96.90    5.56
  -4   0  -6   37.87    2.49
  -4   0  -6   38.90    2.44
  -5   0  -6   27.12    1.88
  -5   0  -6   27.91    1.77
  -6   0  -6   38.06    2.56
  -7   0  -6   19.86    1.53
  -8   0  -6   13.10    1.20
  -9   0  -6   -0.24    0.33
 -10   0  -6    1.34    0.55
 -11   0  -6    3.63    0.72
 -12  -1   6    1.05    0.72
 -12   1   6    1.37    0.58
 -11  -1   6    0.72    0.66
 -11  -1   6    0.79    0.47
 -11   1   6    0.82    0.65
 -10  -1   6    0.60    0.45
 -10  -1   6    0.29    0.60
 -10   1   6    0.64    0.58
  -9  -1   6    7.05    0.96
  -9  -1   6    7.15    0.93
  -9   1   6    6.95    0.98
  -9   1   6    7.42    1.26
  -9   1   6    7.12    0.90
  -8  -1   6   23.51    1.76
  -8  -1   6   22.83    1.84
  -8  -1   6   23.98    1.68
   8  -1  -6   24.07    1.75
  -8  -1   6   23.27    1.81
  -8   1   6   22.27    1.66
  -8   1   6   21.91    1.72
  -8   1   6   23.90    1.82
  -8   1   6   22.55    1.73
   7  -1  -6   27.75    1.87
  -7  -1   6   26.15    1.87
  -7  -1   6   25.60    1.95
  -7  -1   6   29.00    1.95
  -7  -1   6   28.32    1.94
  -7  -1   6   28.69    1.77
  -7  -1   6   27.32    1.81
   7  -1  -6   27.84    1.95
  -7   1   6   26.26    1.72
  -7   1   6   24.87    1.84
  -7   1   6   27.68    1.99
  -7   1   6   26.95    1.91
  -7   1   6   25.27    1.89
  -6  -1   6    0.26    0.20
  -6  -1   6    0.07    0.18
   6  -1  -6    0.14    0.25
  -6  -1   6   -0.02    0.27
   6  -1  -6   -0.05    0.15
  -6  -1   6   -0.10    0.18
  -6  -1   6    0.21    0.29
  -6  -1   6    0.12    0.25
  -6   1   6    0.61    0.28
  -6   1   6   -0.09    0.16
  -6   1   6    0.10    0.27
  -6   1   6    0.51    0.34
  -6   1   6    0.29    0.20
  -6   1   6    0.04    0.14
  -5  -1   6   64.12    4.08
  -5  -1   6   62.22    4.11
   5  -1  -6   64.03    4.08
   5  -1  -6   60.23    4.14
  -5  -1   6   66.50    4.14
  -5  -1   6   69.87    4.08
  -5  -1   6   67.03    4.12
  -5  -1   6   67.14    4.07
   5   1  -6   76.47    4.24
  -5   1   6   63.04    4.13
  -5   1   6   62.88    4.06
  -5   1   6   66.27    4.08
  -5   1   6   63.37    4.09
  -5   1   6   66.23    4.10
  -5   1   6   62.08    4.02
  -4  -1   6   99.08    6.50
  -4  -1   6  102.42    6.55
  -4  -1   6  105.32    6.54
  -4  -1   6  105.44    6.55
  -4  -1   6  113.70    6.54
   4  -1  -6  104.63    6.53
   4  -1  -6  117.07    6.62
  -4  -1   6  105.09    6.48
  -4   1   6  105.72    6.56
  -4   1   6  112.06    6.53
  -4   1   6  110.72    6.51
  -4   1   6  108.14    6.52
  -4   1   6  107.12    6.48
  -4   1   6   95.62    6.53
  -3  -1   6   41.53    2.47
  -3  -1   6   42.79    2.43
  -3  -1   6   40.43    2.46
  -3  -1   6   36.49    2.48
  -3   1   6   39.14    2.43
  -3   1   6   37.44    2.43
  -3   1   6   37.44    2.45
  -3   1   6   36.44    2.44
   2  -1  -6   22.22    1.60
  -2  -1   6   23.58    1.48
  -2  -1   6   24.00    1.55
  -2   1   6   22.88    1.46
   2   1  -6   19.21    1.59
  -2   1   6   23.41    1.51
  -2   1   6   26.15    1.57
   1  -1  -6   41.03    2.67
   0  -1  -6  287.89   17.44
  -1  -1  -6  210.42   12.06
  -1  -1  -6  173.50   12.06
  -1   1  -6  203.32   12.05
   1   1   6  208.40   11.96
  -2  -1  -6    6.62    0.56
  -2   1  -6    6.73    0.56
  -3  -1  -6   26.73    1.76
  -3  -1  -6   23.19    1.74
  -3   1  -6   29.33    1.75
  -3   1  -6   27.45    1.75
  -4  -1  -6   65.13    4.06
  -4  -1  -6   66.49    4.11
  -4   1  -6   67.46    4.10
  -4   1  -6   63.08    4.04
  -5  -1  -6   70.79    4.35
  -5  -1  -6   67.41    4.36
  -5  -1  -6   65.84    4.43
  -5   1  -6   65.83    4.41
  -5   1  -6   79.65    4.33
  -6  -1  -6   13.27    0.91
  -6  -1  -6   12.25    1.10
  -6  -1  -6   14.02    1.19
  -6   1  -6   15.09    1.10
  -7  -1  -6    0.56    0.41
  -7   1  -6    0.51    0.38
  -8  -1  -6    9.21    1.04
  -8   1  -6    8.77    1.02
  -9  -1  -6    7.98    1.02
  -9   1  -6    9.98    1.08
 -10  -1  -6    3.75    0.78
 -10   1  -6    2.65    0.66
 -11  -1  -6    0.38    0.38
 -11   1  -6    0.07    0.44
 -12  -2   6    0.05    0.59
 -12   2   6    0.86    0.51
 -11  -2   6    3.00    0.79
 -11  -2   6    3.75    0.73
 -11   2   6    2.99    0.78
 -10  -2   6    6.97    1.01
 -10  -2   6    8.26    1.17
 -10   2   6    5.50    0.97
  -9  -2   6    9.07    1.18
   9  -2  -6   10.75    1.03
  -9  -2   6   11.85    1.17
  -9   2   6   10.76    1.23
  -8  -2   6    2.41    0.61
   8  -2  -6    1.72    0.44
  -8  -2   6    1.03    0.41
  -8  -2   6    0.71    0.33
  -8  -2   6    1.34    0.24
  -8  -2   6    1.00    0.39
  -8   2   6    0.95    0.36
  -8   2   6    1.35    0.53
  -8   2   6    0.87    0.42
  -8   2   6    0.98    0.35
  -7  -2   6   21.84    1.65
  -7  -2   6   22.62    1.69
  -7  -2   6   21.35    1.66
   7  -2  -6   21.26    1.59
  -7  -2   6   21.98    1.50
  -7  -2   6   20.63    1.53
   7  -2  -6   24.18    1.66
  -7  -2   6   21.84    1.58
  -7   2   6   22.03    1.43
  -7   2   6   21.79    1.60
  -7   2   6   23.52    1.58
  -7   2   6   23.00    1.71
  -7   2   6   22.26    1.63
  -6  -2   6   26.12    1.90
  -6  -2   6   27.92    1.95
  -6  -2   6   25.35    1.83
  -6  -2   6   25.43    1.82
  -6  -2   6   26.58    1.83
  -6  -2   6   25.92    1.86
  -6  -2   6   27.91    1.92
   6  -2  -6   27.14    1.88
  -6   2   6   29.50    1.97
  -6   2   6   32.54    1.92
  -6   2   6   29.54    1.88
  -6   2   6   29.41    1.86
  -5  -2   6   39.30    2.67
  -5  -2   6   39.93    2.67
  -5  -2   6   39.70    2.68
  -5  -2   6   37.38    2.70
  -5  -2   6   40.96    2.73
   5  -2  -6   39.13    2.69
  -5   2   6   41.10    2.68
  -5   2   6   47.94    2.72
  -5   2   6   46.00    2.61
  -5   2   6   42.30    2.75
  -5   2   6   46.62    2.68
  -4  -2   6    5.66    0.55
  -4  -2   6    5.99    0.56
  -4  -2   6    4.69    0.53
   4  -2  -6    5.54    0.53
  -4  -2   6    6.00    0.56
  -4  -2   6    5.03    0.41
  -4  -2   6    5.64    0.53
  -4   2   6    4.80    0.55
  -4   2   6    6.39    0.52
  -4   2   6    5.37    0.45
  -4   2   6    5.75    0.57
  -4   2   6    5.76    0.45
  -4   2   6    4.53    0.48
  -3  -2   6   76.93    4.67
  -3  -2   6   73.03    4.68
  -3  -2   6   78.81    4.68
  -3  -2   6   78.56    4.59
  -3   2   6   72.89    4.63
  -3   2   6   76.03    4.70
  -3   2   6   72.73    4.66
  -3   2   6   73.17    4.61
  -3   2   6   78.24    4.63
  -2  -2   6  312.99   17.72
  -2  -2   6  299.84   17.69
  -2   2   6  302.50   17.72
  -2   2   6  281.17   17.68
  -2   2   6  277.48   17.62
  -2   2   6  286.12   17.62
  -1   2   6  144.39    8.66
  -1   2   6  144.01    8.76
   0  -2  -6    3.22    0.46
   0   2  -6    3.31    0.42
  -1  -2  -6   14.11    1.15
  -1  -2  -6   16.63    1.12
  -1  -2  -6   16.72    1.09
  -1   2  -6   14.41    1.10
   1   2   6   16.38    0.99
   1   2   6   16.23    0.99
  -2  -2  -6   85.69    5.25
  -2  -2  -6   78.51    5.23
  -2   2  -6   87.93    5.23
   2   2   6   87.57    5.16
  -2   2  -6   85.70    5.24
  -3  -2  -6  182.28   10.97
  -3  -2  -6  178.87   10.97
  -3   2  -6  180.57   10.94
  -3   2  -6  180.28   10.95
  -4  -2  -6   13.27    0.97
  -4  -2  -6   12.04    1.00
  -4   2  -6   13.28    0.98
  -4   2  -6   13.60    0.94
  -5  -2  -6    8.13    0.79
  -5  -2  -6    9.01    0.71
  -5  -2  -6    8.86    0.74
  -5   2  -6    7.97    0.74
  -5   2  -6    8.50    0.64
  -6  -2  -6   32.75    2.23
  -6  -2  -6   32.55    2.13
  -6  -2  -6   30.34    2.04
  -6   2  -6   32.38    2.16
  -7  -2  -6   21.61    1.69
  -7  -2  -6   22.27    1.60
  -7   2  -6   21.91    1.62
  -8  -2  -6    4.42    0.75
  -8   2  -6    4.28    0.65
  -9  -2  -6    0.22    0.53
  -9   2  -6    0.11    0.35
 -10  -2  -6    5.63    0.90
 -10   2  -6    4.59    0.76
 -11  -2  -6    2.72    0.68
 -12  -3   6    2.41    0.73
 -12   3   6    1.20    0.65
 -11  -3   6    0.82    0.66
 -11  -3   6    1.06    0.60
 -11   3   6    1.14    0.56
 -10  -3   6   -0.55    0.42
 -10  -3   6    0.33    0.64
 -10   3   6    0.04    0.43
  -9  -3   6    8.63    1.10
   9  -3  -6    8.49    0.95
  -9  -3   6    9.46    1.17
  -9   3   6   10.11    1.15
  -8  -3   6   25.29    1.98
  -8  -3   6   26.38    1.95
  -8  -3   6   24.35    1.70
  -8  -3   6   25.79    1.88
  -8  -3   6   26.15    1.92
   8  -3  -6   25.43    1.88
  -8   3   6   26.52    2.00
  -8   3   6   27.75    1.92
  -7  -3   6   19.79    1.51
  -7  -3   6   19.17    1.42
  -7  -3   6   18.80    1.38
  -7  -3   6   19.80    1.54
  -7  -3   6   18.62    1.44
   7  -3  -6   20.03    1.48
  -7  -3   6   19.82    1.56
  -7   3   6   19.74    1.48
  -7   3   6   20.75    1.58
  -7   3   6   20.32    1.31
  -7   3   6   19.22    1.43
  -6  -3   6    0.51    0.26
  -6  -3   6    0.65    0.25
   6  -3  -6    0.18    0.23
  -6  -3   6    0.45    0.27
  -6  -3   6    0.27    0.31
  -6  -3   6    0.49    0.34
  -6  -3   6    0.49    0.26
  -6   3   6    1.35    0.40
  -6   3   6    0.88    0.26
  -6   3   6    0.52    0.23
  -6   3   6    0.28    0.25
  -5  -3   6   31.91    2.14
   5  -3  -6   30.27    2.11
  -5  -3   6   30.65    2.09
  -5  -3   6   31.84    2.12
  -5  -3   6   33.21    2.11
  -5  -3   6   31.93    2.13
  -5   3   6   32.73    2.06
  -5   3   6   29.76    2.08
  -5   3   6   31.21    1.97
  -5   3   6   30.01    2.15
  -5   3   6   34.16    2.10
  -4  -3   6   76.80    5.41
  -4  -3   6   84.41    5.41
  -4  -3   6   86.65    5.43
  -4  -3   6   88.58    5.42
   4  -3  -6   86.28    5.43
  -4  -3   6   85.81    5.42
  -4   3   6   85.14    5.44
  -4   3   6   93.02    5.37
  -4   3   6   95.92    5.39
  -4   3   6   85.69    5.34
  -4   3   6   94.25    5.44
  -3  -3   6  102.25    6.37
  -3  -3   6  105.42    6.51
  -3  -3   6  101.62    6.48
  -3  -3   6   96.41    6.47
  -3   3   6  112.73    6.43
  -3   3   6  108.51    6.45
  -3   3   6  111.63    6.52
  -3   3   6  110.77    6.44
  -3   3   6  102.93    6.50
  -2   3   6    7.26    0.52
  -2   3   6    7.08    0.71
  -2   3   6    7.71    0.52
  -2   3   6    7.79    0.64
  -1  -3   6   38.26    2.19
  -1  -3   6   32.81    2.14
  -1   3   6   28.87    2.15
   1   3  -6   34.25    2.23
  -1   3   6   33.91    2.03
  -1   3   6   33.41    2.15
   0  -3  -6  201.54   10.92
   0  -3   6  182.96   10.86
   0   3  -6  153.85   10.88
  -1  -3  -6  185.66   11.39
  -1  -3  -6  199.64   11.49
  -1  -3  -6  179.16   11.43
  -1   3  -6  188.04   11.43
  -2  -3  -6   23.68    1.69
  -2  -3  -6   26.71    1.74
  -2  -3  -6   22.55    1.73
  -2   3  -6   27.07    1.72
  -2   3  -6   30.49    1.74
  -3  -3  -6   20.27    1.49
  -3  -3  -6   20.34    1.49
  -3  -3  -6   24.09    1.43
  -3   3  -6   22.77    1.48
  -3   3  -6   21.27    1.44
  -4  -3  -6   49.81    3.30
  -4  -3  -6   53.08    3.29
  -4  -3  -6   52.67    3.23
  -4   3  -6   52.24    3.24
  -4   3  -6   50.15    3.25
  -5  -3  -6   37.37    2.59
  -5  -3  -6   41.62    2.59
  -5  -3  -6   39.83    2.66
  -5   3  -6   41.26    2.52
  -5   3  -6   39.87    2.60
  -6  -3  -6   12.39    1.14
  -6  -3  -6   13.62    0.99
  -6   3  -6   12.98    1.04
  -7  -3  -6    0.64    0.20
  -7  -3  -6    1.35    0.41
  -7   3  -6    0.69    0.33
  -8  -3  -6   12.13    1.22
  -8   3  -6   11.10    1.04
  -9  -3  -6   14.89    1.45
 -10  -3  -6    3.12    0.77
 -11  -3  -6   -0.06    0.37
 -12  -4   6   -0.05    0.48
 -12   4   6    0.88    0.47
 -11  -4   6    1.92    0.59
 -11  -4   6    1.83    0.66
 -11   4   6    1.07    0.61
 -10  -4   6   10.76    1.24
 -10  -4   6    9.33    1.30
 -10   4   6   11.60    1.29
  -9  -4   6    8.11    1.01
  -9  -4   6    5.42    0.95
   9  -4  -6    5.65    0.78
  -9   4   6    5.34    0.89
  -8  -4   6    0.75    0.50
  -8  -4   6    1.17    0.43
  -8  -4   6    1.01    0.36
  -8  -4   6    1.32    0.32
  -8  -4   6    1.57    0.57
  -8   4   6    1.50    0.58
  -7  -4   6   26.63    2.08
  -7  -4   6   27.55    1.97
  -7  -4   6   28.87    2.06
  -7  -4   6   30.55    2.07
  -7  -4   6   26.86    1.96
  -7  -4   6   28.64    1.93
  -7   4   6   29.14    1.85
  -7   4   6   27.19    2.08
  -6  -4   6   37.65    2.68
  -6  -4   6   41.83    2.78
   6  -4  -6   41.47    2.75
  -6  -4   6   37.93    2.75
  -6  -4   6   39.89    2.69
  -6  -4   6   42.05    2.71
  -6  -4   6   43.91    2.76
  -6   4   6   38.78    2.78
  -6   4   6   45.85    2.69
  -5  -4   6   34.81    2.24
  -5  -4   6   37.03    2.24
  -5  -4   6   33.46    2.20
  -5  -4   6   33.19    2.23
   5  -4  -6   33.57    2.24
  -5  -4   6   34.51    2.22
  -5  -4   6   36.29    2.24
  -5   4   6   30.89    2.06
  -5   4   6   27.52    2.23
  -5   4   6   29.73    2.18
  -4  -4   6   22.58    1.56
  -4  -4   6   23.17    1.59
  -4  -4   6   24.13    1.60
  -4  -4   6   21.38    1.55
  -4  -4   6   22.07    1.56
  -4  -4   6   23.46    1.59
   4  -4  -6   21.89    1.58
  -4   4   6   25.25    1.50
  -4   4   6   21.97    1.61
  -4   4   6   19.94    1.54
  -3  -4   6   34.64    2.27
  -3  -4   6   35.62    2.22
  -3  -4   6   33.64    2.23
  -3  -4   6   34.73    2.21
  -3   4   6   35.86    2.27
  -3   4   6   31.44    2.17
  -3   4   6   33.69    2.24
   2  -4  -6  281.70   17.32
  -2  -4   6  274.73   17.42
  -2  -4   6  287.72   17.46
  -2   4   6  277.95   17.38
   2   4  -6  298.89   17.47
  -2   4   6  310.12   17.46
  -1  -4   6   91.99    5.56
  -1  -4   6   89.96    5.60
   1  -4  -6  105.53    5.70
  -1   4   6   78.83    5.58
   1   4  -6   87.77    5.60
   0  -4   6    4.16    0.45
   0  -4  -6    5.42    0.53
   0   4   6    5.97    0.54
  -1  -4  -6   14.14    1.08
  -1  -4  -6   13.83    1.01
   1  -4   6   13.00    1.00
  -1   4  -6   17.71    1.10
  -2  -4  -6  112.59    6.85
  -2  -4  -6  110.02    6.87
  -2  -4  -6  109.31    6.70
   2  -4   6  107.30    6.76
  -2  -4  -6  106.10    6.79
  -2   4  -6  121.32    6.85
  -3  -4  -6  148.69    8.68
  -3  -4  -6  139.62    8.78
   3  -4   6  146.08    8.68
  -3  -4  -6  143.84    8.76
  -3   4  -6  131.93    8.74
  -3   4  -6  149.02    8.71
  -4  -4  -6   42.62    2.87
  -4  -4  -6   49.34    2.89
   4  -4   6   42.87    2.74
  -4  -4  -6   42.87    2.78
  -4   4  -6   40.16    2.70
  -4   4  -6   48.25    2.83
  -4   4  -6   44.90    2.80
  -5  -4  -6    4.79    0.50
  -5  -4  -6    4.91    0.64
   5  -4   6    3.15    0.55
  -5  -4  -6    4.46    0.56
  -5   4  -6    3.98    0.44
  -5   4  -6    4.73    0.54
  -6  -4  -6   21.39    1.46
  -6  -4  -6   19.68    1.56
  -6  -4  -6   20.57    1.45
  -6   4  -6   19.21    1.44
  -7  -4  -6   18.52    1.44
  -7  -4  -6   15.49    1.16
  -8  -4  -6    8.33    1.09
  -9  -4  -6    0.04    0.46
 -10  -4  -6    2.74    0.66
 -11  -4  -6    2.44    0.74
 -12  -5   6    2.31    0.64
 -12   5   6    1.31    0.56
 -11  -5   6    1.06    0.60
 -11  -5   6    0.04    0.52
 -11   5   6    2.12    0.69
 -10  -5   6    0.74    0.58
 -10  -5   6    0.05    0.57
 -10   5   6   -0.09    0.47
  -9  -5   6    5.88    0.88
  -9  -5   6    5.70    0.57
  -9  -5   6    5.86    0.96
  -9   5   6    7.13    1.01
  -8  -5   6   19.64    1.50
  -8  -5   6   23.53    1.80
  -8  -5   6   21.92    1.72
  -8  -5   6   19.76    1.66
  -8  -5   6   20.60    1.58
  -8   5   6   21.44    1.78
  -7  -5   6    7.67    0.86
  -7  -5   6   11.54    1.14
  -7  -5   6    9.47    1.00
  -7  -5   6   10.02    0.85
  -7  -5   6   10.25    0.85
  -7   5   6    7.22    0.72
  -7   5   6    6.82    0.93
  -6  -5   6   -0.30    0.21
   6  -5  -6    0.25    0.33
  -6  -5   6    0.01    0.21
  -6  -5   6    0.15    0.25
  -6  -5   6    0.16    0.32
  -6  -5   6    0.70    0.40
  -6  -5   6    0.38    0.27
  -6   5   6    0.30    0.28
  -6   5   6   -0.32    0.37
  -5  -5   6   41.37    2.56
  -5  -5   6   38.75    2.57
  -5  -5   6   44.10    2.60
  -5  -5   6   39.65    2.57
  -5  -5   6   40.18    2.56
   5  -5  -6   40.93    2.59
  -5   5   6   33.87    2.39
  -5   5   6   35.21    2.58
  -5   5   6   34.17    2.51
  -4  -5   6  122.16    7.34
  -4  -5   6  114.17    7.38
  -4  -5   6  118.84    7.39
   4  -5  -6  126.02    7.39
  -4  -5   6  123.30    7.36
  -4  -5   6  117.71    7.34
  -4   5   6  125.55    7.41
  -4   5   6  106.61    7.33
  -3  -5   6   84.24    5.27
  -3  -5   6   82.84    5.26
  -3  -5   6   77.78    5.19
   3   5  -6   95.88    5.27
  -3   5   6   89.70    5.27
  -3   5   6   74.45    5.15
  -2  -5   6   15.33    1.23
  -2  -5   6   15.62    1.23
  -2  -5   6   15.67    1.19
  -2   5   6   19.08    1.26
  -2   5   6   15.92    1.14
   2   5  -6   18.11    1.24
  -1  -5   6   21.37    1.53
   1  -5  -6   19.32    1.52
  -1  -5   6   20.95    1.48
  -1  -5   6   21.31    1.53
   1   5  -6   24.25    1.56
  -1   5   6   24.55    1.48
   0  -5  -6  106.90    6.39
   0  -5  -6  105.61    6.28
   0  -5   6   98.62    6.30
   0  -5   6  104.75    6.37
   0  -5   6  104.15    6.37
   0   5   6   93.90    6.36
   0   5  -6  106.25    6.38
  -1  -5  -6  168.93   10.17
   1  -5   6  166.81   10.17
  -1  -5  -6  163.52   10.25
  -1   5  -6  173.21   10.25
   1   5   6  165.25   10.24
  -2  -5  -6   19.83    1.38
  -2  -5  -6   20.49    1.27
  -2  -5  -6   22.52    1.50
   2  -5   6   19.48    1.34
  -2  -5  -6   17.36    1.43
  -2   5  -6   20.66    1.44
  -3  -5  -6   19.78    1.37
   3  -5   6   20.06    1.40
   3  -5   6   19.10    1.27
  -3  -5  -6   19.47    1.42
  -3   5  -6   18.29    1.36
  -4  -5  -6   41.44    2.70
  -4  -5  -6   42.31    2.59
  -4  -5  -6   38.29    2.70
   4  -5   6   40.68    2.72
  -4   5  -6   41.40    2.65
  -5  -5  -6   42.08    2.76
   5  -5   6   45.75    3.21
  -5  -5  -6   40.76    2.67
  -5  -5  -6   41.17    2.78
  -5   5  -6   40.59    2.66
  -6  -5  -6   15.57    1.22
  -6  -5  -6   15.70    1.30
  -6   5  -6   15.25    1.05
  -7  -5  -6    0.33    0.26
  -7  -5  -6   -0.10    0.40
  -8  -5  -6    7.50    1.02
  -9  -5  -6    7.28    1.06
 -10  -5  -6    1.77    0.67
 -11  -6   6    1.46    0.76
 -11   6   6    1.93    0.60
 -10  -6   6    4.45    0.85
 -10  -6   6    4.19    0.93
 -10   6   6    4.88    0.95
  -9  -6   6    4.17    0.83
  -9  -6   6    3.77    0.51
  -9  -6   6    2.97    0.78
  -9   6   6    4.44    0.92
  -8  -6   6   -0.09    0.40
  -8  -6   6    0.34    0.33
  -8  -6   6    0.56    0.56
  -8  -6   6    0.18    0.31
  -8   6   6    0.54    0.56
  -7  -6   6   18.59    1.54
  -7  -6   6   17.49    1.45
  -7  -6   6   19.96    1.50
  -7  -6   6   19.61    1.53
  -7  -6   6   17.52    1.42
  -7  -6   6   19.02    1.59
  -7   6   6   18.85    1.60
  -7   6   6   20.79    1.41
  -6  -6   6   43.19    2.97
  -6  -6   6   40.93    2.92
  -6  -6   6   42.37    2.92
  -6  -6   6   45.96    2.95
  -6  -6   6   47.93    2.98
  -6   6   6   42.68    2.89
  -5  -6   6   28.16    2.03
  -5  -6   6   29.42    2.05
   5  -6  -6   30.27    2.09
  -5  -6   6   31.13    2.08
  -5  -6   6   32.91    2.11
  -5  -6   6   30.06    2.08
  -5   6   6   26.76    2.10
  -5   6   6   27.11    2.01
  -5   6   6   30.07    1.91
  -4  -6   6    5.28    0.67
  -4  -6   6    4.09    0.56
  -4  -6   6    4.44    0.57
  -4  -6   6    4.22    0.54
   4  -6  -6    5.19    0.61
  -4   6   6    5.61    0.54
  -4   6   6    3.49    0.56
  -4   6   6    5.07    0.61
  -3  -6   6   18.75    1.27
  -3  -6   6   16.23    1.30
  -3   6   6   15.99    1.17
  -3   6   6   16.51    1.28
   3   6  -6   17.09    1.27
  -3   6   6   16.20    1.29
  -2  -6   6  110.33    6.69
  -2  -6   6   98.96    6.72
   2  -6  -6  104.63    6.71
  -2   6   6  113.88    6.74
  -2   6   6  102.46    6.63
   2   6  -6  119.12    6.75
  -1  -6   6   66.64    4.61
  -1  -6   6   73.39    4.46
   1  -6  -6   66.81    4.61
  -1  -6   6   71.07    4.63
  -1  -6   6   73.72    4.57
  -1   6   6   85.62    4.66
   1   6  -6   74.89    4.63
   0  -6   6    8.07    0.76
   0  -6  -6    8.23    0.77
   0  -6   6    9.07    0.70
   0  -6  -6    8.71    0.62
   0  -6   6    7.96    0.63
   0   6   6    6.79    0.73
   0   6  -6    6.91    0.73
   1  -6   6   15.47    1.09
   1  -6   6   15.49    1.07
  -1  -6  -6   14.47    1.17
  -1  -6  -6   15.60    1.06
   1   6   6   16.81    1.19
  -1   6  -6   12.38    1.14
  -2  -6  -6   47.40    3.33
   2  -6   6   52.95    3.21
  -2  -6  -6   54.71    3.26
   2  -6   6   53.28    3.28
   2   6   6   50.30    3.33
  -2   6  -6   48.50    3.31
   3  -6   6   74.68    4.45
   3  -6   6   72.10    4.58
  -3  -6  -6   73.02    4.62
  -3  -6  -6   72.70    4.54
  -3   6  -6   68.63    4.56
  -4  -6  -6   19.75    1.54
  -4  -6  -6   20.66    1.49
   4  -6   6   19.83    1.51
  -4   6  -6   21.21    1.48
  -5  -6  -6    4.63    0.68
  -5  -6  -6    5.97    0.74
  -5   6  -6    5.81    0.59
  -6  -6  -6   20.89    1.67
  -6  -6  -6   21.30    1.61
  -6   6  -6   21.66    1.44
  -7  -6  -6   15.09    1.24
  -7  -6  -6   16.31    1.40
  -8  -6  -6    4.85    0.54
  -8  -6  -6    3.64    0.77
  -9  -6  -6   -0.02    0.43
 -10  -6  -6    1.66    0.64
 -11   7   6    1.37    0.55
 -10  -7   6    0.74    0.55
 -10   7   6   -0.24    0.45
  -9  -7   6    4.63    0.92
  -9  -7   6    4.86    0.83
  -9  -7   6    3.99    0.58
  -9   7   6    4.99    0.94
  -8  -7   6    9.07    1.06
  -8  -7   6    7.65    1.12
  -8  -7   6    7.89    0.88
  -8   7   6    9.61    1.18
  -7  -7   6   12.33    1.07
  -7  -7   6    9.50    1.17
  -7  -7   6   11.76    1.03
  -7  -7   6    9.28    1.06
  -7  -7   6    9.11    1.00
  -7   7   6   11.42    1.24
  -7   7   6    9.48    0.93
  -6  -7   6    0.57    0.35
  -6  -7   6    0.68    0.34
  -6  -7   6    0.52    0.46
  -6  -7   6    1.17    0.44
  -6  -7   6    0.48    0.34
  -6   7   6    0.30    0.45
  -6   7   6    0.12    0.30
  -5  -7   6   23.56    1.76
  -5  -7   6   28.38    1.85
  -5  -7   6   22.88    1.82
  -5  -7   6   25.78    1.82
  -5  -7   6   24.79    1.83
  -5   7   6   23.41    1.87
  -5   7   6   28.05    1.67
  -5   7   6   21.33    1.75
  -4  -7   6   55.84    3.57
  -4  -7   6   56.96    3.52
  -4  -7   6   53.00    3.61
  -4   7   6   52.01    3.45
  -4   7   6   54.89    3.62
  -4   7   6   56.08    3.59
  -3  -7   6   19.87    1.71
  -3  -7   6   22.22    1.68
   3   7  -6   27.09    1.76
  -3   7   6   25.65    1.78
  -3   7   6   25.28    1.62
  -3   7   6   23.16    1.73
  -2  -7   6    0.37    0.26
  -2  -7   6    0.18    0.28
   2   7  -6    0.09    0.25
  -2   7   6    0.22    0.24
  -2   7   6    0.26    0.29
  -1  -7   6   10.19    0.76
  -1  -7   6   11.41    0.98
   1  -7  -6   12.68    1.01
  -1  -7   6    9.40    0.89
   1   7  -6   11.69    0.99
  -1   7   6   11.56    1.00
   0  -7  -6   98.13    6.13
   0  -7   6   99.53    5.97
   0  -7   6   95.46    6.02
   0  -7   6  108.25    6.14
   0   7  -6   89.67    6.10
   0   7   6   93.25    6.11
  -1  -7  -6  107.82    6.34
   1  -7   6   99.51    6.19
  -1  -7  -6  102.59    6.16
   1  -7   6  101.23    6.20
   1   7   6   91.33    6.28
   2  -7   6    5.64    0.54
   2  -7   6    6.35    0.64
  -2  -7  -6    6.90    0.60
  -2  -7  -6    6.46    0.75
  -2   7  -6    4.79    0.67
   2   7   6    6.06    0.81
  -3  -7  -6   10.96    1.00
   3  -7   6   10.34    0.94
  -3  -7  -6   11.18    0.90
  -3   7  -6   11.05    0.96
  -4  -7  -6   29.75    2.27
  -4  -7  -6   30.39    2.21
  -4   7  -6   36.74    2.25
  -5  -7  -6   21.60    1.65
  -5  -7  -6   24.45    1.72
  -5   7  -6   20.55    1.56
  -6  -7  -6    8.44    0.94
  -6  -7  -6    7.64    0.92
  -6   7  -6    7.17    0.67
  -7  -7  -6    0.25    0.35
  -7  -7  -6    1.14    0.51
  -8  -7  -6    6.51    0.73
  -8  -7  -6    7.06    0.97
  -9  -7  -6    5.93    0.97
 -10  -7  -6    1.31    0.56
 -11   8   6    3.37    0.70
 -10   8   6    3.36    0.85
  -9  -8   6    2.84    0.71
  -9  -8   6    2.06    0.47
  -9   8   6    2.52    0.66
  -8  -8   6   -0.37    0.41
  -8  -8   6   -0.02    0.37
  -8   8   6   -0.08    0.44
  -7  -8   6    6.95    0.84
  -7  -8   6    6.63    0.89
  -7  -8   6    7.48    0.95
  -7   8   6    6.91    0.98
  -7   8   6    6.95    0.84
  -6  -8   6   22.91    1.71
  -6  -8   6   21.81    1.69
  -6  -8   6   21.85    1.73
  -6  -8   6   20.91    1.65
  -6   8   6   20.53    1.76
  -6   8   6   21.70    1.64
  -5  -8   6   13.26    1.16
  -5  -8   6   13.07    1.09
  -5  -8   6   14.13    1.16
  -5  -8   6   14.14    1.22
  -5   8   6   12.38    1.13
  -5   8   6   13.04    1.25
  -5   8   6   11.03    0.98
  -4  -8   6    0.31    0.30
  -4  -8   6    0.07    0.33
  -4   8   6    0.57    0.33
  -4   8   6    0.51    0.29
  -4   8   6   -0.11    0.27
  -3  -8   6   19.76    1.46
  -3  -8   6   17.17    1.35
   3   8  -6   14.78    1.38
  -3   8   6   16.13    1.26
  -3   8   6   18.25    1.46
  -3   8   6   19.17    1.44
  -2  -8   6   60.77    4.12
  -2  -8   6   58.67    4.19
  -2   8   6   62.56    4.08
  -2   8   6   73.54    4.25
   2   8  -6   68.18    4.22
  -1  -8   6   66.39    4.05
  -1  -8   6   61.09    4.12
   1  -8  -6   62.79    4.14
   1   8  -6   60.32    4.12
  -1   8   6   66.45    4.15
   0  -8   6    5.10    0.71
   0  -8   6    5.46    0.61
   0  -8  -6    6.00    0.76
   0   8  -6    6.29    0.75
   0   8   6    5.09    0.69
   1  -8   6   13.33    1.07
   1  -8   6   14.40    1.10
  -1  -8  -6   15.98    1.26
   1   8   6   15.93    1.25
  -1   8  -6   14.09    1.23
  -2  -8  -6   32.82    2.19
   2  -8   6   29.86    1.97
   2  -8   6   31.53    2.05
  -2  -8  -6   29.11    1.98
  -2   8  -6   26.85    2.11
   3  -8   6   47.84    3.08
  -3  -8  -6   51.17    3.05
  -3  -8  -6   39.51    3.13
  -3   8  -6   47.57    3.13
  -4  -8  -6    8.73    0.83
  -4  -8  -6    9.63    1.07
  -4   8  -6    7.44    0.91
  -5  -8  -6    4.33    0.70
  -5  -8  -6    3.55    0.62
  -5   8  -6    4.32    0.60
  -6  -8  -6   16.14    1.42
  -6  -8  -6   16.14    1.40
  -6   8  -6   16.89    1.25
  -7  -8  -6   10.82    1.16
  -7  -8  -6    8.57    1.01
  -8  -8  -6    1.49    0.58
  -8  -8  -6    2.31    0.47
  -9  -8  -6   -0.11    0.41
 -10  -8  -6    2.00    0.59
 -10   9   6    1.39    0.58
  -9  -9   6    4.47    0.66
  -9   9   6    3.80    0.85
  -8  -9   6    6.62    0.89
  -8   9   6    7.39    1.04
  -7  -9   6    8.07    0.98
  -7   9   6    6.47    0.86
  -7   9   6    5.64    0.94
  -6  -9   6    0.18    0.41
  -6  -9   6    0.79    0.46
  -6   9   6   -0.19    0.45
  -6   9   6    0.78    0.39
  -5  -9   6   14.26    1.33
  -5  -9   6   12.61    1.24
  -5  -9   6   13.31    1.22
  -5   9   6   14.01    1.34
  -5   9   6   13.58    1.24
  -5   9   6   14.72    1.09
  -4  -9   6   42.47    2.77
  -4  -9   6   37.76    2.80
  -4   9   6   41.85    2.85
  -4   9   6   38.82    2.61
  -4   9   6   39.28    2.80
  -3  -9   6   14.99    1.24
  -3  -9   6   14.65    1.32
  -3   9   6   14.62    1.34
  -3   9   6   13.09    1.12
  -3   9   6   16.78    1.35
  -2  -9   6    0.56    0.33
  -2  -9   6    1.00    0.47
   2   9  -6    1.64    0.49
  -2   9   6    1.21    0.43
  -2   9   6    0.77    0.36
   1  -9  -6    7.98    0.98
  -1  -9   6    7.86    0.82
  -1  -9   6    8.37    0.92
   1   9  -6   10.15    0.98
  -1   9   6    9.20    0.96
   0  -9   6   43.36    3.49
   0  -9   6   53.02    3.42
   0  -9  -6   57.01    3.59
   0   9   6   55.87    3.58
   0   9  -6   57.11    3.60
  -1  -9  -6   59.32    3.88
   1  -9   6   60.18    3.69
  -1   9  -6   53.29    3.84
   1   9   6   58.48    3.86
  -2  -9  -6    5.66    0.83
   2  -9   6    5.15    0.63
  -2   9  -6    6.94    0.86
  -3  -9  -6    5.87    0.86
  -3  -9  -6    8.63    1.11
  -3   9  -6    5.75    0.78
  -4  -9  -6   16.52    1.52
  -4  -9  -6   17.24    1.36
  -4   9  -6   18.87    1.45
  -5  -9  -6   15.58    1.48
  -5  -9  -6   18.13    1.35
  -5   9  -6   14.69    1.29
  -6  -9  -6    5.18    0.81
  -6  -9  -6    4.54    0.75
  -6   9  -6    4.53    0.63
  -7  -9  -6    0.43    0.39
  -7  -9  -6    0.04    0.46
  -8  -9  -6    5.66    0.74
  -8  -9  -6    3.55    0.74
  -9  -9  -6    4.65    0.79
 -10  10   6    1.54    0.64
  -9 -10   6    1.15    0.46
  -9  10   6    1.49    0.58
  -8 -10   6    0.55    0.44
  -8  10   6    0.26    0.57
  -7 -10   6    6.16    0.90
  -7  10   6    4.04    0.91
  -7  10   6    7.96    0.94
  -6  10   6    9.58    1.30
  -6  10   6   13.05    1.18
  -5 -10   6    6.51    0.81
  -5 -10   6    6.56    1.02
  -5  10   6    5.94    0.85
  -5  10   6    7.31    0.74
  -5  10   6    4.76    0.88
  -4 -10   6    0.41    0.49
  -4 -10   6    0.03    0.36
  -4  10   6    0.43    0.34
  -4  10   6    0.30    0.40
  -4  10   6    0.72    0.43
  -3 -10   6    8.68    0.99
  -3 -10   6   10.39    1.21
  -3  10   6    9.81    0.91
  -3  10   6   10.88    1.12
  -3  10   6   10.23    1.20
  -2 -10   6   57.00    3.72
  -2 -10   6   59.80    3.86
  -2  10   6   51.81    3.65
   2  10  -6   59.34    3.87
  -2  10   6   55.48    3.83
   1 -10  -6   35.42    2.42
  -1 -10   6   32.85    2.25
  -1 -10   6   28.61    2.06
   1  10  -6   24.99    2.19
  -1  10   6   27.79    2.20
   0 -10  -6    1.90    0.52
   0 -10   6    2.18    0.41
   0  10   6    1.63    0.53
   0  10  -6    2.28    0.57
  -1 -10  -6    6.14    0.89
  -1  10  -6    6.08    0.88
   1  10   6    5.44    0.86
  -2 -10  -6   22.74    1.89
  -2  10  -6   24.65    1.89
  -3 -10  -6   20.72    1.80
  -3  10  -6   22.29    1.77
  -4 -10  -6    6.38    0.98
  -4  10  -6    6.88    0.89
  -5 -10  -6    3.58    0.61
  -5 -10  -6    2.08    0.66
  -5  10  -6    2.77    0.56
  -6 -10  -6    9.86    1.04
  -6 -10  -6    8.50    1.13
  -6  10  -6    8.16    0.88
  -7 -10  -6    6.63    0.94
  -7 -10  -6    7.04    0.92
  -8 -10  -6    1.31    0.52
  -8 -10  -6    2.74    0.57
  -9 -10  -6    0.07    0.40
  -9 -11   6    3.37    0.62
  -9  11   6    1.63    0.56
  -8 -11   6    5.18    0.79
  -8  11   6    3.95    0.78
  -7 -11   6    3.16    0.68
  -7  11   6    3.33    0.67
  -7  11   6    1.30    0.68
  -6 -11   6   -0.10    0.47
  -6  11   6   -0.54    0.53
  -6  11   6    0.51    0.46
  -5  11   6    6.47    0.94
  -5  11   6    5.51    0.99
  -5  11   6    7.30    0.76
  -4 -11   6   20.83    1.81
  -4 -11   6   19.80    1.73
  -4  11   6   18.94    1.68
  -4  11   6   17.03    1.63
  -4  11   6   18.75    1.43
  -3 -11   6   16.17    1.57
  -3 -11   6   16.04    1.42
  -3  11   6   18.77    1.37
  -3  11   6   17.98    1.57
  -3  11   6   16.81    1.56
  -2 -11   6    1.47    0.46
  -2 -11   6    0.23    0.52
  -2  11   6    1.30    0.59
  -2  11   6    1.22    0.44
   2  11  -6    2.00    0.58
  -1 -11   6    4.45    0.67
  -1 -11   6    6.39    0.99
   1  11  -6    7.02    1.02
  -1  11   6    7.48    1.04
   0 -11  -6   17.94    1.71
   0 -11   6   22.52    1.55
   0  11  -6   21.48    1.78
   0  11   6   18.95    1.71
  -1 -11  -6   18.81    1.71
   1  11   6   19.21    1.69
  -1  11  -6   19.86    1.69
  -2 -11  -6    1.86    0.60
  -2  11  -6    1.42    0.58
  -3 -11  -6    6.10    0.99
  -3  11  -6    4.60    0.81
  -4 -11  -6   15.89    1.56
  -4  11  -6   15.98    1.45
  -5 -11  -6   13.21    1.39
  -5  11  -6   12.62    1.24
  -6 -11  -6    4.85    0.89
  -6  11  -6    5.19    0.72
  -7 -11  -6    0.02    0.40
  -8 -11  -6    2.81    0.60
  -8 -12   6    0.02    0.44
  -8  12   6    0.21    0.42
  -7 -12   6    3.84    0.79
  -7  12   6    5.08    0.91
  -7  12   6    6.87    0.90
  -6 -12   6    7.57    1.04
  -6  12   6    7.74    0.99
  -6  12   6    5.11    0.93
  -5 -12   6    6.16    1.06
  -5  12   6    8.00    1.08
  -5  12   6    7.86    0.80
  -5  12   6    5.63    0.98
  -4 -12   6    2.95    0.71
  -4  12   6    0.81    0.40
  -4  12   6    1.79    0.57
  -4  12   6    1.09    0.48
  -3 -12   6    1.67    0.66
  -3  12   6    5.43    0.89
  -3  12   6    4.39    0.85
  -3  12   6    5.12    0.69
  -2 -12   6   22.44    1.82
  -2 -12   6   24.95    2.04
  -2  12   6   23.28    2.03
   2  12  -6   24.55    2.03
  -2  12   6   25.61    2.06
  -2  12   6   23.71    1.81
  -1 -12   6   18.95    1.63
  -1 -12   6   17.12    1.41
  -1  12   6   16.57    1.41
  -1  12   6   16.48    1.60
   1  12  -6   17.61    1.63
   0 -12  -6    0.83    0.53
   0  12  -6    0.69    0.59
   0  12   6    0.81    0.57
  -1 -12  -6    2.84    0.72
  -1  12  -6    3.46    0.77
   1  12   6    2.96    0.79
  -2 -12  -6   15.75    1.55
  -2  12  -6   14.63    1.47
  -3 -12  -6   16.18    1.71
  -3  12  -6   20.72    1.70
  -4 -12  -6    2.24    0.71
  -4  12  -6    1.74    0.62
  -5 -12  -6    0.37    0.49
  -5  12  -6    0.29    0.45
  -6 -12  -6    5.72    0.98
  -6  12  -6    5.07    0.71
  -7 -12  -6    7.08    0.99
  -7 -13   6    3.69    0.82
  -7  13   6    3.28    0.71
  -7  13   6    3.19    0.73
  -6 -13   6   -0.37    0.40
  -6  13   6   -0.07    0.57
  -6  13   6    0.69    0.50
  -5 -13   6    4.14    0.81
  -5  13   6    4.41    0.60
  -5  13   6    4.29    0.84
  -5  13   6    3.16    0.79
  -4 -13   6    9.15    1.31
  -4  13   6   11.63    1.05
  -4  13   6   12.27    1.39
  -4  13   6   11.78    1.42
  -3 -13   6    9.91    1.37
  -3  13   6   10.68    1.35
  -3  13   6   10.32    1.33
  -3  13   6   11.74    1.06
  -2 -13   6    0.99    0.54
  -2  13   6    1.18    0.45
   2  13  -6    0.86    0.58
  -2  13   6    1.61    0.72
  -2  13   6    0.83    0.49
  -1  13   6    1.46    0.53
  -1  13   6    3.62    0.78
   1  13  -6    4.73    0.86
   0  13  -6   17.36    1.72
   0  13   6   18.68    1.75
   0  13   6   17.53    1.53
  -1 -13  -6   23.62    1.95
  -1  13  -6   18.86    1.84
   1  13   6   19.00    1.85
  -2 -13  -6    3.26    0.84
  -2  13  -6    3.09    0.78
  -3 -13  -6    0.75    0.61
  -3  13  -6    0.60    0.56
  -4 -13  -6    5.42    0.98
  -4  13  -6    6.97    1.04
  -5 -13  -6    7.11    1.11
  -5  13  -6    7.66    0.99
  -6 -13  -6    2.29    0.66
  -6  13  -6    2.33    0.54
  -7 -13  -6    0.15    0.45
  -6 -14   6    6.84    1.09
  -6  14   6    6.48    1.06
  -6  14   6    8.08    1.03
  -5 -14   6    5.27    1.04
  -5  14   6    6.52    0.65
  -5  14   6    4.92    0.84
  -5  14   6    3.58    0.78
  -4 -14   6   -0.36    0.56
  -4  14   6    0.82    0.61
  -4  14   6    0.30    0.55
  -4  14   6    0.42    0.38
  -3 -14   6    3.05    0.78
  -3  14   6    5.02    1.00
  -3  14   6    3.23    0.61
  -3  14   6    3.98    0.88
  -2 -14   6    9.37    1.30
   2  14  -6   11.50    1.42
  -2  14   6   11.95    1.42
  -2  14   6    9.40    1.10
  -2  14   6   12.73    1.46
  -1  14   6   10.03    1.07
  -1  14   6    7.82    1.16
   1  14  -6    7.15    1.11
   0  14   6    2.34    0.61
   0  14   6    2.76    0.75
   0  14  -6    2.91    0.82
  -1 -14  -6    1.62    0.67
  -1  14  -6    2.38    0.66
   1  14   6    2.21    1.33
  -2 -14  -6   11.87    1.56
  -2  14  -6   14.78    1.53
  -3 -14  -6    8.77    1.28
  -3  14  -6   10.05    1.29
  -4 -14  -6    1.66    0.71
  -4  14  -6    2.55    0.39
  -4  14  -6    1.74    0.59
  -5 -14  -6    0.16    0.57
  -5  14  -6    0.47    0.45
  -5 -15   6    5.23    0.91
  -5  15   6    2.76    0.68
  -5  15   6    4.92    0.83
  -4 -15   6    8.94    1.29
  -4  15   6    6.68    1.10
  -4  15   6   10.37    1.29
  -4  15   6    9.10    0.95
  -3 -15   6    4.16    0.96
  -3  15   6    1.69    0.62
  -3  15   6    2.79    0.70
  -3  15   6    2.67    0.58
  -2  15   6    0.16    0.42
  -2  15   6    0.93    0.53
  -2  15   6   -0.03    0.56
  -1  15   6    1.75    0.57
   1  15  -6    1.28    0.67
  -1  15   6    0.39    0.55
  -1  15   6    0.92    0.65
   0  15   6    7.98    1.24
   0  15   6    8.99    1.13
   0  15  -6   10.47    1.51
  -1  15  -6    4.90    1.00
  -2 -15  -6    1.35    0.68
  -2  15  -6    1.41    0.70
  -3 -15  -6   -0.01    0.47
  -3  15  -6    0.50    0.55
  -4 -15  -6    1.46    0.65
  -4  15  -6    2.85    0.68
  -2  16   6    4.03    0.84
  -2  16   6    3.85    0.67
  -2  16   6    3.24    0.78
  -1  16   6    2.71    0.77
  -1  16   6    4.69    0.96
  -1  16   6    4.91    0.73
   1  16  -6    3.96    0.91
   0  16  -6    0.36    0.62
   0  16   6    0.89    0.61
   0  16   6    0.43    0.60
   0  16   6    1.26    0.50
  -1  16  -6    1.23    0.66
  -2 -16  -6    5.79    1.08
  -2  16  -6    4.25    0.86
 -12   0   7    2.39    0.78
 -11   0   7    1.70    0.68
 -10   0   7    0.00    0.60
  -9   0   7    8.23    0.96
  -9   0   7    5.75    0.90
  -8   0   7   21.97    1.73
  -8   0   7   21.48    1.65
  -8   0   7   22.83    1.68
  -8   0   7   20.63    1.58
  -7   0   7   22.43    1.63
  -7   0   7   20.37    1.50
  -7   0   7   20.13    1.55
   7   0  -7   19.46    1.62
  -7   0   7   21.72    1.42
  -7   0   7   21.70    1.57
  -6   0   7   11.08    0.95
  -6   0   7   12.24    0.95
  -6   0   7   10.86    0.89
  -6   0   7   11.02    0.98
   6   0  -7    9.93    1.02
  -6   0   7   11.65    0.86
  -6   0   7   10.36    0.84
  -5   0   7   11.07    0.85
  -5   0   7   10.49    0.80
  -5   0   7   10.80    0.86
  -5   0   7   12.42    0.89
  -5   0   7    9.59    0.89
  -5   0   7   10.41    0.87
   5   0  -7   10.57    1.00
  -4   0   7  101.83    5.92
  -4   0   7   91.36    5.93
  -4   0   7  102.10    5.89
  -4   0   7  101.96    5.89
  -4   0   7   98.29    5.88
  -4   0   7   96.41    5.93
   4   0  -7   80.62    6.00
  -3   0   7  126.90    8.07
  -3   0   7  139.32    8.00
   3   0  -7  116.77    8.14
  -3   0   7  138.82    8.02
  -3   0   7  137.20    8.02
  -2   0   7   36.27    2.61
  -2   0   7   42.93    2.58
   2   0  -7   43.48    2.72
   1   0  -7   50.14    3.13
  -1   0   7   45.65    3.04
   0   0  -7   91.21    5.42
   0   0  -7   84.14    5.45
  -1   0  -7  139.81    8.54
  -2   0  -7  110.15    6.52
  -2   0  -7  102.09    6.51
  -3   0  -7   -0.10    0.19
  -3   0  -7    0.24    0.21
  -4   0  -7   42.20    2.83
  -4   0  -7   45.37    2.79
  -5   0  -7   63.02    4.09
  -5   0  -7   70.04    4.21
  -6   0  -7   17.55    1.38
  -6   0  -7   17.97    1.18
  -7   0  -7    0.21    0.33
  -8   0  -7    4.24    0.73
  -9   0  -7    7.85    0.98
 -10   0  -7    4.55    0.77
 -11   0  -7    0.37    0.47
 -12  -1   7    0.20    0.54
 -12   1   7   -0.19    0.57
 -11  -1   7    1.89    0.69
 -11   1   7    2.55    0.79
 -10  -1   7   12.24    1.23
 -10  -1   7   10.67    1.38
 -10   1   7   11.90    1.43
  -9  -1   7    9.30    1.06
  -9  -1   7    7.89    1.07
  -9   1   7    9.91    1.14
  -8  -1   7    1.58    0.25
  -8  -1   7    1.58    0.45
   8  -1  -7    1.23    0.43
  -8  -1   7    2.49    0.56
  -8  -1   7    1.13    0.52
  -8  -1   7    1.29    0.31
  -8   1   7    0.79    0.42
  -8   1   7    0.97    0.29
  -8   1   7    1.50    0.44
  -8   1   7    1.11    0.53
  -7  -1   7    8.23    0.88
  -7  -1   7    7.85    0.68
  -7  -1   7    7.03    0.86
  -7  -1   7    6.51    0.64
  -7  -1   7    6.40    0.64
  -7  -1   7    8.61    0.81
  -7  -1   7    7.95    0.92
   7  -1  -7    7.32    0.86
  -7   1   7    8.88    0.81
  -7   1   7    8.56    0.80
  -7   1   7    7.92    0.78
  -7   1   7    9.38    0.65
  -7   1   7    6.66    0.87
  -6  -1   7   56.93    3.54
   6  -1  -7   56.42    3.65
  -6  -1   7   58.70    3.59
  -6  -1   7   58.82    3.51
  -6  -1   7   53.68    3.59
  -6  -1   7   56.23    3.50
  -6  -1   7   59.10    3.59
  -6   1   7   53.26    3.45
  -6   1   7   55.66    3.50
  -6   1   7   52.78    3.55
  -6   1   7   54.16    3.52
  -6   1   7   49.09    3.59
  -5  -1   7   65.62    4.04
   5  -1  -7   58.23    4.13
  -5  -1   7   65.14    4.00
  -5  -1   7   62.63    4.02
  -5  -1   7   58.74    4.03
  -5  -1   7   63.94    4.07
  -5  -1   7   61.17    4.07
  -5  -1   7   62.68    4.09
  -5   1   7   63.88    4.10
  -5   1   7   70.97    4.04
  -5   1   7   69.56    4.07
   5   1  -7   62.01    4.18
  -5   1   7   71.56    4.07
  -5   1   7   68.61    4.00
  -4  -1   7    9.99    0.71
  -4  -1   7    9.24    0.79
  -4  -1   7   10.78    0.82
  -4  -1   7    9.43    0.76
  -4  -1   7   10.34    0.80
   4  -1  -7   10.57    0.92
  -4   1   7    8.75    0.79
   4   1  -7   11.95    0.97
  -4   1   7    9.35    0.73
  -4   1   7    9.18    0.75
  -4   1   7    8.84    0.80
  -4   1   7   10.50    0.71
  -4   1   7    9.28    0.76
  -3  -1   7    8.49    0.61
   3  -1  -7    8.21    0.79
  -3  -1   7    8.03    0.65
  -3  -1   7    8.47    0.66
  -3  -1   7    9.33    0.73
   3   1  -7    7.36    0.79
  -3   1   7    8.26    0.65
  -3   1   7    7.48    0.69
  -3   1   7    8.41    0.62
  -3   1   7    7.61    0.61
  -2  -1   7   90.40    6.50
  -2   1   7  114.99    6.44
  -2   1   7  122.47    6.50
  -2   1   7   96.42    6.52
   1  -1  -7  205.54   13.98
  -1  -1   7  235.10   13.93
  -1   1   7  249.05   13.95
   0  -1  -7   84.90    5.15
   0  -1  -7   77.50    5.07
   0   1  -7   83.32    5.07
  -1  -1  -7   26.06    1.84
  -1  -1  -7   24.74    1.80
   1   1   7   27.18    1.70
  -1   1  -7   32.16    1.83
  -2  -1  -7  112.69    6.88
  -2  -1  -7  109.09    6.89
  -2   1  -7  120.08    6.88
  -2   1  -7  107.30    6.87
  -3  -1  -7   75.56    4.82
  -3  -1  -7   86.15    4.84
  -3   1  -7   79.82    4.82
  -3   1  -7   69.47    4.79
  -4  -1  -7   64.28    4.01
  -4  -1  -7   63.28    3.97
  -4   1  -7   60.59    3.98
  -4   1  -7   65.16    3.95
  -5  -1  -7    5.64    0.68
  -5  -1  -7    4.40    0.49
  -5   1  -7    5.83    0.50
  -5   1  -7    4.50    0.59
  -6  -1  -7   18.46    1.36
  -6  -1  -7   16.13    1.16
  -6   1  -7   18.12    1.33
  -7  -1  -7   30.17    2.18
  -7   1  -7   29.64    2.14
  -8  -1  -7    9.92    1.12
  -8   1  -7    8.12    1.00
  -9  -1  -7   -0.01    0.40
  -9   1  -7    1.11    0.48
 -10  -1  -7    0.46    0.48
 -10   1  -7    0.60    0.43
 -11  -1  -7    3.11    0.73
 -11   1  -7    2.14    0.60
 -12  -2   7    1.78    0.64
 -12   2   7    2.41    0.67
 -11  -2   7    1.98    0.67
 -11   2   7    1.64    0.75
 -10  -2   7   -0.15    0.61
 -10  -2   7    0.13    0.52
 -10   2   7   -0.37    0.52
  -9  -2   7    3.35    0.71
   9  -2  -7    2.75    0.62
  -9  -2   7    3.54    0.77
  -9   2   7    5.11    0.81
  -8  -2   7   16.57    1.22
  -8  -2   7   18.19    1.49
  -8  -2   7   17.19    1.43
  -8  -2   7   18.40    1.38
   8  -2  -7   19.31    1.50
  -8  -2   7   19.30    1.56
  -8   2   7   17.80    1.38
  -8   2   7   16.63    1.52
  -8   2   7   18.09    1.43
  -7  -2   7   28.86    2.07
  -7  -2   7   26.93    1.89
  -7  -2   7   30.26    2.04
   7  -2  -7   27.65    2.04
  -7  -2   7   28.57    2.04
   7  -2  -7   28.01    1.97
  -7  -2   7   26.25    1.91
  -7  -2   7   29.02    1.97
  -7   2   7   29.69    1.85
  -7   2   7   27.25    2.08
  -7   2   7   28.46    1.95
  -7   2   7   29.81    2.00
  -6  -2   7    2.79    0.50
  -6  -2   7    2.41    0.44
  -6  -2   7    3.32    0.43
   6  -2  -7    1.82    0.37
   6  -2  -7    2.35    0.47
  -6  -2   7    2.51    0.39
  -6  -2   7    2.22    0.48
  -6  -2   7    2.42    0.39
  -6   2   7    3.16    0.46
  -6   2   7    3.24    0.43
  -6   2   7    2.34    0.37
  -6   2   7    2.38    0.49
  -5  -2   7   21.99    1.45
  -5  -2   7   20.39    1.40
  -5  -2   7   21.89    1.39
  -5  -2   7   19.43    1.42
  -5  -2   7   22.00    1.46
  -5   2   7   20.46    1.39
  -5   2   7   17.21    1.38
  -5   2   7   17.36    1.34
  -5   2   7   17.85    1.43
  -5   2   7   19.72    1.30
  -4  -2   7  125.50    7.72
  -4  -2   7  123.09    7.74
  -4  -2   7  128.17    7.65
  -4  -2   7  125.40    7.74
  -4  -2   7  130.28    7.75
  -4  -2   7  119.16    7.75
  -4   2   7  129.52    7.78
  -4   2   7  131.92    7.69
  -4   2   7  129.17    7.77
  -4   2   7  130.36    7.71
  -4   2   7  117.33    7.66
  -3  -2   7  162.27   11.55
  -3  -2   7  191.66   11.54
  -3  -2   7  195.31   11.47
  -3   2   7  186.88   11.49
  -3   2   7  204.18   11.60
  -3   2   7  191.45   11.55
  -3   2   7  194.67   11.50
  -3   2   7  195.00   11.48
  -2  -2   7   42.59    2.53
  -2  -2   7   41.60    2.57
  -2   2   7   36.57    2.55
  -2   2   7   40.73    2.45
  -2   2   7   41.12    2.55
  -2   2   7   38.40    2.52
  -2   2   7   37.49    2.44
   1  -2  -7    3.79    0.56
  -1  -2   7    3.59    0.47
  -1   2   7    4.19    0.48
   1   2  -7    4.01    0.44
  -1   2   7    3.79    0.28
   0  -2  -7  123.49    7.64
  -1  -2  -7  130.03    9.49
  -1  -2  -7  152.30    9.44
  -1  -2  -7  143.03    9.46
   1   2   7  160.33    9.34
   1   2   7  164.91    9.34
  -1   2  -7  180.55    9.49
  -2  -2  -7   81.35    4.70
  -2  -2  -7   72.98    4.71
   2   2   7   77.75    4.59
  -2   2  -7   65.03    4.67
  -2   2  -7   81.23    4.69
  -3  -2  -7    1.49    0.32
  -3  -2  -7    0.60    0.25
  -3   2  -7    1.42    0.31
  -3   2  -7    1.47    0.30
  -4  -2  -7   89.15    5.29
  -4  -2  -7   86.09    5.32
  -4   2  -7   83.53    5.25
  -4   2  -7   81.47    5.27
  -5  -2  -7   62.93    3.90
  -5  -2  -7   57.64    3.80
  -5   2  -7   57.40    3.83
  -5   2  -7   63.81    3.76
  -6  -2  -7   23.68    1.74
  -6  -2  -7   22.67    1.57
  -6   2  -7   24.43    1.69
  -7  -2  -7    1.59    0.48
  -7   2  -7    1.73    0.43
  -8  -2  -7    2.03    0.58
  -8   2  -7    4.40    0.69
  -9  -2  -7    6.90    1.00
  -9   2  -7    7.64    0.95
 -10  -2  -7    3.92    0.76
 -10   2  -7    5.89    0.82
 -11  -2  -7    0.46    0.43
 -12  -3   7   -0.39    0.40
 -12   3   7    0.46    0.45
 -11  -3   7    1.79    0.65
 -11   3   7    2.03    0.71
 -10  -3   7    2.99    0.76
 -10  -3   7    4.04    0.84
 -10   3   7    2.57    0.73
  -9  -3   7    9.42    1.11
   9  -3  -7    6.82    0.95
  -9  -3   7    6.61    1.06
  -9   3   7    7.32    0.99
  -8  -3   7    1.92    0.54
  -8  -3   7    1.94    0.34
  -8  -3   7    1.58    0.49
  -8  -3   7    2.53    0.66
   8  -3  -7    1.50    0.44
  -8   3   7    1.33    0.41
  -8   3   7    1.19    0.59
   7  -3  -7    9.59    0.91
  -7  -3   7   10.54    1.01
  -7  -3   7    9.72    0.85
  -7  -3   7    9.94    0.84
  -7  -3   7   10.48    1.00
  -7  -3   7   10.74    0.96
  -7  -3   7    9.52    0.87
  -7   3   7    8.71    0.84
  -7   3   7    8.54    0.87
  -7   3   7    9.43    0.77
  -7   3   7    8.53    1.01
  -6  -3   7   60.54    3.93
  -6  -3   7   60.32    3.89
  -6  -3   7   63.83    3.89
  -6  -3   7   62.30    3.94
  -6  -3   7   66.20    3.90
  -6  -3   7   57.66    3.95
  -6  -3   7   58.68    3.87
   6  -3  -7   59.48    3.91
  -6   3   7   63.79    3.86
  -6   3   7   60.72    3.86
  -6   3   7   62.48    3.90
  -6   3   7   55.88    3.95
  -5  -3   7   46.13    2.99
  -5  -3   7   43.18    2.98
   5  -3  -7   47.26    2.99
  -5  -3   7   43.19    2.95
  -5  -3   7   43.53    2.97
  -5  -3   7   46.21    2.99
  -5   3   7   43.63    3.01
  -5   3   7   46.71    2.98
  -5   3   7   46.14    2.85
  -5   3   7   48.36    2.95
  -5   3   7   49.52    2.85
  -5   3   7   45.69    2.91
  -4  -3   7    5.82    0.65
  -4  -3   7    6.94    0.69
  -4  -3   7    6.08    0.68
  -4  -3   7    5.44    0.59
  -4  -3   7    5.08    0.65
  -4   3   7    7.07    0.66
  -4   3   7    6.82    0.57
  -4   3   7    8.30    0.69
  -4   3   7    7.89    0.58
  -4   3   7    7.29    0.58
  -3  -3   7   10.47    0.79
  -3  -3   7    9.62    0.60
  -3  -3   7    8.93    0.74
  -3   3   7    7.74    0.63
  -3   3   7    9.17    0.75
  -3   3   7    8.01    0.74
  -3   3   7    8.89    0.64
  -3   3   7    7.51    0.68
  -2  -3   7   83.78    5.12
  -2  -3   7   76.67    5.14
  -2   3   7   85.65    5.02
  -2   3   7   92.41    5.10
  -2   3   7   79.23    5.01
  -2   3   7   79.73    5.14
  -1  -3   7  303.48   18.52
   1  -3  -7  311.47   18.57
  -1  -3   7  323.85   18.57
  -1   3   7  315.81   18.41
   1   3  -7  311.58   18.57
  -1   3   7  274.95   18.54
   0  -3  -7   87.17    5.22
   0  -3  -7   81.10    5.14
   0   3   7   89.08    5.14
   0   3  -7   73.40    5.12
  -1  -3  -7   13.34    1.15
  -1  -3  -7   17.94    1.25
  -1  -3  -7   17.17    1.13
  -1   3  -7   16.00    1.16
  -2  -3  -7   62.56    3.77
  -2  -3  -7   59.16    3.73
  -2  -3  -7   61.41    3.78
  -2   3  -7   58.25    3.71
  -2   3  -7   55.91    3.75
  -3  -3  -7   77.87    4.85
  -3  -3  -7   78.01    4.83
  -3   3  -7   74.39    4.79
  -3   3  -7   79.39    4.82
  -4  -3  -7   38.48    2.27
  -4  -3  -7   32.94    2.25
  -4   3  -7   30.23    2.18
  -4   3  -7   32.93    2.18
  -5  -3  -7    3.13    0.53
  -5  -3  -7    2.98    0.45
  -5   3  -7    2.70    0.43
  -5   3  -7    3.24    0.38
  -6  -3  -7   16.14    1.24
  -6  -3  -7   18.72    1.45
  -6   3  -7   18.59    1.32
  -7  -3  -7   23.03    1.58
  -7  -3  -7   24.76    1.86
  -7   3  -7   25.33    1.77
  -8  -3  -7    9.40    1.17
  -8   3  -7    9.65    1.03
  -9  -3  -7    2.27    0.71
 -10  -3  -7    1.58    0.68
 -11  -3  -7    1.79    0.61
 -12  -4   7    0.71    0.61
 -12   4   7    1.84    0.67
 -11  -4   7    1.43    0.78
 -11   4   7    1.16    0.54
 -10  -4   7    0.56    0.61
 -10  -4   7    0.99    0.49
 -10   4   7    0.64    0.56
  -9  -4   7    2.69    0.39
  -9  -4   7    1.90    0.70
  -9  -4   7    1.54    0.66
   9  -4  -7    3.82    0.65
  -9   4   7    2.83    0.66
  -8  -4   7   15.99    1.35
  -8  -4   7   17.00    1.21
  -8  -4   7   16.39    1.27
  -8  -4   7   15.68    1.46
  -8  -4   7   15.59    1.40
  -8   4   7   12.82    1.42
  -7  -4   7   28.46    1.98
  -7  -4   7   25.93    2.00
  -7  -4   7   26.64    1.88
  -7  -4   7   27.76    1.96
  -7  -4   7   27.81    1.86
  -7  -4   7   25.92    1.86
  -7   4   7   26.10    1.78
  -7   4   7   23.18    1.97
  -6  -4   7    7.67    0.89
  -6  -4   7    7.55    0.78
   6  -4  -7    6.87    0.79
  -6  -4   7    8.13    0.89
  -6  -4   7    8.88    0.80
  -6  -4   7    6.84    0.76
  -6  -4   7    7.78    0.85
  -6   4   7    9.69    0.99
  -6   4   7    9.32    0.78
  -5  -4   7    6.56    0.70
  -5  -4   7    6.59    0.72
  -5  -4   7    4.91    0.64
  -5  -4   7    7.43    0.70
   5  -4  -7    5.98    0.68
  -5  -4   7    7.13    0.75
  -5  -4   7    5.94    0.73
  -5   4   7    5.30    0.70
  -5   4   7    7.08    0.70
  -5   4   7    8.25    0.56
  -4  -4   7   56.42    3.88
  -4  -4   7   58.70    3.88
  -4  -4   7   64.91    3.93
  -4  -4   7   66.18    3.94
  -4  -4   7   62.21    3.90
  -4   4   7   61.18    3.93
  -4   4   7   60.74    3.91
  -4   4   7   62.66    3.81
  -3  -4   7   77.67    4.81
  -3  -4   7   79.06    4.85
  -3  -4   7   79.72    4.90
  -3   4   7   77.99    4.80
  -3   4   7   68.99    4.85
  -3   4   7   83.89    4.88
  -2  -4   7   21.33    1.43
  -2  -4   7   17.26    1.45
  -2   4   7   22.73    1.46
  -2   4   7   21.49    1.47
   2   4  -7   22.62    1.48
  -2   4   7   19.31    1.38
  -1  -4   7   13.01    0.95
  -1   4   7   10.70    0.92
  -1   4   7   11.18    1.04
   1   4  -7   11.65    0.93
   0  -4   7   46.10    2.97
   0  -4  -7   49.06    3.04
   0  -4   7   42.58    3.00
   0  -4  -7   49.07    2.99
   0   4  -7   43.12    3.01
   0   4   7   52.55    3.04
  -1  -4  -7  110.07    7.44
   1  -4   7  124.49    7.33
  -1  -4  -7  126.50    7.34
  -1  -4  -7  106.24    7.38
   1   4   7  123.16    7.39
  -1   4  -7  129.60    7.40
  -2  -4  -7   73.00    4.49
  -2  -4  -7   68.91    4.43
  -2  -4  -7   76.92    4.53
   2  -4   7   71.09    4.40
  -2   4  -7   70.05    4.47
  -2   4  -7   67.06    4.40
  -3  -4  -7    1.58    0.38
  -3  -4  -7    1.63    0.33
  -3   4  -7    1.63    0.36
  -3   4  -7    2.12    0.33
  -4  -4  -7   33.26    2.08
  -4  -4  -7   30.47    2.05
   4  -4   7   30.91    1.94
  -4   4  -7   27.15    1.87
  -4   4  -7   32.05    1.99
  -4   4  -7   28.19    1.99
  -5  -4  -7   40.64    2.64
  -5  -4  -7   40.08    2.67
  -5   4  -7   40.10    2.54
  -5   4  -7   37.33    2.56
  -6  -4  -7    7.86    0.78
  -6  -4  -7    6.85    0.89
  -6   4  -7   10.04    0.82
  -6   4  -7    9.13    0.65
  -7  -4  -7    0.73    0.26
  -7  -4  -7    0.93    0.50
  -8  -4  -7    1.82    0.66
  -9  -4  -7    8.10    1.09
 -10  -4  -7    3.91    0.77
 -11  -4  -7    0.02    0.57
 -12  -5   7    0.12    0.64
 -12   5   7    1.16    0.54
 -11  -5   7    1.90    0.79
 -11   5   7    1.49    0.58
 -10  -5   7    5.39    0.96
 -10  -5   7    7.43    1.02
 -10   5   7    3.72    0.82
  -9  -5   7    4.91    0.87
   9  -5  -7    5.58    0.80
  -9  -5   7    5.25    0.57
  -9  -5   7    3.68    0.81
  -9   5   7    3.10    0.77
  -8  -5   7    3.79    0.57
  -8  -5   7    3.51    0.75
  -8  -5   7    4.44    0.74
  -8  -5   7    3.76    0.58
  -8   5   7    3.74    0.81
  -7  -5   7    6.15    0.74
  -7  -5   7    5.09    0.69
  -7  -5   7    5.69    0.83
  -7  -5   7    4.89    0.71
  -7  -5   7    6.04    0.78
  -7  -5   7    6.89    0.73
  -7   5   7    5.24    0.62
  -7   5   7    3.94    0.76
  -6  -5   7   44.72    3.15
  -6  -5   7   51.19    3.16
  -6  -5   7   48.97    3.19
  -6  -5   7   45.61    3.17
  -6  -5   7   47.22    3.13
  -6   5   7   44.84    3.21
  -6   5   7   49.63    3.13
  -5  -5   7   34.30    2.21
   5  -5  -7   32.31    2.20
  -5  -5   7   30.82    2.15
  -5  -5   7   33.26    2.20
  -5  -5   7   33.20    2.17
  -5  -5   7   29.61    2.16
  -5   5   7   31.19    2.16
  -5   5   7   32.12    2.22
  -5   5   7   29.17    2.02
  -4  -5   7    7.44    0.77
  -4  -5   7    8.80    0.80
  -4  -5   7    8.01    0.75
  -4  -5   7    7.41    0.72
  -4   5   7    8.05    0.67
  -4   5   7    7.71    0.78
  -4   5   7    6.76    0.73
  -3  -5   7   -0.01    0.19
  -3  -5   7    0.11    0.24
  -3  -5   7    0.17    0.26
  -3  -5   7    0.06    0.23
  -3   5   7    0.27    0.25
  -3   5   7    0.32    0.27
  -3   5   7    0.11    0.20
   3   5  -7    0.81    0.29
  -2  -5   7   50.12    3.23
  -2  -5   7   48.34    3.28
  -2  -5   7   51.71    3.09
   2  -5  -7   48.77    3.26
  -2   5   7   54.51    3.29
  -2   5   7   54.01    3.20
  -2   5   7   50.13    3.28
   2   5  -7   47.67    3.27
   1  -5  -7  129.57    8.49
  -1  -5   7  125.00    8.43
  -1  -5   7  131.68    8.49
   1   5  -7  153.84    8.53
  -1   5   7  141.93    8.42
  -1   5   7  147.15    8.52
   0  -5   7   43.76    2.80
   0  -5  -7   45.85    2.71
   0  -5   7   44.70    2.74
   0  -5  -7   41.82    2.81
   0   5   7   37.60    2.78
  -1  -5  -7   12.03    0.95
   1  -5   7   12.71    0.97
  -1  -5  -7   13.06    1.06
  -1   5  -7   16.20    1.09
   1   5   7   12.91    1.05
   2  -5   7   49.72    3.00
  -2  -5  -7   46.40    3.10
  -2  -5  -7   51.21    3.04
  -2   5  -7   39.88    3.06
  -2   5  -7   50.49    2.99
  -3  -5  -7   31.69    2.20
  -3  -5  -7   34.09    2.27
   3  -5   7   30.94    2.11
  -3   5  -7   34.12    2.13
  -3   5  -7   35.58    2.24
   4  -5   7   38.91    2.65
  -4  -5  -7   40.74    2.63
  -4  -5  -7   39.63    2.65
  -4   5  -7   38.54    2.58
  -5  -5  -7    0.71    0.32
  -5  -5  -7    1.27    0.39
  -5   5  -7    0.72    0.26
  -6  -5  -7   14.65    1.25
  -6  -5  -7   12.08    1.11
  -6   5  -7   13.67    0.95
  -7  -5  -7   13.19    1.06
  -7  -5  -7   12.80    1.27
  -8  -5  -7    8.92    1.10
  -9  -5  -7    0.44    0.60
 -10  -5  -7   -0.17    0.47
 -11  -5  -7    2.34    0.60
 -11  -6   7    1.62    0.73
 -11   6   7    0.88    0.63
 -10  -6   7    0.10    0.66
 -10   6   7    0.67    0.53
  -9  -6   7    5.95    0.65
  -9  -6   7    4.33    0.84
  -9  -6   7    4.96    0.89
  -9   6   7    3.39    0.80
  -8  -6   7   14.06    1.32
  -8  -6   7   15.00    1.20
  -8  -6   7   12.02    1.40
  -8  -6   7   14.13    1.23
  -8   6   7   13.69    1.51
  -7  -6   7   15.72    1.21
  -7  -6   7   12.88    1.21
  -7  -6   7   12.53    1.16
  -7  -6   7   12.10    1.26
  -7  -6   7   14.76    1.26
  -7   6   7   14.35    1.12
  -7   6   7   10.90    1.33
  -6  -6   7    7.86    0.88
  -6  -6   7    7.81    0.89
  -6  -6   7    7.05    0.88
  -6  -6   7    7.17    0.87
  -6  -6   7    8.26    0.81
  -6   6   7    6.18    0.88
  -6   6   7    7.23    0.84
  -5  -6   7    2.03    0.49
  -5  -6   7    2.60    0.50
  -5  -6   7    4.03    0.62
  -5  -6   7    3.22    0.56
  -5  -6   7    3.48    0.51
  -5   6   7    5.11    0.49
  -5   6   7    3.80    0.55
  -5   6   7    4.90    0.71
  -4  -6   7   54.21    3.55
  -4  -6   7   57.05    3.51
  -4  -6   7   51.61    3.47
  -4   6   7   59.15    3.57
  -4   6   7   50.64    3.50
  -4   6   7   53.02    3.42
  -3  -6   7   59.04    4.00
  -3  -6   7   61.74    4.01
  -3  -6   7   62.16    3.95
  -3   6   7   61.97    3.99
  -3   6   7   59.11    3.88
   3   6  -7   66.47    4.00
  -3   6   7   63.47    4.00
  -2  -6   7    7.08    0.76
  -2  -6   7    8.07    0.83
  -2  -6   7    7.37    0.83
   2  -6  -7    7.91    0.79
  -2   6   7   10.68    0.75
   2   6  -7   11.48    0.87
  -2   6   7    9.12    0.87
  -1  -6   7   13.46    1.13
  -1  -6   7   13.64    1.14
  -1  -6   7   14.04    0.95
  -1  -6   7   13.15    1.05
   1  -6  -7   13.74    1.05
   1  -6  -7   15.28    1.14
   1   6  -7   11.51    1.10
  -1   6   7   17.03    1.17
  -1   6   7   14.53    1.05
   0  -6   7   62.58    4.01
   0  -6  -7   63.41    3.96
   0  -6   7   65.46    3.97
   0  -6   7   61.91    4.09
   0  -6  -7   61.27    4.10
   0  -6   7   60.39    4.09
   0   6  -7   68.67    4.12
   0   6   7   58.21    4.08
   0   6   7   73.59    4.03
   1  -6   7  118.14    7.12
  -1  -6  -7  118.57    7.10
   1  -6   7  119.94    7.13
  -1  -6  -7  115.60    7.23
   1   6   7  116.91    7.22
  -1   6  -7  106.16    7.19
  -2  -6  -7   62.73    3.99
   2  -6   7   66.32    4.03
   2  -6   7   65.23    3.96
  -2  -6  -7   61.24    4.09
  -2   6  -7   61.81    4.06
  -3  -6  -7    0.55    0.26
   3  -6   7   -0.33    0.23
   3  -6   7    0.13    0.16
  -3  -6  -7    0.28    0.31
  -3   6  -7    0.01    0.28
  -4  -6  -7   22.34    1.61
   4  -6   7   21.72    1.63
  -4  -6  -7   22.76    1.67
  -4   6  -7   21.50    1.59
  -5  -6  -7   20.95    1.66
  -5  -6  -7   23.57    1.68
  -5   6  -7   21.95    1.56
  -6  -6  -7   12.57    1.10
  -6  -6  -7   12.54    1.17
  -6   6  -7   11.13    0.90
  -7  -6  -7    0.34    0.32
  -7  -6  -7    0.06    0.39
  -8  -6  -7    3.62    0.48
  -8  -6  -7    4.47    0.84
  -9  -6  -7    3.85    0.80
 -10  -6  -7    3.86    0.81
 -11   7   7    1.73    0.62
 -10   7   7    2.94    0.83
  -9  -7   7    7.31    1.06
  -9  -7   7    6.44    0.75
  -9  -7   7    6.08    0.94
  -9   7   7    4.16    0.94
  -8  -7   7    0.10    0.56
  -8  -7   7    0.66    0.37
  -8  -7   7    0.19    0.49
  -8   7   7    0.76    0.34
  -8   7   7    0.86    0.65
  -7  -7   7    7.23    0.89
  -7  -7   7    8.27    0.95
  -7  -7   7    7.07    1.00
  -7  -7   7    8.34    0.96
  -7   7   7    6.77    0.99
  -7   7   7    7.72    0.82
  -6  -7   7   27.89    2.05
  -6  -7   7   28.60    2.02
  -6  -7   7   27.51    2.06
  -6  -7   7   28.44    2.05
  -6  -7   7   25.40    1.98
  -6   7   7   30.37    1.74
  -6   7   7   26.30    2.10
  -6   7   7   25.30    1.97
  -5  -7   7   30.46    2.32
  -5  -7   7   33.96    2.30
  -5  -7   7   29.70    2.26
  -5  -7   7   36.84    2.34
  -5   7   7   30.54    2.26
  -5   7   7   35.60    2.39
  -5   7   7   32.67    2.14
  -4  -7   7    7.16    0.77
  -4  -7   7    6.62    0.81
  -4   7   7    5.93    0.65
  -4   7   7    5.96    0.82
  -4   7   7    5.33    0.71
  -3  -7   7    2.29    0.43
  -3  -7   7    2.78    0.57
  -3   7   7    2.46    0.42
   3   7  -7    2.21    0.48
  -3   7   7    3.05    0.58
  -3   7   7    3.21    0.57
  -2  -7   7   45.62    3.10
  -2  -7   7   42.19    3.15
  -2   7   7   46.37    3.06
  -2   7   7   52.42    3.21
   2   7  -7   52.49    3.19
   1  -7  -7  107.28    7.11
  -1  -7   7  116.81    7.04
  -1  -7   7  117.59    7.13
  -1   7   7  121.52    7.14
   1   7  -7  104.20    7.10
  -1   7   7  114.86    7.01
   0  -7   7   21.67    1.42
   0  -7   7   22.67    1.49
   0  -7  -7   23.79    1.61
   0  -7   7   20.72    1.56
   0   7  -7   17.31    1.54
   0   7   7   19.28    1.56
  -1  -7  -7    9.26    0.71
   1  -7   7    9.18    0.75
   1  -7   7    8.86    0.74
   1   7   7    9.44    0.89
  -1   7  -7    6.39    0.84
   2  -7   7   29.29    1.95
   2  -7   7   28.45    1.88
  -2  -7  -7   29.97    2.07
  -2  -7  -7   29.16    1.92
  -2   7  -7   25.89    2.00
  -3  -7  -7   47.33    3.15
  -3  -7  -7   48.24    3.27
   3  -7   7   50.34    3.20
  -3   7  -7   49.17    3.23
  -4  -7  -7   21.96    1.62
  -4  -7  -7   21.05    1.69
  -4   7  -7   23.24    1.65
  -5  -7  -7    2.47    0.57
  -5  -7  -7    2.08    0.47
  -5   7  -7    1.77    0.40
  -6  -7  -7   13.37    1.15
  -6  -7  -7   11.82    1.12
  -6   7  -7   10.51    0.91
  -7  -7  -7   18.22    1.53
  -7  -7  -7   16.40    1.39
  -8  -7  -7    3.45    0.52
  -8  -7  -7    4.16    0.79
  -9  -7  -7    0.35    0.56
 -10  -7  -7    1.16    0.49
 -11   8   7    1.18    0.52
 -10   8   7   -0.31    0.40
  -9  -8   7    3.54    0.61
  -9   8   7    2.86    0.86
  -8  -8   7    7.31    0.90
  -8   8   7    6.26    0.71
  -8   8   7    5.17    1.00
  -7  -8   7    7.61    0.95
  -7  -8   7    6.70    1.18
  -7   8   7    7.32    0.87
  -7   8   7    4.95    0.90
  -6  -8   7    0.95    0.48
  -6  -8   7    1.30    0.44
  -6  -8   7    1.32    0.41
  -6   8   7    2.57    0.61
  -6   8   7    1.44    0.25
  -6   8   7    1.92    0.50
  -5  -8   7    3.12    0.59
  -5  -8   7    4.11    0.64
  -5  -8   7    3.75    0.67
  -5   8   7    3.70    0.51
  -5   8   7    4.22    0.79
  -5   8   7    4.66    0.70
  -4  -8   7   55.53    3.60
  -4  -8   7   53.72    3.52
  -4   8   7   57.73    3.59
  -4   8   7   51.86    3.58
  -4   8   7   48.31    3.40
  -3  -8   7   68.73    4.43
  -3  -8   7   73.43    4.53
   3   8  -7   64.42    4.47
  -3   8   7   67.43    4.50
  -3   8   7   70.23    4.35
  -3   8   7   69.78    4.50
  -2  -8   7    7.89    0.94
  -2  -8   7    6.21    0.76
  -2   8   7    7.84    0.75
   2   8  -7    8.80    0.90
  -2   8   7    9.68    0.93
   1  -8  -7    1.55    0.43
  -1  -8   7    1.74    0.36
  -1  -8   7    1.75    0.46
   1   8  -7    1.48    0.45
  -1   8   7    2.20    0.54
  -1   8   7    1.21    0.37
   0  -8   7   25.26    1.85
   0  -8   7   24.36    1.72
   0  -8  -7   23.77    1.85
   0   8  -7   27.80    1.89
   0   8   7   23.10    1.84
  -1  -8  -7   45.60    3.17
   1  -8   7   49.90    3.02
   1  -8   7   51.19    3.02
  -1   8  -7   39.02    3.11
   1   8   7   47.09    3.16
  -2  -8  -7   26.59    1.77
   2  -8   7   27.67    1.83
   2  -8   7   28.25    1.90
  -2  -8  -7   23.72    1.94
  -2   8  -7   23.68    1.90
  -3  -8  -7    0.82    0.34
  -3  -8  -7    0.99    0.48
  -3   8  -7    0.76    0.37
  -4  -8  -7   26.86    1.90
  -4  -8  -7   22.87    1.74
  -4   8  -7   22.78    1.79
  -5  -8  -7   25.08    2.00
  -5  -8  -7   25.21    1.93
  -5   8  -7   28.40    1.92
  -6  -8  -7   13.01    1.28
  -6  -8  -7   12.88    1.25
  -6   8  -7   14.25    1.09
  -7  -8  -7    0.83    0.46
  -7  -8  -7    1.08    0.45
  -8  -8  -7    1.40    0.42
  -8  -8  -7    1.87    0.63
  -9  -8  -7    3.74    0.79
 -10  -8  -7    0.96    0.55
 -10   9   7    3.15    0.79
  -9  -9   7    4.27    0.68
  -9   9   7    3.71    0.77
  -8  -9   7    0.48    0.42
  -8   9   7    0.81    0.55
  -8   9   7    0.53    0.34
  -7  -9   7    2.64    0.70
  -7   9   7    3.57    0.67
  -7   9   7    2.95    0.74
  -6  -9   7   20.32    1.54
  -6  -9   7   19.39    1.58
  -6   9   7   14.61    1.13
  -6   9   7   16.84    1.59
  -6   9   7   18.76    1.47
  -5  -9   7   16.44    1.35
  -5  -9   7   14.41    1.38
  -5  -9   7   14.07    1.33
  -5   9   7   14.03    1.31
  -5   9   7   16.31    1.18
  -5   9   7   15.23    1.44
  -4  -9   7    3.58    0.62
  -4  -9   7    2.86    0.66
  -4   9   7    4.48    0.58
  -4   9   7    4.94    0.75
  -4   9   7    4.88    0.78
  -3  -9   7    1.03    0.42
  -3  -9   7    2.80    0.59
  -3   9   7    3.07    0.67
  -3   9   7    2.89    0.64
  -3   9   7    1.30    0.36
  -2  -9   7   34.23    2.48
  -2  -9   7   34.37    2.38
   2   9  -7   33.27    2.48
  -2   9   7   32.69    2.33
  -2   9   7   38.11    2.53
   1  -9  -7   67.71    4.02
  -1  -9   7   54.60    3.92
  -1  -9   7   60.94    3.84
   1   9  -7   57.58    3.95
  -1   9   7   62.90    3.83
  -1   9   7   52.88    3.93
   0  -9   7   13.53    1.26
   0  -9   7   14.95    1.14
   0  -9  -7   12.57    1.28
   0   9   7   13.13    1.27
   0   9  -7   17.91    1.36
  -1  -9  -7    2.14    0.55
   1  -9   7    2.48    0.41
  -1   9  -7    2.32    0.57
   1   9   7    2.63    0.60
  -2  -9  -7   19.52    1.69
  -2   9  -7   21.76    1.68
  -3  -9  -7   26.65    1.95
  -3  -9  -7   24.88    1.73
  -3   9  -7   21.48    1.84
  -4  -9  -7   18.56    1.43
  -4  -9  -7   19.27    1.61
  -4   9  -7   17.56    1.50
  -5  -9  -7    0.00    0.44
  -5  -9  -7   -0.15    0.37
  -5   9  -7    0.41    0.37
  -6  -9  -7    9.75    1.15
  -6  -9  -7    7.25    0.98
  -6   9  -7    8.17    0.84
  -7  -9  -7    8.93    1.09
  -7  -9  -7    9.42    1.12
  -8  -9  -7    4.32    0.76
  -8  -9  -7    3.48    0.58
  -9  -9  -7   -0.24    0.39
 -10  10   7    0.56    0.54
  -9 -10   7    2.26    0.53
  -9  10   7    1.94    0.71
  -8 -10   7    8.65    1.05
  -8  10   7    6.42    1.01
  -7 -10   7    7.35    0.99
  -7  10   7    6.96    0.91
  -7  10   7    3.66    0.84
  -6 -10   7    1.31    0.54
  -6  10   7    1.37    0.48
  -6  10   7    1.44    0.27
  -6  10   7    1.19    0.61
  -5 -10   7    2.58    0.67
  -5 -10   7    3.44    0.78
  -5  10   7    3.50    0.53
  -5  10   7    3.02    0.68
  -5  10   7    3.00    0.76
  -4 -10   7   27.23    2.09
  -4 -10   7   24.05    1.95
  -4  10   7   26.88    2.07
  -4  10   7   27.91    1.86
  -4  10   7   24.42    2.03
  -3 -10   7   30.80    2.11
  -3 -10   7   28.31    2.21
  -3  10   7   30.61    2.23
  -3  10   7   24.89    1.97
  -3  10   7   29.44    2.20
  -2 -10   7    9.03    1.00
  -2 -10   7    8.74    1.15
   2  10  -7   11.24    1.13
  -2  10   7   10.03    1.17
  -2  10   7   10.28    1.03
  -1 -10   7    4.42    0.61
  -1 -10   7    5.10    0.81
   1 -10  -7    4.32    0.77
  -1  10   7    4.34    0.66
  -1  10   7    3.99    0.77
   1  10  -7    3.67    0.73
   0 -10  -7   15.95    1.45
   0 -10   7   15.13    1.25
   0  10   7   15.50    1.44
   0  10  -7   17.82    1.48
  -1 -10  -7   29.02    2.28
   1  10   7   28.48    2.26
  -1  10  -7   33.08    2.32
  -2 -10  -7   18.19    1.63
  -2  10  -7   19.29    1.63
  -3 -10  -7    0.93    0.53
  -3  10  -7    0.46    0.47
  -4 -10  -7   16.25    1.50
  -4  10  -7   14.55    1.37
  -5 -10  -7   16.27    1.37
  -5 -10  -7   16.40    1.56
  -5  10  -7   17.22    1.42
  -6 -10  -7    7.87    0.95
  -6 -10  -7    5.94    0.93
  -6  10  -7    7.93    0.88
  -7 -10  -7   -0.30    0.42
  -7 -10  -7    0.59    0.43
  -8 -10  -7    1.81    0.55
  -8 -10  -7    1.41    0.46
  -9 -10  -7    4.05    0.71
  -9 -11   7    1.36    0.49
  -9  11   7    2.12    0.69
  -8 -11   7    0.88    0.53
  -8  11   7    0.40    0.62
  -7 -11   7    2.41    0.66
  -7  11   7    3.41    0.68
  -7  11   7    1.78    0.75
  -6 -11   7   11.38    1.36
  -6  11   7   11.30    1.37
  -6  11   7    9.64    1.18
  -5 -11   7    9.49    1.28
  -5  11   7   10.17    0.94
  -5  11   7   13.88    1.48
  -5  11   7    8.87    1.13
  -4 -11   7    1.61    0.60
  -4  11   7    1.24    0.41
  -4  11   7    0.89    0.56
  -4  11   7    1.11    0.55
  -3 -11   7    2.71    0.70
  -3 -11   7    1.71    0.53
  -3  11   7    2.51    0.51
  -3  11   7    4.02    0.75
  -3  11   7    2.97    0.73
  -2 -11   7   18.17    1.71
  -2 -11   7   22.55    1.60
  -2  11   7   16.11    1.67
   2  11  -7   21.71    1.74
  -2  11   7   19.87    1.74
  -2  11   7   19.33    1.53
  -1 -11   7   33.48    2.52
  -1 -11   7   33.27    2.33
   1  11  -7   31.75    2.51
  -1  11   7   34.39    2.54
   0 -11  -7   10.97    1.21
   0  11   7   12.05    1.26
   0  11   7   10.87    1.02
   0  11  -7    9.76    1.27
  -1 -11  -7    2.30    0.71
  -1  11  -7    1.85    0.61
   1  11   7    3.03    0.72
  -2 -11  -7   17.34    1.56
  -2  11  -7   13.83    1.45
  -3 -11  -7   20.98    1.89
  -3  11  -7   22.12    1.83
  -4 -11  -7   12.33    1.30
  -4  11  -7    9.69    1.18
  -5 -11  -7    0.18    0.54
  -5  11  -7   -0.20    0.34
  -6 -11  -7    2.25    0.64
  -6  11  -7    2.87    0.55
  -7 -11  -7    4.63    0.81
  -8 -11  -7    2.35    0.53
  -8 -12   7    3.83    0.71
  -8  12   7    3.28    0.83
  -7 -12   7    5.56    1.00
  -7  12   7    8.34    1.01
  -7  12   7    5.43    0.97
  -6 -12   7    1.06    0.61
  -6  12   7    0.33    0.43
  -6  12   7    0.76    0.63
  -5 -12   7    1.71    0.64
  -5  12   7    1.24    0.54
  -5  12   7    1.60    0.44
  -5  12   7    1.24    0.65
  -4 -12   7   15.26    1.46
  -4  12   7   10.46    1.10
  -4  12   7    9.60    1.27
  -4  12   7   12.15    1.40
  -3 -12   7   14.96    1.60
  -3  12   7   16.32    1.57
  -3  12   7   17.87    1.39
  -3  12   7   17.30    1.65
  -2 -12   7    3.14    0.84
   2  12  -7    5.95    0.96
  -2  12   7    3.71    0.81
  -2  12   7    3.39    0.63
  -2  12   7    2.99    0.81
  -1 -12   7    0.77    0.74
  -1 -12   7    1.09    0.38
  -1  12   7    0.70    0.52
  -1  12   7    0.55    0.43
   1  12  -7    0.40    0.58
   0 -12  -7    9.68    1.37
   0  12  -7   15.03    1.46
   0  12   7   14.51    1.24
   0  12   7   13.67    1.41
  -1 -12  -7   21.72    1.87
   1  12   7   20.16    1.81
  -1  12  -7   18.78    1.79
  -2 -12  -7   12.07    1.44
  -2  12  -7    9.28    1.21
  -3 -12  -7    0.93    0.52
  -3  12  -7    0.31    0.48
  -4 -12  -7    8.74    1.22
  -4  12  -7    6.44    0.97
  -5 -12  -7    4.79    0.94
  -5  12  -7    8.33    1.02
  -6 -12  -7    4.08    0.78
  -6  12  -7    3.61    0.63
  -7 -12  -7    0.60    0.50
  -7 -13   7    0.88    0.47
  -7  13   7    1.45    0.56
  -7  13   7    0.32    0.58
  -6 -13   7    5.09    0.96
  -6  13   7    5.71    0.92
  -6  13   7    5.23    0.90
  -5 -13   7    6.30    1.09
  -5  13   7    6.32    1.03
  -5  13   7    9.36    0.84
  -5  13   7    7.10    0.99
  -4 -13   7    1.37    0.68
  -4  13   7    3.91    0.77
  -4  13   7    2.01    0.51
  -4  13   7    2.05    0.63
  -3 -13   7    1.72    0.70
  -3  13   7    1.34    0.58
  -3  13   7    0.37    0.56
  -3  13   7    0.94    0.48
  -2 -13   7   10.02    1.27
   2  13  -7    8.75    1.19
  -2  13   7    7.03    1.14
  -2  13   7    5.93    0.87
  -2  13   7    6.72    1.10
  -1  13   7   12.69    1.26
  -1  13   7   13.63    1.58
   1  13  -7   13.70    1.61
   0  13   7    5.98    1.04
   0  13   7    4.08    0.73
   0  13  -7    4.43    0.93
  -1 -13  -7   -0.68    0.40
  -1  13  -7    0.63    0.56
   1  13   7    0.52    0.51
  -2 -13  -7    6.58    1.12
  -2  13  -7    6.97    1.12
  -3 -13  -7    8.79    1.29
  -3  13  -7    8.79    1.18
  -4 -13  -7    3.35    0.79
  -4  13  -7    5.34    0.88
  -5 -13  -7    0.70    0.50
  -5  13  -7   -0.22    0.40
  -6 -13  -7    0.86    0.63
  -6  13  -7    1.05    0.43
  -6 -14   7    1.25    0.59
  -6  14   7    1.04    0.52
  -6  14   7    0.76    0.50
  -5 -14   7   -0.30    0.50
  -5  14   7    0.74    0.37
  -5  14   7    0.09    0.51
  -5  14   7    0.10    0.59
  -4 -14   7    6.22    1.10
  -4  14   7    5.41    0.94
  -4  14   7    5.11    0.73
  -4  14   7    5.33    0.96
  -3 -14   7    9.11    1.28
  -3  14   7    8.34    1.22
  -3  14   7    7.38    0.95
  -3  14   7    8.83    1.22
  -2 -14   7    3.34    0.79
  -2  14   7    3.13    0.87
   2  14  -7    2.81    0.75
  -2  14   7    2.92    0.86
  -2  14   7    4.08    0.68
  -1  14   7    0.26    0.51
   1  14  -7    0.58    0.49
  -1  14   7    0.89    0.51
  -1  14   7    1.15    0.57
   0  14  -7    5.09    0.91
   0  14   7    4.36    0.82
   0  14   7    5.02    0.94
  -1 -14  -7    8.78    1.30
  -1  14  -7    8.50    1.25
  -2 -14  -7    3.58    0.86
  -2  14  -7    2.73    0.79
  -3 -14  -7   -0.13    0.59
  -3  14  -7   -0.18    0.52
  -4 -14  -7    1.63    0.75
  -4  14  -7    2.82    0.70
  -5 -14  -7    4.16    0.81
  -5  14  -7    4.40    0.74
  -5 -15   7    5.56    0.91
  -5  15   7    3.75    0.84
  -5  15   7    5.47    0.91
  -4 -15   7    1.22    0.69
  -4  15   7    1.05    0.51
  -4  15   7    1.18    0.48
  -4  15   7    1.28    0.52
  -3 -15   7    0.91    0.63
  -3  15   7    0.43    0.52
  -3  15   7    0.83    0.46
  -3  15   7    0.81    0.53
  -2  15   7    6.24    1.03
  -2  15   7    5.55    0.94
  -2  15   7    5.08    0.77
  -1  15   7    4.91    0.91
  -1  15   7    6.77    0.89
  -1  15   7    5.02    0.90
   1  15  -7    7.77    1.23
   0  15  -7    3.92    0.86
   0  15   7    2.07    0.61
   0  15   7    2.66    0.82
  -1  15  -7    0.62    0.71
  -2 -15  -7    6.44    1.12
  -2  15  -7    4.86    0.93
  -3 -15  -7    4.59    0.92
  -3  15  -7    4.32    0.79
  -4 -15  -7    1.11    0.56
  -4  15  -7    0.96    0.55
  -2  16   7    0.56    0.60
  -2  16   7    1.57    0.56
  -2  16   7    0.78    0.42
  -1  16   7    0.58    0.57
  -1  16   7    1.35    0.67
   1  16  -7    0.71    0.55
  -1  16   7    0.13    0.44
   0  16   7    3.99    0.85
   0  16   7    6.63    1.11
   0  16   7    5.31    0.82
   0  16  -7    4.22    0.91
  -1  16  -7    6.90    1.09
 -12   0   8    0.95    0.58
 -11   0   8    0.75    0.55
 -10   0   8    6.41    1.08
  -9   0   8    8.40    1.12
  -8   0   8    3.05    0.67
  -8   0   8    3.78    0.42
  -8   0   8    4.04    0.65
  -8   0   8    3.58    0.55
  -7   0   8    1.15    0.43
  -7   0   8    0.93    0.28
  -7   0   8    0.82    0.29
  -7   0   8    1.00    0.32
   7   0  -8    0.98    0.44
   6   0  -8   36.09    2.69
  -6   0   8   38.64    2.53
  -6   0   8   36.10    2.60
  -6   0   8   37.91    2.48
  -6   0   8   41.97    2.54
  -6   0   8   40.70    2.58
   5   0  -8  120.52    8.01
  -5   0   8  136.21    7.91
  -5   0   8  123.00    7.91
  -5   0   8  127.05    7.83
  -5   0   8  130.87    7.85
  -5   0   8  131.44    7.88
  -4   0   8   47.01    3.29
  -4   0   8   53.94    3.30
  -4   0   8   50.09    3.28
   4   0  -8   56.50    3.45
  -4   0   8   51.12    3.26
  -4   0   8   51.39    3.25
  -3   0   8    1.64    0.36
  -3   0   8    1.75    0.30
  -3   0   8    1.65    0.28
   3   0  -8    2.28    0.46
  -3   0   8    1.80    0.27
   2   0  -8   35.68    2.79
  -2   0   8   49.05    2.85
  -2   0   8   43.18    2.67
  -2   0   8   42.13    2.83
   1   0  -8   37.65    2.77
  -1   0   8   45.50    2.73
   1   0  -8   43.28    2.72
   0   0  -8  154.82    9.46
  -1   0  -8   22.48    1.54
  -2   0  -8  155.23    8.94
  -2   0  -8  137.22    8.92
  -3   0  -8  121.84    7.39
  -3   0  -8  118.08    7.37
  -4   0  -8   34.77    2.27
  -4   0  -8   34.80    2.32
  -5   0  -8    5.77    0.58
  -5   0  -8    7.61    0.79
  -6   0  -8    0.26    0.34
  -6   0  -8   -0.07    0.17
  -7   0  -8   20.22    1.60
  -8   0  -8   26.01    2.00
  -9   0  -8    1.41    0.55
 -10   0  -8    0.55    0.51
 -11   0  -8    1.16    0.50
 -12  -1   8    2.69    0.71
 -12   1   8    2.26    0.76
 -11  -1   8    3.06    0.73
 -11   1   8    3.35    0.84
 -10  -1   8    3.35    0.76
 -10   1   8    1.77    0.76
  -9  -1   8    1.25    0.57
  -9   1   8    0.46    0.50
   8  -1  -8   16.57    1.47
  -8  -1   8   17.27    1.43
  -8  -1   8   17.62    1.21
  -8  -1   8   18.93    1.45
  -8  -1   8   17.50    1.38
  -8  -1   8   17.65    1.52
  -8   1   8   15.82    1.38
  -8   1   8   17.64    1.17
  -8   1   8   18.18    1.36
  -8   1   8   15.99    1.48
  -7  -1   8   25.56    1.80
   7  -1  -8   23.99    1.87
  -7  -1   8   25.28    1.79
  -7  -1   8   22.35    1.65
  -7  -1   8   25.40    1.84
  -7  -1   8   26.47    1.74
  -7  -1   8   23.87    1.66
  -7   1   8   21.62    1.81
  -7   1   8   26.05    1.78
  -7   1   8   23.47    1.64
  -7   1   8   25.99    1.73
  -6  -1   8   11.76    0.89
  -6  -1   8   10.13    0.95
   6  -1  -8   11.35    1.06
  -6  -1   8   10.41    0.88
  -6  -1   8   10.44    0.84
  -6  -1   8   10.37    0.92
  -6   1   8    9.31    0.88
  -6   1   8   10.38    0.86
  -6   1   8   10.23    0.86
  -6   1   8    9.25    0.95
  -6   1   8    9.91    0.79
   5  -1  -8    2.19    0.50
  -5  -1   8    1.48    0.35
  -5  -1   8    2.23    0.43
  -5  -1   8    1.98    0.35
  -5  -1   8    2.35    0.40
  -5  -1   8    2.21    0.36
  -5   1   8    1.70    0.29
   5   1  -8    1.68    0.48
  -5   1   8    2.49    0.37
  -5   1   8    1.34    0.37
  -5   1   8    1.58    0.31
  -5   1   8    1.99    0.41
  -4  -1   8   47.28    3.03
  -4  -1   8   49.33    3.08
   4  -1  -8   41.60    3.19
  -4  -1   8   47.47    3.09
  -4  -1   8   48.26    3.09
  -4  -1   8   40.80    3.10
  -4   1   8   50.00    3.03
  -4   1   8   53.23    3.12
  -4   1   8   57.47    3.16
  -4   1   8   53.93    3.07
   4   1  -8   39.10    3.19
  -4   1   8   51.51    3.07
  -4   1   8   52.67    3.06
  -3  -1   8  158.26   11.23
   3  -1  -8  155.60   11.31
  -3  -1   8  184.77   11.20
  -3  -1   8  198.22   11.17
  -3  -1   8  194.81   11.21
  -3   1   8  211.70   11.28
  -3   1   8  192.31   11.17
   3   1  -8  200.61   11.38
  -3   1   8  184.00   11.34
  -3   1   8  165.85   11.16
   2  -1  -8  142.00    8.52
  -2  -1   8  133.78    8.41
  -2   1   8  152.33    8.38
  -2   1   8  115.44    8.39
  -2   1   8  142.31    8.30
   1  -1  -8   10.89    0.94
  -1  -1   8    8.15    0.79
   1  -1  -8   10.82    0.82
   1   1  -8    9.94    0.81
  -1   1   8   10.16    0.82
   0  -1  -8   53.29    3.44
   0  -1  -8   59.70    3.39
   0   1  -8   46.58    3.35
  -1  -1  -8   84.02    6.11
  -1   1  -8  115.35    6.16
  -2  -1  -8  110.66    6.37
  -2  -1  -8  107.85    6.37
  -2   1  -8  102.11    6.35
  -2   1  -8   92.00    6.34
  -3  -1  -8   17.69    1.17
  -3  -1  -8   16.14    1.15
  -3   1  -8   12.84    1.11
  -3   1  -8   16.31    1.15
  -4  -1  -8   13.79    1.08
  -4  -1  -8   14.96    1.04
  -4   1  -8   13.70    1.05
  -4   1  -8   11.70    0.99
  -5  -1  -8   43.97    2.91
  -5  -1  -8   40.54    2.80
  -5   1  -8   48.10    2.80
  -5   1  -8   42.06    2.87
  -6  -1  -8   24.43    1.77
  -6  -1  -8   28.02    1.97
  -6   1  -8   27.13    1.93
  -6   1  -8   28.95    1.75
  -7  -1  -8    3.82    0.75
  -7   1  -8    7.17    0.84
  -8  -1  -8    0.84    0.52
  -8   1  -8    1.50    0.48
  -9  -1  -8    6.77    1.01
  -9   1  -8    6.41    0.94
 -10  -1  -8    3.53    0.73
 -10   1  -8    3.29    0.71
 -11  -1  -8    1.11    0.51
 -11   1  -8    1.06    0.66
 -12  -2   8    0.63    0.54
 -12   2   8    0.68    0.66
 -11  -2   8    0.81    0.70
 -11   2   8    1.20    0.69
 -10  -2   8    6.47    1.04
 -10   2   8    7.65    1.13
  -9  -2   8    8.84    1.17
   9  -2  -8   11.62    1.12
  -9   2   8    8.38    1.13
   8  -2  -8    4.29    0.74
  -8  -2   8    4.08    0.65
  -8  -2   8    3.88    0.47
  -8  -2   8    3.14    0.70
  -8  -2   8    3.91    0.68
  -8   2   8    3.40    0.37
  -8   2   8    3.54    0.52
  -8   2   8    3.01    0.68
  -8   2   8    3.03    0.58
  -7  -2   8    0.64    0.31
   7  -2  -8    0.21    0.39
  -7  -2   8   -0.16    0.36
  -7  -2   8    0.38    0.23
  -7  -2   8    0.60    0.26
  -7  -2   8    0.35    0.30
  -7  -2   8   -0.11    0.21
  -7  -2   8    0.03    0.36
  -7   2   8    0.35    0.23
  -7   2   8    0.15    0.35
  -7   2   8   -0.38    0.22
  -7   2   8    0.56    0.31
  -6  -2   8   27.24    1.93
  -6  -2   8   28.74    1.98
  -6  -2   8   28.02    1.91
  -6  -2   8   28.20    1.92
  -6  -2   8   26.96    2.00
   6  -2  -8   31.76    2.09
  -6  -2   8   29.05    1.98
  -6   2   8   26.54    1.92
  -6   2   8   25.94    1.99
  -6   2   8   29.24    1.93
  -6   2   8   27.87    1.90
   5  -2  -8  106.37    6.33
  -5  -2   8   92.88    6.19
  -5  -2   8  100.33    6.17
  -5  -2   8  102.33    6.21
  -5  -2   8   99.20    6.21
  -5   2   8   91.16    6.19
  -5   2   8  102.15    6.24
  -5   2   8  101.79    6.11
  -5   2   8  101.97    6.14
  -5   2   8  100.05    6.16
  -4  -2   8   41.02    2.65
  -4  -2   8   41.50    2.55
  -4  -2   8   41.43    2.64
  -4  -2   8   35.91    2.65
   4  -2  -8   41.69    2.78
  -4  -2   8   42.44    2.64
  -4   2   8   42.38    2.58
  -4   2   8   36.33    2.57
  -4   2   8   44.53    2.69
  -4   2   8   41.56    2.60
  -4   2   8   40.74    2.66
   3  -2  -8    4.08    0.65
  -3  -2   8    6.21    0.60
  -3  -2   8    5.27    0.44
  -3  -2   8    4.86    0.53
  -3   2   8    5.15    0.52
  -3   2   8    5.83    0.60
  -3   2   8    5.12    0.45
  -3   2   8    5.10    0.52
  -3   2   8    5.30    0.46
  -2  -2   8   23.77    1.58
   2  -2  -8   21.94    1.70
  -2  -2   8   27.65    1.66
  -2   2   8   22.31    1.54
  -2   2   8   21.85    1.62
   2   2  -8   23.18    1.61
  -2   2   8   23.11    1.47
  -1  -2   8  103.11    6.17
   1  -2  -8  105.46    6.17
   1   2  -8  100.06    6.16
  -1   2   8   89.40    6.15
   0  -2  -8  144.73    9.70
   0   2   8  178.98    9.67
   0   2  -8  149.94    9.63
  -1  -2  -8   11.82    0.95
  -1  -2  -8    9.25    0.86
   1   2   8   11.47    0.71
   1   2   8   11.39    0.71
  -1   2  -8    9.41    0.86
  -2  -2  -8   57.62    3.49
  -2  -2  -8   54.50    3.46
  -2   2  -8   54.28    3.45
  -2   2  -8   52.10    3.46
  -3  -2  -8  104.19    6.05
  -3  -2  -8  101.19    6.05
  -3   2  -8  104.66    6.04
  -3   2  -8   80.95    5.99
  -4  -2  -8   28.69    1.87
  -4  -2  -8   29.93    1.93
  -4   2  -8   25.28    1.82
  -4   2  -8   25.99    1.85
  -5  -2  -8   12.22    0.99
  -5  -2  -8   13.51    1.09
  -5   2  -8   13.99    0.97
  -5   2  -8   11.66    1.02
  -6  -2  -8    1.11    0.44
  -6  -2  -8    0.80    0.27
  -6   2  -8    1.41    0.33
  -6   2  -8    1.37    0.37
  -7  -2  -8   17.87    1.60
  -7   2  -8   21.84    1.58
  -8  -2  -8   11.14    1.26
  -8   2  -8   11.23    1.09
  -9  -2  -8    0.34    0.46
  -9   2  -8    1.66    0.52
 -10  -2  -8    0.29    0.55
 -10   2  -8    0.17    0.56
 -11  -2  -8    0.33    0.52
 -12  -3   8    1.45    0.76
 -12   3   8    0.39    0.56
 -11  -3   8    3.77    0.89
 -11   3   8    3.10    0.88
 -10  -3   8   -0.40    0.51
  10  -3  -8    0.54    0.39
 -10   3   8    0.52    0.61
  -9  -3   8    2.83    0.74
  -9  -3   8    3.00    0.72
   9  -3  -8    2.08    0.58
  -9   3   8    2.52    0.65
  -8  -3   8   16.76    1.19
  -8  -3   8   14.84    1.43
   8  -3  -8   16.12    1.41
  -8  -3   8   18.20    1.39
  -8  -3   8   15.89    1.41
  -8   3   8   15.12    1.07
  -8   3   8   14.85    1.30
  -8   3   8   12.54    1.45
  -7  -3   8   35.90    2.41
  -7  -3   8   35.25    2.50
   7  -3  -8   36.55    2.53
  -7  -3   8   36.63    2.47
  -7  -3   8   35.95    2.37
  -7  -3   8   35.05    2.37
  -7  -3   8   35.75    2.47
  -7   3   8   31.08    2.48
  -7   3   8   34.53    2.33
  -7   3   8   35.03    2.40
  -7   3   8   36.47    2.37
  -6  -3   8   14.03    1.09
  -6  -3   8   12.95    1.16
  -6  -3   8   13.57    1.10
  -6  -3   8   12.71    1.12
  -6  -3   8   13.70    1.08
  -6  -3   8   14.91    1.17
  -6   3   8   13.01    1.08
  -6   3   8   14.67    1.08
  -6   3   8   13.72    1.18
  -6   3   8   14.10    1.05
  -5  -3   8    0.98    0.29
  -5  -3   8    1.05    0.32
  -5  -3   8    0.99    0.32
  -5  -3   8    1.04    0.35
  -5   3   8    1.46    0.29
  -5   3   8    1.22    0.26
  -5   3   8    1.33    0.38
  -5   3   8    1.50    0.25
  -5   3   8    1.14    0.38
  -5   3   8    0.92    0.27
  -4  -3   8   23.46    1.64
  -4  -3   8   23.37    1.65
  -4  -3   8   23.26    1.67
  -4  -3   8   22.95    1.69
  -4   3   8   25.71    1.58
  -4   3   8   24.80    1.59
  -4   3   8   23.06    1.58
  -4   3   8   26.41    1.69
  -4   3   8   23.27    1.70
  -3  -3   8  109.78    6.74
  -3  -3   8  123.10    6.81
  -3  -3   8  113.21    6.63
  -3   3   8  107.61    6.74
  -3   3   8   99.74    6.77
  -3   3   8  109.26    6.70
  -3   3   8  108.22    6.64
  -3   3   8  104.75    6.64
  -2  -3   8   76.65    4.22
  -2  -3   8   72.03    4.16
   2   3  -8   65.14    4.19
  -2   3   8   65.61    4.03
  -2   3   8   61.77    4.17
  -2   3   8   63.19    4.12
  -2   3   8   65.71    4.13
  -2   3   8   62.19    4.02
   1  -3  -8    0.29    0.26
  -1  -3   8    0.05    0.22
   1  -3  -8    0.57    0.34
  -1  -3   8    0.08    0.19
  -1   3   8    0.09    0.21
   1   3  -8    0.30    0.25
  -1   3   8    0.27    0.08
   0  -3  -8  127.83    7.23
   0  -3   8   98.24    7.08
   0  -3  -8  114.14    7.13
   0   3   8  106.57    7.11
   0   3  -8  131.31    7.15
  -1  -3  -8   87.34    5.76
  -1  -3  -8   91.58    5.81
  -1  -3  -8   82.81    5.85
   1   3   8  104.80    5.89
  -1   3  -8  101.78    5.82
  -2  -3  -8   43.26    3.10
  -2  -3  -8   47.26    3.08
  -2   3  -8   56.32    3.14
  -2   3  -8   46.14    3.06
  -3  -3  -8   30.32    2.01
  -3  -3  -8   30.36    2.04
  -3   3  -8   28.80    1.97
  -3   3  -8   29.45    2.00
  -4  -3  -8    9.00    0.83
  -4  -3  -8    8.36    0.80
  -4   3  -8    9.79    0.78
  -4   3  -8    9.07    0.77
  -5  -3  -8   51.31    3.23
  -5  -3  -8   47.60    3.14
  -5   3  -8   46.98    3.07
  -5   3  -8   48.48    3.14
  -6  -3  -8   23.92    1.75
  -6  -3  -8   25.38    1.91
  -6   3  -8   26.38    1.65
  -6   3  -8   26.54    1.83
  -7  -3  -8    1.01    0.46
  -7  -3  -8    1.07    0.27
  -7   3  -8    0.75    0.35
  -8  -3  -8    1.10    0.55
  -8   3  -8    1.46    0.46
  -9  -3  -8    3.75    0.84
 -10  -3  -8    5.54    0.92
 -11  -3  -8    1.80    0.67
 -12  -4   8    0.16    0.51
 -12   4   8    1.12    0.46
 -11  -4   8    1.53    0.75
 -11   4   8    0.44    0.60
 -10  -4   8    7.15    1.11
 -10   4   8    7.05    1.13
  -9  -4   8    4.64    0.55
   9  -4  -8    6.64    0.91
  -9  -4   8    8.12    1.03
  -9  -4   8    3.24    0.82
  -9   4   8    6.57    0.98
  -8  -4   8    2.37    0.47
  -8  -4   8    3.16    0.74
   8  -4  -8    2.69    0.61
  -8  -4   8    1.99    0.41
  -8  -4   8    1.42    0.54
  -8  -4   8    2.45    0.59
  -8   4   8    2.98    0.36
  -8   4   8    1.66    0.63
  -7  -4   8    0.10    0.34
  -7  -4   8    0.37    0.26
  -7  -4   8    0.75    0.45
  -7  -4   8    0.32    0.25
  -7  -4   8    0.19    0.47
  -7  -4   8    0.64    0.31
  -7   4   8    0.68    0.30
  -7   4   8    0.23    0.42
  -6  -4   8   27.73    1.77
  -6  -4   8   21.09    1.68
  -6  -4   8   26.47    1.76
  -6  -4   8   21.68    1.75
  -6  -4   8   24.99    1.78
  -6  -4   8   22.28    1.73
  -6   4   8   23.84    1.70
  -6   4   8   23.15    1.80
  -5  -4   8   60.19    3.83
  -5  -4   8   64.78    3.87
  -5  -4   8   62.28    3.83
  -5  -4   8   61.66    3.86
  -5   4   8   60.92    3.76
  -5   4   8   63.84    3.75
  -5   4   8   60.10    3.88
  -5   4   8   51.54    3.82
  -5   4   8   53.81    3.69
  -4  -4   8   12.88    1.01
  -4  -4   8   11.07    0.97
  -4  -4   8   13.19    1.06
  -4   4   8   13.85    0.95
  -4   4   8   12.48    1.04
  -4   4   8   11.74    1.03
  -4   4   8   12.99    0.91
  -3  -4   8    9.28    0.78
  -3  -4   8    9.26    0.84
  -3  -4   8    9.73    0.89
  -3   4   8   10.11    0.80
  -3   4   8   10.10    0.71
   3   4  -8   10.03    0.85
  -3   4   8   10.81    0.88
  -3   4   8   10.43    0.85
  -2  -4   8   57.82    3.91
  -2  -4   8   59.42    3.96
   2  -4  -8   55.82    3.94
  -2   4   8   65.69    3.93
  -2   4   8   63.74    3.89
  -2   4   8   69.45    3.99
   2   4  -8   64.19    3.97
   1  -4  -8  128.96    7.81
  -1  -4   8  125.13    7.75
  -1  -4   8  107.58    7.77
  -1   4   8  132.68    7.73
  -1   4   8  138.10    7.82
   1   4  -8  126.71    7.81
   0  -4  -8  114.62    7.78
   0  -4   8  129.45    7.72
   0  -4  -8  132.67    7.66
   0  -4  -8  108.93    7.69
   0  -4   8  135.74    7.67
   0   4  -8  142.55    7.75
   0   4   8  112.24    7.69
  -1  -4  -8    5.46    0.60
   1  -4   8    5.31    0.53
  -1  -4  -8    5.20    0.68
  -1  -4  -8    5.09    0.55
   1   4   8    4.86    0.59
  -1   4  -8    5.59    0.65
  -2  -4  -8   48.36    2.98
  -2  -4  -8   40.15    3.01
  -2   4  -8   53.33    3.05
  -2   4  -8   44.40    2.95
  -3  -4  -8   44.46    3.14
  -3  -4  -8   48.21    3.12
  -3   4  -8   47.75    3.12
  -3   4  -8   52.17    3.08
  -4  -4  -8   40.63    2.63
  -4  -4  -8   34.83    2.61
  -4   4  -8   42.86    2.56
  -4   4  -8   38.56    2.57
  -5  -4  -8    4.26    0.67
  -5  -4  -8    4.14    0.61
  -5   4  -8    4.59    0.55
  -5   4  -8    5.79    0.63
  -6  -4  -8    7.88    0.93
  -6  -4  -8    6.39    0.71
  -6   4  -8    7.63    0.80
  -6   4  -8    6.48    0.57
  -7  -4  -8   18.50    1.48
  -7  -4  -8   14.98    1.17
  -8  -4  -8   11.64    1.36
  -9  -4  -8    1.71    0.69
 -10  -4  -8    0.14    0.55
 -11  -4  -8    1.60    0.56
 -11  -5   8    2.44    0.77
 -11   5   8    2.38    0.65
 -10  -5   8    0.47    0.65
 -10   5   8    0.18    0.55
   9  -5  -8    1.84    0.53
  -9  -5   8    1.80    0.63
  -9  -5   8    1.90    0.39
  -9   5   8    1.79    0.61
  -8  -5   8   11.49    1.30
  -8  -5   8   11.92    1.17
  -8  -5   8   10.42    0.99
  -8  -5   8   12.06    1.06
  -8   5   8    9.22    1.22
  -8   5   8   11.41    0.86
  -7  -5   8   12.88    1.11
  -7  -5   8   14.11    1.18
  -7  -5   8   13.34    1.21
  -7  -5   8   12.78    1.11
  -7  -5   8   11.71    1.08
  -7  -5   8    9.22    1.17
  -7   5   8   12.75    1.05
  -7   5   8   13.90    1.27
  -6  -5   8   12.04    1.12
  -6  -5   8   11.68    1.13
  -6  -5   8   12.35    1.15
  -6  -5   8   13.52    1.11
  -6  -5   8   12.81    1.13
  -6   5   8   15.44    1.16
  -6   5   8   15.09    1.26
  -5  -5   8    5.55    0.69
  -5  -5   8    4.18    0.58
  -5  -5   8    4.10    0.59
  -5  -5   8    4.79    0.67
  -5  -5   8    3.36    0.54
  -5   5   8    3.42    0.62
  -5   5   8    3.57    0.46
  -5   5   8    3.02    0.55
  -4  -5   8   28.66    2.19
  -4  -5   8   33.69    2.26
  -4  -5   8   33.67    2.31
  -4  -5   8   33.38    2.30
  -4   5   8   32.65    2.27
  -4   5   8   36.96    2.31
  -4   5   8   35.16    2.18
  -3  -5   8   74.86    4.73
  -3  -5   8   79.69    4.85
  -3  -5   8   76.57    4.78
   3   5  -8   77.91    4.83
  -3   5   8   66.42    4.79
  -3   5   8   78.55    4.74
  -3   5   8   79.24    4.82
  -2  -5   8   72.93    4.74
   2  -5  -8   81.29    4.75
  -2  -5   8   74.92    4.69
  -2   5   8   71.18    4.64
   2   5  -8   74.94    4.74
  -2   5   8   75.47    4.71
  -2   5   8   72.19    4.73
   1  -5  -8    6.24    0.71
  -1  -5   8    4.19    0.58
  -1  -5   8    4.46    0.54
  -1   5   8    5.94    0.59
  -1   5   8    5.23    0.66
   1   5  -8    5.83    0.69
   0  -5  -8   49.28    3.14
   0  -5   8   48.07    3.23
   0  -5  -8   52.63    3.26
   0  -5   8   51.62    3.19
   0   5  -8   46.17    3.23
   0   5   8   50.36    3.25
   0   5   8   50.37    3.29
  -1  -5  -8   78.63    5.02
  -1  -5  -8   80.41    4.93
  -1  -5  -8   70.36    5.08
   1  -5   8   80.68    4.92
   1   5   8   79.63    5.01
  -1   5  -8   86.41    5.03
   2  -5   8   37.61    2.38
  -2  -5  -8   36.32    2.42
  -2  -5  -8   37.33    2.50
  -2   5  -8   35.37    2.37
  -2   5  -8   38.32    2.49
  -3  -5  -8    6.12    0.70
   3  -5   8    4.09    0.45
  -3  -5  -8    4.16    0.54
  -3   5  -8    3.95    0.55
  -3   5  -8    4.36    0.50
  -4  -5  -8    9.37    0.88
  -4  -5  -8    7.78    0.79
  -4   5  -8    7.51    0.76
  -5  -5  -8   57.70    3.74
  -5  -5  -8   56.37    3.74
  -5   5  -8   56.79    3.63
  -6  -5  -8   23.65    1.93
  -6  -5  -8   26.28    1.85
  -6   5  -8   25.97    1.70
  -7  -5  -8    1.02    0.53
  -7  -5  -8    1.98    0.41
  -8  -5  -8   -0.02    0.44
  -9  -5  -8    2.76    0.79
 -10  -5  -8    2.97    0.68
 -11  -6   8    0.64    0.59
 -11   6   8   -0.33    0.51
 -10  -6   8    2.73    0.86
 -10   6   8    2.64    0.71
  -9  -6   8    7.00    1.04
   9  -6  -8    7.36    1.01
  -9  -6   8    6.70    0.74
  -9   6   8    5.92    1.00
  -8  -6   8    2.95    0.55
  -8  -6   8    3.14    0.59
  -8  -6   8    3.05    0.73
  -8   6   8    3.85    0.84
  -7  -6   8    0.45    0.29
  -7  -6   8    0.58    0.36
  -7  -6   8    1.01    0.53
  -7  -6   8    0.38    0.35
  -7   6   8    1.28    0.38
  -7   6   8    1.21    0.54
  -6  -6   8   17.89    1.48
  -6  -6   8   18.69    1.50
  -6  -6   8   18.67    1.49
  -6  -6   8   18.85    1.45
  -6   6   8   18.25    1.56
  -6   6   8   17.72    1.20
  -6   6   8   18.99    1.46
  -5  -6   8   43.73    3.04
  -5  -6   8   39.77    3.06
  -5  -6   8   43.67    3.04
  -5  -6   8   46.37    3.09
  -5   6   8   53.19    3.10
  -5   6   8   46.10    3.12
  -5   6   8   48.43    2.93
  -4  -6   8   19.51    1.60
  -4  -6   8   22.27    1.57
  -4  -6   8   18.87    1.49
  -4  -6   8   20.24    1.61
  -4   6   8   23.23    1.60
  -4   6   8   19.58    1.46
  -4   6   8   23.21    1.61
  -3  -6   8    4.05    0.60
  -3  -6   8    3.31    0.58
  -3  -6   8    4.57    0.55
  -3   6   8    4.47    0.60
  -3   6   8    4.03    0.52
  -3   6   8    4.92    0.64
   3   6  -8    5.36    0.67
  -2  -6   8   26.28    1.90
  -2  -6   8   27.71    1.98
  -2  -6   8   29.43    1.99
   2  -6  -8   24.89    1.93
  -2   6   8   26.24    1.85
  -2   6   8   28.42    1.94
   2   6  -8   30.66    1.99
  -2   6   8   28.60    1.98
  -1  -6   8   57.80    3.99
  -1  -6   8   63.51    4.02
   1  -6  -8   58.53    4.00
  -1  -6   8   59.71    3.93
   1  -6  -8   63.28    3.86
  -1  -6   8   63.48    3.83
   1   6  -8   62.94    4.02
  -1   6   8   66.06    4.03
  -1   6   8   62.22    3.91
   0  -6   8   84.69    5.14
   0  -6   8   83.83    5.13
   0  -6   8   78.73    5.04
   0  -6  -8   85.11    5.15
   0  -6  -8   81.37    5.00
   0   6  -8   73.30    5.12
   0   6   8   82.88    5.15
   0   6   8   77.16    5.04
  -1  -6  -8    5.72    0.58
  -1  -6  -8    5.92    0.74
   1  -6   8    6.41    0.62
   1   6   8    7.58    0.82
  -1   6  -8    6.71    0.72
   2  -6   8   26.54    1.81
  -2  -6  -8   29.04    1.97
  -2  -6  -8   28.26    1.86
  -2   6  -8   25.41    1.92
  -3  -6  -8   46.04    3.16
   3  -6   8   52.88    3.13
  -3  -6  -8   45.24    3.07
   3  -6   8   48.42    3.11
  -3   6  -8   44.40    3.11
  -4  -6  -8   20.26    1.55
  -4  -6  -8   21.32    1.62
  -4   6  -8   20.58    1.53
  -5  -6  -8    2.17    0.54
  -5  -6  -8    2.05    0.52
  -5   6  -8    2.21    0.44
  -6  -6  -8    2.84    0.63
  -6  -6  -8    1.77    0.48
  -6   6  -8    2.29    0.38
  -7  -6  -8   15.51    1.38
  -7  -6  -8   12.93    1.15
  -8  -6  -8   11.20    1.30
  -8  -6  -8   10.32    0.93
  -9  -6  -8    2.41    0.70
 -10  -6  -8    0.30    0.49
 -11   7   8    3.91    0.84
 -10   7   8    0.70    0.57
  -9  -7   8    0.72    0.37
  -9  -7   8    0.99    0.68
  -9   7   8    1.02    0.61
  -8  -7   8    9.27    1.12
  -8  -7   8    9.16    0.95
  -8   7   8    8.46    1.20
  -8   7   8    6.68    0.71
  -7  -7   8   18.22    1.62
  -7  -7   8   16.94    1.54
  -7  -7   8   19.70    1.56
  -7   7   8   19.52    1.69
  -7   7   8   21.84    1.54
  -6  -7   8    6.35    0.86
  -6  -7   8    5.43    0.76
  -6  -7   8    6.34    0.82
  -6  -7   8    7.31    0.90
  -6   7   8    6.58    0.55
  -6   7   8    6.78    0.84
  -6   7   8    7.01    0.96
  -5  -7   8   -0.01    0.36
  -5  -7   8    0.26    0.40
  -5  -7   8    0.05    0.32
  -5  -7   8   -0.10    0.35
  -5   7   8   -0.72    0.31
  -5   7   8    0.08    0.32
  -5   7   8   -0.10    0.25
  -4  -7   8   19.04    1.68
  -4  -7   8   21.35    1.75
  -4   7   8   26.88    1.78
  -4   7   8   22.61    1.61
  -4   7   8   25.93    1.78
  -3  -7   8   61.27    4.24
  -3  -7   8   63.88    4.17
   3   7  -8   75.11    4.27
  -3   7   8   62.28    4.23
  -3   7   8   62.20    4.10
  -3   7   8   65.79    4.23
  -2  -7   8   34.26    2.18
  -2  -7   8   28.99    2.05
   2   7  -8   31.93    2.15
  -2   7   8   25.72    1.99
  -2   7   8   29.10    2.15
  -1  -7   8    6.82    0.81
   1  -7  -8    6.70    0.80
  -1  -7   8    5.56    0.66
  -1   7   8    5.66    0.66
  -1   7   8    4.91    0.72
   1   7  -8    6.18    0.80
   0  -7  -8   29.27    2.05
   0  -7   8   30.52    1.94
   0  -7  -8   27.90    2.08
   0  -7   8   32.51    2.06
   0  -7   8   30.94    1.88
   0   7   8   26.42    1.93
   0   7   8   27.00    2.04
   0   7  -8   21.96    1.98
   1  -7   8   49.96    3.18
   1  -7   8   48.70    3.18
  -1  -7  -8   48.62    3.31
  -1  -7  -8   47.70    3.15
  -1   7  -8   54.65    3.34
   1   7   8   48.72    3.31
  -2  -7  -8   41.03    2.68
  -2  -7  -8   41.17    2.82
   2  -7   8   43.71    2.74
   2  -7   8   41.10    2.65
  -2   7  -8   38.58    2.79
  -3  -7  -8    5.95    0.72
   3  -7   8    6.31    0.71
  -3  -7  -8    6.48    0.81
  -3   7  -8    5.35    0.75
  -4  -7  -8   11.30    1.03
  -4  -7  -8    9.36    0.91
  -4   7  -8    8.40    0.91
  -5  -7  -8   14.65    1.23
  -5  -7  -8   14.10    1.27
  -5   7  -8   12.13    1.10
  -6  -7  -8   16.63    1.38
  -6  -7  -8   14.14    1.35
  -6   7  -8   14.69    1.15
  -7  -7  -8    2.76    0.54
  -7  -7  -8    3.09    0.68
  -8  -7  -8    0.46    0.32
  -8  -7  -8    0.83    0.53
  -9  -7  -8    2.43    0.73
 -10  -7  -8    1.75    0.66
 -10   8   8    1.74    0.76
  -9  -8   8    7.46    0.86
  -9   8   8    4.07    0.98
  -8  -8   8    2.56    0.64
  -8   8   8    2.55    0.44
  -8   8   8    1.56    0.74
  -7  -8   8    0.46    0.40
  -7   8   8    0.75    0.58
  -7   8   8    1.30    0.45
  -6  -8   8   16.19    1.69
  -6  -8   8   16.97    1.31
  -6  -8   8   14.93    1.33
  -6   8   8   15.51    1.38
  -6   8   8   11.29    0.97
  -6   8   8   14.87    1.28
  -5  -8   8   32.73    2.31
  -5  -8   8   30.45    2.32
  -5  -8   8   31.68    2.28
  -5   8   8   33.63    2.38
  -5   8   8   30.55    2.11
  -5   8   8   31.40    2.29
  -4  -8   8   20.23    1.61
  -4  -8   8   20.35    1.69
  -4   8   8   21.07    1.67
  -4   8   8   21.29    1.52
  -4   8   8   21.93    1.69
  -3  -8   8    0.14    0.36
  -3  -8   8    0.38    0.32
  -3   8   8    0.10    0.30
  -3   8   8    0.03    0.38
  -3   8   8   -0.01    0.41
   3   8  -8    0.42    0.36
  -2  -8   8   19.02    1.58
  -2  -8   8   19.32    1.47
   2   8  -8   20.61    1.57
  -2   8   8   18.37    1.43
  -2   8   8   19.58    1.59
   1  -8  -8   36.61    2.62
  -1  -8   8   38.53    2.53
  -1  -8   8   39.75    2.64
  -1   8   8   34.98    2.50
   1   8  -8   37.57    2.63
  -1   8   8   37.13    2.63
   0  -8   8   37.02    2.47
   0  -8   8   34.15    2.33
   0  -8  -8   34.75    2.47
   0   8   8   38.48    2.50
   0   8   8   33.66    2.34
   0   8  -8   30.54    2.42
  -1  -8  -8    5.40    0.73
   1  -8   8    5.49    0.62
   1  -8   8    5.85    0.77
  -1   8  -8    4.94    0.75
   1   8   8    5.70    0.78
  -2  -8  -8   21.71    1.56
  -2  -8  -8   22.65    1.75
   2  -8   8   21.54    1.60
  -2   8  -8   22.84    1.73
  -3  -8  -8   43.21    3.33
  -3  -8  -8   51.75    3.24
  -3   8  -8   53.02    3.35
  -4  -8  -8   15.04    1.22
  -4  -8  -8   12.96    1.31
  -4   8  -8   14.79    1.26
  -5  -8  -8    4.95    0.78
  -5  -8  -8    4.84    0.71
  -5   8  -8    4.17    0.65
  -6  -8  -8    0.23    0.41
  -6  -8  -8    0.83    0.44
  -6   8  -8    0.20    0.28
  -7  -8  -8    5.81    0.89
  -7  -8  -8    5.41    0.80
  -8  -8  -8    6.74    0.76
  -8  -8  -8    5.91    0.98
  -9  -8  -8    0.59    0.59
 -10   9   8    0.43    0.49
  -9  -9   8    0.82    0.44
  -9   9   8    1.03    0.67
  -8  -9   8    6.43    0.91
  -8   9   8    6.50    0.73
  -8   9   8    5.72    1.07
  -7  -9   8   10.73    1.19
  -7   9   8   11.57    1.16
  -7   9   8   10.30    1.32
  -6  -9   8    6.93    0.99
  -6   9   8    9.79    0.96
  -6   9   8    5.79    0.92
  -6   9   8    5.62    0.58
  -5  -9   8    0.65    0.40
  -5  -9   8    0.32    0.46
  -5  -9   8    0.53    0.43
  -5   9   8    0.28    0.53
  -5   9   8    0.90    0.33
  -5   9   8    0.14    0.36
  -4  -9   8   13.21    1.27
  -4  -9   8   13.04    1.35
  -4   9   8   15.17    1.18
  -4   9   8   16.24    1.36
  -4   9   8   14.89    1.35
  -3  -9   8   36.31    2.43
  -3  -9   8   32.23    2.27
   3   9  -8   31.95    2.62
  -3   9   8   33.24    2.37
  -3   9   8   29.20    2.17
  -3   9   8   29.82    2.36
  -2  -9   8   25.68    2.00
  -2  -9   8   26.48    1.88
  -2   9   8   27.30    1.84
   2   9  -8   23.60    1.95
  -2   9   8   25.14    2.00
  -1  -9   8    1.22    0.46
  -1  -9   8    0.45    0.31
   1  -9  -8    0.39    0.38
  -1   9   8    0.51    0.34
   1   9  -8    0.84    0.45
  -1   9   8    0.33    0.41
   0  -9   8   16.49    1.26
   0  -9  -8   17.57    1.45
   0   9  -8   13.98    1.37
   0   9   8   16.73    1.44
   0   9   8   16.12    1.29
  -1  -9  -8   39.83    3.09
   1  -9   8   41.94    2.91
  -1   9  -8   45.67    3.12
   1   9   8   52.89    3.17
  -2  -9  -8   32.27    2.35
  -2   9  -8   30.32    2.31
  -3  -9  -8    3.04    0.65
  -3  -9  -8    2.90    0.50
  -3   9  -8    2.53    0.57
  -4  -9  -8    2.69    0.52
  -4  -9  -8    1.72    0.59
  -4   9  -8    2.08    0.53
  -5  -9  -8   14.15    1.48
  -5  -9  -8   18.76    1.44
  -5   9  -8   17.16    1.40
  -6  -9  -8    9.95    1.19
  -6  -9  -8   11.46    1.11
  -6   9  -8    9.25    0.93
  -7  -9  -8    3.00    0.71
  -7  -9  -8    2.70    0.63
  -8  -9  -8    0.17    0.34
  -8  -9  -8   -0.26    0.43
  -9  -9  -8    1.67    0.59
  -9 -10   8    3.30    0.61
  -9  10   8    3.39    0.78
  -8 -10   8    2.03    0.63
  -8  10   8    1.44    0.62
  -8  10   8    1.81    0.41
  -7 -10   8   -0.06    0.48
  -7  10   8    0.50    0.46
  -7  10   8    0.01    0.46
  -6 -10   8    7.26    1.05
  -6  10   8    6.64    0.63
  -6  10   8    7.98    0.99
  -6  10   8    8.27    1.10
  -5 -10   8   16.31    1.57
  -5  10   8   16.93    1.33
  -5  10   8   18.07    1.56
  -5  10   8   18.65    1.67
  -4 -10   8   11.62    1.13
  -4 -10   8   10.17    1.24
  -4  10   8    9.85    1.21
  -4  10   8   11.92    1.02
  -4  10   8   12.53    1.32
  -3 -10   8    0.40    0.38
  -3 -10   8    0.06    0.42
  -3  10   8    0.05    0.38
  -3  10   8   -0.17    0.46
  -3  10   8    0.18    0.31
  -2 -10   8   14.38    1.20
  -2 -10   8   11.56    1.28
   2  10  -8   13.74    1.31
  -2  10   8   13.82    1.35
  -2  10   8   11.65    1.11
  -2  10   8   14.03    1.30
   1 -10  -8   28.06    2.21
  -1 -10   8   27.49    2.03
  -1 -10   8   27.62    2.18
  -1  10   8   29.90    2.22
  -1  10   8   28.36    2.04
   1  10  -8   29.33    2.23
   0 -10   8   25.06    1.85
   0 -10  -8   29.37    2.09
   0  10   8   25.01    1.95
   0  10  -8   25.00    2.06
   0  10   8   25.46    2.05
  -1 -10  -8    2.46    0.67
   1  10   8    1.30    0.55
  -1  10  -8    0.97    0.49
  -2 -10  -8   10.96    1.29
  -2  10  -8    9.81    1.23
  -3 -10  -8   18.10    1.68
  -3  10  -8   19.67    1.67
  -4 -10  -8   19.24    1.73
  -4  10  -8   19.47    1.63
  -5 -10  -8    1.26    0.58
  -5 -10  -8    2.30    0.54
  -5  10  -8    1.60    0.52
  -6 -10  -8   -0.22    0.49
  -6 -10  -8    0.91    0.44
  -6  10  -8   -0.01    0.32
  -7 -10  -8    4.34    0.76
  -7 -10  -8    5.32    0.83
  -8 -10  -8    3.41    0.60
  -8 -10  -8    2.86    0.63
  -9 -11   8   -0.10    0.38
  -9  11   8   -0.17    0.43
  -8 -11   8    3.42    0.71
  -8  11   8    3.11    0.82
  -7 -11   8    5.66    1.00
  -7  11   8    6.63    0.96
  -7  11   8    7.76    1.10
  -6 -11   8    3.70    0.78
  -6  11   8    2.65    0.76
  -6  11   8    2.45    0.34
  -6  11   8    2.77    0.64
  -5 -11   8    0.04    0.46
  -5  11   8    0.49    0.37
  -5  11   8    0.66    0.46
  -5  11   8    0.86    0.66
  -4 -11   8    8.72    1.21
  -4  11   8   11.31    1.27
  -4  11   8    8.29    0.93
  -4  11   8    7.87    1.11
  -3 -11   8   24.39    1.76
  -3 -11   8   21.77    1.88
  -3  11   8   19.43    1.84
  -3  11   8   23.05    1.67
  -3  11   8   19.30    1.83
  -2 -11   8   21.69    1.89
  -2 -11   8   22.76    1.72
   2  11  -8   22.07    1.87
  -2  11   8   21.99    1.68
  -2  11   8   20.69    1.87
  -2  11   8   22.82    1.86
  -1 -11   8    1.24    0.40
  -1 -11   8    0.96    0.53
  -1  11   8    1.78    0.59
   1  11  -8    1.37    0.61
   0 -11  -8   11.11    1.29
   0  11   8   13.41    1.41
   0  11   8    9.80    1.25
   0  11  -8   10.08    1.27
  -1 -11  -8   15.07    1.49
   1  11   8   15.20    1.48
  -1  11  -8   15.40    1.49
  -2 -11  -8    9.30    1.23
  -2  11  -8   11.85    1.34
  -3 -11  -8    4.76    0.90
  -3  11  -8    3.63    0.79
  -4 -11  -8    2.10    0.65
  -4  11  -8    2.59    0.62
  -5 -11  -8   10.74    1.36
  -5  11  -8   12.81    1.22
  -6 -11  -8    5.69    0.98
  -6  11  -8    7.11    0.84
  -7 -11  -8    0.74    0.54
  -8 -11  -8    0.14    0.36
  -8 -12   8    1.04    0.54
  -8  12   8    0.38    0.47
  -7 -12   8    0.89    0.47
  -7  12   8    1.03    0.68
  -7  12   8    0.52    0.52
  -6 -12   8    3.62    0.84
  -6  12   8    4.83    0.99
  -6  12   8    5.40    0.88
  -5  12   8   11.87    1.43
  -5  12   8   11.00    1.32
  -5  12   8   12.37    1.05
  -4 -12   8    4.37    0.96
  -4  12   8    4.64    0.88
  -4  12   8    4.81    0.71
  -4  12   8    5.89    0.96
  -3 -12   8   -0.86    0.38
  -3  12   8    0.01    0.38
  -3  12   8    0.42    0.50
  -3  12   8    0.75    0.49
  -2 -12   8    7.33    1.15
  -2  12   8    6.75    1.06
  -2  12   8    8.34    1.12
   2  12  -8    7.52    1.10
  -2  12   8    6.08    0.86
   1  12  -8   16.99    1.65
  -1  12   8   17.45    1.67
  -1  12   8   17.85    1.47
   0 -12  -8    9.34    1.28
   0  12   8    8.96    1.28
   0  12   8   12.41    1.80
   0  12  -8   10.22    1.30
  -1 -12  -8    0.10    0.53
  -1  12  -8    0.17    0.55
   1  12   8    0.88    0.50
  -2 -12  -8    3.44    0.83
  -2  12  -8    3.18    0.80
  -3 -12  -8   13.91    1.50
  -3  12  -8    7.94    1.13
  -4 -12  -8    5.95    1.04
  -4  12  -8    6.27    0.92
  -5 -12  -8    1.40    0.67
  -5  12  -8    1.32    0.51
  -6 -12  -8    3.57    0.81
  -6  12  -8    2.54    0.52
  -7 -12  -8    2.59    0.64
  -7 -13   8    3.32    0.79
  -7  13   8    4.01    0.80
  -7  13   8    6.12    0.92
  -6 -13   8    1.43    0.65
  -6  13   8    1.49    0.58
  -6  13   8    1.94    0.58
  -5 -13   8    0.07    0.59
  -5  13   8   -0.08    0.43
  -5  13   8    0.41    0.38
  -5  13   8   -0.68    0.41
  -4 -13   8    3.01    0.79
  -4  13   8    3.96    0.83
  -4  13   8    3.50    0.60
  -4  13   8    3.01    0.70
  -3 -13   8   11.73    1.50
  -3  13   8   10.44    1.36
  -3  13   8   10.85    1.15
  -3  13   8   10.61    1.34
  -2 -13   8    4.69    0.92
   2  13  -8    7.63    1.09
  -2  13   8    5.14    0.99
  -2  13   8    7.28    1.15
  -2  13   8    6.73    0.85
  -1  13   8   -0.03    0.46
   1  13  -8    0.05    0.59
  -1  13   8    0.47    0.49
   0  13   8    9.07    1.32
   0  13  -8   12.47    1.47
  -1 -13  -8   14.23    1.48
  -1  13  -8   10.42    1.42
  -2 -13  -8    9.26    1.31
  -2  13  -8    6.06    1.01
  -3 -13  -8    1.74    0.76
  -3  13  -8    0.98    0.53
  -4 -13  -8    3.07    0.81
  -4  13  -8    1.73    0.68
  -5 -13  -8    7.11    1.13
  -5  13  -8    6.07    0.87
  -6 -13  -8    3.24    0.76
  -6  13  -8    3.62    0.60
  -6 -14   8    2.34    0.79
  -6  14   8    3.52    0.81
  -6  14   8    2.85    0.79
  -5 -14   8    5.81    0.99
  -5  14   8    5.48    0.63
  -5  14   8    4.43    0.91
  -5  14   8    4.18    0.85
  -4 -14   8    2.68    0.80
  -4  14   8    3.34    0.61
  -4  14   8    2.26    0.69
  -4  14   8    3.01    0.71
  -3 -14   8    0.14    0.62
  -3  14   8    0.33    0.61
  -3  14   8   -0.24    0.37
  -3  14   8    0.24    0.47
   2  14  -8    5.91    1.05
  -2  14   8    4.77    0.99
  -2  14   8    4.34    0.78
  -2  14   8    4.49    0.96
  -1  14   8    8.92    1.26
  -1  14   8    9.53    1.33
   1  14  -8    8.41    1.23
  -1  14   8    8.58    1.05
   0  14   8    6.31    1.05
   0  14  -8    5.49    0.98
   0  14   8    8.58    1.20
  -1 -14  -8    0.34    0.59
  -1  14  -8    0.11    0.55
  -2 -14  -8    2.79    0.88
  -2  14  -8    4.70    0.96
  -3 -14  -8    8.97    1.30
  -3  14  -8   10.60    1.34
  -4 -14  -8    4.44    0.93
  -4  14  -8    5.46    0.89
  -5 -14  -8    0.25    0.58
  -5  14  -8    0.39    0.41
  -4 -15   8    1.28    0.73
  -4  15   8    1.91    0.67
  -4  15   8    2.43    0.54
  -4  15   8    1.92    0.73
  -3 -15   8    4.12    0.87
  -3  15   8    3.45    0.63
  -3  15   8    6.79    1.09
  -3  15   8    4.20    0.91
  -2  15   8    4.34    0.89
  -2  15   8    4.64    0.77
  -2  15   8    3.43    0.83
  -1  15   8   -0.42    0.41
  -1  15   8   -0.01    0.45
   1  15  -8   -0.25    0.51
  -1  15   8    0.48    0.48
   0  15  -8    2.61    0.75
   0  15   8    2.40    0.63
   0  15   8    1.90    0.67
   0  15   8    1.83    0.76
  -1  15  -8    5.53    0.98
  -2 -15  -8    4.42    0.99
  -2  15  -8    8.19    1.23
  -3 -15  -8    0.05    0.62
  -3  15  -8    0.47    0.61
 -12   0   9    1.43    0.62
 -11   0   9    2.70    0.83
 -10   0   9    3.41    0.76
  -9   0   9   -0.33    0.46
  -8   0   9   13.69    1.25
  -8   0   9   15.78    1.09
  -8   0   9   13.96    1.36
  -7   0   9   27.27    1.93
   7   0  -9   23.40    2.02
  -7   0   9   28.76    1.85
  -7   0   9   27.59    1.88
  -7   0   9   26.57    1.98
  -6   0   9   34.26    2.42
  -6   0   9   36.26    2.49
  -6   0   9   37.26    2.40
   6   0  -9   39.13    2.64
  -6   0   9   36.28    2.44
  -6   0   9   35.30    2.36
  -5   0   9    2.32    0.46
  -5   0   9    2.22    0.38
  -5   0   9    2.65    0.36
  -5   0   9    2.45    0.41
   5   0  -9    1.69    0.51
  -5   0   9    2.36    0.43
  -4   0   9    7.09    0.79
  -4   0   9    7.46    0.69
  -4   0   9    7.74    0.67
   4   0  -9    7.56    0.90
  -3   0   9   70.73    4.53
  -3   0   9   78.45    4.54
   3   0  -9   82.78    4.79
  -3   0   9   62.08    4.60
   2   0  -9  133.53    9.03
  -2   0   9  150.30    8.87
  -2   0   9  139.49    8.94
   2   0  -9  159.82    8.96
   1   0  -9    1.70    0.33
  -1   0   9    2.17    0.42
   1   0  -9    0.98    0.37
   0   0   9    5.30    0.60
   0   0  -9    6.75    0.63
  -1   0  -9  126.53    7.79
  -2   0  -9  113.05    7.23
  -2   0  -9  121.63    7.26
  -3   0  -9   24.04    1.67
  -3   0  -9   24.24    1.69
  -4   0  -9    0.52    0.28
  -4   0  -9   -0.07    0.24
  -5   0  -9   18.70    1.31
  -5   0  -9   17.35    1.40
  -6   0  -9   14.20    1.30
  -6   0  -9   16.59    1.14
  -7   0  -9    6.75    0.90
  -8   0  -9    0.80    0.42
  -9   0  -9    5.02    0.91
 -10   0  -9    3.63    0.70
 -11   0  -9    0.96    0.47
 -12  -1   9    0.59    0.60
 -12   1   9    1.35    0.52
 -11  -1   9   -0.01    0.60
 -11   1   9   -0.15    0.43
 -10  -1   9    3.50    0.79
 -10   1   9    4.22    0.88
  -9  -1   9    9.44    1.17
  -9   1   9    9.36    1.21
  -8  -1   9    7.48    0.89
  -8  -1   9    5.96    0.91
  -8  -1   9    7.08    0.66
  -8  -1   9    7.00    0.66
   8  -1  -9    6.02    0.92
  -8   1   9    7.43    0.63
  -8   1   9    5.58    0.91
  -8   1   9    6.84    0.94
  -8   1   9    6.83    0.80
  -7  -1   9    0.03    0.25
   7  -1  -9   -0.28    0.32
  -7  -1   9    0.13    0.29
  -7  -1   9    0.09    0.20
  -7  -1   9   -0.07    0.24
  -7  -1   9   -0.16    0.36
  -7   1   9    0.08    0.26
  -7   1   9    0.33    0.40
  -7   1   9   -0.09    0.25
  -7   1   9    0.10    0.29
  -6  -1   9    8.06    0.74
  -6  -1   9    9.32    0.84
  -6  -1   9   10.19    0.83
  -6  -1   9    9.86    0.81
   6  -1  -9    9.06    0.99
  -6  -1   9    8.22    0.91
  -6   1   9    7.79    0.89
  -6   1   9    7.75    0.79
  -6   1   9    8.00    0.70
  -6   1   9    8.00    0.79
  -6   1   9    7.65    0.75
   5  -1  -9   66.17    4.10
  -5  -1   9   61.44    3.87
  -5  -1   9   63.44    3.87
  -5  -1   9   63.84    3.92
  -5  -1   9   62.09    3.90
  -5  -1   9   59.06    3.91
  -5   1   9   51.44    3.88
  -5   1   9   63.16    3.85
  -5   1   9   58.86    3.91
  -5   1   9   62.50    3.87
  -5   1   9   62.54    3.84
  -4  -1   9  107.19    6.44
  -4  -1   9  106.43    6.51
  -4  -1   9  104.12    6.44
  -4  -1   9  105.14    6.39
  -4  -1   9  105.71    6.45
  -4   1   9  103.28    6.39
  -4   1   9   95.06    6.48
  -4   1   9  106.89    6.40
  -4   1   9  102.66    6.41
  -4   1   9  105.81    6.46
  -4   1   9  106.14    6.43
  -3  -1   9    9.77    0.92
  -3  -1   9    9.58    0.84
   3  -1  -9   11.54    1.09
  -3  -1   9   11.94    0.84
  -3  -1   9   11.24    0.88
  -3   1   9   11.56    0.82
  -3   1   9   11.29    0.84
  -3   1   9   12.71    0.86
  -3   1   9   10.18    0.91
   2  -1  -9   50.45    3.17
  -2  -1   9   42.53    3.15
  -2  -1   9   48.37    3.10
   2   1  -9   52.18    3.18
  -2   1   9   49.30    3.18
  -2   1   9   53.45    3.11
  -2   1   9   48.66    3.04
  -1  -1   9   67.44    4.02
   1  -1  -9   57.31    3.98
   1  -1  -9   71.82    4.15
   1   1  -9   64.62    4.01
  -1   1   9   55.61    3.99
   0  -1   9   50.28    3.43
   0  -1  -9   57.58    3.54
   0   1  -9   54.64    3.45
   0   1   9   52.95    3.45
  -1  -1  -9   58.39    3.47
  -1   1  -9   49.70    3.44
  -2  -1  -9    2.06    0.39
  -2   1  -9    2.11    0.39
  -2   1  -9    1.63    0.36
  -3  -1  -9   86.77    5.48
  -3  -1  -9   85.12    5.49
  -3   1  -9   91.45    5.50
  -3   1  -9   88.04    5.47
  -4  -1  -9   70.60    4.35
  -4  -1  -9   64.80    4.29
  -4   1  -9   72.53    4.34
  -4   1  -9   65.30    4.28
  -5  -1  -9    8.25    0.89
  -5  -1  -9    7.77    0.70
  -5   1  -9    6.03    0.66
  -5   1  -9    8.47    0.88
  -6  -1  -9   -0.24    0.33
  -6  -1  -9    0.29    0.23
  -6   1  -9    0.05    0.28
  -6   1  -9    0.25    0.21
  -7  -1  -9    7.45    0.95
  -7   1  -9    6.19    0.85
  -8  -1  -9   11.59    1.32
  -8   1  -9   11.48    1.25
  -9  -1  -9    4.00    0.85
  -9   1  -9    4.70    0.77
 -10  -1  -9    0.57    0.58
 -10   1  -9    0.28    0.43
 -11  -1  -9    0.95    0.53
 -12  -2   9    0.26    0.50
 -12   2   9    1.19    0.60
 -11  -2   9    3.34    0.88
 -11   2   9    3.48    0.85
 -10  -2   9    1.53    0.65
 -10   2   9    2.21    0.76
  -9  -2   9    0.43    0.51
   9  -2  -9    0.13    0.36
  -9   2   9    0.31    0.52
  -8  -2   9    6.94    0.84
  -8  -2   9    5.94    0.67
   8  -2  -9    7.10    0.94
  -8  -2   9    5.35    0.89
  -8   2   9    7.91    1.00
  -8   2   9    6.72    0.61
  -8   2   9    7.12    0.84
  -7  -2   9   27.99    2.15
  -7  -2   9   32.31    2.30
  -7  -2   9   34.26    2.22
  -7  -2   9   28.79    2.14
  -7  -2   9   32.70    2.26
   7  -2  -9   34.05    2.41
  -7   2   9   35.03    2.18
  -7   2   9   31.60    2.21
  -7   2   9   32.46    2.17
  -7   2   9   32.11    2.32
  -6  -2   9   12.89    1.13
  -6  -2   9   14.80    1.12
  -6  -2   9   14.91    1.09
   6  -2  -9   13.30    1.23
  -6  -2   9   12.33    1.03
  -6  -2   9   12.96    1.07
  -6   2   9   12.32    1.07
  -6   2   9   12.58    1.13
  -6   2   9   12.79    1.04
  -6   2   9   13.15    1.03
  -5  -2   9    1.89    0.37
   5  -2  -9    2.01    0.51
  -5  -2   9    2.48    0.43
  -5  -2   9    2.04    0.43
  -5  -2   9    1.60    0.44
  -5   2   9    2.72    0.47
  -5   2   9    2.20    0.36
  -5   2   9    1.77    0.33
  -5   2   9    1.67    0.40
  -5   2   9    2.00    0.32
  -5   2   9    2.79    0.36
  -4  -2   9   19.52    1.39
  -4  -2   9   19.53    1.46
  -4  -2   9   20.35    1.42
  -4  -2   9   18.14    1.41
   4  -2  -9   22.09    1.61
  -4   2   9   19.80    1.35
  -4   2   9   18.08    1.34
  -4   2   9   20.30    1.46
  -4   2   9   20.46    1.34
  -4   2   9   20.47    1.43
  -3  -2   9   84.55    5.10
  -3  -2   9   71.14    5.19
   3  -2  -9   82.44    5.32
  -3  -2   9   78.27    5.16
  -3   2   9   85.97    5.08
  -3   2   9   85.17    5.15
  -3   2   9   84.17    5.08
  -3   2   9   87.36    5.13
  -3   2   9   87.00    5.23
   3   2  -9   83.61    5.29
   2  -2  -9   66.34    4.26
   2  -2  -9   67.67    4.13
  -2  -2   9   58.15    4.13
  -2  -2   9   70.14    4.11
  -2   2   9   65.76    4.06
  -2   2   9   70.74    3.98
  -2   2   9   56.71    4.12
   1  -2  -9   43.75    2.72
  -1  -2   9   41.72    2.71
   1  -2  -9   39.98    2.81
  -1   2   9   40.06    2.71
   1   2  -9   40.55    2.70
   0  -2  -9   35.72    2.35
   0  -2   9   40.20    2.37
   0  -2  -9   36.43    2.47
   0   2  -9   29.93    2.32
   0   2   9   34.17    2.35
  -1  -2  -9  116.11    6.64
  -1  -2  -9  108.44    6.57
  -1  -2  -9   91.10    6.51
   1   2   9  107.46    6.67
  -2  -2  -9   59.27    3.77
  -2  -2  -9   65.50    3.76
  -2   2  -9   48.98    3.70
  -2   2  -9   61.96    3.76
  -3  -2  -9   17.75    1.41
  -3  -2  -9   18.38    1.40
  -3   2  -9   19.81    1.40
  -3   2  -9   21.60    1.41
  -4  -2  -9    4.20    0.58
  -4  -2  -9    4.31    0.64
  -4   2  -9    4.85    0.58
  -4   2  -9    4.87    0.63
  -5  -2  -9   19.03    1.51
  -5  -2  -9   20.43    1.44
  -5   2  -9   19.36    1.40
  -5   2  -9   20.07    1.48
  -6  -2  -9   32.44    2.18
  -6  -2  -9   31.38    2.37
  -6   2  -9   33.40    2.31
  -6   2  -9   33.86    2.12
  -7  -2  -9   11.78    1.14
  -7  -2  -9    9.58    0.77
  -7   2  -9   11.86    1.05
  -8  -2  -9   -0.30    0.34
  -8   2  -9    0.48    0.44
  -9  -2  -9    2.74    0.67
  -9   2  -9    3.19    0.65
 -10  -2  -9    3.64    0.81
 -11  -2  -9    1.44    0.55
 -12  -3   9    0.81    0.59
 -12   3   9    0.91    0.70
 -11  -3   9    0.41    0.63
 -11   3   9    0.29    0.61
 -10  -3   9    2.90    0.82
 -10   3   9    3.40    0.84
  -9  -3   9   11.13    0.89
   9  -3  -9   12.48    1.24
  -9  -3   9   10.65    1.31
  -9   3   9   12.28    1.42
  -8  -3   9    7.54    1.00
  -8  -3   9    7.55    0.92
  -8  -3   9    6.30    0.73
   8  -3  -9    7.39    0.98
  -8   3   9    6.01    0.94
  -8   3   9    7.17    0.85
  -8   3   9    8.28    0.66
  -7  -3   9    0.56    0.35
  -7  -3   9   -0.13    0.26
  -7  -3   9    0.23    0.28
  -7  -3   9    0.07    0.26
  -7  -3   9    0.41    0.41
   7  -3  -9   -0.21    0.34
  -7  -3   9    0.12    0.26
  -7   3   9    0.09    0.37
  -7   3   9    0.12    0.26
  -7   3   9    0.19    0.27
  -7   3   9    0.60    0.30
  -6  -3   9   12.04    1.02
  -6  -3   9   12.32    1.01
  -6  -3   9   12.99    1.08
  -6  -3   9   12.20    1.09
   6  -3  -9   14.14    1.22
  -6   3   9   11.44    0.98
  -6   3   9   11.58    1.10
  -6   3   9   12.15    1.04
  -6   3   9   12.47    0.98
  -5  -3   9   46.38    3.02
   5  -3  -9   50.19    3.21
  -5  -3   9   50.66    3.07
  -5  -3   9   47.41    3.04
  -5  -3   9   42.65    3.04
  -5   3   9   44.11    2.95
  -5   3   9   41.13    3.02
  -5   3   9   48.19    2.94
  -5   3   9   43.85    2.91
  -5   3   9   49.31    3.08
  -5   3   9   47.71    2.95
  -4  -3   9   61.97    4.03
  -4  -3   9   55.01    4.05
   4  -3  -9   58.00    4.16
  -4  -3   9   60.38    3.99
  -4  -3   9   62.90    4.02
  -4   3   9   67.26    4.08
  -4   3   9   66.37    4.04
  -4   3   9   72.93    3.98
  -4   3   9   66.42    3.93
  -3  -3   9    3.32    0.54
  -3  -3   9    3.67    0.39
   3  -3  -9    4.01    0.65
  -3  -3   9    2.43    0.44
  -3  -3   9    4.05    0.46
   3   3  -9    5.50    0.61
  -3   3   9    4.69    0.51
  -3   3   9    5.40    0.57
  -3   3   9    4.79    0.40
  -3   3   9    6.18    0.68
  -3   3   9    4.44    0.38
   2  -3  -9   34.71    2.70
  -2  -3   9   39.22    2.58
   2  -3  -9   36.78    2.60
  -2   3   9   40.61    2.55
  -2   3   9   43.36    2.56
  -2   3   9   38.68    2.42
  -2   3   9   40.39    2.44
   2   3  -9   41.87    2.64
  -2   3   9   41.36    2.65
   1  -3  -9  105.02    7.07
  -1  -3   9  115.88    7.10
  -1  -3   9  110.88    7.04
  -1   3   9  109.70    7.09
  -1   3   9  116.42    7.03
  -1   3   9  119.46    6.90
   1   3  -9  123.49    7.12
   0  -3   9  106.21    6.01
   0  -3  -9   89.07    6.07
   0   3  -9   88.78    5.99
   0   3   9  100.74    6.01
  -1  -3  -9   34.64    2.27
  -1  -3  -9   34.55    2.39
  -1  -3  -9   33.25    2.31
   1   3   9   34.93    2.32
  -1   3  -9   34.69    2.32
  -2  -3  -9    3.71    0.52
  -2  -3  -9    4.17    0.52
  -2   3  -9    3.02    0.48
  -2   3  -9    2.46    0.44
  -3  -3  -9   60.85    3.89
  -3  -3  -9   60.10    3.87
  -3   3  -9   59.38    3.87
  -3   3  -9   61.30    3.84
  -4  -3  -9   49.14    3.17
  -4  -3  -9   44.76    3.12
  -4   3  -9   46.11    3.09
  -4   3  -9   51.72    3.11
  -5  -3  -9   10.62    0.90
  -5  -3  -9    8.98    0.95
  -5   3  -9   10.02    0.89
  -5   3  -9    9.21    0.83
  -6  -3  -9    0.21    0.46
  -6  -3  -9    0.76    0.30
  -6   3  -9    0.50    0.36
  -6   3  -9    0.51    0.23
  -7  -3  -9    9.45    1.17
  -7  -3  -9   10.06    0.81
  -7   3  -9   10.13    1.06
  -8  -3  -9   14.57    1.42
  -8   3  -9   13.46    1.24
  -9  -3  -9    5.05    0.95
 -10  -3  -9    0.51    0.43
 -12  -4   9    0.55    0.65
 -12   4   9    1.69    0.64
 -11  -4   9    0.82    0.63
 -11   4   9    3.22    0.88
 -10  -4   9    3.80    0.90
 -10   4   9    3.15    0.88
  -9  -4   9   -0.17    0.45
   9  -4  -9    0.09    0.37
  -9  -4   9    0.07    0.26
  -9   4   9   -0.07    0.45
  -8  -4   9    8.78    0.83
  -8  -4   9    9.20    0.88
  -8  -4   9    8.51    1.06
   8  -4  -9    8.11    1.03
  -8   4   9    7.97    0.73
  -8   4   9    8.95    1.14
  -7  -4   9   27.64    1.95
   7  -4  -9   24.05    2.02
  -7  -4   9   27.18    1.88
  -7  -4   9   25.65    1.88
  -7  -4   9   24.89    1.95
  -7  -4   9   27.10    1.88
  -7   4   9   26.30    2.00
  -7   4   9   25.35    1.83
  -6  -4   9   31.96    2.16
  -6  -4   9   28.14    2.09
  -6  -4   9   29.63    2.16
  -6  -4   9   31.58    2.15
  -6  -4   9   27.44    2.14
  -6   4   9   30.61    2.03
  -6   4   9   31.25    2.20
  -6   4   9   32.32    2.14
  -5  -4   9    0.11    0.27
  -5  -4   9   -0.05    0.30
  -5  -4   9    0.38    0.25
  -5  -4   9    0.27    0.28
  -5   4   9   -0.10    0.32
  -5   4   9   -0.05    0.31
  -5   4   9   -0.03    0.20
  -5   4   9   -0.20    0.17
  -5   4   9   -0.05    0.21
  -4  -4   9   20.46    1.57
  -4  -4   9   23.19    1.69
  -4  -4   9   21.53    1.61
  -4   4   9   24.46    1.70
  -4   4   9   22.81    1.50
  -4   4   9   23.20    1.56
  -4   4   9   24.59    1.66
  -3  -4   9   53.51    3.39
  -3  -4   9   56.31    3.47
  -3  -4   9   50.34    3.31
  -3   4   9   55.38    3.25
   3   4  -9   49.35    3.41
  -3   4   9   51.93    3.43
  -3   4   9   55.15    3.39
  -3   4   9   49.68    3.33
  -2  -4   9  122.49    7.23
  -2  -4   9  120.15    7.29
   2  -4  -9  120.84    7.27
  -2   4   9  120.87    7.21
  -2   4   9  116.24    7.27
  -2   4   9  120.33    7.19
   2   4  -9   98.78    7.23
  -1  -4   9   42.83    2.61
   1  -4  -9   34.85    2.63
   1  -4  -9   38.55    2.75
  -1   4   9   36.87    2.64
   1   4  -9   45.13    2.69
  -1   4   9   41.38    2.58
   0  -4   9   16.61    1.18
   0  -4   9   16.87    1.24
   0  -4  -9   18.72    1.28
   0  -4  -9   15.97    1.16
   0  -4  -9   16.04    1.33
   0   4   9   14.82    1.22
   0   4  -9   13.03    1.20
  -1  -4  -9  119.54    7.27
  -1  -4  -9  112.18    7.18
  -1  -4  -9  125.41    7.35
   1  -4   9  115.20    7.17
   1   4   9  110.97    7.24
  -2  -4  -9   55.97    3.37
  -2  -4  -9   60.86    3.47
  -2   4  -9   42.46    3.30
  -2   4  -9   52.16    3.40
  -3  -4  -9   11.00    0.89
  -3  -4  -9   10.97    0.94
  -3   4  -9    8.01    0.83
  -3   4  -9    9.02    0.79
  -4  -4  -9    0.13    0.30
  -4  -4  -9    0.16    0.32
  -4   4  -9    0.08    0.22
  -4   4  -9    0.27    0.27
  -5  -4  -9   19.94    1.57
  -5  -4  -9   20.59    1.63
  -5   4  -9   21.05    1.50
  -5   4  -9   22.62    1.54
  -6  -4  -9   30.01    2.22
  -6  -4  -9   27.05    2.08
  -6   4  -9   32.32    1.99
  -6   4  -9   31.63    2.12
  -7  -4  -9   10.13    0.89
  -7  -4  -9   12.84    1.33
  -8  -4  -9    0.13    0.51
  -9  -4  -9    3.21    0.83
 -10  -4  -9    2.43    0.83
 -11  -5   9    0.07    0.59
 -11   5   9    0.35    0.59
 -10  -5   9    2.93    0.83
 -10   5   9    1.41    0.70
  -9  -5   9   10.66    1.30
  -9  -5   9   12.98    1.05
   9  -5  -9   12.19    1.30
  -9   5   9   12.39    1.38
   8  -5  -9   11.66    1.19
  -8  -5   9   10.32    0.97
  -8  -5   9    8.56    1.13
  -8  -5   9    9.46    0.97
  -8   5   9   11.26    1.33
  -8   5   9    9.36    0.84
  -7  -5   9   -0.13    0.30
  -7  -5   9    0.51    0.31
  -7  -5   9    0.72    0.46
  -7  -5   9   -0.08    0.33
  -7   5   9    0.06    0.28
  -7   5   9    0.27    0.41
  -6  -5   9    7.39    0.80
  -6  -5   9    8.16    0.91
  -6  -5   9    6.70    0.83
  -6  -5   9    7.25    0.89
  -6   5   9    7.82    0.87
  -6   5   9    6.99    0.95
  -6   5   9    7.41    0.59
  -5  -5   9   41.51    2.85
  -5  -5   9   43.18    2.93
  -5  -5   9   44.13    2.89
  -5  -5   9   46.27    2.95
  -5  -5   9   45.92    2.92
  -5   5   9   41.80    2.91
  -5   5   9   37.67    2.89
  -5   5   9   45.07    2.77
  -4  -5   9   50.60    3.36
  -4  -5   9   53.94    3.41
  -4  -5   9   50.29    3.46
  -4   5   9   55.91    3.34
  -4   5   9   49.16    3.44
  -4   5   9   55.14    3.45
  -3  -5   9    8.30    0.80
  -3  -5   9    7.92    0.85
  -3  -5   9    7.05    0.71
  -3   5   9   10.28    0.88
   3   5  -9    9.12    0.85
  -3   5   9    7.73    0.78
  -3   5   9    8.33    0.74
  -2  -5   9   28.28    1.90
   2  -5  -9   27.60    1.95
  -2  -5   9   31.07    2.00
  -2   5   9   24.04    1.93
   2   5  -9   29.79    1.97
  -2   5   9   26.56    1.89
  -2   5   9   26.73    1.86
  -1  -5   9   69.33    4.97
  -1  -5   9   77.83    4.93
   1  -5  -9   78.94    5.00
  -1   5   9   84.74    5.01
  -1   5   9   83.92    4.91
   1   5  -9   77.55    5.00
   0  -5   9   58.37    4.02
   0  -5  -9   60.92    3.95
   0  -5   9   60.50    3.96
   0  -5  -9   66.16    4.16
   0  -5  -9   61.93    4.05
   0   5   9   64.76    3.95
   0   5   9   64.54    4.04
   0   5  -9   64.03    4.05
   1  -5   9   24.89    1.69
  -1  -5  -9   23.76    1.79
  -1  -5  -9   24.59    1.70
  -1  -5  -9   25.67    1.86
  -1   5  -9   21.82    1.76
   1   5   9   27.60    1.80
   2  -5   9    2.05    0.35
  -2  -5  -9    2.18    0.38
  -2  -5  -9    1.72    0.44
  -2   5  -9    2.66    0.47
  -2   5  -9    2.20    0.38
  -3  -5  -9   49.89    3.15
   3  -5   9   49.78    3.05
  -3  -5  -9   46.00    3.19
  -3   5  -9   47.88    3.06
  -3   5  -9   45.60    3.15
  -4  -5  -9   64.45    3.87
  -4  -5  -9   55.24    3.87
  -4   5  -9   56.24    3.74
  -4   5  -9   60.76    3.81
  -5  -5  -9   13.10    1.14
  -5  -5  -9   11.54    1.10
  -5   5  -9   11.76    0.99
  -6  -5  -9    0.02    0.38
  -6  -5  -9   -0.14    0.29
  -6   5  -9   -0.03    0.21
  -7  -5  -9    4.49    0.58
  -7  -5  -9    2.57    0.69
  -8  -5  -9    9.80    1.21
  -9  -5  -9    2.15    0.73
 -10  -5  -9    1.04    0.47
 -11  -6   9    2.00    0.79
 -11   6   9    2.28    0.65
 -10  -6   9    0.97    0.67
 -10   6   9   -0.79    0.44
  -9  -6   9   -0.30    0.59
  -9  -6   9    0.09    0.33
  -9   6   9    0.78    0.53
  -8  -6   9    5.34    0.76
  -8  -6   9    8.34    1.03
  -8   6   9    6.24    1.02
  -8   6   9    4.95    0.63
  -7  -6   9   20.09    1.58
  -7  -6   9   17.00    1.58
  -7  -6   9   18.91    1.53
  -7  -6   9   21.60    2.38
  -7   6   9   19.74    1.68
  -7   6   9   19.91    1.50
  -6  -6   9   17.80    1.47
  -6  -6   9   16.63    1.39
  -6  -6   9   17.72    1.45
  -6  -6   9   17.52    1.44
  -6   6   9   19.05    1.45
  -6   6   9   18.63    1.54
  -6   6   9   15.69    1.17
  -5  -6   9    2.03    0.50
  -5  -6   9    2.33    0.51
  -5  -6   9    1.65    0.45
  -5  -6   9    2.15    0.50
  -5   6   9    3.34    0.59
  -5   6   9    2.95    0.42
  -5   6   9    1.89    0.53
  -4  -6   9   15.75    1.26
  -4  -6   9   13.69    1.30
  -4  -6   9   13.51    1.30
  -4  -6   9   16.41    1.21
  -4   6   9   15.59    1.29
  -4   6   9   16.06    1.18
  -4   6   9   16.90    1.30
  -3  -6   9   49.89    3.23
  -3  -6   9   49.68    3.15
  -3  -6   9   50.76    3.24
   3   6  -9   47.48    3.19
  -3   6   9   48.71    3.17
  -3   6   9   44.33    3.18
  -3   6   9   45.12    3.08
  -2  -6   9   66.77    4.14
  -2  -6   9   71.05    4.24
  -2  -6   9   71.07    4.24
   2  -6  -9   68.89    4.21
   2   6  -9   59.57    4.18
  -2   6   9   55.71    4.07
  -2   6   9   61.57    4.14
  -1  -6   9   21.06    1.56
   1  -6  -9   20.95    1.57
  -1  -6   9   20.39    1.49
   1  -6  -9   19.85    1.41
  -1   6   9   21.67    1.46
  -1   6   9   20.13    1.56
   1   6  -9   19.32    1.56
   0  -6   9    8.91    0.83
   0  -6   9    9.99    0.90
   0  -6  -9    9.15    0.78
   0  -6  -9   10.16    0.94
   0  -6   9    9.48    0.90
   0   6   9   10.30    0.83
   0   6   9    8.67    0.92
   0   6  -9   11.09    0.96
  -1  -6  -9   65.91    4.28
  -1  -6  -9   64.55    4.47
   1  -6   9   67.67    4.28
  -1  -6  -9   65.31    4.40
   1   6   9   76.29    4.43
  -1   6  -9   69.17    4.41
   2  -6   9   43.51    2.76
  -2  -6  -9   40.57    2.90
  -2   6  -9   43.81    2.89
  -3  -6  -9   11.97    1.01
  -3  -6  -9   12.16    1.11
  -3   6  -9   11.61    1.04
  -4  -6  -9    0.66    0.36
  -4  -6  -9    0.52    0.40
  -4   6  -9    0.36    0.34
  -5  -6  -9   16.86    1.34
  -5  -6  -9   16.45    1.32
  -5   6  -9   12.51    1.16
  -6  -6  -9   19.39    1.65
  -6  -6  -9   19.41    1.57
  -6   6  -9   20.24    1.42
  -7  -6  -9    6.60    0.79
  -7  -6  -9    6.19    0.94
  -8  -6  -9    0.48    0.54
  -9  -6  -9    1.51    0.63
 -10  -6  -9    1.99    0.61
 -11   7   9    0.66    0.65
 -10   7   9    1.51    0.63
  -9  -7   9    6.95    1.12
  -9  -7   9    8.03    0.88
  -9   7   9    5.55    0.96
  -8  -7   9    4.34    0.69
  -8  -7   9    4.01    0.83
  -8   7   9    3.95    0.57
  -8   7   9    4.19    0.89
  -7  -7   9   -0.27    0.28
  -7  -7   9    0.39    0.45
  -7  -7   9    0.13    0.47
  -7   7   9   -0.04    0.49
  -7   7   9    0.30    0.35
  -6  -7   9    5.41    0.76
  -6  -7   9    4.84    0.68
  -6  -7   9    3.82    0.71
  -6  -7   9    4.54    0.67
  -6   7   9    4.15    0.70
  -6   7   9    5.18    0.84
  -6   7   9    3.49    0.46
  -5  -7   9   19.45    1.47
  -5  -7   9   15.28    1.41
  -5  -7   9   17.25    1.49
  -5  -7   9   16.62    1.51
  -5   7   9   19.44    1.52
  -5   7   9   19.18    1.32
  -5   7   9   17.93    1.46
  -4  -7   9   35.25    2.69
  -4  -7   9   42.41    2.67
  -4   7   9   41.14    2.70
  -4   7   9   35.61    2.53
  -4   7   9   38.12    2.66
  -3  -7   9    4.57    0.66
  -3  -7   9    6.16    0.83
  -3   7   9    4.77    0.71
  -3   7   9    6.21    0.76
  -3   7   9    7.06    0.73
   3   7  -9    6.68    0.84
  -2  -7   9   28.21    2.08
  -2  -7   9   27.97    2.07
  -2  -7   9   29.12    1.99
  -2   7   9   28.76    2.03
  -2   7   9   28.65    1.93
  -2   7   9   25.10    2.03
   2   7  -9   29.08    2.07
  -1  -7   9   44.87    2.98
   1  -7  -9   41.28    2.95
  -1  -7   9   47.53    3.00
  -1  -7   9   41.52    2.86
   1   7  -9   45.82    2.98
  -1   7   9   41.81    2.95
  -1   7   9   41.76    2.84
   0  -7   9   19.66    1.53
   0  -7   9   22.50    1.73
   0  -7   9   21.02    1.64
   0  -7   9   21.19    1.65
   0  -7  -9   20.42    1.46
   0  -7  -9   21.57    1.66
   0   7   9   22.59    1.62
   0   7  -9   22.12    1.67
   0   7   9   22.30    1.66
   1  -7   9   14.58    1.10
  -1  -7  -9   11.91    1.19
   1  -7   9   14.72    1.10
  -1   7  -9   14.39    1.23
   1   7   9   14.84    1.23
   2  -7   9    0.95    0.29
   2  -7   9    1.62    0.37
  -2  -7  -9    1.14    0.35
  -2  -7  -9    2.09    0.52
  -2   7  -9    2.57    0.52
  -3  -7  -9   47.41    3.07
  -3  -7  -9   41.15    3.15
  -3   7  -9   50.52    3.16
  -4  -7  -9   35.69    2.57
  -4  -7  -9   35.13    2.65
  -4   7  -9   41.49    2.62
  -5  -7  -9    5.35    0.82
  -5  -7  -9    4.65    0.81
  -5   7  -9    5.14    0.70
  -6  -7  -9    0.52    0.46
  -6  -7  -9    0.64    0.44
  -6   7  -9    0.31    0.29
  -7  -7  -9    1.96    0.53
  -7  -7  -9    3.52    0.77
  -8  -7  -9    5.36    0.90
  -8  -7  -9    6.04    0.67
  -9  -7  -9    4.73    0.90
 -10   8   9    1.42    0.67
  -9  -8   9   -0.22    0.32
  -9   8   9   -0.78    0.46
  -8  -8   9    1.94    0.59
  -8   8   9    2.25    0.78
  -8   8   9    2.44    0.46
  -7  -8   9   11.13    1.16
  -7   8   9   10.96    1.13
  -7   8   9   11.06    1.37
  -6  -8   9    9.96    1.18
  -6  -8   9   10.29    1.08
  -6   8   9   10.97    1.24
  -6   8   9    9.44    0.79
  -6   8   9   10.48    1.10
  -5  -8   9    1.42    0.38
  -5  -8   9    0.87    0.49
  -5  -8   9    1.01    0.46
  -5   8   9    1.38    0.51
  -5   8   9    2.04    0.42
  -5   8   9    1.55    0.52
  -4  -8   9   11.73    1.08
  -4  -8   9   11.34    1.18
  -4   8   9   12.23    1.15
  -4   8   9   10.55    0.97
  -4   8   9   10.95    1.11
  -3  -8   9   32.94    2.42
  -3  -8   9   32.23    2.50
  -3   8   9   36.30    2.48
   3   8  -9   37.42    2.52
  -3   8   9   36.80    2.54
  -3   8   9   33.87    2.36
  -2  -8   9   31.13    2.31
  -2  -8   9   31.34    2.21
  -2   8   9   31.51    2.15
   2   8  -9   31.80    2.30
  -2   8   9   31.98    2.27
  -2   8   9   30.64    2.30
   1  -8  -9   15.45    1.25
  -1  -8   9   12.65    1.20
  -1  -8   9   12.72    1.10
   1   8  -9   13.63    1.25
  -1   8   9   11.63    1.21
  -1   8   9   12.92    1.10
   0  -8   9    4.37    0.93
   0  -8  -9    6.97    0.88
   0  -8   9    5.87    0.67
   0   8  -9    5.32    0.78
   0   8   9    5.65    0.84
   1  -8   9   34.77    2.25
  -1  -8  -9   33.83    2.42
   1   8   9   29.95    2.36
  -1   8  -9   34.06    2.41
  -2  -8  -9   34.53    2.30
  -2  -8  -9   30.46    2.44
   2  -8   9   32.13    2.31
  -2   8  -9   39.22    2.49
  -3  -8  -9    6.86    0.95
  -3  -8  -9    8.32    0.83
  -3   8  -9    8.58    0.99
  -4  -8  -9    1.36    0.44
  -4  -8  -9    0.68    0.49
  -4   8  -9    0.81    0.45
  -5  -8  -9    8.79    1.01
  -5  -8  -9    8.85    1.10
  -5   8  -9    9.03    0.93
  -6  -8  -9   13.53    1.31
  -6  -8  -9   13.32    1.33
  -6   8  -9   14.03    1.13
  -7  -8  -9    5.13    0.85
  -7  -8  -9    5.00    0.78
  -8  -8  -9   -0.24    0.28
  -8  -8  -9   -0.51    0.41
  -9  -8  -9    1.76    0.61
 -10   9   9    2.07    0.70
  -9  -9   9    4.57    0.72
  -9   9   9    3.73    0.94
  -8  -9   9    1.11    0.56
  -8   9   9    2.23    0.77
  -8   9   9    3.08    0.51
  -7  -9   9   -0.12    0.34
  -7   9   9    0.82    0.63
  -7   9   9    0.38    0.39
  -6  -9   9    4.01    0.75
  -6   9   9    3.84    0.48
  -6   9   9    4.29    0.76
  -6   9   9    3.93    0.75
  -5  -9   9   16.81    1.51
  -5  -9   9   17.71    1.57
  -5   9   9   17.56    1.33
  -5   9   9   16.07    1.50
  -5   9   9   17.89    1.56
  -4  -9   9   24.91    2.10
  -4  -9   9   25.76    2.00
  -4   9   9   28.50    2.09
  -4   9   9   29.94    2.11
  -4   9   9   25.73    1.89
  -3  -9   9    3.84    0.76
  -3  -9   9    4.06    0.63
  -3   9   9    4.98    0.79
  -3   9   9    3.89    0.75
  -3   9   9    4.64    0.67
   3   9  -9    4.72    0.93
  -2  -9   9   12.22    1.18
  -2  -9   9    9.64    1.00
  -2   9   9   10.85    0.99
  -2   9   9    9.86    1.15
   2   9  -9   11.19    1.12
  -2   9   9   10.66    1.15
   1  -9  -9   27.09    2.12
  -1  -9   9   26.56    1.98
  -1  -9   9   31.43    2.15
   1   9  -9   29.58    2.15
  -1   9   9   26.31    2.14
  -1   9   9   26.35    1.97
   0  -9  -9   19.45    1.74
   0  -9   9   20.72    1.59
   0   9  -9   24.40    1.80
   0   9   9   22.26    1.78
   1  -9   9   16.00    1.24
  -1  -9  -9   17.61    1.47
   1   9   9   14.27    1.42
  -1   9  -9   16.97    1.47
  -2  -9  -9    1.08    0.52
  -2   9  -9   -0.18    0.33
  -3  -9  -9   17.45    1.41
  -3  -9  -9   19.40    1.63
  -3   9  -9   18.08    1.55
  -4  -9  -9   17.74    1.44
  -4  -9  -9   18.94    1.62
  -4   9  -9   16.72    1.51
  -5  -9  -9    4.31    0.71
  -5  -9  -9    3.65    0.72
  -5   9  -9    2.91    0.59
  -6  -9  -9   -0.03    0.41
  -6  -9  -9    0.58    0.50
  -6   9  -9    0.67    0.34
  -7  -9  -9    2.14    0.57
  -7  -9  -9    1.24    0.53
  -8  -9  -9    4.77    0.87
  -8  -9  -9    5.22    0.85
  -9  -9  -9    0.93    0.43
  -9 -10   9    0.02    0.41
  -9  10   9    0.70    0.53
  -8 -10   9    1.67    0.58
  -8  10   9    2.11    0.45
  -8  10   9    1.54    0.71
  -7 -10   9    7.71    1.08
  -7  10   9    7.38    1.13
  -7  10   9    7.24    1.01
  -6 -10   9   15.37    1.43
  -6  10   9   12.85    1.41
  -6  10   9   12.81    1.31
  -6  10   9   11.43    0.95
  -5 -10   9    0.67    0.56
  -5  10   9    1.09    0.41
  -5  10   9    0.85    0.51
  -5  10   9    0.86    0.63
  -4 -10   9    3.85    0.70
  -4 -10   9    4.24    0.80
  -4  10   9    3.75    0.75
  -4  10   9    4.30    0.81
  -4  10   9    3.91    0.62
  -3 -10   9   10.88    1.35
  -3 -10   9   10.68    1.15
  -3  10   9   14.10    1.30
  -3  10   9   14.75    1.16
  -3  10   9   12.71    1.33
  -2 -10   9   13.77    1.50
  -2 -10   9   17.27    1.44
  -2  10   9   18.62    1.41
  -2  10   9   20.73    1.67
  -2  10   9   18.01    1.56
  -1 -10   9    6.73    0.92
  -1 -10   9    5.27    0.71
   1 -10  -9    6.58    0.95
  -1  10   9    5.75    0.78
  -1  10   9    3.93    0.77
   1  10  -9    3.43    0.77
   0 -10   9    3.29    0.54
   0  10   9    3.58    0.75
   0  10  -9    2.89    0.73
  -1 -10  -9   37.90    2.72
  -1  10  -9   38.28    2.71
   1  10   9   32.59    2.64
  -2 -10  -9   18.84    1.76
  -2  10  -9   22.35    1.81
  -3 -10  -9    2.72    0.71
  -3  10  -9    6.00    0.92
  -4 -10  -9    1.05    0.60
  -4  10  -9    2.17    0.62
  -5 -10  -9    5.24    0.91
  -5 -10  -9    4.52    0.75
  -5  10  -9    6.38    0.84
  -6 -10  -9    8.38    1.04
  -6 -10  -9    7.42    1.08
  -6  10  -9    8.61    0.89
  -7 -10  -9    2.08    0.57
  -7 -10  -9    1.86    0.58
  -8 -10  -9    0.18    0.33
  -8 -10  -9    1.19    0.50
  -9 -11   9    3.30    0.64
  -9  11   9    2.37    0.76
  -8 -11   9    2.53    0.61
  -8  11   9    2.62    0.53
  -8  11   9    2.21    0.65
  -7 -11   9    0.33    0.49
  -7  11   9    0.05    0.47
  -7  11   9   -0.17    0.43
  -6 -11   9    3.95    0.89
  -6  11   9    3.47    0.43
  -6  11   9    3.56    0.77
  -6  11   9    3.96    0.84
  -5 -11   9   11.55    1.40
  -5  11   9   11.97    1.04
  -5  11   9   12.25    1.31
  -5  11   9   10.80    1.40
  -4 -11   9    9.46    1.29
  -4  11   9    9.79    1.24
  -4  11   9    9.54    1.20
  -4  11   9    9.81    1.04
  -3 -11   9    2.49    0.67
  -3  11   9    0.91    0.58
  -3  11   9    1.17    0.48
  -3  11   9    2.35    0.71
  -2 -11   9    1.84    0.67
  -2 -11   9    2.68    0.58
  -2  11   9    2.88    0.61
   2  11  -9    4.04    0.87
  -2  11   9    4.26    0.81
  -2  11   9    3.14    0.72
  -1 -11   9   16.79    1.38
  -1 -11   9   15.46    1.60
  -1  11   9   15.67    1.56
  -1  11   9   16.73    1.39
   1  11  -9   16.48    1.59
   0 -11  -9   16.05    1.64
   0  11   9   19.58    1.69
   0  11  -9   18.87    1.72
  -1 -11  -9    1.97    0.65
   1  11   9    1.94    0.61
  -1  11  -9    1.99    0.68
  -2 -11  -9    1.33    0.62
  -2  11  -9    2.46    0.66
  -3 -11  -9    9.61    1.25
  -3  11  -9   10.35    1.27
  -4 -11  -9   12.69    1.45
  -4  11  -9   10.30    1.29
  -5 -11  -9    4.24    0.86
  -5  11  -9    3.72    0.71
  -6 -11  -9    0.32    0.43
  -6  11  -9    0.09    0.34
  -7 -11  -9    1.76    0.54
  -8 -12   9    1.02    0.50
  -8  12   9    1.49    0.73
  -7 -12   9    7.05    1.10
  -7  12   9    6.93    1.15
  -7  12   9    8.63    1.09
  -6 -12   9    5.54    0.98
  -6  12   9    5.13    0.92
  -6  12   9    4.60    0.93
  -5 -12   9   -0.25    0.58
  -5  12   9    0.51    0.36
  -5  12   9    0.22    0.61
  -5  12   9    0.68    0.58
  -4 -12   9    4.59    0.91
  -4  12   9    4.08    0.82
  -4  12   9    4.60    0.86
  -4  12   9    3.40    0.64
  -3 -12   9    9.41    1.29
  -3  12   9   10.22    1.25
  -3  12   9    9.70    1.23
  -3  12   9    7.98    0.99
  -2 -12   9   10.83    1.39
   2  12  -9   13.52    1.52
  -2  12   9   11.38    1.18
  -2  12   9    8.30    1.24
  -2  12   9   11.18    1.34
  -1  12   9    5.50    0.96
   1  12  -9    4.71    0.94
  -1  12   9    5.83    0.84
   0 -12  -9    4.95    0.95
   0  12  -9    5.27    0.94
   0  12   9    4.12    0.93
  -1 -12  -9   16.26    1.66
  -1  12  -9   18.22    1.72
  -2 -12  -9    9.50    1.30
  -2  12  -9    9.66    1.27
  -3 -12  -9    3.40    0.84
  -3  12  -9    4.01    0.85
  -4 -12  -9   -0.04    0.48
  -4  12  -9    0.24    0.49
  -5 -12  -9    3.78    0.81
  -5  12  -9    3.43    0.67
  -6 -12  -9    7.12    1.09
  -6  12  -9    7.30    0.85
  -7 -12  -9    2.01    0.58
  -7 -13   9    0.69    0.56
  -7  13   9   -0.01    0.51
  -7  13   9   -0.10    0.49
  -6 -13   9    2.64    0.69
  -6  13   9    2.40    0.79
  -6  13   9    2.19    0.70
  -5 -13   9    8.47    1.19
  -5  13   9    7.33    1.12
  -5  13   9    8.74    0.87
  -5  13   9    7.29    1.14
  -4 -13   9    5.82    0.99
  -4  13   9    5.40    0.77
  -4  13   9    5.66    0.93
  -4  13   9    6.22    1.04
  -3 -13   9    2.76    0.78
  -3  13   9    0.58    0.49
  -3  13   9    0.95    0.64
  -3  13   9    1.28    0.68
  -2 -13   9    3.55    0.85
  -2  13   9    2.43    0.82
  -2  13   9    3.07    0.60
  -2  13   9    1.61    0.63
   2  13  -9    1.97    0.66
   1  13  -9   12.45    1.59
  -1  13   9   13.77    1.26
  -1  13   9   12.19    1.47
  -1  13   9   13.00    1.55
   0  13   9   16.51    1.63
   0  13  -9   15.14    1.78
  -1 -13  -9    4.31    0.86
  -1  13  -9    2.19    0.70
  -2 -13  -9    0.91    0.66
  -2  13  -9    0.69    0.54
  -3 -13  -9    4.67    1.00
  -3  13  -9    4.88    0.91
  -4 -13  -9    8.95    1.33
  -4  13  -9    7.78    1.07
  -5 -13  -9    3.92    0.85
  -5  13  -9    4.08    0.74
  -6 -13  -9    0.56    0.48
  -6  14   9    3.34    0.75
  -6  14   9    3.01    0.68
  -5 -14   9    0.69    0.56
  -5  14   9    0.15    0.37
  -5  14   9   -0.59    0.41
  -5  14   9    0.42    0.36
  -4 -14   9    3.15    0.82
  -4  14   9    2.51    0.64
  -4  14   9    2.67    0.57
  -4  14   9    2.50    0.75
  -3 -14   9    8.72    1.22
  -3  14   9   10.08    1.05
  -3  14   9    6.07    1.02
  -3  14   9    7.86    1.14
   2  14  -9   11.23    1.45
  -2  14   9    9.84    1.34
  -2  14   9   10.18    1.16
  -2  14   9   11.22    1.34
  -1  14   9    1.15    0.64
  -1  14   9    1.89    0.68
   1  14  -9    2.14    0.76
  -1  14   9    2.25    0.56
   0  14   9    0.18    0.51
   0  14  -9    0.21    0.55
  -1 -14  -9    4.81    0.99
  -1  14  -9    6.19    1.14
  -2 -14  -9    6.60    1.12
  -2  14  -9    5.57    0.96
  -3 -14  -9    0.84    0.65
  -3  14  -9    1.31    0.66
  -4 -14  -9    0.53    0.53
  -4  14  -9    0.59    0.46
  -4 -15   9    2.51    0.79
  -4  15   9    3.75    0.80
  -4  15   9    3.44    0.82
  -4  15   9    4.78    0.66
  -3 -15   9    0.97    0.58
  -3  15   9    0.65    0.54
  -3  15   9   -0.05    0.53
  -3  15   9    0.99    0.46
  -2  15   9    1.61    0.54
  -2  15   9    1.64    0.59
  -2  15   9    3.52    0.88
  -1  15   9    5.55    0.93
  -1  15   9    5.01    0.77
  -1  15   9    5.80    0.98
   1  15  -9    4.46    0.89
   0  15  -9    5.86    1.02
   0  15   9    5.45    0.96
   0  15   9    4.94    0.97
  -1  15  -9    0.76    0.57
  -2 -15  -9    0.69    0.65
  -2  15  -9    0.39    0.47
 -12   0  10    1.63    0.61
 -11   0  10   -0.32    0.56
 -10   0  10   -0.11    0.48
  -9   0  10    6.43    0.97
  -8   0  10   21.02    1.71
  -8   0  10   22.61    1.64
  -8   0  10   19.34    1.47
  -7   0  10    2.57    0.49
  -7   0  10    2.07    0.56
  -7   0  10    3.52    0.53
  -7   0  10    3.22    0.49
   6   0 -10    5.91    0.85
  -6   0  10    4.38    0.60
  -6   0  10    4.28    0.54
  -6   0  10    4.27    0.65
  -6   0  10    4.89    0.60
  -6   0  10    5.50    0.67
   5   0 -10   26.62    2.02
  -5   0  10   26.94    1.81
  -5   0  10   28.54    1.79
  -5   0  10   25.17    1.79
  -5   0  10   28.51    1.85
  -5   0  10   22.20    1.84
  -4   0  10   19.13    1.36
  -4   0  10   19.72    1.36
  -4   0  10   18.05    1.34
  -4   0  10   16.51    1.42
   4   0 -10   22.29    1.63
  -3   0  10   37.77    2.24
   3   0 -10   32.99    2.31
  -3   0  10   38.61    2.36
  -3   0  10   30.13    2.22
  -3   0  10   33.02    2.21
   2   0 -10    1.24    0.41
  -2   0  10    0.42    0.29
   2   0 -10    0.97    0.31
  -2   0  10    0.57    0.25
  -1   0  10  175.71   11.06
   1   0 -10  185.93   11.07
   0   0 -10  140.05    8.91
   0   0  10  149.79    8.92
  -1   0 -10   16.45    1.22
   1   0  10   15.10    1.27
  -2   0 -10    0.13    0.23
  -2   0 -10    0.71    0.29
  -3   0 -10    4.23    0.62
  -3   0 -10    3.59    0.52
  -4   0 -10   46.88    3.05
  -4   0 -10   46.77    3.10
  -5   0 -10   33.96    2.29
  -5   0 -10   31.00    2.16
  -6   0 -10   -0.28    0.20
  -6   0 -10   -0.26    0.35
  -7   0 -10   10.74    1.17
  -8   0 -10   10.01    1.18
  -9   0 -10    8.00    1.08
 -10   0 -10    0.59    0.55
 -12  -1  10    0.37    0.55
 -12   1  10    0.31    0.49
 -11  -1  10    1.52    0.75
 -11   1  10    3.14    0.82
 -10  -1  10    3.41    0.83
 -10   1  10    3.62    0.83
  -9  -1  10    0.91    0.54
  -9   1  10    1.38    0.60
  -8  -1  10    3.52    0.52
   8  -1 -10    3.46    0.72
  -8  -1  10    3.67    0.64
  -8  -1  10    3.39    0.74
  -8  -1  10    3.29    0.53
  -8   1  10    3.67    0.59
  -8   1  10    2.91    0.70
  -8   1  10    3.63    0.51
  -7  -1  10   26.05    1.83
  -7  -1  10   22.49    1.74
  -7  -1  10   24.94    1.87
  -7  -1  10   25.11    1.77
   7  -1 -10   21.76    1.94
  -7  -1  10   23.53    1.71
  -7   1  10   25.68    1.76
  -7   1  10   27.61    1.78
  -7   1  10   25.83    1.79
  -7   1  10   22.96    1.86
  -6  -1  10   36.76    2.33
  -6  -1  10   34.89    2.37
   6  -1 -10   37.07    2.57
  -6  -1  10   35.90    2.31
  -6  -1  10   36.68    2.41
  -6  -1  10   33.97    2.36
  -6   1  10   33.11    2.32
  -6   1  10   34.33    2.30
  -6   1  10   32.90    2.39
  -6   1  10   30.19    2.34
  -6   1  10   35.11    2.27
  -5  -1  10    8.53    0.83
  -5  -1  10    7.89    0.82
   5  -1 -10    8.45    1.01
  -5  -1  10   10.31    0.89
  -5  -1  10    9.66    0.81
  -5   1  10    9.77    0.85
  -5   1  10   10.07    0.89
  -5   1  10    9.27    0.79
  -5   1  10    7.47    0.75
  -5   1  10    8.44    0.76
  -4  -1  10    4.86    0.60
  -4  -1  10    5.06    0.60
  -4  -1  10    6.54    0.76
  -4  -1  10    6.45    0.61
   4  -1 -10    5.50    0.82
  -4   1  10    6.36    0.57
  -4   1  10    6.61    0.58
  -4   1  10    6.29    0.66
  -4   1  10    7.07    0.72
  -4   1  10    6.57    0.59
  -3  -1  10   64.95    3.93
  -3  -1  10   56.09    3.92
  -3  -1  10   59.73    4.03
   3  -1 -10   57.76    4.15
  -3  -1  10   63.86    3.98
  -3   1  10   65.57    3.94
   3   1 -10   60.28    4.01
  -3   1  10   70.63    3.95
  -3   1  10   67.19    4.05
   2  -1 -10  119.57    6.87
   2  -1 -10   91.70    6.67
  -2  -1  10  104.37    6.71
  -2  -1  10  103.94    6.62
   2   1 -10  113.46    6.72
  -2   1  10  118.42    6.73
  -2   1  10  103.55    6.55
  -2   1  10  109.32    6.62
  -1  -1  10   53.58    3.14
   1  -1 -10   43.90    3.09
   1  -1 -10   41.74    3.19
   1   1 -10   53.74    3.14
  -1   1  10   47.26    3.12
   0  -1 -10    0.39    0.28
   0  -1 -10    0.53    0.36
   0  -1  10    0.75    0.29
   0   1  10    0.98    0.34
   0   1 -10    0.72    0.30
  -1  -1 -10   55.79    3.21
   1   1  10   43.32    3.14
  -1   1 -10   48.03    3.17
  -2  -1 -10   96.92    5.49
  -2  -1 -10   79.51    5.44
  -2   1 -10   79.12    5.43
  -2   1 -10   92.54    5.47
  -3  -1 -10   27.67    2.05
  -3  -1 -10   30.97    2.06
  -3   1 -10   31.25    2.05
  -3   1 -10   28.88    2.04
  -4  -1 -10    0.17    0.26
  -4  -1 -10    0.25    0.33
  -4   1 -10    0.26    0.34
  -4   1 -10    0.11    0.25
  -5  -1 -10   14.39    1.23
  -5  -1 -10   14.75    1.11
  -5   1 -10   14.33    1.18
  -5   1 -10   12.30    1.07
  -6  -1 -10   22.24    1.72
  -6  -1 -10   21.24    1.52
  -6   1 -10   21.14    1.50
  -6   1 -10   22.95    1.69
  -7  -1 -10   12.43    1.28
  -7   1 -10   14.13    1.25
  -8  -1 -10    2.43    0.71
  -8   1 -10    2.94    0.66
  -9  -1 -10    1.63    0.54
  -9   1 -10    1.04    0.55
 -10  -1 -10    3.16    0.66
 -10   1 -10    3.66    0.73
 -12  -2  10    0.65    0.60
 -12   2  10    0.51    0.44
 -11  -2  10    0.42    0.59
 -11   2  10   -0.59    0.57
 -10  -2  10    1.95    0.70
 -10   2  10    1.52    0.65
   9  -2 -10    7.19    1.04
  -9  -2  10    6.24    0.97
  -9  -2  10    6.76    0.64
  -9   2  10    7.02    1.01
  -8  -2  10   15.86    1.43
   8  -2 -10   14.62    1.43
  -8  -2  10   15.10    1.31
  -8  -2  10   14.34    1.19
  -8   2  10   16.70    1.44
  -8   2  10   15.31    1.14
  -8   2  10   13.33    1.23
   7  -2 -10    5.09    0.86
  -7  -2  10    4.22    0.65
  -7  -2  10    5.13    0.64
  -7  -2  10    4.71    0.73
  -7  -2  10    3.96    0.59
  -7  -2  10    4.00    0.56
  -7   2  10    4.68    0.59
  -7   2  10    3.56    0.67
  -7   2  10    4.50    0.60
  -7   2  10    3.60    0.56
  -6  -2  10   13.06    1.04
  -6  -2  10   12.11    1.07
  -6  -2  10   11.26    1.05
  -6  -2  10   11.08    0.99
  -6  -2  10   10.28    1.05
   6  -2 -10   12.22    1.24
  -6   2  10   13.32    1.07
  -6   2  10   12.73    1.00
  -6   2  10   12.35    0.98
  -6   2  10   13.45    1.12
  -5  -2  10   31.81    2.17
  -5  -2  10   30.30    2.11
   5  -2 -10   33.60    2.34
  -5  -2  10   31.31    2.12
  -5  -2  10   33.20    2.11
  -5   2  10   28.07    2.13
  -5   2  10   31.84    2.13
  -5   2  10   29.04    2.02
  -5   2  10   32.33    2.05
  -5   2  10   28.98    2.03
  -5   2  10   29.37    2.00
   4  -2 -10   60.26    4.10
  -4  -2  10   64.87    3.88
  -4  -2  10   55.72    3.95
  -4  -2  10   65.17    3.93
  -4  -2  10   59.01    3.89
  -4   2  10   58.86    3.84
  -4   2  10   62.53    3.96
  -4   2  10   63.57    3.82
  -4   2  10   62.53    3.91
  -3  -2  10   41.07    3.24
  -3  -2  10   50.33    3.15
   3  -2 -10   50.68    3.41
  -3  -2  10   49.31    3.15
  -3  -2  10   51.14    3.23
  -3   2  10   53.21    3.12
  -3   2  10   51.00    3.11
   3   2 -10   56.13    3.29
  -3   2  10   46.73    3.26
  -3   2  10   47.01    3.16
  -3   2  10   53.20    3.19
   2  -2 -10    1.14    0.45
   2  -2 -10    1.52    0.35
  -2  -2  10    1.45    0.41
   2   2 -10    1.21    0.36
  -2   2  10    1.01    0.29
  -2   2  10    0.52    0.33
  -2   2  10    1.54    0.28
  -2   2  10    1.02    0.18
  -1  -2  10  103.22    6.36
   1  -2 -10   94.01    6.45
   1  -2 -10  111.87    6.36
   1   2 -10  109.57    6.37
  -1   2  10   90.67    6.25
  -1   2  10  107.69    6.37
  -1   2  10   97.19    6.14
   0  -2 -10  117.80    6.84
   0  -2 -10  103.24    6.90
   0   2  10  109.69    6.83
   0   2 -10  108.29    6.83
  -1  -2 -10   21.82    1.56
  -1  -2 -10   22.34    1.61
   1  -2  10   19.05    1.64
  -1  -2 -10   21.39    1.52
  -1   2 -10   20.09    1.54
   1   2  10   22.99    1.57
  -2  -2 -10    1.93    0.42
  -2  -2 -10    2.82    0.48
  -2   2 -10    2.68    0.45
  -2   2 -10    2.49    0.43
  -3  -2 -10   13.84    1.05
  -3  -2 -10   13.20    1.05
  -3   2 -10   11.12    0.99
  -3   2 -10   11.02    0.99
  -4  -2 -10   61.11    3.95
  -4  -2 -10   63.31    4.01
  -4   2 -10   63.22    3.96
  -4   2 -10   58.76    3.92
  -5  -2 -10   36.71    2.42
  -5  -2 -10   34.97    2.50
  -5   2 -10   34.85    2.38
  -5   2 -10   36.42    2.46
  -6  -2 -10    1.70    0.56
  -6  -2 -10    0.48    0.29
  -6   2 -10    1.13    0.30
  -6   2 -10    0.88    0.40
  -7  -2 -10    2.62    0.38
  -7  -2 -10    3.25    0.74
  -7   2 -10    3.15    0.61
  -8  -2 -10    4.75    0.86
  -8   2 -10    5.44    0.80
  -9  -2 -10    3.24    0.81
  -9   2 -10    4.61    0.79
 -10  -2 -10    1.35    0.55
 -12  -3  10    0.26    0.64
 -12   3  10    1.68    0.60
 -11  -3  10    3.10    0.78
 -11   3  10    2.05    0.73
 -10  -3  10    1.21    0.72
 -10   3  10    2.78    0.70
   9  -3 -10    0.60    0.48
  -9  -3  10    0.99    0.32
  -9  -3  10    0.23    0.49
  -9   3  10    0.96    0.62
   8  -3 -10    2.15    0.61
  -8  -3  10    2.46    0.60
  -8  -3  10    2.51    0.50
  -8   3  10    2.15    0.64
  -8   3  10    2.95    0.46
  -7  -3  10   20.39    1.51
  -7  -3  10   20.87    1.62
  -7  -3  10   21.41    1.62
  -7  -3  10   19.14    1.54
  -7  -3  10   21.05    1.54
   7  -3 -10   21.32    1.75
  -7  -3  10   18.21    1.53
  -7   3  10   18.11    1.50
  -7   3  10   20.30    1.50
  -7   3  10   21.59    1.67
  -7   3  10   21.09    1.48
  -6  -3  10   42.31    2.46
  -6  -3  10   34.12    2.38
  -6  -3  10   33.32    2.39
  -6  -3  10   36.77    2.36
   6  -3 -10   27.62    2.47
  -6   3  10   35.10    2.38
  -6   3  10   33.50    2.29
  -6   3  10   34.50    2.27
  -6   3  10   33.24    2.41
  -5  -3  10   27.56    1.92
  -5  -3  10   29.83    1.98
   5  -3 -10   25.57    2.07
  -5  -3  10   27.91    1.89
  -5  -3  10   29.15    1.91
  -5   3  10   28.63    1.82
  -5   3  10   27.08    1.93
  -5   3  10   27.96    1.92
  -5   3  10   26.67    1.79
  -5   3  10   23.70    1.77
  -5   3  10   24.15    1.79
   4  -3 -10    6.13    0.90
  -4  -3  10    6.60    0.74
  -4  -3  10    6.21    0.65
  -4  -3  10    7.72    0.77
  -4  -3  10    6.93    0.80
  -4   3  10    6.81    0.64
  -4   3  10    8.36    0.82
  -4   3  10    7.12    0.59
  -4   3  10    6.67    0.57
  -4   3  10    6.13    0.75
  -3  -3  10   61.18    3.74
   3  -3 -10   58.83    3.99
  -3  -3  10   63.38    3.83
  -3  -3  10   70.30    3.93
  -3   3  10   60.08    3.79
  -3   3  10   63.15    3.69
  -3   3  10   55.28    3.86
  -3   3  10   58.49    3.77
   3   3 -10   51.03    3.84
  -3   3  10   58.01    3.67
   2  -3 -10   37.96    2.78
  -2  -3  10   43.56    2.78
   2  -3 -10   43.95    2.95
  -2   3  10   46.38    2.74
   2   3 -10   36.15    2.80
  -2   3  10   39.02    2.83
  -2   3  10   46.01    2.61
  -2   3  10   45.00    2.72
   1  -3 -10   28.18    2.31
  -1  -3  10   33.51    2.18
  -1  -3  10   33.20    2.23
   1  -3 -10   32.73    2.23
  -1   3  10   27.79    2.21
   1   3 -10   33.03    2.24
  -1   3  10   35.20    1.99
  -1   3  10   32.59    2.15
  -1   3  10   34.18    2.11
   0  -3 -10    0.96    0.35
   0  -3 -10    1.15    0.43
   0  -3  10    0.85    0.32
   0   3 -10    1.15    0.36
   0   3  10    0.34    0.31
  -1  -3 -10   35.74    2.37
  -1  -3 -10   30.30    2.22
  -1  -3 -10   37.00    2.31
   1   3  10   35.16    2.32
  -1   3 -10   29.47    2.27
  -2  -3 -10  112.90    7.41
  -2  -3 -10  127.21    7.40
  -2   3 -10  115.86    7.36
  -2   3 -10  121.09    7.42
  -3  -3 -10   47.70    3.13
  -3  -3 -10   48.12    3.11
  -3   3 -10   45.41    3.09
  -3   3 -10   46.92    3.06
  -4  -3 -10    0.42    0.37
  -4  -3 -10    0.78    0.39
  -4   3 -10    1.01    0.35
  -4   3 -10    0.39    0.35
  -5  -3 -10    4.59    0.73
  -5  -3 -10    4.42    0.65
  -5   3 -10    6.02    0.66
  -5   3 -10    4.94    0.67
  -6  -3 -10   14.21    1.14
  -6  -3 -10   14.90    1.35
  -6   3 -10   14.30    1.21
  -6   3 -10   13.63    1.05
  -7  -3 -10   12.14    1.31
  -7  -3 -10   11.98    0.92
  -7   3 -10   10.41    1.08
  -8  -3 -10    1.83    0.60
  -8   3 -10    1.90    0.54
  -9  -3 -10    0.35    0.47
 -10  -3 -10    3.93    0.87
 -11  -4  10   -0.32    0.53
 -11   4  10   -0.10    0.57
 -10  -4  10    1.82    0.73
 -10   4  10    0.93    0.72
  -9  -4  10    5.72    0.99
   9  -4 -10    6.19    1.12
  -9  -4  10    7.17    0.72
  -9   4  10    7.34    1.10
  -8  -4  10   10.51    1.02
   8  -4 -10   11.17    1.25
  -8  -4  10    9.92    1.01
  -8  -4  10   11.68    1.27
  -8   4  10   11.21    1.28
  -8   4  10   11.58    0.95
  -7  -4  10    2.69    0.49
  -7  -4  10    2.41    0.58
  -7  -4  10    3.02    0.59
   7  -4 -10    3.67    0.74
  -7  -4  10    4.04    0.64
  -7   4  10    2.75    0.52
  -7   4  10    2.60    0.59
   6  -4 -10    1.89    0.62
  -6  -4  10    2.11    0.49
  -6  -4  10    2.57    0.57
  -6  -4  10    2.71    0.51
  -6  -4  10    2.55    0.47
  -6   4  10    2.73    0.42
  -6   4  10    3.03    0.53
  -6   4  10    1.96    0.53
  -5  -4  10   30.75    2.28
  -5  -4  10   34.32    2.35
  -5  -4  10   33.08    2.27
  -5  -4  10   32.19    2.25
   5  -4 -10   33.34    2.46
  -5   4  10   35.60    2.33
  -5   4  10   32.43    2.15
  -5   4  10   34.37    2.17
  -5   4  10   31.48    2.30
  -4  -4  10   54.32    3.61
  -4  -4  10   53.00    3.55
  -4  -4  10   54.66    3.68
  -4   4  10   56.99    3.69
  -4   4  10   57.27    3.48
  -4   4  10   56.63    3.54
  -4   4  10   58.58    3.63
  -3  -4  10   41.16    2.58
  -3  -4  10   38.55    2.47
  -3  -4  10   34.44    2.61
   3  -4 -10   32.67    2.70
  -3   4  10   40.92    2.41
  -3   4  10   35.77    2.50
  -3   4  10   39.69    2.65
  -3   4  10   40.24    2.55
   3   4 -10   42.96    2.63
   2  -4 -10    1.08    0.37
  -2  -4  10    2.27    0.46
   2  -4 -10    1.49    0.47
  -2  -4  10    1.85    0.36
  -2   4  10    1.46    0.35
  -2   4  10    0.93    0.33
   2   4 -10    2.05    0.44
  -2   4  10    1.77    0.42
  -1  -4  10   58.75    3.51
   1  -4 -10   47.56    3.62
  -1  -4  10   47.17    3.52
   1  -4 -10   60.74    3.58
  -1   4  10   55.85    3.46
  -1   4  10   58.90    3.57
   1   4 -10   52.91    3.56
   0  -4 -10   52.46    3.39
   0  -4 -10   48.38    3.45
   0  -4 -10   57.57    3.60
   0  -4  10   55.88    3.40
   0  -4  10   52.43    3.46
   0   4 -10   56.14    3.49
   0   4  10   47.89    3.44
   1  -4  10   24.27    1.64
  -1  -4 -10   24.20    1.65
  -1  -4 -10   24.27    1.74
  -1  -4 -10   21.53    1.77
  -1   4 -10   22.03    1.70
   1   4  10   23.95    1.71
  -2  -4 -10    1.65    0.39
  -2  -4 -10    1.22    0.42
  -2   4 -10    1.66    0.38
  -2   4 -10    1.80    0.40
  -3  -4 -10   15.52    1.37
  -3  -4 -10   16.99    1.36
  -3   4 -10   19.11    1.39
  -3   4 -10   18.44    1.31
  -4  -4 -10   47.09    3.07
  -4  -4 -10   36.84    3.01
  -4   4 -10   52.42    3.05
  -4   4 -10   46.61    2.99
  -5  -4 -10   19.35    1.67
  -5  -4 -10   23.59    1.79
  -5   4 -10   24.63    1.67
  -5   4 -10   23.79    1.64
  -6  -4 -10    1.09    0.48
  -6  -4 -10    0.71    0.37
  -6   4 -10    0.76    0.28
  -6   4 -10    2.08    0.47
  -7  -4 -10    3.49    0.79
  -7  -4 -10    1.73    0.40
  -8  -4 -10    5.39    0.91
  -9  -4 -10    3.68    0.89
 -10  -4 -10    0.09    0.57
 -11  -5  10    2.50    0.85
 -11   5  10    1.92    0.77
 -10  -5  10    4.76    0.93
 -10   5  10    3.88    0.94
  -9  -5  10    0.52    0.64
   9  -5 -10    0.67    0.50
  -9  -5  10    0.99    0.39
  -9   5  10    1.04    0.67
  -8  -5  10    0.66    0.53
  -8  -5  10    0.75    0.42
  -8  -5  10    0.81    0.36
   8  -5 -10    0.68    0.44
  -8   5  10    0.35    0.31
  -8   5  10    0.05    0.50
   7  -5 -10    6.52    1.02
  -7  -5  10    7.90    0.86
  -7  -5  10    7.87    0.94
  -7  -5  10    5.78    0.88
  -7  -5  10    7.67    0.92
  -7   5  10    8.29    1.04
  -7   5  10    8.37    0.86
  -6  -5  10   30.12    2.18
  -6  -5  10   31.58    2.25
  -6  -5  10   31.11    2.30
  -6  -5  10   33.94    2.26
  -6  -5  10   30.11    2.17
  -6   5  10   33.82    2.22
  -6   5  10   26.65    1.97
  -6   5  10   29.67    2.25
  -5  -5  10    7.25    0.82
  -5  -5  10    6.23    0.80
  -5  -5  10    7.40    0.89
  -5  -5  10    6.83    0.87
  -5  -5  10    8.01    0.85
  -5   5  10    9.94    1.00
  -5   5  10    7.87    0.92
  -5   5  10    8.81    0.73
  -4  -5  10    5.21    0.65
  -4  -5  10    6.06    0.78
  -4  -5  10    5.88    0.64
  -4   5  10    4.44    0.71
  -4   5  10    6.44    0.77
  -4   5  10    5.76    0.63
  -3  -5  10   42.96    2.85
  -3  -5  10   43.25    2.94
  -3  -5  10   48.95    3.06
  -3   5  10   46.06    2.90
   3   5 -10   41.78    2.98
  -3   5  10   45.64    3.01
  -3   5  10   43.75    2.93
   2  -5 -10   62.38    4.14
  -2  -5  10   65.52    4.09
  -2  -5  10   66.03    4.17
   2   5 -10   57.04    4.12
  -2   5  10   68.32    4.17
  -2   5  10   67.07    4.05
  -2   5  10   61.05    4.05
  -1  -5  10   24.25    1.72
   1  -5 -10   23.36    1.72
   1  -5 -10   25.27    1.86
  -1  -5  10   22.50    1.63
  -1   5  10   22.65    1.71
   1   5 -10   20.42    1.68
  -1   5  10   21.34    1.59
   0  -5  10    8.68    0.82
   0  -5  10    7.52    0.72
   0  -5 -10    6.91    0.68
   0  -5 -10    8.88    0.84
   0  -5 -10    6.67    0.86
   0   5 -10    5.26    0.75
   0   5  10    7.27    0.79
  -1  -5 -10   27.82    2.15
  -1  -5 -10   26.09    1.91
  -1  -5 -10   32.08    2.06
   1  -5  10   26.19    1.89
   1   5  10   28.26    2.01
  -2  -5 -10   74.89    4.44
   2  -5  10   66.35    4.26
  -2  -5 -10   68.89    4.31
  -2   5 -10   68.68    4.38
  -2   5 -10   60.59    4.24
   3  -5  10   18.87    1.46
  -3  -5 -10   21.21    1.58
  -3  -5 -10   22.02    1.67
  -3   5 -10   23.02    1.62
  -3   5 -10   20.69    1.49
  -4  -5 -10    0.72    0.38
  -4  -5 -10    0.24    0.38
  -4   5 -10    0.83    0.34
  -4   5 -10    0.90    0.35
  -5  -5 -10    7.51    0.92
  -5  -5 -10    6.87    0.90
  -5   5 -10    6.96    0.76
  -6  -5 -10   11.16    1.04
  -6  -5 -10    9.58    1.16
  -6   5 -10   11.36    0.91
  -7  -5 -10    8.37    0.84
  -7  -5 -10    9.19    1.17
  -8  -5 -10    0.73    0.52
 -10  -5 -10    2.64    0.64
 -11  -6  10    0.73    0.58
 -11   6  10    0.34    0.61
 -10  -6  10    0.33    0.58
 -10   6  10    1.60    0.76
  -9  -6  10    7.02    1.05
  -9  -6  10    7.39    0.84
  -9   6  10    5.21    0.96
   8  -6 -10   15.10    1.42
  -8  -6  10   11.31    1.14
  -8  -6  10   11.78    1.35
  -8   6  10   11.45    1.37
  -8   6  10   10.00    0.98
  -7  -6  10    1.30    0.47
  -7  -6  10    1.17    0.40
  -7  -6  10    1.82    0.56
  -7   6  10    2.04    0.61
  -7   6  10    1.87    0.46
  -6  -6  10    4.28    0.74
  -6  -6  10    4.27    0.62
  -6  -6  10    2.93    0.60
  -6  -6  10    2.52    0.57
  -6   6  10    2.76    0.40
  -6   6  10    3.47    0.73
  -6   6  10    3.79    0.64
  -5  -6  10   14.68    1.42
  -5  -6  10   16.12    1.40
  -5  -6  10   18.31    1.51
  -5  -6  10   17.93    1.51
  -5  -6  10   16.89    1.38
  -5   6  10   19.50    1.31
  -5   6  10   19.30    1.50
  -5   6  10   19.29    1.52
  -4  -6  10   41.02    2.60
  -4  -6  10   32.98    2.39
  -4  -6  10   35.67    2.47
  -4  -6  10   38.40    2.57
  -4   6  10   34.36    2.52
  -4   6  10   35.01    2.49
  -4   6  10   35.10    2.38
  -3  -6  10   30.76    2.03
  -3  -6  10   31.14    2.12
  -3   6  10   27.18    1.95
  -3   6  10   29.58    2.03
  -3   6  10   27.39    2.08
   3   6 -10   25.24    2.04
   2  -6 -10    1.65    0.48
  -2  -6  10    1.77    0.47
  -2  -6  10    1.66    0.40
  -2   6  10    1.71    0.43
  -2   6  10    3.41    0.48
   2   6 -10    2.33    0.51
  -2   6  10    3.03    0.58
   1  -6 -10   46.39    3.40
  -1  -6  10   48.82    3.41
  -1  -6  10   54.95    3.35
   1  -6 -10   49.99    3.26
   1   6 -10   53.63    3.45
  -1   6  10   48.35    3.40
  -1   6  10   57.28    3.33
   0  -6 -10   57.83    4.33
   0  -6  10   59.12    4.21
   0  -6 -10   71.14    4.29
   0  -6  10   64.83    4.15
   0  -6 -10   65.31    4.12
   0   6  10   67.97    4.25
   0   6 -10   71.41    4.29
  -1  -6 -10   18.83    1.50
   1  -6  10   18.02    1.37
  -1  -6 -10   17.84    1.36
   1   6  10   18.02    1.48
  -1   6 -10   20.83    1.53
   2  -6  10    1.28    0.31
  -2  -6 -10    0.90    0.38
  -2  -6 -10    1.41    0.43
  -2   6 -10    2.14    0.48
  -2   6 -10    1.16    0.45
  -3  -6 -10    9.42    0.97
  -3  -6 -10    8.00    0.84
  -3   6 -10    8.45    0.92
  -4  -6 -10   39.11    2.80
  -4  -6 -10   43.18    2.91
  -4   6 -10   40.91    2.80
  -5  -6 -10   18.12    1.46
  -5  -6 -10   16.45    1.44
  -5   6 -10   16.07    1.32
  -6  -6 -10    0.61    0.54
  -6  -6 -10    0.78    0.40
  -6   6 -10    0.51    0.29
  -7  -6 -10    1.82    0.47
  -7  -6 -10    2.14    0.63
  -8  -6 -10    7.06    1.09
  -9  -6 -10    3.69    0.84
 -11   7  10    1.54    0.52
 -10   7  10    1.98    0.71
  -9  -7  10    0.54    0.60
  -9  -7  10    0.34    0.38
  -9   7  10   -0.12    0.43
  -8  -7  10    1.60    0.61
   8  -7 -10    1.54    0.58
  -8  -7  10    0.62    0.41
  -8   7  10    1.35    0.40
  -8   7  10    0.25    0.61
  -7  -7  10   13.73    1.37
  -7  -7  10   17.28    1.43
  -7   7  10   14.11    1.43
  -7   7  10   15.30    1.32
  -6  -7  10   17.13    1.30
  -6  -7  10   12.92    1.26
  -6  -7  10   13.22    1.31
  -6  -7  10   11.82    1.39
  -6   7  10   14.67    1.37
  -6   7  10   13.39    1.29
  -6   7  10   13.54    1.03
  -5  -7  10    5.15    0.75
  -5  -7  10    4.72    0.75
  -5  -7  10    6.24    0.87
  -5   7  10    4.88    0.76
  -5   7  10    4.93    0.76
  -5   7  10    4.83    0.62
  -4  -7  10    4.48    0.72
  -4  -7  10    3.18    0.59
  -4   7  10    4.00    0.58
  -4   7  10    3.92    0.65
  -4   7  10    3.54    0.67
  -3  -7  10   36.92    2.53
  -3  -7  10   36.97    2.53
  -3  -7  10   32.93    2.40
  -3   7  10   37.01    2.51
  -3   7  10   32.05    2.33
   3   7 -10   29.55    2.42
  -3   7  10   37.66    2.45
  -2  -7  10   44.93    3.07
  -2  -7  10   42.82    2.94
  -2  -7  10   43.43    3.05
  -2   7  10   44.29    2.96
  -2   7  10   47.48    2.92
  -2   7  10   45.13    3.04
   2   7 -10   40.42    3.00
  -1  -7  10   35.27    2.58
  -1  -7  10   36.97    2.47
   1  -7 -10   41.64    2.62
  -1  -7  10   34.03    2.56
  -1   7  10   31.97    2.54
   1   7 -10   38.08    2.59
  -1   7  10   36.51    2.44
   0  -7 -10   -0.07    0.24
   0  -7 -10   -0.14    0.34
   0  -7  10   -0.30    0.30
   0  -7  10    0.50    0.25
   0  -7  10    0.29    0.35
   0   7  10    0.29    0.41
   0   7 -10   -0.20    0.33
  -1  -7 -10   24.87    1.71
  -1  -7 -10   25.57    1.89
   1  -7  10   25.14    1.73
   1  -7  10   26.21    1.72
  -1   7 -10   21.37    1.82
   1   7  10   21.80    1.83
  -2  -7 -10   43.19    2.78
   2  -7  10   42.81    2.79
  -2  -7 -10   41.03    2.92
   2  -7  10   43.14    2.73
  -2   7 -10   37.73    2.86
  -3  -7 -10   24.17    1.79
  -3  -7 -10   20.59    1.61
  -3   7 -10   20.91    1.70
  -4  -7 -10    0.59    0.40
  -4  -7 -10    1.08    0.51
  -4   7 -10    0.69    0.40
  -5  -7 -10    4.08    0.76
  -5  -7 -10    2.23    0.62
  -5   7 -10    3.62    0.60
  -6  -7 -10    9.88    1.14
  -6  -7 -10   12.45    1.23
  -6   7 -10   12.75    1.02
  -7  -7 -10    6.81    0.83
  -7  -7 -10    5.57    0.95
  -8  -7 -10    0.10    0.46
  -8  -7 -10    0.78    0.38
  -9  -7 -10    0.19    0.55
 -10   8  10    1.19    0.56
  -9  -8  10    5.37    0.76
  -9   8  10    4.30    0.85
  -8  -8  10    8.25    1.03
  -8   8  10    7.70    0.82
  -8   8  10    6.52    1.11
  -7  -8  10    1.20    0.55
  -7   8  10    2.03    0.55
  -7   8  10    0.76    0.58
  -6  -8  10    3.22    0.66
  -6  -8  10    3.17    0.74
  -6   8  10    4.59    0.51
  -6   8  10    4.88    0.82
  -6   8  10    3.87    0.83
  -5  -8  10   11.46    1.08
  -5  -8  10    9.14    1.06
  -5  -8  10   11.19    1.19
  -5   8  10    9.86    1.14
  -5   8  10    8.22    1.09
  -5   8  10   10.01    0.89
  -4  -8  10   21.57    1.57
  -4  -8  10   20.37    1.67
  -4   8  10   18.82    1.61
  -4   8  10   16.44    1.52
  -4   8  10   17.80    1.43
  -3  -8  10   17.31    1.42
  -3  -8  10   20.17    1.58
  -3   8  10   18.66    1.48
  -3   8  10   17.43    1.53
  -3   8  10   16.45    1.36
   3   8 -10   16.10    1.48
  -2  -8  10    0.55    0.31
  -2  -8  10    0.94    0.46
   2   8 -10    0.14    0.34
  -2   8  10   -0.16    0.35
  -2   8  10    1.21    0.45
  -2   8  10    0.90    0.39
   1  -8 -10   37.42    2.76
  -1  -8  10   38.47    2.64
  -1  -8  10   32.12    2.70
  -1   8  10   41.99    2.63
   1   8 -10   42.14    2.80
  -1   8  10   41.59    2.80
   0  -8  10   39.90    2.81
   0  -8 -10   42.98    2.98
   0   8  10   46.65    3.00
   0   8 -10   39.25    2.94
   1  -8  10   10.01    0.90
  -1  -8 -10    7.95    1.08
  -1  -8 -10    9.75    0.95
  -1   8 -10    8.81    1.08
   1   8  10   11.54    1.08
  -2  -8 -10    0.17    0.27
  -2  -8 -10    0.04    0.34
  -2   8 -10    0.26    0.41
  -3  -8 -10    6.21    0.81
  -3  -8 -10    7.15    1.01
  -3   8 -10    6.49    0.91
  -4  -8 -10   22.60    1.75
  -4  -8 -10   21.68    1.87
  -4   8 -10   23.24    1.79
  -5  -8 -10   17.09    1.51
  -5  -8 -10   14.88    1.38
  -5   8 -10   14.94    1.32
  -6  -8 -10    1.03    0.52
  -6  -8 -10    0.03    0.41
  -6   8 -10    0.64    0.36
  -7  -8 -10    1.90    0.66
  -7  -8 -10    1.34    0.51
  -8  -8 -10    3.69    0.53
  -8  -8 -10    2.82    0.69
  -9  -8 -10    2.92    0.64
 -10   9  10    1.58    0.75
  -9  -9  10    0.50    0.41
  -9   9  10    0.32    0.59
  -8  -9  10    1.56    0.57
  -8   9  10    1.44    0.66
  -8   9  10    2.04    0.47
  -7  -9  10    7.01    1.06
  -7   9  10    9.68    1.13
  -7   9  10   10.27    1.27
  -6  -9  10   13.55    1.43
  -6   9  10   15.45    1.13
  -6   9  10   16.00    1.46
  -6   9  10   15.22    1.48
  -5  -9  10    4.07    0.77
  -5  -9  10    2.95    0.71
  -5   9  10    2.93    0.68
  -5   9  10    2.31    0.63
  -5   9  10    4.61    0.60
  -4  -9  10    2.82    0.58
  -4  -9  10    4.00    0.81
  -4   9  10    2.57    0.55
  -4   9  10    3.94    0.74
  -4   9  10    2.66    0.64
  -3  -9  10   12.70    1.17
  -3  -9  10   11.23    1.25
   3   9 -10   13.66    1.63
  -3   9  10   12.67    1.26
  -3   9  10   12.34    1.11
  -3   9  10   11.71    1.26
  -2  -9  10   22.91    1.80
  -2  -9  10   20.25    1.89
  -2   9  10   26.13    1.81
  -2   9  10   26.27    2.00
   2   9 -10   24.35    1.95
  -2   9  10   25.21    1.91
  -1  -9  10    6.70    0.97
  -1  -9  10    5.22    0.81
   1  -9 -10    9.01    1.09
  -1   9  10    5.71    0.90
  -1   9  10    7.22    0.82
   1   9 -10    5.75    0.86
   0  -9  10    2.19    0.44
   0  -9 -10    1.66    0.54
   0   9 -10    2.54    0.60
   0   9  10    1.73    0.56
  -1  -9 -10   21.23    1.69
   1  -9  10   19.98    1.58
   1   9  10   18.36    1.64
  -1   9 -10   17.01    1.62
  -2  -9 -10   29.77    2.34
  -2   9 -10   31.06    2.31
  -3  -9 -10    6.71    1.07
  -3  -9 -10    9.74    0.98
  -3   9 -10    8.75    1.09
  -4  -9 -10   -0.17    0.35
  -4  -9 -10    0.55    0.47
  -4   9 -10    1.07    0.46
  -5  -9 -10    5.26    0.90
  -5  -9 -10    4.75    0.79
  -5   9 -10    4.61    0.74
  -6  -9 -10    9.55    1.13
  -6  -9 -10    8.14    1.11
  -6   9 -10    9.57    0.91
  -7  -9 -10    5.48    0.83
  -7  -9 -10    4.77    0.83
  -8  -9 -10    1.51    0.53
  -8  -9 -10    0.18    0.32
  -9 -10  10    3.60    0.67
  -9  10  10    3.58    0.90
  -8 -10  10    4.95    0.83
  -8  10  10    5.78    0.71
  -8  10  10    3.40    0.91
  -7 -10  10    1.17    0.64
  -7  10  10    0.39    0.47
  -7  10  10    0.52    0.58
  -6 -10  10    0.50    0.50
  -6  10  10    0.55    0.55
  -6  10  10    0.55    0.59
  -6  10  10    0.91    0.32
  -5 -10  10   10.60    1.28
  -5  10  10    8.32    1.11
  -5  10  10    9.09    1.15
  -5  10  10    9.93    0.93
  -4 -10  10   16.06    1.49
  -4  10  10   14.34    1.26
  -4  10  10   13.77    1.41
  -4  10  10   15.02    1.47
  -3 -10  10    3.63    0.82
  -3 -10  10    5.64    0.80
  -3  10  10    5.81    0.78
  -3  10  10    4.46    0.85
  -3  10  10    5.38    0.89
  -2 -10  10    1.46    0.45
  -2 -10  10    2.08    0.64
  -2  10  10    1.43    0.56
  -2  10  10    1.25    0.54
  -2  10  10    2.88    0.56
   2  10 -10    1.23    0.60
   1 -10 -10   21.92    1.80
  -1 -10  10   17.53    1.68
  -1 -10  10   18.58    1.55
   1  10 -10   23.46    1.81
  -1  10  10   21.72    1.60
  -1  10  10   17.68    1.71
   0 -10  10   26.42    1.91
   0 -10 -10   25.27    2.11
   0  10  10   24.30    2.08
   0  10 -10   29.60    2.17
  -1 -10 -10    9.96    1.26
   1  10  10   10.00    1.30
  -1  10 -10   11.73    1.23
  -2 -10 -10    0.58    0.45
  -2  10 -10    0.43    0.49
  -3 -10 -10    6.75    1.01
  -3  10 -10    4.58    0.89
  -4 -10 -10   14.38    1.52
  -4  10 -10   15.99    1.44
  -5 -10 -10    6.28    0.84
  -5 -10 -10    5.79    0.97
  -5  10 -10    5.15    0.83
  -6 -10 -10    0.16    0.43
  -6 -10 -10    0.11    0.50
  -6  10 -10    0.09    0.34
  -7 -10 -10    1.23    0.50
  -7 -10 -10    1.21    0.49
  -8 -10 -10    2.15    0.58
  -8 -10 -10    3.54    0.56
  -8 -11  10    1.15    0.58
  -8  11  10    0.37    0.34
  -8  11  10    1.34    0.65
  -7 -11  10    0.74    0.57
  -7  11  10    3.22    0.75
  -7  11  10    5.12    0.80
  -6 -11  10    6.60    1.09
  -6  11  10    9.19    0.72
  -6  11  10    7.79    1.08
  -6  11  10    7.00    1.11
  -5 -11  10    3.60    0.81
  -5  11  10    4.19    0.82
  -5  11  10    2.94    0.75
  -5  11  10    4.06    0.60
  -4 -11  10    1.23    0.65
  -4  11  10    1.51    0.65
  -4  11  10    3.43    0.74
  -4  11  10    1.82    0.50
  -3 -11  10   15.61    1.61
  -3  11  10   18.87    1.61
  -3  11  10   15.91    1.40
  -3  11  10   16.49    1.60
  -2 -11  10   14.40    1.47
  -2  11  10   16.19    1.53
  -2  11  10   16.81    1.37
   2  11 -10   13.65    1.47
  -2  11  10   14.56    1.46
  -1 -11  10    5.58    0.77
  -1  11  10    8.57    0.99
  -1  11  10    6.61    1.05
   1  11 -10    5.98    1.01
   0 -11 -10    0.97    0.52
   0  11 -10    0.62    0.58
   0  11  10    0.00    0.51
  -1 -11 -10    8.82    1.26
  -1  11 -10    8.26    1.19
  -2 -11 -10   22.10    1.96
  -2  11 -10   21.99    1.91
  -3 -11 -10   10.06    1.30
  -3  11 -10    8.10    1.15
  -4 -11 -10   -0.14    0.53
  -4  11 -10    0.01    0.44
  -5 -11 -10    2.08    0.68
  -5  11 -10    1.61    0.52
  -6 -11 -10    5.49    0.97
  -6  11 -10    5.62    0.74
  -7 -11 -10    3.95    0.71
  -8  12  10    1.18    0.56
  -7 -12  10    1.46    0.59
  -7  12  10    0.49    0.45
  -7  12  10    1.44    0.60
  -6 -12  10    0.19    0.59
  -6  12  10    0.33    0.50
  -6  12  10    1.38    0.61
  -5 -12  10    6.36    1.13
  -5  12  10    6.94    0.79
  -5  12  10    6.83    1.07
  -5  12  10    6.86    1.09
  -4 -12  10   12.44    1.46
  -4  12  10    9.15    1.06
  -4  12  10   11.13    1.35
  -4  12  10   11.32    1.36
  -3 -12  10    4.80    0.91
  -3  12  10    4.13    0.69
  -3  12  10    3.81    0.82
  -3  12  10    2.15    0.77
  -2 -12  10    1.25    0.63
   2  12 -10    0.44    0.54
  -2  12  10    0.91    0.46
  -2  12  10    0.82    0.52
  -2  12  10    0.25    0.58
  -1  12  10    7.60    1.09
   1  12 -10    6.02    1.03
  -1  12  10    7.66    0.99
  -1  12  10    4.61    0.90
   0 -12 -10   17.54    1.64
   0  12 -10   15.34    1.62
   0  12  10   14.90    1.57
  -1 -12 -10    8.37    1.23
  -1  12 -10    9.21    1.23
  -2 -12 -10   -0.10    0.56
  -2  12 -10    0.43    0.57
  -3 -12 -10    3.52    0.89
  -3  12 -10    3.50    0.85
  -4 -12 -10    8.94    1.21
  -4  12 -10    5.43    0.90
  -5 -12 -10    4.37    0.90
  -5  12 -10    4.04    0.75
  -6 -12 -10    0.44    0.45
  -6  12 -10    0.36    0.37
  -6 -13  10    5.48    0.98
  -6  13  10    4.98    0.91
  -6  13  10    3.16    0.84
  -5 -13  10    2.82    0.78
  -5  13  10    2.21    0.48
  -5  13  10    2.61    0.69
  -5  13  10    1.67    0.72
  -4 -13  10    0.82    0.56
  -4  13  10    0.60    0.51
  -4  13  10   -0.25    0.48
  -4  13  10    0.43    0.42
  -3 -13  10    6.43    1.18
  -3  13  10    6.10    1.08
  -3  13  10    6.64    0.88
  -3  13  10    5.99    1.03
  -2 -13  10    7.38    1.60
  -2  13  10    8.78    1.25
  -2  13  10   10.19    1.13
   2  13 -10   10.86    1.33
  -2  13  10    6.47    1.07
  -1  13  10    2.73    0.76
  -1  13  10    3.61    0.86
  -1  13  10    3.30    0.66
   1  13 -10    3.04    0.86
   0  13 -10   -0.21    0.44
   0  13  10   -0.08    0.46
  -1 -13 -10    3.14    0.82
  -1  13 -10    2.67    0.77
  -2 -13 -10   11.93    1.59
  -2  13 -10   11.34    1.47
  -3 -13 -10    4.51    0.94
  -3  13 -10    4.31    0.93
  -4 -13 -10   -0.18    0.56
  -4  13 -10    0.16    0.45
  -5 -13 -10    0.81    0.61
  -5  13 -10    1.16    0.50
  -5 -14  10    3.53    0.89
  -5  14  10    4.23    0.57
  -5  14  10    3.19    0.78
  -5  14  10    3.60    0.85
  -4 -14  10    5.72    1.04
  -4  14  10    5.57    0.74
  -4  14  10    4.68    0.89
  -4  14  10    4.09    0.83
  -3 -14  10    4.32    0.89
  -3  14  10    1.64    0.56
  -3  14  10    2.87    0.80
  -3  14  10    2.38    0.76
  -2  14  10    0.43    0.49
   2  14 -10   -0.23    0.54
  -2  14  10    0.26    0.55
  -2  14  10    1.15    0.53
  -1  14  10    3.58    0.80
  -1  14  10    2.74    0.68
   1  14 -10    4.31    0.99
  -1  14  10    4.14    0.86
   0  14  10    6.86    1.10
   0  14 -10    8.89    1.31
   0  14  10    6.47    1.16
  -1 -14 -10    4.17    0.98
  -1  14 -10    2.14    0.77
  -2 -14 -10    0.35    0.64
  -2  14 -10    0.77    0.56
  -3 -14 -10    3.10    0.79
  -3  14 -10    2.93    0.72
  -4 -14 -10    5.38    1.03
  -4  14 -10    5.25    0.85
  -3  15  10    2.97    0.63
  -3  15  10    3.74    0.78
  -3  15  10    3.34    0.80
  -2  15  10    6.42    1.03
  -2  15  10    6.56    0.99
  -2  15  10    4.95    0.79
   1  15 -10    1.92    0.68
  -1  15  10    1.80    0.60
  -1  15  10    1.43    0.66
  -1  15  10    1.73    0.65
   0  15 -10   -0.91    0.45
   0  15  10    0.56    0.51
   0  15  10   -0.15    0.77
  -1  15 -10    3.39    0.84
   1  15  10    1.85    0.61
  -2 -15 -10    6.99    1.17
  -2  15 -10    5.07    1.01
 -12   0  11    0.28    0.58
 -11   0  11    2.02    0.69
 -10   0  11    4.02    0.84
  -9   0  11    1.15    0.30
  -9   0  11    0.65    0.55
  -8   0  11    0.04    0.30
  -8   0  11    0.50    0.35
  -8   0  11    0.36    0.49
  -7   0  11   10.49    0.93
  -7   0  11    8.57    0.95
  -7   0  11   10.70    0.97
  -7   0  11   11.67    1.07
   6   0 -11   38.59    3.22
  -6   0  11   51.22    3.04
  -6   0  11   50.16    3.12
  -6   0  11   46.58    3.05
  -6   0  11   50.10    3.04
  -6   0  11   42.74    3.09
   5   0 -11   29.39    2.07
  -5   0  11   22.98    1.77
  -5   0  11   27.52    1.81
  -5   0  11   25.91    1.83
  -5   0  11   23.76    1.88
  -5   0  11   25.50    1.77
  -4   0  11    0.30    0.22
  -4   0  11    0.01    0.20
   4   0 -11   -0.05    0.39
  -4   0  11    0.07    0.24
  -4   0  11   -0.19    0.29
  -3   0  11   45.12    2.86
  -3   0  11   39.88    2.83
  -3   0  11   43.89    2.88
   3   0 -11   47.22    2.98
  -3   0  11   42.25    2.97
   3   0 -11   52.37    3.17
  -2   0  11  126.08    7.91
   2   0 -11  121.01    7.89
  -2   0  11  123.71    7.82
   2   0 -11  139.59    8.07
  -1   0  11   69.57    4.15
   1   0 -11   61.57    4.22
  -1   0  11   67.47    4.24
   0   0  11   13.28    1.15
   0   0 -11   15.91    1.19
  -1   0 -11   13.43    1.13
   1   0  11   14.39    1.13
  -2   0 -11   43.69    3.03
  -2   0 -11   48.93    3.05
  -3   0 -11   51.38    3.22
  -3   0 -11   45.96    3.21
  -4   0 -11   13.44    1.11
  -4   0 -11   13.97    1.17
  -5   0 -11    6.50    0.73
  -5   0 -11    6.33    0.86
  -6   0 -11   18.73    1.33
  -6   0 -11   16.47    1.51
  -7   0 -11   10.91    1.21
  -8   0 -11    4.75    0.88
  -9   0 -11   -0.40    0.47
 -10   0 -11    0.83    0.51
 -12  -1  11    2.97    0.80
 -12   1  11    1.05    0.56
 -11  -1  11   -0.88    0.42
 -11   1  11    0.21    0.59
 -10  -1  11    0.83    0.64
 -10   1  11   -0.15    0.49
  -9  -1  11    5.44    0.59
  -9  -1  11    4.56    0.85
  -9   1  11    5.98    0.98
   8  -1 -11   17.92    1.55
  -8  -1  11   14.34    1.29
  -8  -1  11   15.00    1.22
  -8  -1  11   16.23    1.42
  -8   1  11   12.85    1.38
  -8   1  11   14.92    1.27
  -8   1  11   14.60    1.19
  -7  -1  11   19.48    1.48
  -7  -1  11   20.13    1.59
  -7  -1  11   19.62    1.46
  -7  -1  11   17.40    1.51
   7  -1 -11   19.95    1.74
  -7  -1  11   21.36    1.54
  -7   1  11   18.43    1.51
  -7   1  11   19.61    1.47
  -7   1  11   20.81    1.63
  -7   1  11   20.27    1.51
  -6  -1  11    0.27    0.39
  -6  -1  11    0.03    0.22
  -6  -1  11    0.31    0.25
   6  -1 -11   -0.08    0.34
  -6  -1  11    0.60    0.32
  -6  -1  11   -0.33    0.28
  -6   1  11    0.19    0.23
  -6   1  11   -0.04    0.28
  -6   1  11   -0.02    0.35
  -6   1  11   -0.07    0.24
  -6   1  11   -0.08    0.22
  -5  -1  11   30.16    2.52
  -5  -1  11   41.44    2.58
   5  -1 -11   32.29    2.74
  -5  -1  11   40.68    2.65
  -5  -1  11   40.22    2.57
  -5   1  11   40.80    2.54
  -5   1  11   43.03    2.66
  -5   1  11   37.85    2.51
  -5   1  11   40.47    2.59
  -5   1  11   38.04    2.50
  -4  -1  11   42.02    2.63
   4  -1 -11   41.99    2.86
  -4  -1  11   36.28    2.57
  -4  -1  11   40.77    2.58
  -4  -1  11   38.04    2.69
  -4   1  11   40.78    2.59
  -4   1  11   36.33    2.53
  -4   1  11   40.73    2.69
  -4   1  11   39.26    2.54
  -4   1  11   39.92    2.56
  -3  -1  11   20.91    1.38
   3  -1 -11   18.26    1.65
  -3  -1  11   18.77    1.40
  -3  -1  11   20.83    1.55
  -3  -1  11   19.96    1.46
  -3   1  11   21.22    1.42
  -3   1  11   21.00    1.53
  -3   1  11   20.89    1.40
   3   1 -11   18.66    1.48
  -2  -1  11   13.24    1.05
   2  -1 -11   15.06    1.32
  -2  -1  11   15.53    1.19
   2  -1 -11   13.49    1.14
  -2   1  11   12.97    1.04
  -2   1  11   15.17    1.17
  -2   1  11   13.27    0.96
   2   1 -11   14.11    1.14
   1  -1 -11   21.71    1.69
  -1  -1  11   25.00    1.61
  -1  -1  11   23.07    1.49
   1  -1 -11   23.79    1.59
  -1   1  11   18.74    1.46
  -1   1  11   19.33    1.54
   1   1 -11   18.78    1.54
   0  -1  11  155.23   10.26
   0  -1 -11  167.26   10.28
   0   1 -11  174.98   10.29
   0   1  11  171.38   10.28
  -1  -1 -11   62.09    4.45
   1   1  11   68.25    4.45
  -1   1 -11   80.73    4.51
  -2  -1 -11    1.93    0.44
  -2  -1 -11    2.84    0.48
  -2   1 -11    1.26    0.36
  -2   1 -11    1.15    0.36
  -3  -1 -11    5.65    0.68
  -3  -1 -11    5.05    0.69
  -3   1 -11    3.00    0.55
  -3   1 -11    5.81    0.67
  -4  -1 -11   21.83    1.73
  -4  -1 -11   23.97    1.80
  -4   1 -11   26.43    1.82
  -4   1 -11   25.44    1.75
  -5  -1 -11   42.46    2.72
  -5  -1 -11   37.04    2.57
  -5   1 -11   33.37    2.54
  -5   1 -11   44.00    2.70
  -6  -1 -11   11.18    1.07
  -6  -1 -11   10.01    0.84
  -6   1 -11    9.37    1.06
  -6   1 -11    7.76    0.79
  -7  -1 -11    0.02    0.45
  -7  -1 -11    0.36    0.38
  -7   1 -11    0.54    0.41
  -8  -1 -11    2.61    0.71
  -8   1 -11    4.13    0.78
  -9  -1 -11    4.11    0.80
  -9   1 -11    4.17    0.77
 -10  -1 -11    1.42    0.63
 -10   1 -11    1.17    0.53
 -12  -2  11   -0.14    0.57
 -12   2  11   -0.33    0.38
 -11  -2  11    4.36    0.89
 -11   2  11    3.68    0.88
 -10  -2  11    7.87    1.15
 -10   2  11    5.00    0.91
   9  -2 -11    3.64    0.82
  -9  -2  11    3.87    0.51
  -9  -2  11    2.45    0.70
  -9   2  11    2.03    0.72
   8  -2 -11   -0.32    0.36
  -8  -2  11    0.10    0.44
  -8  -2  11    0.13    0.30
  -8  -2  11    0.65    0.37
  -8   2  11   -0.06    0.51
  -8   2  11   -0.10    0.27
  -7  -2  11   11.05    1.02
  -7  -2  11   10.59    1.05
  -7  -2  11    9.51    0.99
  -7  -2  11   10.61    0.93
   7  -2 -11   11.30    1.23
  -7  -2  11   10.85    1.01
  -7   2  11   12.26    1.25
  -7   2  11   10.14    0.91
  -7   2  11    8.51    0.90
  -7   2  11    8.57    0.95
   6  -2 -11   24.60    1.95
  -6  -2  11   20.57    1.68
  -6  -2  11   21.99    1.73
  -6  -2  11   21.72    1.70
  -6  -2  11   22.84    1.66
  -6  -2  11   23.57    1.66
  -6   2  11   22.32    1.62
  -6   2  11   23.78    1.75
  -6   2  11   22.49    1.61
  -6   2  11   25.05    1.75
  -5  -2  11   31.02    2.25
  -5  -2  11   27.89    2.15
  -5  -2  11   31.39    2.17
  -5  -2  11   32.61    2.19
   5  -2 -11   34.54    2.46
  -5   2  11   29.47    2.08
  -5   2  11   33.00    2.20
  -5   2  11   36.24    2.28
  -5   2  11   33.69    2.14
  -5   2  11   30.07    2.09
  -5   2  11   30.83    2.10
  -4  -2  11    1.71    0.36
  -4  -2  11    2.24    0.38
   4  -2 -11    1.90    0.55
  -4  -2  11    1.87    0.47
  -4  -2  11    2.02    0.41
  -4   2  11    1.31    0.27
  -4   2  11    1.72    0.30
  -4   2  11    2.06    0.48
  -4   2  11    1.46    0.35
  -4   2  11    2.30    0.41
  -3  -2  11   42.66    2.53
  -3  -2  11   40.88    2.63
   3  -2 -11   44.50    2.89
  -3  -2  11   41.05    2.70
  -3   2  11   36.52    2.65
  -3   2  11   31.61    2.52
  -3   2  11   38.88    2.48
   3   2 -11   41.66    2.67
  -3   2  11   38.24    2.47
  -3   2  11   39.65    2.56
   2  -2 -11   91.90    5.05
   2  -2 -11   79.64    5.18
  -2  -2  11   72.04    5.03
  -2   2  11   83.15    4.93
  -2   2  11   77.49    4.81
  -2   2  11   68.18    5.00
  -2   2  11   81.65    4.90
   2   2 -11   79.38    5.03
  -1  -2  11   57.18    3.72
  -1  -2  11   57.81    3.82
   1  -2 -11   66.65    3.99
   1  -2 -11   62.02    3.82
  -1   2  11   50.59    3.70
  -1   2  11   62.14    3.84
   1   2 -11   56.43    3.81
   0  -2 -11    4.35    0.70
   0  -2 -11    4.20    0.63
   0  -2  11    6.25    0.72
   0   2 -11    3.45    0.58
   0   2  11    5.20    0.69
  -1  -2 -11    3.28    0.53
  -1  -2 -11    2.65    0.51
   1   2  11    6.04    0.69
  -1   2 -11    5.03    0.64
  -2  -2 -11   42.32    2.77
  -2  -2 -11   36.82    2.71
  -2   2 -11   40.22    2.75
  -2   2 -11   44.91    2.74
  -3  -2 -11   51.19    3.21
  -3  -2 -11   51.77    3.22
  -3   2 -11   39.84    3.13
  -3   2 -11   50.44    3.19
  -4  -2 -11    6.77    0.77
  -4  -2 -11    6.62    0.82
  -4   2 -11    5.99    0.73
  -4   2 -11    4.91    0.70
  -5  -2 -11    2.65    0.60
  -5  -2 -11    2.88    0.48
  -5   2 -11    1.65    0.41
  -5   2 -11    2.57    0.52
  -6  -2 -11   15.83    1.37
  -6  -2 -11   14.93    1.14
  -6   2 -11   12.74    1.08
  -6   2 -11   14.25    1.24
  -7  -2 -11   13.23    1.43
  -7   2 -11   10.99    1.14
  -8  -2 -11    2.36    0.77
  -8   2 -11    2.71    0.67
  -9  -2 -11    0.56    0.62
  -9   2 -11    0.16    0.44
 -10  -2 -11    1.21    0.68
 -11  -3  11    0.56    0.60
 -11   3  11    0.95    0.67
 -10  -3  11    1.35    0.68
 -10   3  11    1.08    0.57
   9  -3 -11    3.97    0.89
  -9  -3  11    4.85    0.92
  -9  -3  11    6.09    0.67
  -9   3  11    4.37    0.88
  -8  -3  11   13.83    1.26
  -8  -3  11   13.01    1.09
   8  -3 -11    9.24    1.23
  -8   3  11   10.32    0.97
  -8   3  11   11.20    1.29
  -7  -3  11   11.55    0.98
   7  -3 -11   11.14    1.25
  -7  -3  11   10.04    1.09
  -7  -3  11    9.85    1.01
  -7  -3  11   12.17    1.09
  -7   3  11    8.44    0.95
  -7   3  11    9.03    0.89
  -7   3  11   10.04    1.12
  -6  -3  11    0.86    0.38
  -6  -3  11    0.10    0.32
  -6  -3  11    0.45    0.31
  -6  -3  11    0.50    0.37
   6  -3 -11    1.40    0.53
  -6   3  11    0.47    0.24
  -6   3  11    0.82    0.42
  -6   3  11    0.94    0.42
  -5  -3  11   18.58    1.34
  -5  -3  11   16.26    1.42
  -5  -3  11   16.10    1.34
   5  -3 -11   18.03    1.59
  -5  -3  11   14.64    1.34
  -5   3  11   18.23    1.27
  -5   3  11   18.05    1.41
  -5   3  11   18.87    1.39
  -5   3  11   17.21    1.24
  -5   3  11   18.82    1.30
  -4  -3  11   50.59    3.37
  -4  -3  11   45.95    3.26
  -4  -3  11   47.45    3.20
   4  -3 -11   53.23    3.53
  -4  -3  11   51.60    3.30
  -4   3  11   49.53    3.15
  -4   3  11   50.84    3.34
  -4   3  11   49.22    3.21
  -4   3  11   54.90    3.29
  -3  -3  11   42.33    2.55
  -3  -3  11   36.19    2.44
   3  -3 -11   41.44    2.70
  -3   3  11   35.27    2.27
  -3   3  11   31.35    2.46
   3   3 -11   34.10    2.47
  -3   3  11   36.14    2.37
  -3   3  11   34.37    2.37
  -2  -3  11    8.68    0.79
   2  -3 -11    7.87    0.78
   2  -3 -11    7.80    0.98
  -2  -3  11    7.43    0.80
  -2   3  11    6.84    0.54
   2   3 -11    7.43    0.79
  -2   3  11    8.37    0.71
  -2   3  11    6.54    0.65
  -2   3  11    7.20    0.85
  -1  -3  11    8.90    0.87
   1  -3 -11   11.29    0.96
   1  -3 -11   10.91    1.12
  -1  -3  11    9.27    0.93
  -1   3  11   10.07    0.85
  -1   3  11   10.91    1.00
  -1   3  11   10.82    0.80
   1   3 -11    9.31    0.95
   0  -3  11   93.22    5.38
   0  -3 -11   77.87    5.45
   0  -3 -11   78.26    5.36
   0   3  11   90.34    5.41
   0   3 -11   77.84    5.36
   0   3  11   91.16    5.31
  -1  -3 -11   53.59    3.68
  -1  -3 -11   54.60    3.74
  -1  -3 -11   64.09    4.08
   1   3  11   67.51    3.81
  -1   3 -11   49.37    3.71
  -2  -3 -11    2.66    0.54
  -2  -3 -11    2.19    0.49
  -2   3 -11    3.43    0.56
  -2   3 -11    3.25    0.52
  -3  -3 -11    4.40    0.68
  -3  -3 -11    5.80    0.74
  -3   3 -11    5.06    0.68
  -3   3 -11    4.33    0.63
  -4  -3 -11   14.45    1.24
  -4   3 -11   14.65    1.21
  -4   3 -11   14.82    1.20
  -5  -3 -11   21.50    1.50
  -5  -3 -11   21.40    1.60
  -5   3 -11   18.06    1.47
  -5   3 -11   16.19    1.40
  -6  -3 -11    5.23    0.86
  -6  -3 -11    6.25    0.74
  -6   3 -11    6.28    0.85
  -6   3 -11    5.20    0.62
  -7  -3 -11    1.09    0.61
  -7  -3 -11    1.12    0.33
  -7   3 -11    1.79    0.54
  -8  -3 -11    8.90    1.15
  -8   3 -11    7.81    1.00
  -9  -3 -11    3.62    0.78
 -10  -3 -11    1.83    0.73
 -11  -4  11    1.99    0.79
 -11   4  11    0.87    0.65
 -10  -4  11    4.93    0.87
 -10   4  11    3.35    0.78
  -9  -4  11    2.30    0.49
   9  -4 -11    2.22    0.70
  -9  -4  11    2.25    0.75
  -9   4  11    3.65    0.84
   8  -4 -11    1.62    0.65
  -8  -4  11    0.98    0.40
  -8  -4  11    2.21    0.66
  -8  -4  11    1.49    0.47
  -8   4  11    1.71    0.62
  -8   4  11    1.31    0.42
  -7  -4  11    8.06    0.97
  -7  -4  11    8.10    1.00
  -7  -4  11    6.59    0.89
   7  -4 -11    8.85    1.17
  -7  -4  11    7.29    0.94
  -7  -4  11    8.56    0.84
  -7   4  11    7.55    0.91
  -7   4  11    8.72    1.05
  -6  -4  11   16.39    1.47
  -6  -4  11   18.90    1.48
   6  -4 -11   20.38    1.73
  -6  -4  11   20.17    1.51
  -6  -4  11   19.18    1.54
  -6   4  11   18.10    1.51
  -6   4  11   18.17    1.50
  -5  -4  11   17.24    1.55
  -5  -4  11   23.36    1.60
  -5  -4  11   21.56    1.54
   5  -4 -11   18.89    1.77
  -5  -4  11   21.58    1.67
  -5   4  11   20.52    1.47
  -5   4  11   23.14    1.65
  -5   4  11   20.58    1.59
  -4  -4  11    2.66    0.47
  -4  -4  11    2.62    0.44
   4  -4 -11    3.55    0.71
  -4  -4  11    3.14    0.59
  -4   4  11    2.72    0.45
  -4   4  11    2.42    0.55
  -4   4  11    2.60    0.49
  -3  -4  11   23.94    1.64
   3  -4 -11   20.47    1.80
  -3  -4  11   25.15    1.73
  -3   4  11   22.13    1.56
  -3   4  11   18.82    1.67
   3   4 -11   21.29    1.66
  -3   4  11   22.77    1.57
  -2  -4  11   61.60    4.75
   2  -4 -11   89.20    5.00
   2  -4 -11   73.03    4.77
  -2  -4  11   80.42    4.74
  -2   4  11   72.29    4.80
  -2   4  11   75.62    4.68
  -2   4  11   75.73    4.67
   2   4 -11   68.67    4.77
   1  -4 -11   16.25    1.42
   1  -4 -11   18.86    1.60
  -1  -4  11   19.08    1.41
  -1  -4  11   16.54    1.44
  -1   4  11   20.82    1.39
   1   4 -11   19.93    1.49
  -1   4  11   18.89    1.33
  -1   4  11   20.34    1.51
   0  -4 -11    0.99    0.30
   0  -4 -11    0.83    0.37
   0  -4  11    0.54    0.28
   0  -4 -11    0.76    0.43
   0  -4  11    0.73    0.35
   0   4  11    0.71    0.35
   0   4 -11    0.49    0.36
  -1  -4 -11    6.56    0.79
   1   4  11    9.51    0.91
  -1   4 -11    9.80    0.91
  -2  -4 -11   52.94    3.67
  -2  -4 -11   59.68    3.76
  -2   4 -11   54.42    3.72
  -2   4 -11   60.06    3.66
  -3  -4 -11   52.13    3.29
  -3  -4 -11   42.77    3.28
  -3   4 -11   53.55    3.30
  -4  -4 -11    9.54    1.01
  -4  -4 -11    6.34    0.86
  -4   4 -11    8.71    0.89
  -4   4 -11    7.71    0.89
  -5  -4 -11    1.53    0.48
  -5  -4 -11    1.25    0.52
  -5   4 -11    1.87    0.44
  -5   4 -11    2.17    0.51
  -6  -4 -11   10.49    0.97
  -6  -4 -11    8.83    1.13
  -6   4 -11   10.42    1.00
  -6   4 -11    9.34    0.84
  -7  -4 -11    9.05    1.22
  -7  -4 -11    9.33    0.86
  -8  -4 -11    3.82    0.78
  -9  -4 -11    0.76    0.61
 -10  -4 -11    1.41    0.51
 -11  -5  11    0.54    0.53
 -11   5  11    0.60    0.56
 -10  -5  11   -0.90    0.54
 -10   5  11   -0.40    0.42
  -9  -5  11    3.83    0.80
  -9  -5  11    4.13    0.64
  -9   5  11    3.91    0.89
  -8  -5  11    9.18    1.10
   8  -5 -11    7.62    1.14
  -8  -5  11    9.90    0.97
  -8   5  11    7.46    1.10
  -8   5  11    6.34    0.82
  -7  -5  11    3.02    0.63
  -7  -5  11    2.88    0.54
   7  -5 -11    2.89    0.72
  -7  -5  11    2.37    0.58
  -7   5  11    2.91    0.67
  -7   5  11    3.39    0.63
   6  -5 -11    0.40    0.53
  -6  -5  11    0.18    0.27
  -6  -5  11    0.14    0.30
  -6  -5  11    0.12    0.38
  -6  -5  11    0.14    0.39
  -6  -5  11    0.73    0.41
  -6   5  11    0.12    0.23
  -6   5  11    0.39    0.36
  -6   5  11    0.44    0.42
  -5  -5  11   24.93    1.81
   5  -5 -11   27.34    2.07
  -5  -5  11   19.06    1.75
  -5  -5  11   25.12    1.74
  -5  -5  11   23.91    1.87
  -5   5  11   24.92    1.82
  -5   5  11   26.19    1.68
  -5   5  11   21.30    1.81
  -4  -5  11   38.85    2.60
  -4  -5  11   36.86    2.69
   4  -5 -11   38.78    2.83
  -4  -5  11   37.36    2.50
  -4   5  11   40.17    2.61
  -4   5  11   37.06    2.67
  -4   5  11   37.49    2.51
  -3  -5  11   25.16    1.97
   3  -5 -11   31.83    2.26
  -3  -5  11   25.87    2.06
   3   5 -11   30.44    2.07
  -3   5  11   27.95    2.08
  -3   5  11   27.16    1.96
  -3   5  11   28.70    1.93
   2  -5 -11    5.95    0.89
  -2  -5  11    6.36    0.78
   2  -5 -11    5.60    0.74
  -2  -5  11    5.17    0.66
  -2   5  11    3.85    0.66
  -2   5  11    5.20    0.62
   2   5 -11    5.40    0.73
  -2   5  11    4.93    0.63
  -1  -5  11   12.03    1.04
   1  -5 -11   13.02    1.25
   1  -5 -11   14.24    1.13
  -1  -5  11   12.90    1.14
  -1   5  11   11.61    1.00
  -1   5  11   13.30    1.13
  -1   5  11   10.98    0.98
   1   5 -11    9.61    1.07
   0  -5 -11   50.73    3.70
   0  -5 -11   51.56    3.58
   0  -5 -11   57.93    3.84
   0  -5  11   63.63    3.74
   0  -5  11   59.26    3.63
   0   5 -11   52.48    3.70
   0   5  11   57.17    3.71
  -1  -5 -11   42.86    3.14
  -1  -5 -11   42.33    3.03
   1  -5  11   47.88    3.04
  -1   5 -11   46.29    3.14
   1   5  11   53.11    3.18
  -2  -5 -11    1.93    0.45
  -2  -5 -11    2.39    0.56
   2  -5  11    1.97    0.39
  -2   5 -11    1.93    0.50
  -2   5 -11    1.86    0.39
  -3  -5 -11    8.37    0.94
   3  -5  11    8.98    0.78
  -3  -5 -11    8.68    0.95
  -3   5 -11    8.38    0.93
  -3   5 -11    7.79    0.78
  -4  -5 -11   15.99    1.37
  -4  -5 -11   16.01    1.40
  -4   5 -11   15.38    1.24
  -4   5 -11   16.47    1.34
  -5  -5 -11   23.34    1.72
  -5  -5 -11   21.69    1.76
  -5   5 -11   19.42    1.58
  -6  -5 -11    8.24    1.04
  -6  -5 -11    6.44    0.88
  -6   5 -11    8.02    0.74
  -7  -5 -11    0.63    0.35
  -7  -5 -11    0.58    0.60
  -8  -5 -11    2.07    0.68
  -9  -5 -11    2.82    0.77
 -11  -6  11    1.85    0.77
 -11   6  11    2.20    0.80
 -10  -6  11    1.16    0.66
 -10   6  11    2.22    0.81
  -9  -6  11    1.81    0.70
  -9  -6  11    0.77    0.41
  -9   6  11    0.94    0.66
  -8  -6  11   -0.20    0.44
  -8  -6  11   -0.38    0.34
   8  -6 -11   -0.29    0.47
  -8   6  11   -0.11    0.50
  -8   6  11    0.23    0.31
   7  -6 -11    9.86    1.32
  -7  -6  11    8.97    1.00
  -7  -6  11    9.14    1.10
  -7  -6  11    8.87    1.07
  -7   6  11    8.32    1.11
  -7   6  11    8.83    1.03
  -6  -6  11   19.03    1.69
  -6  -6  11   19.59    1.65
   6  -6 -11   22.04    1.96
  -6  -6  11   24.06    1.80
  -6  -6  11   21.71    1.68
  -6   6  11   20.48    1.70
  -6   6  11   22.66    1.77
  -6   6  11   21.32    1.47
  -5  -6  11   13.77    1.60
  -5  -6  11   14.37    1.40
  -5  -6  11   14.67    1.41
  -5  -6  11   16.32    1.35
  -5  -6  11   15.84    1.27
  -5   6  11   17.53    1.45
  -5   6  11   16.73    1.22
  -5   6  11   16.10    1.36
  -4  -6  11    2.37    0.48
  -4  -6  11    2.34    0.54
  -4  -6  11    1.29    0.48
  -4  -6  11    1.92    0.41
  -4   6  11    1.59    0.41
  -4   6  11    1.65    0.51
  -4   6  11    2.25    0.58
  -3  -6  11   14.40    1.25
  -3  -6  11   13.36    1.31
  -3   6  11   15.95    1.34
   3   6 -11   17.46    1.37
  -3   6  11   15.83    1.21
  -3   6  11   14.14    1.22
  -2  -6  11   44.34    2.94
   2  -6 -11   39.76    2.90
  -2  -6  11   41.80    2.84
   2   6 -11   43.03    2.93
  -2   6  11   40.86    2.80
  -2   6  11   43.38    2.80
  -2   6  11   41.99    2.93
  -1  -6  11   34.01    2.13
   1  -6 -11   20.96    2.12
   1  -6 -11   30.72    2.12
   1  -6 -11   25.48    1.89
  -1  -6  11   30.66    2.00
  -1   6  11   26.27    2.06
  -1   6  11   28.15    1.95
  -1   6  11   28.46    1.96
   1   6 -11   29.34    2.09
   0  -6 -11    2.70    0.63
   0  -6  11    1.77    0.47
   0  -6  11    2.18    0.45
   0  -6 -11    2.92    0.59
   0  -6 -11    2.07    0.44
   0   6  11    2.77    0.59
   0   6 -11    3.12    0.62
   1  -6  11    6.92    0.78
  -1  -6 -11    7.32    0.98
  -1  -6 -11    7.36    0.82
   1   6  11    9.29    1.04
  -1   6 -11    9.87    0.94
  -2  -6 -11   28.19    1.96
   2  -6  11   29.83    1.93
  -2  -6 -11   26.69    2.10
  -2   6 -11   26.04    1.89
  -2   6 -11   27.54    2.06
  -3  -6 -11   35.24    2.46
  -3  -6 -11   36.49    2.59
  -3   6 -11   34.83    2.51
  -4  -6 -11    4.52    0.79
  -4  -6 -11    6.93    0.86
  -4   6 -11    6.23    0.78
  -5  -6 -11    1.45    0.51
  -5  -6 -11    1.64    0.55
  -5   6 -11    2.03    0.48
  -6  -6 -11    9.30    1.07
  -6  -6 -11    9.69    1.18
  -6   6 -11    9.15    0.86
  -7  -6 -11    6.33    1.00
  -7  -6 -11    5.66    0.74
  -8  -6 -11    2.05    0.71
  -9  -6 -11    0.32    0.48
 -10   7  11    0.97    0.69
  -9  -7  11    2.64    0.74
  -9  -7  11    2.11    0.57
  -9   7  11    2.83    0.85
  -8  -7  11    6.99    1.03
  -8  -7  11    6.15    0.87
  -8   7  11    7.51    0.80
  -8   7  11    6.41    1.01
  -7  -7  11   11.30    1.25
  -7  -7  11   10.78    1.20
   7  -7 -11   11.52    1.39
  -7   7  11   10.81    1.28
  -7   7  11   10.77    1.09
  -6  -7  11    1.05    0.37
  -6  -7  11    0.07    0.44
  -6  -7  11    0.54    0.47
  -6   7  11    0.80    0.52
  -6   7  11    0.80    0.46
  -6   7  11   -0.09    0.26
  -5  -7  11   10.29    1.21
  -5  -7  11   11.40    1.22
  -5  -7  11   12.17    1.13
  -5   7  11   12.01    1.21
  -5   7  11   10.29    0.95
  -5   7  11   11.97    1.15
  -4  -7  11   26.21    2.06
  -4  -7  11   27.76    2.18
  -4  -7  11   27.75    2.18
  -4   7  11   29.26    1.98
  -4   7  11   30.51    2.10
  -4   7  11   27.47    2.15
  -3  -7  11   12.68    1.29
  -3  -7  11   13.37    1.20
  -3  -7  11   10.67    1.25
   3   7 -11   15.11    1.27
  -3   7  11   14.11    1.14
  -3   7  11   14.86    1.31
  -3   7  11   13.65    1.18
  -2  -7  11    2.49    0.51
  -2  -7  11    2.91    0.61
  -2  -7  11    2.44    0.60
  -2   7  11    1.95    0.48
  -2   7  11    2.08    0.60
  -2   7  11    2.13    0.50
   2   7 -11    3.64    0.67
   1  -7 -11    3.01    0.74
  -1  -7  11    4.35    0.71
  -1  -7  11    2.88    0.52
   1  -7 -11    3.26    0.67
  -1  -7  11    3.52    0.66
   1   7 -11    3.58    0.67
  -1   7  11    4.07    0.70
  -1   7  11    4.77    0.63
   0  -7 -11   53.68    3.83
   0  -7  11   58.20    3.71
   0  -7 -11   55.74    3.95
   0  -7 -11   58.61    3.66
   0   7  11   53.07    3.80
   0   7 -11   62.81    3.87
   1  -7  11   32.84    2.30
  -1  -7 -11   29.44    2.43
  -1  -7 -11   34.19    2.30
   1   7  11   36.67    2.47
  -1   7 -11   35.63    2.47
  -2  -7 -11    2.21    0.47
   2  -7  11    1.26    0.37
  -2  -7 -11    1.69    0.59
  -2   7 -11    1.92    0.54
  -3  -7 -11    1.66    0.57
  -3  -7 -11    1.30    0.45
  -3   7 -11    2.49    0.58
  -4  -7 -11   12.32    1.32
  -4  -7 -11   14.66    1.26
  -4   7 -11   12.26    1.21
  -5  -7 -11   15.06    1.42
  -5  -7 -11   15.21    1.39
  -5   7 -11   14.85    1.28
  -6  -7 -11    2.44    0.61
  -6  -7 -11    3.76    0.76
  -6   7 -11    3.79    0.56
  -7  -7 -11    0.78    0.42
  -7  -7 -11    0.78    0.57
  -8  -7 -11    3.11    0.71
  -9  -7 -11    2.73    0.72
 -10   8  11    1.45    0.59
  -9  -8  11    0.76    0.47
  -9   8  11    1.24    0.57
  -8  -8  11    0.45    0.42
  -8   8  11    0.36    0.33
  -8   8  11    0.37    0.52
  -7  -8  11    6.93    0.98
  -7   8  11    4.92    0.82
  -7   8  11    4.58    0.92
  -6  -8  11   14.57    1.51
  -6   8  11   15.56    1.50
  -6   8  11   14.66    1.47
  -6   8  11   18.43    1.21
  -5  -8  11   10.04    1.22
  -5  -8  11   10.87    1.05
  -5   8  11    8.88    0.88
  -5   8  11   10.81    1.19
  -5   8  11    8.45    1.16
  -4  -8  11    0.39    0.48
  -4  -8  11    0.13    0.33
  -4   8  11    0.16    0.33
  -4   8  11    0.49    0.45
  -4   8  11    0.07    0.38
  -3  -8  11   10.29    1.23
  -3  -8  11   11.00    1.07
  -3   8  11   11.79    1.10
   3   8 -11   10.23    1.13
  -3   8  11   10.50    1.17
  -3   8  11   10.72    1.02
  -2  -8  11   42.71    2.91
  -2  -8  11   41.83    2.79
  -2   8  11   43.20    2.91
  -2   8  11   37.27    2.76
  -2   8  11   38.62    2.72
   2   8 -11   38.21    2.87
  -1  -8  11   35.83    2.63
   1  -8 -11   34.64    2.64
  -1  -8  11   35.65    2.51
  -1   8  11   37.33    2.66
   1   8 -11   38.32    2.68
  -1   8  11   35.47    2.50
   0  -8 -11    2.52    0.65
   0  -8  11    1.40    0.38
   0   8 -11    2.78    0.67
   0   8  11    1.31    0.51
  -1  -8 -11    4.34    0.77
  -1  -8 -11    3.80    0.56
   1  -8  11    4.06    0.58
  -1   8 -11    4.62    0.78
   1   8  11    4.19    0.72
  -2  -8 -11   19.05    1.49
  -2  -8 -11   19.74    1.70
  -2   8 -11   20.07    1.67
  -3  -8 -11   23.09    1.76
  -3  -8 -11   21.58    1.90
  -3   8 -11   24.12    1.87
  -4  -8 -11    5.51    0.77
  -4  -8 -11    3.74    0.80
  -4   8 -11    4.79    0.80
  -5  -8 -11    0.67    0.48
  -5  -8 -11    2.55    0.68
  -5   8 -11    1.41    0.51
  -6  -8 -11    9.93    1.20
  -6  -8 -11    8.84    1.11
  -6   8 -11    9.87    0.92
  -7  -8 -11    4.02    0.84
  -7  -8 -11    3.53    0.66
  -8  -8 -11    2.45    0.72
  -9  -9  11    3.57    0.63
  -9   9  11    1.18    0.53
  -8  -9  11    7.18    0.99
  -8   9  11    6.09    0.78
  -8   9  11    6.70    1.10
  -7  -9  11    2.76    0.77
  -7   9  11    5.27    0.92
  -7   9  11    5.15    0.82
  -6  -9  11    1.47    0.61
  -6   9  11    0.93    0.59
  -6   9  11    1.13    0.34
  -6   9  11    0.85    0.62
  -5  -9  11   11.34    1.34
  -5   9  11   14.52    1.40
  -5   9  11   12.00    1.03
  -5   9  11   10.41    1.25
  -4  -9  11   21.39    1.77
  -4  -9  11   20.90    1.63
  -4   9  11   18.64    1.62
  -4   9  11   16.28    1.67
  -4   9  11   19.36    1.51
  -3  -9  11   12.07    1.39
  -3  -9  11   12.17    1.14
  -3   9  11   12.78    1.31
   3   9 -11   10.53    1.66
  -3   9  11   11.17    1.15
  -3   9  11    9.59    1.23
  -2  -9  11    1.16    0.43
  -2  -9  11    1.18    0.58
  -2   9  11    1.50    0.46
  -2   9  11    1.66    0.57
  -2   9  11    1.92    0.65
   1  -9 -11    7.56    1.07
  -1  -9  11    9.37    1.01
  -1  -9  11   11.29    1.14
  -1   9  11   11.53    1.00
  -1   9  11   10.95    1.16
   1   9 -11    6.68    1.03
   0  -9 -11   35.76    2.63
   0  -9  11   36.23    2.45
   0   9 -11   33.10    2.60
  -1  -9 -11   28.68    2.43
  -1   9 -11   33.58    2.45
   1   9  11   36.49    3.11
  -2  -9 -11    3.23    0.77
  -2   9 -11    3.39    0.71
  -3  -9 -11    2.44    0.72
  -3  -9 -11    1.83    0.50
  -3   9 -11    1.91    0.57
  -4  -9 -11    8.43    1.18
  -4  -9 -11   11.13    1.16
  -4   9 -11    8.96    1.10
  -5  -9 -11   12.69    1.23
  -5  -9 -11   11.38    1.39
  -5   9 -11   11.58    1.17
  -6  -9 -11    2.74    0.66
  -6  -9 -11    3.22    0.74
  -6   9 -11    2.51    0.52
  -7  -9 -11    0.38    0.40
  -7  -9 -11    0.09    0.46
  -8  -9 -11    1.87    0.58
  -9 -10  11    1.25    0.48
  -9  10  11    1.21    0.68
  -8 -10  11    0.92    0.54
  -8  10  11    0.34    0.40
  -8  10  11    0.53    0.63
  -7 -10  11    4.07    0.84
  -7  10  11    5.29    0.91
  -7  10  11    5.54    0.96
  -6 -10  11    8.05    1.15
  -6  10  11    7.72    1.16
  -6  10  11    8.21    0.76
  -6  10  11    8.06    1.14
  -5 -10  11    4.85    0.94
  -5  10  11    4.90    0.65
  -5  10  11    3.68    0.85
  -5  10  11    5.38    0.90
  -4 -10  11    0.66    0.61
  -4  10  11    0.43    0.48
  -4  10  11    0.19    0.43
  -4  10  11    0.70    0.41
  -3 -10  11    9.19    1.19
  -3  10  11    9.44    1.16
  -3  10  11    7.83    0.95
  -3  10  11    7.15    1.11
  -2 -10  11   29.42    2.29
  -2 -10  11   32.28    2.18
   2  10 -11   27.22    2.26
  -2  10  11   29.31    2.13
  -2  10  11   28.68    2.29
  -2  10  11   25.52    2.18
  -1 -10  11   13.33    1.28
  -1 -10  11   19.99    2.27
   1 -10 -11   17.19    1.62
  -1  10  11   15.20    1.42
   1  10 -11   13.42    1.48
  -1  10  11   15.99    1.36
  -1  10  11   15.67    1.52
   0 -10 -11    1.29    0.55
   0 -10  11    1.74    0.44
   0  10 -11    2.36    0.69
   0  10  11    1.72    0.56
  -1 -10 -11    3.05    0.73
  -1  10 -11    2.38    0.65
  -2 -10 -11   12.92    1.49
  -2  10 -11   11.59    1.39
  -3 -10 -11   16.04    1.67
  -3  10 -11   18.81    1.64
  -4 -10 -11    3.63    0.90
  -4  10 -11    4.41    0.78
  -5 -10 -11    0.64    0.45
  -5 -10 -11    1.19    0.64
  -5  10 -11    0.99    0.45
  -6 -10 -11    2.52    0.67
  -6 -10 -11    3.91    0.71
  -6  10 -11    3.42    0.58
  -7 -10 -11    3.67    0.66
  -7 -10 -11    4.77    0.74
  -8 -11  11    3.91    0.74
  -8  11  11    4.25    0.96
  -8  11  11    2.65    0.52
  -7 -11  11    3.03    0.72
  -7  11  11    2.57    0.66
  -7  11  11    1.16    0.68
  -6 -11  11    0.68    0.51
  -6  11  11    0.36    0.29
  -6  11  11    0.26    0.53
  -6  11  11   -0.29    0.52
  -5 -11  11    2.36    0.76
  -5  11  11    3.34    0.80
  -5  11  11    2.85    0.55
  -5  11  11    4.45    0.85
  -4 -11  11   14.51    1.64
  -4  11  11   12.58    1.41
  -4  11  11   12.15    1.17
  -4  11  11   11.85    1.48
  -3 -11  11    8.20    1.24
  -3  11  11   11.44    1.33
  -3  11  11   11.53    1.18
  -3  11  11   13.73    1.39
  -2 -11  11    0.53    0.55
  -2  11  11    0.66    0.54
   2  11 -11    0.71    0.61
  -2  11  11    0.30    0.37
  -2  11  11    0.59    0.50
  -1  11  11    2.35    0.66
  -1  11  11    3.10    0.68
   1  11 -11    3.22    0.83
  -1  11  11    2.31    0.68
   0 -11 -11   13.45    1.44
   0  11  11   13.55    1.42
   0  11 -11   10.82    1.42
  -1 -11 -11    9.72    1.35
  -1  11 -11   10.03    1.31
  -2 -11 -11    3.33    0.80
  -2  11 -11    1.16    0.59
  -3 -11 -11    1.40    0.67
  -3  11 -11    1.61    0.69
  -4 -11 -11    9.08    1.27
  -4  11 -11    6.85    1.03
  -5 -11 -11    6.23    1.04
  -5  11 -11    5.77    0.86
  -6 -11 -11    2.98    0.69
  -6  11 -11    2.40    0.50
  -7 -11 -11    0.01    0.40
  -7 -12  11    2.53    0.68
  -7  12  11    3.26    0.74
  -7  12  11    4.37    0.77
  -6 -12  11    4.60    0.93
  -6  12  11    3.33    0.78
  -6  12  11    3.31    0.81
  -5 -12  11    5.56    1.03
  -5  12  11    4.18    0.92
  -5  12  11    4.22    0.61
  -5  12  11    2.47    0.73
  -4 -12  11    1.10    0.59
  -4  12  11    0.50    0.53
  -4  12  11    0.40    0.43
  -4  12  11    0.64    0.51
  -3 -12  11    4.64    0.96
  -3  12  11    4.33    0.76
  -3  12  11    3.19    0.86
  -3  12  11    2.66    0.77
  -2 -12  11   13.97    1.56
  -2  12  11   10.43    1.33
   2  12 -11   12.43    1.54
  -2  12  11   13.19    1.62
  -2  12  11   10.83    1.23
  -1  12  11    7.08    1.04
  -1  12  11    6.21    1.01
   1  12 -11    6.94    1.20
  -1  12  11    5.05    0.85
   0 -12 -11    0.69    0.57
   0  12  11    0.54    0.49
   0  12 -11   -1.12    0.34
  -1 -12 -11    0.42    0.58
  -1  12 -11    1.18    0.59
  -2 -12 -11    8.36    1.24
  -2  12 -11    7.30    1.13
  -3 -12 -11    7.53    1.19
  -3  12 -11    7.02    1.09
  -4 -12 -11    1.13    0.65
  -4  12 -11    0.66    0.54
  -5 -12 -11    0.82    0.61
  -5  12 -11    0.32    0.43
  -6 -12 -11    1.25    0.52
  -6 -13  11    0.10    0.58
  -6  13  11   -0.05    0.43
  -6  13  11    0.35    0.51
  -5 -13  11    0.68    0.61
  -5  13  11    2.29    0.68
  -5  13  11    3.24    0.87
  -5  13  11    2.50    0.50
  -4 -13  11    7.19    1.14
  -4  13  11    6.78    1.05
  -4  13  11    5.48    0.77
  -4  13  11    6.04    0.96
  -3 -13  11    3.43    0.87
  -3  13  11    4.18    0.88
  -3  13  11    3.99    0.73
  -3  13  11    3.57    0.80
  -2  13  11    0.86    0.63
  -2  13  11    0.07    0.41
   2  13 -11    0.85    0.60
  -2  13  11    0.15    0.54
  -1  13  11    2.79    0.73
  -1  13  11    2.80    0.64
   1  13 -11    3.46    0.93
  -1  13  11    1.73    0.65
   0  13  11    7.40    1.19
   0  13  11    7.41    1.11
   0  13 -11    7.99    1.23
  -1 -13 -11    6.60    1.11
  -1  13 -11    7.00    1.16
  -2 -13 -11    0.73    0.73
  -2  13 -11    1.32    0.67
  -3 -13 -11    0.79    0.62
  -3  13 -11    1.45    0.62
  -4 -13 -11    3.28    0.80
  -4  13 -11    4.72    0.83
  -5 -13 -11    4.32    0.82
  -5  13 -11    3.38    0.66
  -5 -14  11    1.43    0.76
  -5  14  11    2.20    0.44
  -5  14  11    1.84    0.73
  -5  14  11    1.96    0.64
  -4 -14  11    0.55    0.61
  -4  14  11    0.16    0.42
  -4  14  11    0.17    0.41
  -4  14  11    0.46    0.51
  -3 -14  11    2.52    0.80
  -3  14  11    2.82    0.84
  -3  14  11    3.24    0.76
  -3  14  11    1.42    0.52
  -2  14  11    5.39    0.86
   2  14 -11    6.34    1.16
  -2  14  11    7.92    1.18
  -2  14  11    8.01    1.15
  -1  14  11    3.98    0.88
  -1  14  11    4.07    0.93
   1  14 -11    5.79    1.08
  -1  14  11    3.19    0.70
   0  14  11    1.14    0.66
   0  14  11    0.29    0.52
   0  14 -11    1.39    0.73
  -1 -14 -11    0.59    0.57
  -1  14 -11    1.01    0.58
  -2 -14 -11    4.08    0.95
  -2  14 -11    4.79    0.94
  -3 -14 -11    4.82    0.93
  -3  14 -11    5.04    0.92
  -2  15  11   -0.04    0.46
  -2  15  11    0.59    0.49
  -2  15  11    0.81    0.48
  -1  15  11    0.74    0.62
  -1  15  11    0.73    0.47
   1  15 -11    1.66    0.66
  -1  15  11    0.93    0.60
   0  15  11    4.08    0.85
   0  15 -11    6.34    1.08
 -11   0  12    2.06    0.65
 -10   0  12   -0.35    0.53
  -9   0  12    4.00    0.83
  -9   0  12    5.02    0.61
  -9   0  12    5.98    0.65
  -8   0  12    8.82    1.11
  -8   0  12   13.19    1.08
  -8   0  12   12.28    1.21
  -7   0  12    9.51    1.02
  -7   0  12   10.65    0.98
  -7   0  12   10.52    0.96
  -7   0  12   11.17    1.09
  -6   0  12   12.03    1.12
  -6   0  12   12.41    1.07
  -6   0  12   12.32    1.16
  -6   0  12   14.69    1.09
  -6   0  12   12.46    1.04
  -5   0  12    7.18    0.69
  -5   0  12    5.78    0.66
  -5   0  12    6.84    0.74
  -5   0  12    6.15    0.74
  -5   0  12    5.12    0.79
   5   0 -12    7.65    1.03
  -4   0  12   49.85    3.12
  -4   0  12   47.49    3.16
  -4   0  12   49.14    3.25
  -4   0  12   48.85    3.10
   4   0 -12   45.96    3.37
  -3   0  12   50.53    3.25
  -3   0  12   53.87    3.31
  -3   0  12   51.93    3.26
   3   0 -12   54.38    3.57
   3   0 -12   50.78    3.40
  -3   0  12   47.83    3.40
   2   0 -12   12.59    1.11
  -2   0  12   13.44    1.03
  -2   0  12   13.98    1.16
  -1   0  12    2.16    0.45
   1   0 -12    2.07    0.45
  -1   0  12    2.56    0.42
   0   0 -12   32.59    2.10
   0   0  12   26.42    2.04
  -1   0 -12   92.28    5.83
  -2   0 -12   35.49    2.38
  -2   0 -12   33.79    2.38
  -3   0 -12   -0.41    0.26
  -3   0 -12    0.00    0.37
  -4   0 -12   10.97    1.10
  -4   0 -12   13.57    1.09
  -5   0 -12   17.70    1.55
  -5   0 -12   19.20    1.43
  -6   0 -12    9.29    0.86
  -6   0 -12   10.00    1.16
  -7   0 -12    0.10    0.50
  -8   0 -12    2.25    0.68
  -9   0 -12    2.76    0.72
 -10   0 -12    1.41    0.56
 -11  -1  12    1.10    0.62
 -11   1  12    1.14    0.59
 -10  -1  12    7.38    1.09
 -10   1  12    6.48    1.05
  -9  -1  12    6.39    0.70
  -9  -1  12    5.37    0.94
  -9   1  12    5.27    0.87
  -9   1  12    5.91    0.65
  -8  -1  12    1.28    0.53
  -8  -1  12    0.38    0.38
  -8   1  12    0.11    0.45
  -8   1  12    0.74    0.40
  -7  -1  12    3.90    0.56
  -7  -1  12    2.83    0.51
  -7  -1  12    2.49    0.54
   7  -1 -12    3.04    0.72
  -7  -1  12    2.94    0.58
  -7  -1  12    2.33    0.58
  -7   1  12    2.62    0.50
  -7   1  12    2.77    0.57
  -7   1  12    2.22    0.44
  -7   1  12    2.95    0.64
  -6  -1  12   15.50    1.38
  -6  -1  12   19.36    1.45
   6  -1 -12   22.07    1.72
  -6  -1  12   18.57    1.40
  -6  -1  12   18.22    1.38
  -6  -1  12   17.65    1.50
  -6   1  12   16.24    1.44
  -6   1  12   17.29    1.49
  -6   1  12   20.51    1.38
  -6   1  12   17.68    1.37
  -6   1  12   17.79    1.35
  -5  -1  12   30.09    2.03
  -5  -1  12   25.49    2.02
  -5  -1  12   31.88    2.07
  -5  -1  12   27.23    2.11
   5  -1 -12   27.36    2.28
  -5   1  12   30.23    2.15
  -5   1  12   32.15    2.08
  -5   1  12   29.31    1.97
  -5   1  12   29.00    1.98
  -5   1  12   31.52    2.05
  -4  -1  12    9.60    1.01
  -4  -1  12    9.99    0.86
  -4  -1  12   10.90    0.85
   4  -1 -12   11.02    1.18
  -4  -1  12   10.74    0.93
  -4   1  12    8.47    0.79
  -4   1  12   11.19    0.87
  -4   1  12   10.35    0.85
  -4   1  12    9.36    0.97
  -4   1  12    8.54    0.78
  -3  -1  12    4.67    0.71
   3  -1 -12    3.39    0.74
  -3  -1  12    4.83    0.55
  -3   1  12    5.61    0.60
  -3   1  12    5.14    0.52
   3   1 -12    6.38    0.78
  -3   1  12    5.08    0.70
  -3   1  12    5.66    0.58
   2  -1 -12   61.59    3.76
  -2  -1  12   56.18    3.65
  -2  -1  12   60.87    3.79
   2  -1 -12   56.78    3.89
   2   1 -12   53.51    3.73
  -2   1  12   61.93    3.66
  -2   1  12   58.47    3.56
  -2   1  12   50.34    3.73
  -1  -1  12   95.32    5.63
  -1  -1  12   98.08    5.52
   1  -1 -12   92.52    5.62
  -1   1  12   91.11    5.61
  -1   1  12   85.17    5.49
   1   1 -12   70.36    5.55
   0  -1  12   23.75    1.70
   0  -1 -12   21.81    1.69
   0   1 -12   20.95    1.68
   0   1  12   25.53    1.72
  -1  -1 -12    3.88    0.63
  -1   1 -12    3.39    0.58
  -2  -1 -12   22.03    1.67
  -2  -1 -12   20.67    1.64
  -2   1 -12   20.90    1.61
  -2   1 -12   24.70    1.67
  -3  -1 -12   26.36    2.24
  -3  -1 -12   35.10    2.28
  -3   1 -12   29.25    2.23
  -3   1 -12   37.98    2.30
  -4  -1 -12   21.43    1.54
  -4  -1 -12   19.95    1.57
  -4   1 -12   16.70    1.53
  -4   1 -12   19.83    1.51
  -5  -1 -12    0.29    0.33
  -5  -1 -12    0.19    0.44
  -5   1 -12    0.83    0.34
  -5   1 -12    0.61    0.39
  -6  -1 -12    6.53    0.73
  -6  -1 -12    6.78    0.91
  -6   1 -12    5.74    0.70
  -6   1 -12    7.03    0.90
  -7  -1 -12   12.42    1.31
  -7  -1 -12    8.93    0.87
  -7   1 -12   12.78    1.19
  -8  -1 -12    3.16    0.73
  -8   1 -12    3.27    0.70
  -9  -1 -12    0.25    0.56
  -9   1 -12   -0.29    0.44
 -10  -1 -12   -0.25    0.46
 -10   1 -12    0.21    0.44
 -11  -2  12    0.98    0.70
 -11   2  12    2.42    0.72
 -10  -2  12   -0.08    0.51
 -10   2  12   -0.10    0.53
  -9  -2  12    2.04    0.69
  -9  -2  12    2.56    0.49
  -9   2  12    3.33    0.46
  -9   2  12    2.35    0.67
  -8  -2  12   10.25    1.19
  -8  -2  12    9.68    0.99
  -8  -2  12    9.84    0.99
   8  -2 -12    9.96    1.22
  -8   2  12    9.60    0.94
  -8   2  12   10.16    1.19
  -7  -2  12   13.74    1.17
  -7  -2  12   13.14    1.21
  -7  -2  12   15.12    1.30
   7  -2 -12   16.31    1.51
  -7  -2  12   13.37    1.24
  -7   2  12   15.47    1.31
  -7   2  12   12.42    1.22
  -7   2  12   12.07    1.11
  -6  -2  12    1.60    0.51
   6  -2 -12    1.17    0.50
  -6  -2  12    0.75    0.40
  -6  -2  12    0.61    0.32
  -6  -2  12    1.09    0.38
  -6  -2  12    0.88    0.32
  -6   2  12    1.15    0.45
  -6   2  12    1.14    0.43
  -6   2  12    1.53    0.34
   5  -2 -12    7.31    1.05
  -5  -2  12    6.24    0.70
  -5  -2  12    5.67    0.70
  -5  -2  12    5.18    0.69
  -5  -2  12    8.04    0.90
  -5   2  12    5.20    0.65
  -5   2  12    5.81    0.72
  -5   2  12    4.55    0.56
  -5   2  12    5.27    0.63
  -5   2  12    5.09    0.76
  -4  -2  12   60.83    3.83
  -4  -2  12   62.20    3.91
   4  -2 -12   66.34    4.20
  -4  -2  12   58.59    3.86
  -4  -2  12   54.59    3.96
  -4   2  12   57.93    3.77
  -4   2  12   64.33    3.84
  -4   2  12   58.37    3.96
  -4   2  12   61.48    3.86
  -3  -2  12   52.95    3.22
  -3  -2  12   45.96    3.26
   3  -2 -12   41.08    3.37
   3   2 -12   51.64    3.26
  -3   2  12   48.92    3.13
  -3   2  12   50.77    3.13
  -3   2  12   47.90    3.05
  -3   2  12   50.56    3.25
  -2  -2  12   12.79    1.04
  -2   2  12    9.17    0.76
  -2   2  12    8.27    0.92
   2   2 -12    9.43    0.94
  -2   2  12   10.47    0.84
   1  -2 -12    0.88    0.45
   1  -2 -12    1.37    0.41
  -1  -2  12    0.87    0.30
  -1  -2  12    0.98    0.42
   1   2 -12    1.52    0.39
  -1   2  12    2.08    0.47
  -1   2  12    1.82    0.36
   0  -2  12   28.36    2.33
   0  -2 -12   38.00    2.49
   0  -2 -12   27.06    2.32
   0   2 -12   38.17    2.41
   0   2  12   41.23    2.42
  -1  -2 -12   61.16    4.46
  -1  -2 -12   65.30    4.44
   1   2  12   78.43    4.92
  -1   2 -12   77.54    4.53
  -2  -2 -12   22.93    1.65
  -2  -2 -12   20.93    1.60
  -2   2 -12   19.06    1.60
  -2   2 -12   23.10    1.60
  -3  -2 -12    2.35    0.56
  -3  -2 -12    2.94    0.56
  -3   2 -12    1.62    0.47
  -3   2 -12    2.22    0.51
  -4  -2 -12   27.24    1.85
  -4  -2 -12   23.40    1.85
  -4   2 -12   20.65    1.76
  -4   2 -12   25.74    1.80
  -5  -2 -12   21.74    1.50
  -5  -2 -12   18.86    1.58
  -5   2 -12   16.81    1.42
  -5   2 -12   17.61    1.50
  -6  -2 -12    9.95    1.20
  -6  -2 -12   10.38    0.91
  -6   2 -12    8.49    0.86
  -6   2 -12   10.85    1.06
  -7  -2 -12    1.43    0.67
  -7  -2 -12    1.34    0.33
  -7   2 -12    0.96    0.52
  -8  -2 -12    1.85    0.76
  -8   2 -12    3.15    0.68
  -9  -2 -12    3.94    0.80
  -9   2 -12    2.85    0.68
 -10  -2 -12    1.17    0.48
 -11  -3  12   -0.41    0.51
 -11   3  12   -0.21    0.54
 -10  -3  12    3.04    0.75
 -10   3  12    2.80    0.76
  -9  -3  12    4.92    0.66
  -9  -3  12    4.65    0.90
   9  -3 -12    4.64    1.09
  -9   3  12    5.12    0.69
  -9   3  12    3.07    0.74
   8  -3 -12    0.63    0.47
  -8  -3  12    0.00    0.39
  -8  -3  12    0.16    0.39
  -8  -3  12    0.43    0.48
  -8   3  12    0.31    0.32
  -8   3  12    0.16    0.53
  -7  -3  12    6.51    0.81
  -7  -3  12    7.60    0.92
  -7  -3  12    5.30    0.81
   7  -3 -12    7.41    1.12
  -7  -3  12    6.87    0.89
  -7   3  12    7.47    0.90
  -7   3  12    7.63    0.97
   6  -3 -12   21.69    1.96
  -6  -3  12   23.07    1.70
  -6  -3  12   20.77    1.70
  -6  -3  12   21.93    1.70
  -6  -3  12   26.07    1.84
  -6   3  12   24.40    1.77
  -6   3  12   21.37    1.74
  -5  -3  12   22.57    1.64
  -5  -3  12   24.38    1.81
  -5  -3  12   20.09    1.67
   5  -3 -12   20.89    1.93
  -5  -3  12   23.69    1.72
  -5   3  12   24.84    1.71
  -5   3  12   23.40    1.64
  -5   3  12   23.17    1.78
  -5   3  12   22.60    1.59
  -4  -3  12    4.03    0.61
  -4  -3  12    3.67    0.67
  -4  -3  12    6.03    0.69
   4  -3 -12    4.87    0.89
  -4  -3  12    5.52    0.60
  -4   3  12    7.55    0.75
  -4   3  12    5.07    0.61
  -4   3  12    5.18    0.71
  -3  -3  12    3.40    0.57
   3  -3 -12    4.94    0.86
  -3  -3  12    2.82    0.57
   3   3 -12    2.43    0.53
  -3   3  12    3.65    0.51
  -3   3  12    3.01    0.59
  -3   3  12    3.65    0.49
  -2  -3  12   51.11    3.40
   2  -3 -12   52.46    3.37
   2  -3 -12   57.32    3.61
  -2  -3  12   48.84    3.32
  -2   3  12   51.75    3.23
  -2   3  12   40.68    3.34
  -2   3  12   57.94    3.29
   2   3 -12   47.20    3.37
   1  -3 -12   71.61    4.31
  -1  -3  12   64.32    4.29
   1  -3 -12   64.88    4.44
  -1   3  12   59.76    4.17
  -1   3  12   73.70    4.35
  -1   3  12   65.94    4.13
   1   3 -12   64.23    4.31
   0  -3 -12   13.34    1.20
   0  -3  12   10.76    1.01
   0  -3 -12    9.73    1.00
   0   3 -12    8.64    0.98
   0   3  12   12.41    1.07
  -1  -3 -12    3.19    0.51
  -1  -3 -12    2.34    0.53
  -1   3 -12    2.41    0.54
   1   3  12    3.34    0.65
  -2  -3 -12   36.78    2.51
  -2  -3 -12   32.19    2.45
  -2   3 -12   38.92    2.45
  -2   3 -12   35.32    2.50
  -3  -3 -12   33.40    2.42
  -3  -3 -12   35.91    2.45
  -3   3 -12   36.33    2.43
  -3   3 -12   32.38    2.36
  -4  -3 -12   13.46    1.23
  -4  -3 -12   15.85    1.25
  -4   3 -12   10.58    1.10
  -4   3 -12   13.68    1.16
  -5  -3 -12    0.04    0.35
  -5  -3 -12   -0.23    0.41
  -5   3 -12    0.46    0.39
  -5   3 -12    0.40    0.34
  -6  -3 -12    6.81    0.83
  -6  -3 -12    7.93    1.08
  -6   3 -12    7.62    0.74
  -6   3 -12    6.91    0.89
  -7  -3 -12   10.55    1.33
  -7  -3 -12   10.40    0.91
  -7   3 -12   11.75    1.12
  -8  -3 -12    4.52    0.88
  -8   3 -12    4.28    0.77
  -9  -3 -12    0.42    0.63
 -10  -3 -12    0.00    0.39
 -11  -4  12   -0.27    0.55
 -11   4  12    0.59    0.60
 -10  -4  12    0.43    0.63
 -10   4  12    0.02    0.55
  -9  -4  12    2.47    0.53
  -9  -4  12    2.13    0.70
  -9   4  12    3.04    0.76
  -8  -4  12   12.15    1.17
   8  -4 -12   13.09    1.45
  -8  -4  12   13.48    1.37
  -8   4  12   10.30    1.06
  -8   4  12   12.15    1.38
  -7  -4  12   11.96    1.08
  -7  -4  12   11.84    1.14
  -7  -4  12   12.92    1.16
  -7  -4  12   11.67    1.21
   7  -4 -12    9.41    1.33
  -7  -4  12    8.91    1.26
  -7   4  12   11.84    1.26
  -7   4  12    9.47    1.06
  -6  -4  12    2.39    0.50
   6  -4 -12    2.49    0.75
  -6  -4  12    3.55    0.60
  -6  -4  12    3.87    0.64
  -6  -4  12    4.02    0.72
  -6   4  12    4.27    0.68
  -6   4  12    3.86    0.63
  -5  -4  12    6.89    0.93
   5  -4 -12    8.42    1.19
  -5  -4  12    6.79    0.82
  -5  -4  12    8.27    0.80
  -5  -4  12    6.73    0.86
  -5   4  12    7.13    0.92
  -5   4  12    8.68    0.94
  -5   4  12    8.40    0.81
  -4  -4  12   46.17    3.08
   4  -4 -12   42.77    3.20
  -4  -4  12   43.22    2.97
  -4   4  12   41.39    2.92
  -4   4  12   47.30    3.06
  -4   4  12   45.01    2.89
  -3  -4  12   47.00    2.98
  -3  -4  12   44.19    2.88
   3  -4 -12   43.38    3.11
  -3   4  12   41.55    2.79
  -3   4  12   40.40    2.92
  -3   4  12   43.50    2.79
   3   4 -12   38.16    2.89
  -2  -4  12    6.05    0.72
   2  -4 -12    7.65    0.89
  -2  -4  12    5.05    0.77
   2  -4 -12    7.28    1.05
  -2   4  12    7.76    0.67
  -2   4  12    7.40    0.90
  -2   4  12    8.15    0.74
   2   4 -12    6.17    0.80
   1  -4 -12    2.22    0.51
  -1  -4  12    1.84    0.50
  -1  -4  12    3.09    0.51
   1  -4 -12    1.98    0.63
  -1   4  12    2.12    0.39
  -1   4  12    2.49    0.57
  -1   4  12    2.15    0.44
   1   4 -12    1.90    0.49
   0  -4  12   20.15    1.61
   0  -4 -12   21.59    1.77
   0  -4 -12   21.92    1.65
   0  -4  12   19.17    1.53
   0  -4 -12   23.42    1.57
   0   4  12   20.12    1.65
   0   4 -12   20.93    1.64
   0   4  12   20.58    1.46
  -1  -4 -12   70.76    4.72
  -1  -4 -12   85.40    4.87
  -1   4 -12   76.64    4.82
   1   4  12   64.67    4.82
  -2  -4 -12   26.09    1.96
  -2  -4 -12   26.47    2.02
  -2   4 -12   27.33    2.01
  -2   4 -12   29.10    1.93
  -3  -4 -12    3.69    0.66
  -3  -4 -12    4.36    0.70
  -3   4 -12    3.41    0.63
  -3   4 -12    3.23    0.56
  -4  -4 -12   13.59    1.24
  -4  -4 -12   14.43    1.26
  -4   4 -12   13.32    1.19
  -4   4 -12   12.80    1.14
  -5  -4 -12   12.27    1.33
  -5  -4 -12   11.73    1.15
  -5   4 -12   12.58    1.10
  -5   4 -12   11.38    1.07
  -6  -4 -12    7.59    1.08
  -6  -4 -12    7.26    0.88
  -6   4 -12    8.73    1.00
  -6   4 -12    8.28    0.78
  -7  -4 -12    0.91    0.57
  -7  -4 -12    0.44    0.30
  -8  -4 -12    2.83    0.73
  -9  -4 -12    5.08    0.90
 -11  -5  12    0.91    0.58
 -11   5  12    1.59    0.66
 -10  -5  12    3.74    0.80
 -10   5  12    2.65    0.77
  -9  -5  12    5.30    0.93
  -9  -5  12    3.95    0.67
  -9   5  12    4.29    0.89
  -8  -5  12   -0.11    0.51
  -8  -5  12    0.41    0.43
   8  -5 -12    0.31    0.50
  -8   5  12    0.49    0.58
  -8   5  12    0.95    0.41
  -7  -5  12    6.50    0.87
  -7  -5  12    5.19    0.78
   7  -5 -12    5.58    1.01
  -7  -5  12    6.48    0.90
  -7   5  12    7.94    1.00
  -7   5  12    5.95    0.83
  -6  -5  12   21.70    1.69
  -6  -5  12   19.22    1.68
  -6  -5  12   21.55    1.65
   6  -5 -12   24.01    1.99
  -6  -5  12   21.81    1.78
  -6  -5  12   22.09    1.78
  -6   5  12   21.62    1.71
  -6   5  12   20.22    1.70
  -6   5  12   21.14    1.50
  -5  -5  12   19.40    1.39
   5  -5 -12   14.74    1.66
  -5  -5  12   18.07    1.46
  -5  -5  12   17.36    1.44
  -5  -5  12   18.43    1.56
  -5   5  12   15.32    1.49
  -5   5  12   18.39    1.46
  -5   5  12   20.38    1.34
  -4  -5  12    8.36    0.99
   4  -5 -12    5.58    0.97
  -4  -5  12    5.89    0.74
  -4   5  12    5.88    0.68
  -4   5  12    6.28    0.77
  -4   5  12    5.25    0.83
  -3  -5  12    2.55    0.57
   3  -5 -12    1.80    0.61
  -3  -5  12    2.19    0.48
  -3   5  12    2.63    0.50
  -3   5  12    2.42    0.60
  -3   5  12    2.12    0.43
   3   5 -12    2.47    0.54
  -2  -5  12   42.45    2.90
   2  -5 -12   47.17    3.09
   2  -5 -12   43.52    2.87
  -2  -5  12   41.40    2.80
  -2   5  12   42.24    2.74
  -2   5  12   41.73    2.74
   2   5 -12   37.44    2.85
  -2   5  12   34.76    2.85
   1  -5 -12   54.56    3.76
  -1  -5  12   52.16    3.60
  -1  -5  12   53.36    3.52
   1  -5 -12   53.63    3.61
   1   5 -12   53.98    3.62
  -1   5  12   55.73    3.50
  -1   5  12   50.38    3.44
  -1   5  12   56.44    3.64
   0  -5 -12   14.95    1.45
   0  -5  12   15.38    1.24
   0  -5 -12   13.06    1.29
   0  -5 -12   16.91    1.25
   0  -5  12   15.38    1.32
   0   5  12   15.87    1.35
   0   5 -12   16.31    1.35
  -1  -5 -12    2.71    0.50
   1  -5  12    3.86    0.56
  -1  -5 -12    2.20    0.56
   1   5  12    3.50    0.68
  -1   5 -12    2.47    0.54
  -2  -5 -12   15.76    1.43
  -2  -5 -12   21.10    1.58
   2  -5  12   16.07    1.38
  -2   5 -12   20.56    1.56
  -2   5 -12   20.38    1.41
   3  -5  12   23.56    1.73
  -3  -5 -12   25.67    1.86
  -3  -5 -12   24.37    1.91
  -3   5 -12   21.92    1.74
  -3   5 -12   28.05    1.92
  -4  -5 -12   11.12    1.12
  -4  -5 -12   10.22    1.13
  -4   5 -12   11.97    1.09
  -4   5 -12   10.69    0.99
  -5  -5 -12    0.94    0.43
  -5  -5 -12    0.25    0.50
  -5   5 -12    0.59    0.35
  -6  -5 -12    4.17    0.71
  -6  -5 -12    5.82    0.90
  -6   5 -12    5.46    0.66
  -7  -5 -12   10.22    1.29
  -7  -5 -12    8.76    0.89
  -8  -5 -12    2.71    0.74
  -9  -5 -12    0.15    0.52
 -11  -6  12    1.22    0.69
 -11   6  12    0.84    0.61
 -10  -6  12   -0.25    0.55
 -10   6  12    0.08    0.54
  -9  -6  12    2.74    0.73
  -9  -6  12    3.40    0.63
  -9   6  12    2.30    0.76
   8  -6 -12    6.19    1.43
  -8  -6  12    7.25    0.97
  -8  -6  12    5.87    0.96
  -8   6  12    6.54    0.84
  -8   6  12    7.95    1.12
  -7  -6  12    7.05    1.01
   7  -6 -12    7.95    1.22
  -7  -6  12    8.09    1.02
  -7   6  12    8.77    1.03
  -7   6  12    8.65    1.10
  -6  -6  12    3.38    0.60
  -6  -6  12    2.72    0.64
   6  -6 -12    2.92    0.75
  -6  -6  12    4.27    0.68
  -6   6  12    2.38    0.43
  -6   6  12    1.88    0.54
  -6   6  12    2.55    0.63
  -5  -6  12    3.00    0.55
  -5  -6  12    2.52    0.64
  -5  -6  12    4.36    0.66
   5  -6 -12    2.75    0.81
  -5  -6  12    3.39    0.63
  -5  -6  12    3.02    0.69
  -5   6  12    2.00    0.63
  -5   6  12    2.97    0.61
  -5   6  12    2.83    0.48
   4  -6 -12   29.10    2.45
  -4  -6  12   31.78    2.20
  -4  -6  12   35.83    2.35
  -4   6  12   28.03    2.15
  -4   6  12   29.98    2.07
  -4   6  12   27.18    2.27
  -3  -6  12   22.06    1.72
  -3  -6  12   21.85    1.82
   3  -6 -12   19.42    1.93
  -3   6  12   24.80    1.71
  -3   6  12   23.97    1.86
   3   6 -12   23.50    1.82
  -3   6  12   23.13    1.66
  -2  -6  12    0.58    0.34
   2  -6 -12    1.51    0.58
   2  -6 -12    1.10    0.45
  -2  -6  12    0.30    0.39
  -2   6  12    0.09    0.38
  -2   6  12    0.52    0.41
  -2   6  12    0.94    0.39
   2   6 -12    0.39    0.41
   1  -6 -12    5.59    0.93
  -1  -6  12    4.15    0.74
   1  -6 -12    3.98    0.58
  -1  -6  12    3.28    0.55
   1  -6 -12    4.47    0.75
  -1   6  12    4.26    0.69
  -1   6  12    3.01    0.53
  -1   6  12    3.92    0.62
   1   6 -12    5.01    0.82
   0  -6 -12   25.78    1.95
   0  -6 -12   25.60    2.30
   0  -6 -12   28.11    2.15
   0  -6  12   29.55    2.02
   0   6  12   33.50    2.18
   0   6 -12   27.06    2.12
  -1  -6 -12   55.55    3.64
   1  -6  12   54.93    3.64
  -1  -6 -12   54.10    3.79
   1   6  12   62.21    4.03
  -1   6 -12   54.46    3.78
   2  -6  12   20.14    1.55
  -2  -6 -12   20.11    1.60
  -2  -6 -12   22.37    1.76
  -2   6 -12   21.50    1.71
  -2   6 -12   21.23    1.54
  -3  -6 -12    0.97    0.44
  -3  -6 -12    0.41    0.43
  -3   6 -12    0.79    0.39
  -4  -6 -12    7.95    1.10
  -4  -6 -12    8.16    1.04
  -4   6 -12   10.89    1.02
  -5  -6 -12   12.03    1.25
  -5  -6 -12    9.89    1.17
  -5   6 -12    9.24    0.99
  -6  -6 -12    6.08    0.85
  -6  -6 -12    6.28    1.01
  -6   6 -12    5.16    0.68
  -7  -6 -12   -0.47    0.44
  -7  -6 -12    0.16    0.33
  -8  -6 -12    1.80    0.70
  -9  -6 -12    4.53    0.85
 -10  -7  12    3.88    0.81
 -10   7  12    2.75    0.76
  -9  -7  12    1.68    0.55
  -9   7  12    3.89    0.83
  -8  -7  12   -0.15    0.41
  -8  -7  12   -0.23    0.50
  -8   7  12    0.66    0.39
  -8   7  12    0.03    0.56
  -7  -7  12    3.49    0.73
  -7  -7  12    3.73    0.75
   7  -7 -12    4.16    0.92
  -7   7  12    3.27    0.67
  -7   7  12    3.79    0.78
  -6  -7  12   12.93    1.70
  -6  -7  12   12.72    1.30
   6  -7 -12   12.29    1.50
  -6   7  12   11.39    1.26
  -6   7  12   13.30    1.32
  -6   7  12   12.11    0.98
  -5  -7  12   15.98    1.41
  -5  -7  12   18.15    1.58
   5  -7 -12   19.30    1.78
  -5  -7  12   12.70    1.51
  -5   7  12   15.28    1.51
  -5   7  12   16.67    1.27
  -5   7  12   16.17    1.43
  -4  -7  12    3.55    0.74
  -4  -7  12    3.10    0.73
  -4  -7  12    3.59    0.63
   4  -7 -12    4.90    0.95
  -4   7  12    2.20    0.63
  -4   7  12    4.05    0.69
  -4   7  12    3.67    0.59
  -3  -7  12    1.29    0.55
  -3  -7  12    0.98    0.49
   3  -7 -12    1.01    0.57
  -3  -7  12    1.72    0.43
  -3   7  12    1.60    0.47
   3   7 -12    2.19    0.57
  -3   7  12    1.64    0.56
  -3   7  12    0.67    0.38
  -2  -7  12   24.39    1.85
   2  -7 -12   22.06    2.08
  -2  -7  12   27.08    1.99
  -2  -7  12   26.31    1.99
  -2   7  12   24.86    1.97
   2   7 -12   25.40    1.97
  -2   7  12   22.72    1.81
  -2   7  12   25.26    1.82
   1  -7 -12   40.81    3.04
  -1  -7  12   46.41    2.94
   1  -7 -12   44.25    2.89
   1  -7 -12   43.28    3.18
  -1  -7  12   41.72    3.02
  -1  -7  12   41.06    3.01
   1   7 -12   38.82    3.01
  -1   7  12   43.04    3.04
  -1   7  12   43.91    2.91
  -1   7  12   44.92    2.92
   0  -7 -12    7.06    0.99
   0  -7 -12    6.11    0.72
   0  -7  12    5.58    0.75
   0   7 -12    7.02    0.97
   0   7  12    6.52    0.90
  -1  -7 -12    4.66    0.78
  -1  -7 -12    4.14    0.61
   1  -7  12    3.09    0.54
  -1   7 -12    4.32    0.76
   2  -7  12   13.10    1.51
  -2  -7 -12   13.67    1.32
  -2  -7 -12   13.44    1.16
  -2   7 -12   11.71    1.24
  -3  -7 -12   15.69    1.55
  -3  -7 -12   17.63    1.46
  -3   7 -12   19.57    1.58
  -4  -7 -12   13.42    1.25
  -4  -7 -12   12.42    1.29
  -4   7 -12   11.49    1.20
  -5  -7 -12    0.66    0.54
  -5  -7 -12   -0.03    0.45
  -5   7 -12    0.01    0.33
  -6  -7 -12    7.08    0.99
  -6  -7 -12    6.01    0.88
  -6   7 -12    5.75    0.72
  -7  -7 -12    7.09    0.86
  -7  -7 -12    6.71    1.05
  -8  -7 -12    2.97    0.76
 -10   8  12    0.11    0.66
  -9  -8  12    1.39    0.54
  -9   8  12    1.72    0.69
  -8  -8  12    3.87    0.76
  -8   8  12    3.46    0.60
  -8   8  12    2.42    0.77
  -7  -8  12    4.73    0.87
  -7   8  12    4.56    0.84
  -7   8  12    5.36    0.82
  -6  -8  12    2.74    0.74
   6  -8 -12    2.11    0.69
  -6   8  12    2.85    0.72
  -6   8  12    3.55    0.50
  -6   8  12    3.61    0.79
  -5  -8  12    2.58    0.67
  -5  -8  12    1.79    0.67
  -5   8  12    2.59    0.66
  -5   8  12    2.39    0.69
  -5   8  12    2.13    0.46
  -4  -8  12   28.22    2.01
  -4  -8  12   26.35    2.14
  -4   8  12   24.00    1.86
  -4   8  12   25.31    2.11
  -4   8  12   26.32    2.00
  -3  -8  12   26.77    1.99
  -3  -8  12   24.36    1.84
  -3   8  12   23.28    1.79
  -3   8  12   21.79    1.92
   3   8 -12   20.07    1.87
  -3   8  12   23.77    1.77
  -2  -8  12    5.16    0.76
  -2  -8  12    5.81    0.89
   2  -8 -12    5.38    1.02
   2   8 -12    8.03    1.04
  -2   8  12    6.36    0.82
  -2   8  12    4.73    0.74
  -2   8  12    5.50    0.86
   1  -8 -12    0.21    0.49
  -1  -8  12    0.49    0.37
  -1  -8  12    0.38    0.42
   1  -8 -12    0.63    0.53
   1   8 -12    0.08    0.44
  -1   8  12    0.29    0.44
  -1   8  12    0.29    0.39
  -1   8  12    0.38    0.36
   0  -8 -12   11.62    1.29
   0  -8  12   12.22    1.10
   0   8  12   12.72    1.29
   0   8 -12   12.44    1.29
  -1  -8 -12   22.80    1.79
   1  -8  12   25.34    1.83
  -1  -8 -12   24.82    2.05
  -1   8 -12   27.50    2.05
  -2  -8 -12    6.98    1.06
  -2  -8 -12    9.19    0.95
  -2   8 -12    8.83    1.10
  -3  -8 -12   -0.13    0.43
  -3  -8 -12   -0.32    0.35
  -3   8 -12   -0.24    0.41
  -4  -8 -12    9.60    1.06
  -4  -8 -12    7.70    1.07
  -4   8 -12    7.23    0.99
  -5  -8 -12   10.78    1.31
  -5  -8 -12   11.31    1.25
  -5   8 -12   11.20    1.12
  -6  -8 -12    6.08    0.91
  -6  -8 -12    6.48    0.99
  -6   8 -12    6.14    0.76
  -7  -8 -12    0.34    0.49
  -7  -8 -12    0.68    0.40
  -8  -8 -12    0.69    0.53
  -9  -9  12    2.96    0.66
  -9   9  12    3.21    0.83
  -8  -9  12    0.60    0.55
  -8   9  12    0.07    0.52
  -8   9  12    0.54    0.39
  -7  -9  12    0.94    0.55
  -7   9  12    0.96    0.57
  -7   9  12    0.96    0.45
  -6  -9  12    9.33    1.28
  -6   9  12   10.17    0.86
  -6   9  12    8.85    1.21
  -6   9  12    8.89    1.21
  -5  -9  12    9.96    1.29
  -5   9  12    9.91    1.20
  -5   9  12   11.02    0.98
  -5   9  12   12.05    1.38
  -4  -9  12    1.24    0.61
  -4   9  12    3.71    0.61
  -4   9  12    3.82    0.70
  -4   9  12    3.13    0.80
  -3  -9  12    0.98    0.55
  -3  -9  12    0.11    0.41
  -3   9  12    1.08    0.44
  -3   9  12    0.00    0.42
  -3   9  12    1.37    0.52
  -2  -9  12   17.22    1.61
  -2  -9  12   16.93    1.46
  -2   9  12   16.96    1.49
  -2   9  12   17.57    1.65
  -2   9  12   17.03    1.43
   2   9 -12   17.19    1.59
  -1  -9  12   32.45    2.10
  -1  -9  12   27.09    2.20
   1  -9 -12   27.23    2.23
   1   9 -12   26.68    2.21
  -1   9  12   25.29    2.08
  -1   9  12   27.37    2.05
  -1   9  12   28.05    2.23
   0  -9  12    6.98    0.85
   0  -9 -12    7.70    1.09
   0   9 -12    7.51    1.06
   0   9  12   10.23    1.25
  -1  -9 -12    1.99    0.64
  -1   9 -12    0.24    0.51
  -2  -9 -12    5.99    1.00
  -2   9 -12    6.95    0.99
  -3  -9 -12   13.81    1.18
  -3  -9 -12   12.36    1.52
  -3   9 -12   10.86    1.32
  -4  -9 -12   11.63    1.22
  -4  -9 -12   10.14    1.29
  -4   9 -12    9.63    1.23
  -5  -9 -12    0.20    0.42
  -5  -9 -12    0.24    0.53
  -5   9 -12    0.65    0.41
  -6  -9 -12    3.06    0.70
  -6  -9 -12    1.74    0.60
  -6   9 -12    2.34    0.50
  -7  -9 -12    3.02    0.63
  -7  -9 -12    3.38    0.71
  -9 -10  12    1.13    0.50
  -9  10  12    0.26    0.42
  -8 -10  12    4.89    0.84
  -8  10  12    3.93    0.61
  -8  10  12    2.46    0.77
  -7 -10  12    3.70    0.83
  -7  10  12    4.61    0.87
  -7  10  12    4.78    0.86
  -6 -10  12    1.04    0.65
  -6  10  12    1.23    0.37
  -6  10  12    0.18    0.51
  -6  10  12    0.67    0.60
  -5 -10  12    1.82    0.68
  -5  10  12    1.90    0.66
  -5  10  12    3.79    0.84
  -5  10  12    2.00    0.48
  -4 -10  12   11.58    1.43
  -4  10  12   13.15    1.26
  -4  10  12   11.08    1.36
  -4  10  12   11.13    1.10
  -3 -10  12   15.22    1.56
  -3  10  12   15.07    1.56
  -3  10  12   14.83    1.44
  -3  10  12   15.78    1.37
  -2 -10  12    4.34    0.85
  -2  10  12    6.57    1.07
  -2  10  12    4.44    0.82
  -2  10  12    5.23    0.79
   2  10 -12    4.01    0.83
   1 -10 -12   -0.07    0.67
  -1 -10  12    0.48    0.39
   1  10 -12    0.72    0.48
  -1  10  12    0.38    0.54
  -1  10  12   -0.09    0.47
  -1  10  12   -0.02    0.44
   0 -10 -12    6.13    1.02
   0  10 -12    5.07    0.92
   0  10  12    8.44    1.14
  -1 -10 -12   14.35    1.54
  -1  10 -12   14.77    1.49
  -2 -10 -12    7.33    1.08
  -2  10 -12    4.79    0.94
  -3 -10 -12    0.05    0.55
  -3  10 -12   -0.17    0.43
  -4 -10 -12    5.32    1.01
  -4  10 -12    6.23    0.96
  -5 -10 -12    4.07    0.90
  -5  10 -12    5.57    0.83
  -6 -10 -12    2.69    0.63
  -6 -10 -12    1.48    0.62
  -6  10 -12    1.92    0.47
  -7 -10 -12    0.14    0.39
  -7 -10 -12    0.04    0.40
  -8 -11  12    1.02    0.55
  -8  11  12    0.57    0.35
  -8  11  12    1.11    0.64
  -7 -11  12    0.73    0.59
  -7  11  12    1.69    0.57
  -7  11  12    1.75    0.65
  -6 -11  12    7.16    1.09
  -6  11  12    4.69    0.93
  -6  11  12    5.83    0.62
  -6  11  12    5.61    0.96
  -5 -11  12    3.65    0.91
  -5  11  12    2.72    0.80
  -5  11  12    4.37    0.88
  -5  11  12    4.51    0.63
  -4 -11  12    0.55    0.63
  -4  11  12    0.20    0.44
  -4  11  12    1.20    0.47
  -4  11  12    1.15    0.63
  -3 -11  12    1.10    0.67
  -3  11  12    1.32    0.55
  -3  11  12    1.48    0.57
  -3  11  12    1.19    0.59
  -2 -11  12   10.71    1.35
   2  11 -12   11.75    1.46
  -2  11  12   10.97    1.22
  -2  11  12   11.66    1.46
  -2  11  12    9.28    1.23
  -1  11  12   15.61    1.51
  -1  11  12   14.20    1.58
  -1  11  12   16.33    1.44
   1  11 -12   15.27    1.62
   0 -11 -12    4.16    0.93
   0  11  12    5.35    0.98
   0  11 -12    3.41    0.90
  -1 -11 -12    1.23    0.65
  -1  11 -12    0.25    0.58
  -2 -11 -12    6.90    1.11
  -2  11 -12    7.16    1.10
  -3 -11 -12    9.46    1.35
  -3  11 -12   10.95    1.36
  -4 -11 -12    4.04    0.94
  -4  11 -12    4.25    0.80
  -5 -11 -12    0.22    0.46
  -5  11 -12    0.34    0.41
  -6 -11 -12    1.62    0.53
  -7 -12  12    3.30    0.80
  -7  12  12    3.39    0.71
  -7  12  12    3.91    0.77
  -6 -12  12    0.18    0.49
  -6  12  12    0.44    0.59
  -6  12  12    0.36    0.53
  -5 -12  12    1.78    0.69
  -5  12  12    0.72    0.63
  -5  12  12    1.56    0.46
  -5  12  12    0.60    0.61
  -4 -12  12    5.40    1.04
  -4  12  12    5.20    0.75
  -4  12  12    6.32    1.11
  -4  12  12    7.78    1.07
  -3 -12  12    7.99    1.21
  -3  12  12    6.94    0.94
  -3  12  12    6.23    1.13
  -3  12  12    8.16    1.10
  -2 -12  12    1.85    1.27
  -2  12  12    0.37    0.60
  -2  12  12    1.39    0.57
   2  12 -12    1.60    0.66
  -2  12  12    1.66    0.73
  -1  12  12    0.90    0.62
   1  12 -12    0.30    0.70
  -1  12  12    0.58    0.57
  -1  12  12    1.65    0.54
   0 -12 -12    9.27    1.30
   0  12  12    7.96    1.19
   0  12  12    8.78    1.29
   0  12 -12    8.64    1.23
  -1 -12 -12   13.44    1.58
  -1  12 -12   11.66    1.47
  -2 -12 -12    4.12    1.01
  -2  12 -12    5.71    0.99
  -3 -12 -12   -0.35    0.64
  -3  12 -12   -0.10    0.44
  -4 -12 -12    4.68    1.01
  -4  12 -12    3.70    0.78
  -5 -12 -12    4.77    0.87
  -5  12 -12    3.36    0.67
  -6 -13  12    5.22    1.00
  -6  13  12    5.12    0.91
  -6  13  12    5.74    0.96
  -5 -13  12    4.85    0.95
  -5  13  12    3.28    0.82
  -5  13  12    4.25    0.62
  -5  13  12    6.24    1.04
  -4 -13  12    1.56    0.74
  -4  13  12    0.71    0.43
  -4  13  12    0.17    0.60
  -4  13  12    0.46    0.55
  -3 -13  12    0.43    0.53
  -3  13  12    0.80    0.48
  -3  13  12    0.27    0.45
  -3  13  12   -0.47    0.38
  -2  13  12    6.23    1.00
  -2  13  12    4.04    0.94
   2  13 -12    5.66    1.11
  -2  13  12    7.08    0.95
  -1  13  12    7.18    1.24
  -1  13  12    8.44    1.17
   1  13 -12    9.87    1.41
  -1  13  12    9.37    1.12
   0  13  12    1.89    0.67
   0  13  12    1.17    0.71
   0  13 -12    2.78    0.81
  -1 -13 -12    0.24    0.67
  -1  13 -12    0.14    0.64
  -2 -13 -12    3.78    0.98
  -2  13 -12    4.25    0.85
  -3 -13 -12    4.89    0.92
  -3  13 -12    5.09    0.91
  -4 -13 -12    4.43    0.92
  -4  13 -12    2.76    0.69
  -4 -14  12    5.45    1.03
  -4  14  12    2.48    0.79
  -4  14  12    2.76    0.73
  -4  14  12    4.44    0.65
  -3 -14  12    3.77    0.96
  -3  14  12    3.17    0.71
  -3  14  12    4.05    0.66
  -3  14  12    4.05    0.89
  -2  14  12    1.97    0.65
   2  14 -12    2.34    0.78
  -2  14  12    1.47    0.54
  -2  14  12    1.08    0.59
  -1  14  12    0.47    0.60
  -1  14  12    0.71    0.46
  -1  14  12    0.55    0.49
   1  14 -12    0.03    0.55
   0  14  12    4.04    0.82
   0  14 -12    4.66    1.01
  -1 -14 -12    7.27    1.19
  -1  14 -12    6.87    1.13
   1  14  12    5.21    0.94
  -2 -14 -12    1.77    0.70
  -2  14 -12    1.49    0.58
 -11   0  13   -0.40    0.58
 -10   0  13    2.00    0.66
  -9   0  13    7.04    0.74
  -9   0  13    6.35    0.75
  -9   0  13    5.69    0.98
  -8   0  13    2.23    0.62
  -8   0  13    2.41    0.53
  -7   0  13    2.17    0.57
  -7   0  13    1.60    0.55
  -7   0  13    1.46    0.40
  -6   0  13   18.50    1.38
  -6   0  13   16.90    1.40
  -6   0  13   16.73    1.48
  -6   0  13   18.93    1.37
  -6   0  13   16.30    1.33
  -5   0  13   35.30    2.40
  -5   0  13   36.45    2.38
  -5   0  13   34.33    2.50
  -5   0  13   30.79    2.31
  -5   0  13   37.43    2.36
  -4   0  13   15.02    1.30
  -4   0  13   17.48    1.14
  -4   0  13   12.24    1.09
  -4   0  13   13.96    1.19
  -3   0  13    0.10    0.20
  -3   0  13   -0.11    0.31
  -3   0  13    0.14    0.26
   3   0 -13    0.33    0.34
  -2   0  13    7.33    0.76
  -2   0  13    5.45    0.79
   2   0 -13    8.96    0.94
   1   0 -13   31.49    2.24
  -1   0  13   32.72    2.25
  -1   0  13   31.10    2.13
   0   0  13   37.86    2.38
   0   0 -13   29.94    2.33
  -1   0 -13    0.02    0.28
  -2   0 -13   32.79    2.29
  -2   0 -13   32.07    2.29
  -3   0 -13   43.27    2.87
  -3   0 -13   40.59    2.89
  -4   0 -13    9.52    0.97
  -4   0 -13    9.27    1.07
  -5   0 -13    2.40    0.50
  -5   0 -13    1.54    0.57
  -6   0 -13    0.52    0.53
  -6   0 -13    0.36    0.31
  -7   0 -13    8.69    1.16
  -8   0 -13    5.50    0.91
  -9   0 -13    0.15    0.50
 -11  -1  13    1.58    0.68
 -11   1  13    0.35    0.59
 -10  -1  13    1.54    0.59
 -10   1  13    1.43    0.67
  -9  -1  13    0.33    0.35
  -9  -1  13   -0.42    0.49
  -9   1  13    0.36    0.30
  -9   1  13    0.27    0.53
  -8  -1  13    9.34    1.13
  -8  -1  13    9.29    0.97
  -8   1  13    7.63    0.94
  -8   1  13    8.92    1.08
  -7  -1  13    9.97    1.13
  -7  -1  13   11.74    1.14
   7  -1 -13   11.46    1.30
  -7  -1  13   10.93    1.31
  -7  -1  13    9.88    1.03
  -7   1  13   12.84    1.15
  -7   1  13   10.90    1.02
  -7   1  13    9.57    1.09
  -6  -1  13    3.68    0.57
  -6  -1  13    3.71    0.62
  -6  -1  13    2.88    0.52
  -6  -1  13    2.27    0.58
  -6  -1  13    3.02    0.49
   6  -1 -13    3.72    0.81
  -6   1  13    2.98    0.48
  -6   1  13    4.34    0.65
  -6   1  13    2.89    0.50
  -6   1  13    2.07    0.55
  -5  -1  13    0.00    0.30
  -5  -1  13   -0.10    0.38
   5  -1 -13    0.03    0.40
  -5  -1  13    0.50    0.32
  -5  -1  13   -0.02    0.30
  -5   1  13    0.05    0.26
  -5   1  13    0.25    0.40
  -5   1  13    0.88    0.35
  -5   1  13    0.21    0.23
  -4  -1  13   17.78    1.52
  -4  -1  13   17.91    1.30
  -4  -1  13   19.46    1.34
   4  -1 -13   16.68    1.64
  -4  -1  13   16.42    1.40
  -4   1  13   19.42    1.50
  -4   1  13   19.10    1.34
  -4   1  13   16.24    1.32
  -4   1  13   18.41    1.29
   3  -1 -13   68.01    4.78
  -3  -1  13   69.01    4.65
  -3  -1  13   68.87    4.47
  -3   1  13   77.75    4.66
  -3   1  13   72.45    4.50
  -3   1  13   70.43    4.46
   3   1 -13   74.06    4.63
   2  -1 -13   25.37    1.94
  -2  -1  13   27.24    1.85
   2  -1 -13   24.40    2.08
  -2  -1  13   24.99    1.96
  -2   1  13   26.76    1.96
   2   1 -13   31.53    2.00
  -2   1  13   27.07    1.84
  -1  -1  13    4.15    0.70
   1  -1 -13    5.06    0.72
  -1  -1  13    4.52    0.68
   1   1 -13    6.11    0.77
  -1   1  13    4.93    0.69
  -1   1  13    4.38    0.59
   0  -1  13   14.72    1.29
   0  -1 -13   14.94    1.30
   0   1  13   17.18    1.33
   0   1 -13   17.43    1.34
  -1  -1 -13   26.68    2.18
  -1   1 -13   36.00    2.25
  -2  -1 -13   38.71    2.52
  -2  -1 -13   35.26    2.51
  -2   1 -13   36.23    2.48
  -2   1 -13   34.41    2.50
  -3  -1 -13    2.03    0.56
  -3  -1 -13    2.28    0.54
  -3   1 -13    3.64    0.61
  -3   1 -13    2.81    0.57
  -4  -1 -13    6.94    1.01
  -4  -1 -13   11.21    1.01
  -4   1 -13    8.16    1.04
  -4   1 -13   11.07    0.99
  -5  -1 -13   14.73    1.40
  -5  -1 -13   17.06    1.29
  -5   1 -13   16.00    1.28
  -5   1 -13   12.27    1.31
  -6  -1 -13    7.83    1.06
  -6  -1 -13    8.40    0.84
  -6   1 -13    8.68    1.06
  -6   1 -13    7.73    0.81
  -7  -1 -13    3.04    0.68
  -7  -1 -13    1.98    0.40
  -7   1 -13    2.27    0.65
  -8  -1 -13    0.25    0.56
  -8   1 -13    1.09    0.55
  -9  -1 -13    2.47    0.63
  -9   1 -13    2.10    0.64
 -11  -2  13   -0.07    0.49
 -11   2  13    0.27    0.47
 -10  -2  13    4.12    0.87
 -10   2  13    4.98    0.97
  -9  -2  13    5.04    0.85
  -9  -2  13    6.67    0.80
  -9   2  13    6.31    0.98
  -9   2  13    5.82    0.69
  -8  -2  13    2.77    0.60
  -8  -2  13    3.14    0.68
   8  -2 -13    2.52    0.70
  -8   2  13    2.42    0.56
  -8   2  13    1.84    0.61
  -7  -2  13    0.71    0.45
  -7  -2  13    0.56    0.36
  -7  -2  13    0.44    0.35
   7  -2 -13    1.00    0.57
  -7  -2  13    0.43    0.40
  -7   2  13    0.62    0.43
  -7   2  13    0.69    0.44
  -6  -2  13   17.24    1.42
  -6  -2  13   16.52    1.52
  -6  -2  13   17.76    1.42
  -6  -2  13   15.59    1.37
   6  -2 -13   19.13    1.75
  -6  -2  13   18.14    1.43
  -6   2  13   18.59    1.46
  -6   2  13   19.66    1.52
  -5  -2  13   30.97    2.17
  -5  -2  13   28.57    2.08
  -5  -2  13   30.05    2.25
   5  -2 -13   26.91    2.38
  -5  -2  13   32.66    2.15
  -5   2  13   32.49    2.15
  -5   2  13   29.06    2.11
  -5   2  13   35.83    2.29
  -5   2  13   28.20    2.07
  -5   2  13   31.67    2.08
  -4  -2  13   12.04    1.17
   4  -2 -13   11.32    1.32
  -4  -2  13   14.15    1.05
  -4  -2  13   10.49    1.06
  -4   2  13   11.33    0.99
  -4   2  13   12.64    1.00
  -4   2  13   11.75    0.95
  -4   2  13   13.31    1.16
  -3  -2  13    0.05    0.37
   3  -2 -13    0.16    0.42
  -3  -2  13   -0.13    0.30
  -3   2  13    0.16    0.25
  -3   2  13    0.28    0.24
   3   2 -13    0.30    0.35
  -3   2  13    0.43    0.41
   2  -2 -13   18.81    1.69
  -2  -2  13   19.94    1.58
   2  -2 -13   17.80    1.49
  -2   2  13   20.24    1.54
   2   2 -13   22.25    1.58
  -2   2  13   17.39    1.40
   1  -2 -13   64.50    3.84
  -1  -2  13   53.31    3.80
   1  -2 -13   52.66    3.91
  -1   2  13   62.06    3.83
   1   2 -13   56.47    3.81
   0  -2  13   47.25    3.24
   0  -2 -13   43.50    3.21
   0   2  13   51.23    3.25
   0   2 -13   51.33    3.27
  -1  -2 -13    1.95    0.48
  -1  -2 -13    2.74    0.53
  -1   2 -13    2.05    0.50
  -2  -2 -13   21.75    1.62
  -2  -2 -13   20.13    1.63
  -2   2 -13   22.22    1.65
  -2   2 -13   20.08    1.57
  -3  -2 -13   27.29    2.09
  -3  -2 -13   27.93    2.10
  -3   2 -13   31.72    2.12
  -3   2 -13   27.38    2.06
  -4  -2 -13   14.00    1.45
  -4  -2 -13   21.96    1.49
  -4   2 -13   17.85    1.43
  -4   2 -13   14.92    1.38
  -5  -2 -13    3.33    0.76
  -5  -2 -13    3.63    0.60
  -5   2 -13    1.90    0.52
  -5   2 -13    3.10    0.55
  -6  -2 -13    0.19    0.44
  -6  -2 -13    1.42    0.44
  -6   2 -13    1.00    0.37
  -6   2 -13    1.52    0.51
  -7  -2 -13    4.66    0.91
  -7  -2 -13    6.30    0.63
  -7   2 -13    4.01    0.73
  -8  -2 -13    4.93    0.93
  -8   2 -13    5.85    0.90
  -9  -2 -13    0.72    0.60
  -9   2 -13    0.22    0.48
 -11  -3  13    2.88    0.76
 -11   3  13    1.99    0.67
 -10  -3  13   -0.08    0.51
 -10   3  13    0.55    0.60
  -9  -3  13    0.77    0.41
  -9  -3  13    1.58    0.64
  -9   3  13   -0.06    0.44
  -9   3  13    1.25    0.37
  -8  -3  13   10.05    1.14
  -8  -3  13   10.40    1.07
   8  -3 -13    9.47    1.32
  -8  -3  13   10.59    1.18
  -8   3  13   11.10    1.27
  -8   3  13    8.05    0.99
   7  -3 -13   16.20    1.66
  -7  -3  13   16.12    1.39
  -7  -3  13   15.61    1.51
  -7  -3  13   18.58    1.51
  -7  -3  13   15.54    1.41
  -7   3  13   17.39    1.49
  -7   3  13   17.50    1.47
  -6  -3  13    4.46    0.81
  -6  -3  13    5.29    0.75
  -6  -3  13    4.97    0.71
   6  -3 -13    4.50    0.92
  -6  -3  13    5.10    0.70
  -6   3  13    4.94    0.73
  -6   3  13    5.74    0.81
  -5  -3  13    0.18    0.33
  -5  -3  13    0.21    0.28
   5  -3 -13   -0.01    0.45
  -5  -3  13    0.70    0.44
  -5  -3  13    0.37    0.31
  -5   3  13    0.23    0.36
  -5   3  13    0.06    0.27
  -5   3  13    0.83    0.35
  -5   3  13    0.35    0.34
   4  -3 -13   13.60    1.57
  -4  -3  13   16.77    1.35
  -4  -3  13   18.95    1.33
  -4  -3  13   17.07    1.43
  -4   3  13   16.10    1.26
  -4   3  13   15.98    1.23
  -4   3  13   15.68    1.39
  -3  -3  13   58.02    4.03
  -3  -3  13   64.21    3.98
   3  -3 -13   70.21    4.30
   3   3 -13   57.19    4.01
  -3   3  13   63.23    3.87
  -3   3  13   54.34    3.98
  -3   3  13   58.73    3.87
   2  -3 -13   27.21    2.29
  -2  -3  13   30.72    2.15
  -2  -3  13   27.57    2.05
   2  -3 -13   30.69    2.13
  -2   3  13   29.62    1.95
  -2   3  13   31.70    2.02
  -2   3  13   24.84    2.10
   2   3 -13   30.45    2.15
   1  -3 -13    0.85    0.49
   1  -3 -13    0.52    0.41
  -1  -3  13    1.29    0.41
  -1  -3  13    1.69    0.40
  -1   3  13    0.75    0.35
   1   3 -13    0.80    0.42
  -1   3  13    0.96    0.45
   0  -3 -13   20.79    1.74
   0  -3  13   23.21    1.66
   0  -3 -13   17.29    1.60
   0   3  13   24.73    1.71
   0   3 -13   19.72    1.66
  -1  -3 -13   30.01    1.88
  -1  -3 -13   21.11    1.85
  -1   3 -13   24.90    1.91
  -2  -3 -13   34.55    2.47
  -2  -3 -13   33.04    2.42
  -2   3 -13   36.34    2.39
  -2   3 -13   34.13    2.45
  -3  -3 -13   10.26    1.15
  -3  -3 -13   11.60    1.11
  -3   3 -13   10.62    1.06
  -3   3 -13   11.51    1.05
  -4  -3 -13    5.90    0.87
  -4  -3 -13    7.21    0.86
  -4   3 -13    4.30    0.71
  -4   3 -13    7.13    0.85
  -5  -3 -13   21.20    1.57
  -5  -3 -13   18.01    1.62
  -5   3 -13   17.73    1.48
  -5   3 -13   18.28    1.53
  -6  -3 -13    6.91    0.79
  -6  -3 -13    5.36    0.89
  -6   3 -13    6.15    0.84
  -6   3 -13    6.16    0.72
  -7  -3 -13    0.62    0.30
  -7  -3 -13    1.09    0.71
  -7   3 -13    0.72    0.46
  -8  -3 -13   -0.31    0.62
  -9  -3 -13    1.63    0.74
 -11  -4  13    0.28    0.53
 -11   4  13    1.09    0.50
 -10  -4  13    2.79    0.73
 -10   4  13    3.76    0.88
  -9  -4  13    6.04    0.82
  -9  -4  13    6.63    1.01
  -9   4  13    6.57    1.00
  -9   4  13    6.40    0.72
   8  -4 -13    3.18    0.87
  -8  -4  13    4.09    0.76
  -8  -4  13    2.75    0.64
  -8   4  13    3.82    0.68
  -8   4  13    3.16    0.79
  -7  -4  13    0.53    0.37
  -7  -4  13    0.33    0.40
   7  -4 -13   -0.10    0.51
  -7  -4  13    0.19    0.45
  -7  -4  13    0.17    0.36
  -7   4  13    0.17    0.44
  -7   4  13    0.20    0.37
   6  -4 -13   12.36    1.46
  -6  -4  13   12.10    1.14
  -6  -4  13   11.85    1.15
  -6  -4  13   12.85    1.26
  -6  -4  13   10.49    1.06
  -6   4  13   12.00    1.15
  -6   4  13   10.69    1.15
  -5  -4  13   26.34    1.88
  -5  -4  13   22.87    1.64
  -5  -4  13   26.71    1.79
  -5  -4  13   20.78    1.69
   5  -4 -13   21.73    2.02
  -5   4  13   18.91    1.73
  -5   4  13   21.19    1.69
  -5   4  13   22.86    1.61
  -4  -4  13    6.82    0.95
  -4  -4  13    9.08    1.00
   4  -4 -13   10.57    1.26
  -4   4  13    8.47    0.91
  -4   4  13    8.90    1.08
  -4   4  13    8.81    0.82
  -3  -4  13    0.44    0.37
   3  -4 -13    0.61    0.52
  -3  -4  13    0.51    0.39
   3   4 -13   -0.28    0.29
  -3   4  13    0.10    0.28
  -3   4  13    0.52    0.29
  -3   4  13   -0.40    0.38
  -2  -4  13   19.85    1.73
   2  -4 -13   21.26    1.72
  -2  -4  13   19.54    1.64
   2  -4 -13   23.39    1.96
   2   4 -13   22.41    1.76
  -2   4  13   23.53    1.64
  -2   4  13   25.59    1.81
  -2   4  13   22.81    1.57
  -1  -4  13   50.99    3.70
   1  -4 -13   61.75    4.01
  -1  -4  13   59.87    3.82
   1  -4 -13   50.48    3.76
   1   4 -13   60.59    3.84
  -1   4  13   52.26    3.81
  -1   4  13   59.02    3.62
  -1   4  13   60.77    3.69
   0  -4  13   38.02    2.59
   0  -4 -13   38.81    2.70
   0  -4 -13   34.42    2.89
   0  -4 -13   42.47    2.61
   0  -4  13   36.99    2.65
   0   4  13   36.92    2.70
   0   4 -13   38.62    2.70
  -1  -4 -13    1.30    0.46
  -1  -4 -13    1.02    0.41
   1  -4  13    0.82    0.36
  -1   4 -13    1.07    0.44
  -2  -4 -13    8.32    1.03
  -2  -4 -13    9.53    1.04
  -2   4 -13    9.31    0.88
  -2   4 -13    8.83    1.03
  -3  -4 -13   18.22    1.61
  -3  -4 -13   21.90    1.69
  -3   4 -13   18.72    1.60
  -3   4 -13   22.17    1.57
  -4  -4 -13   18.21    1.47
  -4  -4 -13   16.24    1.46
  -4   4 -13   16.43    1.42
  -4   4 -13   15.71    1.36
  -5  -4 -13    1.32    0.58
  -5  -4 -13    2.52    0.55
  -5   4 -13    1.73    0.52
  -5   4 -13    2.22    0.53
  -6  -4 -13    1.85    0.49
  -6  -4 -13    1.41    0.63
  -6   4 -13    2.00    0.43
  -6   4 -13    2.94    0.63
  -7  -4 -13    6.47    0.70
  -7  -4 -13    5.37    1.01
  -8  -4 -13    3.62    0.78
  -9  -4 -13    1.06    0.49
 -11  -5  13    1.25    0.61
 -11   5  13    0.49    0.47
 -10  -5  13    0.93    0.57
 -10   5  13   -0.17    0.58
  -9  -5  13    0.42    0.58
  -9  -5  13    1.23    0.45
  -9   5  13    0.59    0.40
  -9   5  13    1.26    0.59
   8  -5 -13    8.95    1.40
  -8  -5  13    9.32    1.09
  -8  -5  13    7.81    1.05
  -8   5  13    7.66    0.95
  -8   5  13    7.85    1.11
  -7  -5  13   10.12    1.19
  -7  -5  13   11.26    1.21
   7  -5 -13    9.84    1.39
  -7  -5  13    9.86    1.19
  -7   5  13    9.66    1.07
  -7   5  13   10.76    1.22
  -6  -5  13    7.47    0.99
  -6  -5  13    7.73    0.98
   6  -5 -13    7.57    1.15
  -6  -5  13    6.15    0.96
  -6  -5  13    8.87    0.93
  -6  -5  13    5.60    0.85
  -6   5  13    6.81    0.73
  -6   5  13    7.98    0.98
  -6   5  13    7.14    0.96
  -5  -5  13    0.21    0.41
   5  -5 -13    0.28    0.57
  -5  -5  13   -0.24    0.29
  -5  -5  13   -0.19    0.27
  -5   5  13    0.53    0.39
  -5   5  13   -0.16    0.34
  -5   5  13    0.73    0.34
  -4  -5  13   11.58    1.21
  -4  -5  13   11.62    1.11
   4  -5 -13   11.41    1.37
  -4   5  13   11.20    1.03
  -4   5  13   10.99    1.27
  -4   5  13   10.76    0.97
  -3  -5  13   49.24    3.25
  -3  -5  13   43.91    3.11
   3  -5 -13   52.93    3.47
  -3   5  13   51.15    3.06
  -3   5  13   40.15    3.19
  -3   5  13   42.72    3.03
   3   5 -13   44.01    3.19
  -2  -5  13   22.57    1.71
   2  -5 -13   21.39    1.93
  -2  -5  13   22.84    1.80
   2  -5 -13   25.57    1.80
  -2   5  13   20.99    1.82
  -2   5  13   22.71    1.63
  -2   5  13   23.05    1.61
   2   5 -13   18.74    1.73
  -1  -5  13    0.54    0.33
  -1  -5  13    0.92    0.46
   1  -5 -13    1.08    0.45
   1  -5 -13    0.94    0.37
   1  -5 -13    0.88    0.55
   1   5 -13    1.40    0.48
  -1   5  13    1.09    0.36
  -1   5  13    0.07    0.33
  -1   5  13    0.61    0.46
   0  -5 -13   13.22    1.12
   0  -5 -13   12.24    1.22
   0  -5  13   12.24    1.13
   0   5 -13   11.46    1.20
   0   5  13   13.04    1.04
   0   5  13   14.63    1.32
  -1  -5 -13   23.85    1.81
  -1  -5 -13   22.40    1.69
   1  -5  13   23.10    1.68
  -1   5 -13   19.92    1.75
  -2  -5 -13   18.97    1.66
  -2  -5 -13   21.54    1.79
   2  -5  13   21.99    1.64
  -2   5 -13   23.24    1.64
  -2   5 -13   25.37    1.81
  -3  -5 -13    2.62    0.58
  -3  -5 -13    3.44    0.71
  -3   5 -13    3.65    0.60
  -3   5 -13    3.39    0.63
  -4  -5 -13    4.27    0.77
  -4  -5 -13    7.33    0.91
  -4   5 -13    5.00    0.72
  -4   5 -13    5.53    0.81
  -5  -5 -13   17.98    1.59
  -5  -5 -13   19.19    1.67
  -5   5 -13   19.42    1.51
  -6  -5 -13    8.66    1.15
  -6  -5 -13    9.33    0.99
  -6   5 -13    7.89    0.83
  -7  -5 -13    0.89    0.68
  -7  -5 -13    1.18    0.40
  -8  -5 -13    0.65    0.52
  -9  -5 -13    1.76    0.64
 -10  -6  13    2.75    0.62
 -10  -6  13    1.40    0.63
 -10   6  13    1.41    0.69
  -9  -6  13    3.61    0.81
  -9  -6  13    5.04    0.76
  -9   6  13    3.91    0.83
  -8  -6  13    2.23    0.63
  -8  -6  13    2.81    0.71
  -8   6  13    2.16    0.76
  -8   6  13    1.86    0.50
   7  -6 -13    1.20    0.80
  -7  -6  13    0.63    0.47
  -7  -6  13    0.57    0.51
  -7   6  13    1.11    0.46
  -7   6  13    1.09    0.53
  -6  -6  13   14.47    1.41
  -6  -6  13   13.28    1.28
   6  -6 -13   13.59    1.58
  -6  -6  13   13.81    1.39
  -6  -6  13   13.90    1.24
  -6   6  13   13.62    1.31
  -6   6  13   14.42    1.33
  -6   6  13   13.22    1.09
  -5  -6  13   21.72    1.80
   5  -6 -13   27.55    2.20
  -5  -6  13   22.38    1.92
  -5  -6  13   23.71    1.82
  -5  -6  13   22.05    1.91
  -5   6  13   23.76    1.90
  -5   6  13   23.81    1.67
  -5   6  13   20.29    1.77
  -4  -6  13   11.56    1.25
  -4  -6  13   11.87    1.15
   4  -6 -13   12.18    1.44
  -4   6  13   10.61    1.01
  -4   6  13   11.77    1.10
  -4   6  13   12.48    1.29
  -3  -6  13    1.31    0.43
   3  -6 -13    0.30    0.53
  -3  -6  13    0.83    0.52
  -3   6  13    1.00    0.40
  -3   6  13    0.61    0.47
   3   6 -13    0.94    0.48
  -3   6  13    1.07    0.41
   2  -6 -13   13.25    1.28
  -2  -6  13   11.74    1.30
  -2  -6  13   12.80    1.21
   2  -6 -13   12.72    1.41
  -2   6  13   14.18    1.19
   2   6 -13   14.09    1.32
  -2   6  13   13.94    1.15
  -2   6  13   16.22    1.41
  -1  -6  13   35.80    2.58
   1  -6 -13   35.16    2.81
  -1  -6  13   35.75    2.68
   1  -6 -13   38.96    2.54
   1  -6 -13   38.17    2.71
  -1   6  13   38.97    2.76
  -1   6  13   35.32    2.52
   1   6 -13   38.73    2.73
  -1   6  13   39.34    2.59
   0  -6  13   31.49    2.35
   0  -6 -13   41.05    2.57
   0  -6 -13   33.48    2.34
   0   6 -13   31.50    2.48
   0   6  13   33.66    2.51
   0   6  13   32.80    2.32
  -1  -6 -13    0.67    0.47
  -1  -6 -13    0.27    0.32
   1  -6  13    0.53    0.34
  -1   6 -13    1.14    0.51
   2  -6  13   10.52    0.95
  -2  -6 -13    9.93    0.99
  -2  -6 -13   10.96    1.13
  -2   6 -13    8.94    1.10
  -2   6 -13    9.21    0.90
  -3  -6 -13   17.60    1.55
  -3  -6 -13   20.45    1.67
  -3   6 -13   18.07    1.59
  -4  -6 -13    9.86    1.24
  -4  -6 -13   12.93    1.21
  -4   6 -13   10.78    1.13
  -5  -6 -13    1.81    0.60
  -5  -6 -13    1.97    0.63
  -5   6 -13    2.07    0.53
  -6  -6 -13    1.15    0.51
  -6  -6 -13    0.40    0.59
  -6   6 -13    0.91    0.37
  -7  -6 -13    5.88    0.95
  -7  -6 -13    5.52    0.74
  -8  -6 -13    3.69    0.86
 -10  -7  13    0.78    0.42
 -10   7  13    0.21    0.59
  -9  -7  13    1.46    0.53
  -9   7  13    1.00    0.58
  -8  -7  13    4.72    0.84
  -8   7  13    6.71    1.04
  -8   7  13    5.16    0.75
  -7  -7  13    9.27    1.18
   7  -7 -13   11.07    1.92
  -7   7  13    9.54    1.14
  -7   7  13    8.08    1.12
   6  -7 -13    3.81    0.98
  -6  -7  13    3.42    0.73
  -6   7  13    1.93    0.60
  -6   7  13    1.70    0.58
  -6   7  13    2.10    0.45
  -5  -7  13   -0.25    0.42
  -5  -7  13    0.17    0.28
   5  -7 -13    0.76    0.63
  -5   7  13    0.59    0.36
  -5   7  13   -0.18    0.37
  -5   7  13   -0.19    0.43
  -4  -7  13   10.10    1.38
  -4  -7  13   14.38    1.45
  -4  -7  13   14.36    1.30
   4  -7 -13   15.79    1.62
  -4   7  13   12.08    1.45
  -4   7  13   13.50    1.14
  -4   7  13   14.16    1.25
  -3  -7  13   31.48    2.35
  -3  -7  13   30.23    2.20
  -3  -7  13   27.72    2.30
   3  -7 -13   30.37    2.48
   3   7 -13   28.82    2.27
  -3   7  13   31.53    2.14
  -3   7  13   29.77    2.15
  -3   7  13   27.84    2.33
  -2  -7  13   14.19    1.22
  -2  -7  13   11.75    1.29
   2  -7 -13   15.62    1.53
  -2  -7  13   11.38    1.30
   2   7 -13   12.07    1.28
  -2   7  13   12.28    1.18
  -2   7  13   12.61    1.15
  -2   7  13   14.15    1.38
  -1  -7  13   -0.27    0.38
  -1  -7  13   -0.01    0.40
  -1  -7  13   -0.09    0.28
   1  -7 -13    0.49    0.51
   1  -7 -13   -0.12    0.34
   1  -7 -13    0.49    0.34
  -1   7  13    0.47    0.40
  -1   7  13    0.31    0.45
  -1   7  13    0.20    0.33
   1   7 -13    0.06    0.41
   0  -7 -13   10.47    0.94
   0  -7  13   10.65    1.11
   0  -7 -13    8.63    1.13
   0   7 -13    9.30    1.16
   0   7  13    9.67    1.19
  -1  -7 -13   26.59    1.99
   1  -7  13   22.93    1.75
  -1  -7 -13   24.44    1.77
  -1   7 -13   21.35    1.90
  -2  -7 -13   19.39    1.55
  -2  -7 -13   19.50    1.70
  -2   7 -13   18.83    1.66
  -3  -7 -13    1.58    0.55
  -3  -7 -13    1.96    0.55
  -3   7 -13    1.27    0.57
  -4  -7 -13    4.02    0.79
  -4  -7 -13    3.76    0.76
  -4   7 -13    3.77    0.74
  -5  -7 -13    7.58    1.00
  -5  -7 -13    4.99    0.92
  -5   7 -13    6.25    0.84
  -6  -7 -13    5.57    0.89
  -6  -7 -13    6.32    0.99
  -6   7 -13    6.12    0.74
  -7  -7 -13    1.24    0.60
  -7  -7 -13    1.43    0.47
  -8  -7 -13    0.35    0.58
  -9  -8  13    3.40    0.69
  -9   8  13    2.27    0.67
  -8  -8  13    1.30    0.61
  -8   8  13    0.79    0.40
  -8   8  13    0.86    0.61
  -7  -8  13    0.06    0.52
  -7   8  13    0.47    0.48
  -7   8  13    0.31    0.45
   6  -8 -13    9.03    1.39
  -6  -8  13    5.69    0.99
  -6   8  13    7.35    1.07
  -6   8  13    8.15    0.78
  -6   8  13    6.92    0.99
   5  -8 -13   13.81    1.63
  -5  -8  13   12.24    1.52
  -5   8  13   13.78    1.45
  -5   8  13   14.78    1.36
  -5   8  13   13.22    1.13
  -4  -8  13    3.92    0.74
  -4  -8  13    4.09    0.86
   4  -8 -13    4.51    1.05
  -4   8  13    4.98    0.79
  -4   8  13    5.16    0.73
  -4   8  13    6.55    1.01
  -3  -8  13    0.25    0.31
  -3  -8  13    0.48    0.54
   3  -8 -13    0.21    0.48
  -3   8  13    0.48    0.38
  -3   8  13    0.26    0.42
   3   8 -13    0.40    0.49
  -3   8  13   -0.08    0.53
   2  -8 -13    8.03    1.23
  -2  -8  13    8.05    0.96
  -2   8  13    5.50    0.96
  -2   8  13    8.17    0.99
  -2   8  13    8.18    0.96
   1  -8 -13   22.92    1.78
  -1  -8  13   19.46    1.55
  -1  -8  13   18.30    1.67
  -1  -8  13   19.07    1.68
  -1   8  13   18.04    1.56
  -1   8  13   19.27    1.71
  -1   8  13   18.08    1.55
   1   8 -13   17.93    1.69
   0  -8  13   14.91    1.28
   0  -8 -13   15.75    1.50
   0   8 -13   14.69    1.46
   0   8  13   13.93    1.43
  -1  -8 -13    0.97    0.53
   1  -8  13    1.17    0.41
  -1  -8 -13    1.53    0.44
  -1   8 -13    1.27    0.58
  -2  -8 -13   12.03    1.38
  -2  -8 -13   10.52    1.13
  -2   8 -13   10.43    1.29
  -3  -8 -13   13.91    1.25
  -3  -8 -13   12.11    1.38
  -3   8 -13   13.75    1.36
  -4  -8 -13    4.37    0.84
  -4  -8 -13    6.74    0.88
  -4   8 -13    4.81    0.83
  -5  -8 -13    1.56    0.66
  -5  -8 -13    1.28    0.56
  -5   8 -13    1.55    0.52
  -6  -8 -13    0.44    0.51
  -6  -8 -13    0.58    0.56
  -6   8 -13    0.64    0.36
  -7  -8 -13    2.24    0.67
  -7  -8 -13    2.87    0.59
  -8  -8 -13    1.70    0.57
  -9  -9  13    0.68    0.47
  -9   9  13   -0.18    0.41
  -8  -9  13    1.98    0.64
  -8   9  13    2.85    0.55
  -8   9  13    3.92    0.85
  -7  -9  13    3.51    0.82
  -7   9  13    3.49    0.75
  -7   9  13    4.21    0.73
  -6  -9  13    3.28    0.83
  -6   9  13    2.31    0.74
  -6   9  13    3.83    0.53
  -6   9  13    2.40    0.69
  -5  -9  13    0.24    0.49
   5  -9 -13   -0.17    0.58
  -5   9  13    0.22    0.53
  -5   9  13    0.52    0.36
  -5   9  13    0.43    0.41
  -4  -9  13    6.41    1.05
   4  -9 -13    7.51    1.26
  -4   9  13    6.11    1.05
  -4   9  13    5.02    0.75
  -4   9  13    6.83    0.97
   3  -9 -13   14.39    1.68
  -3  -9  13   13.66    1.48
  -3   9  13   15.32    1.54
  -3   9  13   13.67    1.28
  -3   9  13   13.53    1.33
  -2  -9  13    7.78    0.97
   2  -9 -13    9.71    1.33
  -2  -9  13    8.32    1.17
  -2   9  13    5.62    0.89
  -2   9  13    8.30    1.15
   2   9 -13    6.33    1.05
  -2   9  13    7.00    0.96
  -1  -9  13   -0.16    0.29
   1  -9 -13   -0.48    0.45
  -1   9  13    0.16    0.41
  -1   9  13    0.29    0.47
   1   9 -13   -0.40    0.45
  -1   9  13    0.28    0.48
   0  -9 -13    4.48    0.93
   0  -9  13    4.83    0.70
   0   9 -13    6.03    1.00
   0   9  13    4.52    0.85
  -1  -9 -13   14.39    1.55
  -1   9 -13   15.76    1.52
  -2  -9 -13    9.18    1.24
  -2   9 -13   10.23    1.25
  -3  -9 -13    1.65    0.48
  -3  -9 -13    1.01    0.60
  -3   9 -13    0.23    0.44
  -4  -9 -13    2.61    0.67
  -4  -9 -13    2.06    0.65
  -4   9 -13    2.80    0.70
  -5  -9 -13    6.25    0.90
  -5  -9 -13    4.17    0.90
  -5   9 -13    4.39    0.75
  -6  -9 -13    3.15    0.70
  -6  -9 -13    4.78    0.81
  -6   9 -13    3.26    0.55
  -7  -9 -13    0.06    0.44
  -7  -9 -13    0.20    0.36
  -8 -10  13    0.73    0.53
  -8  10  13    0.65    0.38
  -8  10  13    0.08    0.54
  -7 -10  13    0.57    0.58
  -7  10  13    0.08    0.40
  -7  10  13    0.60    0.57
  -6 -10  13    5.52    1.02
  -6  10  13    3.12    0.76
  -6  10  13    4.57    0.57
  -6  10  13    4.69    0.83
  -5 -10  13    8.95    1.23
  -5  10  13    8.32    1.19
  -5  10  13    7.27    0.85
  -5  10  13    7.29    1.09
   4 -10 -13    4.83    1.10
  -4 -10  13    4.32    0.94
  -4  10  13    4.34    0.81
  -4  10  13    3.71    0.89
  -4  10  13    4.90    0.71
  -3 -10  13    0.64    0.58
   3 -10 -13    0.56    0.61
  -3  10  13    0.22    0.43
  -3  10  13   -0.11    0.45
  -3  10  13    0.26    0.58
  -2 -10  13    6.04    1.02
   2  10 -13    5.32    0.93
  -2  10  13    5.17    0.98
  -2  10  13    5.31    0.82
  -2  10  13    4.72    0.81
  -1  10  13   11.37    1.47
  -1  10  13   13.07    1.31
   1  10 -13   13.15    1.52
  -1  10  13   14.60    1.46
   0 -10 -13    9.19    1.31
   0  10 -13   10.68    1.34
   0  10  13    7.91    1.11
   0  10  13   10.06    1.31
  -1 -10 -13    0.40    0.52
  -1  10 -13   -0.03    0.51
  -2 -10 -13    5.53    1.04
  -2  10 -13    2.53    0.73
  -3 -10 -13   11.54    1.41
  -3  10 -13   10.00    1.24
  -4 -10 -13    4.82    0.90
  -4  10 -13    6.39    0.95
  -5 -10 -13    0.48    0.56
  -5  10 -13    0.78    0.45
  -6 -10 -13    0.86    0.50
  -6 -10 -13    0.33    0.45
  -6  10 -13    0.26    0.36
  -7 -11  13    4.97    0.98
  -7  11  13    3.44    0.80
  -7  11  13    4.61    0.73
  -6 -11  13    1.32    0.69
  -6  11  13    1.40    0.36
  -6  11  13    0.27    0.54
  -6  11  13    0.81    0.47
  -5 -11  13   -0.16    0.64
  -5  11  13    0.33    0.38
  -5  11  13   -0.11    0.47
  -5  11  13    1.06    0.59
  -4 -11  13    6.95    1.15
  -4  11  13    5.18    0.91
  -4  11  13    4.57    0.72
  -4  11  13    4.55    0.90
  -3 -11  13   14.06    1.56
  -3  11  13   14.86    1.60
  -3  11  13   12.22    1.43
  -3  11  13   16.53    1.39
  -2 -11  13    7.86    1.17
  -2  11  13    7.50    1.04
  -2  11  13    5.53    1.00
   2  11 -13   12.70    1.49
  -2  11  13    7.41    1.03
  -1  11  13    1.48    0.54
   1  11 -13    1.42    0.65
  -1  11  13    1.10    0.51
  -1  11  13    0.74    0.63
   0 -11 -13    5.76    1.04
   0  11  13    5.07    0.89
   0  11  13    5.86    1.07
   0  11 -13    5.83    1.09
  -1 -11 -13    9.16    1.31
  -1  11 -13    9.12    1.31
  -2 -11 -13    5.73    1.06
  -2  11 -13    6.29    1.05
  -3 -11 -13    0.54    0.58
  -3  11 -13    1.24    0.50
  -4 -11 -13    1.09    0.61
  -4  11 -13    0.63    0.50
  -5 -11 -13    6.33    1.02
  -5  11 -13    4.51    0.76
  -6 -11 -13    3.52    0.70
  -6 -12  13    2.93    0.77
  -6  12  13    3.17    0.71
  -6  12  13    2.07    0.63
  -5 -12  13    9.42    1.26
  -5  12  13    6.82    1.06
  -5  12  13    5.67    0.96
  -5  12  13    6.45    0.78
  -4 -12  13    3.07    0.85
  -4  12  13    2.24    0.82
  -4  12  13    2.42    0.72
  -4  12  13    2.50    0.56
  -3 -12  13    0.26    0.50
  -3  12  13    0.07    0.44
  -3  12  13    0.10    0.46
  -3  12  13   -0.17    0.63
  -2  12  13    4.24    0.78
   2  12 -13    4.61    0.98
  -2  12  13    3.70    0.76
  -2  12  13    3.70    0.91
  -1  12  13   10.15    1.24
  -1  12  13    9.97    1.37
   1  12 -13    9.14    1.36
  -1  12  13    7.84    1.08
   0 -12 -13    5.45    1.06
   0  12  13    6.60    1.06
   0  12  13    4.45    0.88
   0  12 -13    8.34    1.25
  -1 -12 -13   -0.33    0.56
  -1  12 -13   -0.13    0.39
  -2 -12 -13    2.55    0.85
  -2  12 -13    1.54    0.63
  -3 -12 -13    4.46    0.99
  -3  12 -13    3.33    0.80
  -4 -12 -13    7.38    1.10
  -4  12 -13    4.32    0.83
  -5 -12 -13    0.69    0.56
  -5  12 -13    0.81    0.47
  -5 -13  13    0.03    0.55
  -5  13  13    0.01    0.36
  -5  13  13   -0.47    0.36
  -5  13  13    0.92    0.65
  -4 -13  13    2.70    0.89
  -4  13  13    1.54    0.64
  -4  13  13    2.16    0.79
  -4  13  13    2.74    0.57
  -3 -13  13    5.73    1.11
  -3  13  13    5.05    0.76
  -3  13  13    4.98    0.89
  -3  13  13    5.32    1.05
  -2  13  13    5.29    1.07
   2  13 -13    4.29    0.98
  -2  13  13    3.20    0.71
  -2  13  13    4.23    0.85
  -1  13  13    0.59    0.61
  -1  13  13   -0.52    0.45
   1  13 -13   -0.13    0.53
  -1  13  13   -0.52    0.45
   0  13  13    3.70    0.80
   0  13 -13    3.23    0.81
  -1 -13 -13    7.85    1.27
  -1  13 -13    6.02    1.14
   1  13  13    6.49    1.02
  -2 -13 -13    3.76    0.96
  -2  13 -13    5.60    1.00
  -3 -13 -13    1.13    0.58
  -3  13 -13    0.37    0.45
  -3  14  13   -0.06    0.39
  -3  14  13    0.45    0.50
  -3  14  13    0.73    0.62
  -2  14  13    2.54    0.83
   2  14 -13    2.33    1.07
  -2  14  13    1.71    0.63
  -2  14  13    1.35    0.50
  -1  14  13    3.61    0.78
  -1  14  13    3.71    0.89
   1  14 -13    5.46    1.03
  -1  14  13    3.47    0.79
   0  14 -13    5.54    1.09
   0  14  13    5.38    0.91
  -1 -14 -13    0.59    0.64
  -1  14 -13   -0.02    0.61
   1  14  13   -0.54    0.48
 -11   0  14    0.68    0.55
 -10   0  14    0.78    0.63
  -9   0  14    0.63    0.36
  -9   0  14    0.52    0.48
  -8   0  14    5.13    0.85
  -8   0  14    5.74    0.82
  -7   0  14   15.10    1.34
  -7   0  14   15.01    1.37
  -6   0  14   14.60    1.30
  -6   0  14   13.83    1.16
  -6   0  14   12.06    1.14
  -6   0  14   11.86    1.09
  -5   0  14    0.10    0.33
  -5   0  14    0.19    0.41
  -5   0  14    0.34    0.32
  -5   0  14    0.24    0.32
  -4   0  14    7.15    0.74
  -4   0  14    5.04    0.70
  -4   0  14    7.19    0.93
  -3   0  14   36.98    2.59
  -3   0  14   39.46    2.75
   3   0 -14   42.11    2.97
   2   0 -14   42.26    3.05
  -2   0  14   48.72    3.11
  -2   0  14   44.89    2.95
   1   0 -14    0.70    0.39
  -1   0  14    0.77    0.43
   0   0  14   15.03    1.29
   0   0 -14   15.74    1.32
  -1   0 -14   46.99    3.20
  -2   0 -14   48.08    3.23
  -2   0 -14   47.15    3.22
  -3   0 -14   15.23    1.34
  -3   0 -14   14.01    1.28
  -4   0 -14   -0.12    0.33
  -4   0 -14    0.20    0.34
  -5   0 -14   10.53    1.00
  -5   0 -14    8.32    1.11
  -6   0 -14    6.61    1.04
  -6   0 -14    9.48    0.89
  -7   0 -14    0.91    0.51
  -8   0 -14   -0.60    0.45
  -9   0 -14    0.93    0.53
 -11  -1  14    0.28    0.57
 -11   1  14    0.74    0.50
 -10  -1  14    1.68    0.64
 -10   1  14    2.40    0.68
  -9  -1  14    4.99    0.71
  -9  -1  14    5.83    0.76
  -9  -1  14    5.07    0.90
  -9   1  14    3.70    0.81
  -9   1  14    4.55    0.66
  -8  -1  14    3.82    0.70
  -8  -1  14    4.23    0.78
  -8   1  14    4.47    0.78
  -8   1  14    2.95    0.68
  -7  -1  14    0.89    0.50
  -7  -1  14   -0.49    0.36
  -7  -1  14    1.41    0.63
  -7   1  14    0.13    0.47
  -7   1  14    0.55    0.45
  -6  -1  14    8.17    0.92
  -6  -1  14    6.98    0.96
  -6  -1  14    8.25    0.90
  -6  -1  14    6.66    0.83
  -6  -1  14    7.79    0.86
   6  -1 -14    8.18    1.15
  -6   1  14    8.75    1.02
  -6   1  14    8.00    0.93
  -6   1  14    8.73    0.92
  -6   1  14    6.68    0.94
  -5  -1  14   33.95    2.43
  -5  -1  14   39.97    2.58
  -5  -1  14   34.47    2.34
   5  -1 -14   31.88    2.66
  -5  -1  14   37.99    2.38
  -5   1  14   30.89    2.28
  -5   1  14   36.22    2.38
  -5   1  14   30.46    2.37
  -5   1  14   36.01    2.52
   4  -1 -14   30.49    2.54
  -4  -1  14   32.15    2.30
  -4  -1  14   32.43    2.40
  -4  -1  14   34.99    2.22
  -4   1  14   33.19    2.22
  -4   1  14   31.75    2.36
  -4   1  14   32.05    2.16
  -4   1  14   33.22    2.20
  -3  -1  14    1.56    0.33
   3  -1 -14    1.20    0.57
  -3  -1  14    1.70    0.54
  -3  -1  14    1.20    0.43
  -3   1  14    2.54    0.56
   3   1 -14    2.36    0.53
  -3   1  14    1.78    0.42
   2  -1 -14   10.30    1.10
  -2  -1  14   14.31    1.22
  -2  -1  14   13.82    1.06
  -2   1  14   13.08    1.17
  -2   1  14   12.18    1.03
   2   1 -14   12.05    1.16
   1  -1 -14   24.59    1.93
  -1  -1  14   28.55    2.00
  -1   1  14   25.89    1.94
   1   1 -14   25.64    1.95
   0  -1 -14   34.70    2.35
   0  -1  14   35.00    2.35
   0   1 -14   29.04    2.31
   0   1  14   31.60    2.31
  -1  -1 -14   14.70    1.25
  -1  -1 -14   16.41    1.30
  -1   1 -14   12.83    1.25
  -2  -1 -14    1.62    0.50
  -2  -1 -14    3.53    0.63
  -2   1 -14    3.76    0.66
  -2   1 -14    2.16    0.50
  -3  -1 -14   35.34    2.46
  -3  -1 -14   33.65    2.44
  -3   1 -14   34.64    2.44
  -3   1 -14   32.58    2.41
  -4  -1 -14   19.82    1.68
  -4  -1 -14   22.69    1.67
  -4   1 -14   18.97    1.62
  -4   1 -14   21.64    1.70
  -5  -1 -14    4.73    0.73
  -5  -1 -14    4.16    0.84
  -5   1 -14    3.58    0.64
  -5   1 -14    3.37    0.73
  -6  -1 -14   -0.15    0.31
  -6  -1 -14   -0.40    0.45
  -6   1 -14   -0.14    0.29
  -6   1 -14    0.21    0.49
  -7  -1 -14    3.89    0.62
  -7  -1 -14    1.83    0.72
  -7   1 -14    3.38    0.74
  -8  -1 -14    3.58    0.85
  -8   1 -14    3.10    0.68
  -9  -1 -14    1.03    0.52
  -9   1 -14    0.82    0.53
 -11  -2  14    2.13    0.71
 -11   2  14    2.71    0.72
 -10  -2  14    0.94    0.57
 -10   2  14    2.08    0.64
  -9  -2  14    0.52    0.50
  -9  -2  14    0.09    0.36
  -9   2  14   -0.11    0.50
  -9   2  14    0.17    0.30
  -8  -2  14    3.14    0.64
  -8  -2  14    4.84    0.82
  -8   2  14    2.73    0.69
  -8   2  14    3.74    0.68
  -7  -2  14   15.60    1.51
  -7  -2  14   19.50    1.50
  -7  -2  14   18.63    1.46
   7  -2 -14   17.68    1.78
  -7  -2  14   16.89    1.54
  -7   2  14   16.35    1.51
  -7   2  14   16.15    1.48
   6  -2 -14    9.01    1.25
  -6  -2  14    8.39    0.92
  -6  -2  14    9.75    0.95
  -6  -2  14    9.72    0.99
  -6  -2  14    6.73    1.02
  -6  -2  14    7.00    1.11
  -6   2  14    8.22    1.05
  -6   2  14    8.29    1.00
   5  -2 -14    0.65    0.56
  -5  -2  14    0.95    0.36
  -5  -2  14    0.91    0.32
  -5  -2  14    0.70    0.39
  -5  -2  14    1.45    0.54
  -5   2  14    1.21    0.51
  -5   2  14    0.94    0.34
  -5   2  14    0.90    0.38
  -5   2  14    0.90    0.35
   4  -2 -14    5.47    1.02
  -4  -2  14    4.18    0.69
  -4  -2  14    6.12    0.71
  -4  -2  14    6.34    0.90
  -4   2  14    6.54    0.71
  -4   2  14    6.55    0.90
  -4   2  14    5.35    0.66
   3  -2 -14   24.96    2.05
  -3  -2  14   24.29    1.90
  -3  -2  14   20.72    1.77
  -3   2  14   27.98    1.92
  -3   2  14   22.53    1.65
  -3   2  14   24.94    1.74
   3   2 -14   23.97    1.85
  -2  -2  14   51.41    3.18
   2  -2 -14   40.11    3.24
   2  -2 -14   43.18    3.08
   2   2 -14   46.90    3.13
  -2   2  14   46.93    3.13
  -2   2  14   45.04    2.97
  -1  -2  14   12.39    1.12
   1  -2 -14    9.08    1.14
   1  -2 -14   10.56    1.06
  -1   2  14   11.85    1.09
  -1   2  14   11.21    1.00
   1   2 -14    9.33    1.04
   0  -2 -14   12.99    1.16
   0  -2  14   14.60    1.19
   0   2 -14    9.47    1.11
   0   2  14   12.44    1.14
  -1  -2 -14   30.16    2.03
  -1  -2 -14   27.35    2.06
  -1   2 -14   25.52    2.04
  -2  -2 -14   19.83    1.53
  -2  -2 -14   17.87    1.45
  -2   2 -14   16.10    1.39
  -2   2 -14   16.43    1.46
  -3  -2 -14    7.09    0.93
  -3  -2 -14    7.74    0.96
  -3   2 -14    7.44    0.91
  -3   2 -14    7.68    0.94
  -4  -2 -14   -0.44    0.35
  -4  -2 -14    0.27    0.38
  -4   2 -14   -0.23    0.28
  -4   2 -14    0.71    0.39
  -5  -2 -14    8.81    1.21
  -5  -2 -14   10.66    1.05
  -5   2 -14   11.15    1.04
  -5   2 -14   10.10    1.17
  -6  -2 -14   12.14    1.02
  -6  -2 -14    9.63    1.23
  -6   2 -14    6.94    1.07
  -6   2 -14   11.10    0.98
  -7  -2 -14    3.03    0.47
  -7  -2 -14    2.69    0.70
  -7   2 -14    1.16    0.55
  -8  -2 -14    0.26    0.44
  -8   2 -14   -0.75    0.38
  -9  -2 -14    1.27    0.60
 -11  -3  14   -0.02    0.52
 -11   3  14   -0.12    0.52
 -10  -3  14    3.01    0.75
 -10   3  14    1.18    0.56
  -9  -3  14    3.69    0.67
  -9  -3  14    4.74    0.84
  -9   3  14    3.70    0.58
  -9   3  14    4.53    0.87
  -8  -3  14    5.09    0.82
  -8  -3  14    5.11    0.84
  -8  -3  14    5.64    0.82
   8  -3 -14    5.15    1.03
  -8   3  14    4.23    0.81
  -8   3  14    4.23    0.71
  -7  -3  14    1.03    0.53
   7  -3 -14    1.17    0.73
  -7  -3  14    0.36    0.40
  -7  -3  14    1.08    0.51
  -7   3  14   -0.04    0.40
  -7   3  14    0.87    0.51
  -6  -3  14    7.27    1.03
  -6  -3  14    8.10    0.91
   6  -3 -14    5.71    1.04
  -6  -3  14    7.37    0.86
  -6   3  14    7.78    0.92
  -6   3  14    6.25    0.93
  -5  -3  14   20.86    1.74
  -5  -3  14   22.77    1.65
   5  -3 -14   19.98    1.92
  -5  -3  14   20.30    1.57
  -5   3  14   19.80    1.55
  -5   3  14   16.71    1.50
  -5   3  14   22.02    1.72
  -5   3  14   21.56    1.51
  -4  -3  14   15.74    1.34
  -4  -3  14   15.27    1.42
  -4  -3  14   15.80    1.25
   4  -3 -14   16.16    1.63
  -4   3  14   15.19    1.22
  -4   3  14   15.10    1.22
  -4   3  14   15.07    1.40
  -3  -3  14    2.11    0.60
  -3  -3  14    0.60    0.40
   3  -3 -14    2.35    0.70
  -3   3  14    1.83    0.39
   3   3 -14    0.69    0.43
  -3   3  14    1.00    0.45
  -3   3  14    2.70    0.47
   2  -3 -14    9.34    1.01
  -2  -3  14    6.73    0.79
   2  -3 -14    9.54    1.22
  -2  -3  14    4.36    0.79
  -2   3  14    6.57    0.77
  -2   3  14    8.99    0.99
   2   3 -14    6.33    0.89
   1  -3 -14   32.24    2.50
   1  -3 -14   32.80    2.35
  -1  -3  14   30.32    2.27
  -1  -3  14   35.02    2.39
  -1   3  14   31.11    2.22
   1   3 -14   33.40    2.41
  -1   3  14   33.27    2.37
   0  -3 -14   38.63    2.65
   0  -3  14   42.39    2.71
   0   3 -14   29.57    2.60
   0   3  14   39.74    2.66
  -1  -3 -14   11.39    1.06
  -1  -3 -14    9.68    1.08
  -1   3 -14   10.77    1.10
  -2  -3 -14    2.79    0.59
  -2  -3 -14    3.07    0.62
  -2   3 -14    2.42    0.50
  -2   3 -14    2.81    0.64
  -3  -3 -14   11.07    1.15
  -3  -3 -14   13.76    1.21
  -3   3 -14   13.14    1.12
  -3   3 -14    9.76    1.13
  -4  -3 -14   20.94    1.69
  -4  -3 -14   18.05    1.59
  -4   3 -14   20.69    1.59
  -4   3 -14   17.99    1.56
  -5  -3 -14    5.22    0.78
  -5  -3 -14    3.90    0.77
  -5   3 -14    4.24    0.74
  -5   3 -14    4.75    0.70
  -6  -3 -14   -0.73    0.38
  -6  -3 -14    0.22    0.33
  -6   3 -14    0.35    0.40
  -6   3 -14    0.86    0.37
  -7  -3 -14    2.57    0.80
  -7  -3 -14    2.58    0.47
  -7   3 -14    2.51    0.60
  -8  -3 -14    2.62    0.82
  -9  -3 -14    0.81    0.47
 -11  -4  14    1.06    0.58
 -11   4  14   -0.03    0.56
 -10  -4  14    2.30    0.69
 -10   4  14    0.90    0.55
  -9  -4  14    0.04    0.39
  -9  -4  14    0.38    0.47
  -9   4  14    0.03    0.30
  -9   4  14    0.35    0.57
   8  -4 -14    3.92    1.47
  -8  -4  14    2.64    0.66
  -8  -4  14    3.14    0.68
  -8   4  14    3.09    0.71
  -8   4  14    2.70    0.61
  -7  -4  14   11.53    1.19
   7  -4 -14   14.04    1.55
  -7  -4  14   11.96    1.31
  -7  -4  14   13.16    1.31
  -7   4  14   13.44    1.29
  -7   4  14   11.12    1.20
   6  -4 -14   12.16    1.48
  -6  -4  14   10.62    1.08
  -6  -4  14   10.03    1.24
  -6  -4  14   10.36    1.11
  -6  -4  14   10.34    1.09
  -6   4  14   11.21    1.18
  -6   4  14   10.38    1.21
  -5  -4  14    0.31    0.37
   5  -4 -14   -0.07    0.46
  -5  -4  14    0.19    0.36
  -5  -4  14    0.37    0.43
  -5   4  14    0.07    0.30
  -5   4  14   -0.13    0.39
  -5   4  14   -0.02    0.33
  -4  -4  14    4.16    0.64
  -4  -4  14    3.87    0.78
   4  -4 -14    4.43    0.97
  -4  -4  14    4.42    0.73
  -4   4  14    5.90    0.69
  -4   4  14    4.31    0.77
  -4   4  14    6.20    0.70
  -3  -4  14   19.28    1.53
  -3  -4  14   18.50    1.61
   3  -4 -14   18.79    1.79
   3   4 -14   16.64    1.54
  -3   4  14   17.59    1.36
  -3   4  14   19.49    1.42
  -3   4  14   18.55    1.57
  -2  -4  14   44.85    3.10
   2  -4 -14   40.44    3.12
  -2  -4  14   39.96    3.16
   2  -4 -14   42.28    3.33
   2   4 -14   45.83    3.20
  -2   4  14   50.46    3.05
  -2   4  14   49.09    2.99
  -2   4  14   54.40    3.27
  -1  -4  14   13.58    1.20
   1  -4 -14   11.23    1.23
  -1  -4  14   13.78    1.28
   1  -4 -14   13.00    1.42
  -1   4  14   12.93    1.13
  -1   4  14   13.96    1.31
   1   4 -14   16.06    1.34
   0  -4 -14   10.59    0.99
   0  -4 -14   10.86    1.12
   0  -4  14   10.75    1.02
   0   4  14   12.04    1.30
   0   4 -14    9.21    1.12
  -1  -4 -14   27.26    1.97
  -1  -4 -14   25.41    2.06
   1  -4  14   28.04    1.97
  -1   4 -14   27.07    2.07
  -2  -4 -14    8.34    1.00
  -2  -4 -14   10.12    0.98
  -2   4 -14    6.35    0.95
  -2   4 -14    9.23    0.96
  -3  -4 -14    6.96    0.94
  -3  -4 -14    6.94    0.97
  -3   4 -14    7.39    0.98
  -3   4 -14    6.76    0.88
  -4  -4 -14    0.61    0.40
  -4  -4 -14    0.00    0.42
  -4   4 -14   -0.22    0.41
  -4   4 -14    0.39    0.36
  -5  -4 -14   11.69    1.12
  -5  -4 -14    8.73    1.22
  -5   4 -14    9.54    1.09
  -5   4 -14    9.64    1.02
  -6  -4 -14   10.44    1.33
  -6  -4 -14   12.09    1.12
  -6   4 -14   11.90    1.02
  -6   4 -14    9.26    1.11
  -7  -4 -14    2.23    0.71
  -7  -4 -14    2.25    0.46
  -8  -4 -14    0.21    0.56
 -10  -5  14    0.72    0.60
 -10  -5  14    2.21    0.55
 -10   5  14    1.25    0.58
  -9  -5  14    5.21    0.89
  -9  -5  14    6.13    0.82
  -9   5  14    4.53    0.89
  -9   5  14    3.77    0.59
  -8  -5  14    3.80    0.77
  -8  -5  14    6.06    0.94
  -8   5  14    5.46    0.77
  -8   5  14    4.92    0.86
  -7  -5  14    0.10    0.41
   7  -5 -14    0.47    0.64
  -7  -5  14   -0.69    0.40
  -7  -5  14    0.23    0.42
  -7   5  14   -0.21    0.35
  -7   5  14    1.02    0.54
  -6  -5  14    3.01    0.65
   6  -5 -14    3.90    0.99
  -6  -5  14    3.94    0.76
  -6   5  14    4.42    0.76
  -6   5  14    3.79    0.54
  -6   5  14    3.54    0.73
  -5  -5  14   17.64    1.60
   5  -5 -14   15.63    1.76
  -5  -5  14   18.30    1.44
  -5  -5  14   15.87    1.44
  -5   5  14   16.54    1.40
  -5   5  14   16.03    1.49
  -5   5  14   16.77    1.30
  -4  -5  14   16.33    1.40
  -4  -5  14   16.03    1.49
   4  -5 -14   17.52    1.74
  -4   5  14   16.24    1.29
  -4   5  14   14.54    1.24
  -4   5  14   13.49    1.43
  -3  -5  14    1.49    0.58
  -3  -5  14    0.92    0.40
   3  -5 -14    2.26    0.69
  -3   5  14    1.77    0.46
  -3   5  14    1.68    0.57
   3   5 -14    1.50    0.53
  -3   5  14    1.93    0.45
  -2  -5  14    6.07    0.92
   2  -5 -14    5.30    0.97
  -2  -5  14    5.33    0.76
   2  -5 -14    5.94    0.88
   2   5 -14    4.78    0.85
  -2   5  14    5.87    0.71
  -2   5  14    6.80    0.78
  -2   5  14    6.41    0.95
   1  -5 -14   24.00    2.17
   1  -5 -14   30.69    2.43
  -1  -5  14   26.32    2.19
  -1  -5  14   25.59    2.10
   1  -5 -14   31.38    2.10
  -1   5  14   31.52    2.30
  -1   5  14   32.06    2.11
   1   5 -14   31.43    2.26
  -1   5  14   32.09    2.04
   0  -5 -14   28.70    2.20
   0  -5  14   27.60    2.07
   0  -5 -14   28.35    2.04
   0   5 -14   31.58    2.23
   0   5  14   26.96    2.22
  -1  -5 -14    7.38    0.88
  -1  -5 -14    6.97    1.01
   1  -5  14    5.82    0.76
  -1   5 -14    5.76    0.90
  -2  -5 -14    0.53    0.42
  -2  -5 -14    0.57    0.47
  -2   5 -14    0.69    0.48
  -2   5 -14    0.32    0.31
  -3  -5 -14   14.40    1.41
  -3  -5 -14   16.14    1.41
  -3   5 -14   14.38    1.40
  -3   5 -14   15.87    1.28
  -4  -5 -14   15.31    1.43
  -4  -5 -14   15.11    1.41
  -4   5 -14   12.95    1.34
  -4   5 -14   16.65    1.30
  -5  -5 -14    6.05    0.86
  -5  -5 -14    3.49    0.81
  -5   5 -14    4.13    0.70
  -6  -5 -14    0.05    0.32
  -6  -5 -14   -0.15    0.46
  -6   5 -14    0.30    0.33
  -7  -5 -14    2.10    0.46
  -7  -5 -14    1.21    0.70
  -8  -5 -14    1.62    0.62
 -10  -6  14    0.65    0.58
 -10  -6  14    0.83    0.42
 -10   6  14    0.89    0.52
  -9  -6  14    0.01    0.48
  -9  -6  14    0.24    0.40
  -9   6  14    0.36    0.54
  -9   6  14    0.02    0.35
  -8  -6  14    1.22    0.60
  -8  -6  14    1.42    0.64
  -8   6  14    1.44    0.50
  -8   6  14    2.24    0.67
  -7  -6  14    8.78    1.09
  -7  -6  14    9.22    1.21
   7  -6 -14   11.39    1.57
  -7   6  14   10.57    1.27
  -7   6  14   11.72    1.18
  -6  -6  14    8.01    1.12
   6  -6 -14    9.21    1.43
  -6  -6  14    6.64    1.05
  -6   6  14    8.15    0.82
  -6   6  14    8.58    1.06
  -6   6  14    9.72    1.15
  -5  -6  14    0.16    0.46
  -5  -6  14    0.41    0.35
  -5  -6  14    0.30    0.44
   5  -6 -14    1.15    0.63
  -5   6  14   -0.32    0.41
  -5   6  14   -0.09    0.39
  -5   6  14    0.19    0.31
  -4  -6  14    3.99    0.81
  -4  -6  14    3.94    0.75
   4  -6 -14    3.97    0.92
  -4   6  14    2.79    0.71
  -4   6  14    3.81    0.66
  -4   6  14    4.03    0.60
   3  -6 -14   18.87    1.84
  -3  -6  14   20.45    1.70
  -3  -6  14   20.98    1.59
  -3   6  14   18.29    1.47
   3   6 -14   18.11    1.62
  -3   6  14   18.25    1.71
  -3   6  14   16.26    1.44
   2  -6 -14   28.74    2.31
   2  -6 -14   28.87    1.90
  -2  -6  14   23.46    2.04
  -2  -6  14   25.80    1.96
   2  -6 -14   27.70    2.10
  -2   6  14   25.85    2.11
   2   6 -14   22.59    2.02
  -2   6  14   23.80    1.89
  -2   6  14   25.69    1.86
   1  -6 -14    6.46    0.98
   1  -6 -14    6.69    0.79
   1  -6 -14    5.44    1.04
  -1  -6  14    5.66    0.78
  -1  -6  14    4.72    0.83
  -1   6  14    7.67    0.87
   1   6 -14    6.84    1.00
  -1   6  14    5.83    0.96
  -1   6  14    6.34    0.76
   0  -6  14    4.66    0.73
   0  -6 -14    5.61    0.76
   0  -6 -14    5.71    0.91
   0   6 -14    6.22    0.95
   0   6  14    7.77    0.80
   0   6  14    5.50    0.92
   1  -6  14   16.34    1.41
  -1  -6 -14   16.11    1.40
  -1  -6 -14   17.90    1.59
  -1   6 -14   18.30    1.58
   2  -6  14   14.38    1.21
  -2  -6 -14   14.11    1.42
  -2  -6 -14   12.54    1.24
  -2   6 -14   15.30    1.40
  -2   6 -14   14.25    1.17
  -3  -6 -14    6.30    0.92
  -3  -6 -14    6.72    0.99
  -3   6 -14    5.49    0.90
  -4  -6 -14   -0.21    0.42
  -4  -6 -14    0.53    0.53
  -4   6 -14    0.14    0.43
  -5  -6 -14    5.15    0.89
  -5  -6 -14    4.32    0.84
  -5   6 -14    5.95    0.79
  -6  -6 -14    5.86    1.01
  -6  -6 -14    5.44    0.82
  -6   6 -14    5.28    0.70
  -7  -6 -14    2.01    0.47
  -7  -6 -14    1.34    0.60
  -8  -6 -14    0.43    0.57
 -10  -7  14    1.67    0.55
 -10   7  14    1.53    0.61
  -9  -7  14    3.05    0.65
  -9   7  14    3.58    0.80
  -8  -7  14    1.30    0.61
  -8   7  14    2.36    0.55
  -8   7  14    2.74    0.73
  -7  -7  14    0.57    0.59
  -7   7  14   -0.13    0.42
  -7   7  14    0.23    0.52
  -6  -7  14    2.36    0.71
   6  -7 -14    4.36    0.97
  -6   7  14    3.55    0.53
  -6   7  14    3.12    0.69
  -6   7  14    3.02    0.69
  -5  -7  14   12.03    1.48
   5  -7 -14   13.25    1.72
  -5  -7  14   13.05    1.54
  -5   7  14   12.20    1.09
  -5   7  14   12.50    1.38
  -5   7  14   13.23    1.26
  -4  -7  14   15.72    1.63
   4  -7 -14   16.47    1.78
  -4  -7  14   19.17    1.70
  -4  -7  14   17.38    1.50
  -4   7  14   17.09    1.35
  -4   7  14   14.86    1.58
  -4   7  14   15.02    1.38
  -3  -7  14    1.57    0.60
  -3  -7  14    1.30    0.48
  -3  -7  14    2.08    0.61
   3  -7 -14    2.57    0.82
  -3   7  14    2.88    0.57
  -3   7  14    2.53    0.56
   3   7 -14    3.04    0.71
  -3   7  14    1.92    0.72
   2  -7 -14    6.44    1.10
  -2  -7  14    7.33    0.89
  -2   7  14    7.03    0.87
  -2   7  14    6.72    0.88
  -2   7  14    8.24    1.13
  -1  -7  14   10.42    1.27
   1  -7 -14   11.67    1.05
   1  -7 -14    9.79    1.25
  -1  -7  14   10.14    1.26
  -1  -7  14   11.74    1.12
   1   7 -14   11.41    1.24
  -1   7  14   11.54    1.21
  -1   7  14   11.62    1.06
  -1   7  14   12.88    1.35
   0  -7 -14   10.72    0.98
   0  -7 -14    7.66    1.14
   0  -7  14    8.76    1.00
   0   7 -14   12.49    1.23
   0   7  14   10.58    1.02
   0   7  14   10.67    1.28
  -1  -7 -14    8.66    0.96
   1  -7  14    8.89    0.94
  -1  -7 -14    6.55    1.01
  -1   7 -14    8.75    1.18
  -2  -7 -14    1.20    0.62
  -2  -7 -14    0.77    0.47
  -2   7 -14    1.05    0.53
  -3  -7 -14   12.65    1.25
  -3  -7 -14   13.04    1.38
  -3   7 -14   13.71    1.36
  -4  -7 -14   10.47    1.32
  -4  -7 -14   11.54    1.32
  -4   7 -14   12.12    1.22
  -5  -7 -14    1.73    0.62
  -5  -7 -14    1.62    0.60
  -5   7 -14    2.45    0.59
  -6  -7 -14   -0.09    0.36
  -6  -7 -14   -0.47    0.52
  -6   7 -14    0.08    0.33
  -7  -7 -14    1.41    0.46
  -7  -7 -14    0.80    0.53
  -8  -7 -14    1.39    0.58
  -9  -8  14   -0.19    0.41
  -9   8  14   -0.08    0.55
  -8  -8  14    3.46    0.74
  -8   8  14    2.85    0.73
  -8   8  14    2.72    0.57
  -7  -8  14    7.31    1.11
  -7   8  14    6.30    1.02
  -7   8  14    6.28    0.97
  -6  -8  14    5.08    0.94
  -6   8  14    3.96    0.82
  -6   8  14    5.90    0.67
  -6   8  14    6.54    0.93
  -5  -8  14    0.28    0.61
   5  -8 -14    0.05    0.50
  -5   8  14    0.91    0.49
  -5   8  14    0.42    0.55
  -5   8  14   -0.11    0.34
  -4  -8  14    7.36    1.10
   4  -8 -14    6.94    1.20
  -4   8  14    4.71    0.92
  -4   8  14    4.51    0.69
  -4   8  14    5.17    0.82
  -3  -8  14   15.01    1.59
  -3  -8  14   16.35    1.47
   3  -8 -14   15.53    1.75
  -3   8  14   16.06    1.64
  -3   8  14   15.09    1.38
  -3   8  14   15.40    1.36
   3   8 -14   21.41    2.38
   2  -8 -14   17.31    1.79
  -2  -8  14   14.95    1.55
  -2  -8  14   15.90    1.58
  -2  -8  14   15.79    1.44
   2   8 -14   17.75    1.61
  -2   8  14   16.20    1.41
  -2   8  14   16.52    1.67
  -1  -8  14    2.69    0.58
   1  -8 -14    3.34    0.71
  -1   8  14    2.74    0.59
  -1   8  14    2.14    0.71
   1   8 -14    2.32    0.68
  -1   8  14    2.36    0.62
   0  -8  14    2.49    0.53
   0  -8 -14    3.39    0.76
   0   8  14    2.31    0.58
   0   8  14    3.54    0.83
   0   8 -14    2.75    0.72
  -1  -8 -14   15.44    1.46
  -1  -8 -14   12.25    1.18
  -1   8 -14   12.60    1.40
  -2  -8 -14   13.16    1.44
  -2  -8 -14   11.95    1.22
  -2   8 -14   16.79    1.49
  -3  -8 -14    2.73    0.63
  -3  -8 -14    3.05    0.76
  -3   8 -14    2.72    0.67
  -4  -8 -14    1.03    0.57
  -4  -8 -14    0.94    0.50
  -4   8 -14    0.64    0.50
  -5  -8 -14    4.99    0.93
  -5  -8 -14    5.82    0.94
  -5   8 -14    5.07    0.81
  -6  -8 -14    3.75    0.82
  -6  -8 -14    6.14    0.88
  -6   8 -14    5.06    0.67
  -7  -8 -14    1.53    0.63
  -7  -8 -14    2.38    0.51
  -9  -9  14    2.26    0.71
  -9   9  14    1.22    0.63
  -8  -9  14    1.29    0.59
  -8   9  14    0.55    0.49
  -8   9  14    1.36    0.43
  -7  -9  14    0.16    0.54
  -7   9  14   -0.29    0.39
  -7   9  14   -0.05    0.53
  -6  -9  14    1.74    0.71
  -6   9  14    2.75    0.48
  -6   9  14    1.52    0.59
  -6   9  14    2.42    0.65
  -5  -9  14   10.71    1.38
  -5   9  14   10.09    1.20
  -5   9  14   10.52    1.01
  -5   9  14   12.38    1.45
  -4  -9  14   11.13    1.42
   4  -9 -14   10.75    1.57
  -4   9  14   11.89    1.33
  -4   9  14   13.21    1.14
  -4   9  14   13.03    1.59
   3  -9 -14    0.70    0.66
  -3  -9  14   -0.43    0.46
  -3   9  14    0.50    0.56
  -3   9  14    0.65    0.46
  -3   9  14    1.05    0.53
  -2  -9  14    6.41    1.08
   2   9 -14    7.50    1.07
  -2   9  14    6.20    0.91
  -2   9  14    5.84    0.87
  -2   9  14    6.84    1.12
   1  -9 -14   12.16    1.53
  -1   9  14   12.38    1.39
  -1   9  14   14.47    1.70
   1   9 -14   14.38    1.48
  -1   9  14   15.75    1.35
   0  -9  14   14.12    1.23
   0  -9 -14   12.09    1.53
   0   9  14   14.00    1.48
   0   9  14   12.26    1.33
   0   9 -14   11.63    1.45
  -1  -9 -14    4.17    0.88
  -1   9 -14    4.92    0.92
  -2  -9 -14    0.29    0.49
  -2   9 -14    0.80    0.61
  -3  -9 -14   10.80    1.09
  -3  -9 -14   11.68    1.44
  -3   9 -14    8.91    1.19
  -4  -9 -14    5.29    0.98
  -4  -9 -14    8.86    1.06
  -4   9 -14    8.74    1.07
  -5  -9 -14    1.16    0.55
  -5  -9 -14    1.73    0.59
  -5   9 -14    1.25    0.52
  -6  -9 -14    0.35    0.49
  -6  -9 -14   -0.44    0.42
  -6   9 -14   -0.04    0.32
  -7  -9 -14    1.34    0.55
  -7  -9 -14    1.64    0.49
  -8 -10  14    1.28    0.59
  -8  10  14    1.06    0.39
  -8  10  14    1.35    0.54
  -7 -10  14    6.06    0.98
  -7  10  14    5.30    0.83
  -7  10  14    3.90    0.85
  -6 -10  14    5.35    1.05
  -6  10  14    4.19    0.57
  -6  10  14    4.10    0.85
  -6  10  14    5.74    0.93
  -5 -10  14    0.34    0.52
  -5  10  14   -0.16    0.43
  -5  10  14    0.71    0.39
  -5  10  14   -0.09    0.41
  -4 -10  14    1.85    0.74
  -4  10  14    1.52    0.48
  -4  10  14    1.37    0.56
  -4  10  14    1.47    0.68
  -3 -10  14    8.43    1.22
  -3  10  14    8.19    1.09
  -3  10  14    7.22    1.22
  -3  10  14    8.88    1.03
  -2 -10  14    9.16    1.25
  -2  10  14    9.32    1.40
   2  10 -14   12.49    1.49
  -2  10  14   10.11    1.21
  -2  10  14    9.24    1.16
  -1  10  14    2.27    0.59
  -1  10  14    2.22    0.68
   1  10 -14    1.88    0.76
  -1  10  14    2.04    0.70
   0 -10 -14    4.10    0.87
   0  10  14    4.31    0.92
   0  10 -14    3.58    0.82
   0  10  14    2.61    0.70
  -1 -10 -14   11.44    1.51
  -1  10 -14   13.65    1.47
  -2 -10 -14    7.71    1.24
  -2  10 -14    8.29    1.19
  -3 -10 -14    2.41    0.74
  -3  10 -14    2.18    0.64
  -4 -10 -14    0.24    0.49
  -4  10 -14    0.41    0.51
  -5 -10 -14    1.94    0.67
  -5  10 -14    1.76    0.53
  -6 -10 -14    3.05    0.66
  -7 -11  14    0.39    0.46
  -7  11  14    0.06    0.45
  -7  11  14    0.67    0.47
  -6 -11  14    2.06    0.83
  -6  11  14    1.39    0.67
  -6  11  14    2.18    0.70
  -6  11  14    2.30    0.42
  -5 -11  14    3.91    0.99
  -5  11  14    4.48    0.81
  -5  11  14    4.06    0.64
  -5  11  14    4.22    0.90
  -4 -11  14    5.23    1.08
  -4  11  14    4.74    0.85
  -4  11  14    4.88    0.72
  -4  11  14    6.19    1.10
  -3 -11  14    0.72    0.56
  -3  11  14    0.82    0.49
  -3  11  14    1.09    0.57
  -3  11  14    1.51    0.67
   2  11 -14    1.60    0.72
  -2  11  14    1.25    0.58
  -2  11  14    1.28    0.66
  -2  11  14    1.25    0.56
  -1  11  14    7.22    1.00
  -1  11  14    9.73    1.14
  -1  11  14    7.31    1.19
   1  11 -14    6.46    1.10
   0 -11 -14    8.49    1.22
   0  11 -14    6.25    1.20
   0  11  14    9.64    1.18
   0  11  14   11.85    1.64
  -1 -11 -14    2.06    0.71
   1  11  14    1.34    0.55
  -1  11 -14    1.76    0.75
  -2 -11 -14    0.47    0.51
  -2  11 -14    0.89    0.64
  -3 -11 -14    4.24    0.90
  -3  11 -14    4.85    0.93
  -4 -11 -14    6.25    1.03
  -4  11 -14    3.73    0.75
  -5 -11 -14    2.24    0.75
  -5  11 -14    1.42    0.50
  -6 -12  14    2.20    0.75
  -6  12  14    2.21    0.73
  -6  12  14    3.02    0.78
  -5 -12  14   -0.25    0.48
  -5  12  14   -0.01    0.42
  -5  12  14    0.18    0.60
  -5  12  14    0.03    0.36
  -4 -12  14    1.04    0.72
  -4  12  14    0.75    0.44
  -4  12  14    1.84    0.58
  -4  12  14    1.03    0.62
  -3 -12  14    2.79    0.85
  -3  12  14    2.81    0.70
  -3  12  14    3.88    0.71
  -3  12  14    2.75    0.90
  -2  12  14    7.54    1.21
  -2  12  14    5.69    0.93
  -2  12  14    5.33    0.93
   2  12 -14    8.24    1.29
   1  12 -14    3.16    0.85
  -1  12  14    1.88    0.65
  -1  12  14    2.21    0.64
  -1  12  14    1.23    0.67
   0 -12 -14    1.68    0.73
   0  12  14    2.02    0.65
   0  12 -14    1.83    0.77
  -1 -12 -14    6.47    1.14
  -1  12 -14    4.79    0.95
   1  12  14    6.71    1.01
  -2 -12 -14    5.51    1.05
  -2  12 -14    3.03    0.85
  -3 -12 -14    2.65    0.86
  -3  12 -14    1.56    0.60
  -4 -12 -14    0.64    0.49
  -4  12 -14   -0.26    0.41
  -4 -13  14    4.28    0.87
  -4  13  14    3.87    0.88
  -4  13  14    3.40    0.73
  -4  13  14    2.96    0.59
  -3 -13  14    0.38    0.77
  -3  13  14    0.70    0.47
  -3  13  14   -0.35    0.38
  -3  13  14    0.98    0.60
  -2  13  14    1.33    0.53
  -2  13  14    1.21    0.52
  -2  13  14    2.12    0.77
   2  13 -14    1.44    0.69
  -1  13  14    4.93    0.87
  -1  13  14    5.49    0.88
  -1  13  14    5.30    1.00
   1  13 -14    7.44    1.12
   0  13  14    4.76    0.88
   0  13 -14    4.05    0.86
  -1 -13 -14    1.35    0.64
  -1  13 -14    1.54    0.66
   1  13  14    1.31    0.60
  -2 -13 -14    0.20    0.55
   2  13  14    0.15    0.47
  -2  13 -14    0.54    0.58
  -1  14  14    0.51    0.59
   1  14 -14    0.76    0.62
  -1  14  14    0.71    0.49
  -1  14  14    1.21    0.53
 -11   0  15    0.16    0.43
 -10   0  15    0.30    0.50
  -9   0  15    6.60    0.83
  -9   0  15    5.46    0.88
  -8   0  15    7.94    1.04
  -8   0  15    7.42    1.00
  -7   0  15    1.19    0.45
  -7   0  15    0.60    0.46
  -6   0  15    0.86    0.44
  -6   0  15    0.30    0.48
  -6   0  15    1.44    0.42
  -6   0  15    0.77    0.41
  -5   0  15   13.50    1.07
  -5   0  15   11.18    1.14
  -5   0  15   12.84    1.09
  -5   0  15   14.18    1.34
  -4   0  15   27.56    2.10
  -4   0  15   31.45    2.26
  -3   0  15   17.74    1.39
  -3   0  15   18.33    1.55
  -2   0  15   -0.07    0.28
   2   0 -15    0.18    0.33
  -2   0  15    0.29    0.44
  -1   0  15   32.90    2.37
   1   0 -15   32.24    2.35
   0   0  15   32.66    2.48
   0   0 -15   37.83    2.54
  -1   0 -15   14.96    1.31
  -1   0 -15   14.71    1.32
  -2   0 -15    1.96    0.56
  -2   0 -15    2.69    0.58
  -3   0 -15    3.51    0.68
  -3   0 -15    4.72    0.81
  -4   0 -15   15.84    1.45
  -4   0 -15   16.05    1.40
  -5   0 -15    7.27    1.02
  -5   0 -15    9.02    0.95
  -6   0 -15    0.38    0.37
  -6   0 -15    0.00    0.37
  -7   0 -15    2.90    0.72
  -8   0 -15    2.57    0.70
  -9   0 -15    2.05    0.62
 -11  -1  15    1.73    0.65
 -11   1  15    1.02    0.55
 -10  -1  15    1.68    0.65
 -10   1  15    2.96    0.68
  -9  -1  15    0.73    0.52
  -9  -1  15    0.36    0.40
  -9  -1  15    0.69    0.38
  -9   1  15   -0.19    0.50
  -9   1  15    0.49    0.38
  -8  -1  15    2.09    0.59
  -8  -1  15    1.18    0.54
  -8   1  15    2.08    0.60
  -8   1  15    0.89    0.47
  -7  -1  15   10.16    1.22
  -7  -1  15   11.27    1.49
  -7   1  15   11.25    1.10
  -7   1  15    9.63    1.19
  -6  -1  15   21.19    1.59
  -6  -1  15   14.61    1.31
  -6  -1  15   16.14    1.39
  -6   1  15   15.94    1.35
  -6   1  15   16.00    1.50
  -6   1  15   14.74    1.44
  -5  -1  15    5.90    0.86
  -5  -1  15    6.59    0.81
  -5   1  15    5.97    0.72
  -5   1  15    4.83    0.82
  -5   1  15    3.97    0.67
  -4  -1  15    2.69    0.52
  -4  -1  15    2.14    0.60
  -4   1  15    2.34    0.47
  -4   1  15    1.56    0.55
  -3  -1  15   25.12    1.85
  -3  -1  15   21.35    1.69
   3   1 -15   20.96    1.80
  -3   1  15   22.60    1.61
  -3   1  15   20.23    1.74
  -2  -1  15   30.61    2.12
   2  -1 -15   30.70    2.24
  -2  -1  15   29.93    2.28
   2   1 -15   30.01    2.25
  -2   1  15   31.37    2.12
  -2   1  15   30.49    2.26
  -1  -1  15   24.05    1.84
   1  -1 -15   20.93    1.75
  -1   1  15   21.46    1.78
   1   1 -15   24.85    1.83
   0  -1 -15    0.38    0.37
   0  -1  15    1.25    0.49
   0   1  15    0.56    0.45
   0   1 -15    0.49    0.38
  -1  -1 -15   21.27    1.73
  -1  -1 -15   21.91    1.77
  -1   1 -15   24.03    1.82
  -2  -1 -15   29.01    2.25
  -2  -1 -15   31.14    2.23
  -2   1 -15   31.48    2.23
  -2   1 -15   30.90    2.28
  -3  -1 -15    8.73    1.08
  -3  -1 -15    7.63    0.99
  -3   1 -15    8.30    1.03
  -3   1 -15    8.93    1.06
  -4  -1 -15    0.38    0.34
  -4  -1 -15    0.24    0.38
  -4   1 -15    1.14    0.46
  -4   1 -15    0.15    0.50
  -5  -1 -15    0.95    0.59
  -5  -1 -15    1.50    0.53
  -5   1 -15    2.12    0.54
  -5   1 -15    1.90    0.63
  -6  -1 -15    6.93    1.10
  -6  -1 -15    8.24    0.90
  -6   1 -15    6.91    1.05
  -6   1 -15    9.78    0.89
  -7  -1 -15    4.91    0.96
  -7   1 -15    6.86    1.01
  -8  -1 -15    0.12    0.46
  -8   1 -15    0.19    0.42
  -9  -1 -15    0.40    0.53
  -9   1 -15    0.15    0.42
 -11  -2  15   -0.35    0.44
 -11   2  15    0.45    0.57
 -10  -2  15    1.19    0.58
 -10   2  15    1.25    0.61
  -9  -2  15    2.62    0.71
  -9  -2  15    4.18    0.71
  -9   2  15    3.31    0.71
  -9   2  15    3.79    0.63
  -8  -2  15    4.62    0.80
  -8  -2  15    5.11    0.81
  -8   2  15    4.81    0.78
  -8   2  15    4.84    0.77
  -7  -2  15    1.63    0.47
   7  -2 -15    2.45    0.75
  -7  -2  15    1.59    0.62
  -7  -2  15    1.54    0.52
  -7   2  15    1.11    0.47
  -7   2  15    2.10    0.59
  -6  -2  15    2.23    0.49
  -6  -2  15    2.81    0.54
  -6  -2  15    1.74    0.66
  -6  -2  15    2.00    0.49
   6  -2 -15    2.80    0.78
  -6   2  15    2.35    0.56
  -6   2  15    1.88    0.55
  -5  -2  15   16.82    1.47
  -5  -2  15   16.05    1.24
  -5  -2  15   15.39    1.32
   5  -2 -15   16.01    1.64
  -5   2  15   14.04    1.24
  -5   2  15   15.64    1.39
  -5   2  15   10.98    1.17
   4  -2 -15   21.52    2.06
  -4  -2  15   25.85    1.95
  -4  -2  15   22.93    1.81
  -4  -2  15   25.82    1.73
  -4   2  15   21.94    1.70
  -4   2  15   25.17    1.71
  -4   2  15   22.64    1.87
  -3  -2  15    9.67    1.10
   3  -2 -15   10.98    1.33
  -3  -2  15   11.13    1.14
  -3   2  15   11.78    1.14
  -3   2  15   10.62    0.98
   3   2 -15   10.23    1.11
  -2  -2  15    3.24    0.69
   2  -2 -15    2.05    0.54
   2  -2 -15    3.16    0.78
  -2  -2  15    3.13    0.58
  -2   2  15    3.43    0.69
  -2   2  15    2.16    0.45
   2   2 -15    2.61    0.58
  -1  -2  15   25.57    1.97
   1  -2 -15   23.05    1.92
  -1   2  15   24.43    1.95
   1   2 -15   28.88    2.01
   0  -2 -15   31.16    2.37
   0   2 -15   33.84    2.40
   0   2  15   32.41    2.38
  -1  -2 -15   14.79    1.35
  -1  -2 -15   14.78    1.28
  -1   2 -15   14.27    1.33
  -2  -2 -15    0.29    0.41
  -2  -2 -15   -0.36    0.35
  -2   2 -15    0.10    0.41
  -2   2 -15   -0.08    0.33
  -3  -2 -15    6.05    0.91
  -3  -2 -15    5.33    0.85
  -3   2 -15    7.55    0.93
  -3   2 -15    5.49    0.84
  -4  -2 -15   19.66    1.74
  -4  -2 -15   20.81    1.72
  -4   2 -15   22.24    1.73
  -4   2 -15   21.65    1.73
  -5  -2 -15    9.53    1.23
  -5  -2 -15    9.26    1.01
  -5   2 -15    8.65    0.97
  -5   2 -15    9.95    1.14
  -6  -2 -15    0.31    0.37
  -6  -2 -15    0.19    0.55
  -6   2 -15    0.96    0.45
  -6   2 -15   -0.17    0.30
  -7  -2 -15    0.89    0.34
  -7  -2 -15    0.11    0.48
  -7   2 -15    0.39    0.42
  -8  -2 -15    1.45    0.72
  -8   2 -15    2.55    0.62
  -9  -2 -15    1.30    0.61
 -10  -3  15    0.47    0.53
 -10   3  15    2.13    0.68
  -9  -3  15    0.43    0.44
  -9  -3  15    0.29    0.53
  -9   3  15    0.11    0.32
  -9   3  15    0.30    0.47
  -8  -3  15    1.79    0.59
  -8  -3  15    1.54    0.53
  -8  -3  15    1.51    0.54
  -8   3  15    1.54    0.60
  -8   3  15    1.19    0.50
  -7  -3  15    7.65    0.96
   7  -3 -15    8.39    1.25
  -7  -3  15    6.95    1.04
  -7   3  15    8.04    1.01
  -7   3  15    6.45    0.98
  -6  -3  15   16.59    1.60
  -6  -3  15   21.44    1.53
   6  -3 -15   16.66    1.82
  -6  -3  15   18.78    1.52
  -6   3  15   16.67    1.55
  -6   3  15   16.36    1.46
  -5  -3  15    6.84    0.80
  -5  -3  15    5.43    0.91
   5  -3 -15    6.04    1.06
  -5  -3  15    6.71    0.87
  -5   3  15    6.66    0.95
  -5   3  15    6.17    0.77
  -5   3  15    6.78    0.80
  -5   3  15    4.60    0.68
   4  -3 -15    6.17    1.09
  -4  -3  15    5.60    0.92
  -4  -3  15    4.45    0.72
  -4  -3  15    6.12    0.73
  -4   3  15    5.74    0.88
  -4   3  15    4.78    0.67
  -4   3  15    6.05    0.72
  -3  -3  15   14.49    1.33
   3  -3 -15   11.79    1.46
  -3  -3  15   14.33    1.23
   3   3 -15   12.03    1.25
  -3   3  15   12.77    1.27
  -3   3  15   14.32    1.13
  -3   3  15   12.30    1.12
   2  -3 -15   16.02    1.53
  -2  -3  15   14.50    1.32
  -2  -3  15   14.59    1.23
   2  -3 -15   11.91    1.24
   2   3 -15   11.07    1.25
  -2   3  15   12.80    1.12
  -2   3  15   13.24    1.27
  -1  -3  15   12.55    1.19
   1  -3 -15   14.04    1.44
  -1  -3  15   13.10    1.27
   1  -3 -15   14.94    1.31
  -1   3  15   12.80    1.26
   1   3 -15   14.26    1.31
   0  -3 -15    0.11    0.43
   0  -3 -15   -0.06    0.35
   0   3  15   -0.03    0.33
   0   3 -15    0.17    0.45
  -1  -3 -15   26.76    2.04
  -1  -3 -15   25.50    1.97
  -1   3 -15   26.37    2.05
  -2  -3 -15   37.98    2.66
  -2  -3 -15   37.30    2.61
  -2   3 -15   35.19    2.62
  -2   3 -15   34.79    2.52
  -3  -3 -15    9.87    1.14
  -3  -3 -15    7.29    0.97
  -3   3 -15    8.02    0.96
  -3   3 -15    7.34    0.99
  -4  -3 -15    0.58    0.52
  -4  -3 -15    0.11    0.44
  -4   3 -15   -0.04    0.36
  -4   3 -15    0.23    0.34
  -5  -3 -15    1.63    0.52
  -5  -3 -15    1.37    0.55
  -5   3 -15    1.99    0.55
  -5   3 -15    0.91    0.45
  -6  -3 -15    7.19    1.07
  -6  -3 -15    5.27    0.78
  -6   3 -15    7.58    0.78
  -6   3 -15    5.46    0.85
  -7  -3 -15    3.86    0.84
  -7  -3 -15    4.36    0.58
  -7   3 -15    3.48    0.70
  -8  -3 -15    1.39    0.59
 -10  -4  15    0.53    0.50
 -10  -4  15   -0.23    0.41
 -10   4  15    0.55    0.59
  -9  -4  15    2.00    0.67
  -9  -4  15    3.48    0.67
  -9   4  15    2.68    0.52
  -9   4  15    2.88    0.72
  -8  -4  15    3.41    0.73
  -8  -4  15    2.87    0.73
  -8  -4  15    3.98    0.78
  -8   4  15    3.91    0.69
  -8   4  15    2.70    0.73
  -7  -4  15    1.09    0.51
   7  -4 -15    1.37    0.80
  -7  -4  15    1.86    0.53
  -7   4  15    1.69    0.57
  -7   4  15    1.55    0.59
  -6  -4  15    1.44    0.50
  -6  -4  15    1.34    0.57
   6  -4 -15    1.12    0.62
  -6   4  15    0.74    0.45
  -6   4  15    0.87    0.55
  -5  -4  15   15.07    1.40
  -5  -4  15   13.67    1.49
  -5  -4  15   17.18    1.37
   5  -4 -15   13.46    1.69
  -5   4  15   18.60    1.53
  -5   4  15   16.53    1.33
  -5   4  15   15.99    1.27
  -4  -4  15   20.96    1.74
  -4  -4  15   23.66    1.69
  -4  -4  15   22.29    1.88
   4  -4 -15   22.94    2.09
  -4   4  15   20.72    1.61
  -4   4  15   21.74    1.82
  -4   4  15   20.51    1.60
  -3  -4  15    6.17    0.85
  -3  -4  15    7.71    1.02
   3  -4 -15    7.69    1.23
   3   4 -15    6.21    0.94
  -3   4  15    6.12    0.73
  -3   4  15    5.07    0.83
  -3   4  15    5.33    0.74
   2  -4 -15    0.93    0.57
  -2  -4  15    0.71    0.51
   2  -4 -15    1.20    0.48
  -2  -4  15    2.04    0.51
  -2   4  15    0.73    0.39
   2   4 -15    0.74    0.44
  -2   4  15    0.97    0.51
  -1  -4  15   17.06    1.36
   1  -4 -15   12.49    1.35
   1  -4 -15   14.18    1.66
  -1  -4  15   15.30    1.41
  -1   4  15   14.61    1.42
   1   4 -15   17.05    1.44
   0  -4 -15   21.42    1.72
   0  -4  15   24.18    1.75
   0  -4 -15   21.72    1.83
   0   4  15   22.81    1.86
   0   4 -15   23.69    1.89
  -1  -4 -15    9.90    1.22
  -1  -4 -15   11.00    1.03
   1  -4  15    8.20    0.94
  -1   4 -15   10.05    1.17
  -2  -4 -15   -0.02    0.44
  -2  -4 -15    0.25    0.40
   2  -4  15    0.73    0.39
  -2   4 -15    0.07    0.32
  -2   4 -15   -0.07    0.35
   3  -4  15    7.88    0.89
  -3  -4 -15    7.12    1.04
  -3  -4 -15    9.08    1.09
  -3   4 -15    9.02    1.10
  -3   4 -15    8.73    1.01
  -4  -4 -15   14.91    1.45
  -4  -4 -15   15.64    1.43
  -4   4 -15   14.90    1.31
  -4   4 -15   14.12    1.37
  -5  -4 -15    6.97    1.04
  -5  -4 -15    6.47    0.92
  -5   4 -15    7.43    0.91
  -5   4 -15    6.62    0.88
  -6  -4 -15    0.08    0.56
  -6  -4 -15    0.56    0.40
  -6   4 -15    0.63    0.45
  -6   4 -15   -0.02    0.33
  -7  -4 -15    1.00    0.35
  -8  -4 -15    1.36    0.73
 -10  -5  15    1.42    0.63
 -10  -5  15    2.44    0.52
 -10   5  15    1.37    0.62
  -9  -5  15    0.12    0.50
  -9  -5  15    0.58    0.44
  -9   5  15   -0.12    0.47
  -9   5  15   -0.14    0.30
  -8  -5  15    0.09    0.54
  -8  -5  15   -0.76    0.40
  -8   5  15    0.31    0.40
  -8   5  15    0.81    0.57
  -7  -5  15    4.97    0.90
  -7  -5  15    4.55    0.85
   7  -5 -15    5.49    1.07
  -7   5  15    4.40    0.78
  -7   5  15    5.57    0.83
  -6  -5  15   13.26    1.39
   6  -5 -15   14.19    1.65
  -6   5  15   13.06    1.08
  -6   5  15   11.71    1.21
  -6   5  15   11.38    1.30
   5  -5 -15    2.22    0.87
  -5  -5  15    1.19    0.58
  -5  -5  15    2.28    0.60
  -5   5  15    2.66    0.68
  -5   5  15    2.42    0.57
  -5   5  15    2.04    0.46
  -4  -5  15    1.45    0.61
   4  -5 -15    3.31    0.93
  -4  -5  15    2.98    0.69
  -4   5  15    3.60    0.59
  -4   5  15    2.84    0.69
  -4   5  15    4.60    0.66
  -3  -5  15   14.85    1.38
  -3  -5  15   18.02    1.56
   3  -5 -15   19.26    1.80
  -3   5  15   12.35    1.44
   3   5 -15   14.57    1.45
  -3   5  15   15.18    1.27
  -3   5  15   15.23    1.25
   2  -5 -15   15.39    1.42
  -2  -5  15   16.44    1.38
  -2  -5  15   15.30    1.44
   2  -5 -15   15.46    1.65
  -2   5  15   14.86    1.26
  -2   5  15   15.35    1.21
  -2   5  15   15.23    1.49
   2   5 -15   12.39    1.39
   1  -5 -15   14.53    1.23
  -1  -5  15   12.37    1.33
  -1  -5  15   16.84    1.31
   1  -5 -15   12.82    1.35
  -1   5  15   12.46    1.39
   1   5 -15   15.00    1.37
   0  -5 -15    0.92    0.47
   0  -5 -15    0.72    0.51
   0  -5  15    0.61    0.41
   0   5  15    0.49    0.45
   0   5 -15    1.33    0.55
  -1  -5 -15   13.21    1.35
  -1  -5 -15   15.56    1.31
   1  -5  15   14.69    1.24
  -1   5 -15   12.18    1.33
   2  -5  15   17.81    1.49
  -2  -5 -15   17.80    1.67
  -2  -5 -15   17.81    1.57
  -2   5 -15   21.52    1.70
  -2   5 -15   19.16    1.49
  -3  -5 -15    4.24    0.78
  -3  -5 -15    3.96    0.80
  -3   5 -15    4.64    0.73
  -3   5 -15    3.76    0.76
  -4  -5 -15    0.07    0.46
  -4  -5 -15    0.20    0.49
  -4   5 -15   -0.05    0.35
  -4   5 -15    0.41    0.45
  -5  -5 -15    1.36    0.56
  -5  -5 -15    1.49    0.62
  -5   5 -15    1.78    0.50
  -6  -5 -15    4.06    0.86
  -6  -5 -15    5.17    0.78
  -6   5 -15    5.04    0.68
  -7  -5 -15    3.25    0.54
  -7  -5 -15    2.54    0.81
  -8  -5 -15    0.01    0.41
 -10  -6  15    0.47    0.42
 -10   6  15    0.24    0.56
  -9  -6  15    3.09    0.66
  -9  -6  15    4.47    0.80
  -9   6  15    2.61    0.49
  -9   6  15    3.28    0.76
  -8  -6  15    3.66    0.80
  -8   6  15    2.37    0.69
  -8   6  15    3.39    0.66
  -7  -6  15    1.03    0.64
  -7   6  15    1.89    0.55
  -7   6  15    1.14    0.49
  -6  -6  15    1.85    0.65
   6  -6 -15    1.90    0.71
  -6  -6  15    1.56    0.60
  -6   6  15    1.24    0.63
  -6   6  15    1.24    0.38
  -6   6  15    0.81    0.46
  -5  -6  15    6.68    1.08
   5  -6 -15    7.74    1.31
  -5  -6  15    5.97    1.04
  -5   6  15    9.01    1.04
  -5   6  15    9.54    1.15
  -5   6  15    8.99    0.90
  -4  -6  15   15.00    1.55
   4  -6 -15   13.07    1.70
  -4  -6  15   15.94    1.41
  -4   6  15   16.69    1.32
  -4   6  15   15.12    1.26
  -4   6  15   13.40    1.47
   3  -6 -15    9.75    1.40
  -3  -6  15    7.75    0.98
  -3  -6  15    8.52    1.14
  -3   6  15    6.79    0.86
  -3   6  15    6.79    1.05
   3   6 -15    9.04    1.12
  -3   6  15    7.18    0.87
   2  -6 -15    0.27    0.57
   2  -6 -15    1.05    0.62
   2  -6 -15    0.21    0.33
  -2  -6  15    0.25    0.33
  -2   6  15    0.88    0.54
  -2   6  15    0.32    0.32
  -2   6  15    0.38    0.38
  -1  -6  15   15.51    1.50
  -1  -6  15   15.00    1.39
   1  -6 -15   19.07    1.36
   1   6 -15   14.28    1.47
  -1   6  15   15.14    1.27
  -1   6  15   16.42    1.61
   0  -6 -15   14.99    1.52
   0  -6 -15   16.45    1.36
   0  -6  15   14.02    1.35
   0   6  15   14.98    1.56
   0   6 -15   19.12    1.58
  -1  -6 -15    7.56    0.90
   1  -6  15    5.18    0.77
  -1  -6 -15    4.76    0.87
  -1   6 -15    8.08    0.87
  -1   6 -15    4.64    0.88
  -2  -6 -15    0.73    0.45
   2  -6  15    0.46    0.49
  -2  -6 -15    0.12    0.52
  -2   6 -15    0.36    0.44
  -2   6 -15   -0.13    0.34
  -3  -6 -15    5.40    0.93
  -3  -6 -15    6.36    0.94
  -3   6 -15    6.12    0.93
  -4  -6 -15   11.59    1.32
  -4  -6 -15   10.06    1.26
  -4   6 -15   11.48    1.19
  -5  -6 -15    5.25    0.90
  -5  -6 -15    6.23    0.92
  -5   6 -15    5.43    0.80
  -6  -6 -15   -0.13    0.40
  -6  -6 -15    0.55    0.61
  -6   6 -15    0.61    0.36
  -7  -6 -15    1.03    0.38
  -7  -6 -15    0.86    0.59
  -8  -6 -15    2.10    0.63
  -9  -7  15   -0.41    0.39
  -9   7  15    0.01    0.46
  -8  -7  15    1.13    0.51
  -8   7  15    1.16    0.47
  -8   7  15    1.15    0.59
  -7  -7  15    5.33    0.95
  -7   7  15    4.46    0.81
  -7   7  15    3.62    0.74
  -6  -7  15    7.23    1.12
  -6   7  15    7.00    1.01
  -6   7  15    7.09    0.77
  -6   7  15    6.74    0.97
  -5  -7  15    1.57    0.71
  -5  -7  15    1.15    0.68
   5  -7 -15    1.09    0.80
  -5   7  15    3.20    0.75
  -5   7  15    1.88    0.59
  -5   7  15    2.28    0.49
  -4  -7  15    2.22    0.69
  -4  -7  15    0.72    0.62
   4  -7 -15    1.45    0.73
  -4   7  15    1.43    0.47
  -4   7  15    1.76    0.62
  -4   7  15    1.86    0.50
   3  -7 -15   12.95    1.68
  -3  -7  15   11.82    1.25
  -3  -7  15    9.62    1.38
  -3  -7  15   11.09    1.42
  -3   7  15   10.38    1.06
  -3   7  15   10.39    1.39
  -3   7  15   10.44    1.12
   3   7 -15   12.22    1.56
  -2  -7  15   17.99    1.58
  -2  -7  15   17.84    1.69
   2  -7 -15   18.75    1.95
  -2  -7  15   17.73    1.71
  -2   7  15   18.30    1.77
   2   7 -15   20.43    1.75
  -2   7  15   20.31    1.52
   1  -7 -15    9.18    0.97
  -1  -7  15    8.69    1.06
   1  -7 -15   11.33    1.35
   1   7 -15   10.73    1.30
  -1   7  15   10.42    1.01
  -1   7  15   12.31    1.48
   0  -7 -15   -0.62    0.35
   0  -7 -15    0.46    0.39
   0  -7  15    0.19    0.34
   0   7  15    0.22    0.50
   0   7 -15    0.45    0.47
  -1  -7 -15    9.69    1.06
  -1  -7 -15   10.43    1.29
   1  -7  15   10.32    1.00
  -1   7 -15    8.32    1.18
  -2  -7 -15   16.83    1.45
  -2  -7 -15   16.50    1.62
  -2   7 -15   15.43    1.53
  -3  -7 -15    4.36    0.89
  -3  -7 -15    6.20    0.90
  -3   7 -15    5.05    0.87
  -4  -7 -15    0.26    0.47
  -4  -7 -15    0.36    0.48
  -4   7 -15    0.18    0.46
  -5  -7 -15    1.24    0.55
  -5  -7 -15    1.35    0.52
  -5   7 -15    1.35    0.49
  -6  -7 -15    4.49    0.92
  -6  -7 -15    6.25    0.89
  -6   7 -15    5.30    0.68
  -7  -7 -15    1.35    0.64
  -7  -7 -15    2.73    0.50
  -9  -8  15    3.62    0.73
  -9   8  15    3.22    0.70
  -8  -8  15    2.51    0.70
  -8   8  15    2.97    0.57
  -8   8  15    3.83    0.82
  -7  -8  15    0.28    0.51
  -7   8  15    0.17    0.45
  -7   8  15    0.46    0.43
  -6  -8  15    1.77    0.66
  -6   8  15    0.97    0.37
  -6   8  15    0.40    0.53
  -6   8  15    0.82    0.48
   5  -8 -15    5.14    1.25
  -5  -8  15    4.49    0.99
  -5   8  15    3.84    0.76
  -5   8  15    5.58    0.71
  -5   8  15    3.91    0.87
  -4  -8  15   11.66    1.42
   4  -8 -15   10.34    1.51
  -4   8  15    9.67    1.33
  -4   8  15    7.73    1.05
  -4   8  15    9.80    1.04
  -3  -8  15    7.74    1.20
  -3  -8  15    9.25    1.26
   3  -8 -15    9.34    1.46
  -3   8  15    6.85    0.95
  -3   8  15    9.04    1.06
  -3   8  15    8.84    1.26
  -2  -8  15    2.41    0.71
  -2  -8  15    1.14    0.64
  -2   8  15    0.32    0.63
  -2   8  15    2.02    0.52
   2   8 -15    0.62    0.56
  -2   8  15    2.07    0.57
   1  -8 -15   15.01    1.47
  -1  -8  15   12.29    1.26
  -1   8  15   12.50    1.52
   1   8 -15   13.42    1.56
  -1   8  15   16.54    1.90
  -1   8  15   13.10    1.24
   0  -8 -15   15.06    1.55
   0  -8  15   13.19    1.30
   0   8  15   16.05    1.63
   0   8  15   16.15    1.35
   0   8 -15   15.36    1.54
  -1  -8 -15    6.41    1.08
  -1  -8 -15    7.98    0.96
  -1   8 -15    6.65    1.07
  -2  -8 -15    0.21    0.41
  -2  -8 -15    0.61    0.53
  -2   8 -15   -0.40    0.41
  -3  -8 -15    2.40    0.66
  -3  -8 -15    2.06    0.72
  -3   8 -15    2.19    0.66
  -4  -8 -15    9.96    1.28
  -4  -8 -15    9.55    1.19
  -4   8 -15   10.11    1.19
  -5  -8 -15    5.23    0.86
  -5  -8 -15    4.98    0.87
  -5   8 -15    3.91    0.72
  -6  -8 -15    0.89    0.56
  -6  -8 -15    0.19    0.40
  -6   8 -15    0.56    0.34
  -7  -8 -15    0.52    0.37
  -7  -8 -15    0.11    0.45
  -8  -9  15    0.79    0.56
  -8   9  15    1.10    0.63
  -8   9  15    1.26    0.44
  -7  -9  15    6.04    1.00
  -7   9  15    4.34    0.82
  -7   9  15    5.79    0.92
  -6  -9  15    7.02    1.16
  -6   9  15    8.84    0.84
  -6   9  15    6.94    1.05
  -6   9  15    8.27    1.11
  -5  -9  15    1.47    0.73
  -5   9  15    1.97    0.51
  -5   9  15    3.80    0.85
  -5   9  15    2.61    0.66
  -4  -9  15   -0.17    0.59
  -4   9  15    0.32    0.47
  -4   9  15    0.36    0.65
  -4   9  15    0.56    0.42
  -3  -9  15    6.36    1.10
  -3   9  15    5.02    0.82
  -3   9  15    5.75    1.04
  -3   9  15    6.51    0.93
  -2  -9  15   12.72    1.55
  -2   9  15   11.38    1.25
   2   9 -15   12.27    1.44
  -2   9  15   12.79    1.60
  -2   9  15   10.18    1.23
   1  -9 -15    6.43    1.07
   1   9 -15    4.02    0.87
  -1   9  15    8.03    1.21
  -1   9  15    4.78    0.84
  -1   9  15    7.68    1.26
   0  -9 -15   -0.27    0.45
   0   9  15    0.58    0.49
   0   9  15   -0.77    0.49
   0   9 -15   -0.30    0.41
  -1  -9 -15    6.69    1.09
  -1   9 -15    4.68    0.91
   1   9  15    7.53    0.96
  -2  -9 -15   12.62    1.54
  -2   9 -15   11.49    1.45
  -3  -9 -15    5.36    0.81
  -3  -9 -15    3.54    0.90
  -3   9 -15    4.83    0.89
  -4  -9 -15   -0.01    0.55
  -4  -9 -15    0.57    0.49
  -4   9 -15    0.37    0.47
  -5  -9 -15    0.64    0.52
  -5  -9 -15    0.90    0.58
  -5   9 -15    1.29    0.50
  -6  -9 -15    2.18    0.62
  -6  -9 -15    3.55    0.67
  -7 -10  15    0.94    0.54
  -7  10  15    0.02    0.44
  -7  10  15    0.42    0.46
  -6 -10  15    0.32    0.56
  -6  10  15   -0.22    0.44
  -6  10  15    0.07    0.33
  -6  10  15    0.21    0.54
  -5 -10  15    3.77    0.85
  -5  10  15    4.06    0.63
  -5  10  15    4.16    0.90
  -5  10  15    4.12    0.80
  -4 -10  15    7.79    1.18
  -4  10  15    6.75    1.00
  -4  10  15    9.53    1.00
  -4  10  15    6.15    1.14
  -3 -10  15    2.63    0.83
  -3  10  15    2.84    0.68
  -3  10  15    3.98    0.67
  -3  10  15    1.76    0.83
  -2 -10  15    0.95    0.81
  -2  10  15    0.36    0.65
  -2  10  15    0.57    0.52
  -2  10  15    0.50    0.50
   2  10 -15    0.55    0.61
  -1  10  15    7.13    1.23
  -1  10  15    6.18    1.10
   1  10 -15    8.90    1.32
  -1  10  15    9.31    1.12
   0 -10 -15   12.29    1.52
   0  10 -15    9.58    1.41
   0  10  15    9.52    1.15
  -1 -10 -15    4.41    0.96
  -1  10 -15    4.28    0.94
   1  10  15    4.20    0.79
  -2 -10 -15    0.09    0.60
  -2  10 -15    0.28    0.57
  -3 -10 -15    3.08    0.79
  -3  10 -15    2.47    0.78
  -4 -10 -15    3.07    0.83
  -4  10 -15    4.11    0.77
  -5 -10 -15    3.45    0.81
  -5  10 -15    2.11    0.57
  -6 -11  15    4.31    0.95
  -6  11  15    3.52    0.72
  -6  11  15    4.85    0.54
  -6  11  15    2.60    0.64
  -5 -11  15    1.26    0.75
  -5  11  15    2.00    0.76
  -5  11  15    0.89    0.41
  -5  11  15    2.01    0.67
  -4 -11  15    0.62    0.56
  -4  11  15    1.08    0.57
  -4  11  15    1.28    0.49
  -4  11  15    0.23    0.52
  -3 -11  15    5.06    1.04
  -3  11  15    5.69    0.84
  -3  11  15    5.18    1.03
  -3  11  15    4.54    0.85
   2  11 -15    4.77    0.99
  -2  11  15    5.33    0.84
  -2  11  15    5.71    0.93
  -2  11  15    8.36    1.35
  -1  11  15    3.52    0.74
  -1  11  15    3.19    0.72
  -1  11  15    2.39    0.87
   1  11 -15    2.46    0.81
   0 -11 -15   -0.32    0.56
   0  11  15    0.45    0.51
   0  11 -15    0.29    0.58
  -1 -11 -15    2.44    0.86
  -1  11 -15    3.86    0.93
   1  11  15    3.82    0.76
  -2 -11 -15    6.28    1.09
  -2  11 -15    5.91    1.08
   2  11  15    5.69    1.09
  -3 -11 -15    1.34    0.59
  -3  11 -15    2.37    0.66
  -4 -11 -15    0.11    0.56
  -4  11 -15    0.53    0.43
  -5 -12  15    3.30    0.88
  -5  12  15    3.91    0.84
  -5  12  15    3.67    0.58
  -5  12  15    3.14    0.70
  -4 -12  15    3.36    0.83
  -4  12  15    4.11    0.78
  -4  12  15    4.00    0.89
  -4  12  15    3.95    0.64
  -3 -12  15    1.50    0.73
  -3  12  15    1.31    0.59
  -3  12  15    2.13    0.81
  -3  12  15    0.54    0.43
  -2  12  15   -0.09    0.42
   2  12 -15    0.48    0.60
  -2  12  15    0.63    0.46
  -2  12  15   -0.72    0.46
   1  12 -15    3.59    0.92
  -1  12  15    2.87    0.68
  -1  12  15    2.09    0.70
  -1  12  15    3.75    0.99
   0 -12 -15    6.15    1.11
   0  12 -15    3.85    0.98
   0  12  15    7.40    1.01
  -1 -12 -15    4.33    0.96
  -1  12 -15    3.47    0.86
   1  12  15    2.73    0.69
  -2 -12 -15    0.52    0.52
   2  12  15   -0.36    0.45
  -2  12 -15    0.88    0.59
  -3 -12 -15    1.25    0.69
  -3  12 -15    1.16    0.63
  -3  13  15    3.76    0.84
  -3  13  15    3.25    0.64
  -3  13  15    2.07    0.60
  -2  13  15    5.30    1.03
   2  13 -15    5.28    1.09
  -2  13  15    5.80    0.82
  -2  13  15    4.75    0.82
  -1  13  15    1.65    0.61
   1  13 -15    1.10    0.64
  -1  13  15    0.31    0.47
  -1  13  15    1.90    0.71
   0  13 -15    0.09    0.45
   0  13  15    0.28    0.46
  -1 -13 -15    1.46    0.69
  -1  13 -15    1.88    0.65
   1  13  15    1.21    0.55
 -10   0  16    1.97    0.65
  -9   0  16    0.65    0.46
  -9   0  16    1.25    0.47
  -8   0  16   -0.23    0.44
  -8   0  16   -0.78    0.33
  -7   0  16    5.60    0.79
  -7   0  16    3.59    0.78
  -6   0  16   10.04    0.98
  -6   0  16    9.56    1.20
  -6   0  16   10.32    1.12
  -5   0  16    7.71    0.90
  -5   0  16    6.36    0.99
  -4   0  16   -0.09    0.35
  -4   0  16    0.31    0.43
  -3   0  16   14.84    1.40
  -3   0  16   14.04    1.20
  -2   0  16   22.66    1.66
  -2   0  16   23.58    1.84
   2   0 -16   21.61    1.78
   1   0 -16   14.41    1.34
  -1   0  16   15.39    1.38
   0   0 -16    2.77    0.59
  -1   0 -16    2.24    0.61
  -1   0 -16    2.00    0.56
  -2   0 -16   17.06    1.49
  -2   0 -16   18.85    1.57
  -3   0 -16   18.20    1.61
  -3   0 -16   19.53    1.63
  -4   0 -16    0.74    0.50
  -4   0 -16    1.68    0.59
  -5   0 -16    2.50    0.64
  -5   0 -16    1.07    0.46
  -6   0 -16    3.35    0.76
  -6   0 -16    3.65    0.61
  -7   0 -16    4.79    0.82
  -8   0 -16    1.92    0.56
 -10  -1  16   -0.48    0.42
 -10   1  16    0.38    0.44
  -9  -1  16    2.99    0.59
  -9  -1  16    1.28    0.60
  -9  -1  16    2.56    0.62
  -9   1  16    3.12    0.74
  -9   1  16    2.47    0.57
  -8  -1  16    6.93    0.96
  -8  -1  16    6.47    1.00
  -8   1  16    6.45    0.92
  -8   1  16    6.83    0.96
  -7  -1  16    5.48    0.79
  -7  -1  16    5.39    0.90
  -7   1  16    4.83    0.77
  -7   1  16    5.31    0.89
  -6  -1  16   -0.30    0.36
  -6  -1  16    0.13    0.40
  -6   1  16   -0.30    0.34
  -6   1  16    0.35    0.43
  -5  -1  16    6.15    0.94
  -5  -1  16    5.09    0.79
  -5   1  16    5.77    1.07
  -5   1  16    8.49    1.08
  -5   1  16    6.24    0.83
  -4  -1  16   10.98    1.26
  -4  -1  16   13.09    1.22
  -4   1  16   11.78    1.08
  -4   1  16   15.81    1.35
  -3  -1  16   12.16    1.15
  -3  -1  16   10.75    1.22
  -3   1  16   14.15    1.26
  -3   1  16   11.37    1.07
  -2  -1  16    2.85    0.52
  -2  -1  16    3.29    0.72
   2  -1 -16    2.32    0.57
   2   1 -16    1.74    0.50
  -2   1  16    2.77    0.52
  -2   1  16    1.92    0.57
   1  -1 -16    8.11    1.00
  -1  -1  16    9.49    1.09
   1   1 -16    7.59    1.02
  -1   1  16    8.81    1.05
   0  -1 -16   33.88    2.39
   0   1 -16   29.24    2.36
   0   1  16   33.82    2.56
  -1  -1 -16   15.09    1.36
  -1  -1 -16   18.27    1.47
  -1   1 -16   16.04    1.38
  -1   1 -16   14.54    1.41
  -2  -1 -16    1.27    0.46
  -2  -1 -16    0.95    0.50
  -2   1 -16    1.41    0.54
  -2   1 -16    1.03    0.45
  -3  -1 -16    1.86    0.58
  -3  -1 -16    2.51    0.64
  -3   1 -16    1.75    0.53
  -3   1 -16    1.00    0.54
  -4  -1 -16    8.47    1.06
  -4  -1 -16    9.66    1.17
  -4   1 -16   10.70    1.10
  -4   1 -16    9.32    1.15
  -5  -1 -16   11.72    1.29
  -5  -1 -16    9.42    1.04
  -5   1 -16   10.36    1.20
  -5   1 -16    8.97    1.08
  -6  -1 -16    1.31    0.64
  -6  -1 -16    1.61    0.47
  -6   1 -16    2.41    0.52
  -6   1 -16    2.22    0.59
  -7  -1 -16   -0.07    0.37
  -7   1 -16    0.28    0.42
  -8  -1 -16    1.25    0.56
  -8   1 -16    0.14    0.44
 -10  -2  16    2.09    0.62
 -10   2  16    4.52    0.82
  -9  -2  16    1.88    0.54
  -9  -2  16    1.23    0.59
  -9  -2  16    1.33    0.54
  -9   2  16    0.79    0.40
  -9   2  16    1.65    0.58
  -8  -2  16    0.27    0.45
  -8  -2  16    0.79    0.45
  -8   2  16   -0.30    0.38
  -8   2  16    0.12    0.42
  -7  -2  16    3.97    0.69
  -7  -2  16    3.00    0.74
  -7   2  16    4.59    0.75
  -7   2  16    4.31    0.80
   6  -2 -16   11.20    1.46
  -6  -2  16    9.90    1.14
  -6  -2  16    8.55    1.21
  -6   2  16   10.81    1.07
  -6   2  16   14.19    1.30
  -5  -2  16   10.44    1.20
   5  -2 -16   14.96    1.56
  -5  -2  16   12.02    1.31
  -5   2  16   12.63    1.10
  -5   2  16   11.52    1.13
  -5   2  16   12.50    1.29
  -4  -2  16   -0.05    0.26
   4  -2 -16    0.21    0.55
  -4  -2  16    0.20    0.42
  -4   2  16   -0.25    0.36
  -4   2  16   -0.34    0.31
   3  -2 -16   13.95    1.52
  -3  -2  16   13.67    1.34
  -3  -2  16   14.80    1.28
   3   2 -16   12.96    1.42
  -3   2  16   13.17    1.16
  -3   2  16   13.56    1.34
   2  -2 -16   29.92    2.27
  -2  -2  16   28.18    2.20
  -2  -2  16   32.40    2.34
   2   2 -16   32.80    2.33
  -2   2  16   30.73    2.14
  -2   2  16   29.96    2.30
   1  -2 -16   11.01    1.19
  -1  -2  16   13.76    1.24
   1   2 -16   12.34    1.22
  -1   2  16   11.78    1.22
   0  -2 -16    3.73    0.69
   0   2  16    4.07    0.76
   0   2 -16    3.59    0.72
  -1  -2 -16    0.44    0.43
  -1  -2 -16   -0.04    0.42
  -1   2 -16    0.92    0.48
  -2  -2 -16   22.80    1.84
  -2  -2 -16   21.88    1.88
  -2   2 -16   27.87    1.97
  -2   2 -16   21.66    1.79
  -3  -2 -16   14.50    1.46
  -3  -2 -16   17.36    1.50
  -3   2 -16   17.54    1.47
  -3   2 -16   17.92    1.55
  -4  -2 -16    0.97    0.45
  -4  -2 -16    1.31    0.51
  -4   2 -16    1.55    0.57
  -4   2 -16    1.17    0.55
  -5  -2 -16    1.26    0.52
  -5  -2 -16    1.68    0.66
  -5   2 -16    0.97    0.53
  -5   2 -16    0.36    0.44
  -6  -2 -16    3.79    0.87
  -6  -2 -16    3.37    0.61
  -6   2 -16    3.81    0.61
  -6   2 -16    3.45    0.73
  -7  -2 -16    3.57    0.90
  -7   2 -16    3.63    0.74
  -8  -2 -16    1.77    0.56
  -8   2 -16    1.23    0.52
 -10  -3  16    0.05    0.51
 -10   3  16    0.74    0.53
  -9  -3  16    4.42    0.78
  -9  -3  16    3.02    0.66
  -9   3  16    2.05    0.51
  -9   3  16    4.02    0.75
  -8  -3  16    5.01    0.81
  -8  -3  16    5.30    0.91
  -8  -3  16    5.25    0.88
  -8   3  16    5.56    0.87
  -8   3  16    6.18    0.91
   7  -3 -16    2.47    0.88
  -7  -3  16    1.88    0.64
  -7   3  16    1.69    0.57
  -7   3  16    1.71    0.58
  -6  -3  16   -0.22    0.45
   6  -3 -16    0.13    0.48
  -6   3  16    0.24    0.38
  -6   3  16    0.71    0.52
  -5  -3  16    7.66    1.11
  -5  -3  16    6.98    1.06
   5  -3 -16    7.08    1.25
  -5  -3  16    5.82    0.83
  -5   3  16    8.27    1.06
  -5   3  16    7.35    1.13
  -5   3  16    7.03    0.85
  -5   3  16    7.93    0.83
   4  -3 -16   22.78    2.08
  -4  -3  16   22.28    1.64
  -4  -3  16   20.83    1.76
  -4  -3  16   23.50    1.89
  -4   3  16   19.10    1.58
  -4   3  16   25.43    1.88
  -4   3  16   20.13    1.61
   3  -3 -16   16.30    1.82
  -3  -3  16   18.92    1.56
  -3  -3  16   18.04    1.65
  -3   3  16   19.65    1.45
  -3   3  16   22.31    1.70
   3   3 -16   16.50    1.62
  -2  -3  16    1.14    0.46
   2  -3 -16    1.02    0.59
   2  -3 -16    0.73    0.41
  -2  -3  16    0.79    0.42
  -2   3  16    0.79    0.44
  -2   3  16    1.10    0.41
   2   3 -16    1.10    0.55
  -1  -3  16    8.46    1.09
   1  -3 -16    8.37    1.07
  -1  -3  16    8.82    0.97
  -1   3  16    8.44    1.07
   1   3 -16    7.16    1.00
   0  -3 -16   27.73    2.13
   0  -3 -16   28.61    2.23
   0   3  16   31.94    2.26
   0   3 -16   28.60    2.24
  -1  -3 -16   23.74    1.80
  -1  -3 -16   20.60    1.64
  -1   3 -16   17.10    1.70
  -2  -3 -16    1.45    0.54
  -2  -3 -16    1.72    0.56
  -2   3 -16    2.54    0.56
  -2   3 -16    1.83    0.60
  -3  -3 -16    1.24    0.54
  -3  -3 -16    1.23    0.57
  -3   3 -16    1.44    0.55
  -3   3 -16    2.68    0.56
  -4  -3 -16    3.28    0.79
  -4  -3 -16    6.80    0.92
  -4   3 -16    6.75    0.91
  -4   3 -16    6.47    0.91
  -5  -3 -16    8.66    1.00
  -5  -3 -16    7.21    1.04
  -5   3 -16    6.08    0.89
  -5   3 -16    6.38    0.88
  -6  -3 -16    1.57    0.47
  -6  -3 -16    1.91    0.64
  -6   3 -16    1.53    0.55
  -6   3 -16    0.97    0.39
  -7  -3 -16    0.73    0.44
  -7  -3 -16   -0.07    0.29
  -7   3 -16   -0.40    0.40
  -8  -3 -16    3.43    0.76
 -10  -4  16    3.96    0.67
 -10  -4  16    2.61    0.66
 -10   4  16    3.03    0.72
  -9  -4  16    0.46    0.52
  -9  -4  16    1.43    0.51
  -9   4  16    0.96    0.57
  -9   4  16    0.80    0.39
  -8  -4  16    0.13    0.53
  -8  -4  16    0.21    0.52
  -8   4  16    1.18    0.55
  -8   4  16    0.58    0.42
  -7  -4  16    3.49    0.77
  -7   4  16    3.53    0.70
  -7   4  16    4.45    0.83
   6  -4 -16    7.91    1.31
  -6  -4  16    7.28    1.08
  -6   4  16    5.90    0.98
  -6   4  16    6.86    0.94
  -5  -4  16   10.58    1.18
  -5  -4  16   11.57    1.35
  -5  -4  16   10.83    1.40
   5  -4 -16   13.16    1.60
  -5   4  16   11.44    1.08
  -5   4  16   11.14    1.32
  -5   4  16   10.63    1.01
  -4  -4  16    0.35    0.53
   4  -4 -16    1.05    0.74
  -4  -4  16    0.76    0.36
  -4  -4  16    0.56    0.44
  -4   4  16    0.58    0.36
  -4   4  16    0.36    0.50
  -4   4  16    0.49    0.37
  -3  -4  16   13.71    1.35
   3  -4 -16   11.71    1.52
  -3  -4  16   12.93    1.23
  -3   4  16   11.65    1.29
   3   4 -16   12.26    1.30
  -3   4  16   10.11    1.11
   2  -4 -16   21.41    1.93
  -2  -4  16   20.65    1.64
   2  -4 -16   17.22    1.63
  -2  -4  16   18.96    1.71
  -2   4  16   20.64    1.54
   2   4 -16   17.36    1.68
  -2   4  16   22.09    1.75
  -1  -4  16    7.24    0.86
  -1  -4  16    5.08    0.82
   1  -4 -16    6.07    0.89
   1   4 -16    7.08    1.00
  -1   4  16    5.41    0.91
   0  -4  16    0.79    0.44
   0  -4 -16    0.87    0.49
   0  -4 -16    1.66    0.53
   0   4 -16    0.70    0.46
   0   4  16    0.97    0.48
  -1  -4 -16    2.17    0.58
  -1  -4 -16    3.12    0.68
   1  -4  16    2.98    0.57
  -1   4 -16    2.65    0.70
   2  -4  16   23.71    1.77
  -2  -4 -16   22.91    1.92
  -2  -4 -16   22.92    1.84
  -2   4 -16   23.36    1.78
  -2   4 -16   22.56    1.90
  -3  -4 -16   17.77    1.60
  -3  -4 -16   17.63    1.63
  -3   4 -16   17.32    1.56
  -3   4 -16   18.52    1.49
  -4  -4 -16    1.77    0.62
  -4  -4 -16    0.74    0.55
  -4   4 -16    0.56    0.41
  -4   4 -16    0.77    0.44
  -5  -4 -16    1.38    0.59
  -5  -4 -16    1.00    0.48
  -5   4 -16    1.19    0.48
  -5   4 -16    0.50    0.43
  -6  -4 -16    3.03    0.58
  -6  -4 -16    3.66    0.84
  -6   4 -16    2.72    0.53
  -7  -4 -16    3.08    0.78
  -7  -4 -16    4.14    0.56
  -8  -4 -16    1.25    0.71
 -10  -5  16    0.53    0.45
 -10  -5  16   -0.03    0.49
 -10   5  16    0.11    0.42
  -9  -5  16    2.58    0.64
  -9   5  16    2.29    0.57
  -9   5  16    4.49    0.85
  -8  -5  16    4.19    0.86
  -8   5  16    4.21    0.76
  -8   5  16    3.53    0.69
  -7  -5  16    0.98    0.63
  -7  -5  16    1.27    0.68
  -7   5  16    1.02    0.51
  -7   5  16    1.24    0.51
   6  -5 -16    0.24    0.73
  -6  -5  16   -0.15    0.43
  -6   5  16    0.10    0.51
  -6   5  16   -0.07    0.33
   5  -5 -16    8.12    1.35
  -5  -5  16    4.01    0.92
  -5   5  16    7.13    1.04
  -5   5  16    6.25    0.84
  -5   5  16    6.30    0.75
  -4  -5  16   15.97    1.68
  -4  -5  16   18.69    1.61
   4  -5 -16   19.49    1.93
  -4  -5  16   15.21    1.52
  -4   5  16   19.73    1.45
  -4   5  16   17.74    1.41
  -4   5  16   16.51    1.61
  -3  -5  16   11.56    1.37
   3  -5 -16   12.00    1.60
  -3  -5  16    9.51    1.16
  -3   5  16   11.14    1.03
  -3   5  16   11.54    1.16
  -3   5  16   10.05    1.28
   3   5 -16   12.02    1.29
   2  -5 -16    1.39    0.55
  -2  -5  16    1.08    0.43
   2  -5 -16    2.57    0.81
  -2   5  16    1.62    0.59
  -2   5  16    0.81    0.45
  -1  -5  16    5.60    0.96
   1  -5 -16    6.91    0.87
  -1  -5  16    7.59    0.94
   1   5 -16    7.37    1.03
   0  -5 -16   18.60    1.72
   0  -5  16   21.41    1.61
   0  -5 -16   20.12    1.59
   0   5 -16   19.91    1.74
   0   5  16   17.58    1.69
  -1  -5 -16   11.60    1.38
  -1  -5 -16   13.16    1.23
   1  -5  16   12.15    1.17
  -1   5 -16   12.19    1.34
  -1   5 -16   12.41    1.15
   2  -5  16    1.90    0.47
  -2  -5 -16    1.17    0.55
  -2  -5 -16    1.01    0.56
  -2   5 -16    1.30    0.41
  -2   5 -16    1.45    0.56
  -3  -5 -16    3.71    0.74
  -3  -5 -16    2.50    0.72
  -3   5 -16    3.19    0.71
  -3   5 -16    3.49    0.62
  -4  -5 -16    6.78    1.08
  -4  -5 -16    7.96    1.07
  -4   5 -16    7.77    0.94
  -4   5 -16    8.30    1.05
  -5  -5 -16    7.26    1.11
  -5  -5 -16    7.92    1.02
  -5   5 -16    7.54    0.94
  -6  -5 -16    2.18    0.53
  -6  -5 -16    1.88    0.66
  -6   5 -16    2.04    0.47
  -7  -5 -16   -0.14    0.57
  -7  -5 -16    0.30    0.32
  -9  -6  16    1.52    0.54
  -9   6  16    0.46    0.35
  -9   6  16    0.91    0.60
  -8  -6  16    0.36    0.46
  -8   6  16    0.18    0.41
  -8   6  16    0.55    0.46
  -7  -6  16    3.70    0.85
  -7   6  16    3.78    0.75
  -7   6  16    3.23    0.74
  -6  -6  16    8.97    1.23
  -6  -6  16    7.14    1.14
  -6   6  16    9.68    1.14
  -6   6  16    8.37    0.87
  -6   6  16    7.58    1.12
  -5  -6  16    5.76    1.07
   5  -6 -16    9.98    1.52
  -5  -6  16    7.93    1.20
  -5   6  16    9.91    1.23
  -5   6  16    6.87    0.87
  -5   6  16    7.74    0.95
  -4  -6  16    0.47    0.56
   4  -6 -16    0.99    0.73
  -4   6  16    0.71    0.47
  -4   6  16    0.32    0.41
  -4   6  16    0.31    0.48
   3  -6 -16    8.28    1.37
  -3  -6  16    8.97    1.27
  -3  -6  16    6.54    0.93
   3   6 -16   10.62    1.44
  -3   6  16    8.12    0.93
  -3   6  16    8.81    0.99
  -3   6  16    8.48    1.20
  -2  -6  16   17.53    1.48
   2  -6 -16   15.11    1.32
  -2  -6  16   14.56    1.53
  -2   6  16   18.36    1.67
  -2   6  16   16.85    1.33
   2   6 -16   13.67    1.50
  -1  -6  16   10.51    1.14
   1  -6 -16    9.39    1.04
   1  -6 -16    9.07    1.23
   1   6 -16   10.28    1.32
  -1   6  16    9.44    1.31
   0  -6  16    0.84    0.45
   0  -6 -16    1.41    0.52
   0  -6 -16    1.33    0.57
   0   6  16    1.06    0.62
   0   6 -16    0.66    0.54
  -1  -6 -16    2.50    0.74
  -1  -6 -16    3.18    0.65
   1  -6  16    3.26    0.59
  -1   6 -16    2.66    0.55
  -1   6 -16    2.39    0.76
  -2  -6 -16   18.38    1.56
  -2  -6 -16   17.72    1.69
  -2   6 -16   17.62    1.43
  -2   6 -16   17.83    1.65
  -3  -6 -16   15.81    1.39
  -3  -6 -16   11.88    1.47
  -3   6 -16   13.33    1.38
  -4  -6 -16    1.46    0.59
  -4  -6 -16    2.01    0.60
  -4   6 -16    2.57    0.65
  -5  -6 -16    0.14    0.52
  -5  -6 -16    0.49    0.45
  -5   6 -16    0.65    0.44
  -6  -6 -16    2.39    0.68
  -6  -6 -16    2.96    0.62
  -6   6 -16    2.54    0.50
  -7  -6 -16    2.96    0.51
  -7  -6 -16    2.15    0.71
  -9  -7  16    0.86    0.50
  -9   7  16    1.24    0.59
  -8  -7  16    3.31    0.77
  -8   7  16    2.74    0.65
  -8   7  16    3.24    0.64
  -7  -7  16    2.97    0.75
  -7   7  16    3.34    0.74
  -7   7  16    2.29    0.65
  -6  -7  16    0.14    0.50
  -6   7  16    0.50    0.35
  -6   7  16    0.16    0.48
  -6   7  16    0.00    0.47
   5  -7 -16    6.95    1.29
  -5  -7  16    4.51    1.00
  -5  -7  16    6.30    1.08
  -5   7  16    5.12    0.69
  -5   7  16    5.46    0.98
  -5   7  16    3.61    0.79
  -4  -7  16   10.23    1.34
  -4  -7  16    9.34    1.28
   4  -7 -16   10.60    1.55
  -4   7  16    8.92    1.07
  -4   7  16    8.83    0.98
  -4   7  16    8.45    1.21
  -3  -7  16    6.32    1.08
   3  -7 -16    7.12    1.30
  -3  -7  16    6.26    1.09
  -3   7  16    8.60    1.00
  -3   7  16    7.79    0.93
  -3   7  16    9.92    1.31
  -2  -7  16    0.84    0.60
  -2  -7  16    2.68    0.72
  -2   7  16    1.11    0.70
  -2   7  16    2.06    0.53
   2   7 -16    2.02    0.67
  -2   7  16    1.35    0.48
   1  -7 -16    3.49    0.63
   1  -7 -16    4.96    0.91
  -1  -7  16    2.40    0.58
  -1   7  16    2.93    0.79
   1   7 -16    3.57    0.84
   0  -7 -16   15.88    1.43
   0  -7  16   18.94    1.52
   0  -7 -16   18.42    1.72
   0   7  16   19.27    1.98
   0   7 -16   16.41    1.68
  -1  -7 -16   12.53    1.12
   1  -7  16    9.59    1.09
  -1  -7 -16   10.99    1.39
  -1   7 -16    8.48    1.24
  -2  -7 -16    0.72    0.46
  -2  -7 -16    1.32    0.59
  -2   7 -16    0.08    0.43
  -3  -7 -16   -0.50    0.49
  -3  -7 -16    0.19    0.44
  -3   7 -16    0.23    0.47
  -4  -7 -16    6.03    0.93
  -4  -7 -16    5.72    0.97
  -4   7 -16    5.49    0.85
  -5  -7 -16    4.81    0.86
  -5  -7 -16    4.07    0.84
  -5   7 -16    4.90    0.76
  -6  -7 -16    0.71    0.49
  -6  -7 -16    2.30    0.65
  -6   7 -16    0.73    0.36
  -7  -7 -16    0.29    0.33
  -7  -7 -16   -0.04    0.43
  -8  -8  16   -0.19    0.47
  -8   8  16   -0.17    0.34
  -8   8  16    0.18    0.43
  -7  -8  16    2.49    0.70
  -7   8  16    1.73    0.56
  -7   8  16    0.62    0.57
  -6  -8  16    7.56    1.13
  -6   8  16    6.93    0.74
  -6   8  16    4.61    0.85
  -6   8  16    4.20    0.82
  -5  -8  16    1.99    0.81
  -5   8  16    3.08    0.56
  -5   8  16    1.90    0.61
  -5   8  16    3.16    0.79
  -4  -8  16    0.28    0.59
   4  -8 -16    0.82    0.70
  -4   8  16    0.16    0.56
  -4   8  16    0.31    0.44
  -4   8  16    0.05    0.44
  -3  -8  16    1.75    0.71
  -3  -8  16    2.00    0.76
  -3   8  16    3.21    0.62
  -3   8  16    4.05    0.87
  -3   8  16    2.91    0.62
  -2  -8  16   13.61    1.62
  -2  -8  16   14.42    1.47
  -2   8  16   11.28    1.27
   2   8 -16   11.31    1.44
  -2   8  16   13.81    1.27
  -2   8  16   14.20    1.68
   1  -8 -16    7.70    1.22
  -1   8  16    8.83    1.34
  -1   8  16   11.20    1.14
   1   8 -16   11.30    1.40
   0  -8 -16    2.18    0.67
   0   8 -16    1.02    0.63
  -1  -8 -16    0.91    0.45
  -1  -8 -16    0.34    0.53
  -1   8 -16    0.32    0.47
  -2  -8 -16    5.53    1.02
  -2  -8 -16    6.33    0.89
  -2   8 -16    7.05    1.07
  -3  -8 -16    3.69    0.91
  -3  -8 -16    5.47    0.83
  -3   8 -16    4.42    0.86
  -4  -8 -16    0.31    0.47
  -4  -8 -16    0.48    0.57
  -4   8 -16    1.07    0.53
  -5  -8 -16    0.50    0.56
  -5  -8 -16    1.17    0.59
  -5   8 -16    0.73    0.45
  -6  -8 -16    1.24    0.54
  -6  -8 -16    1.95    0.53
  -8  -9  16    2.60    0.69
  -8   9  16    2.14    0.51
  -8   9  16    2.02    0.62
  -7  -9  16    1.99    0.69
  -7   9  16    2.13    0.57
  -7   9  16    0.95    0.55
  -6  -9  16   -0.15    0.47
  -6   9  16    0.36    0.35
  -6   9  16   -0.31    0.44
  -6   9  16   -0.22    0.46
  -5  -9  16    2.43    0.79
  -5   9  16    2.20    0.49
  -5   9  16    3.67    0.88
  -5   9  16    3.23    0.73
  -4  -9  16    4.38    1.02
  -4   9  16    3.10    0.90
  -4   9  16    4.60    0.70
  -4   9  16    4.45    0.78
  -3  -9  16    3.25    0.82
  -3   9  16    2.91    0.69
  -3   9  16    3.87    0.68
  -3   9  16    3.69    0.98
  -2  -9  16    0.24    0.52
   2   9 -16    0.78    0.60
  -2   9  16    0.31    0.48
  -2   9  16    1.63    0.79
  -2   9  16    0.07    0.41
   1  -9 -16    2.87    0.75
  -1   9  16    2.52    0.60
   1   9 -16    3.43    0.90
  -1   9  16    2.54    0.84
   0  -9 -16   12.12    1.55
   0   9  16   13.07    1.61
   0   9 -16   10.59    1.41
  -1  -9 -16    6.47    1.13
  -1   9 -16    6.02    1.03
  -2  -9 -16    0.70    0.68
  -2   9 -16    1.16    0.64
  -3  -9 -16    0.41    0.62
  -3  -9 -16    0.54    0.53
  -3   9 -16    0.68    0.60
  -4  -9 -16    2.84    0.82
  -4  -9 -16    3.15    0.70
  -4   9 -16    3.89    0.75
  -5  -9 -16    2.71    0.64
  -5  -9 -16    2.67    0.64
  -5   9 -16    1.61    0.50
  -7 -10  16    1.86    0.75
  -7  10  16    1.71    0.55
  -7  10  16    1.07    0.48
  -6 -10  16    3.87    0.85
  -6  10  16    3.92    0.53
  -6  10  16    1.91    0.64
  -6  10  16    2.94    0.69
  -5 -10  16    1.94    0.71
  -5  10  16    1.78    0.71
  -5  10  16    2.38    0.66
  -5  10  16    2.18    0.50
  -4 -10  16    0.66    0.65
  -4  10  16   -0.12    0.41
  -4  10  16   -0.33    0.56
  -4  10  16   -0.01    0.38
  -3 -10  16    2.44    0.75
  -3  10  16    2.95    0.67
  -3  10  16    3.37    0.75
  -3  10  16    2.72    0.87
  -2  10  16    6.82    0.95
  -2  10  16    7.53    0.97
  -2  10  16    6.24    1.13
   2  10 -16    6.43    1.11
  -1  10  16    5.75    1.07
  -1  10  16    5.77    0.85
   1  10 -16    4.05    0.92
   0 -10 -16    0.60    0.65
   0  10  16    0.89    0.46
   0  10 -16    0.22    0.64
  -1 -10 -16    0.65    0.60
  -1  10 -16    0.62    0.63
  -2 -10 -16    5.94    1.09
  -2  10 -16    5.01    0.96
  -3 -10 -16    4.80    0.94
  -3  10 -16    3.49    0.76
  -4 -10 -16    0.01    0.58
  -4  10 -16    0.11    0.42
  -5 -10 -16    0.24    0.54
  -5  10 -16    0.52    0.42
  -6 -11  16    0.06    0.56
  -6  11  16   -0.65    0.33
  -6  11  16   -0.05    0.49
  -5 -11  16    2.62    0.75
  -5  11  16    1.75    0.62
  -5  11  16    1.86    0.73
  -5  11  16    1.82    0.45
  -4 -11  16    5.87    1.06
  -4  11  16    5.56    0.87
  -4  11  16    4.79    0.74
  -4  11  16    4.82    0.97
  -3 -11  16    3.32    0.92
  -3  11  16    4.55    0.75
  -3  11  16    3.89    0.95
  -3  11  16    3.90    0.77
  -2  11  16    0.83    0.54
   2  11 -16    0.10    0.54
  -2  11  16    0.70    0.44
  -2  11  16    1.61    0.75
  -1  11  16    1.72    0.58
  -1  11  16    2.79    0.84
   1  11 -16    1.62    0.72
   0 -11 -16    4.30    0.97
   0  11  16    6.59    0.92
   0  11 -16    4.67    0.98
  -1 -11 -16    3.84    0.92
  -1  11 -16    5.85    1.10
  -2 -11 -16    0.47    0.66
  -2  11 -16    0.34    0.50
  -3 -11 -16    0.70    0.52
  -3  11 -16    0.88    0.60
  -4 -11 -16    2.47    0.75
  -4  11 -16    2.87    0.67
  -4 -12  16   -0.06    0.59
  -4  12  16    0.56    0.46
  -4  12  16    1.04    0.54
  -4  12  16    0.22    0.38
  -3  12  16    2.56    0.62
  -3  12  16    1.54    0.55
  -3  12  16    1.67    0.81
  -2  12  16    4.75    0.82
  -2  12  16    6.52    1.22
   2  12 -16    6.74    1.14
  -2  12  16    5.98    0.87
  -1  12  16    2.98    0.67
  -1  12  16    2.85    0.87
   1  12 -16    4.63    1.04
  -1  12  16    2.88    0.76
   0  12 -16    0.27    0.65
   0  12  16    0.63    0.46
  -1 -12 -16    0.69    0.53
  -1  12 -16   -0.07    0.57
  -2 -12 -16    5.78    1.04
  -2  12 -16    4.41    0.86
   1  13 -16    1.85    0.75
  -1  13  16    0.87    0.46
  -1  13  16    1.37    0.66
  -1  13  16    0.94    0.58
 -10   0  17    0.37    0.47
  -9   0  17    1.29    0.48
  -9   0  17    1.83    0.57
  -8   0  17    4.96    0.86
  -8   0  17    3.44    0.68
  -7   0  17    4.53    0.82
  -7   0  17    4.64    0.74
  -6   0  17    1.34    0.52
  -6   0  17    0.45    0.56
  -5   0  17    3.25    0.61
  -5   0  17    3.96    0.79
  -4   0  17   13.96    1.26
  -4   0  17   12.82    1.37
  -3   0  17   13.13    1.14
  -3   0  17   12.95    1.36
  -2   0  17    3.98    0.62
  -2   0  17    3.19    0.76
   2   0 -17    5.28    0.80
   1   0 -17    1.83    0.58
  -1   0  17    2.30    0.60
   0   0 -17   18.54    1.61
  -1   0 -17   17.54    1.60
  -1   0 -17   19.47    1.56
  -2   0 -17    6.99    0.91
  -2   0 -17    5.93    0.95
  -3   0 -17   -0.10    0.43
  -3   0 -17   -0.04    0.42
  -4   0 -17    5.27    0.84
  -4   0 -17    7.16    1.03
  -5   0 -17    8.29    0.99
  -5   0 -17    8.10    1.09
  -6   0 -17    1.93    0.70
  -6   0 -17    2.43    0.54
  -7   0 -17    0.29    0.48
  -8   0 -17   -0.13    0.36
 -10  -1  17    1.94    0.60
 -10   1  17    2.06    0.62
  -9  -1  17    0.85    0.55
  -9  -1  17    2.18    0.60
  -9  -1  17    1.44    0.51
  -9   1  17    2.26    0.55
  -9   1  17    2.52    0.60
  -8  -1  17   -0.22    0.39
  -8  -1  17    0.80    0.50
  -8   1  17    0.41    0.46
  -8   1  17   -0.03    0.40
  -7  -1  17    2.76    0.67
  -7   1  17    2.33    0.57
  -7   1  17    1.44    0.58
  -6  -1  17    7.02    1.02
  -6   1  17    7.45    1.05
  -5  -1  17    9.25    1.16
  -5  -1  17    6.27    0.90
  -5   1  17    5.81    0.98
  -5   1  17    7.25    0.89
  -4  -1  17    1.83    0.63
  -4  -1  17    2.16    0.58
  -4   1  17    1.82    0.52
  -4   1  17    3.08    0.75
  -3  -1  17    2.38    0.58
  -3  -1  17    2.50    0.66
  -3   1  17    2.75    0.51
  -3   1  17    1.61    0.60
  -2  -1  17   22.45    1.94
   2  -1 -17   22.87    1.90
  -2   1  17   25.71    1.79
  -2   1  17   27.35    1.99
   2   1 -17   22.50    1.93
   1  -1 -17   27.57    2.05
  -1  -1  17   24.38    2.03
   1   1 -17   24.79    2.01
  -1   1  17   26.15    2.03
   0  -1 -17    2.70    0.65
   0   1 -17    1.72    0.55
  -1  -1 -17    0.93    0.55
  -1  -1 -17    0.69    0.43
  -1   1 -17    0.00    0.46
  -1   1 -17    0.68    0.45
  -2  -1 -17    4.99    0.81
  -2  -1 -17    3.05    0.65
  -2   1 -17    4.26    0.78
  -2   1 -17    5.63    0.83
  -3  -1 -17   12.80    1.34
  -3  -1 -17   13.02    1.36
  -3   1 -17   15.66    1.33
  -3   1 -17   13.22    1.35
  -4  -1 -17    8.58    1.10
  -4  -1 -17    8.51    1.12
  -4   1 -17    8.77    1.10
  -4   1 -17    8.27    1.07
  -5  -1 -17   -0.30    0.36
  -5  -1 -17    0.36    0.45
  -5   1 -17   -0.19    0.34
  -5   1 -17    0.28    0.39
  -6  -1 -17    2.74    0.69
  -6  -1 -17    4.44    0.68
  -6   1 -17    3.13    0.75
  -6   1 -17    3.63    0.62
  -7  -1 -17    3.09    0.79
  -7   1 -17    3.20    0.73
  -8  -1 -17    0.69    0.55
  -8   1 -17    0.99    0.48
 -10  -2  17   -0.54    0.40
 -10   2  17   -0.06    0.35
  -9  -2  17    0.74    0.47
  -9  -2  17    0.86    0.44
  -9  -2  17    0.00    0.46
  -9   2  17    0.24    0.39
  -9   2  17    0.57    0.51
  -8  -2  17    6.21    0.89
  -8   2  17    4.31    0.78
  -8   2  17    3.65    0.73
  -7  -2  17    5.02    0.96
  -7   2  17    4.99    0.89
  -7   2  17    6.72    0.87
  -6  -2  17    0.65    0.53
  -6   2  17    1.25    0.48
  -6   2  17    1.33    0.56
  -5  -2  17    2.57    0.67
  -5  -2  17    2.56    0.59
  -5   2  17    3.55    0.63
  -5   2  17    2.05    0.62
  -4  -2  17   11.07    1.40
  -4  -2  17   14.73    1.28
  -4   2  17   14.17    1.37
  -4   2  17   12.30    1.14
  -3  -2  17   13.95    1.43
  -3  -2  17   14.02    1.32
  -3   2  17   14.09    1.22
  -3   2  17   15.15    1.43
   2  -2 -17    6.03    0.91
  -2  -2  17    4.00    0.63
  -2  -2  17    4.68    0.82
  -2   2  17    4.55    0.67
   2   2 -17    3.36    0.73
  -2   2  17    4.96    0.87
   1  -2 -17    0.41    0.48
  -1  -2  17    0.25    0.46
   1   2 -17    0.12    0.44
  -1   2  17    0.45    0.46
   0  -2 -17   11.03    1.15
   0  -2 -17   11.30    1.22
   0   2 -17   13.02    1.29
  -1  -2 -17   18.10    1.64
  -1  -2 -17   19.33    1.58
  -1   2 -17   20.71    1.70
  -1   2 -17   17.20    1.53
  -2  -2 -17    3.61    0.76
  -2  -2 -17    5.04    0.89
  -2   2 -17    6.01    0.96
  -2   2 -17    5.78    0.84
  -3  -2 -17    0.02    0.44
  -3  -2 -17    0.55    0.47
  -3   2 -17    1.17    0.54
  -3   2 -17   -0.44    0.45
  -4  -2 -17    6.99    0.98
  -4  -2 -17    6.30    0.92
  -4   2 -17    6.16    0.92
  -4   2 -17    6.69    0.93
  -5  -2 -17    6.51    0.93
  -5  -2 -17    6.09    0.99
  -5   2 -17    6.75    0.94
  -5   2 -17    6.05    0.85
  -6  -2 -17    2.94    0.82
  -6  -2 -17    1.90    0.52
  -6   2 -17    2.56    0.52
  -6   2 -17    2.18    0.58
  -7  -2 -17    0.60    0.58
  -7   2 -17    0.13    0.42
  -8  -2 -17    0.09    0.55
  -8   2 -17    0.73    0.45
 -10  -3  17    1.31    0.55
 -10  -3  17    2.10    0.76
 -10   3  17    1.93    0.66
  -9  -3  17    3.30    0.69
  -9   3  17    2.41    0.56
  -9   3  17    2.27    0.60
  -8  -3  17    0.06    0.52
  -8  -3  17   -0.48    0.44
  -8   3  17    0.01    0.43
  -8   3  17    0.56    0.48
  -7  -3  17    1.94    0.66
  -7   3  17    3.97    0.70
  -7   3  17    2.51    0.64
  -6  -3  17    8.55    1.22
   6  -3 -17    9.52    1.37
  -6   3  17    7.90    1.13
  -6   3  17   11.38    1.14
  -5  -3  17    7.76    1.13
   5  -3 -17    8.40    1.33
  -5   3  17    9.43    1.14
  -5   3  17    8.32    0.93
  -5   3  17    9.35    0.98
  -4  -3  17    3.21    0.77
   4  -3 -17    2.74    0.86
  -4  -3  17    5.14    0.74
  -4   3  17    4.35    0.81
  -4   3  17    4.57    0.65
   3  -3 -17    0.46    0.57
  -3  -3  17    0.21    0.48
  -3  -3  17    0.26    0.36
  -3   3  17    0.46    0.54
  -3   3  17    0.14    0.31
  -2  -3  17   17.36    1.62
   2  -3 -17   18.70    1.59
  -2  -3  17   17.37    1.52
  -2   3  17   19.07    1.45
  -2   3  17   16.21    1.60
   1  -3 -17   16.94    1.47
  -1  -3  17   14.24    1.31
  -1  -3  17   14.42    1.41
   1   3 -17   14.03    1.45
   0  -3 -17    2.59    0.58
   0  -3 -17    1.49    0.58
   0  -3  17    2.49    0.53
   0   3 -17    2.46    0.71
  -1  -3 -17    0.86    0.49
  -1  -3 -17    0.70    0.48
  -1   3 -17    0.32    0.47
  -1   3 -17    0.01    0.42
  -2  -3 -17    9.49    1.17
  -2  -3 -17    7.77    1.06
  -2   3 -17    8.01    0.97
  -2   3 -17    7.78    1.10
  -3  -3 -17   13.70    1.37
  -3  -3 -17   14.50    1.38
  -3   3 -17   12.36    1.36
  -3   3 -17   13.61    1.29
  -4  -3 -17    4.22    0.78
  -4  -3 -17    4.10    0.85
  -4   3 -17    6.29    0.85
  -4   3 -17    6.05    0.88
  -5  -3 -17    0.66    0.47
  -5  -3 -17   -0.27    0.36
  -5   3 -17    0.50    0.41
  -5   3 -17    0.39    0.44
  -6  -3 -17    1.98    0.50
  -6  -3 -17    2.08    0.72
  -6   3 -17    2.29    0.62
  -6   3 -17    2.04    0.48
  -7  -3 -17    2.63    0.69
  -7   3 -17    2.42    0.69
 -10   4  17   -0.50    0.42
  -9  -4  17    1.24    0.57
  -9   4  17    1.23    0.52
  -9   4  17    0.74    0.41
  -8  -4  17    5.05    0.95
  -8  -4  17    5.27    0.94
  -8   4  17    6.28    0.94
  -8   4  17    5.11    0.79
  -7  -4  17    7.07    1.08
  -7   4  17    4.25    0.85
  -7   4  17    5.17    0.83
   6  -4 -17    0.51    0.76
  -6  -4  17    1.12    0.60
  -6   4  17    1.00    0.53
  -6   4  17    0.79    0.44
   5  -4 -17    2.51    0.96
  -5  -4  17    2.99    0.80
  -5   4  17    2.09    0.51
  -5   4  17    2.25    0.52
  -5   4  17    3.30    0.74
  -4  -4  17   14.94    1.45
  -4  -4  17   12.55    1.49
   4  -4 -17   13.31    1.62
  -4   4  17   12.29    1.13
  -4   4  17   11.48    1.41
   3  -4 -17   15.25    1.71
  -3  -4  17   15.97    1.43
  -3  -4  17   15.01    1.51
  -3   4  17   17.24    1.32
  -3   4  17   15.32    1.55
   3   4 -17   11.13    1.80
  -2  -4  17    3.53    0.66
   2  -4 -17    3.37    0.72
  -2  -4  17    3.23    0.73
  -2   4  17    3.50    0.62
  -2   4  17    5.69    0.90
   2   4 -17    4.16    0.76
   1  -4 -17   -0.13    0.47
  -1  -4  17    0.71    0.45
   1  -4 -17   -0.53    0.38
  -1  -4  17    0.78    0.45
   1   4 -17    0.01    0.45
  -1   4  17    0.87    0.47
   0  -4 -17   10.11    1.15
   0  -4  17   11.11    1.18
   0  -4 -17   12.07    1.28
   0   4 -17    9.04    1.22
  -1  -4 -17   21.41    1.99
   1  -4  17   23.55    1.85
  -1  -4 -17   23.27    1.88
  -1   4 -17   25.69    1.87
  -1   4 -17   26.43    2.04
   2  -4  17    8.77    0.99
  -2  -4 -17    9.36    1.09
  -2  -4 -17    8.40    1.15
  -2   4 -17    7.57    0.97
  -2   4 -17    7.60    1.11
  -3  -4 -17   -0.09    0.43
  -3  -4 -17    0.53    0.52
  -3   4 -17    0.66    0.38
  -3   4 -17    0.78    0.51
  -4  -4 -17    5.07    0.89
  -4  -4 -17    3.67    0.80
  -4   4 -17    3.73    0.72
  -4   4 -17    4.19    0.74
  -5  -4 -17    4.21    0.80
  -5  -4 -17    2.82    0.62
  -5   4 -17    3.75    0.68
  -5   4 -17    4.08    0.70
  -6  -4 -17    2.61    0.59
  -6  -4 -17    3.51    0.85
  -6   4 -17    2.57    0.51
  -7  -4 -17    0.09    0.39
  -7  -4 -17    0.49    0.46
  -9  -5  17    1.60    0.56
  -9   5  17    1.02    0.55
  -9   5  17    2.76    0.52
  -8  -5  17   -0.56    0.40
  -8   5  17    0.18    0.39
  -8   5  17    0.31    0.48
  -7  -5  17    3.19    0.83
  -7  -5  17    2.89    0.82
  -7   5  17    2.93    0.65
  -7   5  17    3.84    0.73
  -6  -5  17    7.32    1.14
  -6   5  17    7.17    0.95
  -6   5  17    8.34    1.11
   5  -5 -17    9.63    1.48
  -5  -5  17    5.84    1.11
  -5   5  17    6.42    0.87
  -5   5  17    5.69    0.79
  -5   5  17    7.65    1.10
  -4  -5  17    3.37    0.81
   4  -5 -17    4.87    1.06
  -4   5  17    2.47    0.69
  -4   5  17    3.20    0.61
  -4   5  17    3.74    0.65
  -3  -5  17    0.57    0.58
  -3  -5  17    1.28    0.63
   3  -5 -17    2.03    0.82
  -3   5  17    1.69    0.52
   3   5 -17    1.28    0.78
  -3   5  17    1.43    0.64
   2  -5 -17   14.80    1.49
  -2  -5  17   13.19    1.49
   2  -5 -17   16.60    1.35
  -2  -5  17   15.99    1.41
  -2   5  17   17.30    1.54
  -2   5  17   15.09    1.32
   2   5 -17   12.66    1.47
   1  -5 -17   22.04    1.81
  -1  -5  17   21.47    1.67
   1  -5 -17   20.48    1.59
   1   5 -17   15.86    1.69
  -1   5  17   17.57    1.74
   0  -5 -17    4.21    0.88
   0  -5  17    4.39    0.75
   0  -5 -17    4.48    0.72
   0   5 -17    4.07    0.86
  -1  -5 -17    0.39    0.46
  -1  -5 -17    0.43    0.55
   1  -5  17    0.28    0.40
  -1   5 -17   -0.30    0.38
  -1   5 -17    0.20    0.39
  -2  -5 -17    4.96    0.88
   2  -5  17    3.93    0.69
  -2  -5 -17    5.48    0.87
  -2   5 -17    5.69    0.75
  -2   5 -17    3.40    0.81
  -3  -5 -17   12.67    1.48
  -3   5 -17   12.35    1.15
  -3   5 -17   11.66    1.37
  -4  -5 -17    3.48    0.77
  -4  -5 -17    2.94    0.78
  -4   5 -17    3.75    0.65
  -4   5 -17    3.49    0.73
  -5  -5 -17   -0.15    0.49
  -5  -5 -17   -0.13    0.42
  -5   5 -17   -0.09    0.39
  -6  -5 -17    1.86    0.65
  -6  -5 -17    1.63    0.48
  -6   5 -17    1.58    0.42
  -7  -5 -17    2.57    0.74
  -7  -5 -17    2.28    0.45
  -9  -6  17    0.67    0.49
  -9   6  17    0.80    0.37
  -9   6  17    0.20    0.49
  -8  -6  17    2.26    0.72
  -8   6  17    3.70    0.65
  -8   6  17    3.21    0.67
  -7  -6  17    3.77    0.83
  -7   6  17    2.93    0.72
  -7   6  17    4.67    0.83
  -6  -6  17    0.70    0.59
  -6  -6  17   -0.16    0.44
  -6   6  17    0.77    0.43
  -6   6  17    1.23    0.54
  -5  -6  17    1.49    0.70
  -5  -6  17    1.60    0.76
   5  -6 -17    0.45    0.75
  -5   6  17    1.05    0.47
  -5   6  17    1.36    0.43
  -5   6  17    1.81    0.71
  -4  -6  17    9.04    1.26
   4  -6 -17    8.93    1.43
  -4   6  17    8.04    0.96
  -4   6  17   10.17    1.29
  -4   6  17    8.99    1.03
   3  -6 -17    7.54    1.33
  -3  -6  17    9.04    1.20
   3  -6 -17   10.03    1.04
  -3   6  17    8.30    1.19
  -3   6  17    7.07    0.91
  -3   6  17    6.88    1.14
  -2  -6  17    1.56    0.66
   2  -6 -17    2.40    0.54
  -2   6  17    2.96    0.77
   2   6 -17    1.75    0.67
  -2   6  17    1.36    0.54
   1  -6 -17    0.90    0.53
   1  -6 -17    0.24    0.33
   1   6 -17   -0.12    0.50
  -1   6  17    0.18    0.52
   0  -6 -17    8.34    1.19
   0  -6 -17   11.08    1.08
   0   6 -17    8.62    1.26
  -1  -6 -17   18.94    1.51
  -1  -6 -17   16.36    1.66
  -1   6 -17   15.59    1.62
  -1   6 -17   16.77    1.40
  -2  -6 -17    5.35    0.92
  -2  -6 -17    5.82    0.87
  -2   6 -17    6.37    0.81
  -2   6 -17    3.37    0.82
  -3  -6 -17    0.09    0.50
  -3  -6 -17   -0.41    0.46
  -3   6 -17    0.05    0.38
  -4  -6 -17    3.04    0.75
  -4  -6 -17    2.26    0.63
  -4   6 -17    2.95    0.66
  -5  -6 -17    3.75    0.82
  -5  -6 -17    4.38    0.83
  -5   6 -17    4.06    0.73
  -6  -6 -17    1.35    0.54
  -6  -6 -17    1.61    0.52
  -6   6 -17    1.73    0.44
  -7  -6 -17    0.30    0.52
  -8  -7  17   -0.25    0.46
  -8   7  17   -0.08    0.35
  -8   7  17    0.30    0.41
  -7  -7  17    0.48    0.52
  -7   7  17    0.04    0.45
  -7   7  17    0.87    0.46
  -6  -7  17    5.37    1.00
  -6   7  17    5.22    0.66
  -6   7  17    5.55    0.86
  -6   7  17    5.34    0.97
  -5  -7  17    6.54    1.17
  -5  -7  17    5.85    1.11
  -5   7  17    5.54    0.74
  -5   7  17    5.40    0.82
  -5   7  17    4.80    0.95
   4  -7 -17    1.12    0.78
  -4  -7  17    1.85    0.72
  -4  -7  17    2.01    0.68
  -4   7  17    0.99    0.56
  -4   7  17    1.08    0.48
  -4   7  17    0.96    0.48
  -3  -7  17    0.33    0.55
  -3  -7  17   -0.15    0.47
  -3   7  17    0.13    0.37
  -3   7  17    0.65    0.54
  -3   7  17    0.36    0.43
  -2  -7  17    8.84    1.24
  -2  -7  17    9.48    1.30
   2   7 -17   12.06    1.53
  -2   7  17   11.56    1.20
  -2   7  17   10.19    1.39
   1  -7 -17   12.47    1.17
   1  -7 -17   13.67    1.54
   1   7 -17   12.37    1.49
  -1   7  17   11.56    1.47
   0  -7 -17    1.98    0.68
   0  -7 -17    2.11    0.56
   0   7 -17    1.95    0.68
  -1  -7 -17    0.86    0.47
  -1  -7 -17    1.20    0.58
  -1   7 -17    0.76    0.53
  -2  -7 -17    2.34    0.63
  -2  -7 -17    4.24    0.87
  -2   7 -17    1.99    0.69
  -3  -7 -17    6.71    1.08
  -3  -7 -17    7.10    0.95
  -3   7 -17    4.63    0.91
  -4  -7 -17    4.07    0.79
  -4  -7 -17    3.84    0.85
  -4   7 -17    4.06    0.76
  -5  -7 -17    0.29    0.46
  -5  -7 -17   -0.15    0.41
  -5   7 -17   -0.02    0.37
  -6  -7 -17    4.28    0.84
  -6  -7 -17    2.83    0.60
  -8  -8  17    1.71    0.60
  -8   8  17    1.98    0.60
  -8   8  17    1.49    0.48
  -7  -8  17    2.40    0.74
  -7   8  17    2.51    0.65
  -7   8  17    1.76    0.59
  -6  -8  17   -0.25    0.49
  -6   8  17    0.23    0.34
  -6   8  17    0.59    0.50
  -6   8  17    1.14    0.64
  -5  -8  17    2.01    0.81
  -5   8  17    1.00    0.66
  -5   8  17    1.83    0.50
  -5   8  17    1.01    0.54
  -4  -8  17    8.71    1.30
  -4   8  17    7.54    1.18
  -4   8  17    8.92    1.04
  -4   8  17    5.82    0.85
  -3  -8  17    6.27    1.08
  -3  -8  17    5.32    1.00
  -3   8  17    7.24    0.92
  -3   8  17    6.35    0.89
  -3   8  17    7.17    1.15
  -2  -8  17    2.07    0.68
  -2  -8  17    1.26    0.56
   2   8 -17    2.22    0.66
  -2   8  17    1.75    0.77
  -2   8  17    1.47    0.52
  -2   8  17    1.55    0.55
   1  -8 -17    0.52    0.62
  -1   8  17    0.77    0.58
   1   8 -17    0.68    0.59
   0  -8 -17    6.37    1.11
   0   8 -17    5.34    1.00
  -1  -8 -17    7.93    0.95
  -1  -8 -17    6.21    1.07
  -1   8 -17    7.45    1.11
  -2  -8 -17    0.99    0.69
  -2  -8 -17    1.36    0.55
  -2   8 -17    1.50    0.66
  -3  -8 -17   -0.11    0.40
  -3  -8 -17    0.43    0.65
  -3   8 -17   -0.34    0.52
  -4  -8 -17    3.28    0.72
  -4  -8 -17    3.01    0.78
  -4   8 -17    3.29    0.69
  -5  -8 -17    3.43    0.73
  -5  -8 -17    5.43    0.87
  -5   8 -17    3.97    0.67
  -7  -9  17    0.39    0.61
  -7   9  17    1.06    0.48
  -7   9  17    1.22    0.53
  -6  -9  17    2.39    0.73
  -6   9  17    3.12    0.72
  -6   9  17    3.26    0.79
  -6   9  17    3.85    0.56
  -5  -9  17    2.39    0.76
  -5   9  17    2.87    0.80
  -5   9  17    1.90    0.64
  -5   9  17    2.64    0.53
  -4  -9  17    0.70    0.57
  -4   9  17    1.18    0.53
  -4   9  17    1.03    0.72
  -4   9  17    0.05    0.41
  -3  -9  17    0.20    0.64
  -3   9  17    0.97    0.49
  -3   9  17    0.19    0.41
  -3   9  17    1.29    0.77
  -2   9  17    6.76    0.91
   2   9 -17    8.53    1.24
  -2   9  17    3.71    0.96
  -2   9  17    6.69    0.96
   1  -9 -17   10.48    1.97
  -1   9  17   10.91    1.43
   1   9 -17    8.88    1.38
   0  -9 -17    2.24    0.75
   0   9 -17    1.11    0.68
  -1  -9 -17    0.46    0.63
  -1   9 -17    0.26    0.54
  -2  -9 -17    2.70    0.84
  -2   9 -17    2.66    0.75
  -3  -9 -17    8.23    1.18
  -3   9 -17    5.11    0.88
  -4  -9 -17    1.66    0.56
  -4  -9 -17    2.58    0.74
  -4   9 -17    2.16    0.60
  -5  -9 -17    0.48    0.47
  -5  -9 -17   -0.39    0.37
  -5   9 -17   -0.08    0.39
  -6 -10  17   -0.08    0.50
  -6  10  17    0.35    0.44
  -6  10  17    0.19    0.51
  -6  10  17    0.31    0.33
  -5 -10  17    1.47    0.78
  -5  10  17    0.89    0.44
  -5  10  17    0.87    0.60
  -5  10  17    1.51    0.60
  -4 -10  17    4.57    0.97
  -4  10  17    4.54    0.71
  -4  10  17    4.22    0.78
  -4  10  17    5.00    1.04
  -3 -10  17    6.51    1.10
  -3  10  17    5.65    0.84
  -3  10  17    5.67    1.04
  -3  10  17    4.87    0.81
  -2  10  17    2.03    0.57
   2  10 -17    0.82    0.70
  -2  10  17    0.91    0.77
  -2  10  17    1.76    0.53
  -1  10  17   -0.30    0.54
  -1  10  17    0.83    0.45
   1  10 -17    0.32    0.61
   0 -10 -17    3.55    0.85
   0  10 -17    1.80    0.74
  -1 -10 -17    8.36    1.29
  -1  10 -17    6.99    1.16
  -2 -10 -17    1.22    0.55
  -2  10 -17    2.36    0.69
  -3 -10 -17    0.19    0.53
  -3  10 -17   -0.07    0.54
  -4 -10 -17    2.44    0.65
  -4  10 -17    1.96    0.58
  -5 -11  17    3.30    0.80
  -5  11  17    3.20    0.92
  -5  11  17    1.19    0.52
  -5  11  17    2.41    0.50
  -4 -11  17    0.61    0.53
  -4  11  17    0.96    0.46
  -4  11  17    0.69    0.44
  -4  11  17    0.27    0.54
  -3 -11  17    0.26    0.64
  -3  11  17    0.41    0.68
  -3  11  17    0.51    0.45
  -3  11  17    0.40    0.40
   2  11 -17    4.88    1.00
  -2  11  17    4.69    0.78
  -2  11  17    3.00    0.76
  -2  11  17    2.63    0.82
  -1  11  17    4.93    1.08
   1  11 -17    4.99    0.98
  -1  11  17    4.12    0.73
   0 -11 -17    1.52    0.74
   0  11 -17    1.36    0.65
  -1 -11 -17    0.10    0.58
  -1  11 -17    0.04    0.60
  -2 -11 -17    3.17    0.83
  -2  11 -17    2.25    0.67
  -3 -11 -17    2.83    0.70
  -3  11 -17    3.54    0.77
  -3  12  17    2.41    0.59
  -3  12  17    4.03    0.72
  -3  12  17    3.90    1.12
  -2  12  17    0.64    0.44
   2  12 -17    1.64    0.66
  -2  12  17    0.57    0.60
  -2  12  17    1.13    0.48
  -1  12  17    0.85    0.44
   1  12 -17    0.19    0.54
  -1  12  17    0.50    0.85
   0  12 -17    3.43    0.95
  -1 -12 -17    5.51    1.07
  -1  12 -17    6.04    1.07
 -10   0  18    1.61    0.57
  -9   0  18    0.93    0.48
  -9   0  18    1.33    0.48
  -8   0  18    0.12    0.51
  -7   0  18    1.15    0.58
  -6   0  18    8.37    1.17
  -5   0  18   14.19    1.46
  -4   0  18    5.66    0.84
  -4   0  18    5.81    1.01
  -3   0  18    0.87    0.51
  -2   0  18    0.92    0.50
   2   0 -18    1.54    0.57
  -2   0  18    1.83    0.56
   1   0 -18   24.40    1.92
  -1   0  18   20.48    1.87
   0   0 -18   14.34    1.41
  -1   0 -18   -0.02    0.44
  -1   0 -18   -0.24    0.45
  -2   0 -18    6.58    0.92
  -2   0 -18    5.56    0.90
  -3   0 -18    8.98    1.17
  -3   0 -18    8.60    1.09
  -4   0 -18    5.93    0.89
  -4   0 -18    4.91    0.88
  -5   0 -18    1.94    0.65
  -5   0 -18    1.64    0.56
  -6   0 -18    0.41    0.37
  -6   0 -18    0.32    0.42
  -7   0 -18    3.36    0.65
 -10  -1  18   -0.03    0.47
 -10   1  18    0.19    0.41
  -9  -1  18   -0.08    0.39
  -9  -1  18    0.61    0.51
  -9   1  18    0.49    0.45
  -9   1  18   -0.41    0.33
  -8  -1  18    2.51    0.68
  -8   1  18    3.00    0.70
  -8   1  18    2.41    0.61
  -7  -1  18    4.85    0.92
  -7   1  18    5.92    0.97
  -6  -1  18    2.30    0.66
  -6   1  18    2.23    0.66
  -5  -1  18   -0.04    0.49
  -5   1  18    0.25    0.53
  -4  -1  18    7.97    1.14
  -4  -1  18   10.52    1.12
  -4   1  18   10.06    1.28
  -4   1  18   10.27    1.09
  -3  -1  18   17.06    1.42
  -3  -1  18   16.64    1.54
  -3   1  18   13.77    1.50
   2  -1 -18    9.96    1.18
  -2  -1  18    8.64    1.15
  -2   1  18    8.24    0.98
   2   1 -18    8.24    1.11
  -2   1  18    7.98    1.10
  -1  -1  18    0.21    0.46
   1  -1 -18   -0.16    0.43
  -1   1  18   -0.08    0.43
   1   1 -18   -0.43    0.40
   0  -1 -18    4.63    0.82
   0  -1 -18    4.41    0.84
   0   1 -18    6.15    0.96
  -1  -1 -18   14.47    1.36
  -1  -1 -18   13.06    1.41
  -1   1 -18   16.52    1.50
  -1   1 -18   16.04    1.36
  -2  -1 -18   12.46    1.29
  -2  -1 -18   10.94    1.29
  -2   1 -18    8.76    1.19
  -2   1 -18   11.51    1.14
  -3  -1 -18    0.04    0.47
  -3  -1 -18    0.72    0.47
  -3   1 -18    0.19    0.43
  -3   1 -18    0.87    0.48
  -4  -1 -18    2.56    0.66
  -4  -1 -18    2.75    0.75
  -4   1 -18    2.28    0.63
  -4   1 -18    1.38    0.54
  -5  -1 -18    8.60    1.08
  -5  -1 -18    6.79    0.91
  -5   1 -18    5.96    0.85
  -5   1 -18    4.21    0.85
  -6  -1 -18    3.31    0.62
  -6  -1 -18    3.99    0.85
  -6   1 -18    4.59    0.68
  -6   1 -18    5.31    0.83
  -7   1 -18    0.40    0.46
  -9  -2  18    1.69    0.59
  -9  -2  18    2.65    0.63
  -9   2  18    2.44    0.57
  -9   2  18    1.81    0.57
  -8  -2  18    0.65    0.51
  -8   2  18    0.58    0.45
  -8   2  18    0.59    0.48
  -7  -2  18    0.04    0.55
  -7   2  18    0.49    0.52
  -7   2  18    0.11    0.41
  -6  -2  18    7.60    1.10
  -6   2  18    7.05    1.08
  -5  -2  18   10.43    1.34
  -5   2  18   10.28    1.31
  -4  -2  18    2.69    0.75
  -4   2  18    1.76    0.64
  -4   2  18    0.84    0.45
  -3  -2  18    0.25    0.46
  -3  -2  18    0.27    0.48
  -3   2  18   -0.11    0.37
  -3   2  18   -0.09    0.39
   2  -2 -18    6.85    1.01
  -2  -2  18    8.61    0.98
  -2  -2  18    7.46    1.04
  -2   2  18    5.90    1.01
   2   2 -18    8.50    1.13
  -2   2  18    9.06    0.97
  -1  -2  18   17.06    1.63
   1  -2 -18   19.05    1.67
   1   2 -18   19.67    1.70
  -1   2  18   18.67    1.67
   0  -2 -18   13.05    1.28
   0  -2 -18   10.58    1.19
   0   2 -18   10.79    1.33
  -1  -2 -18    0.03    0.40
  -1  -2 -18   -0.04    0.50
  -1   2 -18   -0.44    0.27
  -1   2 -18   -0.26    0.45
  -2  -2 -18    5.86    0.97
  -2  -2 -18    6.87    1.00
  -2   2 -18    6.84    0.98
  -2   2 -18    6.93    0.93
  -3  -2 -18    8.41    1.08
  -3  -2 -18    6.41    0.99
  -3   2 -18    6.14    0.90
  -3   2 -18    5.77    0.97
  -4  -2 -18    7.16    0.94
  -4  -2 -18    6.23    0.98
  -4   2 -18    5.80    0.93
  -4   2 -18    5.42    0.84
  -5  -2 -18    1.09    0.47
  -5  -2 -18    1.71    0.57
  -5   2 -18    0.91    0.53
  -5   2 -18    1.86    0.53
  -6  -2 -18    1.38    0.46
  -6  -2 -18    0.43    0.46
  -6   2 -18    0.18    0.42
  -6   2 -18    0.70    0.38
  -7  -2 -18    1.40    0.54
  -7   2 -18    1.85    0.53
  -9  -3  18   -0.05    0.44
  -9   3  18    0.23    0.37
  -8  -3  18    3.01    0.82
  -8  -3  18    2.49    0.75
  -8   3  18    2.46    0.65
  -8   3  18    2.74    0.64
  -7  -3  18    4.47    0.92
  -7   3  18    6.48    0.95
  -7   3  18    4.35    0.75
  -6  -3  18    1.60    0.69
  -6   3  18    2.79    0.74
  -5  -3  18    0.09    0.49
  -5   3  18   -0.41    0.37
  -4  -3  18    7.42    1.16
  -4   3  18    7.74    1.15
  -4   3  18    6.88    0.87
  -3  -3  18   14.54    1.64
  -3  -3  18   18.51    1.60
  -3   3  18   17.13    1.52
  -3   3  18   12.09    1.24
   2  -3 -18    6.07    1.00
  -2  -3  18    4.88    0.77
  -2  -3  18    7.10    1.07
  -2   3  18    6.90    1.04
   2   3 -18    6.69    1.06
  -2   3  18    5.69    0.79
   1  -3 -18    0.38    0.40
  -1  -3  18    0.18    0.54
  -1  -3  18    0.52    0.39
   1   3 -18    0.35    0.51
  -1   3  18   -0.22    0.45
   0  -3 -18    4.78    0.78
   0  -3  18    5.64    0.82
   0  -3 -18    4.99    0.92
   0   3 -18    5.54    0.92
  -1  -3 -18   10.98    1.21
  -1  -3 -18   10.93    1.33
  -1   3 -18   10.95    1.19
  -1   3 -18    8.02    1.17
  -2  -3 -18   11.05    1.34
  -2  -3 -18   12.77    1.25
  -2   3 -18   12.42    1.32
  -2   3 -18   10.87    1.25
  -3  -3 -18    1.45    0.57
  -3  -3 -18    1.94    0.63
  -3   3 -18    1.67    0.65
  -3   3 -18    1.90    0.56
  -4  -3 -18    2.02    0.71
  -4  -3 -18    2.54    0.65
  -4   3 -18    2.37    0.65
  -4   3 -18    1.28    0.52
  -5  -3 -18    4.79    0.85
  -5  -3 -18    4.54    0.76
  -5   3 -18    3.98    0.74
  -5   3 -18    5.09    0.81
  -6  -3 -18    1.74    0.77
  -6  -3 -18    1.93    0.49
  -6   3 -18    2.46    0.52
  -6   3 -18    1.90    0.58
  -9  -4  18    1.26    0.56
  -9   4  18    1.86    0.49
  -9   4  18    2.18    0.56
  -8  -4  18    1.01    0.55
  -8  -4  18    1.16    0.55
  -8   4  18    2.33    0.61
  -8   4  18    1.30    0.56
  -7  -4  18    0.55    0.58
  -7   4  18    0.12    0.39
  -7   4  18    0.46    0.52
  -6  -4  18    3.40    0.83
  -6   4  18    3.63    0.67
  -6   4  18    3.68    0.79
   5  -4 -18    5.83    1.22
  -5  -4  18    6.29    1.08
  -5   4  18    8.03    0.85
  -5   4  18    5.98    0.99
  -4  -4  18    2.57    0.72
   4  -4 -18    3.01    0.88
  -4   4  18    2.68    0.77
  -4   4  18    3.78    0.61
  -3  -4  18   -0.59    0.39
   3  -4 -18    0.00    0.73
  -3   4  18    0.06    0.35
  -3   4  18    0.79    0.53
   2  -4 -18    4.82    0.88
  -2  -4  18    3.99    0.83
   2   4 -18    4.22    0.86
  -2   4  18    4.21    0.85
  -2   4  18    6.44    0.82
   1  -4 -18   18.13    1.66
   1  -4 -18   17.30    1.49
  -1  -4  18   17.45    1.60
  -1   4  18   16.72    1.63
   1   4 -18   16.51    1.64
   0  -4 -18    9.08    1.07
   0  -4  18    8.71    1.18
   0  -4 -18    7.89    1.15
   0   4 -18    9.65    1.20
  -1  -4 -18    0.16    0.46
  -1  -4 -18   -0.20    0.41
  -1   4 -18    0.07    0.42
  -1   4 -18    0.07    0.46
  -2  -4 -18    1.98    0.62
  -2  -4 -18    1.69    0.67
  -2   4 -18    1.23    0.59
  -2   4 -18    1.99    0.53
  -3  -4 -18    5.78    0.91
  -3  -4 -18    5.23    0.91
  -3   4 -18    6.18    0.82
  -3   4 -18    4.50    0.86
  -4  -4 -18    6.42    0.95
  -4  -4 -18    5.66    0.93
  -4   4 -18    3.57    0.78
  -4   4 -18    4.19    0.73
  -5  -4 -18    0.47    0.48
  -5  -4 -18    0.17    0.51
  -5   4 -18    0.71    0.46
  -5   4 -18   -0.03    0.39
  -6  -4 -18    0.53    0.38
  -6  -4 -18    0.30    0.57
  -6   4 -18    1.12    0.41
  -7  -4 -18    2.20    0.61
  -9  -5  18    0.60    0.47
  -9   5  18    0.41    0.45
  -9   5  18    0.39    0.36
  -8  -5  18    2.06    0.69
  -8   5  18    2.22    0.61
  -8   5  18    1.80    0.61
  -7  -5  18    3.77    0.87
  -7  -5  18    4.05    0.88
  -7   5  18    6.05    0.90
  -7   5  18    4.64    0.79
  -6  -5  18    2.66    0.71
  -6   5  18    2.48    0.60
  -6   5  18    3.58    0.74
   5  -5 -18    0.42    0.90
  -5  -5  18   -0.56    0.54
  -5   5  18   -0.21    0.34
  -5   5  18   -0.28    0.46
  -5   5  18   -0.29    0.32
  -4  -5  18    3.41    0.84
   4  -5 -18    3.96    1.02
  -4   5  18    4.96    0.93
  -4   5  18    3.50    0.65
  -3  -5  18   10.00    1.36
  -3   5  18   11.43    1.07
  -3   5  18   10.31    1.36
   2  -5 -18    5.88    1.58
   2  -5 -18    3.91    0.74
  -2  -5  18    5.16    0.96
  -2   5  18    6.41    1.03
   2   5 -18    6.37    1.06
  -2   5  18    3.94    0.73
   1  -5 -18    0.93    0.48
   1  -5 -18    0.27    0.50
   1   5 -18   -0.22    0.40
  -1   5  18    0.52    0.45
   0  -5 -18    2.77    0.69
   0  -5 -18    2.37    0.61
   0   5 -18    2.92    0.72
  -1  -5 -18    7.65    1.12
  -1  -5 -18    8.56    1.02
  -1   5 -18    6.39    1.01
  -1   5 -18    6.43    0.87
  -2  -5 -18    5.14    0.98
  -2  -5 -18    5.24    0.89
  -2   5 -18    7.47    0.92
  -2   5 -18    5.90    0.98
  -3  -5 -18    0.04    0.44
  -3  -5 -18    0.22    0.50
  -3   5 -18    0.94    0.48
  -3   5 -18    0.26    0.40
  -4  -5 -18    2.57    0.71
  -4  -5 -18    1.84    0.67
  -4   5 -18    1.39    0.58
  -5  -5 -18    4.26    0.80
  -5  -5 -18    4.79    0.88
  -5   5 -18    5.05    0.76
  -6  -5 -18    1.06    0.63
  -6  -5 -18    2.04    0.54
  -6   5 -18    2.53    0.50
  -8  -6  18    1.01    0.59
  -8   6  18    1.05    0.55
  -8   6  18    0.54    0.45
  -7  -6  18    0.39    0.52
  -7   6  18   -0.05    0.47
  -7   6  18    0.50    0.50
  -6  -6  18    3.59    0.83
  -6  -6  18    3.42    0.85
  -6   6  18    3.63    0.79
  -6   6  18    4.51    0.77
  -5  -6  18    5.49    1.05
  -5  -6  18    4.31    1.02
  -5   6  18    5.85    0.85
  -5   6  18    6.00    0.78
  -5   6  18    7.12    1.08
  -4  -6  18    2.00    0.71
   4  -6 -18    1.96    0.88
  -4   6  18    1.49    0.68
  -4   6  18    3.40    0.60
   3  -6 -18    0.07    0.36
  -3  -6  18    0.43    0.57
  -3   6  18    0.36    0.49
  -3   6  18   -0.34    0.34
  -2  -6  18    3.09    0.80
   2  -6 -18    2.77    0.61
  -2   6  18    2.62    0.72
   2   6 -18    4.09    0.87
  -2   6  18    4.01    0.74
   1  -6 -18   15.72    1.56
   1  -6 -18   13.84    1.30
  -1   6  18   14.35    1.54
   1   6 -18   13.38    1.62
   0  -6 -18    7.61    1.00
   0  -6 -18    7.93    1.16
   0   6 -18    7.59    1.19
  -1  -6 -18    0.22    0.48
  -1  -6 -18    0.75    0.48
  -1   6 -18    0.51    0.48
  -1   6 -18   -0.26    0.33
  -2  -6 -18    2.23    0.75
  -2  -6 -18    3.60    0.72
  -2   6 -18    2.75    0.57
  -2   6 -18    2.12    0.73
  -3  -6 -18    4.51    0.90
  -3  -6 -18    2.94    0.71
  -3   6 -18    3.83    0.77
  -4  -6 -18    3.56    0.80
  -4  -6 -18    3.25    0.71
  -4   6 -18    2.98    0.69
  -5  -6 -18    0.54    0.51
  -5  -6 -18    0.29    0.40
  -5   6 -18    0.94    0.46
  -6  -6 -18   -0.01    0.35
  -6  -6 -18    0.83    0.57
  -8  -7  18    1.72    0.63
  -8   7  18    0.98    0.47
  -8   7  18    1.55    0.48
  -7  -7  18    2.65    0.82
  -7   7  18    2.16    0.62
  -7   7  18    3.11    0.70
  -6  -7  18    1.99    0.71
  -6   7  18    1.58    0.53
  -6   7  18    1.43    0.63
  -5  -7  18    0.33    0.59
  -5  -7  18   -0.03    0.64
  -5   7  18   -0.14    0.41
  -5   7  18    0.22    0.35
  -5   7  18    0.13    0.60
  -4  -7  18    3.73    0.97
  -4  -7  18    4.30    0.97
  -4   7  18    4.14    0.68
  -4   7  18    4.24    0.72
  -4   7  18    4.32    0.89
  -3  -7  18    6.21    1.10
  -3  -7  18    6.97    1.11
  -3   7  18    7.53    1.13
  -3   7  18    7.61    0.98
  -2  -7  18    2.81    0.73
  -2  -7  18    4.56    0.91
   2   7 -18    5.14    0.96
  -2   7  18    2.62    0.82
  -2   7  18    3.44    0.69
   1  -7 -18   -0.55    0.34
   1  -7 -18    0.21    0.52
   1   7 -18   -1.02    0.46
  -1   7  18    0.91    0.64
   0  -7 -18    3.42    0.69
   0  -7 -18    4.47    0.97
   0   7 -18    4.66    0.72
   0   7 -18    3.60    0.85
  -1  -7 -18   10.71    1.14
  -1  -7 -18    8.92    1.25
  -1   7 -18    6.48    1.09
  -2  -7 -18    5.88    0.88
  -2  -7 -18    5.13    1.04
  -2   7 -18    4.38    0.94
  -3  -7 -18    0.55    0.61
  -3  -7 -18    0.95    0.53
  -3   7 -18    0.15    0.54
  -4  -7 -18    0.74    0.55
  -4  -7 -18    1.50    0.67
  -4   7 -18    1.56    0.54
  -5  -7 -18    3.14    0.72
  -5  -7 -18    3.50    0.74
  -5   7 -18    2.22    0.55
  -7  -8  18    0.65    0.63
  -7   8  18    0.51    0.43
  -7   8  18   -0.27    0.42
  -6  -8  18    3.31    0.87
  -6   8  18    4.49    0.80
  -6   8  18    2.76    0.63
  -5  -8  18    5.34    1.03
  -5   8  18    5.17    0.81
  -5   8  18    5.57    1.01
  -5   8  18    3.87    0.64
  -4  -8  18    2.38    0.76
  -4   8  18    1.10    0.49
  -4   8  18    1.52    0.72
  -4   8  18    2.90    0.62
  -3  -8  18    0.16    0.64
  -3   8  18    0.34    0.61
  -3   8  18    0.04    0.41
   2   8 -18    3.52    0.90
  -2   8  18    3.81    0.75
  -2   8  18    2.52    0.81
   1  -8 -18   10.20    1.41
  -1   8  18    8.65    1.31
   1   8 -18   10.80    1.48
   0  -8 -18    6.46    1.11
   0   8 -18    7.58    1.22
  -1  -8 -18    0.09    0.41
  -1  -8 -18   -0.04    0.62
  -1   8 -18   -0.29    0.53
  -2  -8 -18    2.94    0.64
  -2  -8 -18    2.35    0.80
  -2   8 -18    3.05    0.78
  -3  -8 -18    4.60    0.80
  -3  -8 -18    4.62    0.96
  -3   8 -18    3.42    0.75
  -4  -8 -18    4.37    0.78
  -4  -8 -18    2.55    0.69
  -4   8 -18    3.57    0.71
  -5  -8 -18    0.99    0.50
  -5  -8 -18    1.10    0.48
  -5   8 -18    0.50    0.41
  -7   9  18    2.49    0.64
  -7   9  18    1.58    0.53
  -6  -9  18    0.99    0.55
  -6   9  18    0.82    0.62
  -6   9  18    1.03    0.50
  -5  -9  18    0.55    0.58
  -5   9  18    0.21    0.40
  -5   9  18    0.71    0.37
  -5   9  18   -0.15    0.52
  -4  -9  18    3.47    1.00
  -4   9  18    4.78    0.99
  -4   9  18    4.14    0.69
  -4   9  18    3.12    0.68
  -3  -9  18    6.53    1.17
  -3   9  18    8.83    1.26
  -3   9  18    5.89    0.89
  -3   9  18    8.15    1.01
  -2   9  18    3.61    0.96
  -2   9  18    4.56    0.76
   2   9 -18    4.13    0.92
  -1   9  18    1.10    0.64
   1   9 -18    0.01    0.51
   0  -9 -18    3.10    0.86
   0   9 -18    1.83    0.75
  -1  -9 -18    4.55    0.96
  -1   9 -18    4.69    0.98
  -2  -9 -18    3.44    0.87
  -2   9 -18    3.73    0.82
  -3  -9 -18    0.08    0.59
  -3   9 -18    0.83    0.55
  -4  -9 -18    0.56    0.46
  -4   9 -18    0.43    0.44
  -5 -10  18    3.18    0.87
  -5  10  18    2.76    0.71
  -5  10  18    3.79    0.58
  -5  10  18    2.66    0.64
  -4 -10  18    2.71    0.88
  -4  10  18    2.38    0.54
  -4  10  18    3.07    0.66
  -4  10  18    2.32    0.74
  -3 -10  18   -0.48    0.52
  -3  10  18   -0.24    0.42
  -3  10  18    0.38    0.54
  -3  10  18   -0.32    0.41
  -2  10  18    1.84    0.67
   2  10 -18    3.34    0.88
  -2  10  18    1.85    0.62
  -1  10  18    5.42    1.04
   1  10 -18    5.70    1.08
   0 -10 -18    1.76    0.66
   0  10 -18    2.97    0.81
  -1 -10 -18    0.02    0.53
  -1  10 -18   -0.40    0.58
  -2 -10 -18    1.08    0.59
  -2  10 -18    3.12    0.77
  -3 -10 -18    3.37    0.84
  -3  10 -18    4.22    0.80
  -4 -11  18    3.35    0.81
  -4  11  18    2.81    0.55
  -4  11  18    1.57    0.53
  -4  11  18    2.08    0.66
  -3  11  18    5.26    0.81
  -3  11  18    3.46    0.70
  -3  11  18    7.40    1.16
   2  11 -18    3.56    0.94
  -2  11  18    2.58    0.72
  -2  11  18    2.79    0.66
   1  11 -18    0.32    0.61
   0 -11 -18    1.38    0.72
   0  11 -18    2.37    0.75
  -1 -11 -18    2.65    0.78
  -1  11 -18    3.54    0.89
  -2 -11 -18    3.86    0.85
  -2  11 -18    2.61    0.75
  -9   0  19    0.20    0.38
  -8   0  19    1.60    0.57
  -7   0  19    4.21    0.85
  -6   0  19    4.26    0.88
  -5   0  19    1.15    0.57
  -4   0  19    2.04    0.68
  -3   0  19   10.21    1.33
  -2   0  19    7.62    1.08
   2   0 -19    6.10    1.00
  -1   0  19    0.49    0.45
   1   0 -19    0.50    0.53
   0   0 -19    1.57    0.52
   0   0 -19    1.46    0.63
  -1   0 -19   10.82    1.31
  -1   0 -19   11.25    1.28
  -2   0 -19   13.69    1.40
  -2   0 -19   14.54    1.45
  -3   0 -19    3.33    0.77
  -3   0 -19    2.88    0.67
  -4   0 -19   -0.13    0.44
  -4   0 -19   -0.26    0.35
  -5   0 -19    1.43    0.52
  -5   0 -19    1.02    0.49
  -6   0 -19    1.46    0.61
  -6   0 -19    2.40    0.51
  -7   0 -19    1.00    0.44
  -9  -1  19    1.91    0.55
  -9  -1  19    1.94    0.58
  -9   1  19    2.09    0.55
  -8  -1  19    0.81    0.52
  -8   1  19    0.65    0.54
  -7  -1  19   -0.02    0.52
  -7   1  19    0.13    0.51
  -6  -1  19    1.93    0.67
  -6   1  19    2.60    0.71
  -5  -1  19   13.97    1.47
  -5   1  19   13.55    1.46
  -4  -1  19   11.11    1.37
  -4   1  19   10.81    1.37
  -3  -1  19   -0.16    0.40
  -3   1  19    0.14    0.44
  -3   1  19    0.34    0.40
  -2  -1  19    0.37    0.52
   2  -1 -19    1.44    0.52
  -2   1  19    2.41    0.68
   2   1 -19    0.91    0.54
   1  -1 -19    6.76    1.00
  -1  -1  19    5.09    1.20
   1   1 -19    6.27    0.98
  -1   1  19    5.66    1.00
   0  -1 -19   12.35    1.31
   0  -1 -19   11.15    1.25
   0   1 -19   10.25    1.27
  -1  -1 -19    4.87    0.78
  -1  -1 -19    3.13    0.76
  -1   1 -19    5.80    0.85
  -1   1 -19    5.07    0.93
  -2  -1 -19    1.95    0.60
  -2  -1 -19    1.61    0.65
  -2   1 -19    1.29    0.58
  -2   1 -19    1.33    0.60
  -3  -1 -19    8.03    1.10
  -3  -1 -19    8.18    1.06
  -3   1 -19    8.03    1.08
  -3   1 -19    7.39    1.02
  -4  -1 -19    4.65    0.87
  -4  -1 -19    4.32    0.82
  -4   1 -19    3.24    0.70
  -4   1 -19    3.83    0.82
  -5  -1 -19    1.03    0.51
  -5  -1 -19    1.32    0.67
  -5   1 -19    1.01    0.46
  -5   1 -19    0.55    0.38
  -6  -1 -19    0.04    0.34
  -6  -1 -19   -0.03    0.41
  -6   1 -19    0.21    0.41
  -6   1 -19    0.19    0.33
  -9  -2  19    0.62    0.44
  -9  -2  19   -0.09    0.42
  -9   2  19    0.32    0.37
  -9   2  19    0.92    0.58
  -8  -2  19    2.01    0.67
  -8   2  19    1.28    0.53
  -7  -2  19    3.47    0.75
  -7   2  19    4.71    0.86
  -6  -2  19    4.80    0.95
  -6   2  19    3.35    0.79
  -5  -2  19    0.44    0.57
  -5   2  19    0.24    0.52
  -4  -2  19    2.21    0.67
  -4   2  19    3.36    0.81
  -4   2  19    3.39    0.63
  -3  -2  19    8.96    1.23
  -3   2  19    8.50    0.99
  -3   2  19    8.46    1.18
  -2  -2  19    9.52    1.26
   2  -2 -19   15.88    1.40
  -2   2  19   13.19    1.22
  -2   2  19   12.98    1.36
   2   2 -19   10.75    1.38
   1  -2 -19    1.67    0.61
  -1   2  19    2.35    0.66
   1   2 -19    1.38    0.62
   0  -2 -19    2.09    0.59
   0  -2 -19    2.21    0.68
   0   2 -19    1.88    0.66
  -1  -2 -19    7.03    0.94
  -1  -2 -19    6.67    1.01
  -1   2 -19    6.10    0.89
  -1   2 -19    6.98    1.05
  -2  -2 -19    6.17    0.98
  -2  -2 -19    7.86    1.10
  -2   2 -19    6.90    0.93
  -2   2 -19    7.86    1.15
  -3  -2 -19    2.21    0.67
  -3  -2 -19    2.16    0.63
  -3   2 -19    1.12    0.48
  -3   2 -19    1.64    0.65
  -4  -2 -19    0.00    0.54
  -4  -2 -19    0.23    0.44
  -4   2 -19    0.68    0.54
  -4   2 -19    0.85    0.53
  -5  -2 -19    2.24    0.63
  -5  -2 -19    1.94    0.60
  -5   2 -19    1.94    0.58
  -5   2 -19    2.03    0.58
  -6  -2 -19    2.62    0.66
  -6  -2 -19    3.62    0.61
  -6   2 -19    3.86    0.57
  -6   2 -19    2.54    0.63
  -9  -3  19    2.52    0.66
  -9   3  19    2.13    0.52
  -9   3  19    1.68    0.55
  -8  -3  19    2.35    0.64
  -8  -3  19    1.34    0.59
  -8   3  19    2.12    0.56
  -8   3  19    1.29    0.56
  -7  -3  19    0.55    0.60
  -7   3  19    0.44    0.52
  -6  -3  19    1.65    0.69
  -6   3  19    2.48    0.73
  -5  -3  19    7.07    1.07
  -5   3  19    7.33    1.10
  -4  -3  19    6.45    1.07
  -4   3  19    5.13    0.74
  -4   3  19    3.81    0.85
  -3  -3  19    0.89    0.63
  -3   3  19    0.51    0.54
  -3   3  19    0.13    0.37
   2  -3 -19    3.09    0.72
  -2  -3  19    2.17    0.63
  -2   3  19    2.53    0.73
   2   3 -19    2.27    0.69
  -2   3  19    2.21    0.53
   1  -3 -19   10.34    1.14
   1  -3 -19    8.29    1.14
   1   3 -19    7.48    1.14
  -1   3  19    7.64    1.13
   0  -3 -19   12.88    1.47
   0  -3 -19   12.72    1.21
   0   3 -19    9.42    1.31
  -1  -3 -19    2.54    0.68
  -1  -3 -19    2.55    0.77
  -1   3 -19    1.11    0.62
  -1   3 -19    2.21    0.55
  -2  -3 -19    0.13    0.41
  -2  -3 -19    1.39    0.58
  -2   3 -19    0.88    0.53
  -2   3 -19    1.83    0.53
  -3  -3 -19    4.71    0.87
  -3  -3 -19    4.23    0.79
  -3   3 -19    2.81    0.76
  -3   3 -19    4.51    0.76
  -4  -3 -19    2.26    0.75
  -4  -3 -19    4.47    0.84
  -4   3 -19    4.88    0.76
  -4   3 -19    4.95    0.80
  -5  -3 -19    2.16    0.63
  -5  -3 -19    1.58    0.54
  -5   3 -19    1.31    0.51
  -5   3 -19    0.75    0.46
  -6  -3 -19    0.05    0.35
  -6  -3 -19    0.46    0.64
  -6   3 -19    0.09    0.33
  -6   3 -19   -0.22    0.38
  -9  -4  19    0.24    0.47
  -9   4  19    0.11    0.40
  -9   4  19   -0.39    0.31
  -8  -4  19    0.84    0.56
  -8  -4  19    1.04    0.56
  -8   4  19    1.36    0.50
  -8   4  19    0.31    0.44
  -7  -4  19    4.10    0.84
  -7   4  19    4.06    0.81
  -6  -4  19    1.38    0.66
  -6   4  19    1.07    0.55
  -5  -4  19    0.13    0.48
  -5   4  19   -0.55    0.40
  -5   4  19    0.46    0.41
  -4  -4  19    1.32    0.69
  -4   4  19    1.69    0.51
  -4   4  19    1.49    0.68
  -3  -4  19    8.45    1.20
  -3   4  19    8.19    1.16
  -3   4  19    8.03    0.97
  -2  -4  19    8.97    1.22
   2  -4 -19    8.96    1.11
   2  -4 -19   10.96    1.30
  -2   4  19   11.94    1.41
   2   4 -19    9.60    1.28
  -2   4  19   10.43    1.12
   1  -4 -19    0.82    0.58
   1  -4 -19    0.96    0.51
  -1   4  19    1.10    0.62
   1   4 -19    2.08    0.73
   0  -4 -19    2.16    0.61
   0  -4 -19    2.61    0.73
   0   4 -19    3.30    0.81
  -1  -4 -19    8.43    1.04
  -1  -4 -19    5.93    1.07
  -1   4 -19    6.81    0.91
  -1   4 -19    5.28    1.01
  -2  -4 -19    3.22    0.72
  -2  -4 -19    4.02    0.87
  -2   4 -19    3.78    0.78
  -2   4 -19    3.22    0.63
  -3  -4 -19    1.53    0.65
  -3  -4 -19    0.52    0.47
  -3   4 -19    1.25    0.47
  -3   4 -19    2.11    0.68
  -4  -4 -19    0.02    0.41
  -4  -4 -19    0.22    0.49
  -4   4 -19    0.87    0.46
  -4   4 -19   -0.33    0.44
  -5  -4 -19    4.10    0.71
  -5  -4 -19    2.92    0.76
  -5   4 -19    3.70    0.69
  -5   4 -19    3.22    0.64
  -6  -4 -19    2.69    0.56
  -6  -4 -19    3.73    0.77
  -8  -5  19    1.65    0.65
  -8   5  19    1.40    0.53
  -8   5  19    2.10    0.54
  -7  -5  19   -0.20    0.44
  -7  -5  19    0.30    0.48
  -7   5  19    0.43    0.54
  -7   5  19    0.23    0.40
  -6  -5  19    1.01    0.54
  -6   5  19    1.74    0.60
  -5  -5  19    5.35    1.03
  -5   5  19    3.99    0.66
  -5   5  19    5.59    0.97
  -4  -5  19    3.43    0.90
  -4   5  19    4.17    0.90
  -4   5  19    2.23    0.50
  -3  -5  19   -0.26    0.50
   3  -5 -19   -0.07    0.36
  -3   5  19    0.17    0.41
  -3   5  19   -0.23    0.50
  -2  -5  19    1.99    0.79
   2  -5 -19    2.20    0.57
   2   5 -19    1.03    0.61
  -2   5  19    2.33    0.79
  -2   5  19    1.90    0.54
   1  -5 -19   10.01    1.32
   1  -5 -19   10.26    1.17
   1   5 -19   11.66    1.45
  -1   5  19   10.14    1.36
   0  -5 -19    5.72    1.06
   0  -5 -19    7.69    1.02
   0   5 -19   10.54    1.26
  -1  -5 -19    1.05    0.66
  -1  -5 -19    1.82    0.61
  -1   5 -19    1.18    0.64
  -1   5 -19    1.49    0.53
  -2  -5 -19    0.85    0.53
  -2  -5 -19    1.07    0.67
  -2   5 -19    0.87    0.59
  -2   5 -19    1.11    0.48
  -3  -5 -19    4.31    0.85
  -3  -5 -19    5.91    0.86
  -3   5 -19    5.11    0.78
  -3   5 -19    4.39    0.80
  -4  -5 -19    4.77    0.89
  -4  -5 -19    4.46    0.79
  -4   5 -19    4.05    0.74
  -5  -5 -19    1.56    0.56
  -5  -5 -19    1.27    0.53
  -5   5 -19    1.35    0.49
  -6  -5 -19    0.41    0.37
  -6  -5 -19    0.06    0.48
  -8  -6  19    0.71    0.52
  -8   6  19    2.05    0.57
  -8   6  19    1.28    0.46
  -7  -6  19    1.64    0.72
  -7   6  19    1.93    0.59
  -7   6  19    4.56    0.77
  -6  -6  19    2.59    0.78
  -6  -6  19    3.43    0.84
  -6   6  19    3.33    0.78
  -6   6  19    2.79    0.67
  -5  -6  19   -0.14    0.59
  -5  -6  19    0.15    0.56
  -5   6  19    1.16    0.62
  -5   6  19    0.07    0.36
  -4  -6  19    1.75    0.74
  -4   6  19    1.83    0.74
  -4   6  19    2.44    0.58
  -3  -6  19    5.70    0.99
   3  -6 -19    7.23    0.92
  -3   6  19    6.71    1.17
  -3   6  19    8.59    0.97
   2  -6 -19    8.92    0.99
  -2  -6  19    8.36    1.21
   2   6 -19    7.13    1.17
  -2   6  19    7.50    0.99
  -2   6  19    5.68    1.08
   1  -6 -19    0.16    0.41
   1  -6 -19    0.75    0.63
  -1   6  19    0.76    0.53
   1   6 -19    0.99    0.67
   0  -6 -19    0.88    0.65
   0  -6 -19    0.97    0.50
   0   6 -19    3.07    0.62
   0   6 -19    2.06    0.79
  -1  -6 -19    6.76    0.95
  -1  -6 -19    7.08    1.15
  -1   6 -19    5.55    0.80
  -1   6 -19    6.13    1.08
  -2  -6 -19    5.29    1.08
  -2  -6 -19    3.35    0.70
  -2   6 -19    5.68    1.00
  -2   6 -19    7.69    1.22
  -3  -6 -19    0.42    0.55
  -3  -6 -19    1.61    0.60
  -3   6 -19    1.10    0.62
  -4  -6 -19    0.47    0.58
  -4  -6 -19    0.18    0.51
  -4   6 -19    0.11    0.41
  -5  -6 -19    2.54    0.58
  -5  -6 -19    1.47    0.53
  -5   6 -19    2.35    0.55
  -7  -7  19    0.11    0.60
  -7   7  19    0.12    0.42
  -7   7  19    0.39    0.42
  -6  -7  19    1.17    0.64
  -6   7  19    0.83    0.48
  -6   7  19    1.49    0.59
  -5  -7  19    6.11    1.08
  -5  -7  19    6.58    1.14
  -5   7  19    6.35    0.81
  -5   7  19    7.42    1.18
  -4  -7  19    4.87    0.98
  -4  -7  19    3.79    0.85
  -4   7  19    4.14    0.93
  -4   7  19    3.90    0.70
  -3  -7  19    1.28    0.67
  -3  -7  19   -0.01    0.66
  -3   7  19    0.24    0.45
  -3   7  19    0.81    0.66
   2   7 -19    1.58    0.70
  -2   7  19    1.27    0.51
  -2   7  19    3.03    0.75
   1  -7 -19    2.87    0.76
   1  -7 -19    3.16    0.63
  -1   7  19    5.12    1.00
   1   7 -19    3.05    0.88
   0  -7 -19    4.56    0.79
   0  -7 -19    4.57    0.94
   0   7 -19    6.35    1.08
   0   7 -19    7.10    1.03
  -1  -7 -19    1.74    0.55
  -1  -7 -19    3.20    0.84
  -1   7 -19    3.60    0.90
  -2  -7 -19    1.14    0.50
  -2  -7 -19    1.02    0.68
  -2   7 -19    0.35    0.52
  -3  -7 -19    5.36    0.81
  -3  -7 -19    2.61    0.82
  -3   7 -19    4.11    0.81
  -4  -7 -19    3.18    0.72
  -4  -7 -19    2.68    0.69
  -4   7 -19    2.91    0.65
  -5  -7 -19    0.79    0.46
  -5  -7 -19    0.40    0.47
  -5   7 -19    1.04    0.43
  -7  -8  19    2.35    0.65
  -7   8  19    2.42    0.58
  -7   8  19    1.78    0.53
  -6  -8  19    1.89    0.67
  -6   8  19    1.83    0.65
  -6   8  19    1.98    0.56
  -5  -8  19    0.59    0.56
  -5   8  19    1.17    0.48
  -5   8  19    0.06    0.37
  -5   8  19    0.02    0.55
  -4  -8  19    1.75    0.82
  -4   8  19    1.35    0.74
  -4   8  19    1.91    0.50
  -3  -8  19    6.88    1.21
  -3   8  19    4.98    1.03
  -3   8  19    4.90    0.83
  -2   8  19    3.62    0.75
  -2   8  19    5.54    1.08
   2   8 -19    4.37    0.98
   1  -8 -19    1.25    0.63
   1   8 -19    0.85    0.62
  -1   8  19    1.28    0.58
   0  -8 -19   -0.31    0.56
   0   8 -19    0.88    0.69
  -1  -8 -19    4.46    1.08
  -1  -8 -19    3.33    0.82
  -1   8 -19    4.56    0.96
  -2  -8 -19    4.88    0.79
  -2  -8 -19    4.94    0.98
  -2   8 -19    4.07    0.83
  -3  -8 -19    1.25    0.51
  -3  -8 -19    1.12    0.67
  -3   8 -19    1.20    0.61
  -4  -8 -19    0.42    0.52
  -4  -8 -19   -0.09    0.40
  -4   8 -19    0.52    0.44
  -6  -9  19    0.50    0.47
  -6   9  19    0.55    0.41
  -6   9  19    0.80    0.51
  -5  -9  19    1.90    0.87
  -5   9  19    3.38    0.56
  -5   9  19    3.60    0.67
  -5   9  19    5.60    0.95
  -4  -9  19    3.73    0.89
  -4   9  19    4.78    0.94
  -4   9  19    3.18    0.61
  -3  -9  19    0.29    0.62
  -3   9  19    0.17    0.45
  -3   9  19    0.04    0.41
   2   9 -19    0.62    0.51
  -2   9  19   -0.25    0.46
  -2   9  19    1.49    0.53
   1   9 -19    2.74    0.82
   0  -9 -19    2.63    0.80
   0   9 -19    4.69    0.92
  -1  -9 -19    1.81    0.75
  -1   9 -19    1.05    0.66
  -2  -9 -19   -0.11    0.43
  -2   9 -19    1.10    0.58
  -3  -9 -19    2.66    0.77
  -3   9 -19    3.34    0.71
  -4 -10  19    1.08    0.70
  -4  10  19    0.79    0.42
  -4  10  19   -0.07    0.47
  -3  10  19    1.89    0.56
  -3  10  19    2.76    0.78
  -2  10  19    3.52    0.69
   2  10 -19    2.55    0.77
  -2  10  19    2.94    0.73
   1  10 -19    1.13    0.62
   0 -10 -19    0.75    0.58
   0  10 -19    1.12    0.53
  -1 -10 -19    3.07    0.81
  -1  10 -19    3.36    0.86
  -2 -10 -19    1.67    0.69
  -2  10 -19    2.11    0.71
  -2  11  19    0.51    0.53
   2  11 -19    0.69    0.60
  -2  11  19    0.68    0.47
   1  11 -19    2.19    0.70
  -9   0  20    1.66    0.51
  -8   0  20    1.62    0.60
  -7   0  20    0.76    0.59
  -6   0  20    1.30    0.61
  -5   0  20    2.26    0.72
  -4   0  20   10.05    1.31
  -3   0  20    3.60    0.81
   2   0 -20    0.71    0.50
  -2   0  20    0.65    0.62
   1   0 -20    7.55    1.08
   0   0 -20    5.28    0.87
   0   0 -20    4.78    0.92
  -1   0 -20    5.23    0.94
  -1   0 -20    4.73    0.80
  -2   0 -20    0.93    0.61
  -2   0 -20    0.35    0.57
  -3   0 -20    2.31    0.65
  -3   0 -20    1.49    0.63
  -4   0 -20    4.26    0.82
  -4   0 -20    4.66    0.87
  -5   0 -20    0.65    0.55
  -5   0 -20    1.27    0.48
  -6   0 -20    0.19    0.36
  -6   0 -20    0.02    0.48
  -9  -1  20    0.32    0.43
  -9  -1  20    0.16    0.44
  -9   1  20   -0.11    0.36
  -8  -1  20    0.46    0.56
  -8   1  20    0.32    0.42
  -7  -1  20    3.85    0.77
  -7   1  20    3.34    0.81
  -6  -1  20    4.47    0.85
  -6   1  20    2.86    0.73
  -5  -1  20    1.55    0.58
  -5   1  20    0.37    0.47
  -4  -1  20   -0.05    0.52
  -4   1  20   -0.26    0.53
  -3  -1  20    5.06    0.98
  -3   1  20    6.04    1.07
  -2  -1  20    8.16    1.15
   2  -1 -20   10.71    1.33
   2   1 -20    7.80    1.16
  -2   1  20    8.80    1.16
   1  -1 -20    3.73    0.83
   1   1 -20    4.01    0.87
   0  -1 -20    0.80    0.59
   0  -1 -20    0.24    0.47
   0   1 -20    0.48    0.56
   0   1 -20    0.27    0.52
  -1  -1 -20    4.92    0.82
  -1  -1 -20    5.13    0.94
  -1   1 -20    5.30    0.82
  -1   1 -20    3.70    0.86
  -2  -1 -20    6.65    1.03
  -2  -1 -20    7.43    1.01
  -2   1 -20    6.07    0.98
  -2   1 -20    6.49    0.95
  -3  -1 -20    3.10    0.69
  -3  -1 -20    2.51    0.59
  -3   1 -20    2.60    0.66
  -3   1 -20    2.50    0.69
  -4  -1 -20    0.08    0.43
  -4  -1 -20    0.21    0.39
  -4   1 -20    0.50    0.48
  -4   1 -20    0.67    0.43
  -5  -1 -20    1.40    0.53
  -5  -1 -20    1.57    0.53
  -5   1 -20    0.70    0.52
  -5   1 -20    1.34    0.50
  -6  -1 -20    1.62    0.63
  -6  -1 -20    1.51    0.43
  -6   1 -20    2.14    0.45
  -6   1 -20    1.72    0.50
  -8  -2  20    1.57    0.54
  -8   2  20    1.89    0.60
  -7  -2  20    1.02    0.58
  -7   2  20    0.40    0.43
  -6  -2  20    0.33    0.47
  -6   2  20    0.58    0.55
  -5  -2  20    2.88    0.81
  -5   2  20    2.16    0.72
  -4  -2  20    6.36    1.05
  -4   2  20    7.70    1.12
  -3  -2  20    0.66    0.55
  -3   2  20    3.49    0.77
  -3   2  20    3.20    0.63
   2  -2 -20    0.79    0.54
  -2  -2  20    1.68    0.60
  -2   2  20    0.76    0.61
   2   2 -20    1.24    0.58
   1  -2 -20    5.32    0.86
   1  -2 -20    6.77    1.05
   1   2 -20    4.11    0.89
   0  -2 -20    7.16    1.00
   0  -2 -20    7.38    1.04
   0   2 -20    6.92    0.98
   0   2 -20    5.79    1.02
  -1  -2 -20    4.86    0.81
  -1  -2 -20    4.10    0.84
  -1   2 -20    3.33    0.85
  -1   2 -20    3.78    0.76
  -2  -2 -20    0.60    0.53
  -2  -2 -20   -0.09    0.51
  -2   2 -20    0.86    0.60
  -2   2 -20    0.05    0.47
  -3  -2 -20    2.35    0.66
  -3  -2 -20    2.53    0.72
  -3   2 -20    2.81    0.71
  -3   2 -20    2.48    0.66
  -4  -2 -20    6.26    0.97
  -4  -2 -20    5.47    0.97
  -4   2 -20    6.35    0.90
  -4   2 -20    4.99    0.82
  -5  -2 -20    2.15    0.62
  -5  -2 -20    1.64    0.64
  -5   2 -20    1.34    0.52
  -5   2 -20    2.03    0.54
  -6  -2 -20   -0.09    0.53
  -6  -2 -20    0.42    0.37
  -6   2 -20    0.13    0.34
  -6   2 -20    0.43    0.42
  -8  -3  20    0.23    0.50
  -8  -3  20    0.68    0.55
  -8   3  20   -0.07    0.43
  -7  -3  20    2.42    0.77
  -7   3  20    2.26    0.71
  -6  -3  20    6.06    1.06
  -6   3  20    3.70    0.87
  -5  -3  20    1.28    0.62
  -5   3  20    0.97    0.61
  -4  -3  20    0.71    0.53
  -4   3  20    0.76    0.45
  -4   3  20    0.15    0.49
  -3  -3  20    4.34    0.90
  -3   3  20    4.85    0.90
  -3   3  20    3.67    0.67
  -2  -3  20    5.21    0.98
   2  -3 -20    7.41    1.05
   2   3 -20    8.43    1.18
  -2   3  20    8.25    1.16
   1  -3 -20    5.17    0.94
   1  -3 -20    2.91    0.68
   1   3 -20    4.12    0.82
  -1   3  20    4.29    1.53
   0  -3 -20   -0.07    0.46
   0  -3 -20   -0.04    0.37
   0   3 -20   -0.11    0.39
   0   3 -20   -0.24    0.44
  -1  -3 -20    5.07    0.90
  -1  -3 -20    5.09    0.91
  -1   3 -20    5.31    0.93
  -1   3 -20    5.36    0.82
  -2  -3 -20    6.76    1.06
  -2  -3 -20    8.17    1.09
  -2   3 -20    7.58    1.08
  -2   3 -20    8.32    1.05
  -3  -3 -20    3.42    0.72
  -3  -3 -20    2.67    0.74
  -3   3 -20    3.09    0.78
  -3   3 -20    2.86    0.67
  -4  -3 -20   -0.29    0.47
  -4  -3 -20   -0.11    0.51
  -4   3 -20    0.62    0.44
  -4   3 -20   -0.47    0.46
  -5  -3 -20    0.94    0.53
  -5  -3 -20    0.72    0.46
  -5   3 -20    0.47    0.45
  -5   3 -20    0.46    0.41
  -6  -3 -20    1.88    0.53
  -6  -3 -20    2.15    0.59
  -6   3 -20    1.71    0.56
  -8  -4  20    1.70    0.58
  -8  -4  20    1.65    0.59
  -8   4  20    1.76    0.58
  -7  -4  20   -0.19    0.44
  -7  -4  20   -0.13    0.47
  -7   4  20   -0.13    0.40
  -6  -4  20    0.14    0.56
  -6   4  20    0.22    0.44
  -5  -4  20    4.62    0.96
  -5   4  20    5.49    0.91
  -4  -4  20    6.85    1.09
  -4   4  20    7.92    1.13
  -4   4  20    6.49    0.87
  -3  -4  20    2.53    0.69
  -3   4  20    2.73    0.78
  -3   4  20    1.90    0.55
  -2  -4  20    0.57    0.53
   2  -4 -20    0.36    0.46
  -2   4  20    0.36    0.53
  -2   4  20    1.07    0.60
   2   4 -20    0.55    0.54
   1  -4 -20    6.82    1.07
   1  -4 -20    3.56    0.76
   1   4 -20    5.43    0.97
  -1   4  20    2.31    1.27
   0  -4 -20    7.69    1.00
   0  -4 -20    6.31    1.09
   0   4 -20    5.87    1.04
   0   4 -20    7.93    0.99
  -1  -4 -20    4.92    0.81
  -1  -4 -20    3.08    0.81
  -1   4 -20    4.22    0.74
  -1   4 -20    4.22    0.91
  -2  -4 -20   -0.10    0.41
  -2  -4 -20   -0.05    0.43
  -2   4 -20   -0.67    0.42
  -2   4 -20   -0.51    0.38
  -3  -4 -20    2.57    0.64
  -3  -4 -20    1.85    0.66
  -3   4 -20    2.62    0.60
  -3   4 -20    2.29    0.64
  -4  -4 -20    4.22    0.78
  -4  -4 -20    5.22    0.86
  -4   4 -20    5.06    0.77
  -4   4 -20    4.82    0.81
  -5  -4 -20    2.46    0.56
  -5  -4 -20    2.02    0.65
  -5   4 -20    2.65    0.56
  -8  -5  20   -0.10    0.52
  -8   5  20    0.29    0.40
  -7  -5  20    1.52    0.67
  -7  -5  20    3.08    0.82
  -7   5  20    3.25    0.74
  -6  -5  20    3.27    0.80
  -6  -5  20    3.65    0.86
  -6   5  20    3.73    0.83
  -5  -5  20    0.81    0.53
  -5   5  20    1.08    0.59
  -5   5  20    0.99    0.41
  -4  -5  20    0.64    0.51
  -4   5  20    0.38    0.58
  -4   5  20    0.54    0.42
   3  -5 -20    6.50    0.89
  -3  -5  20    5.77    1.05
  -3   5  20    5.26    0.79
  -3   5  20    4.27    0.90
   2  -5 -20    8.28    1.00
  -2  -5  20    8.99    1.69
  -2   5  20    8.52    1.23
   2   5 -20    6.20    1.06
  -2   5  20    8.52    1.02
   1  -5 -20    4.59    0.97
   1  -5 -20    5.88    0.85
   1   5 -20    4.72    0.92
   0  -5 -20    0.94    0.52
   0  -5 -20   -0.18    0.39
   0   5 -20    0.26    0.48
   0   5 -20    0.00    0.59
  -1  -5 -20    4.08    0.75
  -1  -5 -20    3.28    0.81
  -1   5 -20    3.06    0.62
  -1   5 -20    6.06    1.06
  -2  -5 -20    3.83    0.83
  -2  -5 -20    4.25    0.79
  -2   5 -20    4.90    0.94
  -2   5 -20    5.76    0.77
  -3  -5 -20    2.78    0.69
  -3  -5 -20    3.04    0.71
  -3   5 -20    2.23    0.69
  -3   5 -20    2.18    0.54
  -4  -5 -20    0.20    0.43
  -4  -5 -20    0.13    0.49
  -4   5 -20    0.08    0.37
  -5  -5 -20    1.05    0.54
  -5  -5 -20    1.18    0.51
  -5   5 -20    0.99    0.43
  -7  -6  20    0.06    0.58
  -7   6  20    0.85    0.53
  -6  -6  20    0.47    0.55
  -6  -6  20    0.22    0.48
  -6   6  20    0.10    0.48
  -5  -6  20    5.15    0.94
  -5  -6  20    3.63    0.88
  -5   6  20    2.84    0.56
  -5   6  20    3.55    0.82
  -4  -6  20    6.55    1.08
  -4   6  20    5.36    0.75
  -4   6  20    5.83    1.08
   3  -6 -20    3.35    0.65
  -3  -6  20    2.21    0.75
  -3   6  20    4.23    0.92
  -3   6  20    2.57    0.66
   2  -6 -20   -0.17    0.35
   2   6 -20    0.24    0.50
  -2   6  20    0.63    0.51
  -2   6  20    0.37    0.59
   1  -6 -20    3.43    0.68
   1  -6 -20    4.32    0.86
   1   6 -20    3.81    0.86
   0  -6 -20    4.28    0.85
   0  -6 -20    3.06    0.69
   0   6 -20    3.33    0.88
   0   6 -20    3.35    0.67
  -1  -6 -20    3.50    0.85
  -1  -6 -20    1.86    0.55
  -1   6 -20    2.41    0.77
  -1   6 -20    1.50    0.47
  -2  -6 -20   -0.36    0.45
  -2  -6 -20    0.02    0.47
  -2   6 -20    0.35    0.58
  -3  -6 -20    2.15    0.63
  -3  -6 -20    2.62    0.75
  -3   6 -20    2.02    0.63
  -4  -6 -20    2.81    0.70
  -4  -6 -20    3.72    0.74
  -4   6 -20    2.95    0.63
  -7  -7  20    2.95    0.71
  -7   7  20    0.43    0.49
  -6  -7  20    0.90    0.55
  -6   7  20    1.72    0.58
  -5  -7  20   -0.43    0.45
  -5  -7  20    0.35    0.59
  -5   7  20    0.43    0.60
  -5   7  20    0.82    0.38
  -4  -7  20    0.87    0.67
  -4  -7  20    0.37    0.73
  -4   7  20    0.44    0.60
  -4   7  20    0.81    0.40
  -3  -7  20    1.85    0.74
  -3  -7  20    3.11    0.88
  -3   7  20    3.81    0.85
  -3   7  20    3.01    0.64
   2   7 -20    5.29    1.09
  -2   7  20    5.10    0.80
  -2   7  20    5.36    1.01
   1  -7 -20    2.18    0.73
   1  -7 -20    1.79    0.54
   1   7 -20    1.16    0.66
   0  -7 -20    0.56    0.44
   0  -7 -20   -0.06    0.59
   0   7 -20   -0.30    0.50
  -1  -7 -20    2.18    0.59
  -1  -7 -20    3.80    0.81
  -1   7 -20    2.85    0.85
  -2  -7 -20    4.19    0.74
  -2  -7 -20    3.59    0.88
  -2   7 -20    4.82    0.90
  -3  -7 -20    1.60    0.57
  -3  -7 -20    1.35    0.65
  -3   7 -20    0.81    0.58
  -4  -7 -20   -0.37    0.49
  -4  -7 -20    0.08    0.38
  -4   7 -20    0.36    0.40
  -6  -8  20    0.04    0.46
  -6   8  20    0.81    0.50
  -5  -8  20    0.94    0.74
  -5   8  20    0.52    0.38
  -5   8  20    1.41    0.66
  -4  -8  20    3.39    0.86
  -4   8  20    3.05    0.60
  -4   8  20    3.46    0.84
  -3  -8  20    1.63    0.78
  -3   8  20    2.23    0.55
  -3   8  20    2.31    0.83
  -2   8  20    0.27    0.51
   2   8 -20    0.48    0.54
  -2   8  20    1.15    0.66
   1   8 -20    1.95    0.78
   0  -8 -20    2.81    0.83
   0   8 -20    2.03    0.71
  -1  -8 -20    3.62    0.89
  -1   8 -20    1.56    0.73
  -2  -8 -20    0.05    0.41
  -2  -8 -20   -0.31    0.40
  -2   8 -20   -0.19    0.40
  -3  -8 -20    1.80    0.64
  -3  -8 -20    1.08    0.51
  -3   8 -20    0.75    0.47
  -5  -9  20    0.96    0.53
  -5   9  20    0.92    0.41
  -5   9  20    0.86    0.46
  -4  -9  20    0.68    0.57
  -4   9  20   -0.13    0.44
  -4   9  20    0.37    0.39
  -3   9  20    2.71    0.79
  -3   9  20    1.89    0.48
   2   9 -20    1.89    0.67
  -2   9  20    1.35    0.58
  -2   9  20    2.43    0.68
   1   9 -20    0.93    0.53
   0  -9 -20    0.37    0.54
   0   9 -20    0.61    0.46
  -1  -9 -20    1.06    0.60
  -1   9 -20    2.57    0.76
  -2  -9 -20    2.77    0.74
  -2   9 -20    3.04    0.78
  -3  10  20    1.11    0.41
  -3  10  20    1.21    0.59
   2  10 -20    0.15    0.51
  -2  10  20   -0.06    0.42
  -2  10  20    0.17    0.42
   1  10 -20    1.95    0.78
   0 -10 -20    3.03    0.80
   0  10 -20    3.12    0.76
  -8   0  21   -0.34    0.38
  -7   0  21    2.60    0.73
  -6   0  21    2.52    0.72
  -5   0  21    0.27    0.54
  -4   0  21   -0.33    0.47
  -3   0  21    3.30    0.85
  -2   0  21    6.15    1.06
   2   0 -21    5.77    0.98
   1   0 -21    5.45    0.99
   0   0 -21    0.13    0.56
   0   0 -21    1.33    0.57
  -1   0 -21    1.74    0.72
  -1   0 -21    0.97    0.47
  -2   0 -21    5.10    0.86
  -2   0 -21    3.46    0.83
  -3   0 -21    4.41    0.85
  -3   0 -21    4.12    0.84
  -4   0 -21    0.46    0.45
  -4   0 -21    0.46    0.51
  -5   0 -21    0.22    0.40
  -5   0 -21    0.80    0.44
  -8  -1  21    2.52    0.65
  -8   1  21    2.11    0.63
  -7  -1  21    1.42    0.54
  -7   1  21    1.69    0.60
  -6  -1  21   -0.48    0.42
  -6   1  21   -0.01    0.45
  -5  -1  21    1.49    0.61
  -5   1  21    1.52    0.59
  -4  -1  21    3.63    0.86
  -4   1  21    3.51    0.78
  -3  -1  21    6.02    0.95
  -3   1  21    3.03    0.79
  -2  -1  21    0.69    0.48
   2  -1 -21    1.22    0.57
  -2   1  21    0.92    0.52
   2   1 -21    0.29    0.53
   1  -1 -21    3.93    0.87
   1  -1 -21    4.93    0.84
   1   1 -21    3.09    0.82
   0  -1 -21    9.75    1.24
   0  -1 -21    7.41    1.03
   0   1 -21    7.95    1.07
   0   1 -21    6.36    1.10
  -1  -1 -21    3.56    0.83
  -1  -1 -21    3.66    0.78
  -1   1 -21    2.90    0.70
  -1   1 -21    2.65    0.72
  -2  -1 -21    0.13    0.47
  -2  -1 -21    0.13    0.51
  -2   1 -21   -0.02    0.41
  -2   1 -21    0.15    0.48
  -3  -1 -21   -0.03    0.41
  -3  -1 -21    0.00    0.41
  -3   1 -21    0.09    0.47
  -3   1 -21    0.43    0.47
  -4  -1 -21    3.43    0.76
  -4  -1 -21    2.83    0.64
  -4   1 -21    4.15    0.81
  -4   1 -21    3.54    0.70
  -5  -1 -21    2.86    0.62
  -5  -1 -21    2.17    0.63
  -5   1 -21    2.45    0.66
  -5   1 -21    2.37    0.57
  -8  -2  21   -0.10    0.46
  -8   2  21    0.32    0.46
  -7  -2  21    0.91    0.60
  -7   2  21    1.17    0.65
  -6  -2  21    2.73    0.67
  -6   2  21    3.94    0.81
  -5  -2  21    2.21    0.69
  -5   2  21    1.87    0.68
  -4  -2  21   -0.70    0.41
  -4   2  21    0.36    0.58
  -3  -2  21    2.23    0.69
  -3   2  21    2.16    0.73
  -3   2  21    1.74    0.58
   2  -2 -21    9.29    1.24
  -2  -2  21    5.42    0.99
   2   2 -21    7.64    1.12
  -2   2  21    9.26    1.31
   1  -2 -21    5.65    0.88
   1  -2 -21    3.92    0.83
   1   2 -21    4.28    0.88
   0  -2 -21    0.47    0.51
   0  -2 -21    0.94    0.67
   0   2 -21    0.55    0.64
   0   2 -21   -0.03    0.37
  -1  -2 -21    0.49    0.47
  -1  -2 -21    1.17    0.65
  -1   2 -21    0.42    0.61
  -1   2 -21    1.11    0.53
  -2  -2 -21    5.03    0.92
  -2  -2 -21    4.64    0.87
  -2   2 -21    4.34    0.81
  -2   2 -21    5.96    1.01
  -3  -2 -21    3.11    0.72
  -3  -2 -21    2.48    0.74
  -3   2 -21    3.28    0.78
  -3   2 -21    3.99    0.74
  -4  -2 -21    0.19    0.51
  -4  -2 -21   -0.08    0.40
  -4   2 -21    0.88    0.57
  -4   2 -21    0.54    0.42
  -5  -2 -21    0.32    0.53
  -5  -2 -21    0.16    0.39
  -5   2 -21   -0.62    0.35
  -5   2 -21    0.39    0.42
  -8  -3  21    1.29    0.52
  -8  -3  21    1.70    0.54
  -8   3  21    1.72    0.55
  -7  -3  21    0.71    0.55
  -7   3  21    0.51    0.42
  -6  -3  21    0.61    0.63
  -6   3  21    0.19    0.52
  -5  -3  21    1.27    0.68
  -5   3  21    2.58    0.78
  -4  -3  21    4.87    0.99
  -4   3  21    5.16    0.95
  -3  -3  21    4.90    0.92
  -3   3  21    3.76    0.89
  -3   3  21    4.56    0.73
  -2  -3  21    0.40    0.48
   2  -3 -21    1.00    0.78
   2  -3 -21    0.84    0.55
   2   3 -21    0.39    0.61
  -2   3  21    0.23    0.52
   1  -3 -21    2.99    0.72
   1  -3 -21    2.45    0.63
   1   3 -21    3.03    0.84
   0  -3 -21    6.97    1.15
   0  -3 -21    6.97    0.95
   0   3 -21    7.15    1.04
   0   3 -21    8.75    1.25
  -1  -3 -21    3.24    0.78
  -1  -3 -21    2.45    0.77
  -1   3 -21    3.40    0.72
  -1   3 -21    4.72    0.95
  -2  -3 -21    0.74    0.61
  -2  -3 -21    0.44    0.49
  -2   3 -21    0.15    0.55
  -2   3 -21    0.97    0.45
  -3  -3 -21    0.59    0.49
  -3  -3 -21   -0.01    0.50
  -3   3 -21   -0.11    0.49
  -3   3 -21    0.00    0.43
  -4  -3 -21    2.73    0.72
  -4  -3 -21    2.95    0.67
  -4   3 -21    2.63    0.58
  -4   3 -21    2.20    0.62
  -5  -3 -21    1.65    0.57
  -5  -3 -21    3.09    0.72
  -5   3 -21    1.65    0.50
  -5   3 -21    2.72    0.55
  -7  -4  21    2.10    0.62
  -7  -4  21    0.42    0.48
  -7   4  21    0.59    0.54
  -6  -4  21    3.13    0.81
  -6   4  21    3.49    0.78
  -5  -4  21    4.18    0.94
  -5   4  21    3.79    0.83
  -4  -4  21   -0.28    0.57
  -4   4  21   -0.07    0.44
  -4   4  21    0.76    0.43
   3  -4 -21    2.50    0.62
  -3  -4  21    3.02    0.73
  -3   4  21    1.81    0.55
  -3   4  21    1.51    0.68
   2  -4 -21    2.97    0.64
  -2   4  21    3.72    0.82
   2   4 -21    3.04    0.84
   1  -4 -21    3.18    0.69
   1  -4 -21    1.55    0.61
   1   4 -21    4.39    0.93
   0  -4 -21    1.23    0.54
   0  -4 -21    1.10    0.62
   0   4 -21    0.42    0.47
   0   4 -21    0.36    0.50
  -1  -4 -21    1.02    0.59
  -1  -4 -21    0.63    0.46
  -1   4 -21    0.04    0.43
  -1   4 -21    1.33    0.49
  -2  -4 -21    3.54    0.77
  -2  -4 -21    4.36    0.86
  -2   4 -21    4.11    0.83
  -2   4 -21    4.68    0.80
  -3  -4 -21    4.14    0.78
  -3  -4 -21    4.02    0.80
  -3   4 -21    4.07    0.81
  -3   4 -21    3.20    0.62
  -4  -4 -21    0.44    0.44
  -4  -4 -21    1.13    0.57
  -4   4 -21    0.31    0.38
  -4   4 -21    0.61    0.41
  -7  -5  21    0.84    0.62
  -7  -5  21    1.19    0.65
  -7   5  21    0.55    0.50
  -6  -5  21   -0.50    0.41
  -6  -5  21   -0.07    0.44
  -6   5  21    0.39    0.57
  -5  -5  21    0.78    0.62
  -5   5  21    1.55    0.59
   4  -5 -21    5.79    0.82
  -4  -5  21    3.54    0.92
  -4   5  21    3.91    0.83
  -4   5  21    4.28    0.70
  -3  -5  21    3.72    0.89
   3  -5 -21    3.95    0.68
  -3   5  21    2.93    0.82
  -3   5  21    3.81    0.68
   2  -5 -21   -0.45    0.37
   2   5 -21    0.58    0.64
  -2   5  21    1.05    0.63
   1  -5 -21    2.29    0.58
   1  -5 -21    2.11    0.74
   1   5 -21    1.94    0.79
   0  -5 -21    4.95    1.03
   0  -5 -21    4.83    0.74
   0   5 -21    2.88    0.65
   0   5 -21    2.62    0.74
  -1  -5 -21    3.72    0.82
  -1  -5 -21    2.37    0.65
  -1   5 -21    2.40    0.56
  -1   5 -21    3.62    0.83
  -2  -5 -21    0.41    0.47
  -2  -5 -21    1.35    0.58
  -2   5 -21    0.14    0.39
  -2   5 -21   -0.20    0.51
  -3  -5 -21    0.13    0.44
  -3  -5 -21    0.27    0.52
  -3   5 -21    0.18    0.48
  -4  -5 -21    1.94    0.58
  -4  -5 -21    1.03    0.47
  -4   5 -21    2.06    0.52
  -6  -6  21    3.35    0.79
  -6  -6  21    1.92    0.65
  -6   6  21    2.46    0.67
  -5  -6  21    1.12    0.66
  -5  -6  21    0.37    0.65
  -5   6  21    0.94    0.62
  -4  -6  21    0.23    0.49
  -4  -6  21   -0.56    0.47
  -4   6  21    0.03    0.43
  -4   6  21    0.03    0.40
  -3  -6  21    2.40    0.69
  -3   6  21    1.83    0.53
  -3   6  21    2.77    0.81
   2  -6 -21    3.79    0.71
  -2   6  21    3.87    0.92
   2   6 -21    5.70    0.97
  -2   6  21    3.68    0.89
   1  -6 -21    2.96    0.81
   1  -6 -21    2.84    0.63
   1   6 -21    2.65    0.82
   0  -6 -21    0.33    0.40
   0  -6 -21    1.30    0.64
   0   6 -21   -0.29    0.36
   0   6 -21   -0.27    0.40
  -1  -6 -21    0.52    0.54
  -1  -6 -21    1.27    0.48
  -1   6 -21    0.78    0.43
  -1   6 -21    1.25    0.66
  -2  -6 -21    3.82    0.70
  -2  -6 -21    2.76    0.74
  -2   6 -21    4.17    0.87
  -3  -6 -21    4.33    0.77
  -3  -6 -21    2.84    0.77
  -3   6 -21    3.68    0.79
  -6  -7  21    0.52    0.47
  -6   7  21    0.84    0.57
  -5  -7  21    2.14    0.83
  -5   7  21    1.44    0.45
  -5   7  21    0.67    0.57
  -4  -7  21    3.92    0.92
  -4  -7  21    3.22    0.90
  -4   7  21    2.97    0.71
  -4   7  21    2.35    0.56
  -3  -7  21    4.01    0.92
  -3  -7  21    3.32    0.84
  -3   7  21    2.24    0.63
  -3   7  21    2.05    0.75
  -2   7  21    0.50    0.47
   2   7 -21    0.47    0.59
  -2   7  21   -0.01    0.42
   1  -7 -21    1.39    0.65
   1   7 -21    1.43    0.62
   1   7 -21    1.51    0.53
   0  -7 -21    4.86    0.96
   0  -7 -21    3.56    0.65
   0   7 -21    3.98    0.84
  -1  -7 -21    2.41    0.83
  -1  -7 -21    1.62    0.56
  -1   7 -21    3.07    0.84
  -2  -7 -21    0.35    0.50
  -2  -7 -21    0.61    0.43
  -2   7 -21    1.15    0.52
  -3  -7 -21   -0.24    0.34
  -3  -7 -21   -0.43    0.40
  -3   7 -21   -0.11    0.41
  -5  -8  21    0.86    0.52
  -5   8  21    0.90    0.40
  -5   8  21   -0.02    0.46
  -4  -8  21    0.29    0.55
  -4   8  21   -0.20    0.33
  -4   8  21    0.54    0.43
  -3   8  21    1.61    0.61
  -3   8  21    1.33    0.55
  -2   8  21    3.13    0.87
   2   8 -21    3.96    0.90
  -2   8  21    2.82    0.65
   1   8 -21    2.68    0.73
   0  -8 -21    0.79    0.51
   0   8 -21    0.52    0.49
  -1  -8 -21    0.31    0.53
  -1   8 -21    0.94    0.64
  -2  -8 -21    2.72    0.71
  -2   8 -21    2.11    0.69
  -3   9  21    1.24    0.51
  -3   9  21    2.62    0.78
  -2   9  21   -0.09    0.52
   2   9 -21    0.23    0.54
  -2   9  21   -0.31    0.43
   1   9 -21    1.60    0.70
   0  -9 -21    3.20    0.77
   0   9 -21    4.34    0.89
  -7   0  22    0.49    0.42
  -6   0  22    0.29    0.49
  -5   0  22    1.56    0.63
  -4   0  22    3.09    0.75
  -3   0  22    2.57    0.76
  -2   0  22    0.80    0.57
   2   0 -22    2.42    0.67
   1   0 -22    0.52    0.61
   1   0 -22   -0.46    0.42
   0   0 -22    3.52    0.83
   0   0 -22    6.05    1.00
  -1   0 -22    4.96    0.97
  -1   0 -22    5.25    0.86
  -2   0 -22    0.45    0.38
  -2   0 -22    1.29    0.65
  -3   0 -22   -0.16    0.35
  -3   0 -22    0.12    0.46
  -4   0 -22    1.15    0.54
  -4   0 -22    1.14    0.47
  -7  -1  22    0.64    0.51
  -7   1  22    1.37    0.59
  -6  -1  22    2.55    0.73
  -6   1  22    3.54    0.78
  -5  -1  22    1.93    0.72
  -5   1  22    4.40    0.89
  -4  -1  22    0.52    0.58
  -4   1  22    0.70    0.58
  -3  -1  22    1.25    0.56
  -3   1  22    0.88    0.54
   2  -1 -22    5.83    1.05
  -2  -1  22    4.03    0.95
   2   1 -22    4.87    0.96
  -2   1  22    7.88    1.13
   1  -1 -22    5.33    0.98
   1  -1 -22    5.53    0.88
   1   1 -22    7.22    0.98
   1   1 -22    5.65    1.00
   0  -1 -22    0.81    0.57
   0  -1 -22    1.30    0.72
   0   1 -22    2.63    0.69
   0   1 -22    1.64    0.71
  -1  -1 -22   -0.21    0.51
  -1  -1 -22   -0.12    0.43
  -1   1 -22   -0.11    0.54
  -1   1 -22    0.69    0.59
  -2  -1 -22    1.16    0.61
  -2  -1 -22    1.64    0.63
  -2   1 -22    1.54    0.63
  -2   1 -22    0.97    0.58
  -3  -1 -22    4.07    0.83
  -3  -1 -22    3.32    0.77
  -3   1 -22    3.19    0.69
  -3   1 -22    2.16    0.70
  -4  -1 -22    2.10    0.65
  -4  -1 -22    1.35    0.54
  -4   1 -22    1.27    0.53
  -4   1 -22    1.72    0.58
  -7  -2  22    2.01    0.66
  -7   2  22    2.06    0.60
  -6  -2  22    0.16    0.42
  -6   2  22    0.11    0.45
  -5  -2  22    0.44    0.48
  -5   2  22    0.90    0.54
  -4  -2  22    4.42    0.93
  -4   2  22    3.21    0.76
  -3  -2  22    2.90    0.72
  -3   2  22    2.88    0.84
   2  -2 -22    1.82    0.62
   2  -2 -22    2.17    0.88
  -2   2  22    1.74    0.70
   2   2 -22    1.39    0.66
   1  -2 -22   -0.16    0.48
   1  -2 -22   -0.40    0.45
   1   2 -22   -0.40    0.58
   1   2 -22    0.22    0.55
   0  -2 -22    4.19    0.89
   0  -2 -22    5.05    0.84
   0   2 -22    3.49    0.84
   0   2 -22    3.64    0.74
  -1  -2 -22    5.44    0.97
  -1  -2 -22    4.35    0.78
  -1   2 -22    5.02    0.83
  -1   2 -22    4.60    0.93
  -2  -2 -22    1.47    0.62
  -2  -2 -22    0.46    0.51
  -2   2 -22    1.73    0.69
  -2   2 -22    0.03    0.47
  -3  -2 -22   -0.24    0.48
  -3  -2 -22    0.14    0.49
  -3   2 -22    0.38    0.37
  -3   2 -22    0.36    0.56
  -4  -2 -22    1.87    0.61
  -4  -2 -22    1.03    0.50
  -4   2 -22    0.60    0.39
  -4   2 -22    1.39    0.54
  -7  -3  22    0.29    0.39
  -7   3  22    0.72    0.56
  -6  -3  22    2.74    0.75
  -6   3  22    3.10    0.71
  -5  -3  22    3.69    0.82
  -5   3  22    1.36    0.69
  -4  -3  22    0.54    0.45
  -4   3  22    0.45    0.55
   3  -3 -22   -0.05    0.39
  -3  -3  22    0.36    0.50
  -3   3  22    0.75    0.55
  -3   3  22    0.32    0.41
   2  -3 -22    2.57    0.60
   2   3 -22    2.59    0.79
  -2   3  22    1.71    0.69
   1  -3 -22    3.42    0.69
   1  -3 -22    2.79    0.78
   1   3 -22    2.87    0.68
   1   3 -22    3.01    0.83
   0  -3 -22    0.79    0.51
   0  -3 -22    0.80    0.53
   0   3 -22    0.41    0.40
   0   3 -22    1.12    0.67
  -1  -3 -22    0.84    0.56
  -1  -3 -22    0.11    0.55
  -1   3 -22    0.60    0.42
  -1   3 -22    0.18    0.60
  -2  -3 -22    2.09    0.77
  -2  -3 -22    3.48    0.66
  -2   3 -22    1.42    0.65
  -2   3 -22    2.50    0.66
  -3  -3 -22    3.19    0.73
  -3  -3 -22    2.67    0.67
  -3   3 -22    4.21    0.77
  -3   3 -22    3.07    0.63
  -4  -3 -22    1.13    0.54
  -4  -3 -22    1.51    0.49
  -4   3 -22    1.00    0.49
  -4   3 -22    0.90    0.43
  -6  -4  22    0.28    0.57
  -6   4  22    0.41    0.46
  -5  -4  22    0.67    0.60
  -5   4  22    0.90    0.56
  -4  -4  22    3.40    0.80
  -4   4  22    1.96    0.78
   3  -4 -22    1.83    0.59
  -3  -4  22    1.93    0.64
  -3   4  22    1.35    0.50
  -3   4  22    3.12    0.79
   2  -4 -22    1.04    0.51
   2   4 -22   -0.27    0.59
  -2   4  22    0.38    0.58
   1  -4 -22    0.14    0.40
   1  -4 -22   -0.57    0.38
   1   4 -22    0.05    0.39
   1   4 -22   -0.11    0.47
   0  -4 -22    3.50    0.81
   0  -4 -22    3.39    0.69
   0   4 -22    2.82    0.87
   0   4 -22    3.35    0.69
  -1  -4 -22    4.30    0.78
  -1  -4 -22    4.17    0.91
  -1   4 -22    3.95    0.74
  -1   4 -22    5.56    0.97
  -2  -4 -22    1.04    0.55
  -2  -4 -22    1.56    0.63
  -2   4 -22    0.61    0.40
  -2   4 -22    0.54    0.54
  -3  -4 -22   -0.25    0.33
  -3  -4 -22    0.04    0.48
  -3   4 -22    0.80    0.52
  -3   4 -22    0.56    0.41
  -6  -5  22    1.71    0.66
  -6  -5  22    1.77    0.65
  -6   5  22    0.96    0.57
  -5  -5  22    1.83    0.64
  -5   5  22    2.74    0.69
  -4  -5  22    0.21    0.54
   4  -5 -22    0.47    0.45
  -4   5  22    0.27    0.41
  -4   5  22    0.46    0.57
   3  -5 -22    0.78    0.45
  -3  -5  22    1.23    0.64
  -3   5  22    0.79    0.55
  -3   5  22    1.54    0.59
   2  -5 -22    3.03    0.61
  -2   5  22    0.60    0.63
   2   5 -22    1.82    0.74
   1  -5 -22    2.40    0.78
   1  -5 -22    4.02    0.73
   1   5 -22    3.88    0.84
   1   5 -22    2.94    0.70
   0  -5 -22    0.42    0.47
   0  -5 -22    0.31    0.54
   0   5 -22    0.78    0.45
   0   5 -22    0.47    0.66
  -1  -5 -22    0.32    0.46
  -1  -5 -22    0.14    0.60
  -1   5 -22   -0.05    0.39
  -1   5 -22   -0.05    0.46
  -2  -5 -22    1.94    0.55
  -2  -5 -22    1.78    0.64
  -2   5 -22    0.96    0.47
  -2   5 -22    2.56    0.75
  -3  -5 -22    1.28    0.52
  -3  -5 -22    3.05    0.76
  -3   5 -22    2.44    0.68
  -5  -6  22    0.77    0.54
  -5  -6  22   -0.27    0.49
  -5   6  22    0.49    0.54
  -4  -6  22    2.00    0.69
  -4  -6  22    1.36    0.74
  -4   6  22    2.83    0.78
  -4   6  22    2.10    0.57
  -3  -6  22    2.11    0.73
  -3  -6  22    2.22    0.79
  -3   6  22    1.50    0.54
  -3   6  22    2.53    0.72
   2  -6 -22    0.75    0.44
   2   6 -22    1.14    0.63
  -2   6  22    0.92    0.60
   1  -6 -22    0.13    0.39
   1  -6 -22    0.44    0.56
   1   6 -22    0.51    0.42
   1   6 -22    0.19    0.55
   0  -6 -22    2.12    0.58
   0  -6 -22    4.61    0.97
   0   6 -22    5.30    1.01
   0   6 -22    3.22    0.63
  -1  -6 -22    4.87    0.76
  -1  -6 -22    4.41    0.94
  -1   6 -22    2.93    0.83
  -2  -6 -22    1.15    0.46
  -2  -6 -22    1.21    0.54
  -2   6 -22    1.08    0.53
  -4  -7  22    0.29    0.61
  -4  -7  22    0.29    0.56
  -4   7  22    0.59    0.42
  -4   7  22    0.19    0.55
  -3   7  22    0.48    0.40
  -3   7  22    0.42    0.58
  -2   7  22    2.98    0.78
   2   7 -22    3.15    0.84
   1   7 -22    3.63    0.89
   0  -7 -22    1.01    0.58
   0  -7 -22    0.34    0.40
   0   7 -22    1.24    0.64
  -1  -7 -22    0.15    0.37
  -1  -7 -22   -0.52    0.43
  -1   7 -22    0.18    0.59
  -3   8  22    2.04    0.52
  -3   8  22    1.46    0.59
  -2   8  22    1.75    0.57
   2   8 -22    0.49    0.56
  -2   8  22    0.51    0.41
   1   8 -22    0.41    0.57
   0  -8 -22    1.87    0.69
   0   8 -22    2.86    0.80
  -6   0  23    1.00    0.56
  -5   0  23    3.79    0.81
  -4   0  23    2.16    0.75
  -3   0  23    0.25    0.55
   2   0 -23    1.09    0.61
   2   0 -23    1.46    0.67
   1   0 -23    3.64    0.75
   1   0 -23    3.91    0.86
   0   0 -23    2.33    0.81
   0   0 -23    2.39    0.71
  -1   0 -23    0.31    0.55
  -1   0 -23    0.02    0.43
  -2   0 -23    1.76    0.60
  -2   0 -23    1.66    0.71
  -3   0 -23    1.02    0.57
  -3   0 -23    2.12    0.63
  -6  -1  23    1.20    0.57
  -6   1  23    0.36    0.46
  -5  -1  23   -0.06    0.48
  -5   1  23    0.00    0.54
  -4  -1  23    1.11    0.56
  -4   1  23    2.70    0.73
  -3  -1  23    2.75    0.69
  -3   1  23    4.14    0.86
   2  -1 -23    2.09    0.66
   2  -1 -23    1.88    1.03
   2   1 -23    3.01    0.80
   1  -1 -23    0.30    0.49
   1  -1 -23    0.72    0.51
   1   1 -23    0.56    0.59
   1   1 -23    0.49    0.53
   0  -1 -23    0.77    0.58
   0  -1 -23    0.22    0.50
   0   1 -23    0.94    0.59
   0   1 -23    0.57    0.45
  -1  -1 -23    3.19    0.84
  -1  -1 -23    3.67    0.78
  -1   1 -23    3.80    0.92
  -1   1 -23    3.75    0.73
  -2  -1 -23    1.94    0.65
  -2  -1 -23    1.80    0.61
  -2   1 -23    2.35    0.54
  -2   1 -23    2.47    0.70
  -3  -1 -23    0.36    0.50
  -3  -1 -23    0.47    0.49
  -3   1 -23    0.30    0.54
  -3   1 -23   -0.02    0.46
  -6  -2  23    1.20    0.48
  -6   2  23    1.46    0.61
  -5  -2  23    1.35    0.63
  -5   2  23    1.41    0.54
  -4  -2  23    1.48    0.58
  -4   2  23    1.02    0.61
   3  -2 -23   -0.71    0.43
  -3  -2  23   -0.03    0.40
  -3   2  23   -0.10    0.52
   2  -2 -23    2.61    0.67
   2   2 -23    1.19    0.61
   1  -2 -23    3.45    0.88
   1  -2 -23    2.31    0.65
   1   2 -23    4.77    0.82
   1   2 -23    2.53    0.78
   0  -2 -23    2.25    0.62
   0   2 -23    3.34    0.72
   0   2 -23    1.93    0.78
  -1  -2 -23    0.38    0.43
  -1  -2 -23    0.00    0.49
  -1   2 -23    0.16    0.49
  -1   2 -23   -0.05    0.40
  -2  -2 -23    0.57    0.51
  -2  -2 -23    1.30    0.55
  -2   2 -23    0.19    0.57
  -2   2 -23    1.14    0.47
  -3  -2 -23    1.83    0.61
  -3  -2 -23    2.23    0.59
  -3   2 -23    1.45    0.46
  -3   2 -23    1.74    0.57
  -6  -3  23    0.04    0.49
  -6   3  23    0.18    0.44
  -5  -3  23   -0.34    0.46
  -5   3  23   -0.56    0.39
  -4  -3  23    1.92    0.62
  -4   3  23    2.10    0.70
   3  -3 -23    2.75    0.70
  -3  -3  23    3.31    0.80
  -3   3  23    3.78    0.84
   2  -3 -23    1.04    0.58
   2   3 -23    2.14    0.71
   1  -3 -23    0.38    0.50
   1  -3 -23   -0.17    0.49
   1   3 -23   -0.07    0.50
   1   3 -23   -0.18    0.46
   0  -3 -23    1.49    0.61
   0  -3 -23    1.48    0.70
   0   3 -23    1.75    0.61
   0   3 -23    1.44    0.59
  -1  -3 -23    2.66    0.67
  -1  -3 -23    3.15    0.72
  -1   3 -23    3.27    0.84
  -1   3 -23    3.72    0.67
  -2  -3 -23    3.09    0.65
  -2  -3 -23    2.41    0.76
  -2   3 -23    3.97    0.79
  -2   3 -23    2.52    0.61
  -3  -3 -23    0.06    0.48
  -3  -3 -23   -0.16    0.42
  -3   3 -23    0.47    0.38
  -3   3 -23   -0.14    0.38
  -5  -4  23    2.30    0.66
   5  -4 -23    2.09    0.52
  -5   4  23    1.35    0.69
   4  -4 -23    1.21    0.51
  -4  -4  23    1.16    0.54
  -4   4  23    0.79    0.54
   3  -4 -23   -0.50    0.38
  -3  -4  23   -0.10    0.53
  -3   4  23   -0.34    0.35
  -3   4  23    0.32    0.45
   2  -4 -23    2.72    0.62
   2   4 -23    2.49    0.84
   1  -4 -23    3.20    0.79
   1  -4 -23    2.87    0.69
   1   4 -23    4.10    0.93
   1   4 -23    3.54    0.73
   0  -4 -23    2.17    0.77
   0  -4 -23    1.94    0.58
   0   4 -23    1.94    0.64
   0   4 -23    2.91    0.63
  -1  -4 -23    0.02    0.42
  -1  -4 -23    0.37    0.42
  -1   4 -23    1.53    0.69
  -1   4 -23   -0.30    0.39
  -2  -4 -23    0.87    0.41
  -2  -4 -23    1.42    0.62
  -2   4 -23    0.45    0.40
  -2   4 -23    1.59    0.68
  -5  -5  23    0.14    0.45
  -5  -5  23    0.04    0.53
  -5   5  23    0.67    0.48
  -4  -5  23    1.26    0.57
   4  -5 -23    1.72    0.55
  -4   5  23    2.32    0.67
   3  -5 -23    3.67    0.67
  -3   5  23    4.15    0.67
  -3   5  23    4.67    0.87
   2  -5 -23    1.18    0.51
   2   5 -23    1.38    0.66
   1  -5 -23   -0.48    0.36
   1  -5 -23    0.10    0.49
   1   5 -23   -0.07    0.40
   1   5 -23   -0.46    0.49
   0  -5 -23    0.28    0.42
   0  -5 -23    0.28    0.52
   0   5 -23    1.12    0.61
   0   5 -23    0.36    0.45
  -1  -5 -23    3.33    0.66
  -1  -5 -23    4.38    0.82
  -1   5 -23    2.20    0.56
  -1   5 -23    2.49    0.67
  -2  -5 -23    1.70    0.53
  -2  -5 -23    1.63    0.56
  -2   5 -23    2.56    0.62
  -2   5 -23    1.89    0.61
  -4  -6  23    0.73    0.48
  -4  -6  23    1.16    0.59
  -4   6  23    1.14    0.53
  -3   6  23    0.58    0.41
  -3   6  23   -0.01    0.46
   2  -6 -23    1.02    0.46
   2   6 -23    0.54    0.58
   1  -6 -23    4.09    0.67
   1  -6 -23    4.95    0.97
   1   6 -23    2.25    0.69
   1   6 -23    2.27    0.56
   0  -6 -23    2.14    0.66
   0  -6 -23    1.03    0.45
   0   6 -23    2.16    0.74
   0   6 -23    1.60    0.50
  -1  -6 -23    0.25    0.44
  -1  -6 -23    0.83    0.42
  -1   6 -23    0.56    0.55
  -5   0  24    0.20    0.55
  -4   0  24    0.58    0.55
  -3   0  24    2.17    0.66
   2   0 -24    1.48    0.64
   1   0 -24   -0.17    0.44
   1   0 -24   -0.36    0.46
   0   0 -24   -0.09    0.44
   0   0 -24    1.08    0.59
  -1   0 -24    2.02    0.63
  -1   0 -24    2.43    0.73
  -2   0 -24    2.20    0.57
  -2   0 -24    1.46    0.66
  -5  -1  24    2.09    0.61
  -5   1  24    1.76    0.57
  -4  -1  24    1.24    0.53
  -4   1  24    1.94    0.67
  -3  -1  24    0.41    0.53
   3  -1 -24   -0.53    0.40
  -3   1  24    0.39    0.45
   2  -1 -24    0.16    0.42
   2   1 -24    0.50    0.78
   2   1 -24   -0.12    0.52
   1  -1 -24    2.80    0.77
   1  -1 -24    1.87    0.58
   1   1 -24    0.90    0.72
   1   1 -24    1.19    0.68
   0  -1 -24    2.00    0.63
   0  -1 -24    3.07    0.84
   0   1 -24    2.76    0.72
   0   1 -24    0.49    0.66
  -1  -1 -24    0.34    0.48
  -1  -1 -24    0.01    0.47
  -1   1 -24    0.98    0.61
  -1   1 -24    0.24    0.49
  -2  -1 -24    0.61    0.49
  -2  -1 -24    0.63    0.37
  -2   1 -24    0.56    0.47
  -2   1 -24    0.26    0.41
  -5  -2  24   -0.09    0.57
  -5   2  24    0.32    0.56
  -4  -2  24    1.45    0.54
  -4   2  24    0.48    0.55
   3  -2 -24    4.19    0.76
  -3  -2  24    1.89    0.69
  -3   2  24    2.21    0.67
   2  -2 -24    3.79    0.76
   2   2 -24    2.63    0.76
   2   2 -24    3.17    0.78
   1  -2 -24   -0.20    0.53
   1  -2 -24    0.32    0.44
   1   2 -24   -0.02    0.41
   1   2 -24   -0.18    0.48
   0  -2 -24    1.16    0.51
   0  -2 -24    0.20    0.54
   0   2 -24    0.24    0.48
   0   2 -24    0.69    0.43
  -1  -2 -24    1.43    0.69
  -1  -2 -24    1.68    0.57
  -1   2 -24    2.46    0.72
  -2  -2 -24    1.82    0.66
  -2   2 -24    2.32    0.68
   4  -3 -24    2.01    0.54
  -4  -3  24    2.04    0.60
  -4   3  24    1.04    0.51
   3  -3 -24   -0.38    0.39
  -3   3  24    0.47    0.58
   2  -3 -24    1.07    0.47
   2   3 -24    0.39    0.51
   2   3 -24    0.63    0.46
   1  -3 -24    2.53    0.59
   1  -3 -24    3.02    0.74
   1   3 -24    2.30    0.62
   1   3 -24    3.59    0.84
   0  -3 -24    2.15    0.71
   0  -3 -24    2.79    0.59
   0   3 -24    3.33    0.86
   0   3 -24    2.87    0.64
  -1  -3 -24    0.43    0.39
  -1  -3 -24    0.56    0.57
  -1   3 -24    0.31    0.51
  -1   3 -24    0.46    0.39
   4  -4 -24   -0.35    0.35
  -4  -4  24   -0.11    0.43
  -4   4  24    0.34    0.50
   3  -4 -24    2.59    0.58
  -3   4  24    2.07    0.64
   2  -4 -24    2.16    0.58
   2   4 -24    3.60    0.78
   2   4 -24    3.36    0.79
   1  -4 -24    0.27    0.52
   1  -4 -24    0.48    0.46
   1   4 -24    0.61    0.59
   1   4 -24    0.08    0.41
   0  -4 -24    0.56    0.60
   0  -4 -24    0.14    0.41
   0   4 -24    0.55    0.42
   0   4 -24   -0.06    0.53
  -3   5  24    0.16    0.51
   2  -5 -24    0.20    0.41
   2   5 -24    0.53    0.47
   2   5 -24    0.51    0.53
   1  -5 -24    2.72    0.74
   1  -5 -24    1.71    0.50
   1   5 -24    2.35    0.57
   1   5 -24    2.65    0.77
  -3   0  25    0.39    0.64
   3   0 -25    1.18    0.57
   2   0 -25    0.69    0.52
   1   0 -25    1.65    0.63
   1   0 -25    1.40    0.57
   0   0 -25    2.20    0.54
   0   0 -25    2.03    0.75
   3  -1 -25    1.58    0.54
   3   1 -25    1.00    0.60
  -3   1  25    1.72    0.59
   2  -1 -25    2.10    0.58
   2   1 -25    1.84    0.49
   1  -1 -25    0.10    0.51
   1  -1 -25    0.06    0.43
   1   1 -25    1.44    0.65
   1   1 -25    1.00    0.42
   0  -1 -25   -0.06    0.52
   0   1 -25   -0.08    0.42
   2  -2 -25   -0.14    0.40
   2   2 -25    0.04    0.39
   1  -2 -25    1.38    0.63
   1  -2 -25    0.66    0.46
   1   2 -25    0.46    0.47
   1   2 -25    1.12    0.48
   0   0   0    0.00    0.00
_diffrn_radiation_probe                 x-ray
_diffrn_radiation_wavelength            0.71073
_diffrn_standards_number                0
_diffrn_standards_interval_time         .
_diffrn_standards_interval_count        .
_diffrn_standards_decay_%               ?
_diffrn_reflns_limit_h_min              -12
_diffrn_reflns_limit_h_max              10
_diffrn_reflns_limit_k_min              -16
_diffrn_reflns_limit_k_max              16
_diffrn_reflns_limit_l_min              -25
_diffrn_reflns_limit_l_max              25
_diffrn_reflns_theta_min                1.754
_diffrn_reflns_theta_max                50.111
_diffrn_reflns_av_unetI/netI            0.116603
_diffrn_reflns_number                   23183
_diffrn_reflns_number_extinctions       0
_diffrn_reflns_number_accepted          23183
_diffrn_reflns_number_rejected          0
_diffrn_ambient_temperature             296(2)
_computing_data_collection              ?
_computing_cell_refinement              ?
_computing_data_reduction               ?
_exptl_crystal_description              ?
_exptl_crystal_colour                   ?
_exptl_crystal_size_max                 0
_exptl_crystal_size_mid                 0
_exptl_crystal_size_min                 0
_exptl_crystal_density_method           'not measured'
_exptl_crystal_F000                     362
_cell_length_a                          5.90970(10)
_cell_length_b                          7.7974(2)
_cell_length_c                          11.7206(3)
_cell_angle_alpha                       90
_cell_angle_beta                        97.8160(10)
_cell_angle_gamma                       90
_cell_volume                            535.07(2)
_cell_measurement_temperature           296(2)
_cell_measurement_wavelength            0.71073
_cell_measurement_reflns_used           0
_cell_measurement_theta_max             0
_cell_measurement_theta_min             0
_exptl_absorpt_coefficient_mu           4.238
_exptl_absorpt_correction_type          ?
loop_
    _atom_type_symbol
    _atom_type_number_in_cell
C 20
H 30
O 12
Ce 2
_cell_formula_units_Z                   2
_chemical_formula_moiety               'C10  H15  O6  Ce1'
_chemical_formula_sum                  'C10  H15  O6  Ce1'
_chemical_compound_source               ?
_space_group_crystal_system             monoclinic
_space_group_name_H-M_alt               P21
_space_group_name_Hall                 'P 2yb'
_space_group_IT_number                  4
_computing_structure_solution           ?
_computing_structure_refinement        'SHELXL (Sheldrick, 2008)'
_computing_molecular_graphics          'Ortep for Windows (Farrugia, 2012)'
_computing_publication_material  'WinGX publication routines (Farrugia, 2012)'
_atom_sites_solution_primary            ?
_atom_sites_solution_secondary          ?
_refine_ls_number_constraints           0
_refine_ls_number_restraints            0
;
_shelx_hkl_checksum              34133
_shelx_res_file
;
    shelx.res created by SHELXL-2014/7
TITL SIR92 run in space group P 21
CELL  0.71073   5.9097   7.7974  11.7206   90.000   97.816   90.000
ZERR     2.00   0.0001   0.0002   0.0003    0.000    0.001    0.000
LATT  -1
SYMM  - X, 1/2 + Y, - Z
SFAC  C    H    O    CL   ND   CE
UNIT  8 20 18 2 0 2
MERG   2
OMIT     0   0  -1
OMIT     1   0   2
OMIT     0   0  -2
OMIT     1   1  -1
OMIT    -1   1   1
OMIT     0   0   2
DFIX 0.85 0.01 O1w  H1wa
DFIX 0.85 0.01 O1w  H1Wb
DFIX 1.37 0.01 H1wa H1wb
DFIX 0.85 0.01 O2w  H2Wa
DFIX 0.85 0.01 O2w  H2Wb
DFIX 1.37 0.01 H2wa H2wb
DFIX 0.85 0.01 O3w  H3Wa
DFIX 0.85 0.01 O3w  H3Wb
DFIX 1.37 0.01 H3wa H3wb
SHEL 8 0.77
DFIX     0.840   0.020 O5 H5
FMAP   2
PLAN   25
ACTA    50.00
BOND   $H
CONF
LIST   4
L.S.   8
TEMP    23.00
WGHT    0.004000    0.091000
FVAR       0.20933
C1    1    1.391098    1.127645    1.820276    11.00000    0.01676    0.02066 =
         0.02813   -0.00167    0.00972   -0.00693
C2    1    1.248249    0.962159    1.812646    11.00000    0.01472    0.01452 =
         0.02313   -0.00177    0.00560   -0.00198
AFIX  13
H2    2    1.288945    0.890887    1.749635    11.00000   -1.20000
AFIX   0
C3    1    1.290291    0.859611    1.926661    11.00000    0.01627    0.01354 =
         0.02095    0.00045    0.00216   -0.00034
AFIX  13
H3    2    1.438922    0.802680    1.930196    11.00000   -1.20000
AFIX   0
C4    1    1.106572    0.720281    1.924342    11.00000    0.02365    0.01352 =
         0.02413   -0.00041    0.00223   -0.00165
O1    3    1.602131    1.111034    1.843588    11.00000    0.01521    0.03023 =
         0.05616    0.00206    0.00604   -0.00472
O2    3    1.287919    1.266331    1.803139    11.00000    0.02091    0.01835 =
         0.05241    0.00350    0.00744   -0.00273
O1W   3    2.028726    1.481919    1.626485    11.00000    0.06983    0.03629 =
         0.03228    0.00689    0.02449    0.01088
AFIX   2
H1WA  2    1.980515    1.579394    1.602147    11.00000   -1.20000
H1WB  2    2.073247    1.428293    1.570452    11.00000   -1.20000
AFIX   0
O3    3    1.089947    0.611970    1.846374    11.00000    0.04490    0.02184 =
         0.03105   -0.00906    0.01129   -0.01543
O2W   3    1.565719    1.537073    1.731646    11.00000    0.02463    0.03822 =
         0.05606    0.02249    0.00989    0.00408
AFIX   2
H2WA  2    1.558868    1.616575    1.681832    11.00000   -1.20000
H2WB  2    1.430881    1.507025    1.738704    11.00000   -1.20000
AFIX   0
O4    3    0.980221    0.727550    2.003098    11.00000    0.02432    0.02520 =
         0.02193   -0.00039    0.00524   -0.00699
O3W   3    1.695662    1.209072    1.609334    11.00000    0.08052    0.03013 =
         0.03893   -0.00433   -0.03051    0.00632
AFIX   2
H3WA  2    1.634431    1.114899    1.622225    11.00000   -1.20000
H3WB  2    1.599512    1.270938    1.568477    11.00000   -1.20000
AFIX   0
O5    3    1.015136    1.013997    1.787014    11.00000    0.01477    0.01506 =
         0.03347   -0.00117   -0.00208   -0.00207
O6    3    1.294023    0.961812    2.025974    11.00000    0.02285    0.01379 =
         0.02240   -0.00152    0.00203   -0.00099
CL1   4    1.729700    1.817735    1.574770    11.00000    0.05537    0.02655 =
         0.03373    0.00463    0.00075   -0.00867
CE    6    1.882776    1.331331    1.799487    11.00000    0.01925    0.01291 =
         0.01951    0.00055    0.00225   -0.00122
H5    2    0.951957    0.931030    1.751361    11.00000    0.02212
H6    2    1.206866    1.055793    2.008480    11.00000    0.02469
HKLF 4
REM  SIR92 run in space group P 21
REM R1 =  0.0189 for    2351 Fo > 4sig(Fo)  and  0.0195 for all    2403 data
REM    162 parameters refined using     11 restraints
END
WGHT      0.0040      0.0910
REM Highest difference peak  0.726,  deepest hole -0.416,  1-sigma level  0.095
Q1    1   1.8878  1.3321  1.7290  11.00000  0.05    0.73
Q2    1   1.8803  1.3276  1.8656  11.00000  0.05    0.65
Q3    1   1.6748  1.8256  1.6251  11.00000  0.05    0.40
Q4    1   1.7530  1.3292  1.7767  11.00000  0.05    0.37
Q5    1   1.8975  1.3951  1.5603  11.00000  0.05    0.34
Q6    1   1.3633  1.3342  1.6253  11.00000  0.05    0.34
Q7    1   1.0706  0.7167  1.9803  11.00000  0.05    0.32
Q8    1   1.8957  1.2695  1.5591  11.00000  0.05    0.31
Q9    1   1.4073  0.8349  1.9459  11.00000  0.05    0.31
Q10   1   1.4976  0.8281  1.8189  11.00000  0.05    0.31
Q11   1   1.2513  0.7854  1.6189  11.00000  0.05    0.29
Q12   1   1.8805  1.1558  1.7036  11.00000  0.05    0.29
Q13   1   1.2598  0.8976  1.8656  11.00000  0.05    0.29
Q14   1   1.8672  1.5149  1.7012  11.00000  0.05    0.29
Q15   1   1.6549  1.3353  1.6971  11.00000  0.05    0.28
Q16   1   1.3202  1.6202  1.8079  11.00000  0.05    0.28
Q17   1   1.9358  1.4007  1.6405  11.00000  0.05    0.28
Q18   1   1.4616  1.2142  1.5222  11.00000  0.05    0.27
Q19   1   1.3254  1.0504  1.8056  11.00000  0.05    0.26
Q20   1   1.2436  0.8786  1.6181  11.00000  0.05    0.26
Q21   1   1.0146  0.8203  1.9796  11.00000  0.05    0.26
Q22   1   1.9419  1.2651  1.6416  11.00000  0.05    0.26
Q23   1   1.6039  1.9165  1.6348  11.00000  0.05    0.25
Q24   1   2.0288  1.2547  1.7246  11.00000  0.05    0.25
Q25   1   1.5303  1.5316  1.8011  11.00000  0.05    0.25
;
_shelx_res_checksum              13062
loop_
_symmetry_equiv_pos_as_xyz
'x, y, z'
'-x, y+1/2, -z'
loop_
_atom_site_type_symbol
_atom_site_label
_atom_site_fract_x
_atom_site_fract_y
_atom_site_fract_z
_atom_site_U_iso_or_equiv
_atom_site_adp_type
_atom_site_calc_flag
_atom_site_occupancy
_atom_site_disorder_assembly
_atom_site_disorder_group
C C1 1.3911(6) 1.1276(6) 1.8203(4) 0.0212(9) Uani d 1 . .
C C2 1.2482(6) 0.9622(5) 1.8126(4) 0.0172(8) Uani d 1 . .
H H2 1.2889 0.8909 1.7496 0.021 Uiso calc 1 . .
C C3 1.2903(6) 0.8596(5) 1.9267(4) 0.0170(9) Uani d 1 . .
H H3 1.4389 0.8027 1.9302 0.02 Uiso calc 1 . .
C C4 1.1066(7) 0.7203(5) 1.9243(4) 0.0205(8) Uani d 1 . .
O O1 1.6021(5) 1.1110(5) 1.8436(4) 0.0338(9) Uani d 1 . .
O O2 1.2879(5) 1.2663(4) 1.8031(4) 0.0303(8) Uani d 1 . .
O O1W 2.0287(9) 1.4819(6) 1.6265(4) 0.0445(11) Uani d 1 . .
H H1WA 1.981(14) 1.579(5) 1.602(6) 0.053 Uiso d 1 . .
H H1WB 2.073(13) 1.428(7) 1.570(4) 0.053 Uiso d 1 . .
O O3 1.0899(7) 0.6120(5) 1.8464(4) 0.0320(8) Uani d 1 . .
O O2W 1.5657(6) 1.5371(6) 1.7316(4) 0.0392(10) Uani d 1 . .
H H2WA 1.559(10) 1.617(8) 1.682(5) 0.047 Uiso d 1 . .
H H2WB 1.431(5) 1.507(8) 1.739(7) 0.047 Uiso d 1 . .
O O4 0.9802(5) 0.7276(5) 2.0031(3) 0.0236(7) Uani d 1 . .
O O3W 1.6957(9) 1.2091(6) 1.6093(5) 0.0534(13) Uani d 1 . .
H H3WA 1.634(11) 1.115(5) 1.622(8) 0.064 Uiso d 1 . .
H H3WB 1.600(9) 1.271(8) 1.568(6) 0.064 Uiso d 1 . .
O O5 1.0151(5) 1.0140(4) 1.7870(4) 0.0216(7) Uani d 1 . .
O O6 1.2940(5) 0.9618(4) 2.0260(3) 0.0198(6) Uani d 1 . .
Cl Cl1 1.7297(2) 1.8177(3) 1.57477(12) 0.0390(3) Uani d 1 . .
Ce Ce 1.88278(2) 1.33133(5) 1.79949(2) 0.01726(8) Uani d 1 . .
H H5 0.952(8) 0.931(6) 1.751(5) 0.022(13) Uiso d 1 . .
H H6 1.207(10) 1.056(8) 2.008(6) 0.025(14) Uiso d 1 . .
loop_
_atom_site_aniso_label
_atom_site_aniso_U_11
_atom_site_aniso_U_22
_atom_site_aniso_U_33
_atom_site_aniso_U_12
_atom_site_aniso_U_13
_atom_site_aniso_U_23
C1 0.0168(17) 0.021(2) 0.028(2) -0.0069(13) 0.0097(16) -0.0017(18)
C2 0.0147(15) 0.0145(19) 0.023(2) -0.0020(13) 0.0056(15) -0.0018(15)
C3 0.0163(13) 0.014(3) 0.0210(18) -0.0003(12) 0.0022(12) 0.0004(15)
C4 0.0236(17) 0.0135(19) 0.024(2) -0.0017(14) 0.0022(16) -0.0004(16)
O1 0.0152(13) 0.0302(19) 0.056(3) -0.0047(12) 0.0060(14) 0.0021(17)
O2 0.0209(14) 0.0183(14) 0.052(2) -0.0027(10) 0.0074(15) 0.0035(15)
O1W 0.070(3) 0.036(2) 0.032(2) 0.011(2) 0.024(2) 0.0069(18)
O3 0.045(2) 0.0218(18) 0.031(2) -0.0154(15) 0.0113(17) -0.0091(16)
O2W 0.0246(14) 0.038(2) 0.056(3) 0.0041(15) 0.0099(17) 0.022(2)
O4 0.0243(13) 0.0252(18) 0.0219(17) -0.0070(12) 0.0052(12) -0.0004(14)
O3W 0.081(3) 0.030(2) 0.039(3) 0.006(2) -0.031(2) -0.004(2)
O5 0.0148(12) 0.0151(15) 0.033(2) -0.0021(10) -0.0021(13) -0.0012(14)
O6 0.0228(13) 0.0138(15) 0.0224(17) -0.0010(11) 0.0020(12) -0.0015(12)
Cl1 0.0554(6) 0.0265(7) 0.0337(6) -0.0087(8) 0.0008(4) 0.0046(8)
Ce 0.01925(10) 0.01291(11) 0.01951(12) -0.00122(12) 0.00225(7) 0.00055(13)
loop_
_atom_type_symbol
_atom_type_description
_atom_type_scat_dispersion_real
_atom_type_scat_dispersion_imag
_atom_type_scat_source
C C 0.0033 0.0016 'International Tables Vol C Tables 4.2.6.8 and 6.1.1.4'
H H 0 0 'International Tables Vol C Tables 4.2.6.8 and 6.1.1.4'
O O 0.0106 0.006 'International Tables Vol C Tables 4.2.6.8 and 6.1.1.4'
Cl Cl 0.1484 0.1585 'International Tables Vol C Tables 4.2.6.8 and 6.1.1.4'
Nd Nd -0.1943 3.0179 'International Tables Vol C Tables 4.2.6.8 and 6.1.1.4'
Ce Ce -0.2486 2.6331 'International Tables Vol C Tables 4.2.6.8 and 6.1.1.4'
loop_
_geom_angle_atom_site_label_1
_geom_angle_atom_site_label_2
_geom_angle_atom_site_label_3
_geom_angle_site_symmetry_1
_geom_angle_site_symmetry_3
_geom_angle
_geom_angle_publ_flag
O2 C1 O1 . . 125.4(4) no
O2 C1 C2 . . 117.8(3) no
O1 C1 C2 . . 116.8(4) no
O5 C2 C1 . . 106.3(3) no
O5 C2 C3 . . 111.4(3) no
C1 C2 C3 . . 111.1(4) no
O5 C2 H2 . . 109.3 no
C1 C2 H2 . . 109.3 no
C3 C2 H2 . . 109.3 no
O6 C3 C4 . . 110.3(3) no
O6 C3 C2 . . 113.8(3) no
C4 C3 C2 . . 108.7(3) no
O6 C3 H3 . . 107.9 no
C4 C3 H3 . . 107.9 no
C2 C3 H3 . . 107.9 no
O3 C4 O4 . . 125.0(4) no
O3 C4 C3 . . 118.8(4) no
O4 C4 C3 . . 116.2(4) no
C1 O1 Ce . . 123.9(3) no
C1 O2 Ce . 1_455 129.9(2) no
Ce O1W H1WA . . 123(5) no
Ce O1W H1WB . . 124(5) no
H1WA O1W H1WB . . 108(2) no
C4 O3 Ce . 1_445 137.5(3) no
Ce O2W H2WA . . 130(4) no
Ce O2W H2WB . . 118(4) no
H2WA O2W H2WB . . 108(2) no
C4 O4 Ce . 2_849 123.0(3) no
Ce O3W H3WA . . 108(6) no
Ce O3W H3WB . . 118(6) no
H3WA O3W H3WB . . 109(3) no
C2 O5 Ce . 1_455 123.1(2) no
C2 O5 H5 . . 104(4) no
Ce O5 H5 1_455 . 131(4) no
C3 O6 Ce . 2_849 117.5(2) no
C3 O6 H6 . . 109(5) no
Ce O6 H6 2_849 . 102(4) no
O2 Ce O4 1_655 2_859 73.81(12) yes
O2 Ce O1 1_655 . 122.16(11) yes
O4 Ce O1 2_859 . 73.95(13) yes
O2 Ce O2W 1_655 . 145.62(12) yes
O4 Ce O2W 2_859 . 129.66(13) yes
O1 Ce O2W . . 90.98(12) yes
O2 Ce O3 1_655 1_665 74.42(13) yes
O4 Ce O3 2_859 1_665 89.58(15) yes
O1 Ce O3 . 1_665 150.16(13) yes
O2W Ce O3 . 1_665 80.48(15) yes
O2 Ce O3W 1_655 . 104.28(16) yes
O4 Ce O3W 2_859 . 138.18(16) yes
O1 Ce O3W . . 72.54(17) yes
O2W Ce O3W . . 75.20(17) yes
O3 Ce O3W 1_665 . 131.01(16) yes
O2 Ce O1W 1_655 . 71.20(15) yes
O4 Ce O1W 2_859 . 140.97(15) yes
O1 Ce O1W . . 141.00(17) yes
O2W Ce O1W . . 77.07(14) yes
O3 Ce O1W 1_665 . 64.87(16) yes
O3W Ce O1W . . 68.54(19) yes
O2 Ce O5 1_655 1_655 60.18(10) yes
O4 Ce O5 2_859 1_655 71.34(12) yes
O1 Ce O5 . 1_655 64.53(10) yes
O2W Ce O5 . 1_655 143.65(15) yes
O3 Ce O5 1_665 1_655 133.89(14) yes
O3W Ce O5 . 1_655 72.06(14) yes
O1W Ce O5 . 1_655 104.60(13) yes
O2 Ce O6 1_655 2_859 124.05(13) yes
O4 Ce O6 2_859 2_859 60.90(10) yes
O1 Ce O6 . 2_859 76.04(12) yes
O2W Ce O6 . 2_859 68.93(13) yes
O3 Ce O6 1_665 2_859 74.20(11) yes
O3W Ce O6 . 2_859 131.18(15) yes
O1W Ce O6 . 2_859 130.12(14) yes
O5 Ce O6 1_655 2_859 124.48(11) yes
loop_
_geom_bond_atom_site_label_1
_geom_bond_atom_site_label_2
_geom_bond_site_symmetry_2
_geom_bond_distance
_geom_bond_publ_flag
C1 O2 . 1.244(6) no
C1 O1 . 1.247(5) no
C1 C2 . 1.538(6) no
C2 O5 . 1.428(5) no
C2 C3 . 1.548(6) no
C2 H2 . 0.98 no
C3 O6 . 1.408(5) no
C3 C4 . 1.534(6) no
C3 H3 . 0.98 no
C4 O3 . 1.238(6) no
C4 O4 . 1.265(5) no
O1 Ce . 2.490(3) yes
O2 Ce 1_455 2.442(3) yes
O1W Ce . 2.590(4) yes
O1W H1WA . 0.847(14) no
O1W H1WB . 0.850(14) no
O3 Ce 1_445 2.531(3) yes
O2W Ce . 2.512(4) yes
O2W H2WA . 0.849(14) no
O2W H2WB . 0.845(14) no
O4 Ce 2_849 2.481(4) yes
O3W Ce . 2.535(5) yes
O3W H3WA . 0.841(15) no
O3W H3WB . 0.843(14) no
O5 Ce 1_455 2.605(3) yes
O5 H5 . 0.83(3) no
O6 Ce 2_849 2.625(3) yes
O6 H6 . 0.90(7) no
Ce O2 1_655 2.442(3) yes
Ce O4 2_859 2.481(4) yes
Ce O3 1_665 2.531(4) yes
Ce O5 1_655 2.605(3) yes
Ce O6 2_859 2.625(3) yes
loop_
_geom_hbond_atom_site_label_D
_geom_hbond_atom_site_label_H
_geom_hbond_atom_site_label_A
_geom_hbond_site_symmetry_A
_geom_hbond_distance_DH
_geom_hbond_distance_HA
_geom_hbond_distance_DA
_geom_hbond_angle_DHA
_geom_hbond_publ_flag
O1W H1WA Cl1 . 0.8500 2.3700 3.17100(10) 157.00 yes
O1W H1WB Cl1 2_948 0.8500 2.3500 3.18710(10) 167.00 yes
O3W H3WA Cl1 1_545 0.8400 2.4600 3.08840(10) 132.00 yes
O3W H3WB Cl1 2_848 0.8400 2.4200 3.19660(10) 154.00 yes
O5 H5 Cl1 1_445 0.83(3) 2.46(3) 3.19910(10) 149.00 yes
O2W H2WA Cl1 . 0.8500 2.3200 3.09730(10) 152.00 yes
O6 H6 O4 2_759 0.90(7) 1.73(7) 2.6241(7) 170.00 yes
O2W H2WB O1W 1_455 0.8500 2.5600 3.27280(10) 142.00 yes
O2W H2WB O2 . 0.8500 2.2300 2.86850(10) 132.00 yes
loop_
_geom_torsion_atom_site_label_1
_geom_torsion_atom_site_label_2
_geom_torsion_atom_site_label_3
_geom_torsion_atom_site_label_4
_geom_torsion_site_symmetry_1
_geom_torsion_site_symmetry_2
_geom_torsion_site_symmetry_3
_geom_torsion_site_symmetry_4
_geom_torsion
_geom_torsion_publ_flag
O2 C1 C2 O5 . . . . -0.6(6) no
O1 C1 C2 O5 . . . . 179.2(4) no
O2 C1 C2 C3 . . . . -122.0(4) no
O1 C1 C2 C3 . . . . 57.8(5) no
O5 C2 C3 O6 . . . . -74.5(4) no
C1 C2 C3 O6 . . . . 43.9(4) no
O5 C2 C3 C4 . . . . 48.8(4) no
C1 C2 C3 C4 . . . . 167.2(3) no
O6 C3 C4 O3 . . . . -175.5(4) no
C2 C3 C4 O3 . . . . 59.1(5) no
O6 C3 C4 O4 . . . . 5.5(5) no
C2 C3 C4 O4 . . . . -119.9(4) no
O2 C1 O1 Ce . . . . -21.3(7) no
C2 C1 O1 Ce . . . . 158.9(3) no
O1 C1 O2 Ce . . . 1_455 -164.6(4) no
C2 C1 O2 Ce . . . 1_455 15.2(7) no
O4 C4 O3 Ce . . . 1_445 -11.7(9) no
C3 C4 O3 Ce . . . 1_445 169.3(4) no
O3 C4 O4 Ce . . . 2_849 147.8(4) no
C3 C4 O4 Ce . . . 2_849 -33.2(5) no
C1 C2 O5 Ce . . . 1_455 -12.0(4) no
C3 C2 O5 Ce . . . 1_455 109.3(3) no
C4 C3 O6 Ce . . . 2_849 21.0(4) no
C2 C3 O6 Ce . . . 2_849 143.5(2) no
