#------------------------------------------------------------------------------
#$Date: 2020-06-06 01:23:54 +0300 (Sat, 06 Jun 2020) $
#$Revision: 252947 $
#$URL: file:///home/coder/svn-repositories/cod/cif/2/02/21/2022133.cif $
#------------------------------------------------------------------------------
#
# This file is available in the Crystallography Open Database (COD),
# http://www.crystallography.net/. The original data for this entry
# were provided by IUCr Journals, http://journals.iucr.org/.
#
# The file may be used within the scientific community so long as
# proper attribution is given to the journal article from which the
# data were obtained.
#
data_2022133
loop_
_publ_author_name
'Okuniewski, Andrzej'
'Rosiak, Damian'
'Chojnacki, Jaros\/law'
_publ_section_title
;
 Impact of the anion and chalcogen on the crystal structure and properties
 of 4,6-dimethyl-2-pyrimido(thio)nium halides
;
_journal_coeditor_code           WP3004
_journal_issue                   5
_journal_name_full               'Acta Crystallographica Section C'
_journal_page_first              468
_journal_page_last               475
_journal_paper_doi               10.1107/S2053229620005525
_journal_volume                  76
_journal_year                    2020
_chemical_formula_iupac          'C6 H9 N2 O +, H F2 -'
_chemical_formula_moiety         'C6 H9 N2 O +, F2 H -'
_chemical_formula_sum            'C6 H10 F2 N2 O'
_chemical_formula_weight         164.16
_chemical_name_systematic
;
4,6-Dimethyl-2-oxo-2,3-dihydropyrimidin-1-ium bifluoride
;
_space_group_crystal_system      monoclinic
_space_group_IT_number           11
_space_group_name_Hall           '-P 2yb'
_space_group_name_H-M_alt        'P 1 21/m 1'
_atom_sites_solution_hydrogens   mixed
_atom_sites_solution_primary     dual
_audit_creation_method
;
Olex2 1.2
(compiled 2018.05.29 svn.r3508 for OlexSys, GUI svn.r5506)
;
_cell_angle_alpha                90
_cell_angle_beta                 113.551(18)
_cell_angle_gamma                90
_cell_formula_units_Z            2
_cell_length_a                   7.9253(16)
_cell_length_b                   5.9962(14)
_cell_length_c                   8.433(2)
_cell_measurement_reflns_used    1096
_cell_measurement_temperature    120
_cell_measurement_theta_max      29.44
_cell_measurement_theta_min      3.03
_cell_volume                     367.37(15)
_computing_cell_refinement
;
X-AREA (Stoe & Cie, 2009)
;
_computing_data_collection
;
X-AREA (Stoe & Cie, 2009)
;
_computing_data_reduction
;
X-RED32 (Stoe & Cie, 2009)
;
_computing_molecular_graphics
;
OLEX2 (Dolomanov <i>et al.</i>,  2009)
;
_computing_publication_material
;
OLEX2 (Dolomanov <i>et al.</i>,  2009)
;
_computing_structure_refinement
;
SHELXL2018 (Sheldrick, 2015b)
;
_computing_structure_solution
;
SHELXT (Sheldrick, 2015a)
;
_diffrn_ambient_temperature      120.0
_diffrn_detector                 'image plate (34 cm diameter)'
_diffrn_detector_area_resol_mean 6.67
_diffrn_measured_fraction_theta_full 0.989
_diffrn_measured_fraction_theta_max 0.986
_diffrn_measurement_device       '2-circle goniometer'
_diffrn_measurement_device_type  'Stoe IPDS 2T'
_diffrn_measurement_method       'rotation method'
_diffrn_radiation_monochromator  'parabolic x-ray mirror'
_diffrn_radiation_probe          x-ray
_diffrn_radiation_type           MoK\a
_diffrn_radiation_wavelength     0.71073
_diffrn_reflns_av_R_equivalents  0.0275
_diffrn_reflns_av_unetI/netI     0.0140
_diffrn_reflns_limit_h_max       10
_diffrn_reflns_limit_h_min       -10
_diffrn_reflns_limit_k_max       8
_diffrn_reflns_limit_k_min       -8
_diffrn_reflns_limit_l_max       11
_diffrn_reflns_limit_l_min       -11
_diffrn_reflns_number            6035
_diffrn_reflns_theta_full        25.242
_diffrn_reflns_theta_max         29.275
_diffrn_reflns_theta_min         4.301
_diffrn_source                   'microfocus sealed X-ray tube'
_diffrn_source_current           1.000
_diffrn_source_power             0.050
_diffrn_source_voltage           50
_exptl_absorpt_coefficient_mu    0.136
_exptl_absorpt_correction_T_max  0.9827
_exptl_absorpt_correction_T_min  0.9491
_exptl_absorpt_correction_type   integration
_exptl_absorpt_process_details
;
[X-RED32 (Stoe & Cie, 2009), analogous to Coppens (1970)]
;
_exptl_crystal_colour            colourless
_exptl_crystal_density_diffrn    1.484
_exptl_crystal_description       block
_exptl_crystal_F_000             172
_exptl_crystal_size_max          0.25
_exptl_crystal_size_mid          0.04
_exptl_crystal_size_min          0.04
_refine_diff_density_max         0.389
_refine_diff_density_min         -0.318
_refine_ls_extinction_method     none
_refine_ls_goodness_of_fit_ref   1.053
_refine_ls_hydrogen_treatment    mixed
_refine_ls_matrix_type           full
_refine_ls_number_parameters     84
_refine_ls_number_reflns         1075
_refine_ls_number_restraints     1
_refine_ls_restrained_S_all      1.052
_refine_ls_R_factor_all          0.0371
_refine_ls_R_factor_gt           0.0352
_refine_ls_shift/su_max          0.000
_refine_ls_shift/su_mean         0.000
_refine_ls_structure_factor_coef Fsqd
_refine_ls_weighting_details
'w=1/[\s^2^(Fo^2^)+(0.0471P)^2^+0.1674P] where P=(Fo^2^+2Fc^2^)/3'
_refine_ls_weighting_scheme      calc
_refine_ls_wR_factor_gt          0.0949
_refine_ls_wR_factor_ref         0.0964
_reflns_number_gt                1009
_reflns_number_total             1075
_reflns_threshold_expression     'I > 2\s(I)'
_cod_data_source_file            wp3004sup1.cif
_cod_data_source_block           1
_cod_original_cell_volume        367.39(16)
_cod_original_sg_symbol_H-M      'P 21/m'
_cod_database_code               2022133
_shelx_space_group_comment
;
The symmetry employed for this shelxl refinement is uniquely defined
by the following loop, which should always be used as a source of
symmetry information in preference to the above space-group names.
They are only intended as comments.
;
_shelx_estimated_absorpt_t_min   0.967
_shelx_estimated_absorpt_t_max   0.995
_shelx_hkl_file
;
  -8  -4  -1   76.66    2.30
  -7  -6   1   52.34    1.69
  -7  -5   1    2.20    1.22
  -7  -3   0  122.33    2.13
  -6  -3   1  240.92    2.31
  -3  -6   3   53.44    1.31
  -2  -6   3    0.29    1.11
  -2  -5   3   70.08    1.38
  -2   2  -9  161.41    2.32
  -1   2  -4    2.69    0.94
   1  -3   2   54.33    1.31
   2  -7   2   79.35    1.44
   2  -4   2    0.81    0.87
   4   2  -5  135.55    1.61
   6   0  -3   56.53    1.69
   6   2  -7   89.03    1.46
   8   1  -7   90.30    1.67
  -8  -3  -2    9.87    2.12
  -6  -6   2  192.18    2.07
  -6  -5   2   55.79    1.43
  -3  -7   3   23.52    1.29
  -3  -5   3   40.63    0.97
  -1  -7   3    0.31    1.18
  -1  -6   3    7.57    0.84
  -1  -5   3    6.28    0.75
   2   2  -4   63.49    1.13
   5   2  -6   19.24    0.87
   6  -5   0    2.03    1.24
   7  -4  -1  135.59    2.59
   7   0  -4 2470.29    7.65
  -7  -4   1  132.73    1.91
  -7  -2  -1   47.51    1.98
  -5  -3   2  152.62    1.71
  -5  -1   0 1144.82    6.96
  -4  -7   3   44.40    1.54
  -4  -6   3  217.18    1.75
  -4  -5   3  110.87    1.32
  -4   1  -4    1.38    1.08
  -3  -1   1  536.43    4.16
  -2  -4   3    6.96    0.73
  -2  -2   2    1.78    0.63
  -2   2  -7  106.17    1.63
  -2   2  -6    1.97    0.75
  -1  -4   3    2.57    0.88
   0  -7   3  344.33    2.31
   0  -6   3  112.28    1.42
   0   2  -4  283.26    2.26
   1   2  -4  202.81    1.94
   3  -6   2  124.28    1.71
   3   0  -1  369.53    4.85
   4   1  -3  457.89    3.05
   6   2  -8  236.29    1.99
   8  -1  -4  136.45    2.45
   9   0  -7   25.73    1.53
  -6  -4   2  278.41    2.25
  -5  -6   3   10.28    1.17
  -3  -2   2 1477.59    5.21
  -1   2  -9   14.36    1.36
   3  -7   2   67.78    1.73
   3  -5   2  148.25    1.78
   5   2  -7  384.38    2.35
   6  -1  -2  470.27    5.51
   6   1  -5  209.10    1.96
   6   2  -9   45.56    1.42
   8   1  -8    1.21    1.16
  10  -1  -7  115.19    2.29
  -6  -1  -1  312.82    5.21
  -5  -7   3    7.02    1.44
  -5  -5   3   13.94    1.06
  -4  -4   3  774.87    3.11
  -4   1  -6    3.71    1.15
  -4   1  -5   32.62    1.38
  -2   1  -2 1535.47    6.85
  -1   2  -8    6.90    1.17
   0  -4   3  480.95    2.57
   0  -2   2   20.72    0.99
   0   2 -10    7.03    1.46
   1  -7   3  159.05    1.83
   1  -6   3   16.27    1.15
   1  -5   3  500.40    2.57
   4   2  -6  117.84    1.47
   5  -6   1    9.61    1.36
   5   1  -4  915.66    3.91
   6  -4   0  163.36    2.46
   6   2 -10    1.64    1.00
  -8  -4   0    3.00    1.43
  -7  -6   2   17.50    1.14
  -7  -5   2    8.57    1.17
  -1   2  -7   12.19    1.13
  -1   2  -6  221.46    1.89
   0   2  -5  177.86    1.75
   2  -3   2  544.27    3.17
   2   2  -5  821.04    3.36
   3  -4   2  457.45    2.86
   4  -3   1  679.41    4.06
   4   2 -11  262.06    2.30
   5   2 -11   -0.44    1.14
   5   2 -10   14.43    1.36
   5   2  -9  146.09    1.69
   5   2  -8    0.39    0.98
   7  -1  -3 2343.82    9.32
   8   1  -9    0.19    1.10
  -8  -5   1    6.86    1.32
  -6  -6   3    7.68    1.28
  -5  -4   3    5.98    0.96
  -4  -2   2   28.96    1.13
  -3  -3   3   79.49    1.29
  -3   1  -3  514.32    3.67
   0   2  -9   60.99    1.24
   1   2  -5  943.63    3.53
   3  -2   1  128.55    2.11
   3   2 -11    8.16    1.11
   3   2  -6    7.93    0.97
   4   2  -7  310.21    2.08
   7   1  -7  449.16    2.60
   8   0  -6    0.33    0.98
   8   1 -10    4.87    1.07
   9   0  -8    6.11    1.32
  10  -3  -5    7.56    2.29
  10  -2  -6   36.51    1.89
  -7  -3   1    1.06    1.11
  -6  -5   3  707.64    3.18
  -6  -3   2  182.72    1.89
  -3  -6   4  106.11    1.54
  -3   1  -8  199.01    2.23
  -2  -7   4    0.18    1.33
  -2  -6   4    4.61    1.12
  -1  -3   3   41.79    0.96
   0   2  -8  163.75    1.57
   0   2  -7 1380.33    4.10
   1  -4   3   11.54    0.91
   1  -1   1  122.52    2.30
   1   1  -2   12.18    0.76
   1   2  -9   81.80    1.46
   2  -7   3   87.01    1.66
   2  -6   3    0.58    1.13
   2   2 -10  111.20    1.45
   2   2  -6  230.28    1.84
   3   2 -10  629.74    2.87
   4  -7   2    0.19    1.28
   4  -6   2    7.95    1.19
   4   2 -10   18.22    1.01
   4   2  -9    6.55    1.14
   4   2  -8   35.25    1.11
  -6  -2   1   42.76    1.35
  -5   0  -7   75.35    1.98
  -4  -7   4  149.57    1.65
  -4  -6   4  131.72    1.44
  -4  -3   3  265.66    2.04
  -4  -1   1  850.55    5.07
  -3  -5   4  228.89    1.70
  -2  -5   4   10.51    0.96
  -1  -7   4   56.89    1.23
  -1  -6   4   76.09    1.21
  -1   1  -2    4.31    0.77
   1   2  -8   13.87    1.09
   1   2  -7    7.89    1.00
   1   2  -6  112.83    1.31
   2  -5   3  272.44    2.11
   2   2  -8    7.37    1.04
   2   2  -7  172.83    1.65
   3   1  -3  210.86    2.10
   3   2  -9   11.81    0.88
   3   2  -8  572.33    2.66
   3   2  -7 1306.43    3.79
   4  -5   2    1.67    0.98
   5  -4   1   14.01    1.35
   6   1  -6    3.62    0.87
   7   1  -8    0.63    0.98
   9  -1  -6  221.26    2.39
   9   0  -9   83.32    1.77
  -5  -7   4   38.06    1.46
  -5  -6   4   70.16    1.45
  -4  -5   4  351.25    2.02
  -3   1  -7   69.57    1.52
  -2   1  -9   18.06    1.42
  -1  -5   4  234.19    1.69
   0  -7   4   18.86    1.26
   0  -6   4  116.11    1.49
   0  -3   3 3340.77    6.76
   0   1  -2 2340.02    7.74
   1  -2   2 1260.25    5.00
   5   1  -5   78.83    1.31
   7   1 -10   24.49    1.25
   7   1  -9  111.56    1.53
  -8  -4   1    1.90    1.27
  -5  -5   4  142.62    1.58
  -3  -4   4  311.76    2.00
  -3   1  -6   70.77    1.50
  -3   1  -4  230.69    2.33
   4   1  -4 1972.73    5.49
   6   1  -7  450.55    2.45
   8   0  -7   69.95    1.43
  -8  -5   2   68.80    1.71
  -7  -5   3  848.53    3.40
  -7  -2   0  350.84    3.56
  -6  -6   4   50.84    1.47
  -5  -3   3   39.14    1.05
  -5  -2   2  232.40    2.17
  -5   0  -3  637.66    5.04
  -3   1  -5    0.96    0.99
  -2  -4   4   27.19    0.82
   0  -5   4   22.06    0.78
   1  -7   4  190.40    1.94
   2  -4   3    8.49    0.89
   3  -6   3   94.77    1.66
   6  -6   1   19.87    1.70
   6   1 -11   41.41    1.20
  -6  -5   4   24.89    1.10
  -5   0  -5   58.75    1.78
  -4   0  -8    2.25    1.63
  -2   1  -8    0.49    1.03
  -2   1  -3 1659.46    5.97
  -1  -4   4   92.20    1.18
   1  -6   4    1.05    0.76
   3  -3   2  318.81    2.52
   5   1 -11   19.61    1.36
   6   1  -9    2.24    1.03
   8   0  -8   29.04    1.21
  10  -2  -7   91.77    2.17
  -5  -4   4  162.52    1.61
  -5   0  -4    5.40    1.25
  -4  -7   5    0.07    1.35
  -3  -7   5   27.55    1.41
  -2  -7   5   20.90    1.42
  -1   1  -9    4.25    1.05
   0   1 -10  383.38    2.35
   1  -5   4  534.41    2.58
   1  -3   3 1489.70    4.59
   2   1 -11   41.87    1.44
   2   1  -3  408.75    2.73
   3  -5   3  123.52    1.65
   3   1 -11  270.44    2.17
   4  -4   2    7.64    0.96
   4   1 -11    0.94    1.26
   5   1  -6   21.49    0.79
   8  -1  -5   11.60    1.07
   8   0  -9   55.68    1.36
   9  -2  -5   41.24    1.75
   9  -1  -7   49.45    1.43
  -8  -4   2    9.51    1.42
  -7  -6   4  668.42    3.23
  -7  -4   3  370.48    2.47
  -7  -3   2   22.42    1.09
  -4  -6   5   22.66    0.96
  -2  -6   5  111.22    1.35
  -2  -2   3   90.93    1.36
  -2   1  -7    1.51    0.91
  -1  -7   5   51.82    1.46
   0  -4   4  157.73    1.46
   1   1 -10   61.92    1.42
   3   1  -4 1124.50    4.10
   5  -6   2   26.20    1.40
   5   1 -10   18.38    0.91
   5   1  -9  252.15    1.88
   5   1  -7  547.36    2.57
   7   0  -6 1088.92    3.95
  -8  -5   3    8.00    1.20
  -6  -3   3 1098.28    3.97
  -6  -1  -6  279.94    3.48
  -5  -6   5   11.32    0.91
  -4  -5   5    5.89    0.98
  -3  -5   5   63.48    1.07
  -3  -3   4  562.33    2.64
  -3  -2   3    5.87    0.64
  -2  -5   5   83.11    1.30
  -2   1  -6  458.92    2.63
  -2   1  -4   41.34    1.14
  -1   1  -8   94.26    1.42
  -1   1  -3 3410.47    8.10
   0   1  -9  130.11    1.62
   2  -7   4   14.80    1.07
   2  -6   4   28.08    1.23
   2   1 -10    1.58    1.08
   3   1 -10   16.73    1.19
   4   1 -10   34.84    1.18
   5   1  -8   98.27    1.20
   9  -1  -8  107.16    1.74
  -7  -5   4  110.99    1.62
  -6  -6   5   87.86    1.56
  -6  -4   4   67.08    1.13
  -4  -3   4  833.78    3.15
  -4  -2   3 1862.06    5.28
  -4   0  -7   78.22    1.68
  -2  -3   4   39.28    0.85
  -2   1  -5  712.89    3.34
  -1  -2   3    2.23    0.57
   0  -7   5    8.28    1.34
   1   1  -3  186.99    1.89
   2  -2   2    1.20    0.78
   4  -6   3  126.03    1.78
   4   1  -9   35.38    1.15
   4   1  -6  330.63    2.07
   6  -3   0   14.90    1.41
   7   0 -11  282.11    2.08
   7   0  -7   14.91    1.06
   9  -1  -9   65.19    1.61
  -8  -3   1    9.02    1.18
  -6  -2   2  403.04    2.87
  -1  -5   5  132.73    1.32
  -1   1  -7   15.28    1.03
   0  -6   5    9.52    0.81
   0   1  -8  210.31    1.75
   1  -4   4    0.95    0.79
   1   1  -9   80.97    1.17
   2  -5   4   20.25    1.08
   2   1  -9  259.72    1.90
   3  -4   3  159.35    1.74
   3   1  -9    2.09    0.96
   4   1  -8  545.68    2.45
   4   1  -7  335.68    2.04
   5  -2   0   37.70    1.94
   7   0 -10   54.18    1.31
   7   0  -9   92.88    1.49
   7   0  -8  101.17    1.43
  10  -3  -6    1.27    1.67
  -6  -5   5   31.35    1.24
  -5  -3   4  381.46    2.20
  -5  -1   1  162.21    2.39
  -4  -4   5   50.47    1.08
  -3  -4   5  362.02    2.08
  -1   1  -6   82.23    1.25
  -1   1  -4 2772.03    6.60
   1   1  -8  144.88    1.59
   2  -3   3  742.69    3.36
   2   1  -4  213.59    1.81
   3   1  -8  233.91    1.76
   3   1  -5  260.84    1.86
   5  -3   1    2.37    0.99
   6   0 -11   19.92    1.34
   7  -1  -4  361.73    3.01
   9  -3  -4    2.24    1.61
  -9  -4   1   37.84    1.97
  -8  -4   3   16.47    1.17
  -7  -6   5    3.48    0.99
  -7  -4   4 1174.51    3.91
  -7  -2   1  229.09    2.57
  -4  -6   6   16.91    1.13
  -4   0  -6   11.34    1.10
  -3  -6   6   30.45    1.18
  -3  -1   2  185.64    2.11
  -2  -7   6    1.48    1.35
  -2  -4   5  340.74    1.92
  -2   0  -9  194.41    2.04
  -1   0 -10    4.98    1.19
  -1   1  -5  244.17    1.97
   0  -5   5   31.57    0.89
   0  -2   3  991.29    3.89
   1  -6   5   15.63    1.11
   2   1  -8   34.44    1.02
   3   1  -7 3386.24    5.87
   3   1  -6  242.90    1.79
   4  -5   3  532.82    3.02
   9  -2  -6   13.29    1.41
  -8  -5   4   75.82    1.59
  -7  -3   3 1533.83    4.79
  -5  -6   6    2.33    1.21
  -5  -2   3    0.49    0.76
  -2  -6   6  124.68    1.59
  -1  -4   5  451.83    2.33
   0  -3   4   19.51    0.73
   0   1  -6  125.29    1.43
   0   1  -4   39.36    0.93
   1   1  -7    1.89    0.84
   2  -1   1  602.96    4.98
   2   1  -7  420.15    2.23
   2   1  -6  145.17    1.46
   3  -6   4  412.15    2.66
   5   0 -11    0.88    0.94
   6   0 -10    1.66    0.81
   6   0  -6   64.44    1.18
   8  -1  -7   85.05    1.45
  -7  -5   5   34.10    1.26
  -6  -6   6   49.25    1.36
  -6  -3   4   39.36    1.07
  -5  -1  -7   79.27    1.86
  -4  -5   6   60.83    1.20
   0   0 -10   10.91    1.31
   0   1  -5  141.66    1.46
   1   1  -6   39.54    0.97
   1   1  -5  485.50    2.55
   2   0 -11  170.87    1.62
   3   0 -11   11.44    1.19
   4   0 -11  284.59    1.92
   5   0  -4  552.47    3.04
   6  -4   1   24.46    1.56
   6   0  -9   41.84    1.08
   6   0  -8  257.87    1.84
   6   0  -7   81.07    1.26
   8  -2  -4    6.08    1.23
   8  -1 -10    4.43    0.96
   8  -1  -9   -0.55    1.07
   8  -1  -8    0.26    1.03
  -9  -4   2    0.76    1.52
  -8  -3   2  147.39    1.98
  -6  -4   5  216.91    1.63
  -6  -1   0   31.63    1.82
  -5  -5   6   18.03    1.09
  -4  -1   2  660.84    3.82
  -4   0  -5    1.09    0.96
  -3  -5   6  113.95    1.28
  -3   0  -7   35.86    1.18
  -2  -5   6    0.45    0.98
  -1  -6   6   27.55    1.00
  -1   0  -9   15.61    1.16
   1  -5   5   28.42    1.09
   4  -3   2    3.09    0.88
   4  -2   1 1159.10    6.19
   9  -2  -7   21.74    1.29
  -6  -1  -4   52.38    1.90
  -4  -1  -8    7.58    1.38
   0  -4   5   47.65    0.92
   0  -1   2 2298.32    7.21
   1   0 -10    0.98    1.00
   2  -6   5   12.13    1.24
   4   0 -10   17.24    1.16
   4   0  -3 2390.95    6.82
   5  -4   2   50.92    1.39
   5   0  -9  172.58    1.62
   7  -4   0  234.12    3.63
   9  -2  -8    6.33    1.26
  -8  -5   5   11.54    1.18
  -8  -4   4    0.34    1.07
  -6  -5   6    1.90    0.77
  -6  -2   3   57.71    1.25
  -4  -3   5   23.24    0.91
  -4   0  -4 3747.06    8.81
  -3  -3   5  100.52    1.17
  -3  -2   4  852.84    3.28
  -2  -3   5  281.59    1.85
  -1  -5   6   13.60    1.01
   1  -3   4 1329.99    4.10
   2   0 -10  127.46    1.38
   3   0 -10  659.96    2.64
   5  -6   3  110.09    1.95
   5   0  -5  102.20    1.37
   6  -1  -3 1439.12    6.01
   9  -2  -9   68.99    1.44
  -7  -4   5    4.22    0.77
  -7  -3   4  212.02    1.87
  -7  -2   2   10.02    1.11
  -5  -3   5   68.85    1.18
  -4  -6   7  142.64    1.72
  -4  -2   4  932.53    3.47
  -4   0  -3  486.46    3.67
  -4   0  -2    6.87    1.01
  -3  -4   6   33.03    1.01
  -3   0  -6   48.89    1.19
  -2  -2   4   57.26    0.97
   0   0  -9   68.54    1.13
   4  -4   3  269.18    2.30
   4   0  -9    3.95    0.96
   5   0  -8    0.17    0.60
   5   0  -7  487.87    2.39
   5   0  -6   35.90    0.99
  -9  -4   3   93.21    1.80
  -8  -3   3   18.06    1.23
  -7  -5   6   25.00    1.28
  -5  -6   7   88.95    1.35
  -5  -4   6    4.42    0.97
  -3  -6   7  389.97    2.23
  -2  -4   6  170.34    1.55
  -2   0  -7  113.56    1.47
  -1  -3   5  312.42    1.95
  -1  -2   4  188.66    1.71
  -1   0  -8    9.73    0.93
   0  -5   6   24.83    1.09
   1  -4   5   33.50    1.02
   1   0  -9   82.72    1.27
   2  -5   5  258.98    1.99
   2   0  -9   80.17    1.30
   3  -2   2 1191.35    5.28
   3   0  -9   15.02    1.04
   4  -6   4  837.93    3.95
  -6  -4   6   67.15    1.19
  -6  -3   5  118.53    1.38
  -5  -2   4  350.76    2.23
  -2  -6   7   36.25    1.07
   1  -6   6   17.70    1.28
   5  -1 -11   21.87    1.04
   6  -5   2   59.08    1.76
   6  -1 -10   82.41    1.39
   7  -1  -8    1.99    0.71
   7  -1  -7  428.84    2.45
   8  -2 -10   17.65    1.36
   8  -2  -5   21.64    1.27
   9  -3  -5   41.61    1.64
  -6  -1  -3   13.62    1.38
  -5  -5   7  178.28    1.72
  -5  -1   2  320.98    2.82
  -4  -5   7  105.35    1.27
  -4  -1  -7  627.85    3.35
  -3  -5   7 1297.49    3.72
  -3   0  -5 1078.14    4.15
  -2  -1  -9   19.15    1.32
  -1  -6   7   -0.07    1.18
  -1  -4   6   59.17    1.14
   0   0  -8  190.17    1.60
   2  -1 -11   37.33    1.07
   3  -6   5  197.53    2.12
   3  -4   4  791.90    3.37
   3  -1 -11  296.63    2.14
   4  -1 -11    1.85    0.91
   4   0  -7  350.46    2.04
   4   0  -4 1491.16    4.75
   5  -5   3    1.39    1.13
  -9  -3   0  104.23    3.16
  -8  -5   6   -0.04    1.21
  -8  -4   5   12.62    0.93
  -6  -5   7  206.25    1.82
  -3  -1  -8  190.58    1.92
  -2  -5   7  214.08    1.82
  -2   0  -6    1.02    0.82
  -1   0  -7   36.61    1.10
   0  -3   5  111.73    1.35
   1   0  -8   13.04    0.96
   3   0  -8  581.16    2.41
   4  -5   4    0.31    1.10
   4   0  -6  195.87    1.63
   4   0  -5  182.04    1.68
   5  -1 -10   20.65    1.14
   6  -1  -9    0.63    0.94
   7  -5   1    0.64    1.67
   8  -2  -9   43.96    1.35
  -9  -4   4   50.84    1.51
  -9  -3   1   82.03    2.38
  -7  -4   6  457.47    2.47
  -7  -2  -4   95.78    2.44
  -3  -1   3  203.18    1.94
  -2  -1   3  405.42    2.65
   0  -2   4  259.24    1.90
   1  -5   6   72.27    1.20
   1  -1   2    3.80    0.69
   2  -2   3   42.40    1.06
   8  -2  -8   25.54    1.25
   8  -2  -7   53.75    1.32
   8  -2  -6   -0.01    0.87
   9  -3  -6  167.22    2.23
  -8  -3   4  121.01    1.68
  -7  -5   7  235.90    2.06
  -7  -3   5   54.59    1.24
  -7  -2   3  604.25    3.34
  -6  -2   4   71.30    1.25
  -6  -1   1  373.17    3.84
  -5  -3   6   19.43    0.91
  -5  -1  -5   86.94    1.64
  -4  -4   7  213.95    1.69
  -4  -3   6  185.13    1.46
  -3   0  -4 1332.43    4.91
  -1  -5   7    1.54    1.04
  -1  -1  -9    4.88    1.09
   0  -6   7  319.07    2.14
   0  -4   6    0.28    0.59
   0   0  -7 1486.52    4.00
   1  -1 -10   61.51    1.09
   2  -6   6    0.57    1.29
   2  -4   5   24.93    1.07
   2  -1 -10    2.40    1.08
   3  -5   5   16.96    1.09
   3  -1 -10   14.51    1.16
   3   0  -7 1538.25    3.91
   5  -1  -2  316.12    3.32
   6  -2 -11   15.91    1.32
   6  -1  -8   88.06    1.23
   7  -2 -10   46.64    1.41
   7  -2  -3  593.16    4.27
   9  -3  -8   72.43    1.65
   9  -3  -7   34.44    1.40
  -5  -4   7  188.21    1.53
  -4  -1   3  433.15    2.77
  -3  -4   7  756.72    2.74
  -2  -3   6   45.32    1.06
  -1  -1   3  168.34    1.74
  -1   0  -6  320.49    2.07
   1   0  -7   25.45    0.93
   2   0  -7  259.90    1.71
   3   0  -6    0.30    0.74
   3   0  -3   71.62    1.25
   5  -1  -9  246.14    1.81
   6  -1  -7  471.73    2.39
   6  -1  -5  194.07    1.85
   8  -3  -3   17.56    1.54
  -8  -4   6    0.70    1.14
  -8  -2   0   10.27    2.15
  -6  -4   7   72.01    1.30
  -6  -3   6    0.07    0.84
  -5  -5   8   31.31    1.22
  -4  -1  -6    3.05    1.02
  -2  -4   7   84.83    1.27
  -2  -2   5  827.09    3.08
  -2  -1  -8    1.83    0.95
  -2   0  -5   54.59    1.13
   0  -5   7   10.21    1.09
   0  -1  -9  126.82    1.56
   1  -3   5   78.70    1.20
   3   0  -5 1057.29    3.64
   3   0  -4 1301.58    4.40
   5  -2 -11    0.10    1.17
   6  -1  -6    3.09    0.75
  -9  -4   5   22.82    1.35
  -8  -2   1    0.46    1.33
  -6  -5   8   42.37    1.37
  -6  -1  -2  208.41    3.44
  -5  -2   5   54.02    1.09
  -3  -5   8  105.33    1.55
  -3   0  -3  514.72    3.45
  -1  -3   6   14.62    0.91
   0   0  -6    0.27    0.76
   1  -4   6   72.43    1.27
   1  -2   4    2.10    0.73
   2  -5   6  133.82    1.72
   2   0  -6  246.02    1.76
   3  -2 -11    6.75    1.36
   4  -2 -11  242.83    1.94
   4  -1  -9   31.99    0.87
   5  -1  -8  108.69    1.36
   6  -2 -10    2.12    1.11
  -9  -3   3   54.21    1.69
  -8  -3   5    9.57    1.05
  -7  -4   7    3.39    0.84
  -5  -1   3   64.55    1.38
  -2  -5   8   12.56    1.11
  -1  -4   7   -0.80    0.93
   1  -1  -9   77.51    1.11
   1   0  -6  176.25    1.47
   2  -1  -9  272.08    1.83
   2   0  -2   31.50    1.14
   3  -1  -9    1.32    0.67
   5  -4   3  257.67    2.59
   9  -4  -4   50.37    1.98
  -8  -2   2   17.91    1.30
  -7  -3   6   40.33    1.16
  -7  -2   4 1844.45    5.22
  -6  -2  -5    7.26    1.46
  -6  -2   5  407.34    2.29
  -5  -1  -4   10.04    1.23
  -2   0  -4  204.60    1.95
  -1  -1  -8   89.60    1.21
  -1   0  -5   93.79    1.21
   0  -2 -10    7.11    1.30
   2   0  -5 1116.72    3.69
   4  -4   4 1838.51    5.50
   5  -3   2  128.71    2.15
   5  -2 -10   12.96    1.20
   5  -1  -7  540.65    2.50
   7  -2  -4 1870.96    6.07
   8  -3  -9    0.04    0.89
  -9  -4   6    5.62    1.15
  -6  -1   2  451.19    3.44
  -5  -3   7  386.62    2.11
  -4  -4   8   42.80    1.23
  -4  -3   7  216.04    1.54
  -3  -3   7 2291.62    4.72
  -3   0  -2 1886.24    7.71
  -2  -1  -7    2.17    0.93
   0  -3   6   83.06    1.24
   0   0  -5  291.18    2.03
   1  -5   7    0.27    1.11
   1   0  -5 1392.17    4.17
   2   0  -4   32.51    0.99
   3  -4   5  446.11    2.66
   4  -1  -8  520.85    2.30
   7  -2  -7    8.46    0.74
   8  -3  -8   -1.07    1.16
  -9  -3   4    2.20    1.14
  -6  -4   8  114.90    1.50
  -5  -2  -6   47.54    1.59
  -4  -1  -5   31.27    1.28
  -3  -4   8  359.20    2.17
  -3  -2  -8  166.95    1.81
  -3  -1   4 1129.32    3.96
  -3   0  -1  318.26    4.55
   0  -4   7  731.18    2.92
   0  -2   5  162.90    1.54
   0  -1  -8  201.07    1.54
   1  -2 -10   -0.01    0.84
   2  -3   5  478.78    2.58
   2   0  -3  229.95    2.11
   3  -2 -10  605.86    2.67
   3  -1  -8  247.50    1.73
   4  -5   5   24.46    1.48
   5  -5   4   13.29    1.64
   5  -1  -6   22.55    0.91
   6  -4   2    3.78    1.34
   7  -2  -6  785.90    3.32
   8  -3  -4  114.81    1.99
   9  -4  -5   24.73    1.57
  -8  -3   6    0.79    0.93
  -8  -2   3   15.43    1.26
  -7  -4   8   80.87    1.40
  -7  -2  -3  301.88    3.68
  -4  -5   9    6.97    1.36
  -4  -2  -7   59.76    1.42
  -4  -2   6  108.98    1.20
  -4  -1   4 1943.94    5.16
  -3  -2   6    9.10    0.86
  -3  -1  -6   70.86    1.27
  -2  -4   8    1.44    1.01
  -2  -3   7  298.81    1.82
  -2  -1   4  214.02    1.76
  -2   0  -3   37.37    1.23
  -1   0  -4    0.90    0.77
   1  -1  -8  153.29    1.37
   1   0  -4  465.41    2.70
   2  -4   6    0.92    1.00
   2  -1  -8   29.49    0.80
   4  -1  -7  305.40    1.94
   5  -2  -9  139.75    1.53
   5  -1  -5   86.38    1.28
   5  -1  -4  871.82    3.77
   6  -2  -8  210.43    1.71
   8  -3  -7   52.47    1.33
   9  -4  -6    6.03    1.31
  -7  -2   5    4.45    0.89
  -3  -5   9    0.50    1.32
  -2  -2   6  229.78    1.69
  -1  -1  -7   13.16    0.92
   0  -5   8  117.88    1.68
   0   0  -4  370.90    2.45
   3  -5   6   41.34    1.47
   3  -2   3  315.05    2.57
   6  -5   3    0.99    1.21
   6  -3 -10   61.71    1.36
   7  -3  -9   67.49    1.35
   8  -3  -6    1.56    1.01
   8  -3  -5   10.84    1.07
  -9  -3   5   46.42    1.41
  -6  -1   3 1502.65    5.39
  -5  -1   4  945.34    3.72
  -1  -4   8    5.67    0.95
  -1  -1   4 2490.33    5.81
   1  -3   6   97.31    1.37
   2  -2   4  210.03    1.89
   2  -1   2 1478.02    6.23
   3  -1  -7 3323.39    5.77
   4  -2  -9    5.31    1.01
   4  -2   2    6.42    0.98
  -8  -4   8   20.54    1.02
  -8  -2   4    6.21    1.02
  -5  -4   9   90.36    1.43
  -5  -3   8   57.07    1.17
  -4  -3   8  370.72    2.08
  -2  -2  -8  109.81    1.36
  -1  -2   6  114.46    1.32
  -1   0  -3   71.11    1.35
   0  -1  -7   18.70    0.97
   1  -4   7   -0.29    1.03
   1  -2  -9   70.00    1.33
   2  -5   7    1.94    0.97
   3  -2  -9   11.22    1.03
   5  -3 -10   16.88    1.25
   6  -2  -7   87.96    1.27
   7  -3  -8   -0.31    1.07
  -6  -4   9   28.81    1.30
  -6  -3   8   64.30    1.27
  -5  -1  -3   28.55    1.33
  -4  -4   9    6.29    0.86
  -3  -3   8  200.45    1.69
  -2  -1  -6  446.18    2.37
  -2   0  -2    0.60    0.80
   0   0  -3 1016.10    4.38
   1  -2   5   66.43    1.15
   1  -1  -7    1.01    0.81
   2  -2  -9   66.09    1.08
   2  -1  -7  400.83    2.09
   5  -2  -8   -0.26    0.70
   6  -3   1  230.83    4.01
  -9  -3   6  169.38    1.94
  -7  -4   9   48.12    1.47
  -7  -2   6  877.78    3.34
  -6  -2  -4   25.91    1.55
  -4  -2   7  291.95    1.88
  -4  -1   5   42.89    1.06
  -3  -4   9    9.44    0.85
  -3  -2  -7   27.67    1.17
  -3  -1  -5    1.15    0.88
  -3  -1   5  283.02    1.96
  -2   0   1 1634.90    9.08
   0  -3   7   17.47    0.97
   1  -3 -10   44.58    1.12
   2  -3 -10    1.28    1.22
   3  -3 -10   12.84    1.25
   4  -1  -5   41.08    1.03
   6  -2  -6   89.23    1.32
   6  -2  -2  382.31    3.70
   8  -4  -8   20.27    1.07
  -8  -2   5   23.73    1.11
  -7  -3   8    0.93    1.08
  -6  -1  -1  286.03    4.68
  -6  -1   4   53.94    1.22
  -5  -2   7  361.41    1.98
  -4  -2  -6    8.55    1.10
  -4  -1  -4    0.72    0.93
  -3  -3  -8  125.22    1.87
  -3  -2   7 1281.56    3.52
  -2  -4   9   39.49    1.31
  -2  -3   8   28.34    0.88
  -2  -1   5  392.16    2.24
  -1  -1  -6   84.79    1.26
   0  -4   8   76.91    1.24
   0  -1   4   39.00    0.91
   3  -4   6   15.95    1.09
   3  -1  -6  251.34    1.77
   4  -4   5    2.70    1.16
   7  -4  -9   50.00    1.49
   7  -3  -7  391.92    2.37
  -6  -2   7   83.87    1.24
  -5  -1   5   81.71    1.25
  -2  -2   7  175.80    1.58
  -1  -3  -9    3.86    0.93
  -1   0  -2 2241.05    7.93
   0  -2   6    1.82    0.58
   0   0  -2   59.93    1.46
   2  -3   6  293.50    2.11
   3  -3   5    5.86    0.94
   3  -2  -8  520.42    2.40
   4  -3   4    1.28    1.04
   5  -4   4    2.13    1.26
   5  -3  -9  171.64    1.63
   5  -2  -7  354.56    2.06
   6  -2  -5  403.62    2.49
   8  -4  -7   32.93    1.38
   8  -4  -2    8.72    1.61
 -10  -3   3  273.45    3.57
 -10  -3   4   63.99    2.09
  -8  -3   8    0.89    1.11
  -5  -3   9  170.06    1.62
  -4  -3  -7  449.86    2.91
  -2  -2  -7   96.01    1.41
   0  -3  -9   97.65    1.53
   0  -1  -6  124.61    1.36
   1  -2  -8   13.38    1.02
   1  -1  -6   39.80    0.96
   2  -4   7   55.41    1.16
   2  -2  -8    7.64    0.95
   2  -1  -6  145.95    1.34
   4  -1  -4 1912.51    5.33
   6  -3  -8   64.26    1.09
   6  -2  -3   58.81    1.51
   7  -3  -6   39.95    1.24
 -10  -3   5    7.73    1.54
  -8  -2   6    0.49    0.99
  -7  -3  -4  329.75    3.26
  -7  -2   7    8.16    0.96
  -6  -3   9    0.61    1.10
  -6  -1   5  195.56    1.75
  -4  -4  10   14.72    1.39
  -4  -3   9   14.77    0.87
  -3   0   1  365.62    4.45
  -2  -1  -5  695.06    3.09
  -1  -1   5  476.30    2.44
   1  -4   8    1.17    1.08
   1  -3   7    6.29    0.98
   3  -1  -5  264.03    1.94
   4  -4 -10   13.84    1.38
   4  -3  -9   14.13    0.87
   4  -1  -3  429.01    2.95
   7  -4  -8   87.63    1.52
   8  -4  -6    1.10    1.12
  -7  -3   9   73.76    1.47
  -7  -1   2   44.03    1.51
  -7  -1   3 2284.11    7.26
  -6  -3  -5   44.63    1.65
  -5  -3  -6    0.50    1.15
  -5  -2   8    0.19    0.94
  -4  -2   8   31.53    1.07
  -4  -1   6  343.27    2.05
  -3  -4  10  374.79    2.45
  -3  -3   9    0.63    0.77
  -3  -1   6  247.91    1.79
  -2  -3  -8    0.86    1.04
  -2   0  -1  621.72    6.00
  -1  -2   7    6.58    0.67
   1  -3  -9   52.91    1.08
   2  -3  -9  164.67    1.65
   2  -2   5   46.52    1.15
   3  -4 -10  342.09    2.34
   3  -3  -9    0.52    0.77
   4  -2  -7  290.44    1.89
   5  -3   3    4.83    1.23
   5  -2  -6   22.87    0.93
   7  -3  -5   55.36    1.27
   7  -3  -2   23.39    1.52
  -9  -3   8   71.05    1.52
  -9  -2   4   73.51    1.76
  -7  -2  -2  133.12    2.63
  -6  -2   8  217.33    1.76
  -5  -1   6   22.43    0.94
  -3  -2  -6   34.20    1.18
  -2  -3   9  160.51    1.61
  -2   0   2   32.83    1.16
  -1  -2  -7   11.99    0.89
   0  -3   8  179.70    1.73
   1  -2   6  208.68    1.73
   1  -1   4 2872.05    6.58
   3  -2   4 1213.67    4.63
   5  -3  -8   58.13    1.01
   6  -3  -7  342.38    2.12
   8  -4  -4    1.25    1.25
   8  -4  -3   16.26    1.42
  -9  -2   3  139.15    2.46
  -9  -2   5   41.64    1.52
  -8  -3   9    0.16    1.27
  -8  -2   7   57.81    1.31
  -7  -1   4  375.90    2.72
  -3  -1  -4  228.06    2.09
  -3   0   2 2673.78    8.56
  -2  -1   6  149.31    1.37
  -1  -3  -8   65.04    1.39
  -1  -1  -5  241.55    1.90
   0  -4   9   40.50    1.43
   0  -2  -7 1168.66    3.60
   0  -1   5  151.40    1.55
   2  -1  -5  383.91    2.23
   2  -1   3 1649.91    5.78
   3  -2  -7 1286.98    3.62
   5  -4  -9   88.59    1.40
   6  -4   3   65.31    2.05
   7  -3  -3 1514.43    6.01
  -7  -2   8   97.88    1.42
  -6  -3  10   64.75    1.44
  -6  -1   6    3.61    0.79
  -5  -3  10   15.58    1.34
  -4  -2  -5    2.07    0.93
  -3  -3  -7   56.04    1.37
  -2  -2   8    6.54    0.76
  -1   0  -1  152.55    3.00
  -1   0   2 1164.32    5.61
   0  -1  -5  156.98    1.58
   1  -1  -5  487.56    2.53
   2  -2  -7  177.42    1.57
   3  -1  -4 1222.55    4.26
   5  -2  -5   55.51    1.13
   5  -2   1   34.43    2.17
   6  -4  -8  118.45    1.62
   7  -4  -7    2.48    0.81
  -9  -2   6   12.07    1.10
  -7  -3  10   15.33    1.38
  -5  -1  -2  142.88    2.28
  -4  -3  10   23.12    1.00
  -4  -1  -3 1094.73    4.85
  -3   0   3   73.28    1.40
  -1  -3   9   55.55    1.33
  -1  -1   6   40.15    0.99
   0  -4  -9   38.00    1.15
   2  -3   7    2.25    0.96
   3  -4   7   19.32    1.38
   3  -3  -8  187.90    1.67
   3  -3   6   66.24    1.43
   4  -4  -9    5.89    0.83
   4  -4   6    5.34    1.13
   4  -2  -6  106.19    1.29
   4  -2   3  436.01    3.41
   6  -3  -6    0.40    0.98
  -9  -2   2    0.42    1.62
  -8  -2   8   27.74    1.23
  -6  -2  -3  103.96    1.86
  -6  -2   9   38.13    1.23
  -5  -2  -4    3.02    1.02
  -5  -2   9  142.40    1.38
  -5  -1   7  549.33    2.52
  -4  -3  -6    1.91    1.09
  -4  -2   9    6.71    1.05
  -4  -1   7  304.85    1.86
  -3  -3  10   11.44    1.27
  -2  -4  -8   75.04    1.64
  -2   0   3  237.45    2.17
  -1  -2   8   13.29    0.99
   1  -4  -9   45.31    1.16
   1  -3  -8   75.93    1.29
   1  -3   8   58.43    1.28
   2  -4  -9   41.47    1.37
   3  -4  -9   10.95    0.88
   5  -3  -7  355.64    2.01
   8  -5  -6   -0.08    1.16
  -9  -2   7   21.36    1.16
  -8  -3  -2    9.99    1.88
  -7  -2   9   79.13    1.38
  -7  -1   1    4.37    2.10
  -7  -1   6   52.92    1.27
  -6  -1   7  449.97    2.37
  -4   0   2   50.78    1.42
  -4   0   3 2473.26    7.10
  -3  -2   9   11.07    1.05
  -2  -3  -7    3.11    1.08
  -2  -1  -4   42.75    1.10
   4  -3   5   23.26    1.19
   5  -4  -8   -1.21    1.07
   5  -4   5   30.42    1.64
   5  -2  -4  348.26    2.43
   7  -4  -6  452.74    2.67
  -3   0   4 1377.15    4.61
  -2  -3  10    2.31    0.88
  -2  -1   7  410.80    2.14
  -1   0   3   58.44    1.25
   1  -2   7   12.56    0.96
   1  -1   5  242.56    1.95
   2  -1  -4  221.01    1.90
   3  -2  -6    8.88    0.66
   3  -1  -3  206.14    2.07
   3  -1   2  768.12    4.98
   4  -5  -9    5.93    1.39
   6  -4  -7   74.71    1.40
   7  -5  -7  253.91    2.24
   8  -5  -5   13.31    1.35
  -8  -2   9   44.40    1.31
  -4   0   4 1543.87    4.94
  -3  -2  -5  859.23    3.48
  -2   0   4   34.54    1.03
  -1  -4  -8    1.49    1.15
  -1  -3  -7    5.91    0.97
   0  -2  -6    0.67    0.85
   0  -1   6  123.61    1.43
   2  -2  -6  217.37    1.70
   3  -5  -9    1.26    1.36
   3  -2   5  842.33    3.75
   4  -4  -8   42.82    1.25
   4  -3  -7  228.99    1.64
   4  -2  -5  129.99    1.48
   6  -5  -8   39.66    1.15
   6  -3  -5  122.93    1.44
  -9  -2   8    5.54    1.25
  -8  -1   4  130.23    2.03
  -8  -1   5   10.94    1.09
  -7  -3  -3   42.54    1.63
  -7  -1   7  446.22    2.38
  -6  -3  -4   41.90    1.48
  -6  -2  10    1.02    1.23
  -5  -2  10   14.65    1.26
  -5  -1   8   98.48    1.17
  -4  -2  10   17.02    1.13
  -4  -1   8  528.10    2.37
  -3  -4  -7   21.16    1.26
  -3  -1   8  239.67    1.76
  -1  -1  -4 2721.14    6.30
  -1  -1   7    1.05    0.85
   0  -2   8  153.43    1.46
   0   0   2   61.44    1.39
   1  -2  -6  112.82    1.34
   2  -1   4   39.52    1.09
   3  -3  -7 2326.18    4.93
   5  -3  -6   21.78    0.97
   7  -4  -5    4.81    1.10
   8  -5  -4   79.82    1.85
  -8  -2   0   10.73    2.25
  -8  -1   6    1.83    0.98
  -7  -2  10   45.35    1.42
  -6  -1   8   88.59    1.17
  -4   0   1    0.27    0.98
  -4   0   5  186.42    1.78
  -3  -3  -6   66.03    1.16
  -3  -1  -3  479.56    3.13
  -3   0   5 1160.62    3.90
  -1  -2   9   71.25    1.28
  -1   0   4  479.66    2.79
   0  -1  -4   40.48    0.95
   1  -4  -8    7.20    1.14
   2  -4  -8    1.09    1.13
   2  -3  -7  308.02    1.98
   3  -4  -8  360.63    2.06
   5  -5  -8   32.58    1.29
   5  -3   4   11.60    1.40
   8  -5  -1    4.78    1.88
 -10  -2   5    9.42    1.49
 -10  -2   6   35.72    1.60
  -9  -2   9   69.65    1.57
  -7  -1   8    1.03    1.02
  -5   0   3    0.37    0.76
  -5   0   4  560.82    3.14
  -4  -2  -4 3064.27    7.02
  -3  -2  10  580.62    2.57
  -2  -1   8   33.59    1.08
  -2   0   5 1158.37    3.88
   0   0   3  989.60    4.43
   1  -3  -7    0.81    0.64
   1  -3   9    3.13    1.23
   2  -3   8   -0.74    1.22
   3  -3   7   56.13    1.48
   5  -4  -7  196.20    1.59
   6  -4  -6   76.94    1.40
   6  -3  -4   41.31    1.21
   7  -5  -6   24.58    1.33
   8  -5  -3    8.37    1.32
   8  -5  -2   68.30    2.23
 -10  -2   7   96.03    1.93
  -8  -2  10   16.54    1.10
  -8  -1   3   26.90    1.49
  -8  -1   7   87.35    1.47
  -5  -1   9  256.40    1.90
  -4  -4  -6    4.92    1.30
  -2  -4  -7   59.52    1.34
  -2  -2  -5   43.82    1.05
   3  -2  -5  795.87    3.15
   4  -5  -8  240.04    2.06
   4  -3  -6  189.51    1.68
   4  -2   4 3064.84    8.15
   6  -5  -7  203.17    1.81
  -6  -1   9    1.13    1.04
  -5  -2  11   -0.18    1.42
  -4  -3  -5   22.39    1.21
  -4  -1   9   33.22    0.91
  -4   0   6  209.10    1.73
  -3   0   6    0.05    0.77
  -2  -3  -6  315.62    2.12
  -2  -2  10  108.62    1.38
   0  -5  -8  117.87    1.71
   1  -2   8    6.16    1.08
   1  -1   6   84.46    1.15
   2  -2   7  100.78    1.54
   2  -1  -3  429.72    2.85
   3  -1   3  493.27    3.58
   4  -4  -7  223.62    1.85
   4  -3   6    1.79    1.24
   4  -2  -4  959.16    3.81
   5  -3  -5   71.26    1.24
   6  -4   4   15.65    1.71
   6  -3   2  136.92    3.58
 -10  -2   4  366.08    4.05
  -8  -1   8    0.85    1.10
  -7  -1   9  120.68    1.59
  -5  -2  -3  475.49    3.28
  -5   0   2  243.70    3.03
  -5   0   6   34.67    1.02
  -4  -2  11  248.20    2.20
  -3  -1   9    1.98    0.76
  -2   0   6  244.03    1.85
  -1  -4  -7   -1.16    1.05
  -1  -2  -5   67.33    1.22
  -1  -1   8  154.62    1.43
  -1   0   5 1327.87    4.18
   0  -2   9   61.76    1.43
   0   0   4  352.64    2.48
   1  -5  -8   26.86    1.23
   2  -2  -5  838.20    3.23
   2  -1   5  728.60    3.38
   3  -5  -8   97.97    1.38
   3  -2   6   32.58    1.15
   5  -2  -2  233.93    2.58
   7  -5  -5   32.58    1.34
   7  -4  -3  384.74    3.09
  -6   0   4   80.03    1.47
  -6   0   5  516.03    2.88
  -5  -4  -5   30.30    1.34
  -4  -1  -2    0.41    0.76
  -4   0   7  361.66    2.13
  -3  -2  11    6.64    1.41
  -2  -1  -3 1629.68    5.48
  -2  -1   9  260.33    1.90
  -1  -3  -6   95.39    1.35
  -1  -2  10    0.28    1.27
   0  -4  -7  728.27    3.00
   0  -2  -5  163.53    1.59
   1  -2  -5  934.52    3.39
   3  -3  -6  174.23    1.60
   5  -5  -7  170.17    1.73
   5  -4  -6    4.61    0.96
   6  -4  -5  232.47    2.01
  -9  -3   0  107.45    3.36
  -9  -1   6  215.31    2.25
  -8  -1   9   -0.37    1.16
  -6  -2  -2    8.91    1.34
  -6  -1  10   85.79    1.51
  -6   0   6   66.00    1.22
  -5  -3  -4   13.23    1.15
  -5  -1  10   22.11    1.23
  -5   0   7  510.31    2.52
  -4  -1  10   37.60    1.19
  -3  -4  -6   17.29    1.10
  -3  -2  -4 1156.10    4.29
  -2  -5  -7    2.36    1.25
   0  -3  -6   83.71    1.33
   1  -4  -7   -0.27    0.98
   1  -1  -3  167.95    1.88
   2  -4  -7   82.06    1.35
   2  -3  -6   43.95    1.10
   5  -2   2   78.87    2.40
   6  -5  -6    1.54    1.05
  -9  -1   5   55.21    1.71
  -9  -1   7   48.18    1.43
  -7  -2  -1   44.61    1.87
  -7  -1  10   26.53    1.33
  -6  -4  -4   15.10    1.42
  -6   0   3   53.64    1.53
  -6   0   7   82.39    1.33
  -3  -3  -5    4.61    1.04
  -1  -1  -3 3350.99    7.80
  -1   0   6  185.42    1.66
   0  -1   8  216.27    1.80
   0   0   5  272.46    2.10
   1   0   2 2287.36    8.15
   3  -3   8  122.01    1.94
   4  -5  -7  117.00    1.63
   7  -4  -2   17.56    1.35
  -9  -1   8  106.92    1.78
  -5   0   8   -0.14    0.93
  -4   0   8   26.22    1.08
  -3  -1  10   15.97    0.95
  -2   0   7  267.16    1.81
  -1  -5  -7    1.78    1.11
   1  -2   9   13.00    1.28
   2  -2   8  109.54    1.66
   3  -2  -4  853.12    3.51
   3  -1   4  220.70    2.28
   4  -3  -5   22.90    0.81
   4  -2   5    1.74    1.29
   5  -6  -7   93.04    1.48
   5  -3  -4  393.25    2.50
   5  -3   5   64.51    1.75
   5  -2  -1  454.51    4.31
   6  -3  -2  179.70    2.37
   7  -6  -5    3.81    1.40
   7  -5  -4  115.85    1.80
  -9  -1   9   69.23    1.67
  -8  -1  10    5.59    1.01
  -7  -4  -3  200.65    2.55
  -7   0   5    6.55    0.94
  -7   0   6 1115.70    4.09
  -6  -3  -3    3.24    1.09
  -6  -1  11   42.03    1.39
  -6   0   8  273.95    1.98
  -5  -1  -1    4.63    1.17
  -5  -1  11   20.24    1.28
  -3   0   8  665.93    2.75
  -2  -4  -6    1.29    1.00
   0  -5  -7   11.47    1.24
   0  -2  10    9.25    1.36
   2  -1   6  445.69    2.66
   3  -5  -7 1294.05    3.83
   4  -4  -6   40.17    0.97
   4  -3   7  460.20    3.48
   4  -2  -3 1894.20    5.77
   6  -6  -6   48.87    1.47
   7  -4  -1  124.00    2.46
  -9  -1   4    6.17    1.62
  -8  -3  -1   58.66    2.29
  -7  -3  -2    7.51    1.53
  -4  -4  -5    3.15    1.07
  -4  -1  11    0.75    1.31
  -2  -3  -5  505.97    2.65
  -2  -2  -4  219.99    1.92
  -2  -1  10    0.85    0.84
  -1   0   7   25.55    1.04
   0   0   6    0.68    0.77
   1  -5  -7    2.31    1.08
   1   0   4    0.27    0.83
   2  -5  -7  214.20    1.73
   3  -2   7   32.37    1.37
   4  -6  -7  143.65    1.76
   5  -5  -6   15.07    0.89
   5  -4  -5   20.66    1.12
   6  -4  -4   63.88    1.31
   7  -4   0  238.76    3.91
  -7   0   4 2374.55    7.36
  -6   0   9   40.89    1.15
  -5   0   9  176.97    1.75
  -4  -2  -3  425.49    3.02
  -4   0   9    4.05    1.08
  -3  -1  11  271.21    2.17
  -2   0   8   11.54    0.77
   0  -1   9  129.96    1.60
   3  -6  -7  435.17    2.60
   3  -4  -6   29.41    0.92
   3  -3  -5  105.11    1.37
   3  -1  -1  508.64    4.91
  -4  -3  -4    0.69    0.96
  -3  -1  -2  725.53    4.33
  -3   0   9   15.28    1.10
  -1  -2  -4    2.15    0.85
   0  -6  -7  333.09    2.28
   0  -4  -6   -0.83    0.97
   1  -6  -7   -1.38    1.37
   1  -4  -6   55.62    1.23
   1  -1   8   91.17    1.30
   1   0   5   93.52    1.40
   2  -6  -7   42.41    1.51
   2  -4  -6  178.99    1.64
   3  -1   5    1.31    1.00
   5  -6  -6    1.88    1.32
   6  -3  -1  236.09    3.05
   7  -6  -4  659.75    3.63
 -10  -1   7  115.44    2.07
 -10  -1   8   59.39    1.79
  -8  -1   2  253.56    6.07
  -8   0   7   66.17    1.39
  -7   0   9   94.40    1.57
  -5  -4  -4    2.13    1.18
  -3  -4  -5  444.84    2.62
  -2  -5  -6  130.47    1.60
  -1  -3  -5   73.74    1.12
  -1   0   8   14.36    1.03
   0  -2  -4  273.41    2.09
   0   0   7 1418.84    4.17
   1  -2  -4  194.99    1.79
   2  -3  -5  280.67    1.95
   2  -2   9  157.43    2.05
   2  -1   7    2.24    1.04
   4  -5  -6   63.45    1.10
   5  -2   3  494.10    4.45
   6  -6  -5   96.14    1.79
 -10  -1   6    2.42    1.59
  -8   0   6    0.04    1.01
  -8   0   8   27.57    1.27
  -6  -1   0   32.33    2.07
  -6   0  10    1.28    1.19
  -5   0  10   14.89    0.96
  -4  -5  -5   26.13    1.34
   0  -3  -5  112.54    1.28
   1  -3  -5  303.20    2.01
   4  -4  -5   53.91    1.24
   4  -3  -4  834.22    3.44
   4  -2   6    8.22    1.17
   5  -3  -3   37.27    1.22
   5  -3   6    0.67    1.60
   5  -2   0   36.89    2.16
   6  -3   3    3.42    1.76
  -8   0   9   56.42    1.48
  -7   0  10   52.49    1.47
  -2  -6  -6    0.56    1.29
  -1  -5  -6   73.68    1.25
   1   0   6  348.15    2.28
   3  -5  -6  117.54    1.38
   3  -2  -3    5.25    0.87
   3  -2   8  167.76    2.18
   4  -6  -6   18.83    1.17
   5  -5  -5   24.21    1.12
   6  -5  -4   22.58    1.25
   7  -6  -3  187.32    2.40
   7  -5  -2    7.79    1.47
  -8   0   5   27.45    1.29
  -6  -4  -3   65.64    1.83
  -6   0  11   19.01    1.32
  -5  -3  -3    4.57    1.04
  -5  -2  -2   76.51    1.75
  -5   0  11    0.04    1.25
  -3  -3  -4  205.50    1.90
  -3   1   5  262.92    2.11
  -2  -4  -5   25.79    1.13
  -1   0   9   80.07    1.34
   0  -5  -6   25.40    0.96
   0  -1  10  368.81    2.39
   1  -5  -6   13.86    1.13
   1  -1   9    3.89    1.20
   2  -5  -6    3.30    0.81
   3  -1   6   72.79    1.47
   5  -4  -4  161.63    1.74
  -8   0  10   21.85    1.15
  -6   0   2  553.25    5.30
  -5  -5  -4   12.21    1.44
  -4   0  11  317.31    2.35
  -4   1   5   41.53    1.14
  -4   1   6  324.30    2.08
  -4   1   7  319.16    2.15
  -3  -2  -3  317.40    2.43
  -3   1   4 1153.38    4.44
  -3   1   6  258.67    1.85
  -2  -1  -2 1455.23    5.98
  -2   1   5  394.41    2.45
  -1  -6  -6   17.87    1.08
   0   0   8  198.60    1.66
   1  -1  -2   11.88    0.91
   2  -1   8    0.60    1.19
   2   0   4  197.39    2.04
   3  -6  -6   30.56    1.09
   3  -4  -5  364.11    2.27
   5  -6  -5   10.57    1.31
   5  -2   4    2.24    1.31
   6  -3   0   15.50    1.59
 -10  -1   5   13.23    1.69
  -9   0   7   24.54    1.30
  -9   0   8    6.22    1.34
  -9   0   9   79.37    1.80
  -7   0   3  715.59    5.03
  -5   1   5   82.57    1.37
  -5   1   6   20.87    0.81
  -5   1   7  535.58    2.57
  -4  -4  -4 1871.63    5.23
  -4   1   4 2016.66    5.95
  -3   0  11   11.89    1.30
  -3   1   7 3416.96    6.22
  -2   1   4  232.91    2.06
  -2   1   6  147.56    1.57
   0  -6  -6    2.82    0.96
   1   0   7   37.27    1.22
   2  -6  -6  124.13    1.63
   3  -3  -4  579.71    2.87
   4  -5  -5    5.31    1.03
   6  -6  -4   49.19    1.48
  -7  -4  -2   74.50    1.89
  -6   1   7  465.12    2.61
  -5   1   8  106.45    1.31
  -4   1   8  547.11    2.54
  -3  -6  -5  204.03    2.23
  -3   1   8  245.02    1.91
  -2  -3  -4   24.27    1.02
   0  -4  -5   47.79    1.22
   1  -4  -5  421.58    2.39
   2  -7  -6    2.11    1.12
   2  -4  -5  340.98    2.05
   2   0   2    0.71    0.75
   4  -2   7   59.51    1.78
   4  -1   2    1.91    1.15
   4  -1   3 1105.00    5.88
   7  -5  -1    2.07    1.27
  -9   0   6   16.52    1.51
  -6  -3  -2  139.09    1.99
  -6   1   6    2.62    0.90
  -6   1   8   93.53    1.25
  -5   1   9  276.61    2.10
  -4   1   9   34.33    1.24
  -2  -5  -5  249.73    2.01
  -2  -2  -3   45.64    1.23
  -2   0  11  170.78    1.97
  -1   0  10    1.02    0.89
  -1   1   4 2738.73    6.53
  -1   1   5  494.82    2.65
  -1   1   6   43.01    1.10
   0  -1  -2 2256.96    7.47
   0   0   9   78.22    1.53
   2  -3  -4   40.44    1.10
   2  -2  -3   92.15    1.35
   3  -1   7   72.34    1.62
   4  -4  -4  366.39    2.35
   4  -1   4    1.21    1.24
   5  -5  -4  139.95    1.73
   6  -5  -3  697.52    3.58
   6  -3   4   40.44    2.47
  -8  -4  -1   78.85    2.10
  -8   0   4   15.65    1.47
  -7  -1   1    4.41    2.23
  -6  -5  -3    1.29    1.47
  -6   1   9    1.17    0.81
  -5   1   4  933.81    4.21
  -3   1   3  223.92    2.28
  -3   1   9    2.76    1.10
  -2   1   3  423.51    2.98
  -2   1   8   36.19    0.98
  -1   1   7    2.72    0.93
   1   0   8   12.11    1.14
   2  -1   9   19.80    1.52
   2   0   6    1.92    0.96
   3  -5  -5   63.58    1.14
   4  -7  -5    0.83    1.43
   4  -3  -3  252.61    2.15
   5  -2   5   51.99    1.90
  -7   1   7  473.31    2.78
  -7   1   8    1.31    0.82
  -7   1   9  110.80    1.68
  -6  -2  -1    9.87    1.10
  -6   1   5  202.40    2.07
  -6   1  10   81.59    1.60
  -4  -5  -4    1.52    1.21
  -4  -3  -3  880.16    3.81
  -4  -1  -1 1303.71    6.80
  -4   1  10   36.69    1.45
  -3  -4  -4  822.45    3.38
  -2  -6  -5   11.82    1.01
  -1  -5  -5   29.25    1.00
   0  -3  -4   21.98    0.98
   1  -3  -4  869.18    3.40
   1  -2  -3    2.11    0.85
   2  -5  -5   87.01    1.45
   3  -6  -5  124.68    1.75
   5  -4  -3    6.91    0.94
   6  -6  -3    6.31    1.41
   7  -6  -1   50.40    2.11
   7  -5   0   81.23    2.39
 -10   0   8   15.74    1.64
  -9  -1   3   80.13    3.74
  -7  -3  -1    0.11    1.42
  -7   1   6   48.87    1.35
  -5  -4  -3  258.53    2.17
  -4   1   3  452.95    3.27
  -3   1  10   17.07    1.25
  -2   1   9  267.65    2.05
  -1  -6  -5   16.65    1.33
  -1  -2  -3   22.94    0.87
  -1   1   3  174.06    1.93
  -1   1   8  162.57    1.70
   0  -2  -3 1048.89    4.20
   0   0  10   11.65    1.47
   0   1   5  158.94    1.71
   0   1   6  123.75    1.51
   1  -5  -5  137.02    1.46
   2   0   7  108.03    1.57
   3  -7  -5   28.31    1.41
   4  -1   5   31.28    1.37
   5  -7  -4   37.09    1.50
  -8   1   9    0.33    1.15
  -6   1  11   41.60    1.58
  -5   1  11   22.01    1.54
  -4  -6  -4  901.73    3.91
  -4  -2  -2    6.74    0.94
  -1  -7  -5    9.19    1.17
   0  -6  -5    9.74    1.27
   0   1   4   39.77    1.01
   1  -6  -5  160.42    1.87
   1   0   9   16.09    1.31
   2  -7  -5   21.77    1.54
   2  -6  -5  111.90    1.45
   3  -4  -4  315.46    2.08
   3  -1   8  194.92    2.29
   6  -3   1  225.59    4.52
 -10   0   7  115.49    2.26
  -9   0   5   53.53    1.95
  -8   1   8    0.29    0.88
  -8   1  10    4.63    1.45
  -4   1  11   -0.22    1.12
  -3  -5  -4  161.45    1.85
  -2  -4  -4  104.51    1.31
  -2   1  10    0.06    1.32
  -1   1   9   82.59    1.49
   0  -7  -5   10.66    1.14
   0   1   7   17.26    0.87
   1  -7  -5   51.55    1.31
   3  -2  -2 1521.32    5.86
   4  -1   6    3.14    1.31
   6  -5  -2   54.18    1.45
   6  -4  -1   12.10    1.24
   7  -5   1    1.96    1.99
  -8  -3   0  197.10    2.98
  -8   1   7   88.82    1.69
  -7   1   5   77.60    1.70
  -6   1   4   57.74    1.48
  -5  -5  -3    0.85    1.39
  -3  -6  -4  435.42    2.89
  -3  -3  -3  254.76    2.10
  -3   1  11  260.38    2.13
  -1  -4  -4    2.03    0.97
   0   1   8  210.26    1.85
   2  -4  -4   29.41    1.10
   2   0   8  137.29    1.84
   3  -3  -3   76.62    1.36
   4  -7  -4  154.62    2.04
   4  -2  -1    1.07    0.96
   5  -5  -3   14.24    1.14
   5  -2   6   46.95    1.81
  -9  -3   1   86.06    2.81
  -7  -2   0  365.40    3.86
  -6  -4  -2    3.83    1.16
  -5  -6  -3  112.85    2.03
  -5  -3  -2  128.81    1.82
  -4  -4  -3  263.66    2.28
  -2  -5  -4   19.64    1.22
   1   0  10    4.35    1.40
   1   1   5  246.16    2.10
   4  -4  -3  799.23    3.48
   5  -6  -3   10.60    1.26
   6  -6  -2  192.05    2.28
  -9   1   9   68.79    1.86
  -5   1   3   72.21    1.62
  -2   1  11   40.00    1.28
  -1   1  10   60.29    1.28
   0   1   9  134.49    1.72
   1   1   4 2812.49    7.00
   1   1   6   91.47    1.45
   3  -7  -4   94.01    1.73
   3  -6  -4  113.34    1.61
   5  -7  -3    5.70    1.15
   5  -4  -2  148.74    1.94
   5  -3  -1  149.05    2.31
 -10   0   6   49.80    2.05
  -9   1   8  109.49    1.98
  -5   2   8   -0.69    1.14
  -5   2   9  145.09    1.74
  -4   2   7  315.47    2.23
  -4   2   8   37.11    1.30
  -3   2   7 1371.23    4.17
  -3   2   8  541.07    2.71
  -2  -7  -4   13.74    1.13
  -2  -6  -4   28.80    1.07
  -1   1   2   11.82    0.97
   1   1   7   15.03    1.10
   2  -5  -4    8.90    1.03
   2  -3  -3  193.31    1.89
   2   0   9  202.01    2.35
   4  -3  -2  297.91    2.53
   4  -1   7  660.18    4.01
  -7  -4  -1   10.77    1.67
  -6  -5  -2   59.38    1.72
  -6   2   8  227.11    2.00
  -6   2   9   39.72    1.41
  -5   2   7  374.46    2.28
  -5   2  10   15.10    1.36
  -4  -5  -3  566.38    3.09
  -4   2   6  115.15    1.52
  -4   2   9    6.29    0.92
  -3  -2  -2 1253.11    4.99
  -3   1   2  203.06    2.59
  -3   2   6    8.88    0.97
  -2   2   7  173.66    1.74
  -1  -7  -4  204.51    2.10
  -1  -6  -4    0.35    1.22
   1  -5  -4  231.22    1.79
   1   1   8   94.10    1.57
   2  -7  -4    1.98    1.04
   2  -6  -4    4.62    1.13
   3   0   7   33.62    1.47
   4  -5  -3  113.98    1.66
 -10  -1   4   74.77    4.32
  -9   1   7   51.47    1.69
  -8  -2   1    0.63    1.71
  -6   2   7   92.36    1.55
  -5   2   6   20.24    1.08
  -4  -6  -3  136.02    1.98
  -4   2  10   19.38    1.12
  -2   2   8    9.43    1.13
   0  -7  -4   20.18    1.16
   0  -6  -4  107.62    1.38
   0   1  10  381.79    2.73
   1  -7  -4   60.06    1.38
   1  -6  -4   72.27    1.26
   1  -3  -3   39.70    1.17
   2  -2  -2    2.85    0.87
   3  -4  -3   10.72    0.99
   4  -7  -3   46.53    1.60
   4  -6  -3  215.77    2.10
   6  -6  -1    0.79    1.59
   6  -4   0  161.91    2.62
  -7   2   8  104.10    1.75
  -7   2   9   90.73    1.48
  -7   2  10   40.90    1.70
  -5  -2  -1   33.90    1.37
  -5   2  11    0.59    1.21
  -4   2   5  134.66    1.68
  -4   2  11  248.76    2.43
  -3   2   5  821.30    3.45
  -3   2  10  624.23    2.91
  -2   2   5  802.29    3.49
  -2   2   9   71.58    1.57
  -1   2   7    8.36    1.04
   0  -3  -3 3215.99    6.82
   1   1   3 3436.17    8.37
   4  -1   8    8.63    1.70
   5  -7  -2   30.55    1.68
   5  -5  -2   74.16    1.48
  -8  -4   0    4.01    1.75
  -8   1   5   12.39    1.54
  -7  -5  -1    1.34    1.58
  -7   1   4  389.99    3.35
  -6  -3  -1  234.97    2.53
  -6   2   6   81.43    1.51
  -5  -4  -2   48.07    1.38
  -3  -7  -3   59.08    1.81
  -3  -5  -3  129.56    1.68
  -2  -2  -2    0.79    0.91
  -2   2  10  116.45    1.79
  -1   2   6  115.46    1.39
  -1   2   8   14.67    1.26
   1   1   9    5.44    0.99
   2   1   5  729.29    3.52
   2   1   6  466.71    2.82
   3   0   8  189.07    2.28
   5  -2   1   32.26    2.49
 -10   1   8   58.03    2.02
  -9  -2   2    0.24    1.95
  -7   2   7    7.78    1.19
  -5   2   5   57.96    1.31
  -3  -6  -3   91.86    1.61
  -2  -4  -3    9.01    0.80
  -1   2   5 1030.66    3.86
  -1   2   9   75.69    1.64
   2  -4  -3    5.62    0.91
   2   1   7    2.64    1.19
   3  -7  -3   23.47    1.12
   3  -6  -3   49.26    1.38
   3  -5  -3   38.29    0.99
  -9  -4   1   38.25    2.25
  -9   1   6  218.81    2.63
  -8  -1   2  260.44    6.44
  -8   2   8   26.92    1.55
  -6   1   3 1555.57    7.05
  -5  -6  -2   27.45    1.59
  -5  -5  -2   74.48    1.56
  -4   1   2  723.76    5.04
  -3   2   4  864.20    3.91
  -2  -7  -3   91.20    1.84
  -1  -4  -3   11.57    1.04
   0   2   7 1203.13    4.05
   1  -4  -3    1.87    0.95
   1  -2  -2  687.03    3.79
   2  -7  -3   30.74    1.51
   2   1   4   41.86    1.25
   2   1   8    0.80    1.16
   3  -3  -2   13.02    1.04
   4  -4  -2    7.13    0.92
   6  -5   0    1.48    1.48
  -2  -5  -3  259.86    1.98
  -2   2   4   62.01    1.19
  -1  -7  -3  164.01    2.08
  -1  -2  -2 1220.77    4.94
  -1   2  10   -0.79    1.07
   0  -4  -3  454.47    2.57
   0  -2  -2   19.84    1.09
   0   2   6    1.35    0.76
   0   2   8  170.81    1.85
   1  -7  -3    0.90    1.33
   1  -1  -1 1110.89    6.82
   2  -6  -3    0.13    1.19
   2  -5  -3   67.42    1.42
   4  -7  -2   18.90    1.45
   5  -1   5   86.66    2.25
   6  -3   2  136.42    4.08
  -9   2   9   76.49    1.92
  -8   0   3   17.31    2.02
  -7   2   6  859.38    3.95
  -6  -4  -1   26.41    1.59
  -6   2   5  405.11    2.89
  -5  -1   0 1132.15    7.30
  -4  -4  -2    7.18    1.15
  -4   2   4  906.44    4.08
  -3  -3  -2  309.43    2.47
  -1  -6  -3   22.87    1.30
  -1  -5  -3  494.22    2.69
  -1   2   4  212.97    2.01
   0  -7  -3  321.33    2.25
   0   2   5  168.34    1.78
   0   2   9   61.19    1.64
   2   1   9   19.39    1.48
   4   0   5    1.67    1.18
   4   0   6   11.62    1.35
   5  -7  -1   14.15    1.52
   5  -1   6    0.09    1.57
 -10   1   7  122.63    2.48
  -8   2   7   57.88    1.66
  -7  -3   0  118.54    2.10
  -4  -7  -2    0.11    1.21
  -2  -1  -1  616.42    4.71
   0  -6  -3  109.68    1.47
   0  -5  -3 1006.26    3.59
   4   0   4 3785.75    9.92
   5  -6  -1   72.98    1.74
   5  -5  -1   54.73    1.49
   5  -3   0  510.81    4.23
   6  -4   1   26.82    1.81
 -10   0   5   10.22    2.15
  -9   2   8    6.46    1.81
  -6  -6  -1   26.02    1.73
  -6  -5  -1  144.94    2.14
  -6   3  10   68.79    1.72
  -5   3   8   61.93    1.48
  -5   3   9  179.28    1.84
  -5   3  10   14.55    1.60
  -4  -6  -2    8.02    1.06
  -4  -5  -2    0.70    1.08
  -4   3   8  411.20    2.56
  -4   3   9   17.25    1.08
  -4   3  10   23.48    1.64
  -3   3   9    1.26    1.27
   0   2  10    9.80    1.65
   1   1   2    4.10    0.88
   1   2   6  218.86    2.00
   1   2   7   11.76    1.18
   2  -8  -2    3.42    1.46
   2  -3  -2 2885.52    7.22
   2   1   3 1661.82    6.07
   3  -7  -2    0.34    1.37
   3  -4  -2  367.49    2.59
   4   0   7   73.23    1.97
  -6  -2   0  292.88    3.25
  -6   3   8   63.77    1.53
  -6   3   9    0.93    1.04
  -5  -3  -1    3.09    1.10
  -5   2   4  365.45    2.77
  -4  -2  -1 1152.68    5.36
  -4   3   7  228.47    2.04
  -3  -7  -2   64.70    1.65
  -3   3   7 2497.24    5.68
  -3   3  10   12.01    1.60
   0  -8  -2   -1.20    1.73
   0  -1  -1 3952.96   12.48
   0   2   4  278.75    2.19
   1  -8  -2   26.10    1.76
   1   2   8    6.92    1.29
   3  -6  -2   92.52    1.59
   3   1   5    1.58    1.02
   3   1   7   65.20    1.60
   5  -1   7   78.44    2.33
   6  -6   1   21.63    2.01
  -7   3   9   70.11    1.82
  -7   3  10   16.63    1.39
  -5   3   7  361.37    2.30
  -3  -4  -2  451.92    2.69
  -2  -3  -2  518.44    2.98
  -2   3   7  341.79    2.32
  -2   3   9  159.51    1.72
  -1  -1  -1  105.80    2.15
   1   2   5   65.95    1.36
   1   2   9   15.15    1.58
   2  -7  -2  303.22    2.42
   3  -5  -2    0.32    0.97
   4  -7  -1   53.57    1.73
   4   0   8    3.04    1.70
   5  -7   0   51.38    1.96
   5  -1   3   30.42    1.95
   6  -5   1  143.23    2.42
  -8  -3   1    9.14    1.76
  -8   2   6    0.66    1.27
  -7  -4   0  243.50    2.60
  -7   2   5    4.99    1.12
  -6   3   7  345.22    2.48
  -4   3   6  203.78    1.99
  -3  -5  -2  149.85    1.77
  -3   2   3    4.32    1.01
  -3   3   6  173.74    1.84
  -2  -7  -2   72.64    1.47
  -2   3   6   48.68    1.25
  -2   3  10    2.07    1.10
  -1  -3  -2   54.05    1.33
  -1   2   3    2.20    0.93
  -1   3   8   79.83    1.56
   1  -7  -2   -1.51    1.38
   1  -3  -2   17.44    1.05
   3   1   8  191.49    2.41
   4  -2   0   80.08    2.15
   4   0   3  499.32    4.21
  -9   1   5   57.84    2.14
  -9   2   7   23.62    1.65
  -7  -5   0   84.98    2.02
  -7   3   8    0.86    1.02
  -5  -4  -1   13.61    1.28
  -5   3   6   23.36    1.22
  -2  -6  -2   -0.38    1.31
  -2  -4  -2   -0.49    0.98
  -1  -7  -2    1.89    1.03
  -1   3   7    2.94    1.13
  -1   3   9   52.88    1.64
   0  -7  -2   68.43    1.60
   0  -3  -2  563.49    3.16
   2  -6  -2    4.19    0.89
   2  -5  -2  919.80    3.73
   2  -4  -2    1.74    0.69
   3   1   4  224.82    2.40
   4  -6  -1   24.70    1.40
   4  -4  -1    9.48    1.12
   5  -6   0    3.23    1.40
   6  -2   5    6.27    2.36
  -8   1   4  128.07    2.64
  -8   3   9   -0.77    1.20
  -6   2   4   74.44    1.71
  -5  -5  -1   -0.05    1.29
  -5   1   2  337.21    3.94
  -4  -7  -1   68.71    1.94
  -2  -5  -2  192.37    1.96
  -1  -6  -2   80.26    1.57
  -1   3   6   16.37    1.18
  -1   3  10   42.47    1.47
   1  -6  -2   70.85    1.55
   1   2   4    2.22    0.73
   2  -8  -1   23.60    1.61
   2   2   6    0.94    1.13
   2   2   7  103.78    1.74
   2   2   8  112.15    1.82
   3  -7  -1    2.42    1.48
   4  -5  -1  119.48    1.77
   5  -5   0  166.69    2.21
 -10   1   6    1.09    2.01
  -9  -3   2   36.55    2.20
  -8  -4   1    1.33    1.74
  -7   3   7  398.30    2.82
  -4   2   3 1928.87    6.49
  -3   3   5  104.97    1.56
  -2   3   5  290.90    2.21
  -1  -5  -2   11.49    1.19
  -1  -4  -2  350.48    2.39
   0  -6  -2    0.54    0.89
   0  -4  -2    2.90    0.95
   0   2   3 1022.67    4.39
   0   3   7   18.65    1.22
   0   3   8  188.98    2.05
   1  -8  -1   42.61    1.79
   1  -5  -2    3.36    1.08
   1  -4  -2  229.50    1.94
   6  -4   2    3.32    1.89
  -8  -5   1    7.02    1.72
  -8   3   8    0.08    1.55
  -6   3   6    0.25    0.89
  -4  -6  -1  194.04    2.19
  -4  -3  -1  651.54    3.60
  -4   3   5   23.51    0.96
  -3  -2  -1  124.67    1.94
  -1  -8  -1    3.58    1.27
  -1   3   5  303.44    2.27
   0  -8  -1    7.71    1.54
   0  -5  -2  184.41    1.73
   0   3   6   81.37    1.55
   0   3   9   93.98    1.60
   2  -2  -1  756.15    4.65
   2   2   5   46.26    1.32
   3  -3  -1  178.07    2.20
   4  -7   0   33.16    1.76
   6  -5   2   57.97    2.24
 -10  -3   3  275.84    4.29
  -6  -6   0   93.19    2.01
  -6  -3   0   15.73    1.30
  -5   3   5   68.04    1.41
  -4   4   9    7.05    1.42
  -4   4  10   14.14    1.68
  -3  -7  -1  110.49    1.69
  -1   1   1 1047.93    6.65
   2   1   2 1486.87    6.51
   3   1   3  486.69    3.61
  -9  -4   2   -0.15    1.83
  -9  -1   3   79.00    4.08
  -7   1   3 2341.82   10.21
  -6  -5   0    2.23    1.37
  -5   4   9   89.01    1.59
  -4  -5  -1  216.96    1.94
  -4  -4  -1  501.17    2.98
  -3   4   9   10.28    1.58
  -3   4  10  391.55    3.05
  -2  -7  -1   24.78    1.56
  -2   1   1  818.98    6.27
   1  -7  -1  133.81    1.99
   3  -5  -1   26.22    1.22
   3  -4  -1  102.38    1.70
   4   1   6    3.84    1.35
   4   1   7  627.01    3.94
   5  -6   1   10.28    1.59
   5   0   6   59.09    2.12
  -8   2   5   22.40    1.73
  -8   3   7   58.97    1.77
  -7  -2   1  228.38    3.01
  -7   3   6   35.48    1.56
  -6  -4   0  154.97    1.99
  -6   4   9   27.52    1.34
  -5   2   3    0.62    0.99
  -5   4   8    0.98    1.39
  -3  -6  -1   43.09    1.36
  -2   3   4   40.06    1.21
  -2   4   9   41.99    1.81
  -1  -7  -1    6.12    1.33
   0  -7  -1  226.58    2.19
   0   1   1 3980.82   12.55
   1   2   3   22.74    0.95
   1   3   7    4.11    0.91
   1   3   9    1.35    1.64
   2  -8   0   57.76    1.64
   2  -6  -1   72.80    1.56
   2   2   4  199.76    1.97
   4   1   8    7.91    1.84
   5   0   5   56.51    2.07
 -10   2   7   92.91    2.74
  -7  -6   1   50.55    2.03
  -7   4   9   48.39    1.92
  -6   4   8  116.69    2.05
  -4   4   7  218.20    2.14
  -3  -3  -1 1197.95    4.82
  -3   4   7  813.22    3.49
  -2  -2  -1  151.06    2.10
  -2   4   8    1.30    1.08
  -1   3   4  841.42    3.70
   1  -8   0   96.45    2.01
   1   3   6   97.13    1.63
   3  -7   0  300.32    2.42
   3   2   6   30.45    1.49
   3   2   7   30.68    1.61
   3   2   8  159.45    2.38
   5  -3   1    3.36    1.32
   6  -3   3    3.21    2.03
  -7   2   4 1897.73    7.36
  -6   3   5  123.12    1.87
  -5  -6   0    4.10    1.36
  -5  -2   0   36.54    1.42
  -5   4   7  205.61    2.12
  -4  -7   0   30.56    1.55
  -4  -1   0  130.25    2.63
  -4   3   4  849.16    3.85
  -3  -5  -1  354.86    2.35
  -3  -4  -1   46.77    1.31
  -2  -8   0   61.91    1.61
  -2  -6  -1    3.24    0.95
  -1  -8   0   93.70    2.09
  -1  -6  -1   13.49    1.33
  -1   4   8    7.52    1.47
  -1   4   9   53.24    1.86
   0  -8   0 1196.91    4.61
   1  -2  -1 2638.22    8.29
   2  -5  -1  115.21    1.72
   2  -3  -1  484.48    3.31
   4  -7   1   63.80    1.65
   4  -5   0   50.57    1.52
   6  -5   3    0.28    1.66
  -7  -5   1    0.93    1.63
  -3   4   6   30.12    1.37
  -1  -2  -1  156.38    2.16
  -1   2   2  685.72    3.94
  -1   4   7   -0.27    1.33
   0   3   4   20.73    1.09
   1   3   5   73.39    1.52
   2  -7   0    0.22    1.39
   2  -4  -1  209.50    2.12
   3   2   5  848.27    4.01
   4  -4   0   70.57    1.64
   4   1   4    1.82    1.19
   5  -4   1   13.28    1.39
 -10  -1   4   75.06    4.50
  -7  -4   1  116.47    2.07
  -7  -3   1    1.02    1.37
  -6   4   7   72.57    1.44
  -5  -5   0  173.56    2.09
  -4   4   6   40.08    1.15
  -3  -7   0  311.15    2.49
  -2  -5  -1  110.32    1.47
  -2  -3  -1  434.70    3.02
  -2   4   6  156.17    1.64
   0  -2  -1  233.90    2.50
   0   4   9   33.28    1.74
   2   3   7    2.11    1.43
   2   3   8    0.59    1.55
   3  -6   0  148.69    1.92
   5  -6   2   26.32    1.81
   5   0   4    5.91    1.59
  -9   3   7   36.54    1.75
  -8   3   6   -0.18    1.45
  -6  -1   1  359.70    4.45
  -5  -4   0   12.47    1.26
  -5  -3   0  507.12    3.42
  -5   3   4  390.32    2.86
  -5   4   6    6.85    1.19
  -4  -6   0   50.34    1.55
  -3   1   1  524.01    5.48
  -3   2   2 1415.97    6.07
  -2  -7   0    1.68    1.48
  -2  -4  -1   17.85    0.87
  -1  -5  -1   21.91    1.00
   0  -5  -1  532.48    2.90
   0   2   2   19.81    0.97
   0   4   7  713.08    3.39
   0   4   8   75.35    1.50
   1  -4  -1  807.07    3.76
   1  -3  -1  104.25    1.74
   2   3   6  320.40    2.49
   3  -7   1  113.41    2.05
   4  -6   1  198.60    2.42
   4   0   2    6.75    1.32
  -8  -5   2   73.41    2.13
  -8  -2   2   16.82    1.79
  -8   4   8   18.88    1.71
  -7   3   5   51.51    1.74
  -7   4   7    3.69    1.52
  -6  -6   1    1.32    1.16
  -5  -7   1   16.86    1.37
  -1  -7   0   51.09    1.57
  -1  -4  -1   62.29    1.37
  -1  -3  -1   89.01    1.61
   0  -7   0    0.97    1.10
   0  -4  -1   81.46    1.52
   1  -8   1    2.62    1.24
   1   3   4 1306.08    4.61
   3   2   4 1213.87    4.92
   4  -7   2    0.11    1.61
  -6   2   3   57.99    1.88
  -6   4   6   67.05    1.62
  -4   5   9    4.96    1.41
  -3  -6   0  148.79    1.97
  -3   4   5  353.87    2.54
  -3   5   9   -0.39    1.92
  -2  -8   1   24.76    1.49
  -2   3   3  188.96    2.03
  -2   4   5  347.77    2.44
  -1  -8   1   43.69    1.94
  -1   3   3   35.48    1.23
   0  -8   1    8.21    1.34
   0  -3  -1 1588.87    5.48
   0   4   6    0.21    1.23
   2  -6   0  194.56    1.87
   2   3   5  515.49    3.02
   3  -5   0  834.35    3.79
   3   0   1  329.75    5.37
  -8  -4   2   11.18    1.65
  -8  -3   2  146.91    2.60
  -6  -5   1  106.51    1.91
  -4  -7   1   50.85    1.85
  -4   4   5   52.39    1.46
  -4   5   8  254.34    2.58
  -3   3   3   79.64    1.56
  -1   4   5  426.65    2.67
   1   2   2 1225.62    5.24
   1   4   7   -0.33    1.24
   1   4   8    3.19    1.28
   2  -7   1   23.35    1.67
   3   1   2  729.17    4.83
   4   2   6    9.00    1.55
   5   1   7   76.03    2.57
  -7  -6   2   18.64    1.68
  -6   3   4   38.14    1.43
  -5  -6   1   72.45    1.81
  -5   5   8   31.47    1.33
  -4   2   2   26.93    1.34
  -2  -6   0  203.68    1.91
  -2   5   8   14.43    1.72
   0  -6   0 3541.79    7.18
   0   3   3 3317.86    7.42
   1  -6   0  202.02    1.91
   3  -4   0  381.22    2.88
   3   3   7   55.50    1.91
   3   3   8  128.51    2.41
   4  -5   1  211.54    2.30
   4   1   3 1065.77    5.59
   5   1   6    1.01    1.55
   6  -4   4   13.59    2.53
   6  -1   5   63.24    3.27
 -10   2   6   35.80    2.27
  -9  -4   3   87.79    2.50
  -9   2   5   41.11    2.16
  -8   4   7   34.05    1.90
  -5   4   5   22.28    1.37
  -4  -4   0   70.00    1.32
  -4  -2   0   77.07    1.74
  -4   3   3  252.44    2.44
  -4   5   7  117.24    1.99
  -3  -7   1   -0.57    1.57
  -3  -5   0  860.39    3.74
  -2   5   7  205.35    2.16
  -1  -6   0  195.95    1.90
  -1   5   8   24.43    1.57
   0   4   5   47.15    1.20
   1  -7   1    6.11    1.44
   1   4   6   72.31    1.62
   2  -5   0    5.36    1.13
   3  -7   2   67.18    2.01
   3  -6   1   37.93    1.25
   3  -3   0 2692.84    8.12
   3   3   6   65.27    1.72
   4  -6   2    8.20    1.52
   4   2   5    2.75    1.25
  -9  -2   3  142.08    3.05
  -7   4   6  456.68    3.26
  -6  -4   1   11.44    1.25
  -5   5   7  176.38    2.28
  -4  -3   0   60.98    1.44
  -2  -7   1   26.84    1.61
   0  -8   2    0.27    1.72
   0  -7   1  231.42    2.33
   2   4   8   68.52    2.01
   3   2   3  306.60    2.73
   5  -4   2   47.18    1.74
   5   1   5   82.93    2.09
 -10   1   5   14.21    2.65
  -9  -3   3   52.70    1.99
  -9   3   6  156.78    2.72
  -7  -5   2    9.32    1.62
  -6  -3   1  225.86    2.52
  -6  -2   1   41.84    1.60
  -6   1   2  462.49    6.11
  -4  -6   1   23.22    1.48
  -3   4   4  314.85    2.46
  -2  -8   2    2.47    1.39
  -2  -5   0    6.68    1.15
  -1  -7   1  124.97    1.72
  -1   4   4   96.40    1.65
  -1   5   7    2.36    1.13
   0   5   8  112.29    2.03
   1  -5   0   80.55    1.57
   1   3   3 1458.99    5.04
   1   4   5   32.00    1.43
   2  -1   0  132.68    3.37
   2   4   7   54.56    1.86
   3   3   5    3.83    1.35
   5   0   3  619.57    5.83
   6  -3   4   38.32    2.91
 -10  -3   4   66.89    2.77
  -8   2   4   13.06    1.79
  -8   3   5   10.31    1.48
  -6  -6   2  192.38    2.38
  -6   4   5  226.23    2.39
  -6   5   7  193.60    2.42
  -5  -5   1   54.65    1.47
  -4   4   4  340.80    2.57
  -4   5   6   65.75    1.63
  -3  -4   0  396.04    2.71
  -3   5   6  111.26    1.61
  -2   5   6    2.35    1.01
  -1  -5   0   78.65    1.53
   0  -5   0    2.40    1.14
   2  -7   2   74.60    2.00
   2  -6   1    3.76    1.13
   2  -4   0  658.85    3.61
   2   4   6    1.77    1.31
   5  -5   3    1.34    1.64
   5  -3   2  123.76    2.69
   5  -2   2   74.13    2.89
  -5   5   6   18.13    1.43
  -4  -7   2   21.58    1.73
  -3  -6   1   42.45    1.58
  -1   5   6   11.12    1.08
   0   4   4  163.08    1.73
   0   5   7   10.99    1.22
   2   1   1  598.17    4.88
   3  -7   3   61.22    2.12
   3  -5   1  370.58    2.82
   4  -3   1  632.21    4.53
   4   2   4 3030.73    8.13
  -9   1   4    5.24    2.42
  -8  -5   3    7.89    1.66
  -7   5   7  240.64    2.68
  -5   3   3   40.03    1.50
  -3  -3   0 2567.38    7.18
   0   5   6   23.91    1.42
   1  -7   2    1.86    1.46
   1  -6   1   11.07    1.23
   1  -4   0  585.89    3.37
   2  -3   0   29.18    1.34
   3  -6   2  125.33    1.99
   4  -6   3  131.81    2.41
   4  -5   2    0.52    1.33
   4  -2   1 1104.27    7.38
   5   1   4   10.69    1.46
  -8   4   6    1.50    1.62
  -7  -6   3  183.57    2.47
  -7   3   4  220.23    2.74
  -5  -6   2   61.76    1.77
  -5  -4   1  211.44    2.22
  -5   4   4  159.55    2.05
  -4  -5   1  113.77    1.77
  -3  -7   2   -0.07    1.14
  -3  -2   0 1412.65    6.14
  -3   5   5   61.07    1.60
  -1  -6   1  170.44    2.02
  -1   3   2   17.32    1.16
   0  -7   2   66.43    1.87
   0  -6   1   22.76    1.43
   1   4   4    1.90    1.15
   1   5   7    1.88    1.60
   2   3   3  686.12    3.50
   2   4   5   25.39    1.37
   3   3   4  185.64    1.98
  -7   4   5    3.43    1.51
  -6  -5   2   57.21    1.71
  -6   5   6    2.10    1.52
  -5  -7   3    7.83    1.80
  -5   2   2  233.70    3.11
  -4   5   5    6.06    1.29
  -2   3   2 2876.04    7.54
  -1  -7   2    0.06    1.41
  -1  -4   0  580.12    3.18
  -1   5   5  136.32    1.65
   0  -4   0 9999.00   12.89
   0   3   2  583.51    3.38
   2  -7   3   86.86    2.05
   2  -5   1  107.42    1.74
   3   4   7   19.50    1.43
   5  -5   4   13.12    2.26
   5   2   6   45.50    2.02
  -8  -4   3   15.74    1.63
  -7  -3   2   21.94    1.43
  -4   1   1  825.03    8.29
  -4   6   7  141.88    2.29
  -3   6   7  426.38    3.04
  -2  -3   0   32.22    1.31
  -2   4   3    7.94    0.79
  -1   2   1 2739.04    8.68
  -1   4   3    0.52    1.10
   0   2   1  232.11    2.65
   0   5   5   31.62    1.52
   1   5   6   81.29    1.84
   2  -6   2    0.60    1.34
   3  -4   1   47.55    1.46
   3   4   6   17.10    1.61
   4   3   5   23.06    1.58
   5  -4   3  251.23    3.26
   6   0   5    5.95    2.26
  -7  -1   2   43.27    2.08
  -7   2   3  611.81    5.25
  -5   5   5   26.04    1.54
  -5   6   7   87.41    2.07
  -4  -6   2    0.46    1.41
  -3   3   2   12.38    0.91
  -2   2   1  735.55    4.80
  -1   6   7    0.74    1.58
   0   4   3  436.99    2.79
   1  -3   0  179.13    2.07
   1   3   2   54.05    1.44
   2   4   4   96.76    1.71
   2   5   7    2.17    1.67
   4  -6   4  838.50    4.82
   4   2   3  417.63    3.37
   5   2   5   52.68    1.82
  -9  -4   4   49.97    2.25
  -7  -5   3  839.30    4.18
  -7  -2   2    8.75    1.31
  -7   5   6   23.62    1.84
  -6  -6   3    8.39    1.25
  -6   4   4   65.41    1.65
  -4  -4   1    8.61    1.10
  -2  -5   1  114.02    1.76
  -2  -2   0 2116.23    7.64
  -1  -3   0  177.29    2.10
   0  -3   0    0.82    1.06
   1  -7   3  153.79    1.98
   1  -5   1   22.98    1.05
   1   5   5   24.91    1.41
   3  -5   2  144.46    2.10
   3   2   2 1188.98    5.33
   3   4   5  462.94    3.05
   4   1   2    0.08    1.05
   6  -3   5   45.39    3.20
  -6   3   3 1109.92    5.50
  -5  -5   2   70.72    1.63
  -5  -2   1  433.36    3.59
  -4   4   3  744.12    3.76
  -3  -7   3   23.19    1.65
  -3  -6   2   90.70    1.71
  -3   5   4  229.52    2.26
  -3   6   6   31.33    1.33
  -2   5   4    7.58    0.94
  -1  -5   1  119.65    1.75
  -1   5   4  230.93    2.16
   0  -7   3  353.70    2.77
   0  -5   1  539.62    3.06
   0   6   7  340.50    3.10
   1  -6   2   76.32    1.43
   1   2   1  169.66    2.26
   1   4   3   12.22    1.18
   2  -7   4   14.68    1.77
   2   5   6  136.27    2.24
   3   3   3  235.90    2.15
   4  -5   3  516.91    3.63
  -9   4   6    5.47    2.16
  -8  -3   3   19.97    1.57
  -7  -6   4  691.73    3.95
  -6   5   5   34.35    1.64
  -5  -1   1  159.19    2.89
  -4   3   2  270.02    2.73
  -2  -7   3   29.61    1.32
  -2  -6   2    3.38    1.41
  -1  -7   3    0.24    1.18
  -1  -6   2   68.02    1.66
   0  -6   2    0.24    1.31
   0   5   4   22.67    1.33
   1  -2   0 1736.56    7.31
   2  -4   1   17.06    1.22
   4   3   4    0.55    1.30
   5   1   3   28.85    1.82
   6   1   6  304.30    4.23
  -9   3   5   39.97    2.09
  -8   4   5   12.66    1.98
  -5  -6   3   10.59    1.37
  -5   6   6    0.00    1.72
  -4   5   4  336.28    2.45
  -3  -4   1  100.04    1.65
  -1  -2   0 1791.98    7.05
   0   6   6    1.43    1.68
   1  -7   4  197.20    2.60
   2  -6   3    0.91    1.46
   2   3   2  529.08    3.28
   2   5   5  245.57    2.45
   3   4   4  770.61    3.76
   4   4   6    4.52    1.79
   5   2   4    2.24    1.43
   5   3   6   -0.34    2.07
  -9  -3   4    2.41    1.89
  -4  -7   4  145.88    2.32
  -4  -5   2   76.26    1.62
  -4  -3   1  239.62    2.44
  -3   2   1  247.59    3.02
  -3   6   5  115.63    2.03
  -2   6   5  126.68    2.02
  -1   6   5  149.91    2.03
   1   5   4  546.03    3.08
   2  -5   2  200.79    2.15
   2   4   3    8.15    1.23
   3  -6   4  424.33    3.34
   3   1   1 2634.32   10.31
   5  -4   4    1.82    1.76
   5  -3   3    5.53    1.72
   6   1   5   68.32    2.83
 -10  -3   5    8.70    2.21
  -8  -2   3   14.81    1.77
  -8   3   4  116.77    2.62
  -8   5   6    0.61    1.86
  -7  -4   3  381.46    3.04
  -6  -5   3  696.86    3.60
  -6  -3   2  179.70    2.30
  -6   6   6   46.12    2.05
  -5   4   3    5.16    1.29
  -5   5   4  130.89    2.03
  -4  -6   3  209.89    2.28
  -4   6   5   23.72    1.58
  -2  -4   1  207.31    2.11
  -1   4   2  238.53    2.23
   0  -7   4   21.25    1.69
   1  -4   1   59.68    1.52
   1   6   6   17.04    1.87
   2   2   1  148.91    2.17
   3   5   6   41.75    1.96
   4  -5   4    0.81    1.61
   4   4   5    1.88    1.62
  -7   4   4 1214.48    5.53
  -7   5   5   35.95    1.80
  -6  -6   4   48.24    1.49
  -5  -4   2  145.43    1.93
  -3  -7   4   92.29    1.69
  -3  -5   2    0.14    1.25
  -2  -7   4    1.96    1.74
  -2   4   2    1.19    1.08
  -2   5   3   66.15    1.63
  -1  -7   4   58.63    1.79
  -1  -1   0  517.07    5.19
  -1   5   3    6.44    1.25
   0  -4   1   81.18    1.58
   0   4   2    3.44    1.05
   1  -6   3   17.15    1.34
   3  -5   3  127.32    2.10
   4  -3   2    3.74    1.45
   5   3   5   62.60    2.04
   6   0   4   35.49    2.70
  -7  -5   4  110.50    2.11
  -3  -6   3   52.48    1.52
  -3   5   3   40.13    1.44
  -1  -4   1  804.05    3.72
   0  -6   3  108.40    1.88
   0   5   3 1016.23    3.86
   1  -7   5    8.45    1.47
   1  -5   2   10.45    0.97
   1   4   2  337.27    2.52
   2   5   4   19.59    1.11
   3  -6   5  201.49    2.83
   3   3   2  298.70    2.59
   3   5   5   16.97    1.67
   4   2   2    6.36    1.32
   4   3   3  874.50    4.32
  -8  -4   4    0.29    1.43
  -8  -1   3   26.73    2.10
  -7  -6   5    5.15    1.45
  -5  -6   4   65.36    1.82
  -5  -5   3   16.42    1.36
  -5   3   2  141.69    2.44
  -3   4   2  361.48    2.75
  -2  -6   3   -0.66    1.04
  -2  -5   2  925.80    3.83
  -2   6   4    3.50    1.46
  -2   7   6    0.22    2.04
  -1  -6   3    5.65    1.38
  -1   3   1  106.26    1.64
  -1   6   4   75.15    1.73
   0  -7   5   10.60    1.91
   0   3   1 1606.18    5.61
   1   5   3  480.93    2.92
   1   6   5   14.18    1.28
   2  -6   4   27.24    1.32
   2  -3   1  442.23    3.39
   2   6   6    0.41    1.94
   3   4   3  164.37    2.00
   4   4   4 1758.46    5.78
   5  -4   5   28.09    2.38
 -10   2   5    9.54    3.09
  -9  -4   5   25.45    1.96
  -9  -2   4   75.00    2.18
  -8  -5   5   12.87    1.92
  -6   5   4   24.59    1.60
  -4  -7   5    0.28    1.38
  -4  -2   1   -0.13    1.07
  -4   5   3  110.95    1.81
  -3  -3   1  178.32    2.02
  -3   6   4  107.88    1.84
  -2   3   1  491.94    3.43
  -1  -5   2    2.67    0.92
   0   6   4  104.54    1.93
   1   3   1   93.46    1.70
   3  -2   1  121.04    2.38
   4  -5   5   25.50    1.99
   5   2   3  482.02    3.83
   5   3   4   12.77    1.56
   6  -2   5    5.64    2.85
 -10  -2   5   10.12    1.86
  -8   0   3   15.79    2.24
  -7  -3   3 1488.57    5.76
  -7   3   3 1560.95    7.47
  -6  -4   3   26.92    1.54
  -6  -2   2  379.54    3.40
  -6   2   2  400.19    4.50
  -6   4   3   27.61    1.53
  -6   6   5   95.33    2.26
  -4  -4   2    7.04    1.20
  -4   6   4  126.46    2.04
  -3  -7   5   27.56    1.50
  -2  -7   5   21.65    1.80
  -1  -7   5   52.48    1.60
   1  -6   4   -1.02    1.50
   2  -5   3  266.83    2.54
   2   4   2    0.82    1.08
   2   6   5   13.31    1.79
   3   5   4  160.18    2.19
   6   1   4   54.55    2.56
   6   2   5    6.45    1.75
  -6  -6   5   92.44    1.98
  -4  -6   4  131.26    1.73
  -4  -5   3  110.70    1.79
  -4   4   2    6.70    1.15
  -2  -3   1  483.49    3.30
  -2   7   5   18.96    1.91
  -1   7   5   52.89    1.87
   1   6   4    1.19    1.08
   2  -6   5   13.33    1.78
   2  -4   2    0.08    1.06
   2   5   3  265.72    2.39
   3  -5   4  154.35    2.25
   3   2   1  122.01    2.07
  -9   2   4   73.53    3.58
  -9   4   5   22.12    2.25
  -8   5   5   15.38    1.90
  -6  -5   4   22.46    1.26
  -4   2   1   -0.08    1.18
  -3  -6   4  114.35    1.93
  -3   7   5   30.85    1.48
   0  -6   4  110.67    1.82
   0   7   5   10.43    1.73
   1  -3   1   91.61    1.76
   2   3   1  459.92    3.14
   4   5   5   23.72    1.45
   5  -3   4   13.13    1.92
   5   4   5   30.06    1.96
  -9  -1   4    5.98    1.93
  -8  -3   4  114.62    2.16
  -7  -4   4 1190.58    4.81
  -5  -6   5   10.96    1.62
  -5   5   3   15.20    1.51
  -5   6   4   66.78    1.91
  -4   7   5    0.39    1.36
  -3  -5   3   41.31    1.53
  -3  -4   2  380.37    2.65
  -2  -7   6    3.59    1.77
  -2  -6   4    3.90    1.05
  -2   5   2  910.72    3.94
  -2   6   3    0.68    1.40
  -1  -3   1  110.79    1.78
  -1   5   2    2.18    0.91
  -1   6   3    6.70    1.40
   0  -3   1 1617.74    5.85
   0   5   2  186.79    1.83
   1  -5   3  482.48    2.96
   2   6   4   30.01    1.64
   3   6   5  192.57    2.69
   4   3   2    3.71    1.26
   4   4   3  268.06    2.58
   5  -2   3  468.99    5.17
 -10  -1   5   13.79    2.48
  -8   4   4    1.71    1.95
  -7   5   4  112.37    2.31
  -7   6   5    3.43    1.95
  -3   6   3   45.45    1.50
   0  -5   3 1007.86    4.16
   0   4   1   83.90    1.61
   1  -6   5   19.19    1.56
   1  -4   2  348.81    2.70
   1   5   2   11.92    1.31
   2  -6   6    0.82    1.46
   3  -4   3  160.50    2.21
   3   4   2  438.84    2.79
   3   5   3  130.41    1.89
   4   5   4    2.57    1.44
   5   1   2  142.99    2.90
   5   3   3    4.38    1.29
   5   4   4    1.90    1.42
   6   2   4   27.37    2.17
  -9  -3   5   45.85    1.98
  -8  -5   6    0.10    1.66
  -8  -4   5   13.35    1.75
  -5  -5   4  134.42    1.95
  -5  -4   3    5.09    1.20
  -4  -6   5   24.49    1.65
  -3  -2   1  242.54    2.70
  -3   5   2   -0.32    1.18
  -2  -5   3   68.25    1.31
  -2  -4   2    1.42    0.76
  -2   7   4    3.41    1.70
  -1  -5   3    7.41    1.29
  -1   4   1  844.17    3.84
  -1   7   4   56.89    2.01
   0  -4   2    3.15    1.10
   1   4   1   57.31    1.43
   1   6   3   15.49    1.49
   2  -5   4   20.95    1.51
   3  -5   5   17.06    1.56
   4  -2   2    5.45    1.32
   5   0   2   87.85    3.88
   6   3   5   47.04    2.25
  -9  -4   6    7.10    1.83
  -7  -2   3  618.12    4.29
  -6  -1   2  461.89    4.35
  -6   6   4   46.55    1.99
  -5   4   2  146.57    2.21
  -4   6   3  207.81    2.28
  -3  -6   5  116.93    2.05
  -3   7   4   86.85    1.66
  -2   4   1  223.64    2.28
  -1  -4   2  225.44    2.06
   0   7   4   19.46    1.37
   1   1   0  594.93    5.49
   2   5   2  200.92    2.12
   3   3   1 1243.17    5.03
   3   6   4  448.67    3.22
   4  -3   3  889.35    5.16
  -6  -3   3 1113.18    4.76
  -6   3   2  184.98    2.88
  -6   5   3  683.27    4.00
  -4  -3   2  276.15    2.50
  -4   7   4  139.94    2.37
  -1  -6   5  160.23    1.92
   1  -6   6   15.97    1.40
   1   7   4  200.05    2.54
   2   4   1   17.65    1.16
   2   6   3   -0.08    1.48
   3  -5   6   38.81    2.13
   4   1   1 1289.76    7.55
   5   2   2   75.69    1.90
  -9   0   4   85.10    3.17
  -7   4   3  394.89    3.61
  -6  -4   4   68.99    1.69
  -5  -6   6    0.76    1.29
  -4  -5   4  336.74    2.39
  -4  -4   3  742.48    3.66
  -4   3   1  235.08    2.76
  -4   5   2   74.95    1.73
   1  -5   4  548.39    3.19
   1   2   0 1842.94    7.07
   2  -4   3    9.69    1.14
   4   4   2    7.01    1.25
   4   5   3  592.52    3.48
   5  -3   5   64.76    2.28
   5   4   3  254.58    2.58
   6   3   4   40.48    1.93
 -10   3   5    7.56    3.04
  -7  -5   6   23.36    1.85
  -5  -2   2  235.90    2.60
  -5   6   3    8.92    1.43
  -4  -6   6   18.28    1.76
  -3  -5   4  231.42    2.21
  -3   4   1  107.88    1.81
  -2   6   2    4.34    1.37
  -1   2   0 1898.49    7.65
  -1   6   2   65.19    1.37
  -1   7   3   -0.03    1.53
   0  -6   6    2.89    1.26
   0   6   2    0.52    1.03
   2  -5   5  263.50    2.56
   2   7   4   11.63    1.82
   3  -4   4  794.79    4.22
   3   5   2  148.51    1.97
   3   6   3   93.52    1.82
   4   2   1 1157.45    5.68
   5   5   4   12.92    1.67
 -10   0   5   10.28    2.35
  -8  -2   4    6.87    1.48
  -7  -3   4  218.96    2.44
  -5  -5   5   22.64    1.49
  -2  -6   6  129.58    2.14
  -2  -2   1  736.10    4.42
  -2   7   3   31.02    1.38
  -1  -6   6   31.81    1.63
   0  -5   4   21.98    1.06
   0   5   1  540.96    3.05
   0   7   3  318.44    2.45
   1   6   2   75.51    1.41
   2  -3   2  534.29    3.57
   3   4   1   47.21    1.37
   4   6   4  886.57    4.61
   5   3   2  127.84    2.05
   6   1   3   14.81    2.04
   6   2   3  107.51    2.49
 -10  -2   6   36.65    2.12
  -9  -2   5   42.98    2.06
  -9   3   4    2.40    2.26
  -8   2   3   16.59    2.64
  -8   5   4   74.60    2.60
  -7  -4   5    4.14    1.08
  -7   6   4  681.83    4.34
  -3  -4   3   11.18    1.18
  -3  -3   2   13.75    0.91
  -3   6   2   97.51    1.75
  -2   5   1  110.44    1.77
   0  -6   7  342.26    3.03
   0   3   0    1.36    1.07
   1  -4   3   11.74    1.17
   1  -2   1  162.70    2.40
   1   3   0  190.13    2.19
   1   5   1   20.85    1.04
   1   7   3  159.08    1.95
   2   1   0  117.12    2.64
   2   2   0 2315.20    7.78
   2   6   2    0.03    1.43
   4   3   1  653.00    3.77
   5  -3   6    0.01    2.07
  -8  -4   6    1.39    1.23
  -8  -3   5   10.79    1.52
  -6  -5   6    2.68    1.51
  -5  -4   4  156.26    1.97
  -5   5   2   76.85    1.82
  -1  -6   7   -0.09    1.71
  -1  -2   1 2704.34    8.49
  -1   3   0  196.76    2.30
   1  -5   5   27.03    1.53
   2  -5   6  130.47    2.23
   2   7   3   84.82    2.09
   4   5   2   -0.65    1.25
   6   4   4   15.67    1.89
  -7  -5   7  255.53    2.78
  -6   4   2  268.73    2.96
  -5  -3   3   38.37    1.09
  -4   4   1    7.78    1.25
  -4   6   2    0.42    1.30
  -4   7   3   41.68    1.49
  -3  -6   7  426.63    3.09
  -2  -6   7   43.43    1.78
  -2  -4   3    8.15    0.90
  -2  -3   2 2874.26    7.33
  -2   2   0 2352.13    8.83
  -1  -4   3    2.12    1.13
   0  -4   3  446.65    2.87
   0  -2   1  250.50    2.79
   1  -3   2   55.95    1.53
   2   3   0   31.66    1.34
   4  -3   4    0.96    1.46
   4   6   3  137.52    2.26
   5   5   3   -0.09    1.69
   6   3   3    5.40    1.45
  -7  -1   3 2252.30    8.75
  -7   5   3  883.02    5.01
  -6   6   3    5.63    1.73
  -3  -5   5   63.06    1.65
  -3   5   1   25.56    1.32
  -1   7   2    0.78    1.56
   0  -5   5   33.47    1.41
   0   7   2   70.35    1.91
   2  -5   7    1.33    1.66
   2  -4   4  108.42    1.86
   3  -4   5  441.01    3.32
   3   6   2  117.65    1.66
   5  -2   4    1.86    1.70
   5   4   2   49.23    1.35
  -8   3   3   18.61    2.13
  -6  -2   3   58.33    1.63
  -5  -5   6   19.64    1.55
  -5   7   3    5.57    1.66
  -2  -5   5   82.96    1.63
  -2   3   0   32.45    1.39
  -2   7   2  285.32    2.56
  -1  -5   5  137.74    1.87
  -1   4   0  621.23    3.48
  -1   6   1  180.62    2.04
   0  -3   2  571.23    3.40
   0   6   1   21.96    1.08
   1  -5   6   82.01    1.90
   1   4   0  606.24    3.25
   1   6   1   13.90    1.41
   1   7   2    3.58    1.58
   3   5   1  368.13    2.49
   3   7   3   53.61    1.67
   4   4   1  499.40    3.00
   6   4   3   68.09    2.25
  -7  -4   6  463.15    3.12
  -6  -3   4   37.27    1.41
  -6   0   2  539.13    5.91
  -5   2   1  477.61    5.14
  -4  -4   4  357.75    2.46
  -4  -2   2   28.23    1.36
  -3   7   2    1.20    1.38
  -2   1   0  118.24    3.18
  -2   6   1   70.71    1.63
   2   4   0  714.84    3.50
   2   7   2   77.55    1.95
   3  -2   2 1209.14    6.38
   3   2   0 1559.69    6.41
   3   3   0 2654.11    7.28
 -10   1   5   13.23    2.86
  -9   1   4    5.82    2.46
  -9   4   4   53.87    2.73
  -8  -4   7   31.96    1.45
  -5   3   1  146.93    2.41
  -5   6   2   60.52    1.84
  -4  -5   6   63.06    1.59
  -4  -3   3  260.83    2.38
  -4   5   1  118.86    1.85
   0  -5   6   25.41    1.55
   1  -5   7    1.92    1.63
   1  -4   4    0.33    1.11
   2   6   1    4.00    1.01
   3  -4   6   16.92    1.49
   4   6   2   10.27    1.63
   5   5   2   64.82    1.79
   5   6   3  108.35    2.33
   6  -1   5   62.99    3.31
 -10  -1   6    2.02    1.91
  -8  -1   4  127.88    2.51
  -7  -3   5   52.69    1.63
  -6   5   2   52.91    1.82
  -5  -5   7  174.93    2.29
  -3  -4   4  312.08    2.26
  -3   6   1   40.22    1.41
  -2  -5   6    1.04    1.33
  -2   4   0  645.49    3.49
  -1  -5   6   12.74    1.43
   0   5   0    1.69    1.21
   1   5   0   84.66    1.57
   2  -4   5   27.24    1.54
   3  -4   7   20.40    1.88
   3   4   0  390.63    2.70
   3   7   2   60.66    1.78
   4  -2   3  438.41    4.11
   4   5   1  223.35    2.23
   5   2   1   35.56    1.58
   5   3   1    3.61    1.28
   7   1   5    0.18    3.91
 -10  -2   7   95.16    2.41
  -9  -1   5   56.91    2.10
  -8  -3   6    1.87    1.53
  -8   4   3   15.06    1.98
  -7  -2   4 1952.50    6.50
  -7   6   3  188.77    2.75
  -5  -4   5   21.26    1.09
  -5  -1   2  319.70    3.38
  -4   0   1    0.11    1.34
  -4   7   2   17.68    1.68
  -2  -4   4   28.55    1.33
  -1  -4   4   93.06    1.62
  -1   5   0   81.49    1.38
  -1   8   2   23.17    1.75
   0  -5   7   13.37    1.65
   0  -4   4  168.91    1.80
   0   7   1  227.75    2.26
   0   8   2    0.07    1.73
   2  -3   3  735.75    3.98
   2   5   0    6.18    1.18
   3   6   1   40.92    1.27
   6   2   2    8.40    1.71
   6   3   2  139.93    2.32
   6   5   3    0.68    1.84
   7   2   4  101.62    3.35
   7   3   4  358.25    4.24
  -9  -2   6   12.46    1.63
  -8  -4   8   19.71    1.83
  -8  -2   5   22.82    1.49
  -6  -4   6   69.88    1.68
  -3  -3   3   73.03    1.53
  -2   8   2    1.68    1.88
  -1   7   1  133.13    2.07
   3  -3   4  210.56    2.50
   5  -2   5   53.58    2.26
   5   4   1   14.20    1.05
   6   4   2    3.53    1.55
  -7  -4   7    3.27    1.46
  -5  -3   4  395.80    2.70
  -4  -4   5   56.39    1.51
  -3  -5   7 1340.96    4.58
  -3   2   0 1490.14    7.40
  -3   4   0  392.32    2.96
  -2   5   0    5.64    0.90
  -2   7   1   24.47    1.55
  -1  -5   7    1.54    1.09
   0  -5   8  117.02    1.94
   1  -4   5   34.30    1.40
   2  -4   6    1.33    1.42
   2   7   1   20.68    1.65
   3   5   0  871.84    3.74
   4   3   0   67.13    1.55
   4   6   1  194.93    2.17
   4   7   2    1.55    1.84
   5  -1   3   28.09    2.10
   5   6   2   30.18    1.81
  -7   3   2   22.45    2.03
  -6   6   2  180.17    2.43
  -5  -2   3    1.19    1.05
  -5   7   2   28.90    1.90
  -4  -5   8  231.84    2.48
  -4   6   1   24.33    1.49
  -1  -5   8   27.61    1.76
  -1   6   0  198.10    2.10
   0   6   0 3611.65    7.10
   1  -3   3 1547.19    5.45
   1   6   0  203.04    1.92
   2   6   0  212.12    2.09
   4   2   0   77.95    1.77
   4   4   0   76.90    1.55
   5   5   1   -0.46    1.32
   6  -1   6  268.36    5.22
  -9  -3   8   71.22    2.10
  -8   5   3    8.70    1.96
  -7   4   2   16.65    1.75
  -5  -4   6    4.22    1.34
  -5   5   1   51.90    1.59
  -3  -5   8  105.86    1.89
  -3  -4   5  369.48    2.54
  -3   7   1    1.87    1.54
  -2  -5   8   12.73    1.59
  -2  -3   3  181.87    1.87
   0  -4   5   48.03    1.46
   2  -4   7   58.24    1.78
   3   7   1  114.62    1.79
   5  -2   6   47.21    2.28
   5   1   1    5.58    1.32
   6   5   2   59.89    1.95
  -8  -3   7   53.40    1.75
  -6  -3   5  118.21    1.57
  -4  -5   9    6.97    1.67
  -3  -5   9    0.30    1.82
  -2  -1   1  800.63    5.67
  -2   6   0  214.90    2.10
  -1  -4   5  468.45    2.84
  -1  -3   3   36.95    1.06
  -1   8   1   38.46    1.72
   0  -3   3 3225.99    7.54
   0   8   1    9.55    1.82
   1  -4   6   75.06    1.69
   1   8   1    3.49    1.78
   2  -4   8   79.11    2.15
   3  -3   5    6.74    1.27
   3   6   0  157.82    2.00
   4  -1   2    3.30    1.26
   7   3   3   45.14    2.08
   7   4   3  193.24    3.03
  -7  -3   6   36.89    1.21
  -4  -3   4  838.89    3.70
  -2  -2   2    2.82    1.03
  -2   8   1   24.89    1.72
   0   3  -1 1694.32    5.72
   0   4  -1   82.73    1.53
   0   7   0    1.36    1.48
   1   4  -1  844.05    3.68
   1   7   0   47.35    1.66
   2   3  -1  496.46    3.18
   2   4  -1  206.68    2.05
   4   7   1   72.52    2.05
   5   6   1   10.93    1.54
   6   1   2  220.62    4.15
  -7   0   3  673.35    5.45
  -7   5   2    8.93    1.58
  -6  -2   4   72.52    1.58
  -6  -1   3 1480.40    6.42
  -5   6   1   71.04    1.88
  -4  -4   6   39.59    1.18
   1  -4   7   -0.25    1.45
   1   5  -1  114.89    1.68
   2  -1   1  596.92    5.83
   2   7   0    0.32    1.45
   4  -2   4 3078.17    9.47
   5   4   0   13.28    1.19
   6   3   1  236.55    2.65
   6   4   1   24.72    1.57
   7   2   3  310.33    4.39
 -10  -1   7  114.55    2.41
 -10   0   6   50.40    2.09
  -6  -4   8  119.08    1.98
  -4   4   0   73.46    1.68
  -3  -4   6   31.86    1.33
  -3   6   0  153.13    2.03
  -1  -4   6   59.88    1.51
  -1   3  -1   91.77    1.71
  -1   4  -1   63.47    1.45
   0   5  -1  534.94    2.85
   1  -4   8    3.41    1.66
   1  -2   2 1272.55    5.64
   1   2  -1 2709.43    8.16
   2   5  -1  116.31    1.49
   3  -3   6   69.93    1.84
   3   7   0  303.82    2.58
   5   3   0  518.03    3.40
   6   5   1  139.68    2.24
  -8  -3   8    0.23    1.54
  -8  -2   6   -0.49    1.31
  -7  -2   5    5.33    1.16
  -5  -3   5   68.78    1.45
  -4  -2   3 1888.34    6.09
  -4   3   0   64.46    1.71
  -4   5   0   43.91    1.49
  -3  -3   4  609.57    3.16
  -2  -4   6  171.54    1.78
  -2   7   0    0.81    1.01
  -1  -2   2  687.07    3.94
   0  -4   7  754.07    3.54
   0  -2   2   19.73    1.16
   0   2  -1  241.04    2.64
   1  -3   4 1386.12    4.89
   1   6  -1  164.42    1.84
   2   2  -1  755.93    4.30
   3  -3   7   56.22    1.85
   3   3  -1  180.18    1.93
   3   5  -1   26.83    1.35
   5   5   0  161.40    1.82
   7   4   2   78.12    2.28
  -9  -1   6  212.59    2.58
  -9   0   5   50.87    2.06
  -8   0   4   15.63    1.69
  -7  -3   7  383.69    2.70
  -7  -1   4  367.36    3.23
  -7   6   2   16.15    2.06
  -6  -4   9   28.72    1.77
  -6   4   1   12.08    1.39
  -5  -4   8   -0.25    1.44
  -4  -4   7  217.17    1.94
   0  -4   8   78.41    1.86
   0   6  -1   23.35    1.37
   0   8   0 1226.84    4.69
   1   8   0   86.76    2.09
   2  -3   5  504.77    3.16
   2   6  -1   71.41    1.55
   3  -3   8  122.58    2.28
   6   2   1   10.32    1.53
   6   6   1   21.77    1.80
   7   3   2    7.73    1.75
 -10   2   5    9.76    2.75
  -6   5   1  112.51    2.04
  -5   7   1   14.89    1.82
  -4  -1   2  664.79    4.47
  -3  -4   7  786.58    3.27
  -3   7   0  320.64    2.64
  -2  -4   7   85.59    1.62
  -1  -4   7   -0.58    0.93
  -1  -3   4  843.77    3.74
  -1  -1   1 1170.33    6.90
  -1   6  -1   12.26    1.25
  -1   8   0   89.44    1.98
   0  -3   4   22.28    1.17
   2   8   0   64.48    1.62
   3   6  -1   39.98    1.49
   4   1   0  141.05    2.64
   4   4  -1    8.42    1.08
   4   5  -1  115.82    1.62
   5   2   0   34.92    1.57
   5   6   0    3.06    1.08
  -9  -2   8    6.14    1.60
  -8  -3   9    0.27    1.50
  -6   3   1  229.13    3.23
  -5  -4   9   87.19    1.82
  -4   6   0   45.13    1.56
  -2   3  -1  446.95    3.21
  -2   5  -1  110.44    1.48
  -2   8   0   61.56    1.80
  -1  -4   8    7.90    1.39
  -1  -4   9   45.95    1.79
   1   7  -1  121.82    1.94
   2   7  -1   22.22    1.43
   3   2  -1  246.07    2.55
   4  -2   5    1.99    1.35
   4   3  -1  242.65    2.29
  -7  -3   8    0.17    1.43
  -6   6   1    1.35    1.39
  -5  -2   4  346.38    2.59
  -4  -4   9    6.11    1.53
  -3  -4   8  359.93    2.45
  -2  -4   8    0.58    1.00
  -2   6  -1    5.27    1.15
  -1   2  -1  159.70    2.23
   0   7  -1  234.03    2.06
   1  -3   5   71.63    1.46
   2  -3   6  302.55    2.51
   3   7  -1    1.26    1.34
   4   6  -1   25.95    1.35
   5  -1   4    8.66    1.56
   5   7   0   45.29    1.83
   6   4   0  161.64    2.04
   6   5   0    1.30    1.31
  -8  -2   7   53.89    1.57
  -6  -3   7  351.83    2.48
  -5  -3   6   20.57    0.98
  -4  -4  10   12.43    1.33
  -4   7   0   29.87    1.56
  -3  -4   9   10.45    1.15
  -3  -4  10  365.37    2.83
  -3  -3   5  101.88    1.57
  -3  -2   3    5.11    1.06
  -1   7  -1    6.27    1.01
   2  -3   7    1.90    1.35
   2  -3   8    0.80    1.54
   2  -2   3   44.85    1.37
   4  -2   6    7.68    1.34
   6   6   0   76.14    1.82
   7   4   1   11.13    1.57
   7   5   1    0.14    1.63
  -9  -2   9   68.25    1.96
  -7  -3   9   65.26    1.80
  -7  -2   6  837.58    3.72
  -6  -2   5  415.19    2.69
  -4   2   0   79.79    2.14
  -3   5  -1  366.64    2.66
   0  -3   5  106.66    1.59
   1   8  -1   38.74    1.83
   2   8  -1   25.22    1.62
   4   7  -1   51.48    1.67
   5   4  -1  202.39    2.07
   5   5  -1   50.25    1.19
   6   3   0   14.64    1.29
  -5   4   0   14.24    1.26
  -5   5   0  165.18    2.20
  -4  -3   6  192.05    1.91
  -3   4  -1   45.89    1.34
  -2  -3   5  279.01    2.02
  -1  -3   5  304.09    2.28
   0   8  -1    9.17    1.25
   1  -3   6   93.99    1.67
   1   4  -2  235.50    2.05
   2   4  -2    2.56    0.96
   2   5  -2  898.11    3.41
   5   6  -1   72.81    1.37
   7   2   2  129.07    3.00
 -10   0   7  107.76    2.26
  -7  -3  10   13.64    1.30
  -6  -3   8   62.52    1.27
  -5  -3   7  376.37    2.41
  -5  -1   3   63.57    1.51
  -5   6   0    3.38    1.35
  -3   6  -1   39.26    1.17
  -2  -2   3   88.39    1.53
  -1   8  -1    4.09    1.19
   0   4  -2    3.73    0.97
   0   5  -2  178.86    1.71
   0   6  -2    1.27    1.05
   1  -3   9    2.42    1.64
   1   6  -2   64.65    1.25
   2   6  -2    3.47    0.90
   3   4  -2  392.58    2.49
   3   5  -2    0.37    0.78
   3   6  -2   89.90    1.57
   4   2  -1    0.69    0.93
   5   3  -1  152.56    1.93
   7   3   1    0.46    1.27
 -10   1   6    0.58    1.72
  -8  -2   8   22.78    1.12
  -6  -3   9    0.59    1.37
  -4  -2   4  890.91    3.84
  -3  -3   6  173.43    1.76
   0  -3   6   83.55    1.49
   1  -3   8   60.57    1.55
   1  -2   3   22.42    1.14
   1   3  -2   15.46    1.02
   1   7  -2    0.90    1.24
   2   3  -2 2758.46    6.63
   2   7  -2  283.84    2.32
   4   5  -2   70.14    1.41
   5  -1   6    0.18    1.67
   5  -1   7   76.07    2.41
   5   7  -1   13.96    1.22
  -8  -1   6    3.18    1.08
  -6  -3  10   66.46    1.83
  -5   7   0   45.57    1.84
  -4  -3   7  231.18    2.01
  -3  -1   2  177.03    2.33
  -3   3  -1 1219.34    5.22
  -2   2  -1  146.24    2.15
  -1  -3   6   15.46    1.11
  -1  -2   3    3.24    0.93
  -1   4  -2  323.91    2.35
  -1   5  -2   10.45    0.86
  -1   6  -2   75.03    1.46
   0  -2   3  982.55    4.33
   0   7  -2   67.64    1.62
   3   7  -2   -0.01    1.33
   4   4  -2    6.55    1.02
   4   6  -2    0.92    1.22
   6   5  -1  109.02    1.74
   6   6  -1    1.26    1.38
   7   5   0   78.39    1.91
   0  -3   7   16.67    0.92
   3   3  -2   12.17    0.79
  -6  -3   6   -1.19    0.72
  -4  -1   4 1856.15    4.18
  -4   0   6  187.18    1.30
  -2  -1   1  770.69    4.43
  -1   2  10    0.36    0.89
   1  -3  -3   33.30    0.90
   4  -4  -5   46.05    0.86
   5  -3  -5   68.46    0.96
   5   0  -3    0.46    0.41
   7  -5  -6   22.23    0.75
   7  -2  -5    6.79    0.72
   7   1  -2   38.26    0.89
   8  -5  -6    0.73    0.92
   8  -2  -5   23.01    0.82
  -5  -1   6   21.73    0.62
  -3   1   6  247.96    1.58
  -2   1   4  214.33    1.65
   2  -6  -4    4.17    0.79
   2  -5  -4    9.00    0.71
   3  -1  -3  198.70    1.60
   4  -6  -5   22.75    0.95
   4  -5  -5    6.19    0.75
   8   2   1  113.80    1.74
   9  -1  -4    6.05    0.80
   9   0  -3   31.29    0.80
  -6  -1   9   -0.16    0.75
  -5   0  11   -0.41    0.94
  -1   2   5  903.61    3.29
   2   3   8    0.08    1.05
   3   0  -2 2527.45    5.97
   7  -1  -4  358.73    1.82
   8  -1  -4  124.91    1.19
   8   0  -3   16.59    0.76
   9   1  -1   89.52    1.28
  -7  -3   8    0.25    0.87
  -5   0   8   -0.19    0.51
  -4   0   5  181.49    1.41
  -2   0   2   31.58    0.92
   0  -8  -2   -0.07    1.20
   2  -2  -3   91.04    1.23
   5  -4  -5   20.61    0.78
   6  -3  -5  121.35    1.05
  10   0  -2   16.08    1.05
  -5  -2   4  343.97    1.99
  -4   1  11    0.10    0.74
  -3  -1   2  183.16    1.79
   1  -7  -3    0.21    0.89
   5  -6  -5   10.21    0.83
   5  -5  -5   21.05    0.88
   7  -3  -5   53.09    0.81
  10  -1  -3  334.07    1.94
  -5   0   7  483.33    1.96
  -3   1   5  278.47    1.74
   1  -4  -3    1.41    0.74
   5  -2  -4  343.44    1.83
   6  -6  -5   92.18    1.33
   6  -4  -5  224.38    1.49
   7   2   1   39.79    1.27
   8   1  -1    5.64    0.79
  -4   1   7  301.88    1.64
  -3   0   3   71.83    1.14
   4  -1  -3  427.89    2.20
   6  -5  -5   30.66    0.90
   7  -6  -5    3.37    1.08
   7  -5  -5   31.49    1.01
   7  -4  -5    4.16    0.63
   8  -5  -5   10.32    1.00
   8  -4  -5   14.09    0.73
   8   2   2    2.43    1.19
   9   0  -2   -0.89    0.74
   9   1   0  100.16    1.85
  -3   2   8  529.49    2.27
  -1  -8  -1    2.56    1.35
   0  -3  -2  566.34    3.63
   1  -6  -3    5.34    0.88
   1  -5  -3    5.87    0.76
   3  -6  -4   99.12    1.30
   3  -5  -4  228.46    1.69
   4  -3  -4  839.24    2.82
   5   1  -1  160.96    1.64
   6  -2  -4   72.92    1.00
   7  -2  -4 1822.54    3.83
   7   1  -1    6.40    0.75
  10   0  -1   88.90    1.50
  -5   1   9  250.89    1.62
  -3  -2   1  252.11    2.58
  -1   2   4  191.03    1.76
   0   2   3 1054.38    4.79
   4  -7  -4  148.76    1.62
   6   1  -1  345.86    2.17
   6   2   1   13.28    1.00
   8   0  -2   18.74    0.88
   9  -3  -4    2.85    0.93
  -8  -3   9    0.69    1.02
  -7  -3   6   38.62    1.10
  -6  -2   5  427.84    2.09
  -6   0   8  260.32    1.64
  -4   0   4 1478.28    3.99
  -4   1   6  316.79    1.72
  -3   2   7 1322.15    3.54
  -2   1   3  412.69    2.50
   0  -7  -2   66.77    1.62
   4   2   1 1103.73    5.87
   5  -3  -4  375.85    1.92
   7  -1  -3 2177.34    4.28
   8   2   3    2.46    1.56
  -5   1   8  100.18    1.04
  -4  -2   2   27.01    0.90
  -2   2   5  853.83    3.20
  -1   1   2   11.95    0.65
  -1   3   8   77.46    1.30
   0   3   6   84.26    1.32
   1   3   5   75.31    1.40
   2  -7  -3   30.10    1.18
   2  -3  -3  183.08    1.66
   4  -6  -4  132.96    1.42
   4  -4  -4  345.17    1.83
   5  -7  -4   38.90    1.23
   5   0  -2  227.84    1.75
   7   0  -2    4.67    0.65
   8  -3  -4  125.55    1.25
   8   1   0  243.56    2.02
   9  -4  -4   48.27    1.28
  -8  -3   8    0.15    0.98
  -7  -1   8    1.19    0.62
  -6  -3   4   39.98    0.99
  -5  -1   4  894.30    3.13
  -4   2   9    4.72    0.86
  -4   2  10   17.57    0.83
  -4   2  11  256.65    1.91
  -3   1   4 1185.27    3.67
   4  -5  -4  340.17    1.87
   7  -3  -4  221.87    1.44
   9  -2  -3  143.77    1.41
   9   0  -1   70.04    1.25
  10  -3  -3  276.66    1.97
  -8  -2   9   44.55    0.92
  -7  -5   5   30.38    1.24
  -7   0  10   50.78    1.18
  -7   0  11  295.76    1.81
  -6   0   7   89.31    1.15
  -6   1  11   39.94    1.20
  -5   1   7  553.17    2.29
  -4   2   8   32.68    0.87
  -3   2   6    7.90    0.73
  -1   3   7    1.35    0.75
   1  -8  -2   24.42    1.22
   1  -2  -2  676.17    3.69
   5  -6  -4   67.96    1.04
   5  -5  -4  131.96    1.32
   5  -4  -4  157.26    1.26
   6  -6  -4   52.98    1.27
   6  -4  -4   66.54    1.08
   7  -6  -4  630.67    2.79
   7  -4  -4 1185.80    3.24
   7   2   2  131.87    1.93
   8  -5  -4   79.25    1.34
   8  -4  -4    0.48    0.69
   9  -1  -2   45.49    1.05
  -8  -4   7   30.97    1.19
  -7  -4   5    5.37    0.96
  -7  -2   6  827.37    2.85
  -6   1  10   82.87    1.09
  -5  -2   3    0.60    0.67
  -5   0   5   96.36    1.05
  -4  -5   1  119.77    2.73
  -4   1   5   42.10    0.91
  -2   3   9  162.71    1.63
  -2   3  10    1.68    1.08
   0  -6  -2    0.18    0.82
   0  -4  -2    2.78    0.82
   2  -6  -3    1.29    0.81
   2  -4  -3    8.82    0.72
   2   3   4   23.65    1.32
   4  -2  -3 1871.99    4.45
   6  -5  -4   23.97    0.95
   7  -5  -4  116.60    1.29
   8  -2  -3   16.75    0.93
  10  -1  -1   96.16    1.56
  -8  -3   7   52.33    1.11
  -8  -2   8   25.65    1.09
  -8  -1  10    4.27    0.80
  -7  -1   7  445.91    1.99
  -7   0   9   94.23    1.09
  -6  -1   5  199.99    1.51
  -6   1   9    1.44    0.65
  -2   3   8   31.51    1.04
   2  -5  -3   70.47    1.20
   3  -7  -3   25.00    1.13
   7  -2  -3  624.29    2.43
   7   1   0  117.65    1.45
   8   0  -1    0.24    0.84
   9  -3  -3   54.68    0.99
  -8  -1   9    0.19    1.02
  -5  -5   2   73.38    1.72
  -5   2  10   15.75    1.03
  -5   2  11    0.57    0.81
  -4   2   7  307.19    1.80
  -1  -7  -1    6.27    1.26
  -1   3   6   16.06    0.91
   0  -5  -2  186.94    2.03
   0   3   5  114.96    1.60
   3  -3  -3   80.84    1.15
   5  -2  -3    0.96    0.65
   6  -2  -3   58.15    1.05
   8  -1  -2  248.45    1.56
   9  -4  -3   86.72    1.41
   9   0   0   11.91    1.08
  -7   0   8   96.27    1.08
  -6   0   6   67.20    0.93
  -6   1   8   94.97    1.05
  -5  -4   2  144.26    1.97
  -5   2   9  155.78    1.44
  -4  -4   1    7.87    1.08
  -3   3   9   -0.11    0.86
  -3   3  10   12.99    1.10
  -2   3   7  324.44    2.09
   2  -8  -2    1.69    1.19
   4  -7  -3   45.00    1.27
   8  -3  -3   16.82    0.73
   9  -2  -2    1.33    0.91
  -8  -5   6    0.24    1.17
  -8  -4   6    0.54    0.93
  -8  -2   7   55.89    1.09
  -3   2   5  821.34    3.07
  -2   2   4   63.99    1.13
   0  -8  -1    8.18    1.46
   1  -7  -2   -0.04    0.97
   3  -4  -3   11.13    0.75
   5  -7  -3    7.42    1.15
   6   1   0   32.15    0.98
   7  -3  -3 1525.91    3.67
   7   0  -1  288.94    1.87
   8  -5  -3    7.61    1.18
   8  -4  -3   17.22    1.04
   9  -1  -1  121.06    1.37
  10  -2  -1   80.36    1.36
  -9  -2   9   68.51    1.38
  -8  -1   8    0.38    0.65
  -8   0  10   21.75    1.17
  -7  -1   6   51.60    1.01
  -7   1  10   23.81    0.91
  -6  -5   3  699.47    4.10
  -5  -6   2   63.08    2.32
  -5   2   8    0.86    0.61
  -4   0   3 2507.23    5.64
  -3   3   8  214.29    1.71
   3  -5  -3   39.99    0.97
   4  -6  -3  212.64    1.72
   4  -3  -3  258.17    1.67
   4  -1  -2  675.68    2.92
   5   3   5   60.09    2.98
   6  -3  -3 1131.57    3.27
   6  -1  -2  448.23    2.23
   6   2   2    9.76    1.08
   7  -6  -3  189.18    1.74
   7   2   3  298.92    2.89
   9  -3  -2   35.96    1.20
  -9  -3   8   69.94    1.43
  -8  -3   6    1.16    0.92
  -7   0   7   16.07    0.94
  -7   1   9  115.00    1.41
  -6   1   7  464.11    2.03
  -6   2  10    2.24    1.01
  -6   2  11   16.68    0.96
  -5   0   4  564.80    2.55
  -4   2   6  114.92    1.16
  -4   3  10   23.96    1.19
  -3   0   2 2764.88    6.72
  -1   2   3    3.34    0.70
   4  -4  -3  772.77    2.85
   5  -6  -3    9.39    1.00
   6  -6  -3    8.53    0.96
   6   0  -1   54.78    1.06
   7  -4  -3  392.03    1.89
   9   0   1    2.67    1.12
  -6  -6   3    6.55    1.54
  -5  -3   2  148.90    1.92
  -5  -1   3   63.27    1.15
  -4   3   9   18.31    1.06
  -3   1   3  214.43    1.81
  -3   3   7 2388.43    5.07
  -2   3   6   48.39    1.06
  -1   3   5  316.49    2.27
   1  -3  -2   17.12    0.87
   2  -2  -2    1.75    0.65
   3   0  -1  362.41    2.63
   4  -5  -3  110.46    1.16
   5  -5  -3   15.51    0.88
   5  -4  -3    5.79    0.86
   6  -4  -3   27.92    0.79
   8  -1  -1    5.89    0.87
   8   0   0   33.43    1.01
   9  -4  -2    0.25    0.83
  -9  -2   8    7.30    1.01
  -8  -1   7   87.78    1.25
  -7  -5   4  112.88    1.91
  -7  -4   4 1206.10    4.39
  -6  -3   3 1132.46    4.17
  -6   0   5  532.88    2.35
  -6   2   9   41.62    0.92
  -5   2   7  379.80    1.93
  -1  -6  -1   12.18    1.19
   5   0  -1  622.73    2.88
   7  -2  -2   10.20    0.86
   8  -3  -2  157.47    1.51
   9  -2  -1   60.63    1.08
   9  -1   0  175.70    1.66
  -9  -1   9   69.18    1.12
  -8  -2   6   -0.65    0.91
  -7   1   8    2.61    0.65
  -6  -1   4   54.63    0.89
  -4   3   8  414.21    2.20
   0   4   9   41.47    1.68
   4   0  -1    0.27    0.48
   7   2   4  101.04    2.12
   8  -5  -2   74.76    1.41
   8  -4  -2   11.08    1.07
  -9  -3   7   36.58    1.29
  -8   1  10    4.89    1.14
  -7  -6   4  673.33    4.41
  -7  -3   4  226.72    1.91
  -7  -1   5   79.65    1.12
  -7   0   6 1132.01    3.31
  -6   1   6    3.08    0.59
  -6   2   8  229.21    1.69
  -5   3  10   18.82    1.17
  -4  -3   1  260.89    2.83
  -2  -7   0    0.95    1.34
   0   4   8   89.13    1.73
   1  -8  -1   44.93    1.50
   1  -5  -2    3.00    0.82
   1   4   8    3.06    1.31
   3  -7  -2    0.37    1.05
   6  -2  -2  419.25    2.12
   7  -6  -2   17.17    1.18
   7  -1  -1    5.98    0.79
   9  -3  -1   89.01    1.21
   9   0   2   67.91    1.48
  -8  -5   5   13.54    1.43
  -8  -4   5   11.80    1.12
  -7   2  10   36.07    1.01
  -5   3   9  181.76    1.69
  -4   2   5  136.94    1.37
  -3  -1   1  535.74    3.58
  -3   2   4  887.18    3.37
  -3   3   6  178.69    1.54
  -1  -8   0   91.81    2.11
   0  -7  -1  242.42    2.43
   0   3   4   22.80    0.99
   2  -6  -2    3.98    0.86
   3  -2  -2 1403.81    4.23
   4  -7  -2   20.02    1.07
   5  -7  -2   30.72    1.05
   5  -2  -2  238.54    1.73
   7  -5  -2    9.87    1.05
   7  -3  -2   23.32    0.78
   7   0   0  399.16    2.23
   8  -2  -1   -0.85    0.86
   8   0   1  186.24    1.77
  -9  -2   7   21.96    1.04
  -9  -1   8  107.94    1.27
  -8   1   9   -0.30    0.76
  -2   0   1 1619.11    6.43
  -2   3   5  293.77    2.06
  -2   4   9   40.04    1.31
  -1   4   8    8.31    1.08
   1  -1  -1 1131.64    5.88
   2  -8  -1   24.62    1.34
   2  -3  -2 2933.80    6.57
   4  -2  -2   30.61    0.75
   6  -6  -2  194.25    1.63
   7  -4  -2   16.86    0.76
   8  -1   0  257.91    1.88
   9  -1   1  213.43    1.86
  -9   0   9   80.97    1.27
  -8  -3   5    9.99    0.99
  -8  -1   6    3.27    0.84
  -7  -2   4 1937.27    4.79
  -7   2   9   89.60    1.21
  -6  -2   3   60.61    1.20
  -6   2   7   91.50    1.26
  -5  -2   2  239.41    2.12
  -5   3   8   62.82    1.16
   2  -5  -2  920.34    3.49
   3  -6  -2   95.51    1.37
   4  -6  -2   -1.10    0.96
   6  -5  -2   56.56    1.21
   6  -3  -2  189.54    1.42
   6  -1  -1  365.43    2.10
   6   2   3  106.21    1.78
   8  -3  -1    8.10    1.00
   9  -3   0  116.15    1.59
  -9  -4   6    7.18    1.11
  -6   3  10   67.22    1.21
  -3   4   9   11.07    1.07
  -2   2   3   99.30    1.41
  -2   4   8    1.43    0.98
  -1  -4  -1   64.08    1.64
  -1   4   7    0.28    1.05
   2  -4  -2    1.77    0.74
   5  -3  -2  152.19    1.43
   6  -4  -2  280.31    1.70
   8  -5  -1    6.27    0.92
   8  -4  -1    2.14    1.02
  -9  -3   6  170.59    1.80
  -9  -1   7   50.48    1.19
  -8  -2   5   22.93    1.04
  -8   2  10   19.26    1.20
  -6   0   4   84.84    1.19
  -6   1   5  214.54    1.64
  -6   3   9    1.63    1.03
  -5   0   3    0.43    0.69
   1  -7  -1  131.73    1.84
   3  -5  -2    0.01    0.75
   3  -3  -2   12.62    0.63
   4  -5  -2   76.36    1.18
   4  -3  -2  307.67    1.91
   5  -5  -2   76.49    1.06
   5   3   6    0.55    1.92
   6   0   0  427.25    2.26
   7  -6  -1   53.96    1.46
   9  -2   1    1.12    1.08
  -9   0   8    6.22    0.84
  -7   0   5    8.38    0.87
  -7   1   6   52.20    1.09
  -4   1   3  472.74    2.48
  -4   3   6  208.82    1.66
  -4   4  10   15.92    1.37
  -3   4   8  361.86    2.34
   0  -2  -1  257.15    3.16
   3  -4  -2  394.70    2.20
   4  -4  -2    7.27    0.81
   5  -7  -1   15.65    1.25
   7  -5  -1    0.53    1.12
   7  -3  -1    0.97    0.91
   8  -2   0   11.60    0.77
   8   0   2   10.17    1.02
  -9  -2   6   12.72    1.00
  -9   1   9   69.48    1.44
  -8   0   6    0.22    0.85
  -8   2   9   46.34    1.25
  -6   2   6   86.74    1.20
  -5   2   5   66.47    1.11
  -5   3   7  377.21    1.98
  -4   4   9    5.88    1.16
  -2   4   7   92.35    1.44
   0  -8   0 1314.03    5.27
   0  -6  -1   24.99    1.17
   2  -7  -1   25.47    1.18
   4  -7  -1   53.24    1.35
   4   2   2    6.72    0.97
   6  -6  -1    2.23    1.07
   7  -1   0  121.27    1.25
   7   0   1   74.07    1.26
   8  -3   0  196.02    1.69
   8  -1   1   79.51    1.30
 -10  -1   8   59.57    1.38
  -8   1   7   91.32    1.30
  -6   3   8   67.48    1.03
  -4  -2   1    1.34    0.67
  -4   0   2   56.82    1.16
  -4   2   4  978.08    3.34
   0   4   6    0.24    0.91
   1   4   6   75.43    1.84
   2  -1  -1  859.79    4.21
   3  -7  -1    0.94    1.10
   4  -1  -1  864.49    3.39
   5   0   0   62.93    1.19
   8  -4   0    3.98    1.04
  -9   0   7   23.96    1.05
  -8  -1   5   11.03    0.88
  -7   2   7    8.41    0.73
  -7   3   9   73.53    1.31
  -4   4   8   42.89    1.15
  -3   4   7  797.15    3.21
  -2  -8   1   25.71    1.79
  -1   4   6   59.56    1.32
   1  -8   0   91.06    1.76
   3  -1  -1  552.16    3.00
   6  -5  -1  124.55    1.45
   6  -3  -1  234.33    1.70
   6   2   4   26.65    1.32
   8   0   3    0.98    1.07
 -10  -2   7  101.28    1.63
  -9  -1   6  217.51    1.77
  -9   1   8  114.77    1.53
  -8  -4   4    0.89    1.24
  -7  -4   3  398.11    3.05
  -5   4   9   92.00    1.51
  -3   1   2  201.36    1.89
  -2   3   4   42.96    1.06
  -1  -7   0   53.56    1.62
   1  -6  -1  173.82    1.81
   2  -8   0   62.33    1.63
   5  -2  -1  478.23    2.34
   6  -4  -1   12.39    0.72
   7  -2   0  379.71    2.03
   8  -2   1  146.78    1.44
   8  -1   2    9.86    1.13
  -8  -3   4  131.68    1.71
  -7  -3   3 1593.48    5.13
  -5   3   6   22.87    0.77
  -3   2   3    5.17    0.80
  -2   4   6  169.70    1.74
   0  -5  -1  561.91    3.35
   2  -6  -1   75.03    1.31
   3  -6  -1   39.60    1.14
   4  -6  -1   23.13    0.84
   5  -7   0   50.05    1.46
   5  -5  -1   54.40    1.22
   5   2   3  497.66    3.62
   7  -5   0   86.72    1.21
   7  -3   0  126.40    1.44
   8  -4   1   80.54    1.55
   8  -3   1   60.43    1.29
 -10   0   8   15.45    1.26
  -9  -3   5   40.40    1.30
  -9   2   9   76.49    1.47
  -8  -5   4   78.96    2.02
  -7  -5   3  887.13    5.17
  -7   1   5   79.24    1.06
  -7   3   8   -0.03    1.07
  -6  -4   2  283.23    2.91
  -6   1   4   58.61    1.09
  -4   3   5   24.35    0.76
  -3  -7   1    1.33    1.49
  -1   2   2  731.33    4.08
   4   0   0   53.23    1.17
   5  -4  -1  223.72    1.69
   5  -3  -1  159.28    1.47
   6  -6   0   90.24    1.42
   6   0   1    1.58    0.79
   7  -4   0  245.25    1.71
   7  -1   1   -0.05    0.83
   7   0   2  160.67    1.67
 -10  -1   7  113.46    1.45
  -8  -2   4    6.36    0.98
  -8   0   5   26.91    0.97
  -8   1   6    2.45    0.68
  -7  -2   3  611.27    3.05
  -7   0   4 2426.39    5.05
  -7   2   6  907.89    3.03
  -6  -3   2  190.17    2.12
  -6   2   5  435.90    2.07
  -5   4   8   -0.26    0.79
  -4   4   7  216.22    1.71
  -1   1   1 1185.69    6.00
   4  -7   0   36.07    1.33
   4  -2  -1    0.62    0.50
   6   2   5    6.43    1.38
   8  -2   2    7.62    1.16
   8  -1   3   14.94    1.27
  -9  -2   5   44.63    1.27
  -9   0   6   19.79    1.07
  -9   1   7   53.01    1.30
  -8   3   9   -0.24    0.92
  -6   0   3   58.54    1.12
  -5   1   3   70.34    1.03
  -5   2   4  375.22    2.01
  -3   3   4  619.04    2.86
  -3   4   6   30.43    1.07
  -1  -8   1   43.67    1.75
   0  -7   0    0.43    1.05
   1  -5  -1  122.27    1.57
   3  -5  -1   25.10    0.94
   3  -2  -1  253.50    2.01
   4  -4  -1    9.39    0.81
   4  -3  -1  250.25    1.80
   6  -5   0    1.90    1.02
   7  -5   1    0.63    1.23
   8  -3   2    9.37    1.25
  -9   2   8    5.77    1.23
  -7   3   7  405.96    2.18
  -3   0   1  366.02    2.76
   0   4   5   51.02    1.48
   1  -7   0   54.24    1.32
   2  -7   0    1.69    1.06
   2  -2  -1  782.17    3.70
   3  -7   0  329.18    2.17
   5  -6   0    4.37    0.78
   5  -1   0 1109.87    3.67
   6  -3   0   15.51    0.95
   7  -2   1   48.08    0.95
   7   0   3  340.27    2.41
   8  -2   3    3.99    1.27
 -10   0   7  114.89    1.61
  -9  -1   5   58.26    1.26
  -8   3   8    0.98    1.03
  -6  -2   2  417.80    2.73
  -4  -1   1  869.73    4.19
  -3   5   9   -0.08    1.18
   3   0   0 3516.12    8.41
   3   2   2 1321.59    7.82
   6  -6   1   25.12    1.21
   7  -4   1   11.84    0.85
   7  -3   1    0.81    0.73
   7  -1   2   10.42    1.01
  -7  -1   3 2377.67    5.36
  -7   4   9   53.23    1.50
  -6  -5   2   57.79    2.07
  -5   0   2  261.99    2.00
  -4   2   3 1980.34    4.83
  -2   4   5  359.91    2.43
   1  -8   1    2.82    1.32
   1  -3  -1  112.99    1.62
   4  -6   0   52.76    1.16
   4   3   5   24.36    1.78
   5   0   1   74.17    1.26
   6  -1   1  309.79    1.98
 -10  -1   6    1.08    0.87
  -9   1   6  213.12    1.77
  -8   1   5   12.83    0.99
  -8   2   6    0.08    0.94
  -7   1   4  398.75    2.17
  -7   2   5    4.43    0.89
  -4   1   2  704.97    3.05
  -4   3   4  863.54    3.21
  -4   5   9    7.65    1.30
  -2   2   2    1.66    0.71
  -2   5   8   14.43    1.26
  -1  -6   0  210.05    2.39
  -1   5   8   25.71    1.55
   4  -7   1   72.73    1.54
   6  -5   1  151.26    1.63
   6   0   2   15.27    0.95
   7  -2   2  137.34    1.55
   7   0   4  122.62    1.75
  -9   2   7   22.78    1.27
  -7   4   8   89.17    1.41
  -6   2   4   83.83    1.22
  -3   4   5  353.52    2.22
  -3   5   8  110.59    1.71
   4  -1   0  145.85    1.58
   5  -6   1    8.13    1.14
   5  -4   0   14.83    0.69
   7  -4   2   77.44    1.23
   7  -3   2    8.09    1.08
   7  -1   3   62.32    1.33
 -10   1   7  118.44    1.41
  -8   0   4   14.06    0.93
  -8   3   7   59.19    1.32
  -7   3   6   41.35    0.96
  -6  -1   2  463.46    2.64
  -6   1   3 1555.74    4.12
  -6   3   5  134.57    1.41
  -5  -3   1  156.26    2.30
  -5   4   6    6.03    0.93
  -4   5   8  238.61    2.16
  -2  -7   1   27.64    1.57
  -2  -5   0    6.61    1.00
  -2  -1   0  127.90    2.63
   0  -6   0 3804.32    7.98
   2  -6   0  208.86    1.86
   4  -5   0   51.85    1.08
   6  -4   1   26.14    0.85
   7   0   5   69.48    1.65
 -10  -3   5    7.75    1.24
 -10   0   6   49.19    1.15
  -9  -3   4    2.97    1.19
  -9   3   8   74.60    1.58
  -7  -6   3  183.43    4.53
  -7   0   3  709.46    2.90
  -2   1   1  824.79    4.19
  -2   5   7  219.32    2.21
   0   5   8  126.06    2.53
   7  -4   3  212.78    2.04
   7  -2   3  315.79    2.15
 -10  -2   5   11.26    1.24
  -9  -2   4   76.77    1.45
  -8  -3   3   19.40    1.13
  -5  -4   1  225.41    3.72
  -5  -2   1  472.53    3.26
  -5   2   3    0.71    0.53
  -5   3   4  402.92    2.18
  -5   5   8   35.84    1.39
  -3   2   2 1425.44    4.52
  -3   5   7 1353.36    4.48
  -2  -8   2    2.08    1.54
  -1   5   7    2.13    1.13
   2  -7   1   24.68    1.19
   4  -7   2   -0.79    1.34
   4  -6   1  208.02    1.78
   5  -5   1   -0.04    0.93
   5  -1   1    4.52    0.80
   6  -5   2   60.34    1.16
   7  -3   3   45.83    1.25
   7  -1   4  507.29    2.73
  -9   2   6   10.40    1.14
  -8  -4   3   15.63    1.39
  -8  -2   3   16.42    1.03
  -8   2   5   22.92    1.06
  -7   4   7    2.95    0.81
  -6   4   6   74.51    1.30
  -1  -7   1  131.11    1.97
   1  -7   1    6.30    1.12
   3   3   4  207.25    4.22
   5  -6   2   28.71    1.22
   6  -4   2    2.99    1.09
   6   0   3  119.24    1.50
 -10  -1   5   13.74    1.23
 -10   1   6    2.95    1.15
  -9  -1   4    5.18    1.00
  -9   1   5   63.16    1.26
  -9   3   7   37.11    1.26
  -8   1   4  139.43    1.42
  -8   3   6    1.03    1.07
  -7   2   4 1932.67    4.45
  -6   0   2  526.93    2.68
  -6   5   8   44.05    1.38
  -5   1   2  360.78    2.21
  -4   0   1    0.06    0.55
  -1  -8   2   25.34    1.49
  -1   4   4   97.77    1.59
   0  -8   2    0.34    1.29
   2  -5   0    6.62    0.83
   4   0   1 1788.07    5.36
   5   2   5   52.86    1.65
   6  -5   3    0.86    1.28
   7  -3   4  363.06    2.26
  -8  -1   3   27.11    1.09
  -7  -3   2   24.95    1.34
  -7   3   5   52.22    0.97
  -5   4   5   23.98    0.96
  -5   5   7  172.13    1.81
  -2   4   4   29.85    1.08
  -1  -5   0   85.52    1.71
   0   5   7   11.55    1.51
   3  -7   2   65.34    1.49
   3  -6   1   46.63    1.15
   4   3   6    2.29    1.56
   5  -3   1    3.25    0.83
   5  -2   1   34.68    0.86
   5   0   2   85.89    1.31
 -10   0   5   11.67    1.12
  -8   4   7   32.81    1.25
  -7  -2   2   10.53    0.95
  -7   1   3 2340.52    4.97
  -6   3   4   41.46    1.02
  -5  -1   1  172.20    1.84
  -4  -7   2   18.65    1.73
  -4   3   3  263.87    1.90
  -3   1   1  541.64    3.07
  -3   4   4  320.22    2.12
  -3   5   6  117.43    1.61
  -2   5   6    1.90    1.01
   0   4   4  175.76    2.32
   1  -5   0   84.89    1.33
   3  -2   0 1466.29    4.51
   4  -6   2    8.34    1.12
   5  -6   3  118.35    1.51
   5  -5   2   77.85    1.17
   6  -4   3   66.90    1.35
   6  -1   3   14.96    1.01
   6   0   4   36.62    1.23
  -9   0   4   85.26    1.21
  -7   4   6  478.14    2.28
  -6   2   3   57.89    0.99
  -4   2   2   29.34    0.79
  -4   5   6   64.93    1.27
  -3  -6   1   42.27    1.64
  -1   5   6   12.54    1.11
   0  -5   0    5.57    0.91
   2  -6   1    3.26    0.94
   3  -3   0 2647.64    5.63
   6  -3   3    3.51    1.02
   6  -2   3  104.10    1.41
 -10   2   6   40.20    1.31
  -9   2   5   39.70    1.18
  -8   0   3   18.75    0.99
  -7  -4   2   17.12    1.37
  -7  -1   2   42.44    1.12
  -6   4   5  239.00    1.82
  -4   4   4  359.93    2.17
   2  -7   2   77.89    1.24
   2  -4   0  690.02    3.03
   4  -4   1  561.48    2.53
   4  -1   1 1278.66    4.20
   4   3   7  477.48    4.72
   5  -1   2  143.12    1.49
   6  -4   4   14.46    1.32
   6   0   5    6.25    1.15
  -9   3   6  169.90    1.53
  -8  -5   3    8.28    1.76
  -8   2   4    7.34    0.99
  -8   3   5   10.65    1.06
  -5   5   6   17.75    1.15
   2  -1   0  121.44    1.72
   3  -7   3   61.89    1.45
   3  -5   1  385.05    2.13
   5  -5   3    0.23    1.04
   5  -3   2  131.63    1.49
   6  -3   4   38.77    1.27
   6  -1   4   53.91    1.22
   6   0   6    6.09    1.37
 -10  -3   4   65.93    1.88
 -10  -2   4  375.54    2.68
 -10   1   5   13.84    0.90
  -9   1   4    6.19    1.00
  -8   4   6    0.56    1.02
  -7   3   4  222.44    1.72
  -7   5   7  248.16    2.17
  -6   1   2  455.02    2.30
  -5   0   1  607.57    3.03
  -5   3   3   40.52    0.86
  -2  -4   0  690.80    5.27
   1  -7   2    2.55    1.08
   1  -6   1   12.06    0.79
   1  -4   0  610.08    3.14
   2  -3   0   29.88    1.01
   3  -6   2  121.64    1.45
   4  -6   3  131.30    1.50
   4  -5   2   -0.65    0.89
   4  -3   1  653.70    2.67
   5  -2   2   77.16    1.07
   5   0   3  629.92    3.03
 -10  -1   4   84.00    1.62
  -9  -2   3  137.05    1.81
  -7   0   2    4.96    0.82
  -7   2   3  618.81    2.66
  -7   4   5    4.30    0.94
  -6   5   6    0.76    1.02
  -5   2   2  245.14    1.80
  -5   4   4  168.72    1.60
  -4   1   1  855.68    3.50
  -3  -7   2    0.12    1.29
  -3   5   5   58.95    1.21
  -2  -6   1   72.11    1.55
  -2   5   5   83.60    1.54
   0  -6   1   23.92    1.08
   0   5   6   25.47    1.55
   2  -2   0 2417.88    6.25
   4   2   4 3175.03    8.81
   5  -5   4   14.41    1.32
   6  -2   5    6.35    1.20
  -9  -1   3   80.80    1.43
  -8   1   3   25.90    0.83
  -6  -2   1   41.67    1.24
  -4   5   5    6.05    0.98
  -2   3   2 2925.20    6.64
  -1  -6   1  178.58    1.99
   0  -7   2   69.08    1.41
   3   0   1  321.11    2.53
   6  -1   6  313.43    2.24
 -10   0   4  447.63    2.54
 -10   2   5   11.58    1.25
  -9   3   5   43.49    1.34
  -6  -1   1  353.26    2.51
  -6   3   3 1176.76    3.52
  -3   3   2   14.89    0.87
  -2  -7   2  303.36    2.62
  -1  -7   2    0.33    1.00
  -1  -4   0  622.76    3.96
  -1   2   1 2788.70    8.04
  -1   5   5  141.57    2.05
   1   4   4    1.34    1.20
   2  -6   2   -0.05    0.95
   4  -5   3  576.03    2.63
   4  -4   2    7.04    0.66
   4   0   2    7.14    0.81
   5  -3   3    4.93    0.92
   5  -1   3   30.92    1.01
  -9   0   3  161.02    1.70
  -9   2   4   82.57    1.43
  -9   4   6    6.64    1.36
  -8  -2   2   16.42    1.05
  -8   3   4  118.25    1.40
  -7   5   6   22.89    1.27
  -6  -3   1  235.42    2.75
  -6   4   4   72.04    1.06
  -5   5   5   24.10    1.13
  -4   6   7  145.64    1.94
  -3   4   3   11.12    0.83
  -2   2   1  770.00    3.66
  -2   4   3    8.65    0.83
   0   3   2  608.78    4.26
   3  -6   3   95.25    1.26
   5  -4   4    1.58    0.79
   5  -2   3  471.07    2.28
   5   0   4    4.85    1.00
  -9  -4   3   88.26    2.12
  -8  -1   2  261.26    2.08
  -8   4   5   13.05    1.17
  -7   1   2   41.52    0.89
  -6   2   2  413.54    2.21
  -5   1   1  159.84    1.61
  -4   3   2  290.71    1.95
  -4   4   3  743.56    2.98
  -3   2   1  246.30    2.01
  -3   6   7  433.76    2.97
  -1   4   3    1.14    0.80
   1  -7   3  162.24    1.73
   1  -5   1   22.78    0.94
   2  -7   4   14.86    1.37
   3  -3   1 1201.09    3.73
   4  -3   2    4.19    0.83
   5  -3   4   11.92    1.09
 -10   1   4   78.38    1.27
  -8  -3   2  152.88    2.03
  -8   2   3   18.18    1.05
  -6   0   1   60.73    1.16
  -6   5   5   33.83    1.19
  -4  -5   1  119.57    3.02
  -2   6   7   43.32    1.76
   1  -6   2   78.53    1.34
   1  -2   0 1765.87    6.22
   1   5   7    0.65    2.07
   2  -4   1   18.52    0.91
   3  -6   4  431.81    2.53
   3  -2   1  131.77    1.48
   3  -1   1 2507.13    6.21
   4  -5   4    1.56    1.06
   4  -4   3  272.06    1.91
   4  -2   2    7.39    0.83
   4  -1   2    1.64    0.56
   4   2   5    3.01    1.18
   5  -1   4    9.41    0.99
 -10   3   5    9.58    1.23
  -9   1   3   83.14    1.35
  -8   0   2   19.78    1.05
  -8   5   6   -0.27    1.23
  -7   3   3 1502.80    3.80
  -7   4   4 1199.35    3.49
  -5  -6   2   62.86    2.36
  -5   4   3    5.93    0.88
  -3   0   0 3336.44    8.31
  -3   5   4  223.27    1.90
   0  -7   3  331.70    2.42
   2  -6   3    0.29    1.01
   2   2   2    0.45    1.07
   5   0   5   58.23    1.12
  -9   3   4    3.03    1.05
  -9   4   5   25.04    1.24
  -7   5   5   31.82    1.23
  -5  -7   3    6.47    1.86
  -5   3   2  146.92    1.37
  -4  -2   0   80.29    1.83
  -4  -1   0  136.23    1.88
  -4   2   1   -0.28    0.74
  -4   6   6   18.68    1.29
  -3   6   6   29.98    1.46
  -2   5   4    9.02    0.91
   0  -5   1  538.37    2.92
   0  -3   0    1.92    0.81
   2  -5   2  204.03    1.70
   3  -6   5  195.48    2.03
   3  -5   3  128.54    1.46
   3  -4   2  448.20    2.20
   4  -5   5   25.15    1.11
   5  -3   6    0.27    1.16
   5  -2   5   51.98    1.30
   5  -1   5   87.30    1.40
   5   0   6   58.74    1.46
   5   0   7   79.33    1.68
 -10  -2   3   82.38    1.72
 -10   2   4  366.73    2.33
  -7   2   2    9.82    0.94
  -5   6   6    1.04    0.90
  -1  -7   3    0.66    1.08
   0  -6   2   -0.28    0.98
   0   5   5   33.45    1.55
   3   3   5    4.60    1.26
   4  -4   4 1958.61    4.47
   4  -3   3  899.50    3.09
   4   0   3  483.07    2.71
   4   2   6    8.48    1.28
   5  -1   6    0.58    1.07
 -10   0   3   95.05    1.61
  -9   2   3  134.05    1.56
  -8   1   2  237.57    1.69
  -8   3   3   17.24    1.00
  -8   4   4    0.60    1.11
  -7  -2   1  224.12    2.34
  -7  -1   1    3.04    0.90
  -6   1   1  354.79    2.07
  -6   4   3   28.50    0.88
  -6   6   6   45.19    1.46
  -2   6   6  127.26    2.04
  -1  -5   1  118.56    1.78
   4  -2   3  438.90    2.34
   4   2   7   58.47    1.82
  -9  -1   2   41.98    1.23
  -8   5   5   12.98    1.26
  -7   0   1  275.40    1.99
  -6   3   2  181.90    1.47
  -6   5   4   24.74    1.08
  -5   2   1  429.28    2.23
  -4  -7   3   43.92    1.77
  -4   0   0   48.68    1.18
  -2  -7   3   31.49    1.30
  -1  -6   2   68.39    1.33
  -1   5   4  234.96    2.30
  -1   6   7    1.75    1.54
   0  -7   4   19.97    1.30
   1  -7   5   10.35    1.24
   1  -6   3   22.01    1.10
   1  -4   1   57.87    1.17
   3  -5   4  157.32    1.45
   3  -3   2  310.48    1.90
   4  -4   5    3.02    0.82
   4  -1   3 1072.79    3.61
 -10   1   3  383.30    2.39
  -9  -2   2   -1.18    1.11
  -9   0   2    0.21    0.92
  -8  -4   2    8.93    1.45
  -7   4   3  376.78    2.14
  -4   6   5   20.90    1.13
  -3  -7   3   21.69    1.33
  -3  -5   1   25.13    1.35
  -3   4   2  352.54    2.21
  -2  -5   1  113.61    1.87
  -2   1   0  115.91    1.67
  -1  -3   0  187.68    2.54
   1  -5   2   11.76    0.90
   2  -5   3  258.03    1.87
   3  -4   3  160.59    1.41
   4  -4   6    6.18    0.97
   4  -3   4    1.43    0.74
 -10   3   4   63.48    1.33
  -9   4   4   51.36    1.49
  -8   2   2   17.31    1.07
  -7   5   4  119.21    1.60
  -5   6   5   11.71    1.13
  -4  -6   2    0.84    1.25
  -4   4   2    7.25    0.87
  -3   6   5  120.26    1.66
  -2  -6   2    4.43    1.00
  -2   4   2    0.69    0.77
   2  -6   5   12.15    0.94
   2  -4   2    1.35    0.57
   2  -2   1  158.02    1.69
   2   0   1  601.28    3.93
   3  -5   5   17.66    0.94
   3  -2   2 1300.37    3.97
   3   0   2 1862.60    5.66
   4  -3   5   23.56    1.13
   4  -2   4 3077.04    5.75
   4   0   4 3698.25    6.99
  -9   1   2   45.17    1.15
  -9   3   3   52.07    1.39
  -7  -3   1    0.58    1.20
  -7   1   1    3.78    0.87
  -7   3   2   21.34    0.82
  -6  -4   1   11.77    1.76
  -6   2   1   41.17    0.88
  -6   6   5   90.13    1.35
  -5   0   0   58.92    1.16
  -5   4   2  138.50    1.51
  -4   3   1  234.08    1.81
  -4   5   3  117.64    1.42
  -3  -6   2   90.33    1.79
  -3   3   1  179.26    1.59
  -3   5   3   38.63    1.09
  -2   3   1  524.32    2.87
  -1  -7   4   58.26    1.46
   0  -7   5    8.78    1.28
   0  -6   3  109.50    1.49
   1  -6   4    0.71    1.05
   2  -6   6    0.39    1.25
   2  -1   1  590.05    3.35
   3  -5   6   38.76    1.14
   3  -1   2  767.06    3.33
   4  -3   6    1.37    1.08
   4  -3   7  448.76    2.62
   4  -1   4    1.02    0.93
   4   1   8    6.78    1.41
 -10   2   3   72.40    1.54
  -8   4   3   14.61    1.15
  -8   5   4   71.56    1.39
  -7   6   5    3.44    1.34
  -5  -2   0   36.57    1.33
  -5   5   3   13.91    0.99
  -4   1   0  133.40    1.45
  -2  -3   0   31.75    1.66
  -2   5   3   66.87    1.41
  -1   1   0  541.10    4.04
  -1   6   6   32.67    1.69
   0  -4   1   83.56    1.38
   2  -5   4   19.70    1.13
   3  -4   4  777.80    2.82
   3  -3   3  254.77    1.81
   3   3   7   55.88    1.93
   3   3   8  125.34    2.43
   4  -2   5    1.69    0.95
   4   1   6    2.87    1.05
   4   1   7  643.41    3.43
  -8  -1   1    5.85    0.97
  -8   0   1   -0.16    0.95
  -6   4   2  269.53    1.87
  -6   5   3  683.58    2.83
  -5   3   1  152.18    1.49
  -1   4   2  240.82    2.19
   0  -5   2  184.70    1.69
   1  -3   1   92.25    1.39
   3  -4   5  453.29    2.33
   4  -2   6    9.51    1.10
   4  -2   7   60.33    1.49
   4  -1   5   31.56    1.08
   4  -1   8    9.01    1.33
   4   0   5    1.21    0.87
   4   0   8    2.94    1.34
  -9   2   2    1.13    1.02
  -8  -2   1    0.19    1.13
  -8   3   2  153.29    1.43
  -7   2   1  234.85    1.76
  -5   1   0 1054.66    3.67
  -5   6   4   68.48    1.40
  -4   6   4  124.15    1.58
  -2  -7   4    2.81    1.08
  -1  -7   5   54.23    1.58
  -1   3   1  104.94    1.48
   1  -6   5   17.84    1.07
   1  -5   3  494.64    2.43
   2  -4   3    8.27    0.88
   2  -3   2  551.49    2.62
   3  -4   6   15.10    1.15
   3   2   4 1212.08    5.51
   4  -1   6    3.24    1.02
   4  -1   7  637.75    2.96
   4   0   6   11.59    1.08
   4   0   7   74.70    1.57
 -10  -1   2  132.90    1.87
 -10   0   2   17.18    1.31
 -10   3   3  286.30    2.20
  -9   4   3   86.48    1.48
  -8   1   1    4.58    0.93
  -7  -6   3  176.75    4.36
  -7   4   2   15.31    0.96
  -7   5   3  860.01    3.22
  -6  -1   0   32.66    1.10
  -6   0   0  402.76    2.39
  -6   3   1  226.91    1.70
  -6   6   4   49.12    1.44
  -3   2   0 1407.09    4.38
  -3   6   4  101.94    1.56
  -1  -6   3    6.70    1.01
   0   5   4   20.67    1.33
   1  -6   6   17.54    1.27
   1  -4   2  336.50    2.13
   2  -5   5  250.52    1.73
   2   4   6    1.35    1.65
   3  -4   7   18.65    1.04
   3  -3   4  210.83    1.71
   3  -2   3  318.68    2.00
 -10  -2   2   18.38    1.30
 -10   1   2  132.34    1.71
  -4  -3   0   63.75    2.99
  -4   2   0   80.42    1.24
  -3  -7   4   93.80    1.61
  -2   2   0 2208.10    5.94
  -1   5   3    6.07    0.92
   2  -5   6  127.93    1.44
   2  -5   7    2.62    1.32
  -9   3   2   34.42    1.29
  -8   2   1   -0.04    0.87
  -8   5   3    7.40    1.19
  -7   6   4  611.28    2.80
  -6   1   0   29.63    0.97
  -5   2   0   35.10    0.96
  -4  -7   4  146.68    2.14
  -4   5   2   73.68    1.17
  -2  -7   5   19.84    1.33
  -1  -5   2    2.33    0.85
  -1  -4   1  823.87    3.98
  -1   6   5  158.94    2.35
   1  -5   4  504.66    2.48
   1   3   2   55.34    2.20
   2  -4   4  102.89    1.33
   2   4   8   69.24    2.54
   3  -3   5    5.04    0.91
   3  -1   3  460.58    2.46
   3   0   3  520.79    2.89
 -10   2   2   15.80    1.33
  -9   0   1   64.89    1.40
  -8   4   2   10.17    1.17
  -7   3   1    1.10    0.72
  -6  -2   0  282.40    2.61
  -5   4   1  199.86    1.65
  -5   5   2   76.55    1.26
  -4   4   1    7.83    0.64
  -3   4   1  109.06    1.37
  -3   5   2    0.38    0.79
  -2  -6   3    0.04    0.95
  -2   6   4    4.12    1.03
   0  -6   5   10.38    1.13
   2  -2   2    0.67    0.73
   2   4   7   55.37    2.29
   3  -3   6   67.30    1.08
   3  -3   7   55.98    1.12
   3  -2   4 1210.03    3.65
   3   2   5  810.94    4.27
  -9  -1   1  105.76    1.67
  -9   1   1  107.90    1.53
  -8  -3   1    9.12    1.35
  -7   0   0  355.23    2.28
  -6   5   2   52.43    1.25
  -5   6   3    9.53    1.09
  -4   6   3  205.33    1.79
  -4   7   5    0.67    1.32
  -1  -6   4   72.77    1.34
   0  -5   3 1007.39    3.44
   1  -2   1  156.42    1.74
   2  -4   5   25.99    1.13
   2  -3   3  715.72    2.86
   3   2   8  162.64    2.17
  -8   3   1    9.31    0.99
  -7  -1   0  116.29    1.56
  -7   1   0  118.53    1.40
  -6   2   0  269.39    1.76
  -6   4   1   13.20    1.01
  -6   6   3    7.18    1.14
  -3  -7   5   26.09    1.44
  -2  -7   6    1.16    1.16
  -2   4   1  203.29    1.72
  -2   5   2  884.56    3.57
  -1   2   0 1820.49    6.13
   0  -6   6    2.24    0.84
   0  -6   7  321.35    2.31
   0  -3   1 1619.65    5.33
   0   4   2    3.38    0.95
   2  -4   6    2.21    1.05
   2  -4   7   57.39    1.40
   2  -4   8   76.47    1.64
   3  -2   5  819.49    2.96
   3  -2   6   32.06    1.09
   3  -2   7   31.27    1.15
   3  -1   4  221.89    1.79
   3   2   6   34.13    1.26
   3   2   7   32.39    1.34
  -9  -4   2    0.71    1.60
  -9  -2   1   59.76    1.55
  -9   2   1   57.18    1.40
  -9   4   2   -0.45    1.25
  -7   5   2    7.98    0.86
  -7   6   3  185.14    1.87
  -5   3   0  476.50    2.35
  -4   3   0   61.15    0.99
  -3  -6   3   51.25    1.35
  -3   3   0 2565.96    5.52
  -3   6   3   46.58    1.03
  -3   7   5   29.77    1.40
   0  -4   2    2.81    0.82
   0   3   1 1699.58    6.67
   1  -5   6   78.83    1.35
   1  -5   7    0.41    1.22
   1  -3   2   54.71    1.13
   2  -1   2 1431.02    4.72
   3  -1   8  193.73    1.90
   3   0   4 1333.32    4.27
   3   1   8  188.74    2.09
  -7   2   0  342.14    2.05
  -7   4   1  112.91    1.24
  -5  -3   0  508.03    5.24
  -5   7   4   33.98    1.32
  -4  -7   5    1.37    1.32
  -2  -4   1  202.60    2.40
  -2   7   6    0.99    1.35
  -1  -6   5  160.20    1.70
   0  -5   4   21.77    0.98
   2  -3   4   24.10    0.91
   3  -1   5    0.95    0.78
   3  -1   6   70.38    1.26
   3  -1   7   72.15    1.38
   3   0   8  194.39    1.97
   3   1   5    1.00    0.94
 -10   0   1   93.56    1.68
 -10   1   1   99.20    1.61
  -8   0   0   14.45    1.12
  -8   1   0  233.02    1.84
  -8   5   2   65.74    1.24
  -6  -6   3    6.45    1.56
  -6   3   0   15.33    0.95
  -4  -6   3  204.17    2.25
  -4   7   4  142.13    1.84
  -2  -6   4    5.44    1.02
  -2   3   0   30.76    0.83
  -2   6   3    0.85    0.84
  -1   6   4   72.40    1.60
   1  -4   4    0.56    0.86
   1   4   3   11.31    1.45
   2  -2   3   48.35    1.07
   2   0   2    0.61    0.70
   3   0   5 1068.37    3.73
   3   0   6   44.21    1.21
   3   0   7   35.96    1.18
   3   1   6   73.66    1.35
   3   1   7   65.91    1.36
 -10  -1   1  100.88    1.82
  -9   3   1   81.77    1.24
  -8  -1   0  228.42    2.05
  -8   4   1    1.09    1.18
  -5  -6   3    9.33    1.25
  -5   5   1   50.85    1.23
  -5   6   2   59.46    1.25
  -4   0  -1 1582.64    5.03
  -4   5   1  114.81    1.38
  -1  -6   6   30.25    1.18
  -1  -5   3    5.80    0.65
  -1   4   1  829.59    3.69
  -1   5   2    2.45    1.04
   0   6   6    2.01    1.70
   1  -1   1  100.31    1.60
   2  -3   5  491.82    2.27
   2  -3   6  300.97    1.94
   2  -3   7    1.49    1.04
   2  -3   8   -0.32    0.88
  -8   2   0    9.21    1.04
  -7  -4   1  116.87    3.52
  -7   3   0  117.16    1.44
  -6   5   1  108.36    1.44
  -6   6   2  174.58    1.73
  -5   0  -1   70.82    1.23
  -5   1  -1    4.64    0.79
  -4   1  -1 1172.14    3.94
  -4   4   0   69.52    1.15
  -4   6   2    1.39    0.99
  -3  -5   2    0.60    0.88
  -3   1  -1 2549.52    6.16
  -3   7   4   84.62    1.55
  -2   7   5   20.35    1.58
  -1  -6   7    1.19    0.88
   0  -5   5   31.60    0.85
   0   5   3 1008.37    5.22
   1  -4   5   32.74    1.04
   2  -2   9  152.06    1.91
   2   3   4   21.73    1.48
  -7   5   1    0.48    1.15
  -7   6   2   17.04    1.28
  -5   4   0   13.20    0.70
  -4   2  -1 1043.94    3.51
  -3  -6   4   99.94    1.59
  -2  -6   5  113.85    1.54
   0  -5   6   25.91    1.04
   0  -5   7   11.98    1.18
   1  -4   6   75.01    1.28
   1  -4   7   -0.04    1.09
   1  -4   8    3.16    0.87
   1  -3   3 1463.47    4.14
   1   5   7    0.67    2.03
   2  -2   4  226.54    1.72
  -9  -3   1   78.86    2.07
  -9   0   0    9.12    1.23
  -9   1   0  155.97    1.71
  -9   4   1   38.28    1.18
  -8   3   0  170.08    1.69
  -6   0  -1    0.55    0.85
  -6   1  -1  271.23    1.91
  -6   4   0  148.55    1.35
  -5  -1  -1    3.94    0.91
  -5   2  -1   34.87    0.98
  -5   7   3    5.09    0.96
  -4  -1  -1 1249.22    5.22
  -3   2  -1  114.92    1.40
  -1  -5   4  220.87    1.80
  -1  -4   2  223.98    1.96
  -1   3   0  187.27    1.88
   2  -2   8  111.96    1.30
   2  -1   3 1565.68    4.61
   2  -1   9   17.33    1.29
   2   2   3   42.37    1.55
   2   3   8   -0.17    1.30
  -9   2   0    8.10    1.22
  -8  -2   0    8.88    1.20
  -8   5   1    4.83    1.32
  -7   4   0  231.36    1.82
  -6  -3   0   14.75    1.39
  -6   2  -1    7.66    0.94
  -4  -5   2   72.75    1.73
  -3  -4   1   99.21    1.94
  -3  -1  -1 2538.89    8.39
  -2  -6   6  127.98    1.55
  -2   0  -1  574.04    3.82
  -2   1  -1  570.26    3.20
  -2   5   1  108.05    1.25
   2  -2   5   42.41    0.92
   2  -2   6    2.30    0.86
   2  -2   7   96.44    1.18
  -9  -1   0  156.75    1.93
  -7   1  -1    0.05    0.88
  -4   3  -1  605.09    2.61
  -2  -6   7   38.49    1.28
  -2   4   0  601.34    2.73
  -2   6   2    4.01    0.91
  -2   7   4    0.53    1.36
  -1  -3   1  101.30    1.66
  -1   6   3    7.11    1.05
   0  -3   2  538.79    2.91
   0   6   5    8.23    1.67
   1  -3   4 1336.75    3.79
   1  -3   9    2.63    0.92
   2  -1   8   -0.12    1.07
   2   0   9  199.14    1.99
   2   1   9   18.28    1.36
  -9   3   0  105.45    1.67
  -8   4   0    1.45    1.19
  -7   0  -1   68.32    1.28
  -7   2  -1   42.34    1.12
  -6   3  -1  206.99    1.65
  -6   6   1    1.72    1.10
  -5   3  -1    3.21    0.61
  -5   5   0  158.11    1.58
  -5   6   1   68.27    1.32
  -3  -6   5  120.05    1.61
  -3   7   3   24.81    1.23
  -2   2  -1  146.89    1.59
  -1  -5   5  137.94    1.43
   0  -4   4  152.76    1.39
   0  -4   9   41.07    1.46
   0  -2   1  228.09    2.32
   1  -3   8   66.13    1.34
   2  -1   4   39.25    0.99
   2   0   3   36.81    1.05
   2   3   5  493.38    3.97
   2   3   7    1.74    1.08
  -7   6   1   48.27    1.50
  -6  -5   2   53.95    2.11
  -6   5   0    0.20    0.78
  -5  -5   2   72.07    1.84
  -5   7   2   29.44    1.34
  -4   5   0   42.55    0.92
  -1  -5   6   11.56    0.99
  -1  -5   7    2.06    1.04
  -1  -5   8   27.38    1.20
   0  -4   8   72.56    1.43
   1  -3   5   66.75    0.99
   1  -3   7    5.58    0.90
   2  -1   5  714.68    2.90
   2  -1   6  452.61    2.33
   2   0   8  135.57    1.62
   2   3   6  289.71    2.93
  -8   1  -1   72.62    1.35
  -7  -1  -1   -0.27    1.01
  -7   3  -1    0.18    0.97
  -7   5   0   73.38    1.44
  -5  -6   4   66.10    1.54
  -4   7   2   16.30    1.23
  -3   5   0  859.27    3.12
  -3   6   1   40.89    1.14
  -1   5   1  110.44    1.52
   0  -4   6   -0.09    0.93
   0  -4   7  753.59    2.87
   0   4   1   81.22    1.59
   1  -2   3   22.35    0.89
   1  -2   9   14.22    1.14
   2   1   8    0.63    0.99
  -8   0  -1  172.20    1.78
  -8   2  -1  127.20    1.40
  -6  -6   4   51.13    1.72
  -6   4  -1   23.55    1.04
  -5   4  -1   13.10    0.73
  -4  -6   5   22.65    1.20
  -4   4  -1  499.00    2.35
  -3  -6   7  397.29    2.32
  -3  -5   3   38.30    1.16
  -2  -5   4    8.27    0.72
  -2   3  -1  469.60    2.48
  -1  -4   3    0.53    0.76
   0   5   2  178.13    2.21
   1   1   1  101.76    3.27
   2   2   4  200.85    2.41
  -9  -2   0   10.39    1.34
  -8   3  -1   54.07    1.29
  -3   7   2    0.99    1.12
  -2  -4   2    1.58    0.73
   0  -3   3 3061.57    6.16
   1  -2   8    4.79    0.93
   1  -1   2    3.85    0.70
   1   0  10    4.45    1.29
   2   0   5   55.78    1.09
   2   0   6    0.43    0.61
   2   1   7    1.39    0.86
  -9   1  -1  175.53    1.90
  -9   2  -1   -0.05    1.12
  -7   4  -1   10.61    0.82
  -6   6   0   78.39    1.50
  -5   6   0    4.40    1.04
  -4  -6   6   16.07    1.22
  -4  -4   1    7.10    1.15
  -2  -5   5   80.15    1.31
  -2   5   0    5.24    0.60
  -2   6   1   67.70    1.31
  -1  -4   9   43.29    1.33
  -1   1  -1  102.38    1.66
   0  -3   9   96.05    1.28
   0   6   4  103.27    2.20
   1  -2   4    2.25    0.75
   1  -2   7   10.60    0.98
   1  -1   9    3.70    1.13
   2   1   5  652.61    3.29
   2   1   6  450.89    2.63
   2   2   5   43.46    1.25
  -9   0  -1    0.76    1.08
  -8  -1  -1   73.39    1.50
  -8   4  -1   72.05    1.51
  -6  -2  -1    9.48    1.06
  -5  -6   5   10.31    1.18
  -5   1  -2  131.73    1.40
  -5   2  -2   75.63    1.18
  -5   5  -1    0.95    0.85
  -5   7   1   14.43    0.97
  -4  -6   7  145.14    1.88
  -4   1  -2    0.26    0.74
  -4   2  -2    6.53    0.78
  -4   6   0   46.66    1.18
  -2  -5   6    2.88    0.91
  -2  -5   7  215.32    1.77
  -2  -5   8   13.54    0.90
  -1  -4   4   98.02    1.29
  -1   2  -1  156.91    1.69
   0  -3   8  175.59    1.68
   0  -2  10    7.52    1.21
   0   3   0    1.33    0.91
   1  -2   5   67.18    1.11
   1  -2   6  215.42    1.68
   1   1  10  237.78    2.16
  -6   1  -2  194.33    1.55
  -6   2  -2    7.73    0.69
  -6   5  -1  126.90    1.36
  -5   3  -2  121.08    1.38
  -4  -2  -1 1122.27    6.30
  -4   5  -1  217.75    1.67
  -4   7   1   52.17    1.36
  -2  -1  -1  593.88    5.08
  -2   4  -1   17.42    0.85
  -1  -4   8    7.04    1.00
  -1   7   4   54.96    1.62
   0  -3   4   19.60    0.86
   1  -1   8   91.69    1.31
   1   0   9   16.39    1.13
  -7   1  -2   10.09    0.99
  -7   2  -2  124.63    1.47
  -7   5  -1    0.90    0.91
  -6  -6   5   85.44    1.80
  -6   0  -2   12.42    0.88
  -6   3  -2  128.06    1.47
  -5  -6   6    1.59    1.16
  -4  -5   3  109.87    1.61
  -4   0  -2    6.25    0.77
  -4   3  -2    3.24    0.61
  -3   1  -2  689.54    3.09
  -3   2  -2 1105.21    3.54
  -2   7   2  277.53    2.27
  -1  -4   6   57.22    1.12
  -1  -4   7   -0.26    0.67
  -1  -3  10   42.12    1.48
  -1   3  -1   90.57    1.34
   0  -3   5  116.87    1.31
   0  -3   6   79.97    1.20
   0  -3   7   16.09    0.79
   1   3   9    2.74    1.28
   1   4   8    1.38    1.37
  -7   3  -2    7.58    1.04
  -5  -6   7   89.53    1.69
  -3  -5   9    0.14    1.09
  -3   3  -2  308.38    1.91
  -3   7   1   -0.39    1.11
   0  -2   2   20.56    0.87
   0  -2   9   56.49    1.20
   1  -1   3 3293.25    6.86
   1  -1   7   14.03    0.89
   1   1   9    3.86    1.16
  -9  -1  -1  187.85    2.11
  -8   1  -2    7.84    1.04
  -8   2  -2    5.78    1.15
  -7  -6   5    3.31    1.36
  -7   0  -2  150.28    1.66
  -6   4  -2    3.57    1.04
  -5   4  -2   45.40    0.93
  -4   4  -2    8.00    0.87
  -3  -5   8  100.19    1.48
  -2  -4   3    5.63    0.78
  -1   5   0   73.74    1.10
  -1   6   1  157.19    1.69
  -1   7   3    0.75    1.23
   0  -1  10  352.87    2.16
   0   6   3  105.27    2.03
   1  -1   6   82.26    1.24
   1   0   8   10.44    0.97
  -8   3  -2    9.64    1.22
  -7   4  -2   67.40    1.40
  -6  -6   6   47.62    1.52
  -6   6  -1   20.32    0.97
  -5   6  -1    8.15    0.86
  -4   6  -1  179.38    1.68
  -4   7   0   29.70    1.17
  -3  -5   6  117.05    1.30
  -3   0  -2 1789.66    5.40
  -2  -4   9   36.26    1.06
  -2   2  -2    1.09    0.72
  -2   5  -1  105.97    1.31
  -1   0  -1  149.06    2.36
   0  -2   8  159.74    1.57
   0   5   1  509.54    3.15
   1  -1   4 2613.88    5.67
   1  -1   5  235.34    1.75
   1   4   2  354.60    4.28
  -8  -2  -1  129.67    2.03
  -8   0  -2    8.35    1.02
  -5  -5   3   15.56    1.06
  -5   5  -2   59.48    1.19
  -4  -5   4  328.12    2.29
  -3   4  -2  411.98    2.07
  -2  -4   8    1.08    1.04
  -2   1  -2 1449.63    4.64
  -2   3  -2  571.54    2.58
  -2   7   1   22.14    1.06
  -1   4  -1   55.00    1.12
   1   1   8   90.23    1.44
   1   3   8   63.14    1.48
   1   4   7    0.07    1.28
  -6  -1  -2  200.65    1.96
  -6   5  -2   50.25    1.08
  -4  -5   9    7.07    1.29
  -4   5  -2    0.83    0.93
  -3  -4  10  344.63    2.37
  -3   6  -1   39.09    1.09
  -3   7   0  278.31    2.01
  -2  -4   4   26.19    0.87
  -1  -3   3   32.72    0.98
  -1  -3   8   74.56    1.07
  -1  -2  10    0.39    0.85
   0  -2   3 1039.45    3.76
   0  -2   7 1159.42    3.42
   0  -1   9  125.17    1.30
   1   2   8    5.68    1.05
  -7  -1  -2    9.97    1.12
  -4  -5   5    6.37    0.95
  -4  -5   8  227.65    1.96
  -4  -1  -2    0.20    0.90
  -2  -4   5  332.56    2.04
  -2  -4   6  165.15    1.52
  -2  -3  10    1.28    1.05
  -2   4  -2    0.47    0.72
  -1  -3   7    0.10    0.87
  -1   7   2    0.16    1.19
   0  -2   6    0.95    0.78
   0  -1   1 3884.78   10.88
   0   1  10  377.41    2.48
   1   0   6  309.13    2.02
  -9  -3   0   99.96    2.49
  -9   0  -2   59.90    1.50
  -6   3  -3    3.01    0.99
  -5   1  -3   24.47    0.94
  -5   3  -3    5.15    0.69
  -4  -5   6   59.62    1.25
  -4  -5   7  108.66    1.49
  -4   2  -3  419.00    2.18
  -4   3  -3  803.79    2.87
  -3   5  -2  135.17    1.28
  -1  -3   4  836.11    3.13
  -1  -3   6   14.60    0.89
  -1  -2   9   68.55    1.30
   0  -2   4  250.80    1.75
   0  -2   5  151.14    1.41
   0  -1   8  197.91    1.63
   0   2  10    8.64    1.30
   0   6   2    0.72    0.92
   1   1   7   14.42    0.92
   1   3   1   93.19    2.29
  -9  -2  -1    0.81    1.40
  -7   3  -3   42.66    1.23
  -6   1  -3   11.59    0.74
  -6   4  -3   59.34    1.32
  -5   4  -3  242.77    1.78
  -5   6  -2   23.29    1.23
  -4   1  -3  985.55    3.35
  -4   7  -1   65.42    1.46
  -3  -4   9    8.71    0.85
  -2   6  -1    3.62    0.90
  -1  -2   1 2645.77    8.43
  -1   5  -1   22.74    0.87
  -1   6   0  191.01    1.78
   0   0   9   64.40    1.21
   0   6   7  203.60    4.89
   1   0   3   72.32    1.29
   1   0   5   92.53    1.30
   1   2   7   10.93    1.07
   1   3   7    5.04    0.96
  -8  -5   3    6.26    1.62
  -8  -1  -2    7.93    1.19
  -8   2  -3    3.06    1.12
  -7  -5   3  841.94    4.99
  -7   1  -3   55.14    1.25
  -7   4  -3  200.34    1.87
  -4   4  -3  238.45    1.60
  -4   6  -2    6.44    0.81
  -3  -4   3   10.44    0.86
  -3  -4   8  341.67    2.11
  -3   2  -3  295.34    1.87
  -3   3  -3  238.65    1.69
  -2   0  -2    1.67    0.69
  -2   5  -2  174.39    1.51
  -2   7   0    0.67    1.03
  -2   8   2    2.77    1.26
  -1  -1  10   56.81    1.05
  -1   2  -2 1208.35    4.08
   0   2  -1  234.31    2.26
   0   3  -1 1650.41    5.18
   1   0   4    0.43    0.54
  -6   5  -3    0.70    1.19
  -5  -5   5   21.20    1.24
  -5  -5   8   31.05    1.26
  -5   5  -3    2.05    1.07
  -3   4  -3  150.97    1.45
  -3   6  -2  108.48    1.35
  -3   7  -1  116.22    1.54
  -1  -2   8   12.21    0.96
  -1   7   1  116.35    1.68
   0  -1   7   17.65    0.87
   0   4   9   34.91    1.68
   0   5   0    2.42    0.81
   1   1   6   79.66    1.21
  -8   1  -3   12.99    0.95
  -6  -4   1   11.14    1.55
  -6   0  -3  103.29    1.43
  -5  -5   6   16.61    1.03
  -5  -5   7  170.31    1.71
  -4  -4   2    6.18    0.86
  -4   5  -3  544.94    2.43
  -3  -4   7  727.17    2.76
  -3  -3  10   10.86    1.23
  -3  -2  -1  119.02    2.93
  -2  -3   2 2752.39    6.95
  -2  -3   8   27.51    0.82
  -2  -2  10  109.45    1.27
  -2  -1  11   36.44    1.36
  -1   4  -2  354.96    2.09
   0   0   8  195.10    1.64
   0   6   1   21.34    1.27
  -7   0  -3  309.31    2.21
  -6  -5   4   20.63    1.12
  -4  -4   9    5.79    1.07
  -4   0  -3  467.01    2.53
  -3  -4   6   27.85    0.92
  -2   2  -3   40.25    0.97
  -2   3  -3  707.94    2.73
  -1  -2   7    6.48    0.84
  -1  -1   9   74.64    1.21
  -1   0  10    0.93    1.08
  -1   1  -2    4.83    0.67
   0  -1   6  123.67    1.32
   0   4  -1   79.61    1.27
   1   1   5  234.19    1.94
   1   3   6   87.63    1.64
  -8   0  -3    0.57    1.05
  -6  -5   8   39.81    1.35
  -5   6  -3  108.76    1.59
  -4   7  -2    0.55    0.88
  -3   5  -3  115.31    1.24
  -2  -3   7  295.67    1.75
  -2   4  -3    8.33    0.84
  -2   6  -2   -0.32    0.86
  -2   7  -1   20.68    1.10
  -1   6  -1   11.94    0.96
   0  -1   2 2310.20    6.71
   1   4   1   60.48    1.66
  -6  -5   5   32.14    1.20
  -6   3  -4   34.55    1.16
  -6   4  -4   13.50    1.09
  -5   2  -4    2.37    0.82
  -5   3  -4   11.26    0.75
  -5   4  -4    0.82    0.94
  -4  -4   8   44.19    1.15
  -4   3  -4    0.23    0.90
  -4   6  -3  126.80    1.60
  -3  -3   9    0.86    0.92
  -2  -3   6   46.67    1.05
  -2  -2   9   65.19    1.14
  -1   5  -2   10.77    0.83
  -1   7   0   47.78    1.28
   0   0   7 1375.58    3.83
   0   1   8  199.88    1.72
   1   1   4 2672.76    6.71
   1   4   5   32.49    1.52
  -7  -5   4  108.18    1.79
  -7   2  -4   96.60    1.50
  -7   3  -4  304.80    2.02
  -6  -5   6    1.59    0.97
  -6  -2  -2    8.59    1.17
  -4   2  -4 2883.19    5.28
  -4   4  -4 1859.28    4.15
  -3   0  -3  499.76    2.68
  -3   7  -2   55.31    1.15
  -2   0  11  156.54    1.73
  -2   5  -3  248.34    1.73
  -2   8   0   52.00    1.44
  -1  -2   2  699.40    3.59
  -1  -1   8  153.95    1.42
   0  -1   4   40.68    0.98
   1   5   3  496.81    7.75
  -8  -5   4   75.41    1.83
  -7  -4   1  120.23    3.33
  -6  -1  -3   13.36    1.10
  -6   1  -4   51.48    1.17
  -5   1  -4   10.88    0.89
  -5   5  -4   13.31    1.20
  -4  -4   3  739.80    3.51
  -4  -3   0   61.98    2.79
  -4  -3  10   23.94    1.13
  -3  -3   8  179.92    1.57
  -3  -2  10  553.85    2.53
  -3   3  -4  204.74    1.56
  -3   6  -3   83.45    1.11
  -2  -3   4   40.03    0.84
  -1  -2   5  947.51    3.20
  -1   0   9   79.82    1.23
  -1   8   2   21.21    1.45
   0   6   0 3619.93    7.36
   0   7   3  321.27    3.40
   0   7   4   20.24    1.85
  -7  -5   5   32.96    1.33
  -7  -5   7  235.50    2.14
  -7  -1  -3   54.21    1.28
  -7   1  -4  449.22    2.52
  -5  -1  -3   26.39    1.02
  -4  -4   6   39.48    1.03
  -4   1  -4    1.16    0.82
  -4   5  -4    1.53    0.78
  -3  -3   1  174.24    2.36
  -3  -1  11  252.62    1.97
  -3   2  -4 1161.48    3.39
  -3   4  -4  736.44    2.59
  -2  -2   8    8.07    0.83
  -1  -2   3    2.68    0.70
  -1  -2   4  197.73    1.67
  -1   2  10    0.12    0.78
  -1   3  -3 1403.54    3.81
  -1   3  10   45.29    1.43
  -1   4  -3   11.16    0.77
   0   4   8   77.98    1.60
   0   7   2   63.11    1.70
   1   3   5   70.00    1.54
   1   5   2   11.88    1.19
  -8  -2  -2    8.44    1.19
  -7  -5   6   21.31    1.14
  -5  -4   8   -0.29    0.96
  -4  -4   5   50.39    1.07
  -4  -2  11  244.03    1.98
  -3   5  -4  148.33    1.49
  -2   6  -3    0.83    0.92
  -2   7  -2   65.15    1.12
  -1  -1   7    1.75    0.80
  -1   2  -3   23.21    0.84
  -1   6  -2   71.50    1.05
  -1   8   1   36.71    1.38
   0   0   6   -0.21    0.50
   0   1   7   15.68    0.87
   0   4  -2    2.87    0.75
  -8  -5   5   11.87    1.28
  -8  -1  -3   12.56    1.22
  -7  -3  -1    0.38    1.32
  -4   6  -4  862.76    3.18
  -3  -3   7 2279.73    4.58
  -3   7  -3   51.86    1.39
  -2  -1   9  262.78    1.79
  -2   0  10  131.80    1.50
  -2   3  -4   23.29    0.88
  -2   4  -4   96.90    1.21
   0   2  -2   18.97    0.84
   0   7   1  221.50    2.30
   1   2   4    2.75    0.72
   1   3   0  187.96    2.37
  -8  -5   6    0.10    1.10
  -7   0  -4  107.73    1.54
  -6  -4   9   27.70    1.27
  -6   3  -5   38.92    1.32
  -5  -4   7  188.27    1.65
  -5  -3  10   14.87    1.16
  -5   0  -4    4.57    0.85
  -5   3  -5   60.35    1.21
  -5   4  -5   24.86    1.15
  -4  -1  -3 1046.68    4.18
  -3  -2   9    9.97    0.88
  -3   6  -4  396.02    2.20
  -1   0   8   14.15    0.84
   0   6  -1   22.87    0.96
   1   4   0  624.86    3.74
   1   5   1   21.40    1.12
  -6   2  -5    5.03    1.10
  -4   3  -5   21.30    1.00
  -4   4  -5    2.18    1.01
  -3  -3   6  175.28    1.49
  -3  -1  10   15.29    1.11
  -3   0  11    8.99    1.13
  -2   0  -3   37.46    1.02
  -2   5  -4   18.10    0.78
  -1   0  -2 2158.52    6.83
  -1   8   0   89.15    1.65
   0   0   5  261.04    1.82
   0   2   7 1131.21    3.97
   0   5   7   10.58    1.29
  -5  -4   3    5.86    0.94
  -5  -4   6    4.00    0.88
  -4  -3   8  364.50    1.98
  -4  -2  10   17.48    0.81
  -4   2  -5    2.28    0.84
  -4   5  -5   22.09    1.25
  -3   4  -5  419.64    2.07
  -2  -2   6  201.84    1.56
  -2   7  -3   88.52    1.45
  -1   1  -3 3438.35    6.74
  -1   6  -3   16.42    0.97
  -1   7  -2    3.65    1.00
   0   6   6    1.67    1.71
   0   7   0    0.59    0.94
   1   3   4 1368.74    6.17
   1   4   4    0.67    1.08
  -7  -4   9   50.05    1.39
  -5  -4   4  151.72    1.62
  -5  -2  11   -0.05    0.88
  -4  -2  -2    6.62    0.91
  -4  -1  11    2.58    1.03
  -3  -3   2   12.15    0.83
  -3  -3   5   97.84    1.11
  -3  -2   8  505.51    2.24
  -3   3  -5    4.18    0.65
  -3   5  -5   16.70    0.99
  -2  -1  -2 1431.55    6.13
  -2  -1   8   34.06    0.94
  -2   1  -4   39.39    0.95
  -2   1  10    1.02    0.71
  -2   6  -4   26.97    1.06
  -1   3  -4 1312.21    3.56
  -1   3   9   47.44    1.28
  -1   4  -4    1.08    0.76
   0   1   6  119.41    1.35
   1   2   3   23.33    1.02
   1   5   0   75.89    1.52
  -6  -4   7   72.69    1.26
  -6  -3  10   60.20    1.33
  -6   1  -5   61.01    1.12
  -5  -3   9  171.93    1.42
  -5   1  -5   79.92    1.27
  -3  -3   3   73.10    1.23
  -3  -3   4  587.33    2.73
  -3   1  11  260.47    2.03
  -3   2  -5  811.82    2.82
  -2   0   9   78.61    1.04
  -1   1   8  151.16    1.49
  -1   5  -4  520.40    2.32
  -1   8  -1    3.16    1.21
   0   0   4  338.37    2.26
   0   3  -3 3198.28    5.93
   0   4  -3  424.40    2.13
   0   4   7  707.23    3.77
   0   6  -2    2.08    0.87
   1   4  -1  831.83    3.78
  -4  -3   7  210.09    1.50
  -4  -2   9    4.42    0.92
  -4   1  -5   32.08    0.99
  -3  -1  -3  467.92    2.92
  -3   0  -4 1322.07    4.01
  -3   6  -5  187.65    1.70
  -2  -2   5  839.13    2.97
  -2   2  10  114.38    1.54
  -2   3  -5  508.60    2.22
  -2   4  -5   25.90    0.99
  -1  -1   5  469.15    2.29
  -1   2  -4    2.64    0.69
   0   7  -1  233.91    2.02
   1   3  -1  106.95    1.58
  -7  -4   8   82.56    1.21
  -6  -4   6   73.90    1.27
  -5   3  -6    0.86    1.01
  -3  -1   9    1.39    0.65
  -3   0  10  669.08    2.60
  -2   5  -5  237.51    1.57
  -2   7  -4   14.09    1.22
  -1   6  -4   -0.14    0.83
  -1   7  -3  148.26    1.43
   0   1  -2 2288.25    6.44
   0   2  -3  997.34    3.55
   1   5  -1  114.00    1.64
  -7  -1  -4  468.21    2.90
  -6  -1  -4   52.40    1.25
  -5  -3   8   56.61    0.95
  -5  -2  10   13.43    0.84
  -5  -1  -4    9.20    1.01
  -4  -3   6  187.11    1.55
  -4  -1  10   37.77    1.12
  -4   0  11  299.57    1.96
  -4   3  -6    2.27    0.93
  -4   4  -6    5.91    0.83
  -3  -2   7 1265.90    3.35
  -3   1  -5    0.90    0.77
  -3   2  11    7.95    1.18
  -2  -2   4   58.05    1.07
  -2  -1   7  397.41    1.95
  -2   2  -5   44.84    0.99
  -2   3  10    0.18    1.01
   0   0   3  954.27    4.06
   0   1   5  143.64    1.53
   0   2   6    1.27    0.73
   0   6  -3  103.27    1.30
   1   6   1   11.59    1.14
  -8  -4   8   20.58    1.23
  -7  -4   7    3.20    0.90
  -7  -3  10   12.73    0.91
  -7  -2  -3  285.55    2.79
  -6  -4   3   26.75    1.10
  -6  -4   4   67.76    1.26
  -6  -4   5  221.40    1.78
  -6  -3   9   -0.16    0.71
  -6  -2  -3  101.20    1.75
  -6   0  -5    4.61    1.02
  -5  -1  11   20.95    0.95
  -5   2  -6   45.08    1.20
  -3   3  -6   64.87    1.10
  -3   4  -6   16.93    1.03
  -2   0   8   11.43    0.83
  -2   1   9  247.79    1.74
  -2   6  -5   12.79    0.84
  -1  -1   4 2487.09    5.49
  -1   4  -5   31.93    0.90
   0   7  -2   65.36    1.30
   0   8   1    9.01    1.42
   0   8   2    0.27    1.36
   1   4  -2  225.19    1.81
   1   6   0  200.48    2.22
   1   6   2   78.52    2.10
  -7  -4   2   17.60    1.26
  -7   0  -5   63.52    1.48
  -4  -2   8   31.25    0.96
  -4   2  -6    8.22    0.72
  -3   5  -6   40.21    1.01
  -2  -2   3   88.64    1.31
  -1   0   6  178.17    1.42
  -1   1  -4 2682.58    5.52
  -1   1   7    1.43    0.71
  -1   3  -5   73.95    1.08
  -1   5  -5   30.68    1.02
  -1   7  -4  202.74    1.71
   0   3  -4   18.53    0.79
   0   4  -4  158.26    1.32
   0   5  -4   20.74    0.86
   0   8   0 1223.04    4.88
  -8  -4   7   31.80    1.23
  -8  -2  -3    1.53    1.36
  -7  -4   6  473.74    2.49
  -5  -3   7  364.59    1.86
  -5  -2   9  144.68    1.41
  -4  -1  -4    1.62    0.84
  -4   0  -5    1.12    0.81
  -3  -2   6    9.01    0.73
  -3  -1   8  228.53    1.57
  -3   1  10   16.44    0.96
  -3   2  -6   32.52    0.96
  -2  -2   1  771.86    4.74
  -2   0  -4  201.91    1.68
  -2   4  -6   -0.22    0.91
  -1   3   8   77.33    1.34
  -1   5   8   23.91    1.26
   0   0   2   61.09    1.36
   0   5   6   23.44    1.48
   1   3  -2   16.12    0.83
   1   3   3 1567.20    7.86
   1   5  -2    2.24    0.76
   1   6  -1  172.87    1.77
  -7  -4   5    5.44    0.94
  -7  -3   9   73.54    1.30
  -6  -2  10    0.75    0.77
  -6   1  -6  311.44    2.23
  -5  -2  -3  471.70    3.33
  -5   1  -6    0.18    0.94
  -4   1  11    1.26    0.82
  -3   0   9   12.28    0.86
  -2  -2   2    2.00    0.65
  -2  -1   6  142.11    1.24
  -2   1  -5  667.70    2.58
  -2   2   9   73.18    1.21
  -2   3  -6  306.78    1.80
  -2   5  -6  126.23    1.29
  -1  -1   3  167.31    1.64
  -1   0  -3   76.50    1.24
  -1   2  -5   63.68    1.00
  -1   6  -5   15.35    0.77
   0   6  -4  104.13    1.31
   0   7  -3  332.83    2.20
   0   8  -1    9.03    1.18
  -9  -4   2   -0.53    1.52
  -8  -4   2    9.21    1.22
  -8  -4   6    0.50    1.01
  -7  -4   3  376.57    2.75
  -7  -4   4 1230.04    4.29
  -6  -1  11   42.49    1.24
  -5  -1  10   19.89    1.05
  -5   0  11    0.49    1.04
  -4  -3   1  247.12    2.68
  -4  -3   4  829.38    3.16
  -4  -1   9   34.02    0.79
  -4   0  10   16.95    1.00
  -4   1  -6    3.25    0.87
  -2   6  -6    1.11    1.14
   0   2  -4  280.32    1.79
   0   4   6    0.22    0.83
   1   4  -3    1.23    0.67
   1   6  -2   69.56    1.18
  -5  -3   6   21.13    0.81
  -4  -3   3  254.48    2.00
  -4   3  -7  467.87    2.37
  -3   0  -5 1058.70    3.43
  -3   2  10  607.38    2.58
  -3   4  -7   18.40    1.07
  -2   0   7  262.93    1.68
  -2   2  -6    2.41    0.79
  -2   3   9  156.72    1.64
  -1   0   5 1296.01    3.91
  -1   4  -6   72.14    1.15
   0   4  -5   49.04    0.99
   0   5  -5   32.70    0.88
   0   8  -2   -0.40    1.11
   1   5  -3    5.87    0.72
   1   5   3  471.28    7.72
  -9  -4   6    6.42    1.13
  -8  -4   3   17.80    1.30
  -8  -4   5   13.87    1.08
  -8  -3   9    0.05    0.95
  -7  -3   8    0.21    0.93
  -7  -2  10   44.22    1.23
  -6  -3   7  344.79    1.92
  -4  -3   2  278.83    2.35
  -4   2  11  230.53    1.80
  -3  -2   5  788.94    2.83
  -3  -1   7 3351.12    5.40
  -3   1  -6   72.71    0.98
  -3   3  -7   58.46    1.19
  -2  -1  -3 1646.19    5.57
  -1  -1   2   12.29    0.76
  -1   2   7    7.19    0.75
  -1   3  -6   91.75    1.13
  -1   5  -6   80.79    1.07
   0   3  -5  110.69    1.20
   0   7  -4   21.79    1.11
   1   3  -3   35.87    0.91
   1   7   0   51.75    1.54
  -9  -4   3   91.27    1.95
  -9  -4   5   23.59    1.38
  -8  -4   4    1.05    0.99
  -6  -2   9   38.77    1.02
  -5  -2   8    0.28    0.58
  -4   2  -7   58.21    1.28
  -3  -1  -4  223.74    1.95
  -3   1   9    1.55    0.80
  -3   3  10   13.15    1.08
  -2  -1   5  397.69    2.09
  -2   4  -7   53.99    1.18
  -2   5  -7    1.46    0.99
  -1   1   6   41.33    0.92
  -1   6  -6   18.69    0.83
   0   6  -5    9.47    0.97
   1   2  -2  712.02    3.43
   1   6  -3    8.16    0.87
   1   7  -1  128.49    1.65
   1   7   1    6.28    1.15
  -9  -4   4   48.65    1.47
  -6  -1  -5   63.94    1.41
  -6   0  -6    5.78    1.13
  -5  -3   5   70.52    0.96
  -5   0  -6   60.37    1.28
  -5   1  11   21.26    1.11
  -4  -1   8  542.95    2.22
  -4   1  10   36.30    1.03
  -3   0   8  640.94    2.45
  -3   2  -7   30.84    0.99
  -3   4  10  361.27    2.54
  -2   3  -7    1.29    0.88
  -1   1  -5  237.67    1.57
   1   5  -4  244.20    1.68
   1   7  -2   -0.10    0.95
  -8  -2  10   16.87    1.12
  -6  -3   6   -0.30    0.79
  -6   0  11   19.42    0.88
  -5  -1   9  255.54    1.62
  -5   0  10   15.03    0.98
  -5   1  -7   78.02    1.36
  -4  -2  -3  436.49    3.25
  -4  -2   6  113.92    1.22
  -4   0  -6   11.50    0.92
  -4   0   9    3.66    0.84
  -3  -2  -2 1304.46    7.06
  -3  -2   4  854.33    3.21
  -2   0  -5   59.72    1.01
  -2   1  -6  460.39    2.14
  -2   2   8    7.00    0.85
  -1  -1   1 1167.64    6.29
  -1   3   7    0.67    0.76
  -1   6   7    0.65    1.21
   0   2  -5  176.40    1.40
   0   4  -6    0.45    0.73
   0   5  -6   22.50    0.89
   0   7  -5    9.32    1.08
   1   3  -4  865.43    2.99
   1   4   3   11.02    1.34
   1   6  -4   75.24    1.15
  -7  -3   7  386.52    2.06
  -7  -2   9   79.21    1.24
  -5  -3   4  378.34    2.23
  -4   1  -7  635.63    2.63
  -2   2  -7   98.97    1.16
  -1   0  -4    0.23    0.67
  -1   4  -7    0.44    0.88
  -1   5  -7    1.37    1.01
   0   1  -4   40.44    0.92
   0   6  -6    2.23    0.84
   1   2  -3    2.48    0.63
   1   7  -3   -0.42    0.93
  -9  -3   8   70.93    1.34
  -7  -2  -4   92.24    1.88
  -6  -2   8  223.00    1.57
  -5  -2   7  365.65    1.82
  -5   2  11    0.50    1.05
  -3  -1   6  248.71    1.61
  -3   0  -6   46.18    0.99
  -3   2   9   11.87    0.90
  -2   0   6  241.39    1.64
  -2   1   7  410.38    2.04
  -1  -1   0  515.47    7.73
  -1   0   4  512.29    2.62
  -1   3  -7    5.33    0.84
  -1   5   7    2.20    1.05
   0   3  -6   79.81    0.95
   0   3   5  116.43    1.55
   0   6   5    9.32    1.46
   1   4  -5  418.99    2.03
   1   5  -5  143.59    1.33
  -7  -1  10   26.34    1.11
  -7   0  11  293.22    1.97
  -6  -2  -4   25.50    1.19
  -4   2  10   18.75    0.81
  -3   1  -7   70.17    1.15
  -3   3  -8  126.81    1.33
   1   6  -5  155.77    1.48
  -8  -3   7   53.79    0.96
  -8  -2   9   45.88    1.12
  -7  -3   6   38.08    1.03
  -6  -3   5  122.51    1.34
  -6  -1   9    0.91    0.84
  -6   1  11   39.01    0.94
  -5  -3   3   37.71    1.02
  -4  -2   5  128.26    1.29
  -4  -1   7  319.86    1.75
  -3  -2   3    4.82    0.69
  -3   1   8  240.36    1.59
  -2   3  -8   -0.14    0.96
  -2   3   8   31.88    0.83
  -1  -1  -1  118.44    3.08
  -1   1  -6   95.83    1.15
  -1   2   6  120.61    1.32
   0   5  -7   11.63    0.97
   1   2  -4  195.71    1.55
   1   3  -5  329.29    1.81
   1   7   2    2.90    1.48
   1   8  -2   23.85    1.24
  -9  -3   7   35.36    1.18
  -6   0  10    1.87    0.84
  -5  -2  -4    2.84    0.84
  -5  -1   8  104.40    1.04
  -5   1  10   18.74    0.74
  -4   1   9   36.17    0.95
  -4   3  10   23.36    1.11
  -3  -1  -5    1.52    0.77
  -3   0   7 1646.26    3.76
  -3   2  -8  158.49    1.62
  -3   3   9   -0.01    0.87
  -2  -1  -4   43.19    1.01
  -2   1  -7    1.59    0.66
  -2   4   8    2.12    1.03
  -1   1   5  516.17    2.54
  -1   2  -7   11.02    0.62
  -1   4  -8    3.48    0.87
   0   0  -2   64.26    1.33
   0   1  -5  154.16    1.35
   0   2  -6    1.50    0.51
   0   4  -7  746.04    2.50
   0   4   5   48.42    1.31
   0   6  -7  365.49    2.06
   1   5  -6   12.69    0.82
   1   7  -5   51.58    1.19
  -8  -1  10    4.71    1.02
  -7  -2   8   99.18    1.06
  -6  -2   7   87.05    1.17
  -5  -3   2  148.68    1.81
  -5  -2   6   22.01    0.82
  -5   0  -7   77.86    1.45
  -5   0   9  176.86    1.31
  -4   0   8   27.63    0.71
  -2   0  -6    0.68    0.67
   0   3  -7   19.68    0.89
   0   5   5   33.66    1.32
   1   4  -6   59.17    0.87
   1   6  -6   33.77    1.09
   2   4  -2    2.00    0.64
  -8  -3   6    1.29    0.84
  -6  -1  -6  321.16    2.46
  -5  -1  -6    0.26    0.96
  -4   0  -7   74.32    1.32
  -4   4  10   14.18    1.05
  -3   4   9    9.86    0.92
  -3   5   9    0.02    1.08
  -2   2  -8  117.13    1.17
  -2   2   7  175.72    1.46
  -1   3  -8   62.05    0.98
   2   4  -1  227.33    2.14
   2   5  -4    8.25    0.80
   2   6  -3    0.25    0.76
   2   6  -2    4.73    0.84
  -7  -1   9  123.82    1.32
  -5  -3   1  157.24    2.06
  -5   2  10   16.76    0.96
  -4  -1  -6    3.15    0.96
  -3  -1   5  276.19    1.70
  -3   0  -7   34.55    0.93
  -3   1  -8  201.44    1.63
  -1  -1  -2    3.87    0.76
   0   0  -3 1057.55    4.05
   0   5  -8  124.38    1.45
   1   2  -5  970.35    2.99
   1   8   1    3.21    1.48
   2   4  -4   29.90    0.81
   2   6  -4    4.39    0.84
  -9  -3   6  177.44    1.63
  -8  -2   8   27.88    0.83
  -7   0  10   55.01    0.94
  -6   1  10   81.97    1.21
  -4  -2   4  989.30    3.33
  -4   2   9    5.86    0.80
  -3  -2   2 1518.32    5.15
  -3   2   8  574.60    2.34
  -2  -1   3  452.40    2.54
  -2   1   6  161.18    1.38
  -1   0   3   59.62    1.12
  -1   1  -7   13.67    0.76
  -1   2  -8    7.38    0.78
  -1   3   6   15.54    0.83
   0   2  -7 1290.25    3.27
   0   4  -8   84.35    1.08
   1   1  -2   12.25    0.73
   1   4  -7    0.36    0.79
   1   5  -7    2.09    0.63
   1   6  -7    0.61    0.95
   2   5  -5   83.02    1.14
  -8  -3   5   11.82    0.89
  -7  -2   7    8.30    0.78
  -4  -1   6  343.12    1.78
   0   3  -8  206.90    1.54
   2   3  -3  190.22    1.56
   2   5   0    6.19    0.82
   2   6  -5  128.85    1.36
   2   7  -4    2.38    0.84
   2   7  -3   31.36    1.11
  -9  -2   8    6.89    0.74
  -6  -2   6   88.67    1.10
  -5   0   8   -0.29    0.69
  -5   1   9  269.68    1.56
  -5   3  10   18.52    1.01
  -3   0   6   -0.26    0.58
  -2  -1  -5  748.39    3.09
  -2   0  -7  114.43    1.24
  -2   1  -8    0.42    0.64
  -1   0  -6  358.99    1.93
  -1   3  -9    2.02    1.00
   1   2  -6  118.39    1.17
   1   3  -7    2.29    0.72
   2   3  -4   43.26    0.80
   2   5  -6    2.44    0.69
 -10  -3   5    9.00    1.12
  -9  -3   5   45.79    1.14
  -8   0  10   21.88    0.84
  -6  -2  -5    6.86    1.03
  -4   0   7  375.34    1.79
  -4   3   9   18.95    0.92
  -3   3   8  201.04    1.61
  -2   2  -9  159.58    1.45
  -2   3   7  326.45    1.96
  -1   6   6   35.39    1.35
   1   1  -4 2710.18    5.43
   1   1  -1 1303.54    6.24
   1   4  -8    8.45    0.83
   2   3  -5  304.05    1.72
   2   4   0  748.27    4.76
  -9  -1   9   66.26    1.19
  -8  -3   4  124.63    1.56
  -8  -2   7   58.70    1.03
  -7  -1   8    0.61    0.82
  -7   1  10   23.52    1.05
  -6  -3   2  195.36    1.97
  -6   2  10    2.16    0.88
  -5  -2  -5   53.28    1.43
  -4   0  -8    3.04    1.04
  -1   1  -8   92.94    1.10
  -1   2   5 1011.40    3.52
  -1   5   6   12.75    1.03
   0   1  -7   19.38    0.75
   0   2  -8  172.53    1.40
   0   3   4   24.72    1.00
   0   4  -9   42.82    0.94
  -4   4   9    5.99    0.95
  -3  -1   4 1326.36    3.80
  -3   0  -8  202.09    1.68
  -2   4   7   89.09    1.24
  -1   1   4 2671.23    5.89
  -1   2  -9   15.23    0.90
   0   3  -9  110.42    1.32
   1   2  -7    7.62    0.72
   2   3  -6   49.73    0.91
   2   5  -7  230.35    1.58
   2   6  -7   43.95    1.17
   2   7  -6    0.66    0.75
  -9  -3   4    3.40    0.94
  -7  -2   6  899.12    2.74
  -6  -1   7  485.81    1.96
  -5   2   9  161.72    1.34
  -4  -1  -7  678.67    2.99
  -4   5   9    6.98    1.03
  -3   4   8  393.35    2.19
  -2   1  -9   20.56    0.95
  -1   0  -7   37.41    0.91
   0   7   4   20.11    1.66
   1   3   2   57.50    1.99
   2   4  -7   89.08    1.01
   2   8  -2    2.07    1.08
 -10  -2   7   99.34    1.32
  -8  -1   8   -0.56    0.74
  -8   1  10    5.22    0.98
  -6   3  10   70.23    1.18
  -5  -1   6   23.53    0.63
  -4  -2  -5    2.45    0.92
  -4  -1   5   43.44    0.75
  -4   2   8   37.62    0.87
  -3   2   7 1369.50    3.53
  -3   5   8  110.25    1.46
  -2   0  -8  136.63    1.35
  -2   0   4   34.62    0.85
  -2   2   6  229.29    1.59
   1   1  -6   40.85    0.81
   1   4  -9   51.52    1.11
   2   2  -4   63.61    0.91
   2   2  -3  103.16    1.26
   2   5  -8   15.76    0.86
 -10  -3   3  284.79    2.45
  -8  -3   3   20.90    0.94
  -8  -2   6   -0.01    0.75
  -8   0   9   56.05    1.03
  -7  -3   2   22.87    1.11
  -7   2  10   48.26    1.04
  -3  -1  -7   75.02    1.22
  -2   1   5  404.19    2.14
   0   0  -6    0.26    0.60
   1   2  -8   14.47    0.80
   2   2  -5  851.70    2.76
   2   3  -7  341.19    1.66
   2   4  -8    1.85    0.80
   2   7   0    1.37    1.11
  -9  -1   8  112.26    1.23
  -7  -1   7  465.67    2.03
  -6  -3  -1  244.68    3.88
  -6  -3   0   15.75    1.17
  -4   0   6  218.06    1.47
  -4   1   7  334.74    1.74
  -3   0   5 1217.08    3.38
  -1   1  -9    4.51    0.91
   1   3  -9   53.19    0.89
   2   2  -6  236.76    1.49
   2   2  -2    2.45    0.57
   2   8  -1   26.78    1.48
   3   5  -5   62.96    1.05
   3   5  -4  236.85    1.60
   3   6  -4  117.03    1.35
 -10  -1   8   61.27    1.22
  -9  -2   6   13.22    0.91
  -7  -2   5    4.66    0.74
  -6   2   9   43.49    1.02
  -3   1   6  266.08    1.57
  -1   0  -8   10.86    0.72
   0   4   4  173.81    2.02
   1   1  -7    1.91    0.66
   2   3  -8   31.88    0.88
   3   6  -6   31.94    0.98
 -10  -2   6   39.09    0.95
  -9  -3   2   37.38    1.17
  -8   2  10   18.49    0.86
  -7  -3   1    1.09    0.93
  -7   0   8  106.58    1.04
  -7   3  10   17.26    0.81
  -6  -1   6    1.94    0.64
  -5  -2  -6   48.43    1.41
  -5   4   9   99.59    1.26
  -4   3   8  408.13    1.96
  -2  -1  -7    2.14    0.74
   0   0  -7 1536.05    3.61
   2   2  -7  180.77    1.34
   2   4  -9   43.86    1.10
   3   4  -6   30.06    0.67
   3   4  -3   11.21    0.73
   3   6  -7  445.96    2.21
   3   7  -5   31.25    1.13
  -5   5   9  101.84    1.47
  -3  -2  -5  892.86    3.77
  -3   3   7 2550.65    4.79
  -2   3   6   51.56    0.94
  -1   0   2 1139.22    4.81
   0   1  -9  139.41    1.26
   0   2 -10    7.84    0.95
   1   2  -9   77.74    0.96
   1   3 -10   53.11    1.18
   3   7  -3   24.48    1.05
  -9  -3   0  116.29    2.28
  -9  -3   1   91.60    1.75
  -8  -3   1    9.39    1.12
  -8  -2   5   23.98    0.86
  -8   0   8   27.88    0.90
  -8   1   9    1.12    0.61
  -6   1   8   96.28    0.98
  -5  -2   3    0.72    0.59
  -5  -1   5   92.60    1.04
  -5   2   8   -0.57    0.64
  -4  -2  -6    9.74    0.91
  -4   4   8   46.95    0.99
   0   5   4   22.85    1.16
   1   1  -8  164.91    1.28
   1   2   1  162.90    5.11
   2   2  -8    9.70    0.69
   3   3  -6  183.02    1.34
   3   3  -5  110.63    1.13
   3   3  -4  613.42    2.52
   3   5  -8  110.30    1.24
   3   5  -2    0.70    0.67
   3   6  -2   93.82    1.39
 -10  -2   5   10.76    0.93
 -10  -1   7  119.97    1.38
  -9  -2   5   43.66    1.04
  -9  -1   7   51.77    0.88
  -7  -3   0  125.45    2.03
  -7   2   9   94.84    1.17
  -6   3   9    0.63    0.60
  -4   5   8  248.99    1.83
  -1   7   5   52.26    1.60
   0   0  -8  199.48    1.41
   1   0  -5 1425.26    3.71
   3   3  -7 2512.80    4.35
   3   4  -8  383.75    1.77
  -9   0   8    6.79    0.88
  -8  -3  -1   60.20    2.00
  -8  -3   0  202.87    2.49
  -7  -1   6   54.32    0.90
  -5   0   6   36.71    0.81
  -4   2   7  296.95    1.64
  -3   4   7  822.08    2.89
  -2  -1  -8    0.14    0.70
  -2   4   6  173.78    1.56
  -2   7   6    1.07    1.01
  -1  -1  -7   14.24    0.71
  -1   0  -9   17.20    0.69
  -1   2   4  207.19    1.72
   1   0  -6  186.00    1.38
   1   2 -10    0.13    0.86
   2   1  -6  160.08    1.25
   2   1  -5  400.38    1.91
   3   4  -2  401.37    2.53
   3   5  -9   -0.58    0.90
  -7  -3  -1    0.25    1.10
  -7  -2   4 1971.32    4.29
  -7   1   8    2.04    0.74
  -6   4   9   27.86    0.94
  -5   3   8   60.09    0.96
  -3  -2  -6   32.98    0.99
  -3   2   6    8.93    0.64
  -3   5   7 1340.28    3.80
  -3   6   7  443.04    2.52
  -2  -2  -4  221.36    2.11
  -2  -2  -3   48.82    1.28
   0   1 -10  388.35    2.03
   1   0  -3   59.64    0.97
   1   1  -9   87.27    1.05
   2   1  -7  429.01    1.88
   2   2  -9   75.47    1.04
   2   3 -10    1.32    0.66
   3   3  -8  212.54    1.43
   3   3  -3   80.37    1.12
   3   4  -9   10.19    0.68
   3   7  -2    0.36    0.84
  -8  -1   6    1.56    0.68
  -8   2   9   46.23    0.88
  -7   0   7   15.05    0.62
  -7   3   9   78.53    1.14
  -6   2   8  230.03    1.47
  -2   0   3  247.66    1.85
  -2   2   5  805.67    2.89
  -2   6   6  127.83    1.54
  -1   1   3  176.05    1.70
  -1   5   5  144.45    1.63
   0  -1  -5  155.12    1.40
   0  -1  -4   41.41    0.91
   1   0  -7   25.07    0.76
 -10  -2   4  375.70    2.20
  -9  -2   4   74.68    1.15
  -8  -2   4    6.34    0.67
  -6  -2   3   59.14    1.00
  -4  -2  -7   57.60    1.41
  -3   0   4 1441.34    3.80
   0   0  -9   74.70    1.06
   2   1  -8   33.01    0.81
   2   1  -3  427.28    2.32
   3   2  -7 1405.94    3.21
   3   2  -6    7.82    0.50
   3   2  -5  847.04    2.70
   3   3  -9    0.91    0.78
   3   4 -10  386.43    1.98
   4   5  -7  116.09    1.26
   4   5  -6   68.38    1.05
   4   5  -5    6.27    0.68
   4   6  -6   17.34    0.95
   4   6  -5   22.39    0.85
 -10  -1   6    2.05    0.83
  -9  -1   6  218.34    1.39
  -9   2   9   75.68    1.04
  -8   0   7   67.05    0.97
  -8   1   8    0.41    0.56
  -7   4   9   50.21    1.14
  -6   1   7  454.94    1.89
  -5   4   8    0.23    0.72
  -4   3   7  234.40    1.49
  -3   1   5  268.90    1.59
  -2   1   4  222.49    1.64
  -1  -1  -8   91.13    1.17
  -1   0 -10    4.65    0.71
   0  -1  -6  127.83    1.22
   1   0  -8   12.98    0.70
   1   1 -10   65.70    1.08
   2   2 -10  111.19    1.09
   3   2  -8  546.40    2.06
   3   2  -4  882.35    2.98
   4   4  -7  220.99    1.43
   4   4  -6   41.89    0.84
   4   5  -8  241.84    1.64
  -9   0   7   23.75    0.86
  -9   1   8  116.02    1.21
  -8   3   9    0.52    0.66
  -6   0   6   69.25    0.91
  -5  -2   2  241.95    1.84
  -5  -1   4  934.04    2.91
  -5   2   7  383.38    1.76
  -4  -2   1    0.23    0.60
  -3  -2  -7   29.16    1.09
  -2  -1  -9   19.13    1.02
   2   1  -9  254.58    1.50
   3   3 -10   13.71    0.92
   3   6  -1   42.57    1.33
   4   4  -8   47.09    0.94
   4   4  -5   52.50    0.90
   4   5  -9    6.15    0.93
   4   5  -4  344.75    1.96
   4   6  -4  127.30    1.37
   4   7  -5    1.02    0.90
 -10   0   7  108.87    1.19
 -10   1   8   57.80    1.08
  -7  -2   3  617.86    2.57
  -7  -1   5   79.29    0.98
  -7   2   8  103.62    1.00
  -6   3   8   65.08    0.84
  -3   3   6  180.44    1.34
  -2  -2  -6    2.28    0.66
   0  -1  -7   18.24    0.58
   0   0 -10   11.22    0.87
   3   2  -9   11.78    0.75
   3   3  -2   14.12    0.77
   3   5  -1   25.99    1.04
   4   4  -9    6.22    0.83
 -10  -2   3   82.16    1.28
  -4  -1   3  430.58    2.24
  -4   4   7  215.87    1.48
  -2  -2  -2    1.05    0.78
  -2  -1   1  829.17    4.52
  -1  -1  -9    3.93    0.76
   1   0  -9   84.98    1.05
   1   0  -2 1115.87    4.59
   4   3  -7  228.15    1.43
   4   3  -6  200.49    1.37
   4   4  -4  347.18    1.96
 -10  -1   5   13.81    0.87
  -9  -2   3  144.66    1.44
  -8  -2   3   15.64    0.72
  -8  -1   5   10.90    0.64
  -8   2   8   26.37    0.70
  -7   0   6 1082.75    2.79
  -7   1   7  448.73    1.80
  -6   4   8  118.54    1.22
  -5   0   5   98.55    1.01
  -5   1   6   22.85    0.60
  -4   2   6  115.12    1.07
  -4   5   7  116.33    1.30
  -4   6   7  146.63    1.52
   0  -1  -8  213.05    1.50
   2   0  -6  240.36    1.48
   2   1 -10    1.00    0.76
   3   2 -10  634.78    2.23
   3   2  -3    4.03    0.58
   4   3  -5   22.87    0.70
   4   4 -10   15.08    1.01
  -9  -1   5   55.46    0.86
  -9   2   8    5.77    0.90
  -7   3   8    0.21    0.68
  -6   5   8   42.46    1.07
  -5   3   7  375.14    1.74
  -3  -1   2  183.70    1.66
  -3   4   6   29.08    0.81
  -2  -2  -7   95.78    1.26
   2   0  -7  255.22    1.42
   2   0  -5 1126.04    3.17
   3   1  -8  231.32    1.41
   3   1  -7 3399.02    4.86
   3   1  -6  254.58    1.42
   3   7  -1    1.46    1.05
   4   6  -3  212.08    1.87
 -10  -2   2   17.27    1.11
  -8   0   6    0.76    0.47
  -6  -2   2  397.66    2.24
  -6  -1   4   53.83    0.76
  -3  -2  -8  168.06    1.74
   1   0 -10    0.67    0.59
   2   0  -8   11.36    0.67
   3   2 -11    7.85    0.86
   3   4  -1  106.63    1.60
   4   3 -10   23.85    0.96
   4   5  -3  114.04    1.32
 -10   0   6   48.48    0.96
 -10   1   7  114.36    1.23
  -9   0   6   18.05    0.62
  -9   1   7   49.43    0.82
  -8   3   8    1.40    0.70
  -7   4   8   87.81    1.13
  -4   0   4 1543.77    3.71
  -4   1   5   40.36    0.75
  -3   2   5  818.50    2.69
  -3   5   6  119.99    1.26
  -3   6   6   30.34    0.94
  -1  -2  -6  205.36    1.71
   0  -1  -9  123.90    1.15
   1  -1  -7    1.34    0.53
   1  -1  -6   38.19    0.77
   1   4   2  335.10    3.63
   2   0  -9   79.23    0.94
   2   1 -11   38.00    0.83
   3   1  -9    1.19    0.51
   4   2  -8   32.99    0.81
   4   3  -4  807.24    2.81
   4   7  -3   41.86    1.23
   5   5  -8   32.03    0.78
   5   5  -7  176.47    1.41
   5   6  -7   91.81    1.29
  -9  -2   2    0.18    0.75
  -9   3   8   73.98    1.15
  -7  -1   4  358.39    1.77
  -7   2   7    8.32    0.72
  -6   0   5  510.96    1.98
  -6   1   6    2.23    0.45
  -5   4   7  192.36    1.35
  -2  -2  -8  116.20    1.40
  -2   4   5  351.42    1.99
  -2   7   5   20.16    1.03
   1   7   2    2.31    1.20
   3   1 -10   15.87    0.82
   4   2  -9    5.15    0.53
   4   4  -3  743.95    3.00
   5   4  -8   -0.02    0.72
   5   4  -7  195.21    1.38
   5   5  -6   19.35    0.78
   5   6  -6    0.84    0.81
 -10  -2   1   82.29    1.47
 -10  -1   4   83.67    1.18
  -8  -2   2   16.99    0.79
  -8  -1   4  121.58    1.18
  -8   4   8   18.68    0.82
  -6   3   7  343.98    1.67
  -5   2   6   18.79    0.69
  -5   5   7  172.02    1.38
  -5   6   7   91.49    1.27
  -1  -2  -7   10.91    0.67
  -1  -2  -4    2.11    0.55
   0  -1 -10  362.79    1.97
   1  -1  -8  152.00    1.25
   2   0 -10  125.84    1.18
   3   1  -4 1138.95    3.25
   4   2 -10   18.88    0.83
   5   4  -6    5.68    0.64
  -9  -1   4    5.63    0.65
  -8   2   7   59.09    0.93
  -7   0   5    5.35    0.64
  -7   1   6   50.47    0.83
  -5  -2   1  442.60    2.61
  -5  -1   3   61.90    0.86
  -3   1   4 1187.36    3.30
  -1   7   4   55.60    1.34
   1  -1  -9   73.51    0.98
   3   1 -11  264.71    1.62
   5   5  -5   21.91    0.82
   5   6  -5   11.04    0.83
 -10   2   7   94.25    1.18
  -9   2   7   21.12    0.81
  -6   4   7   69.63    0.97
  -2  -2  -9  159.14    1.73
  -1  -2  -8    5.76    0.74
   0   4   3  422.78    2.81
   0   7   3  310.51    2.86
   1  -1  -4 2492.72    5.27
   4   2 -11  228.69    1.43
   5   3 -10   15.61    0.89
   5   3  -7  366.27    1.69
 -10   0   5   10.43    0.63
 -10   1   6    1.82    0.75
  -9  -2   1   57.76    1.21
  -9   0   5   52.37    0.90
  -8   1   6    2.49    0.48
  -5   1   5   82.05    0.92
  -4   4   6   39.05    0.83
  -1   2   3    2.50    0.51
   2   0 -11  159.72    1.27
   3   0  -9   12.66    0.67
   3   0  -8  556.55    1.95
   3   0  -7 1548.12    3.33
   4   1  -9   33.66    0.80
   5   3  -6   18.78    0.65
   5   4  -5   20.58    0.72
 -10  -1   3  349.05    1.96
  -6  -1   3 1386.94    3.46
  -6   2   6   75.46    0.90
  -6   5   7  194.37    1.36
  -4   6   6   17.42    0.85
  -3   3   5   98.48    0.96
  -1   5   4  222.11    1.79
  -1   6   4   70.75    1.19
   1  -1 -10   54.67    0.84
   1   1   0  608.67    7.06
   3   0  -6    0.10    0.49
   3   2  -2 1406.18    4.43
   4   2  -4  835.70    2.79
   4   3  -3  244.08    1.69
  -8  -2   1    0.60    0.68
  -7   4   7    2.96    0.64
  -5   3   6   19.69    0.56
  -4  -1   2  642.50    2.77
  -1  -2  -9   12.47    0.83
   0  -2  -7 1150.27    3.32
   0  -2  -6    2.00    0.56
   2  -1  -8   29.86    0.73
   2  -1  -7  406.11    1.80
   2   0  -3  218.81    1.63
   3   0 -10  633.20    2.10
   4   1 -11    1.04    0.75
   4   5  -2   70.97    1.29
   4   6  -2    1.09    0.81
   5   2 -10   13.91    0.81
   5   2  -9  133.35    1.03
   5   2  -8    0.07    0.63
   5   6  -4   65.37    1.21
   6   5  -8   41.32    0.99
  -9  -1   3   76.65    0.99
  -7   2   6  789.68    2.29
  -7   5   7  235.23    1.58
  -1  -2  -3   21.80    0.88
   0  -2  -8  148.40    1.32
   0  -2  -5  154.52    1.43
   0   6   3  100.27    1.57
   1   5   2   10.99    0.90
   1   6   2   71.10    1.69
   2  -1  -6  147.32    1.19
   3   0 -11    8.97    0.74
   3   0  -5  996.94    2.86
   5   2 -11    0.56    0.85
   5   3  -5   62.01    0.85
   5   5  -4  129.74    1.32
   6   4  -9   26.66    0.93
 -10   0   4  402.12    1.89
 -10   2   6   37.54    0.95
  -9  -2   0    9.26    0.99
  -8   2   6   -0.05    0.63
  -5   4   6    4.69    0.61
   0  -2  -9   54.35    0.94
   2  -1 -10    0.77    0.70
   3   3  -1  175.01    1.95
   5   7  -4   32.86    1.19
 -10  -1   2  119.01    1.33
 -10   1   5   12.95    0.78
  -9   2   6   10.27    0.59
  -6   3   6   -0.09    0.40
  -5   6   6    0.59    0.76
  -4   1   4 1906.38    3.85
  -2   3   4   39.04    0.79
  -1   1   2   11.70    0.62
   5   4  -4  151.67    1.32
   6   3  -9   -0.18    0.70
   6   4  -7   69.73    0.98
  -5   5   6   17.65    0.61
   0   0   0    0.00    0.00
_computing_structure_solution     'SHELXT 2014/5 (Sheldrick, 2014)'
_computing_structure_solution     'SHELXT 2018/2 (Sheldrick, 2018)'
;
_shelx_hkl_checksum              32669
_shelx_res_file
;
TITL pyry1_a.res in P2(1)/m
    1.res
    created by SHELXL-2018/3 at 23:38:28 on 17-Dec-2019
REM Old TITL pyry1_a.res in P2(1)/m
REM SHELXT solution in P2(1)/m: R1 0.114, Rweak 0.004, Alpha 0.030
REM <I/s> 3.654 for 3 systematic absences, Orientation as input
REM Formula found by SHELXT: C6 F N2 O2
CELL 0.71073 7.9253 5.9962 8.4334 90 113.551 90
ZERR 2 0.0016 0.0014 0.0023 0 0.018 0
LATT 1
SYMM -X,0.5+Y,-Z
SFAC C H F N O
UNIT 12 20 4 4 2
SADI 0.001 F1 H1 F2 H1
L.S. 20
PLAN  2
SIZE 0.04 0.04 0.25
TEMP -153.15
HTAB N2 F1
BOND $H
list 4
fmap 2
acta
REM <olex2.extras>
REM <HklSrc "%.\\1.hkl">
REM </olex2.extras>
WGHT    0.047100    0.167400
FVAR       2.02977
O1    5    0.710169    0.250000    0.910626    10.50000    0.01669    0.03019 =
         0.01777    0.00000    0.01017    0.00000
N2    4    0.722463    0.250000    0.644233    10.50000    0.01214    0.01558 =
         0.01355    0.00000    0.00443    0.00000
AFIX  43
H2    2    0.601583    0.250000    0.592192    10.50000   -1.20000
AFIX   0
N6    4    0.990545    0.250000    0.896185    10.50000    0.01217    0.01638 =
         0.01197    0.00000    0.00411    0.00000
AFIX  43
H6    2    1.046662    0.250000    1.009730    10.50000   -1.20000
AFIX   0
C1    1    0.800608    0.250000    0.823315    10.50000    0.01337    0.01474 =
         0.01437    0.00000    0.00591    0.00000
C3    1    0.818769    0.250000    0.545097    10.50000    0.01844    0.01112 =
         0.01377    0.00000    0.00711    0.00000
C4    1    1.008923    0.250000    0.624264    10.50000    0.01717    0.01590 =
         0.01642    0.00000    0.01000    0.00000
AFIX  43
H4    2    1.080338    0.250000    0.556716    10.50000   -1.20000
AFIX   0
C5    1    1.094337    0.250000    0.803870    10.50000    0.01364    0.01225 =
         0.01751    0.00000    0.00714    0.00000
C7    1    0.710747    0.250000    0.353405    10.50000    0.02443    0.02041 =
         0.01221    0.00000    0.00546    0.00000
C8    1    1.297312    0.250000    0.904210    10.50000    0.01226    0.02291 =
         0.02176    0.00000    0.00618    0.00000
F1    3    0.361286    0.250000    0.508732    10.50000    0.01428    0.03000 =
         0.01680    0.00000    0.00294    0.00000
H1    2    0.255363    0.250000    0.369873    10.50000    0.06420
F2    3    0.138332    0.250000    0.236603    10.50000    0.03857    0.03222 =
         0.01397    0.00000    0.00008    0.00000
H7A   2    0.789602    0.250000    0.293577    10.50000    0.03018
H8A   2    1.362348    0.250000    0.827358    10.50000    0.03205
H8B   2    1.331424    0.119737    0.976838    11.00000    0.03147
H7B   2    0.631319    0.120532    0.322152    11.00000    0.03335
HKLF 4
REM  pyry1_a.res in P2(1)/m
REM wR2 = 0.0964, GooF = S = 1.053, Restrained GooF = 1.052 for all data
REM R1 = 0.0352 for 1009 Fo > 4sig(Fo) and 0.0371 for all 1075 data
REM 84 parameters refined using 1 restraints
END
WGHT      0.0471      0.1674
REM Highest difference peak  0.389,  deepest hole -0.318,  1-sigma level  0.050
Q1    1   0.2257  0.2500  0.2153  10.50000  0.05    0.39
Q2    1   1.0475  0.2500  0.7122  10.50000  0.05    0.34
;
_shelx_res_checksum              60064
loop_
_space_group_symop_operation_xyz
'x, y, z'
'-x, y+1/2, -z'
'-x, -y, -z'
'x, -y-1/2, z'
loop_
_atom_site_type_symbol
_atom_site_label
_atom_site_fract_x
_atom_site_fract_y
_atom_site_fract_z
_atom_site_U_iso_or_equiv
_atom_site_adp_type
_atom_site_calc_flag
_atom_site_occupancy
_atom_site_disorder_assembly
_atom_site_disorder_group
O O1 0.71017(14) 0.250000 0.91063(13) 0.0205(2) Uani d 1 . .
N N2 0.72246(15) 0.250000 0.64423(14) 0.0140(2) Uani d 1 . .
H H2 0.601583 0.250000 0.592192 0.017 Uiso calc 1 . .
N N6 0.99054(14) 0.250000 0.89619(14) 0.0137(2) Uani d 1 . .
H H6 1.046662 0.250000 1.009730 0.016 Uiso calc 1 . .
C C1 0.80061(17) 0.250000 0.82331(16) 0.0140(3) Uani d 1 . .
C C3 0.81877(18) 0.250000 0.54510(16) 0.0142(3) Uani d 1 . .
C C4 1.00892(18) 0.250000 0.62426(16) 0.0155(3) Uani d 1 . .
H H4 1.080338 0.250000 0.556716 0.019 Uiso calc 1 . .
C C5 1.09434(17) 0.250000 0.80387(17) 0.0142(3) Uani d 1 . .
C C7 0.7107(2) 0.250000 0.35340(17) 0.0196(3) Uani d 1 . .
C C8 1.29731(18) 0.250000 0.90421(19) 0.0192(3) Uani d 1 . .
F F1 0.36129(11) 0.250000 0.50873(11) 0.0214(2) Uani d 1 . .
H H1 0.255(2) 0.250000 0.3699(12) 0.064(9) Uiso d 1 . .
F F2 0.13833(15) 0.250000 0.23660(11) 0.0316(3) Uani d 1 . .
H H7A 0.790(3) 0.250000 0.294(3) 0.030(5) Uiso d 1 . .
H H8A 1.362(3) 0.250000 0.827(3) 0.032(6) Uiso d 1 . .
H H8B 1.331(2) 0.120(3) 0.9768(18) 0.031(4) Uiso d 1 . .
H H7B 0.631(2) 0.121(3) 0.3222(19) 0.033(4) Uiso d 1 . .
loop_
_atom_site_aniso_label
_atom_site_aniso_U_11
_atom_site_aniso_U_22
_atom_site_aniso_U_33
_atom_site_aniso_U_12
_atom_site_aniso_U_13
_atom_site_aniso_U_23
O1 0.0167(5) 0.0302(6) 0.0178(5) 0.000 0.0102(4) 0.000
N2 0.0121(5) 0.0156(5) 0.0135(5) 0.000 0.0044(4) 0.000
N6 0.0122(5) 0.0164(5) 0.0120(4) 0.000 0.0041(4) 0.000
C1 0.0134(6) 0.0147(6) 0.0144(6) 0.000 0.0059(4) 0.000
C3 0.0184(6) 0.0111(5) 0.0138(5) 0.000 0.0071(5) 0.000
C4 0.0172(6) 0.0159(6) 0.0164(6) 0.000 0.0100(5) 0.000
C5 0.0136(5) 0.0122(5) 0.0175(6) 0.000 0.0071(5) 0.000
C7 0.0244(7) 0.0204(6) 0.0122(6) 0.000 0.0055(5) 0.000
C8 0.0123(6) 0.0229(7) 0.0218(6) 0.000 0.0062(5) 0.000
F1 0.0143(4) 0.0300(5) 0.0168(4) 0.000 0.0029(3) 0.000
F2 0.0386(6) 0.0322(5) 0.0140(4) 0.000 0.0001(4) 0.000
loop_
_atom_type_symbol
_atom_type_description
_atom_type_scat_dispersion_real
_atom_type_scat_dispersion_imag
_atom_type_scat_source
C C 0.0033 0.0016 'International Tables Vol C Tables 4.2.6.8 and 6.1.1.4'
H H 0.0000 0.0000 'International Tables Vol C Tables 4.2.6.8 and 6.1.1.4'
F F 0.0171 0.0103 'International Tables Vol C Tables 4.2.6.8 and 6.1.1.4'
N N 0.0061 0.0033 'International Tables Vol C Tables 4.2.6.8 and 6.1.1.4'
O O 0.0106 0.0060 'International Tables Vol C Tables 4.2.6.8 and 6.1.1.4'
loop_
_geom_angle_atom_site_label_1
_geom_angle_atom_site_label_2
_geom_angle_atom_site_label_3
_geom_angle_site_symmetry_1
_geom_angle_site_symmetry_3
_geom_angle
_geom_angle_publ_flag
C1 N2 H2 . . 117.9 ?
C3 N2 H2 . . 117.9 ?
C3 N2 C1 . . 124.28(11) ?
C1 N6 H6 . . 118.1 ?
C5 N6 H6 . . 118.1 ?
C5 N6 C1 . . 123.71(11) ?
O1 C1 N2 . . 123.07(12) ?
O1 C1 N6 . . 122.18(12) ?
N6 C1 N2 . . 114.75(11) ?
N2 C3 C4 . . 118.80(12) ?
N2 C3 C7 . . 116.86(12) ?
C4 C3 C7 . . 124.34(12) ?
C3 C4 H4 . . 120.4 ?
C3 C4 C5 . . 119.22(12) ?
C5 C4 H4 . . 120.4 ?
N6 C5 C4 . . 119.24(12) ?
N6 C5 C8 . . 116.40(12) ?
C4 C5 C8 . . 124.36(12) ?
C3 C7 H7A . . 111.2(13) ?
C3 C7 H7B . . 108.9(9) ?
C3 C7 H7B . 4_565 108.9(9) ?
H7A C7 H7B . . 110.5(11) ?
H7A C7 H7B . 4_565 110.5(11) ?
H7B C7 H7B . 4_565 106.7(18) ?
C5 C8 H8A . . 111.1(13) ?
C5 C8 H8B . 4_565 109.1(9) ?
C5 C8 H8B . . 109.1(9) ?
H8A C8 H8B . 4_565 109.5(11) ?
H8A C8 H8B . . 109.5(11) ?
H8B C8 H8B . 4_565 108.5(17) ?
loop_
_geom_bond_atom_site_label_1
_geom_bond_atom_site_label_2
_geom_bond_site_symmetry_2
_geom_bond_distance
_geom_bond_publ_flag
O1 C1 . 1.2156(16) ?
N2 H2 . 0.8800 ?
N2 C1 . 1.3846(16) ?
N2 C3 . 1.3385(16) ?
N6 H6 . 0.8800 ?
N6 C1 . 1.3800(16) ?
N6 C5 . 1.3396(16) ?
C3 C4 . 1.3831(18) ?
C3 C7 . 1.4968(18) ?
C4 H4 . 0.9500 ?
C4 C5 . 1.3904(18) ?
C5 C8 . 1.4886(18) ?
C7 H7A . 0.95(2) ?
C7 H7B . 0.967(16) ?
C7 H7B 4_565 0.967(16) ?
C8 H8A . 0.98(2) ?
C8 H8B . 0.962(16) ?
C8 H8B 4_565 0.962(16) ?
F1 H1 . 1.1360(15) ?
F2 H1 . 1.1360(15) ?
loop_
_geom_hbond_atom_site_label_D
_geom_hbond_atom_site_label_H
_geom_hbond_atom_site_label_A
_geom_hbond_site_symmetry_A
_geom_hbond_distance_DH
_geom_hbond_distance_HA
_geom_hbond_distance_DA
_geom_hbond_angle_DHA
_geom_hbond_publ_flag
N2 H2 F1 . 0.88 1.75 2.6240(15) 174.5 yes

_cod_database_fobs_code 2022133
