#------------------------------------------------------------------------------
#$Date: 2020-08-11 08:19:30 +0300 (Tue, 11 Aug 2020) $
#$Revision: 255237 $
#$URL: file:///home/coder/svn-repositories/cod/cif/2/02/22/2022224.cif $
#------------------------------------------------------------------------------
#
# This file is available in the Crystallography Open Database (COD),
# http://www.crystallography.net/. The original data for this entry
# were provided by IUCr Journals, http://journals.iucr.org/.
#
# The file may be used within the scientific community so long as
# proper attribution is given to the journal article from which the
# data were obtained.
#
data_2022224
loop_
_publ_author_name
'Balvanz, Adam'
'Baranets, Sviatoslav'
'Bobev, Svilen'
_publ_section_title
;
 Synthesis, structural characterization, and electronic structure of the
 novel Zintl phase Ba~2~ZnP~2~
;
_journal_coeditor_code           OV3142
_journal_issue                   9
_journal_name_full               'Acta Crystallographica Section C'
_journal_page_first
;
;
_journal_paper_doi               10.1107/S2053229620010827
_journal_volume                  76
_journal_year                    2020
_chemical_formula_iupac          'Ba2 Zn P2'
_chemical_formula_moiety         'Ba2 P2 Zn'
_chemical_formula_sum            'Ba2 P2 Zn'
_chemical_formula_weight         401.99
_chemical_name_systematic
;
Dibarium zinc diphosphide
;
_space_group_crystal_system      orthorhombic
_space_group_IT_number           72
_space_group_name_Hall           '-I 2 2c'
_space_group_name_H-M_alt        'I b a m'
_atom_sites_solution_primary     dual
_cell_angle_alpha                90
_cell_angle_beta                 90
_cell_angle_gamma                90
_cell_formula_units_Z            4
_cell_length_a                   6.756(4)
_cell_length_b                   13.108(8)
_cell_length_c                   6.385(4)
_cell_measurement_reflns_used    995
_cell_measurement_temperature    200.0
_cell_measurement_theta_max      29.23
_cell_measurement_theta_min      3.11
_cell_volume                     565.4(6)
_computing_cell_refinement
;
SAINT (Bruker, 2014)
;
_computing_data_collection
;
SMART (Bruker, 2014)
;
_computing_data_reduction
;
SAINT (Bruker, 2014)
;
_computing_molecular_graphics
;
DIAMOND (Brandenburg, 2014) and OLEX2 (Dolomanov <i>et al.</i>,
2009)
;
_computing_publication_material
;
publCIF (Westrip, 2010)
;
_computing_structure_refinement
;
SHELXL2018 (Sheldrick, 2015b)
;
_computing_structure_solution
;
SHELXT (Sheldrick, 2015a)
;
_diffrn_ambient_temperature      200.0
_diffrn_measured_fraction_theta_full 1.000
_diffrn_measured_fraction_theta_max 1.000
_diffrn_measurement_device_type  'Bruker APEXII CCD'
_diffrn_measurement_method       '\f and \w scans'
_diffrn_radiation_type           MoK\a
_diffrn_radiation_wavelength     0.71073
_diffrn_reflns_av_R_equivalents  0.0455
_diffrn_reflns_av_unetI/netI     0.0244
_diffrn_reflns_limit_h_max       9
_diffrn_reflns_limit_h_min       -9
_diffrn_reflns_limit_k_max       18
_diffrn_reflns_limit_k_min       -18
_diffrn_reflns_limit_l_max       8
_diffrn_reflns_limit_l_min       -8
_diffrn_reflns_number            3529
_diffrn_reflns_theta_full        25.242
_diffrn_reflns_theta_max         29.602
_diffrn_reflns_theta_min         3.108
_diffrn_source_current           30.0
_diffrn_source_power             1.5
_diffrn_source_voltage           50.0
_diffrn_standards_number         0
_exptl_absorpt_coefficient_mu    18.380
_exptl_absorpt_correction_T_max  0.3357
_exptl_absorpt_correction_T_min  0.2489
_exptl_absorpt_correction_type   multi-scan
_exptl_absorpt_process_details
;
(SADABS; Bruker, 2014)
;
_exptl_crystal_colour            black
_exptl_crystal_density_diffrn    4.722
_exptl_crystal_description       block
_exptl_crystal_F_000             688
_exptl_crystal_size_max          0.053
_exptl_crystal_size_mid          0.038
_exptl_crystal_size_min          0.031
_refine_diff_density_max         1.115
_refine_diff_density_min         -0.862
_refine_ls_extinction_coef       0.00142(12)
_refine_ls_extinction_expression Fc^*^=kFc[1+0.001xFc^2^\l^3^/sin(2\q)]^-1/4^
_refine_ls_extinction_method
;
SHELXL2018 (Sheldrick 2015b)
;
_refine_ls_goodness_of_fit_ref   1.039
_refine_ls_hydrogen_treatment    undef
_refine_ls_matrix_type           full
_refine_ls_number_parameters     17
_refine_ls_number_reflns         437
_refine_ls_number_restraints     0
_refine_ls_restrained_S_all      1.039
_refine_ls_R_factor_all          0.0216
_refine_ls_R_factor_gt           0.0177
_refine_ls_shift/su_max          0.000
_refine_ls_shift/su_mean         0.000
_refine_ls_structure_factor_coef Fsqd
_refine_ls_weighting_details
'w=1/[\s^2^(Fo^2^)+(0.0163P)^2^] where P=(Fo^2^+2Fc^2^)/3'
_refine_ls_weighting_scheme      calc
_refine_ls_wR_factor_gt          0.0357
_refine_ls_wR_factor_ref         0.0366
_reflns_number_gt                396
_reflns_number_total             437
_reflns_threshold_expression     'I > 2\s(I)'
_cod_data_source_file            ov3142sup1.cif
_cod_data_source_block           I
_cod_database_code               2022224
_shelx_space_group_comment
;
The symmetry employed for this shelxl refinement is uniquely defined
by the following loop, which should always be used as a source of
symmetry information in preference to the above space-group names.
They are only intended as comments.
;
_shelx_estimated_absorpt_t_min   0.443
_shelx_estimated_absorpt_t_max   0.600
_shelx_hkl_file
;
   0   0  -2  619.62    9.56
   0   0  -2  630.16    9.23
   0   0   2  632.64    9.21
   0   0   4  814.98   13.65
   0   0  -4  781.44   14.26
   0   0  -4  792.15   13.74
   0   0  -6  198.28    7.93
   0   0  -6  212.87    7.78
   0   0   6  202.77    7.69
   0   0  -8  255.18   10.30
   0   0   8  260.51    9.92
  -1   0  -1    0.01    0.30
  -1   0  -1    0.95    0.48
   1   0   1    1.88    0.61
  -1   0   1   -0.02    0.31
   1   0  -1    0.19    0.44
  -1   0  -1    0.05    0.47
  -1   0   3    0.37    0.52
  -1   0  -3    1.06    0.84
   1   0   3   -0.14    0.55
  -1   0  -3   -0.44    0.38
   1   0  -3    1.02    0.78
   1   0  -3    0.41    0.54
   1   0  -5    0.72    0.85
  -1   0  -5   -0.95    0.85
  -1   0   5    0.33    0.79
  -1   0  -5   -0.41    0.81
   1   0   5   -0.46    0.74
   1   0  -5   -0.10    0.86
   1   0   7   -1.42    1.00
  -1   0  -7    0.96    1.39
  -1   0  -7    0.76    1.46
  -1   0   7    0.36    1.23
   1   0  -7   -0.69    1.13
  -2   0   0  326.54    6.02
  -2   0   0  316.39    5.36
  -2   0   0  321.97    6.08
   2   0   0  330.18    5.50
  -2   0  -2  770.70   13.58
   2   0  -2  755.19   12.11
  -2   0   2  781.32   11.11
   2   0   2  767.76   12.58
  -2   0  -2  768.07   12.79
  -2   0  -2  776.35   10.78
   2   0  -2  773.38    8.59
   2   0  -4  147.93    4.09
  -2   0  -4  148.48    6.58
  -2   0  -4  144.48    4.91
  -2   0   4  140.61    4.89
   2   0  -4  151.52    5.81
   2   0   4  137.48    5.73
  -2   0  -6  265.51    8.43
  -2   0  -6  271.72   10.55
   2   0   6  272.15    9.57
   2   0  -6  267.69    9.30
  -2   0   6  278.68    8.41
   2   0  -8   46.30    5.47
  -2   0  -8   40.79    5.94
   2   0   8   43.13    5.34
  -3   0  -1    0.73    0.50
  -3   0  -1    0.27    0.56
  -3   0   1    0.29    0.59
   3   0  -1    0.32    0.48
  -3   0  -1   -0.11    0.61
   3   0  -1    0.26    0.58
  -3   0   1   -0.41    0.35
  -3   0   1   -0.13    0.45
  -3   0   3    0.58    0.60
  -3   0  -3   -0.10    0.52
  -3   0  -3   -0.59    0.72
   3   0   3    0.29    0.79
  -3   0  -3   -0.42    0.66
   3   0  -3   -0.34    0.28
   3   0  -3    0.03    0.66
  -3   0  -5    0.22    1.25
   3   0   5   -0.36    1.00
   3   0  -5    0.71    1.05
  -3   0  -5   -0.57    0.67
  -3   0   5    0.67    0.87
   3   0   7   -0.93    1.23
  -3   0  -7    0.95    1.34
  -3   0  -7   -0.83    1.74
   3   0  -7    0.30    1.51
   4   0   0   87.63    3.61
  -4   0   0   78.35    3.29
  -4   0   0   83.75    3.86
  -4   0   0   78.35    3.83
   4   0   2    5.03    1.61
   4   0  -2    3.37    0.69
   4   0  -2    4.51    1.43
  -4   0  -2    5.65    1.78
  -4   0  -2    4.90    1.51
  -4   0   2    4.68    1.20
  -4   0  -2    4.45    1.07
   4   0  -4   53.82    4.02
   4   0   4   41.56    4.68
  -4   0   4   47.20    3.22
  -4   0  -4   45.58    4.67
  -4   0  -4   60.89    6.34
  -4   0  -4   41.94    2.85
  -4   0   6    1.12    1.95
   4   0  -6    1.08    1.55
  -4   0  -6    1.06    1.73
   4   0   6    2.54    1.72
   4   0  -8   17.61    3.77
   4   0   8   12.70    3.48
  -4   0  -8   10.38    3.65
  -5   0  -1   -0.12    0.88
   5   0  -1   -0.64    0.73
  -5   0   1   -0.41    0.67
  -5   0  -1   -0.79    0.82
  -5   0  -1    0.43    0.69
  -5   0   1    0.32    0.75
   5   0  -1    0.46    0.69
  -5   0  -3    0.55    1.10
   5   0  -3   -0.98    1.01
   5   0   3   -0.15    0.98
  -5   0  -3   -0.97    0.57
  -5   0  -3    0.11    1.05
  -5   0   3    0.25    0.85
  -5   0  -5   -0.58    1.34
   5   0   5    0.60    1.51
  -5   0   5   -0.23    0.95
   5   0  -5   -1.29    1.13
   5   0   7   -0.18    1.48
   5   0  -7    0.18    1.74
  -5   0  -7   -0.92    2.18
  -6   0   0  212.94    7.78
   6   0   0  195.79    6.73
  -6   0   0  220.52    6.88
  -6   0   0  218.37    7.65
   6   0   2   28.53    3.90
  -6   0  -2   37.05    4.41
   6   0  -2   38.80    4.26
  -6   0  -2   25.81    4.00
  -6   0   2   43.42    4.25
  -6   0  -4  148.99    8.94
  -6   0  -4  139.51    7.73
   6   0   4  135.28    7.81
  -6   0   4  135.52    6.29
   6   0  -4  148.81    7.51
   6   0   6   16.83    3.75
  -6   0  -6   18.53    4.79
  -7   0  -1   -0.26    1.04
  -7   0  -1   -0.26    1.22
  -7   0   1   -0.30    0.98
   7   0  -1    0.66    1.34
  -7   0   3   -0.84    1.02
   7   0  -3    0.67    1.60
  -7   0  -3   -0.49    1.23
  -7   0  -3   -0.43    1.39
   7   0   3    0.54    1.49
   7   0  -5   -0.68    1.62
  -7   0  -5    0.42    1.53
  -7   0  -5   -0.64    1.68
   7   0   5    2.01    2.00
  -8   0   0  109.03    6.67
  -8   0  -2  233.51   10.97
   8   0   2  231.90   10.44
  -8   0  -2  238.19   10.23
  -8   0   2  253.71    9.76
  -8   0  -4   82.81    8.42
   8   0  -4   81.36    7.90
  -8   0  -4   68.19    7.96
   8   0   4   78.62    8.02
   9   0   1   -0.38    1.85
  -9   0   1    1.46    1.88
  -9   0  -1   -0.51    1.35
   0  -1   1    0.09    0.29
   0  -1  -1    1.06    0.35
   0   1  -1    0.16    0.30
   0   1  -1   -0.02    0.35
   0  -1  -1    1.04    0.38
   0   1   1    0.66    0.32
   0  -1  -1    0.39    0.33
   0  -1   3    0.12    0.51
   0  -1  -3    0.05    0.57
   0   1   3    0.13    0.56
   0   1  -3   -0.47    0.55
   0  -1  -3    0.65    0.60
   0   1  -3   -0.33    0.54
   0   1   5    0.17    0.66
   0  -1   5    0.00    0.78
   0  -1  -5    0.94    1.03
   0  -1  -5    1.66    1.19
   0   1  -5    0.00    0.70
   0   1  -5   -0.23    0.73
   0  -1  -7   -0.77    1.39
   0  -1  -7    1.20    1.37
   0   1   7   -1.14    0.99
   0   1  -7    1.54    1.39
   0  -1   7    0.94    1.38
   1   1   0   12.31    0.55
  -1  -1   0   10.67    0.83
  -1   1   0   12.74    0.89
  -1  -1   0   12.71    0.87
  -1   1   0   12.39    0.75
  -1   1   0   13.07    0.99
  -1  -1  -2  134.99    3.29
  -1  -1  -2  139.27    4.48
   1  -1   2  144.22    4.23
   1   1  -2  133.50    4.00
  -1   1   2  136.43    3.23
  -1  -1  -2  143.33    4.04
   1   1  -2  133.81    2.86
   1   1   2  129.87    3.89
  -1   1  -2  133.17    4.46
  -1   1  -2  136.05    3.72
   1  -1  -2  135.81    3.22
   1  -1  -2  135.92    3.99
  -1  -1   2  131.07    3.75
   1  -1   4    2.93    1.14
  -1  -1  -4    3.61    1.43
   1   1  -4    5.03    1.42
  -1  -1  -4    3.19    1.09
  -1   1   4    3.51    1.01
   1   1  -4    3.97    1.07
   1  -1  -4    3.95    1.19
  -1   1  -4    2.09    0.97
  -1  -1   4    2.87    1.03
   1   1   4    4.07    1.28
  -1   1  -4    4.48    1.51
   1  -1  -4    2.71    1.16
   1  -1   6   38.50    4.35
  -1  -1  -6   41.38    4.99
  -1   1   6   39.74    3.21
   1   1  -6   45.17    4.73
  -1  -1  -6   33.84    3.70
   1  -1  -6   39.64    4.09
   1   1   6   44.78    4.64
  -1   1  -6   47.16    5.32
   1  -1  -6   34.50    3.98
  -1   1  -6   29.95    3.57
  -1  -1   6   36.00    3.97
   1  -1   8    1.39    1.86
  -1  -1  -8   -0.54    1.34
  -1  -1  -8    0.83    1.87
   1   1  -8   -0.98    0.98
  -1   1  -8    1.62    1.63
  -1  -1   8   -0.06    1.45
   1  -1  -8    0.75    1.48
   1   1   8    0.59    1.71
  -2  -1  -1  252.60    6.08
   2  -1   1  257.76    5.81
  -2  -1  -1  254.02    4.10
   2   1  -1  253.86    5.16
  -2   1   1  262.30    4.73
  -2   1   1  261.26    5.59
  -2   1  -1  262.26    5.13
   2  -1  -1  256.05    4.61
  -2  -1   1  256.88    5.36
  -2  -1   1  258.89    3.74
   2  -1  -1  259.37    5.64
  -2   1  -1  253.91    6.53
  -2  -1  -3  160.64    4.35
   2   1  -3  161.93    3.09
  -2  -1  -3  165.62    5.60
   2  -1   3  162.49    5.78
  -2  -1  -3  176.92    6.40
   2   1  -3  163.40    5.41
  -2   1   3  166.01    4.40
   2  -1  -3  163.34    3.90
   2  -1  -3  165.16    5.50
  -2   1  -3  166.77    6.40
  -2   1  -3  168.45    4.92
   2   1   3  165.33    5.65
  -2  -1   3  157.20    4.90
  -2   1   5   89.94    4.12
  -2  -1  -5   91.53    4.31
  -2  -1  -5   84.88    5.45
   2  -1   5   97.03    5.39
   2   1  -5   95.16    5.12
  -2   1  -5   98.44    4.69
  -2   1  -5   96.23    5.84
   2  -1  -5   86.48    4.91
  -2  -1   5   91.51    4.55
   2   1   5   88.49    4.96
   2  -1  -5   96.05    4.29
  -2  -1  -7   56.45    6.68
   2  -1   7   50.88    5.61
   2   1  -7   56.14    5.76
  -2  -1  -7   55.05    5.08
   2   1   7   48.27    5.27
   2  -1  -7   54.12    5.73
  -2   1  -7   52.39    5.07
  -2  -1   7   56.14    4.39
  -2   1  -7   57.73    6.96
  -3   1   0  276.92    6.38
  -3   1   0  279.78    6.16
  -3  -1   0  284.96    5.37
   3   1   0  284.18    5.56
  -3  -1   0  270.64    6.65
  -3  -1   0  290.47    6.38
  -3   1   0  295.85    6.95
  -3  -1  -2   11.09    1.31
   3  -1   2   10.38    1.78
  -3  -1  -2    9.92    2.05
  -3  -1  -2    9.71    1.77
   3   1  -2   12.36    1.83
  -3   1   2   11.01    1.39
  -3   1  -2   10.19    2.07
   3  -1  -2   10.06    1.11
   3   1   2   14.53    2.27
  -3   1  -2   10.71    1.58
  -3   1  -2    9.43    1.73
  -3  -1   2   11.50    1.70
   3  -1  -2    9.97    1.73
  -3  -1  -4  161.90    6.65
   3   1  -4  147.10    6.09
  -3   1   4  148.93    5.05
   3  -1   4  144.84    6.49
  -3  -1  -4  158.17    4.99
  -3  -1  -4  160.23    7.32
   3  -1  -4  161.74    6.52
  -3   1  -4  154.22    7.36
  -3   1  -4  139.93    5.19
   3   1   4  141.78    6.41
  -3  -1   4  156.47    5.62
  -3  -1  -6    4.79    2.26
   3  -1   6    3.98    1.93
  -3   1   6    5.08    1.59
   3   1  -6    4.21    1.85
  -3  -1  -6    5.31    1.55
  -3   1  -6    3.99    1.60
   3  -1  -6    4.97    1.94
  -3   1  -6    3.67    2.15
   3   1   6    5.61    1.93
  -3  -1   6    4.38    1.56
   3  -1   8   30.14    4.65
  -3  -1  -8   34.92    5.50
   3   1  -8   32.43    4.90
   3   1   8   37.00    5.39
   3  -1  -8   47.15    5.75
  -3   1  -8   35.00    5.73
  -3   1  -8   45.61    5.07
  -4  -1  -1  347.10    6.55
  -4   1   1  339.13    7.42
   4   1  -1  335.72    7.69
  -4  -1  -1  333.24    8.94
  -4  -1  -1  346.42    8.87
  -4   1   1  347.14    7.72
  -4   1   1  326.95    8.05
   4  -1  -1  338.25    8.25
   4  -1  -1  332.42    7.43
  -4   1  -1  326.87    8.52
  -4   1  -1  335.12    7.47
  -4   1  -1  321.57    9.06
  -4  -1   1  333.84    6.80
  -4  -1   1  342.12    8.30
  -4  -1  -3  260.15    8.69
   4  -1   3  268.71    8.89
  -4   1   3  261.37    6.83
  -4  -1  -3  254.20    9.38
   4   1  -3  258.34    8.03
  -4  -1  -3  268.27    6.21
   4  -1  -3  259.46    8.33
  -4   1  -3  270.79    9.89
  -4   1  -3  255.98    8.59
  -4   1  -3  255.43    6.98
   4   1   3  270.91    8.87
  -4  -1   3  262.49    7.50
  -4   1   5  161.14    5.94
  -4  -1  -5  156.00    8.50
   4   1  -5  152.31    7.30
   4  -1   5  167.63    7.90
  -4  -1   5  166.90    6.60
  -4   1  -5  160.58    6.26
  -4   1  -5  175.88    9.22
   4  -1  -5  156.08    7.27
   4   1   5  166.08    7.86
   4  -1   7   92.66    6.86
   4   1  -7   85.25    6.31
  -4  -1  -7   96.45    7.62
  -4   1  -7   89.63    9.30
   4  -1  -7   88.15    6.32
   4   1   7   99.63    6.86
   5  -1   0    9.77    1.88
  -5   1   0   10.41    1.97
  -5   1   0    7.40    1.55
  -5  -1   0   10.24    2.01
  -5  -1   0   11.18    1.73
   5   1   0    8.74    1.57
  -5  -1   0    9.50    1.86
  -5   1   0    9.02    1.92
  -5  -1  -2  138.37    6.42
  -5  -1  -2  133.03    6.65
  -5  -1  -2  139.87    4.48
  -5   1   2  146.21    5.40
   5   1  -2  147.41    5.85
   5  -1   2  129.00    6.22
  -5   1  -2  125.43    4.95
   5  -1  -2  149.26    6.21
  -5   1  -2  133.03    6.14
  -5   1  -2  142.73    7.09
   5  -1  -2  129.32    6.00
  -5  -1   2  147.62    5.85
  -5  -1  -4    4.58    1.86
  -5  -1  -4    4.38    2.05
   5   1  -4    4.44    1.92
  -5   1   4    7.69    1.83
   5  -1   4    5.95    2.15
  -5  -1   4    5.38    1.66
   5   1   4    4.27    1.85
  -5   1  -4    7.65    2.66
  -5   1  -4    2.58    1.73
  -5   1  -4    4.15    1.43
   5  -1  -4    3.88    1.90
  -5  -1  -6   60.35    7.71
   5  -1   6   60.93    6.62
   5   1  -6   49.24    5.61
   5  -1  -6   62.26    6.18
   5   1   6   70.16    7.17
  -5   1  -6   61.44    7.81
  -6   1   1  132.49    5.43
  -6   1   1  136.94    5.85
  -6  -1  -1  132.18    6.61
  -6  -1  -1  141.24    6.74
   6  -1   1  136.53    5.61
  -6   1   1  128.04    5.75
   6   1  -1  142.39    5.78
   6  -1  -1  122.70    5.75
   6  -1  -1  132.52    5.49
  -6   1  -1  126.88    6.50
  -6   1  -1  133.98    5.43
  -6   1  -1  137.12    6.50
  -6  -1   1  135.38    6.17
  -6   1   3  107.98    5.27
  -6  -1  -3  105.34    6.41
   6  -1   3  118.23    6.77
  -6  -1  -3  107.63    7.09
   6   1  -3  113.84    6.08
   6  -1  -3  113.11    6.33
  -6  -1   3  105.68    5.57
   6   1   3  108.30    6.57
  -6   1  -3   95.38    6.30
  -6   1  -3   98.40    6.90
  -6  -1  -5   81.32    8.58
   6  -1   5   75.46    6.22
   6   1  -5   72.47    7.00
  -6  -1  -5   76.59    6.27
   6  -1  -5   69.94    6.60
   6   1   5   66.37    6.94
  -6   1  -5   85.10    9.05
  -7  -1   0   28.47    3.89
   7  -1   0   29.76    3.71
  -7   1   0   41.62    4.24
  -7   1   0   36.71    4.34
  -7   1   0   31.05    3.93
   7  -1   0   39.71    4.47
  -7  -1  -2    1.34    1.57
   7   1  -2    1.72    1.53
   7  -1   2    1.68    1.61
  -7   1   2    0.61    1.24
  -7  -1  -2    1.92    1.55
  -7  -1   2    0.18    1.10
  -7   1  -2    0.48    1.30
   7   1   2    0.07    1.24
  -7   1  -2    2.74    1.96
   7  -1  -2    2.87    1.63
   7   1  -4   19.25    3.74
  -7  -1  -4   19.31    4.06
  -7  -1  -4   20.12    4.20
   7  -1   4   23.92    4.25
   7   1   4   25.21    4.56
  -7  -1   4   19.82    5.18
   7  -1  -4   21.52    4.07
  -7   1  -4   26.25    5.13
  -7   1  -4   21.14    4.18
  -8  -1  -1    4.86    2.24
  -8   1   1    7.86    2.40
   8  -1   1    8.88    2.77
  -8   1  -1    4.17    2.23
  -8  -1   1    7.23    2.40
  -8   1  -1    4.52    2.05
  -8  -1  -3    3.72    2.28
   8  -1   3    9.77    2.95
  -8  -1  -3    4.27    2.66
   8   1   3    4.63    2.53
  -8  -1   3    3.87    3.30
  -8   1  -3    7.34    2.84
   8  -1  -3    7.17    2.59
  -8   1  -3    8.22    2.90
  -9  -1   0   17.42    3.50
  -9   1   0   11.88    3.10
   9  -1   0   21.48    4.27
   9  -1   2    2.75    2.23
  -9  -1  -2    0.52    1.79
   9   1   2   -0.76    1.50
  -9   1  -2    1.36    1.91
   0  -2   0   23.73    1.13
   0  -2   0   21.49    0.84
   0   2   0   20.77    0.92
   0   2   2  114.92    3.06
   0   2  -2  123.74    3.71
   0   2  -2  122.76    3.81
   0  -2  -2  122.68    3.43
   0  -2  -2  115.93    3.63
   0  -2   2  123.43    3.86
   0  -2  -4    8.17    1.60
   0  -2   4    9.21    1.84
   0  -2  -4    7.24    1.71
   0   2  -4    7.20    1.60
   0   2  -4    8.94    1.78
   0   2   4    5.09    1.16
   0   2   6   28.65    3.41
   0   2  -6   35.32    4.23
   0  -2   6   23.82    3.49
   0  -2  -6   35.48    4.16
   0   2  -6   29.46    3.68
   0  -2  -6   32.86    3.69
   0  -2   8    1.47    1.57
   0  -2  -8    2.47    1.80
   0   2  -8    0.48    1.53
   1   2  -1  338.90    5.59
  -1   2   1  341.46    4.13
  -1   2   1  345.53    6.00
   1  -2   1  341.53    6.09
  -1  -2  -1  342.73    6.40
  -1  -2  -1  344.87    4.20
  -1  -2  -1  340.59    5.98
  -1   2  -1  336.73    6.97
   1  -2  -1  343.29    6.22
   1  -2  -1  350.43    5.71
  -1  -2   1  349.20    4.48
  -1  -2   1  343.29    5.96
  -1   2  -1  343.05    6.00
  -1  -2  -3  231.72    6.16
   1  -2   3  245.19    6.74
  -1   2   3  250.91    5.28
   1   2  -3  251.65    6.52
   1   2  -3  253.13    5.49
  -1  -2  -3  250.90    7.23
  -1  -2  -3  250.14    5.62
   1  -2  -3  249.83    5.86
  -1  -2   3  251.72    6.54
   1  -2  -3  249.56    6.46
  -1   2  -3  243.13    7.28
   1   2   3  244.06    6.27
  -1   2  -3  251.44    6.36
   1   2  -5  133.19    6.01
  -1  -2  -5  149.59    6.67
  -1  -2  -5  140.17    5.52
   1   2  -5  131.82    5.16
  -1   2   5  135.08    5.07
   1  -2   5  127.49    5.94
   1  -2  -5  134.14    5.92
  -1   2  -5  135.64    6.49
   1  -2  -5  138.11    5.67
   1   2   5  146.95    5.89
  -1  -2   5  133.26    5.74
  -1   2  -5  137.21    5.77
   1  -2   7   65.86    5.40
  -1   2   7   70.03    4.48
  -1  -2  -7   76.08    4.90
  -1  -2  -7   70.92    5.70
   1   2  -7   80.28    5.56
   1   2   7   66.63    4.79
  -1   2  -7   68.85    4.98
  -1   2  -7   69.99    5.64
  -1  -2   7   65.98    4.88
   1  -2  -7   67.33    5.03
  -2   2   0  110.52    3.44
  -2   2   0   96.48    3.53
  -2   2   0  103.77    2.96
  -2  -2   0  105.50    3.43
   2   2   0  103.00    2.24
   2  -2   0   98.85    3.58
  -2  -2   0  108.94    3.20
   2   2  -2   19.17    2.04
  -2  -2  -2   20.11    2.46
   2  -2   2   17.79    2.09
  -2  -2  -2   18.05    1.07
  -2  -2  -2   19.61    2.19
  -2   2   2   17.32    1.11
   2   2   2   18.89    2.18
   2  -2  -2   16.22    1.57
  -2   2  -2   14.60    1.72
  -2   2  -2   21.32    2.76
   2  -2  -2   18.03    2.16
  -2  -2   2   18.80    1.99
  -2  -2  -4   45.08    3.73
   2  -2   4   53.33    3.69
  -2  -2  -4   48.31    2.66
   2   2  -4   45.92    3.25
  -2  -2  -4   52.32    3.51
  -2   2   4   46.45    2.52
   2   2  -4   47.91    2.11
  -2   2  -4   58.44    4.37
  -2  -2   4   45.55    3.08
  -2   2  -4   43.99    2.98
   2  -2  -4   50.17    2.75
   2  -2  -4   45.34    3.30
   2   2   4   42.50    3.15
   2  -2   6    5.53    2.10
   2   2  -6    3.84    1.76
  -2  -2  -6    5.43    1.61
  -2   2   6    4.93    1.43
  -2  -2  -6    4.29    1.99
   2   2   6    5.26    1.83
   2  -2  -6    5.41    2.00
  -2  -2   6    2.86    1.46
  -2   2  -6    4.96    2.26
  -2   2  -6    3.09    1.49
   2   2  -8   12.62    3.26
  -2  -2  -8   12.75    3.64
   2  -2   8   14.17    3.51
  -2   2  -8    8.57    2.52
  -2   2  -8   13.08    3.81
   2   2   8   15.41    3.46
  -2  -2   8    9.91    2.72
   2  -2  -8   12.27    3.02
   3   2  -1   46.84    2.33
  -3  -2  -1   49.53    1.63
  -3  -2  -1   45.87    2.85
  -3  -2  -1   53.15    3.09
   3  -2   1   45.51    2.68
  -3   2   1   49.59    2.27
  -3   2   1   50.30    2.81
  -3   2   1   43.61    2.33
   3  -2  -1   53.14    2.57
  -3   2  -1   50.92    3.28
  -3   2  -1   50.99    2.63
  -3  -2   1   46.25    2.71
  -3  -2   1   50.48    1.96
  -3   2  -1   55.02    2.91
   3  -2  -1   55.33    3.07
  -3  -2  -3   32.25    3.65
  -3  -2  -3   35.08    2.90
  -3   2   3   35.66    2.07
   3   2  -3   34.98    3.30
  -3  -2  -3   36.26    1.94
   3  -2   3   26.02    3.05
   3   2   3   36.56    3.01
  -3  -2   3   35.31    2.66
  -3   2  -3   33.71    2.51
   3  -2  -3   41.20    2.11
  -3   2  -3   33.03    4.06
   3  -2  -3   30.79    3.28
   3  -2   5   17.89    3.06
  -3  -2  -5   14.20    3.05
   3   2  -5   23.83    3.36
  -3   2   5   17.94    2.22
  -3  -2  -5   21.62    2.50
  -3   2  -5   20.62    3.98
   3   2   5   17.80    3.07
  -3  -2   5   16.68    2.55
  -3   2  -5   21.23    2.84
   3  -2  -5   12.56    2.52
   3  -2   7    9.11    2.87
  -3  -2  -7   10.09    3.22
   3   2  -7    9.92    2.79
  -3   2  -7   10.13    3.21
   3   2   7   12.91    3.11
  -3   2  -7   13.46    2.93
   3  -2  -7    8.77    2.44
  -3  -2   7   11.83    2.63
   4   2   0   29.83    1.89
  -4  -2   0   28.35    2.27
  -4   2   0   31.74    2.62
  -4   2   0   33.91    2.47
  -4   2   0   31.36    2.39
  -4  -2   0   34.34    2.75
  -4  -2  -2   27.12    1.63
   4   2  -2   24.26    2.71
  -4   2   2   27.63    2.03
  -4  -2  -2   26.54    3.22
  -4  -2  -2   27.05    3.49
   4  -2   2   23.02    2.90
   4  -2  -2   25.42    1.84
  -4   2  -2   36.59    4.37
   4  -2  -2   38.98    3.87
  -4   2  -2   21.98    2.39
  -4  -2   2   32.74    3.21
  -4   2  -2   36.84    3.83
  -4   2   4   23.07    2.53
  -4  -2  -4   14.10    2.72
   4   2  -4   19.18    3.10
   4  -2   4   14.35    2.81
  -4  -2  -4   16.94    3.33
   4   2   4   15.74    2.93
  -4   2  -4   12.33    3.04
  -4  -2   4   13.55    2.27
  -4   2  -4   15.09    2.31
   4  -2  -4   17.10    2.95
   4   2  -6    6.60    2.29
   4  -2   6   12.27    3.02
  -4  -2  -6   10.32    3.45
  -4   2  -6    8.67    2.11
   4   2   6   10.75    2.74
   4  -2  -6    5.52    2.24
  -4   2  -6   12.13    3.50
  -4  -2   6   10.12    2.27
  -5   2   1   25.57    2.91
  -5   2   1   23.48    2.69
   5   2  -1   27.61    2.82
  -5   2   1   18.87    2.61
  -5  -2  -1   21.24    3.09
   5  -2   1   21.73    3.13
  -5  -2  -1   19.65    2.87
  -5  -2  -1   23.40    1.74
   5  -2  -1   26.07    2.90
  -5   2  -1   20.88    2.89
  -5  -2   1   19.79    2.73
  -5  -2   1   22.89    2.36
  -5   2  -1   25.75    3.59
   5  -2  -1   17.65    2.64
  -5   2  -1   26.30    2.95
   5   2   1   24.91    2.22
  -5  -2  -3   11.88    2.52
  -5  -2  -3   19.20    3.63
   5  -2   3   19.88    3.31
  -5   2   3   18.14    2.31
   5   2  -3   16.16    2.65
  -5   2  -3   19.64    3.80
  -5   2  -3   18.96    3.19
   5   2   3   16.38    2.99
  -5   2  -3   19.79    2.63
  -5  -2   3   14.05    2.44
   5  -2  -3   15.33    2.75
  -5  -2  -5    9.86    2.78
  -5  -2  -5    5.21    2.36
   5   2  -5   10.52    2.77
   5  -2   5   12.03    2.95
  -5   2  -5    8.05    3.06
  -5   2  -5    9.08    2.18
  -5  -2   5   11.88    2.55
   5  -2  -5    7.48    2.49
   5   2   5   13.50    3.36
   5  -2   7    7.39    2.99
  -5  -2  -7    8.42    3.57
   5   2  -7    7.17    2.64
   5   2   7    7.42    2.97
   5  -2  -7    5.13    2.51
  -5   2  -7    9.50    3.46
  -6  -2   0    3.63    1.48
  -6   2   0    7.69    1.91
  -6   2   0    3.09    1.30
   6  -2   0    5.13    1.82
  -6  -2   0    5.25    1.69
   6  -2   0    4.37    1.62
  -6   2   0    6.99    2.06
   6   2  -2   24.12    3.21
  -6  -2  -2   24.39    3.74
  -6   2   2   36.00    3.61
  -6  -2  -2   27.50    4.09
   6  -2   2   24.21    3.56
  -6   2  -2   21.90    3.38
  -6  -2   2   22.51    3.29
  -6   2  -2   25.90    3.14
   6  -2  -2   28.28    3.87
  -6   2  -2   25.18    4.13
  -6  -2  -4    3.39    2.33
  -6  -2  -4    3.06    1.93
   6  -2   4    5.18    2.18
   6   2  -4    2.39    1.68
   6  -2  -4    3.81    2.18
  -6  -2   4    4.40    1.82
  -6   2  -4    4.90    2.50
   6   2   4    3.99    1.92
  -6   2  -4    4.62    2.18
  -6  -2  -6    9.90    3.59
   6   2  -6   10.01    2.84
   6  -2   6    6.96    2.70
   6   2   6   13.88    3.60
  -6   2  -6    9.42    3.58
   6  -2  -6    5.70    2.43
  -7   2   1   84.49    5.10
   7  -2   1   79.27    5.01
   7  -2   1   88.36    5.73
  -7  -2  -1   88.89    5.89
  -7   2   1   94.78    5.50
  -7  -2  -1   75.87    5.57
  -7   2  -1   82.39    5.68
  -7   2  -1   88.87    4.93
  -7   2  -1   90.62    5.55
  -7  -2   1   87.35    5.60
   7  -2  -1   94.32    5.57
  -7  -2  -3   77.09    7.95
   7  -2   3   74.84    5.77
   7   2  -3   66.23    4.97
  -7  -2  -3   72.62    5.80
  -7   2  -3   67.34    6.72
   7   2   3   64.03    6.63
  -7  -2   3   66.35    5.11
  -7   2  -3   84.15    8.31
   7  -2  -3   60.61    6.33
   7   2  -5   49.23    6.10
  -7  -2  -5   49.27    6.49
   7  -2   5   53.89    6.77
  -7  -2  -5   58.64    7.64
   7  -2  -5   44.64    5.89
  -7   2  -5   45.55    6.94
   8  -2   0   16.72    3.39
  -8  -2   0   20.73    3.75
  -8   2   0   19.14    3.51
   8  -2   2    2.34    1.79
  -8  -2  -2    0.77    1.64
  -8  -2  -2   -0.45    1.81
  -8   2  -2    2.61    2.16
   8  -2  -2    0.52    1.76
  -8  -2   2    0.39    1.54
   8   2   2    2.27    2.00
  -8   2  -2    3.55    2.18
  -8  -2  -4   11.10    3.65
  -8  -2  -4   10.48    3.67
   8  -2   4   11.94    3.34
   8  -2  -4   15.07    3.46
  -8   2  -4   11.74    3.87
   8   2   4    8.72    2.89
  -8   2  -4   12.39    3.53
   9  -2   1   51.28    5.94
  -9  -2  -1   42.50    5.80
  -9  -2   1   55.55    6.29
  -9   2  -1   57.67    6.58
   0  -3   1    0.40    0.49
   0   3  -1    1.32    0.62
   0   3  -1    0.37    0.46
   0  -3  -1    0.29    0.54
   0   3   1   -0.03    0.34
   0  -3  -1    0.21    0.27
   0  -3  -1   -0.17    0.38
   0  -3   1    0.12    0.39
   0   3  -3   -0.16    0.62
   0  -3  -3    0.18    0.60
   0  -3  -3   -0.33    0.59
   0   3  -3   -0.16    0.56
   0  -3   3    0.54    0.70
   0   3   3    0.07    0.42
   0  -3   5    0.19    0.99
   0   3  -5    0.61    0.98
   0   3  -5    0.38    0.93
   0  -3  -5   -0.50    0.90
   0  -3  -5   -0.34    0.75
   0   3   5   -0.45    0.64
   0  -3  -7   -1.00    1.06
   0   3   7    1.29    1.27
   0  -3   7   -1.03    1.07
   0  -3  -7   -0.55    1.32
   0   3  -7    0.52    1.41
  -1   3   0  237.88    4.95
   1  -3   0  242.10    3.87
   1  -3   0  248.05    5.32
  -1  -3   0  239.89    4.74
  -1   3   0  242.80    5.30
  -1  -3   0  241.75    4.80
   1   3   0  242.63    3.59
   1   3  -2   -0.23    0.42
   1  -3   2    0.05    0.52
  -1  -3  -2    0.30    0.68
  -1   3   2    0.07    0.25
  -1  -3  -2    0.02    0.37
  -1  -3  -2   -0.16    0.40
   1   3  -2    3.69    0.74
  -1   3  -2   -0.02    0.55
   1  -3  -2    0.13    0.51
   1   3   2    0.32    0.52
  -1   3  -2   -0.08    0.60
   1  -3  -2    0.58    0.49
  -1  -3   2   -0.06    0.48
  -1  -3   2    0.24    0.37
   1   3  -4  107.30    4.79
  -1  -3  -4  112.85    5.39
   1  -3   4  108.84    5.14
  -1   3   4  114.51    3.86
  -1  -3  -4  122.04    4.40
   1   3  -4  121.48    4.40
  -1   3  -4  106.14    4.71
  -1  -3   4  109.75    4.94
   1  -3  -4  107.93    4.76
   1   3   4  118.37    4.71
  -1   3  -4  116.87    5.57
   1  -3  -4  113.58    4.66
  -1   3   6    0.72    0.88
   1   3  -6   -0.88    0.88
  -1  -3  -6    0.58    1.02
   1  -3   6    0.50    1.10
  -1  -3  -6   -1.11    1.14
   1   3   6    0.76    1.13
  -1   3  -6    0.64    1.15
   1  -3  -6    0.40    1.11
   1  -3  -6    0.14    1.02
  -1  -3   6   -0.53    1.14
  -1   3  -6    4.07    1.90
   1   3  -8   24.76    4.10
  -1  -3  -8   30.41    5.08
  -1  -3  -8   35.95    4.58
   1  -3   8   28.72    4.60
  -1  -3   8   29.42    4.47
   1  -3  -8   34.80    4.86
  -1   3  -8   22.71    3.96
   2  -3   1  131.07    4.04
  -2  -3  -1  125.90    4.19
   2   3  -1  127.80    3.38
  -2   3   1  131.38    4.28
  -2  -3  -1  127.33    4.36
  -2   3   1  126.16    2.60
  -2  -3   1  125.96    2.87
   2  -3  -1  126.98    3.93
  -2   3  -1  133.67    4.16
  -2  -3   1  131.18    4.11
  -2   3  -1  127.18    4.78
   2  -3  -1  123.02    4.31
  -2  -3  -3   82.65    3.96
  -2  -3  -3   93.23    4.81
   2   3  -3   83.09    3.91
   2  -3   3   93.98    4.41
  -2   3   3   83.51    2.61
  -2  -3  -3   84.75    2.78
   2   3   3   83.58    4.02
  -2   3  -3   87.54    3.98
   2  -3  -3   85.80    4.13
   2  -3  -3   84.51    3.38
  -2   3  -3   76.38    4.59
  -2  -3   3   88.96    3.99
  -2  -3   3   87.47    1.91
   2  -3   5   33.34    3.91
  -2   3   5   46.96    2.70
  -2  -3  -5   50.66    5.35
   2   3  -5   45.28    4.58
  -2  -3  -5   48.40    3.01
  -2   3  -5   48.09    5.31
  -2  -3   5   48.16    3.64
   2  -3  -5   41.65    4.15
   2   3   5   43.25    3.51
   2  -3  -5   45.96    3.34
  -2   3  -5   49.06    3.61
  -2  -3  -7   24.37    3.33
   2  -3   7   28.78    4.40
  -2  -3  -7   22.24    4.25
   2   3  -7   30.44    4.32
   2  -3  -7   14.53    2.90
  -2  -3   7   27.26    3.93
  -2   3  -7   21.20    3.36
   2   3   7   27.79    3.96
  -2   3  -7   29.02    4.81
  -3   3   0  101.57    4.33
  -3  -3   0   95.45    3.61
  -3  -3   0   97.33    4.11
   3   3   0   98.58    2.56
  -3   3   0   99.78    3.46
   3  -3   0  106.34    4.44
   3  -3   0   96.04    3.48
  -3   3   0   92.77    3.92
  -3  -3  -2  420.51    9.82
   3  -3   2  430.44    9.78
   3   3  -2  417.39    8.77
  -3   3   2  418.22    9.62
  -3   3   2  419.56    6.88
  -3  -3  -2  424.65    5.71
  -3  -3  -2  421.16   10.35
  -3   3  -2  437.93   11.24
  -3   3  -2  423.03    9.18
   3  -3  -2  418.89    9.70
  -3  -3   2  406.25    9.12
   3  -3  -2  431.47    8.15
  -3   3  -2  424.72    9.87
  -3  -3  -4   56.10    2.63
  -3  -3  -4   54.24    4.34
  -3   3   4   50.20    2.56
  -3  -3  -4   53.45    3.91
   3   3  -4   53.29    3.70
   3  -3   4   55.20    4.08
  -3   3  -4   58.00    3.71
   3  -3  -4   50.64    2.83
  -3  -3   4   50.77    3.57
   3  -3  -4   62.99    4.25
   3   3   4   52.32    3.88
  -3   3  -4   56.03    4.69
   3  -3   6  148.36    7.75
  -3  -3  -6  153.73    8.44
   3   3  -6  150.86    7.53
  -3   3  -6  150.36    8.59
  -3   3  -6  148.32    6.81
   3  -3  -6  150.09    7.42
   3   3   6  149.09    7.37
  -3  -3   6  162.06    7.24
   3   3  -8   26.48    4.43
  -3  -3  -8   21.19    4.65
   3  -3   8   20.77    4.18
  -3   3  -8   23.27    4.07
  -3   3  -8   15.04    3.90
   3   3   8   18.66    3.96
  -3  -3   8   16.32    3.42
  -4   3   1  180.92    6.21
  -4  -3  -1  184.62    6.64
  -4  -3  -1  167.75    6.16
   4   3  -1  179.24    5.05
   4  -3   1  173.05    5.85
  -4   3   1  177.04    5.04
  -4   3   1  175.68    5.64
  -4   3  -1  177.59    6.94
  -4  -3   1  176.54    6.16
  -4   3  -1  175.96    6.00
   4  -3  -1  190.32    5.93
   4   3   1  180.42    3.56
   4  -3  -1  179.89    6.39
  -4  -3   1  180.21    4.73
  -4   3  -1  174.71    5.91
   4  -3   3  133.42    6.20
  -4  -3  -3  143.76    6.90
  -4   3   3  136.79    4.23
   4   3  -3  145.49    5.87
  -4  -3  -3  136.45    6.32
  -4   3  -3  134.03    7.14
  -4  -3   3  128.06    5.56
  -4   3  -3  137.74    5.50
   4   3   3  131.69    6.48
   4  -3  -3  139.86    4.47
   4  -3  -3  128.05    6.12
   4   3  -5   87.79    5.37
  -4  -3  -5   95.46    6.01
   4  -3   5   79.69    5.59
  -4  -3  -5   96.93    6.72
   4   3   5   86.92    5.86
  -4   3  -5   87.57    6.63
  -4   3  -5   88.68    5.03
  -4  -3   5   86.47    5.17
   4  -3  -5   81.59    5.55
  -4  -3  -7   53.54    7.21
   4   3  -7   41.73    5.44
  -4   3  -7   45.36    6.68
   4   3   7   47.32    5.81
  -4  -3   7   46.99    5.12
  -4   3  -7   53.69    5.36
   4  -3  -7   61.67    6.65
  -5  -3   0  294.59    9.15
   5  -3   0  309.38    9.20
  -5   3   0  321.08    9.36
  -5   3   0  328.29    8.85
  -5  -3   0  321.71    8.52
   5  -3   0  294.75    8.69
  -5   3   0  316.54    8.47
   5   3   0  322.56    6.64
   5   3  -2   54.76    3.46
  -5   3   2   61.38    3.29
  -5   3   2   62.66    4.29
  -5  -3  -2   60.62    4.52
  -5  -3  -2   64.50    4.55
   5  -3   2   60.95    4.22
  -5  -3   2   63.42    4.18
   5  -3  -2   63.92    4.36
  -5   3  -2   72.49    4.09
  -5   3  -2   62.57    4.31
   5  -3  -2   63.01    3.34
  -5   3  -2   61.56    4.89
   5   3  -4  195.50    7.89
  -5  -3  -4  199.22    8.76
  -5  -3  -4  199.34    9.40
   5  -3   4  208.03    9.05
  -5   3  -4  206.00    7.40
  -5   3  -4  198.55    9.80
   5  -3  -4  203.88    8.68
  -5  -3   4  190.85    7.71
   5   3   4  213.79    9.07
   5   3  -6   27.97    4.60
   5  -3   6   27.55    4.64
  -5  -3  -6   36.13    5.94
  -5   3  -6   23.78    3.46
   5   3   6   31.42    5.06
  -5   3  -6   27.63    5.07
   5  -3  -6   20.84    4.06
  -5  -3   6   32.97    4.34
   6  -3   1   75.38    4.77
  -6   3   1   79.37    4.40
  -6   3   1   67.11    4.16
  -6   3   1   75.77    4.78
  -6  -3  -1   65.92    4.87
  -6  -3  -1   70.10    4.88
   6  -3  -1   74.21    4.36
  -6   3  -1   65.74    4.88
   6  -3  -1   68.74    4.63
  -6   3  -1   71.92    4.63
  -6  -3   1   75.13    4.94
  -6   3  -1   74.33    4.44
   6  -3   3   69.14    5.33
  -6  -3  -3   51.80    5.53
  -6  -3  -3   55.98    6.20
   6   3  -3   58.05    4.25
  -6  -3   3   67.01    4.75
   6   3   3   64.47    6.53
  -6   3  -3   52.76    3.95
  -6   3  -3   50.16    5.98
  -6   3  -3   63.82    5.10
   6  -3  -3   68.16    5.16
  -6  -3  -5   42.47    6.24
  -6  -3  -5   32.37    4.99
   6   3  -5   37.21    4.74
   6  -3   5   38.53    5.29
  -6   3  -5   42.40    6.52
  -6  -3   5   36.10    4.63
   6  -3  -5   35.78    5.06
   6   3   5   50.24    6.26
  -7   3   0    2.79    1.63
   7  -3   0    0.84    1.39
   7  -3   0    4.56    1.94
  -7   3   0    3.47    1.58
  -7  -3   0    2.81    1.77
  -7   3   0    0.91    1.33
   7  -3   0    4.13    1.80
  -7  -3  -2   75.53    5.97
  -7  -3  -2   67.83    6.77
   7  -3   2   65.89    5.10
  -7   3  -2   64.03    5.24
  -7   3  -2   65.08    4.53
  -7   3  -2   69.64    6.98
   7  -3  -2   75.06    6.79
  -7  -3   2   67.33    5.19
   7   3  -4    0.11    1.60
  -7  -3  -4    3.73    2.35
   7  -3   4    3.14    2.12
  -7  -3  -4    2.68    1.96
  -7  -3   4    5.29    2.10
   7  -3  -4    2.56    2.15
   7   3   4    3.08    2.17
  -7   3  -4    1.17    2.32
   8  -3   1    4.15    2.30
  -8  -3  -1    6.57    2.53
   8  -3   1    2.82    2.36
  -8   3   1    4.81    2.27
   8  -3  -1    3.92    2.14
  -8   3  -1    3.84    1.89
  -8   3  -1    6.59    2.53
  -8  -3   1    3.01    2.07
   8  -3   3    2.71    2.17
  -8  -3  -3    5.45    2.34
  -8  -3  -3    0.70    2.35
  -8   3  -3    4.01    2.67
   8  -3  -3    4.25    2.21
  -8   3  -3    6.78    2.67
   8   3   3    6.14    2.72
  -8  -3   3    3.55    2.32
  -9  -3   0   -0.30    1.83
  -9  -3  -2    8.02    3.24
   9  -3   2   12.15    3.89
   9  -3   2   17.65    3.94
  -9   3  -2   10.51    3.11
  -9  -3   2   14.05    3.52
   9   3   2   15.83    4.01
  -9   3  -2   14.03    3.76
   0   4   0  518.03    7.72
   0  -4   0  505.12    8.42
   0  -4   0  510.82    7.17
   0  -4  -2  996.90   12.15
   0  -4   2  970.85   14.53
   0  -4  -2  997.87   14.79
   0  -4   2  998.58   14.64
   0   4   2 1000.00   12.14
   0   4  -2  962.38   14.30
   0  -4  -2  975.98   13.45
   0   4  -2  991.69   14.52
   0   4  -4  253.71    7.63
   0  -4  -4  259.11    7.00
   0   4  -4  255.76    7.63
   0   4   4  242.99    6.10
   0  -4  -4  266.17    7.94
   0  -4   4  240.58    7.86
   0  -4   6  386.07   11.59
   0   4   6  378.32    9.64
   0   4  -6  394.65   11.52
   0  -4  -6  389.56   11.74
   0  -4  -6  384.57   10.55
   0   4  -6  360.39   10.83
   0  -4  -8   77.61    5.71
   0   4  -8   75.61    7.09
   0  -4   8   86.17    6.54
  -1   4   1  136.97    4.03
   1   4  -1  142.78    3.61
  -1  -4  -1  133.18    2.71
  -1  -4  -1  134.94    3.76
   1  -4   1  138.01    4.64
  -1  -4  -1  132.16    4.28
   1  -4   1  130.29    3.73
  -1   4  -1  138.78    4.12
  -1   4  -1  134.03    4.54
   1  -4  -1  133.80    4.15
  -1  -4   1  136.58    3.95
   1   4   1  136.09    2.59
  -1  -4   1  135.68    3.51
   1  -4   3  102.43    4.56
  -1  -4  -3   88.23    3.67
  -1  -4  -3   85.99    4.36
  -1   4   3   92.18    2.63
   1   4  -3   88.58    3.32
  -1  -4  -3   89.69    3.24
   1   4  -3   91.59    4.00
   1   4   3   88.81    3.60
  -1  -4   3   97.39    4.28
  -1   4  -3   89.70    4.63
  -1   4  -3   84.77    3.93
  -1  -4   3   95.78    3.35
   1  -4  -3   86.33    3.93
   1  -4  -3   93.15    3.94
   1   4  -5   52.80    3.29
  -1  -4  -5   55.22    3.45
   1   4  -5   51.46    3.81
   1  -4   5   58.64    4.40
  -1  -4  -5   55.00    5.39
  -1   4   5   52.21    2.90
   1  -4  -5   51.18    3.78
   1   4   5   57.17    3.56
  -1  -4   5   48.87    3.87
  -1   4  -5   49.38    4.93
   1  -4  -5   52.84    3.76
  -1   4  -5   42.48    4.07
  -1  -4  -7   24.75    4.33
   1  -4   7   30.11    4.65
   1   4  -7   24.30    3.79
  -1  -4  -7   30.11    3.68
  -1   4  -7   28.25    4.08
   1   4   7   23.13    3.48
   1  -4  -7   26.88    3.96
  -1   4  -7   22.02    3.78
  -1  -4   7   28.99    4.27
  -2   4   0  703.12   11.92
  -2  -4   0  669.02   11.28
   2  -4   0  690.64   12.01
  -2   4   0  686.98   11.45
   2  -4   0  689.66    9.51
  -2  -4   0  671.52   10.59
   2   4   0  698.22    8.13
  -2   4   2  166.81    2.47
  -2   4   2  163.40    5.46
  -2  -4  -2  174.08    5.95
  -2  -4  -2  165.88    2.89
  -2  -4  -2  168.57    5.34
   2   4  -2  163.87    4.95
   2  -4   2  159.79    5.32
   2  -4  -2  175.38    5.68
   2  -4  -2  171.83    5.07
  -2   4  -2  169.37    5.36
  -2   4  -2  159.57    6.31
  -2  -4   2  165.90    5.39
  -2  -4   2  169.37    3.35
  -2  -4  -4  368.52   11.04
   2  -4   4  390.47   10.71
  -2   4   4  389.90    6.91
   2   4  -4  389.78   10.05
  -2  -4  -4  392.91    7.64
  -2  -4  -4  391.64    9.75
  -2   4  -4  379.95    9.94
  -2   4  -4  384.24   11.45
   2  -4  -4  393.52   10.24
   2   4   4  386.76    9.76
  -2  -4   4  387.26   10.09
   2  -4  -4  408.96    9.19
  -2  -4  -6   61.33    3.79
  -2  -4  -6   65.60    6.62
   2  -4   6   61.56    4.97
   2   4  -6   58.99    5.60
   2  -4  -6   65.42    4.79
  -2   4  -6   65.12    4.63
  -2  -4   6   55.33    4.40
   2   4   6   70.94    4.76
  -2   4  -6   65.64    6.74
  -2  -4  -8  109.04    7.79
   2   4  -8  107.93    7.36
   2  -4   8  112.37    7.85
  -2   4  -8  101.69    6.87
   2  -4  -8  110.90    7.14
  -2  -4   8  123.77    7.39
  -2   4  -8  106.93    8.70
   3   4  -1   24.42    1.64
   3  -4   1   27.70    3.32
  -3   4   1   25.64    1.49
  -3   4   1   22.20    2.54
  -3  -4  -1   26.94    2.99
   3  -4   1   24.53    2.02
  -3  -4  -1   30.49    3.02
  -3   4  -1   22.63    2.38
  -3  -4   1   26.02    1.73
   3  -4  -1   22.89    2.72
  -3  -4   1   20.68    2.40
   3  -4  -1   25.89    1.56
  -3   4  -1   22.15    2.90
   3  -4  -1   23.67    2.53
  -3   4  -1   25.28    2.63
   3   4  -3   18.63    2.49
  -3  -4  -3   14.68    2.36
  -3  -4  -3   19.92    1.20
  -3   4   3   19.16    1.26
  -3  -4  -3   18.11    2.98
   3  -4   3   16.03    2.49
   3   4   3   19.11    2.85
   3  -4  -3   22.05    2.45
  -3   4  -3   16.67    2.38
  -3  -4   3   18.91    2.51
   3  -4  -3   20.31    2.84
  -3   4  -3   19.00    3.41
   3   4  -5    9.51    2.31
  -3  -4  -5   14.06    2.80
   3  -4   5    8.69    2.43
  -3  -4  -5    9.31    2.71
   3  -4  -5    5.96    1.97
  -3   4  -5    7.28    2.60
  -3   4  -5   12.97    2.50
  -3  -4   5   10.27    2.18
   3   4   5   10.00    2.43
   3   4  -7    6.53    2.42
   3  -4   7    8.20    2.68
  -3  -4  -7    5.58    2.65
   3  -4  -7    7.34    2.51
  -3   4  -7    5.66    2.20
  -3  -4   7    5.35    2.00
  -3   4  -7    4.78    2.63
   3   4   7    4.50    2.04
  -4   4   0    4.22    1.11
  -4  -4   0    6.84    1.67
  -4  -4   0    7.01    1.53
   4   4   0    7.29    0.99
   4  -4   0    3.46    1.07
  -4   4   0    3.65    1.26
  -4   4   0    8.74    1.94
   4  -4   0    4.21    1.43
  -4   4   2   58.53    2.58
  -4  -4  -2   58.95    4.01
   4   4  -2   61.45    3.37
  -4  -4  -2   52.41    3.96
  -4   4   2   61.62    4.11
   4  -4   2   59.91    3.86
   4  -4  -2   58.59    3.94
   4  -4  -2   59.46    3.24
  -4   4  -2   60.30    3.67
  -4  -4   2   57.92    3.72
  -4   4  -2   63.21    4.03
  -4   4  -2   56.55    4.54
   4  -4   4    3.60    1.66
   4   4  -4    3.59    1.54
  -4  -4  -4    1.57    1.58
  -4  -4  -4    5.21    1.85
  -4  -4   4    2.83    1.36
  -4   4  -4    3.40    2.13
  -4   4  -4    3.67    1.50
   4  -4  -4    3.20    1.67
   4   4   4    2.85    1.59
  -4  -4  -6   16.74    3.82
   4   4  -6   25.58    4.30
   4  -4   6   21.02    3.90
  -4   4  -6   22.71    3.43
   4  -4  -6   24.25    4.04
  -4   4  -6   19.40    4.34
  -4  -4   6   19.72    3.34
   4   4   6   25.90    4.31
  -5  -4  -1    2.65    1.47
   5  -4   1    2.81    1.59
  -5   4   1    2.34    1.25
  -5   4   1    0.77    1.00
   5   4  -1    3.20    1.04
   5  -4   1    3.01    1.25
  -5   4   1    2.71    1.09
  -5  -4  -1    2.45    1.36
   5  -4  -1    2.26    1.21
  -5   4  -1    1.78    1.36
  -5   4  -1    2.62    1.28
  -5   4  -1    4.27    1.50
  -5  -4   1    1.81    1.21
   5  -4  -1    2.68    1.38
  -5  -4   1    3.49    1.20
  -5  -4  -3    2.20    1.44
   5  -4   3    1.36    1.29
   5   4  -3    0.76    1.11
  -5  -4  -3    3.65    1.84
  -5   4  -3    3.50    2.07
  -5  -4   3    1.59    1.14
   5  -4  -3    1.45    1.51
  -5   4  -3    1.84    1.24
   5   4   3    1.20    1.43
  -5  -4  -5   -0.24    1.40
   5   4  -5    2.96    1.78
  -5  -4  -5    2.63    2.14
   5  -4   5    1.31    1.70
  -5  -4   5    1.12    1.31
  -5   4  -5    2.10    1.67
   5   4   5    1.55    2.02
   5  -4  -5   -0.83    1.36
  -5   4  -5    1.40    1.95
   5  -4   7    0.41    1.81
   5   4  -7    0.60    1.64
  -5  -4  -7    1.68    2.38
  -5   4  -7    0.83    2.13
  -5  -4   7   -0.18    1.54
   5  -4  -7    4.52    2.72
   5   4   7   -0.12    1.92
  -6   4   0   32.29    3.91
  -6  -4   0   27.77    3.71
  -6   4   0   25.58    3.15
   6  -4   0   36.62    3.87
  -6  -4   0   29.34    3.54
   6  -4   0   23.61    3.31
  -6   4   0   29.48    3.84
   6  -4   0   32.63    4.15
  -6  -4  -2  142.20    7.41
   6   4  -2  161.46    6.23
  -6   4   2  158.19    7.30
  -6  -4  -2  163.31    7.94
   6  -4   2  158.28    7.28
   6  -4  -2  159.79    7.40
  -6   4  -2  144.73    6.49
  -6   4  -2  143.54    6.95
  -6   4  -2  159.03    8.05
  -6  -4   2  149.24    7.20
   6  -4   4   20.85    3.90
  -6  -4  -4   22.62    4.36
   6   4  -4   20.13    3.22
  -6  -4  -4   21.65    4.00
  -6   4  -4   20.22    4.39
  -6   4  -4   22.15    3.40
   6  -4  -4   19.89    3.73
   6   4   4   25.29    4.39
  -6  -4   4   14.90    3.05
   6  -4   6   90.07    7.12
  -6  -4  -6   67.95    7.23
  -6  -4  -6   63.65    7.87
   6   4   6   76.15    8.18
  -6  -4   6   61.25    6.19
   6  -4  -6   65.71    7.20
  -6   4  -6   89.12   10.30
  -7   4   1   14.66    2.98
  -7  -4  -1   19.93    3.63
  -7  -4  -1   21.10    3.58
   7  -4   1   18.82    3.23
   7  -4   1   20.86    3.35
   7  -4   1   21.66    4.01
  -7   4  -1   21.37    3.56
   7  -4  -1   19.85    3.54
  -7  -4   1   22.39    3.83
  -7   4  -1   20.38    3.65
  -7   4  -1   16.02    2.86
  -7  -4  -3   14.74    3.34
  -7  -4  -3   13.70    3.33
   7  -4   3   19.37    3.71
  -7   4  -3   11.77    3.28
   7   4   3   18.50    3.85
  -7   4  -3   16.56    3.62
  -7  -4   3   25.61    4.02
   7  -4  -3   19.58    3.97
  -7   4  -3   17.09    3.07
  -7  -4  -5   12.37    3.83
   7   4  -5    9.98    2.98
   7  -4   5   15.01    3.85
  -7  -4  -5    8.78    3.02
   7   4   5   16.18    4.27
  -7   4  -5   14.28    4.20
  -7  -4   5   10.88    3.04
   7  -4  -5   11.43    3.32
  -8   4   0  226.38    9.18
   8  -4   0  220.01    9.38
  -8  -4   0  236.14   10.54
  -8  -4  -2   56.21    6.75
  -8  -4  -2   77.50    7.78
   8  -4   2   70.99    7.78
   8  -4   2   61.58    6.16
  -8   4  -2   82.24    6.86
   8  -4  -2   89.29    8.03
  -8   4  -2   85.21    6.32
  -8  -4   2   76.58    6.24
   8  -4   4  156.38    9.26
  -8  -4  -4  142.84    9.73
  -8  -4  -4  154.43    9.47
   8  -4  -4  141.18    8.76
   8   4   4  133.37    8.75
  -8  -4   4  159.09    8.77
  -8   4  -4  168.55   10.45
  -9  -4  -1   12.66    3.41
  -9  -4   1   17.69    4.05
   0   5   1    0.30    0.48
   0  -5   1   -0.35    0.43
   0  -5  -1    0.25    0.32
   0  -5  -1    0.31    0.61
   0  -5   1    0.22    0.44
   0   5  -1    0.34    0.53
   0  -5  -3    2.27    0.91
   0   5  -3    0.32    0.76
   0  -5   3    0.60    0.76
   0   5   3    0.28    0.48
   0  -5  -3    0.73    0.87
   0   5  -3    1.01    0.79
   0  -5   3   -1.05    0.62
   0  -5  -5    0.41    0.99
   0   5   5    1.41    0.88
   0   5  -5    0.30    1.00
   0   5  -5    1.91    1.18
   0  -5   5    0.22    1.06
   0  -5  -5    0.17    0.96
   0  -5   7    0.82    1.61
   0   5  -7   -0.88    1.14
   0  -5  -7    1.06    1.53
   0  -5  -7    0.59    1.24
   1  -5   0   61.82    2.05
  -1   5   0   62.68    2.86
   1  -5   0   55.27    2.96
   1   5   0   65.70    2.18
  -1  -5   0   65.80    2.69
  -1  -5   0   65.78    2.88
   1   5  -2   27.02    2.04
  -1   5   2   28.03    2.10
   1  -5   2   27.38    3.07
   1  -5   2   27.25    2.21
  -1  -5  -2   27.75    2.89
  -1  -5  -2   25.59    1.84
  -1  -5  -2   27.15    1.56
   1  -5  -2   24.76    2.50
  -1   5  -2   28.64    3.08
  -1  -5   2   27.60    1.84
  -1   5  -2   30.48    2.28
   1  -5  -2   28.82    2.30
  -1  -5   2   28.58    2.24
  -1  -5  -4   33.32    2.46
  -1  -5  -4   43.69    4.52
   1   5  -4   30.00    2.37
  -1  -5  -4   37.47    2.72
  -1   5   4   27.44    1.76
   1   5  -4   28.45    3.18
   1  -5   4   29.10    3.56
  -1  -5   4   29.13    2.31
   1   5   4   33.92    2.54
   1  -5  -4   36.41    3.66
  -1   5  -4   38.30    4.13
  -1  -5   4   29.38    3.37
   1  -5  -4   30.58    3.26
  -1   5  -4   33.57    3.51
  -1  -5  -6    5.58    1.66
   1  -5   6    9.02    2.68
   1   5  -6    6.75    2.06
  -1  -5  -6    7.41    2.57
  -1  -5   6   10.15    2.46
  -1   5  -6    5.55    2.21
   1   5   6    6.43    1.81
   1  -5  -6    5.00    1.78
   1  -5  -6    8.49    2.46
  -1   5  -6    6.51    2.11
   1   5  -8    4.62    2.38
  -1  -5  -8    6.55    2.82
   1  -5   8    6.99    2.76
  -1  -5   8    8.29    2.61
  -1   5  -8   10.21    2.78
   1  -5  -8   11.85    2.98
  -2   5   1  218.48    6.24
  -2  -5  -1  227.52    6.19
  -2  -5  -1  242.03    6.67
   2   5  -1  228.53    5.00
   2  -5   1  228.20    7.23
   2  -5   1  237.62    5.83
  -2   5  -1  228.59    6.38
  -2  -5   1  235.46    6.35
   2  -5  -1  240.34    6.55
  -2  -5   1  235.44    5.29
   2  -5  -1  233.91    3.16
  -2   5  -1  234.92    7.20
   2  -5   3  173.74    6.51
  -2  -5  -3  170.11    5.82
  -2   5   3  173.79    2.77
   2   5  -3  164.23    5.76
  -2  -5  -3  170.32    6.86
  -2  -5  -3  174.03    3.95
   2   5   3  166.11    6.02
   2  -5  -3  168.60    5.81
  -2   5  -3  168.24    6.15
  -2   5  -3  181.64    7.38
  -2  -5   3  169.18    6.18
   2  -5  -3  169.08    6.36
  -2  -5   3  171.56    3.97
   2  -5   5   92.75    5.72
  -2  -5  -5  110.11    4.32
   2   5  -5  104.48    5.60
  -2  -5  -5   96.55    6.14
  -2   5  -5  101.06    6.41
   2   5   5  108.79    5.45
   2  -5  -5  114.55    5.43
  -2  -5   5  104.14    5.72
  -2   5  -5   95.65    5.42
   2  -5  -5  103.69    5.74
   2   5  -7   53.62    5.84
  -2  -5  -7   67.48    6.99
   2  -5   7   48.82    5.90
  -2   5  -7   70.83    6.48
   2   5   7   55.77    5.58
  -2   5  -7   52.37    6.44
   2  -5  -7   59.58    6.04
  -2  -5   7   49.67    5.66
   3  -5   0   13.61    2.25
  -3  -5   0   14.67    2.15
  -3   5   0   14.40    2.27
   3   5   0   14.33    0.87
   3  -5   0   17.55    1.85
  -3   5   0   16.14    2.33
  -3  -5   0   16.99    2.14
  -3   5   2   52.22    1.40
  -3  -5  -2   52.05    3.43
   3  -5   2   51.37    4.00
  -3   5   2   47.39    3.37
   3   5  -2   55.93    3.02
   3  -5   2   52.56    3.36
  -3  -5  -2   50.02    3.75
   3  -5  -2   55.23    3.75
  -3   5  -2   52.11    4.08
   3  -5  -2   51.70    1.44
  -3  -5   2   54.04    2.02
   3  -5  -2   48.12    3.03
  -3  -5   2   49.03    3.29
  -3   5  -2   48.80    3.25
   3  -5   4    5.34    1.86
  -3  -5  -4    6.65    2.11
   3   5  -4    4.70    1.71
  -3  -5  -4    7.86    1.90
   3  -5  -4    5.41    1.56
   3  -5  -4    7.45    2.07
  -3  -5   4    6.63    1.96
  -3   5  -4    6.59    2.31
  -3   5  -4   14.34    2.58
   3   5   4    8.31    2.07
   3  -5   6   10.47    2.76
   3   5  -6   12.82    2.85
  -3  -5  -6   18.87    3.85
  -3   5  -6   17.61    3.09
  -3  -5   6   18.12    3.25
  -3   5  -6   18.07    4.14
   3  -5  -6   11.12    2.91
   3   5   6   13.04    2.94
  -3  -5  -8    2.57    2.57
   3   5  -8    2.45    2.11
   3  -5   8    1.89    2.30
   3  -5  -8    0.52    2.00
  -3  -5   8    3.27    1.85
  -3   5  -8    1.76    2.34
  -3   5  -8    3.25    2.11
  -4   5   1  335.35    6.78
  -4  -5  -1  335.59    9.38
  -4   5   1  324.10    9.23
   4  -5   1  339.21    8.50
   4   5  -1  339.17    6.90
  -4  -5  -1  343.43    9.63
   4  -5   1  342.74   10.39
   4  -5  -1  354.03    9.32
  -4   5  -1  338.79    8.57
  -4   5  -1  322.05    9.01
  -4   5  -1  321.00   10.20
   4  -5  -1  335.46    6.77
  -4  -5   1  334.52    9.43
  -4  -5   1  341.30    7.41
   4  -5  -1  348.18    9.73
  -4  -5  -3  279.53    9.97
  -4  -5  -3  272.32    9.17
   4  -5   3  257.72    8.86
   4   5  -3  263.65    7.90
  -4  -5   3  243.55    8.41
   4  -5  -3  262.72    9.14
  -4   5  -3  257.81   10.28
   4  -5  -3  267.73    7.50
  -4   5  -3  250.47    8.22
   4  -5   5  180.20    8.58
  -4  -5  -5  175.06    8.10
  -4  -5  -5  161.98    8.68
   4   5  -5  162.98    7.63
  -4   5  -5  181.96    9.71
  -4  -5   5  172.72    7.86
   4   5   5  185.40    8.42
   4  -5  -5  192.84    8.85
  -4   5  -5  191.44    7.85
   4   5  -7  103.79    7.15
  -4  -5  -7   95.98    7.83
  -4   5  -7   87.14    6.15
  -4   5  -7  101.12    8.24
   4  -5  -7  103.67    7.28
   4   5   7   93.29    6.89
  -4  -5   7  108.49    6.87
  -5   5   0   31.36    3.19
  -5  -5   0   37.56    3.77
  -5   5   0   26.71    3.63
   5  -5   0   28.69    3.69
  -5   5   0   32.09    3.80
   5  -5   0   27.84    2.92
  -5  -5   0   25.25    3.46
  -5  -5  -2   12.80    2.76
  -5  -5  -2    9.39    2.27
  -5   5   2    7.33    2.16
   5  -5   2    7.80    1.96
   5  -5   2    5.54    2.01
   5   5  -2   12.41    1.99
  -5  -5   2   11.78    2.51
   5  -5  -2   10.89    2.10
  -5   5  -2   10.27    2.23
   5  -5  -2    7.49    2.20
  -5   5  -2    9.42    2.70
  -5  -5  -4   14.55    3.06
  -5  -5  -4   16.38    3.78
   5   5  -4   14.86    2.76
   5  -5   4   18.07    3.36
  -5   5  -4   19.25    3.15
   5   5   4   21.15    3.80
  -5   5  -4   14.77    3.68
   5  -5  -4   15.38    3.28
  -5  -5   4   13.63    2.77
   5  -5   6    2.19    2.20
  -5  -5  -6    2.17    2.15
   5   5  -6    2.19    1.75
  -5  -5  -6    4.56    2.15
   5  -5  -6    5.10    2.36
   5   5   6    4.69    2.42
  -5   5  -6    3.58    2.86
  -5   5  -6    4.33    2.14
  -5  -5   6    4.44    1.91
  -6  -5  -1  124.81    6.78
   6  -5   1  124.71    7.04
  -6  -5  -1  132.27    6.61
  -6   5   1  128.26    6.42
   6  -5   1  138.91    6.33
  -6   5  -1  123.69    6.18
  -6  -5   1  126.92    6.76
  -6   5  -1  127.64    7.08
   6  -5  -1  129.67    6.75
  -6   5  -1  129.60    6.12
   6  -5  -1  124.03    6.14
  -6  -5  -3  100.33    6.58
   6   5  -3  112.87    5.55
   6  -5   3  110.99    6.67
  -6  -5  -3  111.68    7.10
  -6  -5   3  105.73    6.36
   6  -5  -3   95.26    6.37
  -6   5  -3  105.40    7.32
  -6   5  -3  110.80    5.97
  -6  -5  -5   70.57    7.78
   6   5  -5   75.03    5.62
  -6  -5  -5   69.35    7.10
   6  -5  -5   97.43    8.59
  -6   5  -5   71.65    5.24
   6   5   5   83.19    6.79
  -6   5  -5   71.86    8.28
  -6  -5   5   85.96    6.03
  -7   5   0   10.08    2.61
   7  -5   0    8.43    2.48
  -7   5   0   12.28    2.68
   7  -5   0   10.76    2.72
  -7  -5   0   15.58    3.33
   7  -5   2    7.91    2.47
  -7  -5  -2    8.05    2.42
  -7   5   2    4.87    2.11
   7  -5   2    8.29    2.92
  -7  -5  -2    5.14    2.27
   7  -5  -2    4.64    2.26
  -7   5  -2    5.57    2.39
  -7  -5   2    5.35    2.25
  -7   5  -2    5.42    2.01
  -7   5  -2    5.94    2.18
   7  -5   4   11.73    3.25
  -7  -5  -4    8.06    2.79
  -7  -5  -4    8.30    3.19
   7   5   4    8.04    3.01
  -7  -5   4    8.44    2.64
  -7   5  -4   11.71    3.77
   7  -5  -4    7.43    2.87
   8  -5   1    8.90    2.77
  -8   5   1    6.68    2.54
  -8  -5  -1    3.02    2.21
   8  -5   1    5.91    2.66
  -8  -5   1    1.49    1.90
   8  -5  -1    7.22    2.47
  -8   5  -1    4.86    2.19
  -8   5  -1    5.98    2.47
  -8  -5  -3    8.09    3.10
   8  -5   3    5.97    3.13
   8  -5   3    5.40    2.60
  -8  -5  -3    4.64    2.75
   8  -5  -3    5.36    2.58
   8   5   3    8.11    2.96
  -8  -5   3    2.97    2.13
  -8   5  -3    2.61    2.48
  -9  -5   0    1.68    2.00
   0   6   0  252.88    5.77
   0  -6   0  247.49    6.50
   0  -6   0  254.28    5.28
   0  -6  -2    5.62    1.21
   0   6  -2    7.33    1.44
   0  -6  -2    7.57    1.68
   0  -6   2    9.05    1.67
   0   6   2    5.37    1.06
   0   6  -2    9.03    1.71
   0  -6  -2    8.20    1.09
   0  -6   2    6.87    1.48
   0   6  -4  129.87    5.67
   0   6   4  137.89    4.25
   0   6  -4  136.98    5.84
   0  -6  -4  130.29    5.13
   0  -6   4  121.58    5.83
   0  -6   4  147.91    6.10
   0  -6  -4  139.40    6.21
   0   6  -6    1.40    1.42
   0  -6  -6    3.21    1.45
   0  -6   6    3.98    1.97
   0  -6  -6    6.36    2.29
   0   6  -8   35.68    5.01
   0  -6  -8   31.45    4.83
   0  -6   8   35.09    5.55
  -1  -6  -1  199.60    5.11
   1   6  -1  197.46    4.99
   1  -6   1  198.57    5.12
  -1  -6  -1  198.18    6.00
  -1   6   1  201.99    5.61
   1  -6   1  205.49    6.42
  -1  -6   1  194.87    5.56
   1  -6  -1  204.23    6.16
   1  -6  -1  200.70    3.20
   1   6   1  204.69    4.17
  -1  -6   1  200.79    5.39
  -1   6  -1  198.99    5.83
  -1   6   3  143.56    2.80
  -1  -6  -3  140.04    5.98
   1  -6   3  147.83    5.96
   1   6  -3  149.85    5.50
   1  -6   3  146.35    6.38
  -1  -6  -3  149.02    4.73
  -1  -6  -3  142.90    4.31
   1  -6  -3  149.62    5.60
   1  -6  -3  142.03    5.58
   1   6   3  146.23    4.85
  -1   6  -3  147.29    6.33
  -1   6  -3  159.79    5.95
  -1  -6   3  137.51    4.64
  -1  -6   3  133.93    5.57
   1  -6   5   86.80    5.56
  -1  -6  -5   81.29    5.56
   1   6  -5   85.63    5.11
   1  -6   5   92.26    5.74
  -1  -6  -5   89.62    4.35
   1  -6  -5   81.04    4.78
  -1  -6   5   82.56    5.18
  -1   6  -5   84.88    5.42
  -1   6  -5   87.42    5.23
   1  -6  -5   79.64    4.98
   1   6   5   89.87    4.41
  -1  -6  -7   42.05    5.66
   1  -6   7   59.08    6.34
   1   6  -7   37.65    4.75
  -1  -6   7   64.43    6.64
   1  -6  -7   42.05    4.84
  -1   6  -7   45.19    5.33
   1  -6  -7   53.47    6.16
   2  -6   0    0.09    0.73
   2   6   0    0.21    0.35
  -2  -6   0    0.03    0.59
   2  -6   0    0.71    0.46
  -2   6   0    0.39    0.69
  -2  -6   0   -0.25    0.59
   2  -6   2  128.91    5.03
   2   6  -2  128.24    4.50
  -2   6   2  128.87    5.10
  -2  -6  -2  127.06    4.79
   2  -6   2  145.32    6.48
  -2  -6  -2  125.70    5.43
  -2  -6  -2  130.63    2.64
  -2  -6   2  128.72    3.89
   2  -6  -2  128.40    5.10
  -2   6  -2  122.06    5.07
  -2  -6   2  119.98    5.03
   2  -6  -2  130.16    5.30
  -2   6  -2  129.10    6.01
  -2  -6  -4    0.49    1.16
   2  -6   4    0.64    1.10
   2   6  -4   -0.20    0.90
  -2  -6  -4   -0.05    0.56
  -2  -6  -4   -0.14    0.77
  -2   6  -4    0.73    1.05
   2   6   4   -0.52    0.76
  -2  -6   4    0.06    0.86
   2  -6  -4   -0.02    0.85
  -2   6  -4   -0.63    1.16
   2  -6  -4   -0.03    0.98
   2   6  -6   54.86    5.79
   2  -6   6   50.16    5.84
  -2  -6  -6   54.67    6.28
  -2  -6   6   43.74    4.98
   2   6   6   41.12    4.37
   2  -6  -6   49.87    5.14
  -2   6  -6   53.21    6.14
  -2   6  -6   40.76    4.77
   2  -6  -6   44.79    5.02
  -2  -6  -8   -0.12    2.01
   2   6  -8    0.96    2.03
   2  -6   8    0.45    2.13
  -2   6  -8   -0.57    1.38
  -2  -6   8   -0.69    1.61
   2  -6  -8    1.96    1.71
   3   6  -1   29.28    1.82
  -3   6   1   32.30    3.43
   3  -6   1   26.22    2.17
  -3  -6  -1   27.93    3.08
  -3  -6  -1   33.64    3.46
   3  -6   1   30.34    3.74
   3  -6  -1   31.26    3.40
  -3   6  -1   20.77    2.57
  -3  -6   1   31.09    2.13
   3  -6  -1   25.86    1.33
  -3  -6   1   31.95    3.27
  -3   6  -1   27.53    3.55
   3  -6   3   21.52    3.04
   3  -6   3   18.72    3.45
  -3  -6  -3   15.92    3.00
   3   6  -3   27.32    3.08
  -3   6   3   25.80    3.38
  -3  -6  -3   16.66    2.66
   3  -6  -3   25.66    3.41
  -3   6  -3   16.26    2.63
   3  -6  -3   22.40    2.97
  -3   6  -3   23.77    3.86
  -3  -6   3   23.15    3.12
  -3  -6  -5    9.67    2.77
   3  -6   5   15.90    3.15
  -3  -6  -5   11.82    2.54
   3   6  -5   12.76    2.67
  -3   6  -5   10.36    2.85
  -3   6  -5   13.70    2.85
   3  -6  -5   18.01    3.27
  -3  -6   5   15.52    3.10
   3   6   5   10.32    2.49
   3  -6  -5   12.86    2.57
  -3  -6  -7    6.22    2.78
   3  -6   7   10.66    3.08
   3   6  -7    8.37    2.82
  -3   6  -7    6.92    2.94
  -3  -6   7    9.79    2.75
   3   6   7    8.75    2.60
  -3   6  -7    7.53    2.53
   3  -6  -7    6.73    2.37
  -4   6   0   26.16    3.50
  -4  -6   0   23.40    3.15
  -4   6   0   29.05    3.52
   4  -6   0   27.79    3.66
   4  -6   0   25.54    2.09
  -4  -6   0   26.03    3.02
  -4   6   2   19.62    3.04
  -4  -6  -2   20.28    3.04
  -4  -6  -2   13.67    2.62
   4  -6   2   18.90    3.43
   4  -6   2   21.12    2.91
   4   6  -2   19.68    2.34
  -4   6  -2   18.19    2.78
  -4   6  -2   14.49    3.04
  -4  -6   2   16.74    2.65
   4  -6  -2   16.91    2.91
   4  -6  -2   18.11    2.70
  -4  -6  -4   13.80    2.79
  -4  -6  -4   10.20    2.87
   4   6  -4   12.38    2.45
   4  -6   4    8.54    2.43
  -4  -6   4   10.04    2.43
   4  -6  -4   16.96    2.77
  -4   6  -4   17.02    3.65
   4  -6  -4    6.76    2.38
  -4   6  -4   12.40    2.68
   4   6   4   21.84    3.64
  -4  -6  -6    6.57    2.67
   4   6  -6    9.38    2.64
   4  -6   6    7.50    2.79
  -4  -6  -6    3.50    1.96
  -4  -6   6    4.96    2.14
  -4   6  -6    5.28    2.06
   4   6   6    4.14    2.18
  -4   6  -6    6.94    2.96
   4  -6  -6   11.10    3.21
  -5  -6  -1   10.06    2.38
  -5  -6  -1   14.26    2.63
   5  -6   1   13.98    2.43
  -5   6   1   10.12    2.37
   5  -6   1    7.05    2.31
  -5  -6   1   12.01    2.50
  -5   6  -1    8.56    2.16
  -5   6  -1   11.11    2.81
   5  -6  -1   11.06    2.49
   5  -6  -1   15.09    2.73
   5  -6   3    9.90    2.42
  -5  -6  -3    5.94    2.19
   5   6  -3    9.52    2.18
  -5   6   3   13.94    2.97
  -5  -6  -3    9.03    2.46
   5  -6   3    8.42    2.62
  -5   6  -3    9.64    2.28
  -5   6  -3    8.56    2.69
  -5  -6   3    7.76    2.35
   5  -6  -3   10.06    2.08
   5  -6  -3    9.07    2.53
  -5  -6  -5    5.90    2.29
   5  -6   5    4.95    2.33
   5   6  -5    8.36    2.37
  -5  -6  -5    4.71    2.33
  -5   6  -5    6.51    2.95
  -5   6  -5    6.73    2.28
   5   6   5    8.79    2.78
  -5  -6   5    6.69    2.32
   5  -6  -5    2.14    1.96
  -6   6   0   54.30    4.52
   6  -6   0   44.50    4.81
  -6  -6   0   44.77    5.05
  -6   6   0   53.87    5.15
   6  -6   0   58.06    4.71
  -6  -6  -2    1.12    1.41
  -6   6   2   -0.48    1.30
   6  -6   2    0.05    1.33
  -6  -6  -2    1.40    1.45
   6  -6   2    0.45    1.53
   6  -6  -2   -0.20    1.10
  -6  -6   2    2.45    1.50
  -6   6  -2    3.82    2.15
  -6   6  -2   -1.10    1.08
   6  -6  -2    0.87    1.35
   6  -6   4   39.31    5.20
   6   6  -4   34.04    4.29
   6  -6   4   39.50    6.14
  -6  -6  -4   38.66    5.70
  -6  -6  -4   34.66    4.95
  -6  -6   4   37.18    5.04
   6  -6  -4   32.49    4.73
  -6   6  -4   41.38    6.40
  -6   6  -4   35.69    4.46
   6   6   4   39.38    5.52
  -6  -6  -6   -1.14    1.81
   6   6  -6    1.68    1.90
  -6  -6  -6    1.77    1.93
   6  -6   6   -0.72    1.92
  -6   6  -6    1.85    2.72
  -6   6  -6    1.12    1.78
   6   6   6    1.95    2.28
  -6  -6   6    0.23    1.54
   6  -6  -6   -0.94    2.05
   7  -6   1   46.31    5.81
  -7  -6  -1   52.68    6.11
  -7   6   1   58.56    5.82
  -7   6  -1   59.26    6.26
   7  -6  -1   52.23    5.47
   7  -6  -1   52.26    5.87
  -7  -6   1   41.25    5.19
  -7   6  -1   49.24    5.27
  -7  -6  -3   44.93    6.08
   7  -6   3   45.60    5.65
   7  -6   3   54.67    7.06
  -7  -6  -3   51.80    6.26
   7  -6  -3   53.26    6.35
  -7   6  -3   53.91    5.61
  -7  -6   3   46.12    5.76
  -7   6  -3   39.89    5.95
   7  -6   5   30.61    5.20
  -7  -6  -5   42.45    6.56
   7  -6   5   27.88    5.54
  -7  -6  -5   35.13    6.07
  -7   6  -5   43.08    7.09
  -7  -6   5   32.27    5.12
   7  -6  -5   30.10    5.27
   7   6   5   46.47    6.28
   8  -6   0    4.46    2.36
   8  -6   0    2.74    2.12
  -8   6   0    4.70    2.19
  -8  -6   0    5.78    2.40
  -8  -6  -2   48.54    6.48
  -8   6   2   34.33    5.15
   8  -6   2   42.76    6.35
  -8  -6   2   36.65    5.40
   8  -6  -2   52.75    6.30
  -8   6  -2   44.11    5.29
  -8   6  -2   43.31    5.99
   0   7   1    0.20    0.55
   0  -7  -1    0.80    0.82
   0  -7  -1   -0.34    0.32
   0  -7   1   -0.74    0.51
   0  -7   1    0.40    0.57
   0   7  -1   -0.04    0.51
   0   7  -3    0.67    0.95
   0   7   3    0.28    0.51
   0  -7  -3   -0.17    0.65
   0  -7  -3   -0.72    0.87
   0  -7   3    0.72    0.84
   0  -7  -3   -0.26    0.41
   0  -7   3   -0.20    0.67
   0   7  -3    0.15    0.75
   0  -7   5    0.66    1.20
   0   7  -5   -1.00    1.01
   0  -7  -5   -0.01    1.01
   0  -7   5   -1.09    1.11
   0  -7  -5   -0.13    0.99
   0   7  -5    0.01    1.21
   0  -7   7   -0.35    1.58
   0  -7  -7   -1.31    1.08
   0  -7  -7    2.25    2.05
   0   7  -7    0.37    1.60
   1   7   0    3.98    0.95
  -1  -7   0    2.16    0.94
   1  -7   0    4.38    0.88
   1  -7   0    1.13    0.97
  -1  -7   0    3.33    0.95
  -1   7   0    4.24    1.26
  -1   7   2  164.15    5.43
  -1  -7  -2  161.93    6.24
   1   7  -2  159.58    5.29
   1  -7   2  154.00    6.22
  -1  -7  -2  170.46    4.92
   1  -7   2  156.93    5.48
  -1  -7  -2  164.09    4.32
   1   7   2  161.38    4.11
  -1   7  -2  150.51    6.02
   1  -7  -2  162.65    5.69
   1  -7  -2  157.38    5.97
  -1  -7   2  155.69    5.60
  -1   7  -2  165.47    5.92
  -1  -7   2  162.41    5.27
   1  -7   4    1.73    1.53
  -1  -7  -4    2.50    1.08
   1   7  -4    2.53    1.27
  -1  -7  -4    2.20    1.01
  -1  -7  -4    2.46    1.65
   1  -7   4    2.38    1.36
   1  -7  -4    3.46    1.50
   1   7   4    2.81    1.09
  -1   7  -4    2.45    1.33
  -1   7  -4    2.27    1.46
   1  -7  -4    3.89    1.59
  -1  -7   4    2.75    1.30
  -1  -7   4    2.20    1.29
   1  -7   6   68.89    5.54
  -1  -7  -6   62.31    6.73
   1   7  -6   51.79    5.44
   1  -7   6   56.48    5.98
   1  -7  -6   61.42    4.60
  -1   7  -6   61.42    6.19
   1  -7  -6   53.75    5.55
  -1  -7   6   60.52    6.09
  -1   7  -6   53.88    5.58
   1  -7   8    3.06    2.27
   1   7  -8   -0.24    1.57
  -1  -7  -8    0.29    2.14
  -1   7  -8    1.28    1.81
  -1  -7   8    1.79    2.19
   1  -7  -8    1.94    1.88
  -2  -7  -1   18.90    2.27
   2  -7   1   15.04    2.60
  -2  -7  -1   16.29    2.40
  -2   7   1   19.17    2.54
   2   7  -1   19.88    1.98
   2  -7   1   17.64    2.09
  -2   7  -1   16.72    2.36
   2   7   1   20.41    1.06
  -2  -7   1   22.07    2.59
  -2  -7   1   18.00    2.15
  -2   7  -1   14.45    2.46
   2  -7  -1   19.39    0.74
   2  -7  -1   14.43    2.38
  -2  -7  -3   11.26    1.95
   2  -7   3   18.48    2.85
   2   7  -3   12.73    2.20
   2  -7   3   14.96    3.05
  -2  -7  -3   12.88    2.53
  -2   7   3   12.72    2.28
   2  -7  -3   14.09    2.48
  -2  -7   3   12.43    2.24
  -2  -7   3   14.12    1.86
  -2   7  -3   12.08    2.74
  -2   7  -3    7.66    1.86
   2  -7  -3   17.16    2.75
   2  -7   5   13.32    3.18
  -2  -7  -5    3.53    1.97
   2  -7   5    8.01    2.61
  -2  -7  -5    5.68    1.73
   2   7  -5    8.66    2.40
  -2   7  -5    6.90    2.47
   2   7   5   15.23    2.73
  -2   7  -5   10.16    2.50
   2  -7  -5    9.42    2.54
  -2  -7   5    7.32    2.21
   2  -7  -5    8.90    2.33
  -2  -7  -7    4.75    2.62
   2  -7   7    6.08    2.98
   2   7  -7    6.32    2.34
   2  -7   7    4.73    2.50
  -2   7  -7    7.49    2.58
   2  -7  -7    6.48    2.45
  -2  -7   7    3.40    2.13
  -2   7  -7    5.74    2.76
   3   7   0  488.44    7.00
  -3  -7   0  488.93   11.27
   3  -7   0  486.86    8.57
  -3   7   0  496.31   11.60
   3  -7   0  476.95   12.13
  -3  -7   0  485.35   10.50
  -3   7   2  134.53    5.88
   3  -7   2  120.22    6.49
  -3  -7  -2  124.62    5.51
   3   7  -2  125.95    4.65
   3  -7   2  121.89    5.32
  -3  -7  -2  125.91    6.12
   3  -7  -2  119.97    5.76
  -3  -7   2  135.40    5.86
   3  -7  -2  126.21    5.58
  -3  -7   2  125.30    4.08
  -3   7  -2  123.03    6.61
  -3   7  -2  129.91    5.83
  -3  -7  -4  297.57    9.28
   3  -7   4  300.42   11.54
   3  -7   4  308.33   10.37
  -3  -7  -4  276.97   10.92
   3   7  -4  301.75    9.41
   3  -7  -4  305.71    9.25
   3   7   4  319.44    9.92
  -3   7  -4  302.29    9.91
   3  -7  -4  284.39   10.00
  -3  -7   4  295.40   10.11
  -3   7  -4  310.82   11.86
   3  -7   6   47.06    6.16
   3   7  -6   60.05    6.04
   3  -7   6   57.96    6.42
  -3  -7  -6   55.85    6.37
  -3   7  -6   52.32    6.18
   3  -7  -6   64.06    6.54
  -3   7  -6   65.67    6.40
   3   7   6   49.59    5.14
  -3  -7   6   60.30    6.21
   4  -7   1   34.01    3.27
  -4  -7  -1   32.69    3.84
  -4  -7  -1   40.79    4.33
   4   7  -1   29.19    1.95
   4  -7   1   26.17    3.81
  -4   7   1   19.68    2.93
  -4  -7   1   32.77    2.53
  -4   7  -1   31.47    4.02
   4  -7  -1   33.80    4.02
  -4  -7   1   30.61    3.67
  -4   7  -1   28.68    3.52
   4  -7  -1   30.62    3.71
   4  -7   3   25.38    4.25
   4   7  -3   27.84    3.18
  -4   7   3   22.68    3.46
   4  -7   3   20.08    3.23
  -4  -7  -3   20.28    3.15
  -4  -7  -3   27.95    4.29
  -4  -7   3   20.32    3.24
   4  -7  -3   31.70    3.70
  -4   7  -3   28.53    3.77
   4  -7  -3   26.11    3.86
  -4   7  -3   23.15    4.15
   4  -7   5   14.96    3.78
  -4  -7  -5   13.57    3.46
   4  -7   5   16.30    3.61
  -4  -7  -5   20.47    3.73
   4   7  -5   16.62    3.24
   4   7   5   18.21    3.38
   4  -7  -5   15.49    3.40
  -4  -7   5   14.08    3.04
  -4   7  -5   14.74    3.04
  -4   7  -5   19.40    4.33
  -4  -7  -7    7.63    3.35
   4   7  -7    8.39    2.85
   4  -7   7    8.13    3.35
   4  -7   7   11.02    3.54
  -4   7  -7   10.77    3.06
   4  -7  -7   11.76    3.60
   4   7   7    9.95    3.22
  -4   7  -7    8.75    3.34
  -4  -7   7    6.32    2.62
  -5   7   0  123.35    6.58
  -5  -7   0  115.83    6.27
  -5   7   0  116.29    6.08
   5  -7   0  111.59    6.36
  -5  -7   0  112.06    5.37
  -5   7   2  323.46   10.64
  -5  -7  -2  327.48   10.94
   5  -7   2  314.02    9.61
  -5  -7  -2  314.32   10.85
   5  -7   2  328.19   11.99
  -5  -7   2  334.09   11.04
  -5   7  -2  314.92   10.27
  -5   7  -2  328.47   12.14
   5  -7  -2  312.03    9.78
   5  -7  -2  315.28   10.89
   5   7  -4   77.48    5.10
   5  -7   4   73.13    5.65
   5  -7   4   94.94    7.22
  -5  -7  -4   77.11    5.69
  -5  -7  -4   74.89    6.18
   5   7   4   79.09    5.98
  -5   7  -4   75.62    5.37
  -5   7  -4   80.68    8.41
   5  -7  -4   86.52    7.64
  -5  -7   4   80.16    5.76
   5  -7   6  145.95    9.86
  -5  -7  -6  150.86    9.85
  -5  -7  -6  141.05    8.18
  -5  -7   6  138.99    8.20
  -5   7  -6  163.14   10.42
   5   7   6  145.59    8.71
   5  -7  -6  162.24    9.30
  -5   7  -6  160.46    8.46
  -6  -7  -1   18.19    3.53
  -6  -7  -1   16.63    3.14
   6  -7   1    7.89    2.53
  -6   7   1   12.74    2.84
   6  -7   1   17.19    2.89
   6  -7  -1   15.28    3.16
  -6   7  -1   15.00    2.97
  -6   7  -1   15.18    3.29
   6  -7  -1   14.77    2.95
  -6  -7   1   12.57    2.84
   6  -7   3   16.48    3.22
  -6   7   3    9.06    2.94
  -6  -7  -3   13.59    3.22
  -6  -7  -3    9.22    2.77
   6  -7   3   15.27    3.88
  -6  -7   3   12.12    3.13
  -6   7  -3    9.56    2.51
   6  -7  -3    6.77    2.59
  -6   7  -3   10.28    3.32
  -6  -7  -5    5.92    2.76
   6   7  -5    6.10    3.43
  -6  -7  -5    9.93    3.19
   6  -7   5    7.02    2.90
   6  -7   5    8.29    3.36
  -6  -7   5    7.00    2.79
   6   7   5    7.60    2.65
  -6   7  -5    7.30    3.62
   6  -7  -5   12.51    3.39
  -6   7  -5   11.54    2.93
  -7   7   0   75.64    5.86
   7  -7   0   84.20    6.18
  -7   7   0   86.87    6.05
   7  -7   0   84.78    6.23
  -7  -7   0   86.05    6.37
   7  -7   2    9.58    3.04
  -7  -7  -2   10.12    2.94
   7  -7   2   11.59    2.95
  -7  -7  -2    7.97    3.02
  -7   7   2   10.78    2.99
   7  -7  -2   10.56    3.04
  -7   7  -2    9.08    3.22
  -7  -7   2   13.83    3.37
  -7   7  -2    9.92    2.77
   7  -7   4   64.04    6.90
  -7  -7  -4   50.83    6.57
   7  -7   4   57.57    7.72
  -7  -7  -4   66.29    7.21
  -7   7  -4   60.68    7.88
   7  -7  -4   59.25    6.69
  -7   7  -4   60.80    6.23
   7   7   4   69.15    7.53
  -7  -7   4   57.64    6.59
   8  -7   1    2.22    2.22
  -8   7   1   -0.37    1.66
  -8  -7  -1    3.06    2.20
   8  -7   1    1.38    2.01
  -8  -7   1    1.52    1.84
  -8   7  -1    0.24    1.83
  -8   7  -1    1.58    1.85
   8  -7  -1    2.45    2.35
  -8  -7  -3    2.55    2.14
  -8  -7  -3    0.26    2.13
   8  -7   3   -0.47    2.05
   8   7   3    0.18    1.93
  -8   7  -3   -0.01    2.40
  -8   7  -3    1.51    1.83
  -8  -7   3    0.20    1.90
   8  -7  -3    0.00    2.04
   0  -8   0  506.62   11.19
   0   8   0  517.01    9.91
   0  -8   0  520.31    9.22
   0   8  -2  126.58    5.16
   0  -8   2  127.79    5.37
   0  -8  -2  134.04    4.82
   0   8   2  124.49    4.37
   0  -8   2  138.40    5.33
   0  -8  -2  122.82    5.73
   0  -8  -2  131.12    3.68
   0   8  -4  334.87    9.77
   0  -8   4  325.40   10.39
   0  -8  -4  330.22   10.57
   0   8  -4  318.69    9.85
   0  -8   4  316.95    9.61
   0  -8  -4  328.08    8.80
   0  -8  -6   50.89    6.01
   0   8  -6   51.21    5.51
   0  -8   6   68.96    6.92
   0  -8  -6   53.90    4.99
   1  -8   1  263.82    8.27
  -1  -8  -1  262.96    8.05
  -1   8   1  253.34    7.08
   1  -8   1  258.22    6.48
  -1  -8  -1  254.21    6.36
   1   8  -1  257.02    6.50
  -1  -8   1  253.99    7.21
  -1   8  -1  253.63    7.39
   1   8   1  264.84    5.74
  -1  -8   1  260.94    7.10
   1  -8  -1  262.64    4.63
   1  -8  -1  273.52    8.16
  -1  -8  -3  212.01    6.04
   1   8  -3  214.14    7.11
   1  -8   3  202.39    7.85
  -1  -8  -3  220.89    5.80
  -1  -8  -3  202.09    7.80
   1  -8   3  212.18    7.48
  -1   8   3  209.08    6.74
  -1   8  -3  213.18    7.62
   1   8   3  212.74    6.22
  -1  -8   3  205.07    7.44
  -1  -8   3  208.68    6.63
  -1   8  -3  198.67    7.71
   1  -8  -3  212.60    7.02
   1  -8  -3  206.79    7.80
   1  -8   5  136.80    7.20
   1  -8   5  135.47    7.24
  -1  -8  -5  118.00    7.02
   1   8  -5  139.90    6.87
  -1  -8   5  140.22    7.26
  -1   8  -5  139.29    7.24
  -1   8  -5  138.88    6.97
   1  -8  -5  132.32    6.93
   1  -8  -5  141.15    6.61
  -1  -8  -7   59.83    6.69
   1   8  -7   79.74    7.18
   1  -8   7   68.56    7.13
   1  -8  -7   68.45    6.39
   1  -8  -7   69.83    7.15
  -1  -8   7   79.43    6.36
  -1   8  -7   88.18    7.80
  -2   8   0   51.19    3.51
   2  -8   0   46.58    3.65
  -2  -8   0   54.28    3.36
   2  -8   0   54.44    2.39
  -2  -8   0   47.40    3.13
   2   8   0   49.06    2.28
   2  -8   2  256.16    9.25
   2  -8   2  263.27    7.83
  -2  -8  -2  284.41    9.08
   2   8  -2  267.19    7.08
  -2   8   2  278.91    8.21
  -2  -8  -2  262.50    7.43
  -2  -8   2  274.53    7.07
   2  -8  -2  272.02    8.42
  -2   8  -2  252.16    8.29
  -2  -8   2  270.42    8.24
  -2   8  -2  278.42    9.38
   2  -8  -2  265.57    8.55
   2  -8   4   38.18    4.59
  -2  -8  -4   37.24    4.78
  -2  -8  -4   33.98    3.53
   2  -8   4   32.28    4.47
   2   8  -4   31.05    3.65
  -2   8  -4   23.97    3.88
   2  -8  -4   29.75    3.83
   2   8   4   27.03    3.22
  -2  -8   4   26.67    3.68
  -2   8  -4   38.89    4.47
   2  -8  -4   37.38    4.31
   2   8  -6  108.62    6.66
  -2  -8  -6  110.46    7.62
   2  -8   6  115.52    7.52
   2  -8   6   93.03    7.02
  -2   8  -6  120.53    7.09
  -2  -8   6   91.12    6.33
   2  -8  -6   98.12    6.28
  -2   8  -6  100.33    6.94
   2  -8  -6  119.68    6.95
  -3  -8  -1   58.97    3.87
   3  -8   1   66.00    3.47
  -3   8   1   55.77    3.87
  -3  -8  -1   57.10    3.94
   3   8  -1   54.91    2.65
   3  -8   1   55.54    4.48
  -3   8  -1   55.80    4.43
  -3  -8   1   51.43    3.18
  -3  -8   1   53.51    3.73
   3  -8  -1   52.15    4.05
  -3   8  -1   61.32    4.09
  -3   8   3   44.03    4.72
   3  -8   3   41.71    5.35
  -3  -8  -3   44.04    3.51
  -3  -8  -3   58.42    5.95
   3   8  -3   46.70    3.40
   3  -8   3   42.08    4.35
   3  -8  -3   37.47    3.93
  -3  -8   3   43.11    4.61
  -3   8  -3   54.30    5.32
  -3   8  -3   58.04    6.38
   3  -8  -3   46.86    4.67
  -3  -8  -5   22.81    4.21
   3  -8   5   38.26    5.80
  -3  -8  -5   29.83    3.89
   3  -8   5   32.57    4.63
   3   8  -5   24.28    3.65
   3  -8  -5   22.48    3.58
  -3   8  -5   27.84    4.01
   3  -8  -5   30.82    4.36
   3   8   5   38.17    4.48
  -3  -8   5   29.61    4.31
  -3   8  -5   24.07    4.40
   3   8  -7   16.10    3.76
   3  -8   7   14.88    4.15
  -3  -8  -7   10.84    3.94
   3  -8   7   13.48    3.65
  -3  -8   7   18.28    3.90
  -3   8  -7   12.77    3.59
  -3   8  -7   19.95    3.85
   3  -8  -7   14.55    3.44
  -4  -8   0   27.31    3.17
  -4  -8   0   36.04    4.11
   4  -8   0   38.87    4.70
  -4   8   0   30.22    3.84
   4   8  -2    5.45    1.42
  -4  -8  -2    7.95    2.48
   4  -8   2    5.27    2.15
  -4  -8  -2    6.50    1.86
   4  -8   2    3.48    1.39
  -4   8   2    3.05    1.56
   4  -8  -2    2.51    1.42
  -4  -8   2    6.22    1.90
   4  -8  -2    8.29    2.41
  -4   8  -2    2.75    1.54
  -4   8  -2    7.18    2.42
   4  -8   4   16.40    3.79
  -4  -8  -4   19.38    3.94
  -4  -8  -4   23.81    3.74
   4  -8   4   19.33    3.47
   4   8  -4   20.16    3.18
   4   8   4   25.96    3.87
  -4  -8   4   15.40    3.14
  -4   8  -4   19.11    3.47
   4  -8  -4   13.10    3.05
  -4   8  -4   22.51    4.30
   4  -8  -4   18.84    3.01
  -4  -8  -6    2.77    1.95
  -4  -8  -6    1.57    2.30
   4   8  -6    3.28    2.22
   4  -8   6    2.63    2.25
   4  -8   6    3.32    2.40
  -4  -8   6    2.22    1.89
  -4   8  -6    0.38    1.91
   4   8   6    1.76    1.92
   4  -8  -6    3.40    2.48
  -4   8  -6    2.34    1.91
  -5   8   1    6.37    2.21
   5  -8   1    5.19    1.69
  -5  -8  -1    5.84    2.08
  -5  -8  -1    7.93    2.34
   5  -8   1    7.84    2.50
  -5   8  -1    6.81    2.28
  -5   8  -1    5.38    1.99
   5  -8  -1    7.09    2.21
  -5  -8   1    5.49    1.91
   5  -8  -1    4.37    1.86
  -5   8   3    4.16    2.11
   5  -8   3    7.39    2.28
  -5  -8  -3    5.69    2.37
   5  -8   3    6.77    2.74
  -5  -8  -3    4.47    1.99
   5  -8  -3    2.25    1.49
   5  -8  -3    4.69    2.05
  -5   8  -3    4.20    1.83
  -5   8  -3    1.73    1.95
  -5  -8   3    4.04    2.08
   5  -8   5    4.19    2.55
   5   8  -5    4.53    2.12
   5  -8   5    3.60    2.15
  -5  -8  -5    0.90    1.55
  -5  -8  -5    2.59    2.31
  -5   8  -5    3.43    2.46
  -5  -8   5    4.45    2.33
   5  -8  -5    5.09    2.63
  -5   8  -5    4.06    2.21
   5   8   5    0.82    1.90
  -6  -8   0   93.77    6.33
   6  -8   0   85.39    6.20
  -6   8   0   88.02    5.81
   6  -8   2    7.08    2.54
  -6  -8  -2    9.27    2.87
  -6  -8  -2    7.78    2.48
  -6   8   2    6.30    2.22
   6  -8   2    9.20    2.37
   6  -8  -2   11.18    2.62
  -6  -8   2   12.99    3.05
   6  -8  -2    8.80    2.68
  -6   8  -2   11.64    3.26
  -6   8  -2   10.44    2.65
  -6  -8  -4   63.01    7.17
   6  -8   4   62.40    6.39
  -6  -8  -4   63.27    6.81
   6  -8   4   55.27    7.28
  -6  -8   4   55.02    6.07
   6   8   4   71.64    7.64
   6  -8  -4   63.23    6.88
  -6   8  -4   51.22    6.87
  -6   8  -4   69.09    6.72
  -7   8   1   53.06    5.89
  -7  -8  -1   62.98    6.79
   7  -8   1   52.82    6.66
   7  -8  -1   55.90    6.45
  -7  -8   1   64.51    6.70
  -7   8  -1   50.25    5.89
  -7   8  -1   60.98    6.37
   7  -8  -1   62.28    6.49
  -7  -8  -3   56.47    6.79
   7  -8   3   46.11    6.68
   7  -8   3   45.12    5.43
  -7  -8  -3   37.35    5.34
  -7   8  -3   44.35    6.33
  -7   8  -3   48.67    5.58
   7  -8  -3   54.74    6.57
  -7  -8   3   52.17    6.50
   8  -8   0   30.72    4.89
  -8  -8   0   29.40    5.13
   8  -8   0   24.33    4.51
  -8   8   0   27.46    4.68
  -8   8   2   97.90    7.35
  -8  -8  -2   89.60    7.40
   8  -8   2  103.05    8.03
  -8   8  -2   91.39    7.31
  -8   8  -2  112.68    7.34
  -8  -8   2  110.91    8.10
   8  -8  -2   84.80    7.96
   0  -9   1   -0.14    0.52
   0  -9  -1    0.49    0.54
   0   9   1    0.25    0.67
   0  -9   1    1.20    1.05
   0   9  -1    0.50    0.75
   0  -9  -1   -0.37    0.89
   0   9  -3   -0.17    0.70
   0  -9   3    1.83    1.29
   0  -9  -3   -0.35    0.88
   0  -9   3   -0.95    0.79
   0  -9  -3   -0.12    0.99
   0  -9  -5   -0.78    0.94
   0  -9   5   -0.69    1.20
   0  -9   5    1.28    1.40
   0   9  -5   -0.45    1.34
   0  -9  -5    0.37    1.51
   0   9  -5    3.72    1.72
   0  -9  -7   -1.66    1.75
   0   9  -7    2.94    2.14
   0  -9   7    0.86    1.62
  -1   9   0   47.68    3.27
   1   9   0   47.91    2.69
  -1  -9   0   48.37    3.02
   1  -9   0   45.45    3.58
   1  -9   0   48.75    2.52
  -1  -9   0   45.85    3.37
   1  -9   2    8.01    1.79
   1  -9   2    8.56    2.06
  -1   9   2    7.36    1.66
   1   9  -2    7.25    1.58
  -1  -9  -2   10.61    1.70
  -1  -9  -2    7.53    1.99
  -1  -9  -2    6.95    1.34
  -1  -9   2   12.34    2.21
   1  -9  -2   10.49    2.39
  -1  -9   2    5.40    1.56
   1   9   2    9.20    1.39
   1  -9  -2    6.17    1.69
  -1   9  -2    5.98    1.67
   1  -9   4   23.85    3.86
  -1  -9  -4   23.15    3.69
   1  -9   4   35.64    4.55
   1   9  -4   19.98    3.11
  -1  -9   4   24.05    3.56
  -1   9  -4   22.34    3.63
  -1   9  -4   22.31    3.47
   1  -9  -4   29.79    4.24
   1  -9  -4   26.09    3.44
  -1  -9   4   30.27    3.59
   1  -9   6    4.50    2.37
   1   9  -6    1.45    1.61
  -1  -9  -6    2.69    2.22
   1  -9   6    1.84    2.01
   1  -9  -6    3.71    2.22
  -1   9  -6    5.33    2.16
  -1  -9   6    2.18    1.90
  -1   9  -6    3.25    2.08
   1  -9  -6    2.53    1.77
  -2   9   1  136.94    5.83
  -2  -9  -1  131.69    5.33
   2  -9   1  144.32    6.82
   2  -9   1  132.94    4.83
   2   9  -1  125.37    4.43
  -2  -9  -1  127.45    5.92
  -2  -9   1  135.09    5.38
  -2  -9   1  140.36    5.82
  -2   9  -1  136.15    5.93
   2   9   1  128.01    3.43
   2  -9  -1  118.65    5.95
   2  -9   3   99.37    5.54
  -2   9   3  108.25    5.48
   2  -9   3   99.77    6.25
   2   9  -3   95.17    4.86
  -2  -9  -3  103.02    6.06
  -2  -9  -3  102.74    4.84
  -2  -9   3   92.24    5.41
   2  -9  -3  104.87    5.76
  -2   9  -3  101.30    6.18
  -2  -9   3  107.83    4.61
   2  -9  -3  107.83    5.63
  -2   9  -3  110.10    5.84
   2  -9   5   67.44    6.88
  -2  -9  -5   73.19    7.38
   2  -9   5   67.75    5.52
   2   9  -5   67.97    4.96
  -2  -9   5   64.52    6.34
  -2   9  -5   66.05    6.26
   2  -9  -5   74.75    5.45
   2  -9  -5   65.12    4.98
  -2   9  -5   78.45    6.05
   2  -9   7   46.14    6.32
  -2  -9  -7   38.74    5.76
   2   9  -7   38.72    5.39
  -2  -9   7   50.14    6.48
  -2   9  -7   44.44    5.72
   2  -9  -7   28.28    4.41
  -2   9  -7   29.90    5.08
  -3  -9   0    1.41    1.09
   3  -9   0    1.33    1.14
  -3  -9   0    0.20    0.95
  -3   9   0    0.63    1.08
   3  -9   2   72.10    5.48
  -3  -9  -2   66.85    4.28
   3   9  -2   67.44    3.60
  -3   9   2   61.03    4.40
   3  -9   2   62.40    4.12
  -3  -9  -2   57.68    4.52
  -3   9  -2   61.55    4.49
  -3   9  -2   60.53    5.03
   3  -9  -2   57.13    4.33
  -3  -9   2   71.25    4.69
   3  -9  -2   55.71    4.27
  -3  -9   2   61.15    3.40
  -3  -9  -4   -0.05    0.99
   3   9  -4   -1.15    0.86
  -3  -9  -4   -0.68    1.23
   3  -9   4    1.02    1.66
   3  -9   4    0.00    1.33
   3  -9  -4    0.86    1.38
   3   9   4    0.26    1.15
  -3   9  -4    1.07    1.72
   3  -9  -4   -0.11    1.19
  -3  -9   4    0.62    1.10
  -3   9  -4   -1.28    1.01
  -3  -9  -6   22.77    4.61
   3  -9   6   20.45    4.03
   3  -9   6   19.44    4.31
   3   9  -6   29.62    4.57
  -3  -9   6   27.52    4.68
  -3   9  -6   26.59    4.28
   3  -9  -6   26.47    4.45
  -3   9  -6   21.01    4.17
  -4  -9  -1  199.85    8.13
   4  -9   1  203.88    6.69
  -4   9   1  210.90    8.31
   4  -9   1  199.98    9.13
  -4  -9  -1  198.07    7.93
  -4  -9   1  205.91    6.72
  -4   9  -1  216.81    8.51
   4  -9  -1  192.86    8.42
  -4   9  -1  195.50    9.04
  -4  -9   1  212.86    8.45
  -4   9   3  150.57    7.54
   4   9  -3  167.83    6.58
  -4  -9  -3  163.23    8.69
   4  -9   3  168.72    8.97
   4  -9   3  170.00    7.46
  -4  -9  -3  178.62    7.73
  -4   9  -3  177.21    8.05
   4  -9  -3  165.64    7.45
   4  -9  -3  163.00    7.84
  -4  -9   3  172.61    8.01
  -4   9  -3  169.92    9.11
   4  -9   5  117.95    8.38
  -4  -9  -5  122.08    6.92
  -4  -9  -5  118.40    8.31
   4   9  -5  122.13    6.80
   4  -9   5  109.99    7.39
  -4   9  -5  126.53    8.61
   4  -9  -5  102.34    6.88
  -4  -9   5  125.42    7.55
   4   9   5  107.36    6.69
  -4   9  -5  122.31    7.46
  -5  -9   0   61.50    4.47
   5  -9   0   57.28    6.05
  -5  -9   0   65.84    5.16
  -5   9   0   55.75    5.55
   5  -9   2    1.19    1.76
  -5  -9  -2   -0.79    1.27
   5  -9   2    1.74    1.34
  -5  -9  -2    2.98    1.97
  -5   9   2    1.33    1.50
  -5   9  -2   -0.55    1.09
  -5  -9   2   -0.22    1.07
   5  -9  -2    1.55    1.52
  -5   9  -2    0.72    1.52
   5  -9  -2   -0.32    1.28
  -5  -9  -4   37.80    4.88
   5  -9   4   30.90    5.26
   5  -9   4   43.57    5.35
  -5  -9  -4   44.99    6.28
   5   9   4   31.62    4.48
  -5   9  -4   41.85    6.19
  -5   9  -4   38.91    4.91
  -5  -9   4   41.41    5.32
   5  -9  -4   35.62    5.07
  -5  -9  -6   -1.02    1.48
   5  -9   6   -1.24    1.74
   5  -9   6    0.74    2.00
  -5  -9  -6   -0.68    1.81
   5   9  -6    1.36    2.07
  -5   9  -6   -1.93    1.56
  -5   9  -6    0.04    2.03
   5   9   6   -0.41    1.76
  -5  -9   6   -0.41    1.65
   5  -9  -6   -0.34    1.93
  -6   9   1   78.27    5.77
  -6  -9  -1   82.21    6.13
   6  -9   1   74.05    6.06
  -6  -9  -1   84.08    5.79
  -6  -9   1   71.00    5.79
  -6   9  -1   82.02    6.50
   6  -9  -1   85.11    6.07
   6  -9  -1   65.63    6.60
  -6   9  -1   81.48    6.00
  -6  -9  -3   60.11    6.39
   6  -9   3   71.18    7.87
   6  -9   3   75.53    5.65
  -6   9   3   74.62    7.36
  -6  -9  -3   61.50    6.72
  -6   9  -3   51.38    6.68
  -6   9  -3   75.67    7.21
   6  -9  -3   71.28    7.09
  -6  -9   3   70.27    7.30
  -6  -9  -5   51.04    6.51
   6  -9   5   48.68    7.22
   6  -9   5   59.39    6.93
  -6  -9  -5   42.07    6.32
   6   9   5   43.63    5.89
  -6  -9   5   45.91    6.18
  -6   9  -5   46.72    7.26
   6  -9  -5   47.79    6.26
  -6   9  -5   32.68    4.85
  -7  -9   0    4.26    2.31
   7  -9   0    0.14    1.60
  -7   9   0   -0.19    1.63
   7  -9   0    1.12    1.91
   7  -9   2   22.49    4.54
  -7   9   2   23.78    4.56
  -7  -9  -2   22.61    4.45
  -7  -9  -2   28.34    4.80
   7  -9  -2   26.65    4.99
  -7  -9   2   19.32    4.07
  -7   9  -2   16.40    3.86
  -7   9  -2   25.42    4.34
  -8  -9  -1    2.39    2.51
   8  -9   1    1.96    2.22
  -8   9   1   -0.15    2.07
   8  -9   1   -0.04    2.08
   8  -9  -1    0.99    2.02
  -8  -9   1   -0.68    1.68
  -8   9  -1    3.40    2.24
   0 -10   0   37.14    2.56
   0 -10   0   33.98    3.83
   0  10   0   38.33    2.88
   0 -10   2  225.09    7.38
   0  10  -2  203.07    7.17
   0 -10   2  234.28    8.17
   0  10   2  208.68    6.32
   0 -10  -2  213.28    8.39
   0 -10  -2  213.77    6.80
   0 -10   4   22.45    3.60
   0  10  -4   14.24    2.69
   0 -10  -4   26.71    3.99
   0 -10   4   25.26    3.65
   0 -10  -4   24.50    3.16
   0 -10   6   89.53    6.76
   0  10  -6  109.11    7.07
  -1  10   1   58.70    3.73
  -1 -10  -1   59.76    3.26
   1  10  -1   56.41    3.39
   1 -10   1   60.12    4.47
   1 -10   1   63.30    3.48
  -1 -10  -1   65.15    4.48
   1  10   1   64.04    3.09
  -1 -10   1   66.49    4.22
  -1 -10   1   57.28    3.65
   1 -10  -1   49.12    3.99
  -1  10  -1   55.33    3.80
   1 -10   3   42.72    4.88
   1  10  -3   41.70    4.15
  -1 -10  -3   54.23    5.56
   1 -10   3   44.07    4.55
  -1  10   3   49.35    3.51
  -1 -10   3   45.00    4.69
   1 -10  -3   52.70    3.84
  -1 -10   3   44.98    3.67
  -1  10  -3   41.49    4.27
   1 -10  -3   45.99    5.09
   1 -10   5   27.76    4.38
   1 -10   5   34.87    4.97
   1  10  -5   46.26    5.39
  -1 -10  -5   28.16    4.49
  -1  10  -5   23.17    3.76
   1 -10  -5   33.22    4.11
  -1 -10   5   35.00    4.75
  -1  10  -5   27.45    4.09
   1 -10  -5   29.44    4.47
   1 -10   7   20.98    4.37
  -1 -10  -7   11.70    3.94
   1  10  -7   20.24    3.98
  -1 -10   7   15.15    3.75
  -1  10  -7   26.73    4.75
   1 -10  -7   22.63    4.63
   2 -10   0  151.92    4.91
   2  10   0  150.53    4.60
   2 -10   0  133.95    6.77
  -2  10   0  138.16    6.29
  -2 -10   0  145.52    6.27
  -2 -10   0  141.91    5.98
   2  10  -2    5.15    1.42
  -2 -10  -2    4.84    1.80
  -2  10   2    6.45    1.89
  -2 -10  -2    7.67    1.75
   2 -10   2    6.62    2.22
   2 -10   2    7.66    1.81
  -2 -10   2    7.16    2.01
  -2  10  -2    8.39    2.12
   2 -10  -2    5.73    2.02
   2 -10  -2    4.45    1.70
  -2 -10   2   10.85    2.12
   2 -10   4   81.81    5.64
   2  10  -4   83.24    5.24
   2 -10   4   81.07    6.13
  -2 -10  -4   76.82    5.86
  -2 -10   4   88.21    5.80
   2 -10  -4   95.36    5.86
   2 -10  -4   92.34    5.98
  -2  10  -4   82.59    6.04
  -2  10  -4   79.16    5.50
  -2 -10  -6    8.03    3.04
   2 -10   6    6.01    2.72
   2  10  -6    3.51    2.23
   2 -10   6    2.07    2.25
  -2  10  -6    4.70    2.19
  -2  10  -6    4.64    2.39
  -2 -10   6    5.64    2.64
   2 -10  -6    4.35    2.40
   2 -10  -6    6.79    2.56
  -3  10   1    8.98    2.33
   3 -10   1    8.15    2.48
   3 -10   1   10.07    1.86
  -3 -10  -1    8.98    2.12
  -3 -10  -1    7.78    2.19
  -3 -10   1    9.27    2.23
  -3 -10   1    8.52    1.92
   3 -10  -1    7.06    2.42
  -3  10  -1    7.38    2.00
  -3 -10  -3    5.27    1.74
   3 -10   3    9.03    2.90
  -3 -10  -3    5.96    2.20
   3  10  -3    6.43    1.86
  -3  10   3    5.65    2.10
   3 -10   3    6.52    2.11
  -3 -10   3    4.16    1.69
  -3  10  -3   10.10    2.99
   3 -10  -3    4.92    1.95
   3 -10  -3    5.29    2.04
  -3  10  -3    9.11    2.54
  -3 -10  -5    6.88    3.03
   3  10  -5    4.47    1.93
   3 -10   5    5.50    2.61
   3 -10   5    8.25    3.14
  -3 -10   5    5.18    2.21
   3 -10  -5    2.94    1.84
  -3  10  -5    6.60    2.31
  -3  10  -5    8.81    3.08
   3 -10  -5    4.39    2.14
  -4  10   0    9.30    2.43
   4 -10   0   14.11    3.26
  -4 -10   0    9.50    2.32
  -4 -10   0    6.87    1.98
  -4  10   2   12.14    2.76
   4 -10   2   12.76    3.40
  -4 -10  -2   10.92    2.68
   4 -10   2   11.50    2.47
  -4 -10  -2   12.69    2.65
   4 -10  -2   15.61    3.27
  -4  10  -2   13.27    3.28
   4 -10  -2   11.52    2.83
  -4  10  -2    8.81    2.41
  -4 -10   2   10.04    2.55
   4 -10   4    5.97    2.86
   4  10  -4   11.54    2.69
   4 -10   4    7.34    2.50
  -4 -10  -4    9.16    2.53
  -4 -10  -4    4.01    2.51
  -4  10  -4    7.51    2.41
  -4 -10   4    7.99    2.49
   4  10   4   10.65    2.78
   4 -10  -4    8.31    2.52
   4 -10  -4    4.55    2.18
  -4  10  -4    6.99    3.06
   4  10  -6    3.96    2.37
   4 -10   6    4.28    2.79
  -4 -10  -6    7.59    3.06
   4 -10   6    8.29    3.12
  -4  10  -6    5.93    2.88
   4 -10  -6    6.09    2.95
  -4  10  -6    7.05    3.26
  -4 -10   6    6.85    2.89
  -5  10   1    4.08    2.01
  -5 -10  -1    3.18    1.93
  -5 -10  -1    4.37    2.00
   5 -10   1    4.65    2.37
   5 -10  -1    5.93    2.30
  -5 -10   1    2.12    1.58
  -5  10  -1    2.66    1.95
   5 -10  -1    4.65    2.28
  -5 -10  -3    2.52    1.86
   5 -10   3    2.91    2.22
  -5  10   3    3.23    1.93
   5 -10   3    4.88    2.00
  -5 -10  -3    1.47    1.63
  -5  10  -3    6.60    2.79
  -5  10  -3    3.34    1.89
   5 -10  -3    3.07    1.88
  -5 -10   3    5.99    2.36
   5 -10  -3    6.14    2.42
  -5 -10  -5    2.71    2.29
  -5 -10  -5    3.36    2.06
   5 -10   5    5.47    2.96
   5 -10   5    1.01    1.90
   5  10   5    1.11    2.04
  -5 -10   5    1.60    2.05
   5 -10  -5    2.49    2.16
  -5  10  -5    5.31    2.51
  -5  10  -5    2.21    2.78
  -6  10   0    5.28    2.28
  -6 -10   0    4.29    2.16
   6 -10   0    6.71    2.46
  -6 -10  -2   61.60    6.62
  -6 -10  -2   45.87    5.52
   6 -10   2   45.16    5.95
  -6  10   2   56.83    6.18
   6 -10  -2   46.24    5.32
  -6  10  -2   48.52    5.70
  -6 -10   2   61.30    6.90
  -6  10  -2   64.91    7.47
   6 -10  -2   40.93    5.41
  -6 -10  -4    1.47    2.06
  -6 -10  -4    1.17    2.52
   6 -10   4    0.88    2.06
   6 -10   4    5.55    2.43
   6  10   4    8.96    2.96
   6 -10  -4    4.17    2.70
  -6  10  -4    2.66    2.64
  -6  10  -4    1.43    2.17
  -6 -10   4    2.07    2.14
   7 -10   1   17.64    4.15
  -7  10   1   24.08    4.44
  -7 -10  -1   20.99    4.30
   7 -10  -1   16.57    3.63
  -7  10  -1   21.05    4.28
  -7 -10   1   15.14    3.86
   7 -10  -1   18.42    3.97
   7 -10   3   19.02    4.67
  -7 -10  -3   16.55    4.05
  -7 -10  -3   15.45    4.01
  -7  10   3   10.73    3.41
  -7  10  -3   15.88    4.36
  -7 -10   3   20.81    4.47
  -7  10  -3   14.74    3.60
   7 -10  -3   17.43    4.27
   0 -11   1   -0.51    0.66
   0 -11  -1    1.35    1.32
   0 -11  -1    0.11    0.61
   0  11  -1   -0.52    0.77
   0 -11   1    0.01    1.04
   0  11   1    0.11    0.75
   0 -11   3    0.94    1.38
   0 -11  -3   -1.82    0.81
   0  11   3   -0.02    0.85
   0  11  -3    0.37    1.12
   0 -11  -3    1.64    1.20
   0 -11   3   -0.72    1.06
   0 -11   5    0.57    1.49
   0  11  -5   -0.52    1.38
   0 -11  -5   -0.54    1.58
   0 -11   7   -0.85    2.05
   0 -11  -7   -0.76    2.09
   0  11  -7   -1.02    1.66
   1 -11   0  102.26    5.86
   1 -11   0  113.38    4.30
   1  11   0  113.23    4.68
  -1 -11   0  118.77    5.12
  -1 -11   0  116.18    5.99
  -1  11   0  123.69    5.74
   1 -11   2    4.00    1.93
  -1 -11  -2    1.46    1.40
   1  11  -2    8.06    1.91
  -1 -11  -2    2.83    1.09
   1 -11   2    3.70    1.48
  -1  11   2    4.05    1.49
  -1  11  -2    3.62    1.52
  -1 -11   2    2.32    1.26
   1 -11  -2    3.27    1.62
   1 -11  -2    2.50    1.49
  -1 -11   2    3.93    1.66
   1 -11   4   66.70    5.41
   1 -11   4   72.03    5.29
   1  11  -4   64.82    4.88
  -1 -11  -4   57.73    6.12
  -1 -11   4   75.05    5.51
   1 -11  -4   74.67    5.00
  -1  11  -4   69.55    5.28
   1 -11  -4   65.22    5.42
  -1 -11  -6    3.48    2.58
   1  11  -6    5.18    2.48
   1 -11   6    4.10    2.19
  -1 -11   6    2.23    2.08
  -1  11  -6    4.34    2.18
   1 -11  -6    3.81    2.20
   2  11  -1    0.82    0.89
   2 -11   1    0.08    0.89
  -2  11   1    1.22    1.19
  -2 -11  -1    0.79    1.25
  -2 -11  -1    1.08    1.01
   2 -11   1    1.08    1.39
  -2 -11   1    0.68    0.96
  -2  11  -1   -0.03    1.04
   2 -11  -1    0.38    1.25
  -2 -11   1    0.73    1.17
   2 -11   3   -1.11    1.05
  -2 -11  -3    0.43    0.97
   2  11  -3    2.19    1.25
   2 -11   3    0.27    1.36
  -2  11   3    0.54    1.26
  -2 -11  -3    2.63    1.74
  -2  11  -3   -0.50    1.27
  -2 -11   3    1.52    1.31
   2 -11  -3    0.29    1.34
   2 -11  -3   -0.73    1.08
   2 -11   5    2.41    2.38
  -2 -11  -5    1.34    1.78
   2  11  -5   -0.78    1.59
   2 -11   5   -1.34    1.53
   2 -11  -5   -0.17    1.50
  -2  11  -5   -1.12    1.28
   2 -11  -5    2.12    1.84
  -2  11  -5    0.46    1.85
  -2 -11   5    0.23    1.66
  -3  11   0  115.32    6.35
  -3 -11   0  119.37    6.00
   3 -11   0  104.84    6.72
  -3 -11   0  121.86    6.17
  -3 -11  -2  281.75    9.18
  -3  11   2  288.34    9.90
   3 -11   2  307.13   11.99
   3 -11   2  299.15    9.15
  -3 -11  -2  291.59   10.73
  -3 -11   2  279.45    9.98
   3 -11  -2  269.90   10.37
  -3  11  -2  273.35    9.95
   3 -11  -2  281.52   10.19
   3  11  -4   80.20    5.33
   3 -11   4   85.61    8.55
   3 -11   4   70.46    5.55
  -3 -11  -4   70.04    7.18
   3 -11  -4   69.92    6.64
  -3 -11   4   80.27    5.95
   3 -11  -4   74.07    5.79
  -3  11  -4   82.96    8.58
  -3  11  -4   71.15    6.71
   3  11  -6  140.75    8.17
   3 -11   6  143.88    9.38
   3 -11   6  142.23    8.77
  -3 -11  -6  130.96    9.20
  -3  11  -6  136.92    8.94
  -3  11  -6  136.77    8.37
   3 -11  -6  128.64    8.15
  -4  11   1    0.38    1.33
  -4 -11  -1    1.37    1.56
   4 -11   1    2.21    1.85
  -4 -11  -1    1.58    1.36
   4 -11  -1    0.78    1.70
  -4  11  -1   -0.04    1.46
  -4 -11   1    0.73    1.43
  -4 -11  -3    0.16    1.31
  -4  11   3    1.04    1.65
   4 -11   3    0.14    1.51
  -4 -11  -3    2.33    1.95
   4 -11   3    2.28    2.09
  -4 -11   3    2.54    1.75
  -4  11  -3    0.51    1.77
   4 -11  -3    0.26    1.45
   4 -11  -3    0.91    1.53
  -4  11  -3    2.03    1.55
   4 -11   5    1.43    2.09
   4 -11   5    3.07    2.39
   4  11  -5   -0.04    1.70
  -4 -11  -5    3.35    2.42
  -4 -11   5    2.07    1.84
   4 -11  -5   -2.18    1.58
  -4  11  -5    2.62    2.10
  -4  11  -5   -1.37    1.28
   5 -11   0  261.20   11.39
  -5  11   0  249.31   10.33
  -5 -11   0  257.64   10.52
   5 -11   2   89.16    7.12
  -5  11   2   77.90    5.90
  -5 -11  -2   95.45    6.94
  -5 -11  -2   81.35    5.95
  -5 -11   2   82.25    6.23
  -5  11  -2   94.68    6.61
   5 -11  -2   92.92    6.58
  -5 -11  -4  169.60    8.61
   5 -11   4  172.38   10.39
  -5 -11  -4  175.97   10.39
   5 -11   4  175.13    9.09
   5  11   4  172.31    9.04
  -5 -11   4  194.88    9.88
  -5  11  -4  210.30   11.61
   5 -11  -4  188.67    9.69
  -5  11  -4  182.91    9.47
   6 -11   1   -0.31    1.80
  -6  11   1    0.23    1.74
  -6 -11  -1    1.54    1.76
  -6 -11   1   -0.34    1.47
   6 -11  -1    1.75    1.84
  -6  11  -1    3.14    2.09
   6 -11  -1   -0.99    1.50
  -6  11   3    0.61    1.86
  -6 -11  -3    3.44    2.24
   6 -11   3    0.17    1.98
  -6 -11  -3    0.26    1.64
   6 -11  -3    0.75    2.02
  -6  11  -3   -0.74    1.89
  -6  11  -3   -1.41    1.53
  -6 -11   3    1.48    2.04
   7 -11   0   10.54    3.36
  -7 -11   0   11.34    3.54
  -7  11   0   11.96    3.39
   7 -11   0   15.83    4.08
   7 -11   2   45.27    6.53
  -7 -11  -2   75.43    7.77
  -7  11   2   64.06    7.45
   7 -11  -2   55.75    6.88
  -7  11  -2   56.03    6.82
  -7 -11   2   61.09    7.25
   0  12   0    8.84    2.08
   0 -12   0   11.36    1.99
   0 -12   0    7.89    2.29
   0 -12   2  101.72    5.92
   0 -12  -2  112.28    6.75
   0 -12   2  103.94    5.38
   0  12   2  102.60    4.74
   0  12  -2  101.98    5.53
   0 -12  -2  105.57    5.18
   0 -12  -4    4.92    2.27
   0 -12   4    8.08    2.61
   0  12  -4    3.98    1.89
   0 -12   4    7.22    2.34
   0 -12  -6   42.50    6.00
   0  12  -6   55.60    6.67
   0 -12   6   47.98    6.25
  -1  12   1  254.07    8.42
   1 -12   1  271.12   10.15
   1 -12   1  268.67    7.85
   1  12  -1  262.05    8.09
  -1 -12  -1  268.25    7.66
  -1 -12  -1  257.62    9.88
  -1 -12   1  270.55    8.64
   1 -12  -1  232.29    9.56
  -1  12  -1  259.29    8.84
   1  12   1  266.32    7.95
  -1 -12   1  265.07    9.37
  -1 -12  -3  217.88    9.58
   1 -12   3  203.39    9.27
   1  12  -3  220.66    8.28
   1 -12   3  219.14    8.62
  -1  12   3  212.00    7.72
  -1  12  -3  221.19    8.90
   1 -12  -3  208.97    7.97
  -1 -12   3  213.92    8.73
  -1 -12   3  212.66    8.34
   1 -12  -3  192.98    9.13
  -1 -12  -5  135.82    8.59
   1  12  -5  139.43    7.69
   1 -12   5  146.49    8.39
   1 -12   5  149.36    8.28
  -1  12  -5  158.58    8.50
   1 -12  -5  148.19    8.56
  -1 -12   5  143.00    8.29
   1 -12  -5  135.41    7.95
  -2 -12   0   69.85    4.98
  -2 -12   0   82.90    4.98
   2 -12   0   75.84    5.61
  -2  12   0   61.52    4.55
   2 -12   2    0.32    1.60
  -2 -12  -2    2.09    1.60
   2 -12   2    2.58    1.42
   2  12  -2    0.16    1.00
  -2  12   2    0.41    1.23
  -2 -12  -2    1.24    1.06
   2 -12  -2    2.34    1.59
   2 -12  -2   -0.61    1.19
  -2 -12   2    2.07    1.51
  -2  12  -2    1.67    1.46
  -2 -12   2    2.53    1.43
   2 -12   4   45.50    6.16
   2  12  -4   45.27    4.89
   2 -12   4   45.94    5.45
  -2 -12  -4   38.43    5.52
  -2  12  -4   51.24    5.92
  -2 -12   4   55.96    6.07
   2 -12  -4   39.82    5.33
   2 -12  -4   48.79    5.42
   2 -12   6    1.52    2.41
  -2 -12  -6    2.47    2.68
   2  12  -6    0.79    2.03
   2 -12   6    1.22    2.21
  -2  12  -6   -2.98    1.72
   2 -12  -6   -2.14    1.55
  -2  12  -6    1.77    2.14
   2 -12  -6   -1.18    1.59
  -2 -12   6   -0.27    2.14
   3 -12   1   71.54    7.51
  -3  12   1   74.37    6.64
  -3 -12  -1   50.98    4.18
  -3 -12  -1   46.92    5.18
   3 -12  -1   50.75    5.67
  -3 -12   1   51.54    4.14
  -3  12  -1   67.28    6.43
  -3 -12   1   59.48    5.79
  -3 -12  -3   40.39    5.40
   3 -12   3   58.31    7.16
  -3 -12  -3   48.91    4.78
   3  12  -3   54.75    6.86
   3 -12   3   49.39    5.29
  -3  12   3   46.72    5.42
   3 -12  -3   58.32    5.95
  -3  12  -3   47.03    5.44
   3 -12  -3   32.96    4.73
  -3 -12   3   51.23    5.67
   3  12  -5   33.93    4.68
  -3 -12  -5   31.68    5.51
   3 -12   5   35.45    5.47
   3 -12   5   28.53    5.35
  -3  12  -5   33.49    5.59
   3 -12  -5   27.25    4.42
   3 -12  -5   26.30    4.32
  -3 -12   5   33.40    5.20
  -3  12  -5   34.46    5.39
  -4 -12   0    9.65    2.65
  -4 -12   0    8.44    2.35
  -4  12   0    5.11    2.30
   4 -12   0    9.62    3.29
  -4 -12  -2    6.40    2.18
   4 -12   2   12.36    3.50
  -4 -12  -2   15.46    3.57
  -4  12   2   13.21    3.07
  -4  12  -2   12.04    3.05
   4 -12  -2    9.37    2.89
   4 -12  -2    9.47    2.65
  -4 -12   2    7.53    2.53
   4 -12   4    6.00    2.48
  -4 -12  -4    1.69    2.33
   4 -12   4    3.55    2.41
  -4 -12   4    6.72    2.50
  -4  12  -4    5.34    2.97
   4 -12  -4    4.59    2.43
  -4  12  -4    5.08    2.47
   4 -12  -4    7.25    2.66
  -5 -12  -1   11.73    3.12
   5 -12   1    7.78    2.97
  -5  12   1    9.95    3.00
  -5 -12  -1    7.97    2.53
   5 -12  -1    9.20    2.87
  -5  12  -1    9.83    2.91
   5 -12  -1    9.04    2.96
  -5 -12   1    9.07    2.84
   5 -12   3    4.29    2.80
  -5  12   3    6.91    2.54
  -5 -12  -3    5.96    2.37
  -5 -12  -3    6.13    2.86
  -5 -12   3    9.64    3.07
  -5  12  -3    5.89    2.37
   5 -12  -3    5.42    2.37
   5 -12  -3    3.85    2.24
   6 -12   0    0.22    1.72
  -6  12   0   -0.73    1.15
  -6 -12   0    0.41    1.93
   6 -12   2   29.01    5.49
  -6 -12  -2   21.82    4.30
  -6 -12  -2   29.39    4.82
  -6  12   2   32.86    5.19
   6 -12  -2   38.32    5.69
  -6 -12   2   33.36    5.35
  -6  12  -2   22.59    4.44
   6 -12  -2   22.12    4.28
   0 -13   1   -0.04    1.12
   0  13   1    0.04    1.03
   0  13  -1    0.76    1.15
   0 -13  -1   -0.45    1.10
   0 -13   1    0.96    1.09
   0 -13   3   -0.22    1.23
   0 -13   3   -0.91    1.13
   0 -13  -3    0.00    1.48
   0  13  -3   -0.44    1.05
   0 -13   5   -0.84    1.32
   0 -13  -5    1.07    1.93
   0  13  -5    1.67    1.80
  -1 -13   0    1.44    1.51
  -1  13   0    0.58    1.11
   1 -13   0    0.30    1.37
  -1 -13   0    1.31    1.29
   1  13   0    0.45    1.09
   1  13  -2   35.45    4.04
   1 -13   2   35.86    5.10
   1 -13   2   37.95    4.28
  -1 -13  -2   33.08    4.73
  -1  13   2   35.35    3.90
   1 -13  -2   29.43    4.60
  -1  13  -2   35.03    4.39
  -1 -13   2   33.75    4.12
   1 -13  -2   34.67    4.20
  -1 -13   2   46.57    5.17
  -1 -13  -4   -0.54    1.52
   1 -13   4   -1.11    1.35
   1 -13   4   -0.81    1.33
   1  13  -4    3.55    1.89
  -1 -13   4    0.09    1.52
   1 -13  -4   -2.56    1.06
  -1  13  -4    1.81    1.76
   1 -13  -4    0.48    1.47
  -1 -13  -6   12.30    3.84
   1 -13   6   16.41    4.10
   1  13  -6   18.61    4.13
  -1 -13   6   19.75    4.18
  -1  13  -6   16.00    3.93
  -2 -13  -1   46.27    3.75
  -2  13   1   45.61    4.89
   2 -13   1   46.83    5.91
  -2 -13  -1   43.83    5.25
  -2 -13   1   55.24    5.56
  -2  13  -1   50.51    5.14
   2 -13  -1   54.14    6.24
  -2 -13   1   50.45    4.97
  -2  13   3   46.03    5.09
   2  13  -3   49.93    5.06
   2 -13   3   39.57    5.64
   2 -13   3   46.14    5.17
  -2 -13  -3   48.66    6.08
   2 -13  -3   33.77    4.84
  -2  13  -3   35.55    4.69
   2 -13  -3   39.29    4.82
  -2 -13   3   35.75    4.76
  -2 -13  -5   22.86    5.05
   2  13  -5   31.54    4.77
   2 -13   5   31.50    5.12
   2 -13   5   24.33    5.00
  -2 -13   5   29.56    5.25
   2 -13  -5   18.35    4.10
  -2  13  -5   31.61    5.04
   2 -13  -5   28.52    4.43
  -3 -13   0  110.50    6.27
  -3  13   0  101.94    6.61
  -3 -13   0  108.15    6.46
   3 -13   0  103.09    7.34
  -3 -13  -2   12.70    2.61
  -3 -13  -2   14.54    3.32
   3 -13   2   12.66    3.54
  -3  13   2   15.93    3.17
   3 -13  -2   12.91    3.17
  -3 -13   2   13.55    3.14
  -3  13  -2   13.00    3.01
   3 -13  -2    9.59    2.95
   3 -13   4   74.54    7.32
   3 -13   4   55.60    6.93
  -3 -13  -4   53.98    6.72
   3 -13  -4   58.89    6.32
  -3  13  -4   72.74    7.31
   3 -13  -4   68.98    7.45
  -3 -13   4   71.40    7.31
  -4 -13  -1   80.41    5.81
  -4  13   1   96.56    6.51
   4 -13   1   62.54    7.33
  -4 -13  -1   83.12    6.04
   4 -13  -1   59.30    6.69
   4 -13  -1   81.27    6.04
  -4  13  -1   83.24    7.62
  -4 -13   1   76.08    5.87
  -4 -13  -3   68.96    7.49
  -4 -13  -3   69.01    5.32
   4 -13   3   59.48    7.55
  -4  13   3   55.45    6.13
  -4 -13   3   73.59    7.35
  -4  13  -3   67.45    7.00
   4 -13  -3   69.90    6.84
  -5  13   0   21.80    4.17
   5 -13   0   21.71    4.63
  -5 -13   0    8.47    2.83
  -5 -13  -2   70.24    7.05
  -5  13   2   94.09    8.25
  -5 -13  -2   69.89    7.55
   5 -13   2   72.07    8.14
  -5  13  -2   72.10    7.44
  -5 -13   2   80.10    6.57
   5 -13  -2   79.61    8.17
   5 -13  -2   71.34    7.35
   5 -13   4   22.31    5.24
  -5 -13  -4   14.87    4.22
   5 -13  -4   16.43    3.79
   5 -13  -4    7.66    2.71
  -5 -13   4    9.96    3.52
  -5  13  -4   11.42    3.50
   6 -13   1   18.79    4.31
  -6  13   1   28.73    4.84
  -6 -13  -1   33.08    5.49
   6 -13  -1   20.90    4.59
  -6  13  -1   29.05    4.90
  -6 -13   1   29.46    5.19
   6 -13  -1   25.26    5.03
   0  14   0  172.65    7.21
   0 -14   0  153.68    8.21
   0 -14   2   38.47    5.14
   0 -14   2   44.41    4.79
   0 -14  -2   47.22    6.25
   0  14  -2   40.90    4.70
   0 -14  -4  114.98    8.01
   0 -14   4  117.50    7.28
   0 -14   4  114.55    7.37
   0  14  -4  114.82    7.04
   1  14  -1   10.00    2.39
   1 -14   1    9.08    2.85
  -1  14   1    4.52    1.77
  -1 -14  -1    9.82    2.95
  -1  14  -1    4.35    1.89
  -1 -14   1    7.72    2.17
   1 -14  -1    7.62    2.69
  -1 -14   1    6.15    2.33
   1  14  -3    9.42    2.54
   1 -14   3    5.78    2.60
  -1 -14  -3    6.49    2.69
   1 -14   3    5.76    2.25
  -1  14   3    7.67    2.18
  -1 -14   3    8.35    2.65
  -1 -14   3    9.00    2.61
   1 -14  -3    9.67    3.20
  -1  14  -3    6.49    2.31
   1 -14  -3    4.46    1.94
   1 -14   5    5.73    3.29
  -1 -14  -5    2.73    2.30
   1 -14   5    9.50    3.13
   1  14  -5    5.98    2.47
  -1  14  -5    5.82    2.52
  -1 -14   5    4.22    2.58
   1 -14  -5    2.59    2.17
  -2  14   0   13.05    3.10
  -2 -14   0   16.01    3.29
  -2 -14   0   12.82    2.70
   2 -14   0   14.72    3.63
  -2 -14  -2   79.18    6.24
   2 -14   2   80.83    6.80
  -2  14   2   80.81    5.52
  -2 -14   2   97.32    6.21
   2 -14  -2   94.19    6.13
  -2  14  -2   92.99    6.19
   2 -14  -2   85.06    6.66
  -2 -14   2   89.94    5.91
   2 -14   4   12.93    3.62
   2 -14   4    9.82    3.04
  -2 -14  -4    5.64    2.45
   2  14  -4    8.54    2.81
  -2  14  -4    7.37    2.92
   2 -14  -4    7.08    2.52
  -2 -14   4   10.88    3.26
   2 -14  -4    9.46    3.18
  -3  14   1    3.52    1.90
   3 -14   1    0.83    1.78
  -3 -14  -1    2.39    1.71
  -3 -14  -1    0.27    1.62
   3 -14  -1    0.60    2.06
  -3 -14   1    0.55    1.55
  -3  14  -1    1.13    1.80
  -3 -14   1    2.78    1.86
  -3  14   3    2.58    1.95
   3 -14   3    1.51    2.25
  -3 -14  -3    2.02    2.15
   3 -14  -3    0.43    1.60
  -3 -14   3    0.20    1.74
   3 -14  -3   -0.14    1.67
  -3  14  -3   -1.17    1.72
   4 -14   0    4.35    2.73
  -4 -14   0    7.95    2.63
  -4  14   0   10.68    3.09
  -4 -14   0    8.26    2.95
  -4  14   2    4.22    2.24
  -4 -14  -2    5.44    2.51
   4 -14   2    4.09    2.57
  -4 -14  -2    2.72    1.97
   4 -14  -2    5.41    2.51
  -4 -14   2    5.17    2.45
  -4  14  -2    5.84    2.81
   4 -14  -2    6.87    2.95
  -4 -14  -4    7.94    3.50
   4 -14   4    7.54    3.14
   4 -14  -4    3.35    2.75
   4 -14  -4    6.40    3.00
  -4 -14   4    5.19    2.71
  -4  14  -4    4.40    2.72
  -5 -14  -1    0.05    1.62
  -5 -14  -1    2.84    2.17
  -5  14   1    0.71    2.13
   5 -14   1    0.36    2.19
   5 -14  -1    0.48    2.03
  -5  14  -1    1.68    2.08
  -5 -14   1    1.39    1.81
   5 -14  -1    1.48    2.25
  -5 -14  -3    1.00    2.56
  -5  14   3    0.78    1.98
  -5 -14  -3    1.69    2.53
   5 -14   3    1.76    2.17
  -5 -14   3    0.78    2.09
  -5  14  -3    0.55    1.89
   5 -14  -3   -0.89    1.74
   5 -14  -3    1.77    2.18
   6 -14   0   32.57    5.65
  -6  14   0   48.80    6.58
   6 -14   0   36.30    5.68
  -6 -14   0   55.58    6.98
   0  15  -1    0.42    1.28
   0 -15  -1    1.39    1.97
   0 -15   1   -0.64    1.46
   0 -15   3    1.20    1.83
   0  15  -3   -0.38    1.61
   0 -15  -3   -0.46    1.64
   0 -15   3   -0.12    1.47
   0 -15   5    1.79    2.05
   0 -15  -5   -0.95    1.98
   0  15  -5    0.53    1.96
  -1  15   0    0.67    1.62
   1 -15   0   -1.01    1.36
  -1 -15   0    1.91    1.87
   1 -15   2   33.80    5.19
  -1  15   2   41.56    4.59
   1  15  -2   42.99    4.84
  -1 -15  -2   44.20    6.00
  -1 -15   2   39.31    5.34
   1 -15  -2   40.99    4.85
  -1 -15   2   49.63    5.50
   1 -15  -2   43.25    6.22
  -1  15  -2   42.93    5.03
   1  15  -4    1.13    1.82
   1 -15   4   -0.46    1.68
   1 -15   4    1.20    2.25
  -1 -15  -4    1.92    2.38
  -1  15  -4   -0.57    1.72
  -1 -15   4    1.39    1.85
   1 -15  -4    2.68    2.56
   2 -15   1   12.50    3.64
  -2  15   1   12.68    2.93
  -2 -15  -1   16.35    3.86
  -2 -15   1   14.10    3.56
   2 -15  -1   13.36    3.72
  -2  15  -1   12.23    3.01
  -2 -15   1   17.52    3.44
   2 -15   3   12.81    3.82
  -2 -15  -3   13.81    3.83
  -2  15   3   10.63    2.77
  -2 -15   3   12.49    3.18
   2 -15  -3   14.75    4.08
   2 -15  -3   14.60    3.24
  -2  15  -3   12.74    3.23
  -3  15   0  148.84    8.32
  -3 -15   0  154.95    8.34
   3 -15   0  160.54    9.67
  -3 -15   0  150.71    7.97
  -3 -15  -2   40.53    5.79
   3 -15   2   35.30    5.78
  -3  15   2   37.78    5.06
   3 -15  -2   35.72    4.93
  -3  15  -2   46.77    5.93
  -3 -15   2   36.30    5.05
   3 -15   4  100.57    8.41
  -3 -15  -4   99.00    8.11
  -3  15  -4   95.49    8.91
   3 -15  -4   98.11    7.69
   3 -15  -4   98.43    7.08
  -3 -15   4  106.04    7.73
  -4 -15  -1   24.85    4.68
   4 -15   1   27.91    5.49
  -4 -15  -1   23.70    4.23
  -4  15   1   28.49    4.82
   4 -15  -1   18.98    3.88
  -4 -15   1   32.48    5.10
   4 -15  -1   24.24    5.06
  -4  15  -1   25.59    4.61
  -4 -15  -3   22.65    4.76
   4 -15   3   18.40    4.81
  -4  15   3   18.36    3.98
  -4  15  -3   20.71    4.33
   4 -15  -3   17.31    4.05
  -4 -15   3   26.60    5.00
   4 -15  -3   15.85    4.06
  -5 -15   0   46.13    6.38
   5 -15   0   49.66    7.28
  -5  15   0   42.61    5.73
   0 -16   0    3.48    2.14
   0 -16  -2   10.17    3.16
   0 -16   2    6.47    2.72
   0  16  -2    5.39    2.40
   0  16  -4    3.71    2.34
   0 -16   4    1.66    2.34
   0 -16  -4    4.56    2.90
  -1  16   1  154.25    7.51
   1 -16   1  162.07    9.36
  -1 -16  -1  162.90    9.13
  -1 -16   1  147.86    8.51
  -1  16  -1  161.62    8.13
   1 -16  -1  142.65    8.83
   1  16  -3  137.90   12.64
   1 -16   3  118.31    8.31
  -1 -16  -3  125.99    8.62
  -1 -16   3  133.94    7.97
  -1  16  -3  137.76    7.87
   1 -16  -3  132.16    8.95
   2 -16   0    6.26    2.72
  -2  16   0    8.26    2.63
  -2 -16   0    5.87    2.59
  -2 -16  -2    4.70    2.42
   2 -16   2    1.49    2.17
  -2  16   2    5.01    2.33
   2 -16  -2    5.21    2.60
  -2 -16   2    3.73    2.10
   2 -16  -2    3.47    2.23
  -2  16  -2    3.36    2.15
   3 -16   1   31.83    5.86
  -3 -16  -1   24.76    4.62
  -3  16   1   32.65    4.77
  -3  16  -1   27.08    4.52
   3 -16  -1   27.78    4.56
  -3 -16   1   34.56    5.27
   3 -16  -1   36.11    6.21
  -3 -16  -3   33.02    5.82
   3 -16   3   28.79    5.93
  -3  16   3   26.38    4.60
  -3 -16   3   23.38    4.44
   3 -16  -3   26.14    4.65
  -3  16  -3   25.13    4.52
  -4 -16   0    4.90    2.67
   4 -16   0    5.81    2.87
  -4  16   0   -1.67    1.62
   0 -17   1   -0.92    1.48
   0 -17  -1   -0.08    1.83
   0 -17  -3   -1.13    1.74
   0 -17   3    0.44    2.09
   0  17  -3    1.28    1.84
   1 -17   0   19.93    4.29
  -1  17   0   28.47    4.39
  -1 -17   0   32.39    5.59
   1 -17   2    2.22    2.31
  -1 -17  -2   -0.80    1.76
  -1 -17   2   -0.94    1.74
   1 -17  -2    2.92    2.54
  -1  17  -2    1.07    1.64
  -2 -17  -1   13.18    3.98
   2 -17   1   10.98    3.79
  -2  17   1   12.99    3.39
  -2  17  -1    7.84    2.80
   2 -17  -1    8.60    3.26
   2 -17  -1   10.37    3.05
  -2 -17   1   10.01    3.17
  -3  17   0   27.87    4.90
  -3 -17   0   20.52    4.40
   3 -17   0   18.36    4.49
   0 -18   0   31.70    5.72
  -1 -18  -1   -0.32    2.25
   1 -18   1   -1.58    2.03
  -1 -18   1    0.39    2.15
   1 -18  -1    1.83    2.49
  -1  18  -1   -2.75    2.63
   0   0   0    0.00    0.00
;
_shelx_hkl_checksum              87753
_shelx_res_file
;
TITL shelx_a.res in Ibam
    shelx.res
    created by SHELXL-2018/3 at 09:34:31 on 08-Apr-2020
REM Old TITL shelx in Ibam
REM SHELXT solution in Ibam: R1 0.027, Rweak 0.003, Alpha 0.003
REM <I/s> 0.380 for 39 systematic absences, Orientation as input
REM Formula found by SHELXT: P2 Zn Ba2
CELL 0.71073 6.7557 13.1078 6.385 90 90 90
ZERR 4 0.0042 0.0082 0.0041 0 0 0
LATT 2
SYMM -X,-Y,+Z
SYMM 0.5-X,0.5+Y,-Z
SYMM 0.5+X,0.5-Y,-Z
SFAC Ba P Zn
UNIT 8 8 4
L.S. 4
PLAN  1
SIZE 0.031 0.038 0.053
TEMP -73.15
CONF
list 4
MORE -1
fmap 2
acta
REM <olex2.extras>
REM <HklSrc "%.\\shelx.hkl">
REM </olex2.extras>
WGHT    0.016300
EXTI    0.001417
FVAR       0.07417
BA    1    0.191184    0.359703    0.000000    10.50000    0.01154    0.01068 =
         0.01215    0.00000    0.00000   -0.00097
ZN    3    0.000000    0.000000    0.250000    10.25000    0.01049    0.01172 =
         0.01089    0.00000    0.00000    0.00000
P     2    0.200082    0.106494    0.000000    10.50000    0.01173    0.01003 =
         0.01047    0.00000    0.00000   -0.00183
HKLF 4
REM  shelx_a.res in Ibam
REM wR2 = 0.0366, GooF = S = 1.039, Restrained GooF = 1.039 for all data
REM R1 = 0.0177 for 396 Fo > 4sig(Fo) and 0.0216 for all 437 data
REM 17 parameters refined using 0 restraints
END
WGHT      0.0163      0.0000
REM Highest difference peak  1.115,  deepest hole -0.862,  1-sigma level  0.201
Q1    1   0.0000  0.2726  0.2500  10.50000  0.05    1.11
;
_shelx_res_checksum              64742
loop_
_space_group_symop_operation_xyz
'x, y, z'
'-x, -y, z'
'-x+1/2, y+1/2, -z'
'x+1/2, -y+1/2, -z'
'x+1/2, y+1/2, z+1/2'
'-x+1/2, -y+1/2, z+1/2'
'-x+1, y+1, -z+1/2'
'x+1, -y+1, -z+1/2'
'-x, -y, -z'
'x, y, -z'
'x-1/2, -y-1/2, z'
'-x-1/2, y-1/2, z'
'-x+1/2, -y+1/2, -z+1/2'
'x+1/2, y+1/2, -z+1/2'
'x, -y, z+1/2'
'-x, y, z+1/2'
loop_
_atom_site_type_symbol
_atom_site_label
_atom_site_fract_x
_atom_site_fract_y
_atom_site_fract_z
_atom_site_U_iso_or_equiv
_atom_site_adp_type
_atom_site_calc_flag
_atom_site_occupancy
_atom_site_disorder_assembly
_atom_site_disorder_group
Ba Ba 0.19118(4) 0.35970(2) 0.000000 0.01146(12) Uani d 1 . .
Zn Zn 0.000000 0.000000 0.250000 0.01103(19) Uani d 1 . .
P P 0.20008(18) 0.10649(10) 0.000000 0.0107(3) Uani d 1 . .
loop_
_atom_site_aniso_label
_atom_site_aniso_U_11
_atom_site_aniso_U_22
_atom_site_aniso_U_33
_atom_site_aniso_U_12
_atom_site_aniso_U_13
_atom_site_aniso_U_23
Ba 0.01154(17) 0.01068(17) 0.01215(17) -0.00097(11) 0.000 0.000
Zn 0.0105(4) 0.0117(4) 0.0109(4) 0.000 0.000 0.000
P 0.0117(6) 0.0100(6) 0.0105(6) -0.0018(5) 0.000 0.000
loop_
_atom_type_symbol
_atom_type_description
_atom_type_scat_dispersion_real
_atom_type_scat_dispersion_imag
_atom_type_scat_source
Ba Ba -0.3244 2.2819 'International Tables Vol C Tables 4.2.6.8 and 6.1.1.4'
P P 0.1023 0.0942 'International Tables Vol C Tables 4.2.6.8 and 6.1.1.4'
Zn Zn 0.2839 1.4301 'International Tables Vol C Tables 4.2.6.8 and 6.1.1.4'
loop_
_exptl_crystal_face_index_h
_exptl_crystal_face_index_k
_exptl_crystal_face_index_l
_exptl_crystal_face_perp_dist
3.00 3.00 1.00 0.0120
1.00 -1.00 0.00 0.0200
-2.00 -4.00 -1.00 0.0180
1.00 4.00 1.00 0.0180
-1.00 -4.00 -1.00 0.0180
4.00 4.00 -1.00 0.0100
-3.00 -4.00 1.00 0.0200
-3.00 4.00 -1.00 0.0130
0.00 1.00 -2.00 0.0210
-1.00 -1.00 3.00 0.0250
1.00 -2.00 1.00 0.0100
loop_
_geom_angle_atom_site_label_1
_geom_angle_atom_site_label_2
_geom_angle_atom_site_label_3
_geom_angle_site_symmetry_1
_geom_angle_site_symmetry_3
_geom_angle
_geom_angle_publ_flag
Ba Ba Ba 7_444 13 133.03(3) ?
Ba Ba Ba 7_445 13 63.03(3) ?
Ba Ba Ba 13_554 13 93.87(5) ?
Ba Ba Ba 7_445 13_554 133.03(3) ?
Ba Ba Ba 7_444 13_554 63.03(3) ?
Ba Ba Ba 7_444 7_445 102.05(5) ?
Zn Ba Ba 13 7_445 91.28(4) ?
Zn Ba Ba 13 13 84.00(4) ?
Zn Ba Ba 5_554 13_554 84.00(4) ?
Zn Ba Ba 5_554 7_444 91.28(4) ?
Zn Ba Ba 5_554 7_445 142.77(2) ?
Zn Ba Ba 13 7_444 142.77(2) ?
Zn Ba Ba 5_554 13 128.52(3) ?
Zn Ba Ba 13 13_554 128.52(3) ?
Zn Ba Zn 13 5_554 59.71(4) ?
Zn Ba P 13 3 45.31(2) ?
Zn Ba P 5_554 11_665 44.06(2) ?
Zn Ba P 13 13 45.40(2) ?
Zn Ba P 5_554 13_554 45.40(2) ?
Zn Ba P 5_554 11_565 124.68(3) ?
Zn Ba P 5_554 13 105.03(4) ?
Zn Ba P 13 11_565 124.68(3) ?
Zn Ba P 13 13_554 105.03(4) ?
Zn Ba P 13 . 124.17(3) ?
Zn Ba P 5_554 3 45.31(2) ?
Zn Ba P 13 11_665 44.06(2) ?
Zn Ba P 5_554 . 124.17(3) ?
P Ba Ba 13_554 7_444 52.34(4) ?
P Ba Ba 11_565 13 105.509(19) ?
P Ba Ba 13 13 48.87(4) ?
P Ba Ba . 13_554 48.60(3) ?
P Ba Ba 11_565 13_554 105.509(19) ?
P Ba Ba 3 13 126.98(3) ?
P Ba Ba 13_554 13 138.88(3) ?
P Ba Ba 3 7_444 98.006(17) ?
P Ba Ba 3 13_554 126.98(3) ?
P Ba Ba 13 7_444 152.94(3) ?
P Ba Ba . 13 48.60(3) ?
P Ba Ba 11_665 13 84.48(2) ?
P Ba Ba 11_565 7_445 51.43(3) ?
P Ba Ba 11_665 13_554 84.48(2) ?
P Ba Ba 11_665 7_445 128.60(3) ?
P Ba Ba 3 7_445 98.006(17) ?
P Ba Ba 13_554 13_554 48.87(4) ?
P Ba Ba 11_565 7_444 51.43(3) ?
P Ba Ba 13 7_445 52.34(4) ?
P Ba Ba 13 13_554 138.88(3) ?
P Ba Ba 13_554 7_445 152.94(3) ?
P Ba Ba 11_665 7_444 128.60(3) ?
P Ba Ba . 7_445 90.653(14) ?
P Ba Ba . 7_444 90.653(14) ?
P Ba P 13 3 79.64(3) ?
P Ba P 13 13_554 149.92(5) ?
P Ba P 11_565 11_665 165.05(5) ?
P Ba P 3 . 166.169(16) ?
P Ba P . 11_665 96.31(3) ?
P Ba P 3 11_565 95.19(4) ?
P Ba P 13_554 11_665 76.26(2) ?
P Ba P 13 . 97.47(3) ?
P Ba P 13_554 11_565 101.68(3) ?
P Ba P 13 11_565 101.68(3) ?
P Ba P . 11_565 98.64(3) ?
P Ba P 13 11_665 76.26(2) ?
P Ba P 13_554 3 79.64(3) ?
P Ba P 13_554 . 97.47(3) ?
P Ba P 3 11_665 69.86(4) ?
Ba Zn Ba 13 11_565 110.01(4) ?
Ba Zn Ba 13 3_545 98.82(4) ?
Ba Zn Ba 11_565 3_545 120.29(4) ?
Ba Zn Ba 13 5_445 120.29(4) ?
Ba Zn Ba 5_445 3_545 110.01(4) ?
Ba Zn Ba 5_445 11_565 98.82(4) ?
P Zn Ba 7_445 3_545 169.75(2) ?
P Zn Ba 7_445 11_565 69.39(5) ?
P Zn Ba 15 5_445 73.46(5) ?
P Zn Ba . 5_445 169.75(2) ?
P Zn Ba 15 13 69.67(5) ?
P Zn Ba 9 5_445 69.39(4) ?
P Zn Ba 9 11_565 69.67(5) ?
P Zn Ba . 13 69.39(5) ?
P Zn Ba . 3_545 69.67(5) ?
P Zn Ba . 11_565 73.46(5) ?
P Zn Ba 15 3_545 69.39(5) ?
P Zn Ba 9 3_545 73.46(5) ?
P Zn Ba 7_445 5_445 69.67(5) ?
P Zn Ba 9 13 169.75(2) ?
P Zn Ba 15 11_565 169.75(2) ?
P Zn Ba 7_445 13 73.46(5) ?
P Zn P 15 7_445 101.19(6) ?
P Zn P . 15 114.97(7) ?
P Zn P . 9 101.19(6) ?
P Zn P . 7_445 112.56(7) ?
P Zn P 9 15 112.56(7) ?
P Zn P 9 7_445 114.97(7) ?
Ba P Ba 3_545 . 168.24(4) ?
Ba P Ba 3_545 11_665 84.81(4) ?
Ba P Ba 3_545 11_565 110.14(4) ?
Ba P Ba 13 . 82.53(2) ?
Ba P Ba 13 11_565 101.73(3) ?
Ba P Ba 13_554 11_565 101.73(3) ?
Ba P Ba 13 13_554 149.92(5) ?
Ba P Ba 13_554 11_665 76.23(2) ?
Ba P Ba 13 3_545 94.67(3) ?
Ba P Ba 13_554 . 82.53(3) ?
Ba P Ba 13_554 3_545 94.67(3) ?
Ba P Ba . 11_665 83.43(3) ?
Ba P Ba 11_665 11_565 165.05(5) ?
Ba P Ba 13 11_665 76.23(2) ?
Ba P Ba . 11_565 81.62(3) ?
Zn P Ba . 11_665 127.32(4) ?
Zn P Ba . . 123.04(4) ?
Zn P Ba . 13_554 143.79(4) ?
Zn P Ba 9 3_545 65.02(4) ?
Zn P Ba 9 . 123.04(4) ?
Zn P Ba . 11_565 62.47(3) ?
Zn P Ba . 3_545 65.02(4) ?
Zn P Ba . 13 65.22(3) ?
Zn P Ba 9 11_565 62.47(3) ?
Zn P Ba 9 11_665 127.32(4) ?
Zn P Ba 9 13_554 65.22(3) ?
Zn P Ba 9 13 143.79(4) ?
Zn P Zn 9 . 78.81(6) ?
loop_
_geom_bond_atom_site_label_1
_geom_bond_atom_site_label_2
_geom_bond_site_symmetry_2
_geom_bond_distance
_geom_bond_publ_flag
Ba Ba 7_445 4.1067(19) ?
Ba Ba 13_554 4.370(2) ?
Ba Ba 13 4.3698(19) ?
Ba Ba 7_444 4.1067(19) ?
Ba Zn 5_554 3.2066(12) ?
Ba Zn 13 3.2066(12) ?
Ba P 11_565 3.347(2) ?
Ba P 11_665 3.466(2) ?
Ba P . 3.320(2) ?
Ba P 13 3.306(2) ?
Ba P 3 3.317(2) ?
Ba P 13_554 3.306(2) ?
Zn P . 2.5147(14) ?
Zn P 7_445 2.5147(14) ?
Zn P 9 2.5147(14) ?
Zn P 15 2.5147(14) ?

_cod_database_fobs_code 2022224
