#------------------------------------------------------------------------------
#$Date: 2022-07-23 06:54:42 +0300 (Sat, 23 Jul 2022) $
#$Revision: 276892 $
#$URL: file:///home/coder/svn-repositories/cod/cif/2/02/26/2022648.cif $
#------------------------------------------------------------------------------
#
# This file is available in the Crystallography Open Database (COD),
# http://www.crystallography.net/. The original data for this entry
# were provided by IUCr Journals, http://journals.iucr.org/.
#
# The file may be used within the scientific community so long as
# proper attribution is given to the journal article from which the
# data were obtained.
#
data_2022648
loop_
_publ_author_name
'Jeyaraman Selvaraj, Nirmalram'
'Sathya, Udhayasuriyan'
'Gomathi, Sundaramoorthy'
'Jegan Jennifer, Samson'
'Mathivathanan, Logesh'
'Abdul Razak, Ibrahim'
_publ_section_title
;
 Synthesis, crystal structure determination and Hirshfeld surface analysis
 of three new salt forms of creatinine with hydrobromic acid,
 3-aminobenzoic acid and 3,5-dinitrobenzoic acid
;
_journal_coeditor_code           DG3030
_journal_issue                   8
_journal_name_full               'Acta Crystallographica Section C'
_journal_page_first
;
;
_journal_paper_doi               10.1107/S2053229622006684
_journal_volume                  78
_journal_year                    2022
_chemical_formula_iupac          'C7 H6 N O2 +, C4 H8 N3 O -'
_chemical_formula_moiety         'C7 H6 N O2 +, C4 H8 N3 O -'
_chemical_formula_sum            'C11 H14 N4 O3'
_chemical_formula_weight         250.26
_chemical_name_common
;
Creatininium 3-aminobenzoate
;
_chemical_name_systematic
;
2-Amino-1-methyl-4-oxo-4,5-dihydro-1<i>H</i>-imidazol-3-ium 3-aminobenzoate
;
_space_group_crystal_system      monoclinic
_space_group_IT_number           4
_space_group_name_Hall           'P 2yb'
_space_group_name_H-M_alt        'P 1 21 1'
_atom_sites_solution_hydrogens   mixed
_audit_creation_method           SHELXL-2018/3
_cell_angle_alpha                90
_cell_angle_beta                 102.080(2)
_cell_angle_gamma                90
_cell_formula_units_Z            2
_cell_length_a                   7.9887(4)
_cell_length_b                   6.6098(3)
_cell_length_c                   11.4753(6)
_cell_measurement_reflns_used    3487
_cell_measurement_temperature    296(2)
_cell_measurement_theta_max      30.2
_cell_measurement_theta_min      1.8
_cell_volume                     592.52(5)
_computing_cell_refinement
;
SAINT (Bruker, 2016)
;
_computing_data_collection
;
APEX2 (Bruker, 2016)
;
_computing_data_reduction
;
SAINT (Bruker, 2016)
;
_computing_molecular_graphics
;
PLATON (Spek, 2020), Mercury (Macrae <i>et al.</i>, 2020)
and POVRay (Cason, 2004)
;
_computing_publication_material
;
PLATON (Spek, 2020) and publCIF (Westrip, 2010)
;
_computing_structure_refinement
;
SHELXL2018 (Sheldrick, 2015<i>b</i>)
;
_computing_structure_solution
;
SHELXT2018 (Sheldrick, 2015<i>a</i>)
;
_diffrn_ambient_temperature      296(2)
_diffrn_measured_fraction_theta_full 1.000
_diffrn_measured_fraction_theta_max 0.996
_diffrn_measurement_device_type  'Bruker APEXII CCD'
_diffrn_measurement_method       '\f and \w scans'
_diffrn_radiation_type           MoK\a
_diffrn_radiation_wavelength     0.71073
_diffrn_reflns_av_R_equivalents  0.0288
_diffrn_reflns_av_unetI/netI     0.0302
_diffrn_reflns_limit_h_max       11
_diffrn_reflns_limit_h_min       -11
_diffrn_reflns_limit_k_max       9
_diffrn_reflns_limit_k_min       -9
_diffrn_reflns_limit_l_max       16
_diffrn_reflns_limit_l_min       -16
_diffrn_reflns_number            12356
_diffrn_reflns_theta_full        25.242
_diffrn_reflns_theta_max         30.155
_diffrn_reflns_theta_min         1.815
_exptl_absorpt_coefficient_mu    0.105
_exptl_absorpt_correction_T_max  0.7454
_exptl_absorpt_correction_T_min  0.5258
_exptl_absorpt_correction_type   multi-scan
_exptl_absorpt_process_details
;
(SADABS; Bruker, 2016)
;
_exptl_crystal_colour            colourless
_exptl_crystal_density_diffrn    1.403
_exptl_crystal_description       plate
_exptl_crystal_F_000             264
_exptl_crystal_size_max          0.580
_exptl_crystal_size_mid          0.310
_exptl_crystal_size_min          0.290
_refine_diff_density_max         0.207
_refine_diff_density_min         -0.227
_refine_ls_abs_structure_details
;
Flack <i>x</i> determined using 1054 quotients [(I+)-(I-)]/[(I+)+(I-)]
(Parsons <i>et al.</i>, 2013)
;
_refine_ls_abs_structure_Flack   -0.3(5)
_refine_ls_extinction_method     none
_refine_ls_goodness_of_fit_ref   1.041
_refine_ls_hydrogen_treatment    mixed
_refine_ls_matrix_type           full
_refine_ls_number_parameters     168
_refine_ls_number_reflns         3487
_refine_ls_number_restraints     1
_refine_ls_restrained_S_all      1.041
_refine_ls_R_factor_all          0.0589
_refine_ls_R_factor_gt           0.0458
_refine_ls_shift/su_max          0.000
_refine_ls_shift/su_mean         0.000
_refine_ls_structure_factor_coef Fsqd
_refine_ls_weighting_details
'w=1/[\s^2^(Fo^2^)+(0.0741P)^2^+0.0054P] where P=(Fo^2^+2Fc^2^)/3'
_refine_ls_weighting_scheme      calc
_refine_ls_wR_factor_gt          0.1159
_refine_ls_wR_factor_ref         0.1264
_reflns_number_gt                2802
_reflns_number_total             3487
_reflns_threshold_expression     'I > 2\s(I)'
_cod_data_source_file            dg3030sup1.cif
_cod_data_source_block           II
_cod_original_sg_symbol_H-M      'P 21'
_cod_database_code               2022648
_shelx_space_group_comment
;
The symmetry employed for this shelxl refinement is uniquely defined
by the following loop, which should always be used as a source of
symmetry information in preference to the above space-group names.
They are only intended as comments.
;
_shelx_estimated_absorpt_t_min   0.942
_shelx_estimated_absorpt_t_max   0.970
_shelx_hkl_file
;
   1   0   0   10.28    0.23
   1   0   0   10.26    0.23
   1   0   0   10.25    0.26
  -1   0   0   10.47    0.26
  -1   0   0   10.28    0.26
  -1   0   0   10.39    0.23
   2   0   0   26.27    0.54
  -2   0   0   25.10    0.54
  -2   0   0   24.84    0.59
   2   0   0   25.46    0.52
   2   0   0   24.72    0.54
  -2   0   0   25.09    0.52
   2   0   0   25.35    0.59
  -2   0   0   24.94    0.59
  -3   0   0    3.99    0.18
  -3   0   0    4.04    0.16
   3   0   0    3.99    0.18
  -3   0   0    3.61    0.21
   3   0   0    3.78    0.16
   3   0   0    4.00    0.18
  -3   0   0    4.18    0.22
   3   0   0    3.50    0.21
  -4   0   0   13.58    0.50
  -4   0   0   12.44    0.40
   4   0   0   13.98    0.42
  -4   0   0   13.44    0.39
   4   0   0   13.46    0.50
   4   0   0   14.41    0.43
  -5   0   0    7.12    0.39
   5   0   0    7.38    0.40
  -5   0   0    6.82    0.30
  -5   0   0    7.09    0.28
   5   0   0    6.76    0.31
   5   0   0    7.13    0.31
  -6   0   0   12.50    0.41
   6   0   0   12.62    0.48
   6   0   0   11.20    0.55
   6   0   0   12.51    0.46
  -6   0   0   11.91    0.56
  -7   0   0    6.13    0.44
   7   0   0    6.20    0.33
   7   0   0    6.62    0.36
   7   0   0    7.00    0.47
   8   0   0    0.48    0.19
  -8   0   0    0.65    0.20
  -9   0   0    0.25    0.15
 -10   0   0    0.55    0.20
   0  -1   0   -0.27    0.02
   0   1   0   -0.31    0.02
   0   1   0   -0.29    0.02
   0   1   0   -0.22    0.03
   0   1   0   -0.29    0.02
   0   1   0   -0.31    0.02
   1  -1   0   36.13    0.67
   1  -1   0   35.31    0.74
  -1  -1   0   35.36    0.63
  -1  -1   0   35.75    0.71
  -1  -1   0   35.35    0.71
   1  -1   0   35.12    0.75
   1   1   0   35.12    0.73
   1   1   0   34.90    0.71
  -1   1   0   35.46    0.73
   1   1   0   35.67    0.74
  -1   1   0   30.28    0.73
  -1   1   0   35.65    0.72
  -1   1   0   35.87    0.65
   1   1   0   36.69    0.63
  -2  -1   0  261.44    4.62
  -2  -1   0  270.17    4.63
   2  -1   0  266.31    4.66
   2  -1   0  270.96    4.51
  -2  -1   0  264.06    4.61
   2   1   0  268.23    4.62
  -2   1   0  268.67    4.63
   2   1   0  267.75    4.63
   2   1   0  267.24    4.63
  -2   1   0  262.47    4.63
  -2   1   0  234.02    4.63
   3  -1   0   21.26    0.56
  -3  -1   0   20.39    0.56
   3  -1   0   20.67    0.61
   3  -1   0   20.36    0.47
  -3  -1   0   19.80    0.58
  -3  -1   0   21.37    0.58
  -3   1   0   19.88    0.58
   3   1   0   20.33    0.58
  -3   1   0   20.21    0.60
  -3   1   0   20.28    0.38
   3   1   0   20.19    0.56
   3   1   0   20.19    0.56
  -3   1   0   20.22    0.56
   3   1   0   20.76    0.44
   4  -1   0   11.42    0.41
  -4  -1   0   11.22    0.45
  -4  -1   0   11.65    0.41
   4  -1   0   10.91    0.46
   4  -1   0   11.05    0.35
  -4   1   0   11.80    0.46
   4   1   0   11.26    0.40
   4   1   0   11.14    0.45
  -4   1   0   11.24    0.42
   4   1   0   11.56    0.32
  -4   1   0   11.35    0.26
   4   1   0   11.59    0.42
  -5  -1   0    4.07    0.25
   5  -1   0    4.99    0.28
  -5  -1   0    4.14    0.30
   5  -1   0    4.56    0.23
   5  -1   0    4.64    0.32
   5   1   0    4.68    0.31
  -5   1   0    4.72    0.16
   5   1   0    4.59    0.28
  -5   1   0    4.48    0.31
   5   1   0    4.87    0.21
  -5   1   0    4.77    0.28
   5   1   0    4.51    0.26
  -6  -1   0    0.96    0.16
   6  -1   0    1.03    0.17
   6  -1   0    1.08    0.15
  -6  -1   0    1.33    0.22
   6  -1   0    1.22    0.22
  -6   1   0    0.91    0.19
   6   1   0    1.40    0.15
   6   1   0    1.44    0.20
  -6   1   0    1.28    0.19
   6   1   0    1.26    0.23
  -7  -1   0    3.33    0.39
   7  -1   0    3.98    0.44
  -7  -1   0    4.26    0.28
   7  -1   0    4.11    0.30
  -7   1   0    3.30    0.38
  -7   1   0    4.62    0.32
   7   1   0    4.21    0.44
   7   1   0    3.98    0.31
   8  -1   0    2.03    0.28
   8  -1   0    2.33    0.36
  -8  -1   0    2.04    0.33
   8   1   0    2.76    0.37
   8   1   0    2.57    0.31
  -8   1   0    1.49    0.29
  -9  -1   0    4.32    0.51
  -9   1   0    4.07    0.49
 -10  -1   0    1.47    0.32
 -10   1   0    0.84    0.24
   0  -2   0  215.04    3.82
   0   2   0  219.12    3.83
   0   2   0  212.44    3.76
   0   2   0  214.93    3.78
   0   2   0  214.51    3.81
   0   2   0  211.76    3.80
   1  -2   0    0.63    0.08
  -1  -2   0    0.74    0.12
  -1  -2   0    0.71    0.10
   1  -2   0    0.53    0.10
   1  -2   0    0.90    0.13
  -1  -2   0    0.67    0.09
  -1   2   0    0.81    0.09
  -1   2   0    0.75    0.12
   1   2   0    0.50    0.10
   1   2   0    0.64    0.10
  -1   2   0    0.68    0.10
   1   2   0    0.73    0.11
   1   2   0    0.72    0.07
  -1   2   0    0.74    0.09
  -1   2   0    0.59    0.10
  -1   2   0    0.81    0.11
  -2  -2   0   71.23    1.41
   2  -2   0   67.95    1.47
   2  -2   0   68.26    1.31
  -2  -2   0   70.03    1.40
  -2  -2   0   70.47    1.47
   2  -2   0   70.51    1.47
  -2   2   0   67.74    1.42
  -2   2   0   68.89    1.44
   2   2   0   70.28    1.23
   2   2   0   67.97    1.46
  -2   2   0   69.42    1.27
   2   2   0   68.77    1.45
   2   2   0   69.54    1.41
  -3  -2   0    8.22    0.34
   3  -2   0    8.16    0.38
  -3  -2   0    8.20    0.37
  -3  -2   0    8.80    0.35
   3  -2   0    8.35    0.26
   3   2   0    8.58    0.37
  -3   2   0    8.15    0.35
   3   2   0    8.82    0.19
   3   2   0    8.27    0.36
  -3   2   0    7.86    0.36
   3   2   0    8.16    0.34
   4  -2   0   11.76    0.50
   4  -2   0   11.56    0.34
  -4  -2   0   11.95    0.47
   4  -2   0   12.16    0.47
  -4  -2   0   11.95    0.47
  -4   2   0   11.15    0.47
  -4   2   0   11.36    0.46
   4   2   0   11.06    0.45
   4   2   0   10.38    0.45
   4   2   0   10.49    0.45
   4   2   0   10.92    0.26
  -5  -2   0    0.46    0.13
   5  -2   0    0.32    0.12
  -5  -2   0    0.27    0.10
   5  -2   0    0.28    0.07
   5  -2   0    0.41    0.12
   5   2   0    0.44    0.07
   5   2   0    0.37    0.12
  -5   2   0    0.18    0.09
  -5   2   0    0.38    0.12
   5   2   0    0.40    0.11
   5   2   0    0.41    0.12
   6  -2   0    1.72    0.24
   6  -2   0    1.33    0.23
  -6  -2   0    1.68    0.24
  -6  -2   0    1.71    0.26
   6   2   0    1.46    0.22
  -6   2   0    1.79    0.24
  -6   2   0    1.91    0.28
   6   2   0    1.39    0.24
   6   2   0    2.08    0.27
  -7  -2   0   10.92    0.53
   7  -2   0   10.51    0.53
   7  -2   0   11.68    0.63
  -7  -2   0   11.26    0.60
   7   2   0   10.61    0.54
  -7   2   0    9.72    0.57
   7   2   0   10.10    0.56
  -7   2   0   11.06    0.55
   8  -2   0    2.28    0.31
  -8  -2   0    2.56    0.37
   8   2   0    2.87    0.36
  -8   2   0    2.31    0.32
  -8   2   0    3.01    0.41
   8   2   0    2.26    0.34
   9  -2   0    5.20    0.50
  -9  -2   0    4.44    0.52
  -9   2   0    3.77    0.49
 -10  -2   0   -0.19    0.13
 -10   2   0   -0.01    0.16
   0  -3   0   -0.02    0.03
   0  -3   0   -0.05    0.03
   0  -3   0   -0.01    0.04
   0  -3   0    0.00    0.04
   0   3   0    0.04    0.05
   0   3   0   -0.04    0.03
   0   3   0    0.00    0.04
   0   3   0   -0.02    0.03
   0   3   0   -0.02    0.03
   1  -3   0   22.92    0.68
   1  -3   0   23.85    0.62
   1  -3   0   23.10    0.69
  -1  -3   0   22.52    0.68
   1  -3   0   23.59    0.61
  -1  -3   0   24.36    0.65
  -1  -3   0   22.48    0.61
   1   3   0   23.61    0.62
  -1   3   0   22.48    0.61
  -1   3   0   23.46    0.64
   1   3   0   22.64    0.65
  -1   3   0   23.16    0.61
   1   3   0   23.89    0.57
   1   3   0   22.71    0.68
  -1   3   0   22.73    0.64
   1   3   0   22.44    0.67
  -1   3   0   23.60    0.69
  -2  -3   0   16.23    0.52
  -2  -3   0   16.29    0.58
   2  -3   0   14.41    0.55
   2  -3   0   15.94    0.45
   2  -3   0   16.03    0.44
  -2  -3   0   17.07    0.52
  -2   3   0   15.88    0.54
   2   3   0   15.37    0.55
   2   3   0   16.31    0.39
  -2   3   0   16.63    0.54
  -2   3   0   15.64    0.44
   2   3   0   16.04    0.52
   2   3   0   16.35    0.58
   3  -3   0    5.18    0.32
   3  -3   0    5.95    0.20
  -3  -3   0    5.12    0.32
   3  -3   0    5.42    0.23
  -3  -3   0    6.54    0.32
  -3   3   0    5.06    0.30
   3   3   0    5.93    0.16
   3   3   0    5.47    0.33
   3   3   0    6.18    0.31
  -3   3   0    5.86    0.20
   3   3   0    6.17    0.35
  -3   3   0    5.93    0.33
  -4  -3   0    0.25    0.10
  -4  -3   0    0.32    0.10
   4  -3   0    0.13    0.09
   4  -3   0    0.26    0.10
   4  -3   0    0.31    0.07
   4   3   0    0.34    0.11
   4   3   0    0.29    0.11
  -4   3   0    0.29    0.10
   4   3   0    0.25    0.09
  -4   3   0    0.27    0.11
   5  -3   0    6.11    0.26
  -5  -3   0    6.27    0.39
   5  -3   0    5.50    0.38
   5  -3   0    5.00    0.35
  -5  -3   0    5.53    0.36
  -5   3   0    5.76    0.38
   5   3   0    4.82    0.35
   5   3   0    5.70    0.37
  -5   3   0    5.18    0.36
   5   3   0    5.78    0.36
  -6  -3   0    3.74    0.39
  -6  -3   0    4.68    0.36
   6  -3   0    4.40    0.46
   6  -3   0    3.72    0.38
   6   3   0    4.11    0.33
  -6   3   0    4.20    0.43
  -6   3   0    3.41    0.38
   6   3   0    4.03    0.32
   6   3   0    3.40    0.38
  -7  -3   0    0.45    0.15
   7  -3   0    0.28    0.13
   7  -3   0    0.20    0.12
  -7  -3   0    0.17    0.12
   7   3   0    0.25    0.12
   7   3   0    0.49    0.16
  -7   3   0    0.44    0.17
  -7   3   0    0.21    0.13
   7   3   0    0.41    0.15
   8  -3   0    0.08    0.11
  -8  -3   0   -0.09    0.08
  -8  -3   0    0.03    0.10
  -8   3   0    0.12    0.13
   8   3   0    0.26    0.14
  -8   3   0    0.02    0.10
   8   3   0    0.06    0.11
   9  -3   0    0.71    0.24
  -9  -3   0    0.29    0.16
  -9   3   0    0.47    0.19
   9   3   0    0.60    0.21
  -9   3   0    0.46    0.20
  10  -3   0    0.98    0.29
 -10  -3   0    1.34    0.32
 -10   3   0    1.55    0.36
   0  -4   0   63.83    1.41
   0  -4   0   61.27    1.46
   0  -4   0   62.86    1.48
   0   4   0   62.89    1.45
   0   4   0   67.22    1.49
   0   4   0   64.68    1.41
   0   4   0   64.82    1.40
   0   4   0   64.34    1.49
  -1  -4   0    7.76    0.35
  -1  -4   0    7.86    0.40
   1  -4   0    7.97    0.36
   1  -4   0    8.02    0.40
   1  -4   0    7.70    0.35
  -1   4   0    8.46    0.38
   1   4   0    7.43    0.39
  -1   4   0    8.62    0.38
   1   4   0    8.65    0.33
  -1   4   0    8.07    0.36
  -1   4   0    7.62    0.40
   1   4   0    7.45    0.38
   1   4   0    7.73    0.35
  -1   4   0    7.81    0.36
   1   4   0    7.50    0.39
  -2  -4   0   58.04    1.33
   2  -4   0   57.45    1.44
   2  -4   0   59.06    1.27
   2  -4   0   57.21    1.27
  -2  -4   0   57.77    1.45
  -2   4   0   56.05    1.39
  -2   4   0   56.65    1.36
   2   4   0   57.59    1.37
  -2   4   0   59.43    1.29
  -2   4   0   57.24    1.26
   2   4   0   59.81    1.45
  -2   4   0   57.65    1.45
   2   4   0   57.83    1.18
   2   4   0   57.32    1.45
   3  -4   0   17.23    0.53
  -3  -4   0   17.71    0.69
   3  -4   0   16.20    0.67
  -3  -4   0   17.58    0.61
   3  -4   0   16.63    0.48
   3   4   0   18.06    0.63
   3   4   0   17.57    0.69
  -3   4   0   17.86    0.65
   3   4   0   16.96    0.69
  -3   4   0   17.74    0.49
   3   4   0   17.21    0.42
  -3   4   0   17.88    0.67
   4  -4   0    5.30    0.26
  -4  -4   0    5.74    0.40
   4  -4   0    5.41    0.39
  -4  -4   0    5.36    0.34
   4  -4   0    5.57    0.36
   4   4   0    6.27    0.41
   4   4   0    5.43    0.34
   4   4   0    5.27    0.38
  -4   4   0    4.82    0.35
  -4   4   0    5.24    0.36
  -5  -4   0    2.91    0.33
   5  -4   0    2.53    0.34
   5  -4   0    2.58    0.33
  -5  -4   0    2.51    0.34
  -5   4   0    3.18    0.37
   5   4   0    2.61    0.34
  -5   4   0    3.47    0.38
   5   4   0    2.14    0.31
   5   4   0    2.84    0.32
  -6  -4   0    0.34    0.14
   6  -4   0    0.38    0.15
   6  -4   0    0.27    0.13
  -6  -4   0    0.50    0.16
  -6   4   0    0.73    0.19
   6   4   0    0.75    0.20
   6   4   0    0.66    0.18
  -6   4   0    0.50    0.16
   6   4   0    0.36    0.16
  -7  -4   0    0.34    0.15
   7  -4   0    0.32    0.14
  -7  -4   0    0.44    0.17
  -7   4   0    0.81    0.23
  -7   4   0    0.42    0.16
   7   4   0    0.59    0.20
   7   4   0    1.05    0.25
   8  -4   0    0.43    0.19
  -8  -4   0    0.39    0.19
  -8  -4   0    0.41    0.18
   8   4   0    0.56    0.20
  -8   4   0    0.52    0.20
  -8   4   0    0.36    0.18
  -9  -4   0    0.23    0.16
  -9  -4   0    0.33    0.18
   9  -4   0    1.16    0.29
  -9   4   0    1.13    0.29
  -9   4   0    0.27    0.19
   9   4   0    0.68    0.24
   0  -5   0   -0.02    0.05
   0  -5   0   -0.03    0.05
   0  -5   0   -0.01    0.05
   0  -5   0   -0.01    0.05
   0   5   0   -0.01    0.06
   0   5   0    0.01    0.05
   0   5   0   -0.02    0.05
   0   5   0   -0.01    0.06
   0   5   0    0.04    0.07
   1  -5   0    0.71    0.16
   1  -5   0    0.87    0.16
  -1  -5   0    0.71    0.17
  -1  -5   0    0.90    0.16
   1  -5   0    0.52    0.13
  -1   5   0    0.79    0.16
  -1   5   0    0.52    0.13
  -1   5   0    0.44    0.12
   1   5   0    0.66    0.16
  -1   5   0    0.95    0.20
   1   5   0    0.68    0.17
   1   5   0    0.51    0.12
   1   5   0    0.71    0.13
   1   5   0    0.47    0.13
  -1   5   0    0.82    0.17
   2  -5   0    0.08    0.07
   2  -5   0    0.05    0.06
  -2  -5   0   -0.01    0.07
  -2  -5   0    0.04    0.06
   2  -5   0   -0.01    0.07
   2   5   0   -0.02    0.07
   2   5   0   -0.08    0.05
  -2   5   0    0.12    0.09
  -2   5   0    0.10    0.07
  -2   5   0   -0.02    0.08
  -2   5   0    0.04    0.05
  -2   5   0    0.02    0.05
   2   5   0   -0.02    0.04
   2   5   0   -0.02    0.05
  -3  -5   0    0.78    0.16
  -3  -5   0    1.05    0.22
   3  -5   0    0.75    0.14
   3  -5   0    0.86    0.19
   3  -5   0    0.69    0.17
   3   5   0    0.73    0.18
   3   5   0    1.22    0.21
  -3   5   0    0.71    0.16
   3   5   0    0.81    0.19
  -3   5   0    0.82    0.19
  -4  -5   0    3.59    0.42
   4  -5   0    3.48    0.38
  -4  -5   0    4.00    0.32
   4  -5   0    3.42    0.40
   4   5   0    3.83    0.42
   4   5   0    3.25    0.40
   4   5   0    3.73    0.31
  -4   5   0    4.19    0.42
  -4   5   0    2.94    0.36
  -5  -5   0    2.17    0.34
   5  -5   0    2.66    0.36
  -5  -5   0    1.94    0.28
   5  -5   0    2.40    0.35
  -5   5   0    1.82    0.30
  -5   5   0    2.12    0.32
   5   5   0    1.68    0.30
   5   5   0    1.82    0.27
   5   5   0    1.78    0.31
   6  -5   0    0.08    0.12
  -6  -5   0   -0.01    0.08
  -6  -5   0    0.05    0.10
   6   5   0    0.01    0.11
  -6   5   0    0.00    0.07
  -6   5   0    0.03    0.10
   6   5   0    0.03    0.10
   7  -5   0    3.79    0.46
  -7  -5   0    3.55    0.48
  -7  -5   0    3.55    0.44
  -7   5   0    3.58    0.47
   7   5   0    4.07    0.50
  -7   5   0    4.09    0.48
   7   5   0    3.97    0.49
  -8  -5   0    0.12    0.15
   8  -5   0   -0.09    0.15
  -8  -5   0    0.22    0.17
  -8   5   0    0.09    0.17
   8   5   0    0.12    0.15
  -8   5   0   -0.01    0.14
  -9  -5   0    1.41    0.34
  -9  -5   0    1.01    0.30
   9  -5   0    1.21    0.30
  -9   5   0    1.31    0.33
   9   5   0    1.37    0.35
  -9   5   0    1.75    0.37
   0  -6   0    6.92    0.40
   0  -6   0    5.85    0.39
   0  -6   0    6.06    0.40
   0  -6   0    5.49    0.40
   0  -6   0    6.32    0.37
   0   6   0    5.97    0.42
   0   6   0    6.15    0.41
   0   6   0    5.72    0.37
   0   6   0    5.85    0.37
   0   6   0    6.00    0.41
   1  -6   0    2.03    0.26
  -1  -6   0    1.74    0.23
  -1  -6   0    1.56    0.21
   1  -6   0    1.86    0.26
  -1  -6   0    1.84    0.29
   1  -6   0    1.97    0.27
   1  -6   0    1.92    0.27
  -1  -6   0    1.96    0.29
   1  -6   0    2.07    0.29
  -1   6   0    2.04    0.30
   1   6   0    2.12    0.30
  -1   6   0    2.19    0.29
  -1   6   0    1.77    0.26
   1   6   0    1.82    0.29
  -1   6   0    1.81    0.26
   1   6   0    1.93    0.28
  -1   6   0    2.03    0.27
   1   6   0    1.69    0.22
  -2  -6   0    0.52    0.18
   2  -6   0    0.70    0.18
  -2  -6   0    0.94    0.18
   2  -6   0    0.83    0.21
   2  -6   0    0.92    0.17
   2  -6   0    0.94    0.18
   2   6   0    0.87    0.22
  -2   6   0    0.64    0.15
   2   6   0    0.93    0.22
  -2   6   0    0.88    0.17
   2   6   0    0.61    0.18
  -2   6   0    0.85    0.19
  -2   6   0    0.62    0.19
   3  -6   0    3.48    0.28
  -3  -6   0    3.79    0.46
   3  -6   0    4.09    0.42
  -3  -6   0    3.87    0.31
   3  -6   0    4.05    0.44
   3   6   0    3.98    0.45
   3   6   0    3.85    0.40
  -3   6   0    3.63    0.41
   3   6   0    4.01    0.47
  -3   6   0    4.25    0.35
  -4  -6   0    2.38    0.36
   4  -6   0    3.44    0.43
  -4  -6   0    2.62    0.33
   4  -6   0    2.62    0.35
   4   6   0    2.33    0.36
  -4   6   0    3.46    0.42
  -4   6   0    3.62    0.42
   4   6   0    2.97    0.42
  -5  -6   0    0.93    0.24
   5  -6   0    1.06    0.24
  -5  -6   0    0.86    0.21
   5   6   0    1.20    0.28
  -5   6   0    0.59    0.20
   5   6   0    1.00    0.28
  -5   6   0    0.98    0.24
   6  -6   0    0.24    0.15
  -6  -6   0    0.09    0.14
  -6  -6   0    0.01    0.14
   6   6   0    0.09    0.12
  -6   6   0    0.37    0.17
  -6   6   0    0.16    0.16
   6   6   0   -0.09    0.10
   7  -6   0    0.37    0.19
  -7  -6   0    0.33    0.21
   7   6   0    0.44    0.20
  -7   6   0    0.60    0.23
  -7   6   0    0.24    0.17
   7   6   0    0.19    0.16
   8  -6   0    0.25    0.18
  -8  -6   0    0.18    0.19
  -8   6   0    0.01    0.18
   8   6   0    0.02    0.17
  -8   6   0    0.30    0.21
   0  -7   0    0.00    0.09
   0  -7   0    0.14    0.09
   0  -7   0    0.11    0.11
   0  -7   0   -0.04    0.08
   0  -7   0   -0.07    0.08
   0   7   0    0.08    0.11
   0   7   0   -0.01    0.08
   0   7   0    0.00    0.10
   0   7   0   -0.07    0.07
   0   7   0   -0.06    0.06
   1  -7   0    0.86    0.21
   1  -7   0    1.08    0.22
  -1  -7   0    0.77    0.21
  -1  -7   0    1.31    0.28
  -1  -7   0    0.93    0.23
  -1  -7   0    0.91    0.21
   1  -7   0    1.16    0.26
   1  -7   0    1.31    0.25
   1  -7   0    1.18    0.22
   1   7   0    0.78    0.21
  -1   7   0    0.86    0.22
   1   7   0    0.99    0.24
  -1   7   0    0.75    0.20
   1   7   0    0.80    0.21
  -1   7   0    0.69    0.18
  -1   7   0    0.91    0.21
  -1   7   0    1.04    0.23
  -2  -7   0    4.09    0.47
   2  -7   0    3.70    0.40
  -2  -7   0    3.12    0.42
   2  -7   0    3.36    0.38
   2  -7   0    3.81    0.38
   2  -7   0    2.65    0.38
  -2   7   0    2.91    0.36
  -2   7   0    3.89    0.44
  -2   7   0    3.96    0.39
   2   7   0    3.31    0.43
   2   7   0    3.56    0.44
  -3  -7   0    1.05    0.27
   3  -7   0    0.79    0.21
  -3   7   0    0.85    0.25
  -3   7   0    0.50    0.17
   3   7   0    0.46    0.18
   3   7   0    0.82    0.24
  -4  -7   0    1.23    0.30
   4  -7   0    1.14    0.26
  -4   7   0    1.24    0.27
   4   7   0    1.54    0.32
   4   7   0    0.73    0.25
  -4   7   0    1.42    0.29
   5  -7   0    3.49    0.46
  -5  -7   0    3.05    0.48
   5   7   0    3.46    0.50
  -5   7   0    4.00    0.49
   5   7   0    3.46    0.49
  -5   7   0    3.72    0.48
  -6  -7   0    1.05    0.30
   6  -7   0    0.67    0.23
  -6   7   0    0.84    0.26
  -6   7   0    0.41    0.21
   6   7   0    0.58    0.23
   6   7   0    0.55    0.23
  -7  -7   0    1.29    0.33
  -7   7   0    0.88    0.28
   7   7   0    1.70    0.38
   0  -8   0    3.91    0.47
   0  -8   0    4.11    0.48
   0   8   0    4.21    0.49
   0   8   0    3.88    0.47
   1  -8   0    0.25    0.17
  -1  -8   0    0.23    0.16
   1  -8   0    0.23    0.13
  -1  -8   0    0.32    0.19
  -1   8   0    0.59    0.21
  -1   8   0    0.20    0.14
   1   8   0   -0.03    0.11
   1   8   0    0.32    0.18
  -2  -8   0    0.19    0.14
   2  -8   0    0.52    0.19
  -2  -8   0    0.49    0.20
   2   8   0    0.10    0.13
  -2   8   0    0.24    0.16
   2   8   0    0.38    0.20
  -3  -8   0    2.06    0.37
  -3  -8   0    1.20    0.29
   3  -8   0    1.67    0.31
  -3   8   0    1.63    0.33
   3   8   0    1.72    0.36
   3   8   0    1.78    0.36
   4  -8   0    2.61    0.41
  -4  -8   0    3.43    0.52
   4   8   0    4.12    0.55
   4   8   0    3.62    0.53
  -4   8   0    3.62    0.50
   5  -8   0    0.86    0.27
  -5  -8   0    1.00    0.33
  -5   8   0    0.59    0.24
   5   8   0    1.06    0.32
   5   8   0    1.00    0.31
   0  -9   0    0.14    0.18
   0   9   0   -0.01    0.14
  -1  -9   0    0.60    0.24
  -1  -9   0    0.79    0.27
   1   9   0    1.04    0.29
   1   9   0    0.71    0.24
  -2  -9   0    1.22    0.32
  -2  -9   0    0.96    0.30
   2   9   0    1.40    0.33
   2   9   0    0.81    0.29
 -11   0   1    8.37    0.68
 -10   0   1    0.39    0.17
  -9   0   1    0.14    0.12
   8   0  -1    0.05    0.11
  -8   0   1   -0.10    0.06
   8   0  -1   -0.07    0.08
   7   0  -1    2.58    0.34
  -7   0   1    2.62    0.34
  -7   0   1    2.31    0.25
   7   0  -1    2.71    0.26
   7   0  -1    2.76    0.29
   6   0  -1    0.12    0.07
  -6   0   1    0.10    0.06
   6   0  -1    0.10    0.08
   6   0  -1    0.32    0.12
  -6   0   1    0.06    0.08
  -6   0   1    0.03    0.06
   5   0  -1    2.03    0.16
  -5   0   1    2.10    0.25
  -5   0   1    1.76    0.13
   5   0  -1    2.26    0.22
   5   0  -1    1.75    0.22
   5   0  -1    2.04    0.14
  -5   0   1    1.98    0.19
   4   0  -1    3.95    0.22
   4   0  -1    3.60    0.23
   4   0  -1    3.63    0.18
  -4   0   1    3.68    0.23
  -4   0   1    3.43    0.17
  -4   0   1    3.32    0.23
   4   0  -1    3.56    0.18
  -3   0   1    7.25    0.29
  -3   0   1    7.10    0.30
   3   0  -1    7.41    0.27
   3   0  -1    7.08    0.28
   3   0  -1    7.34    0.24
  -3   0   1    7.27    0.25
   2   0  -1   14.28    0.34
  -2   0   1   14.15    0.39
   2   0  -1   13.74    0.36
   2   0  -1   14.61    0.37
  -2   0   1   13.89    0.34
  -2   0   1   13.58    0.37
   1   0  -1  128.93    2.22
  -1   0   1  127.63    2.21
   1   0  -1  127.75    2.21
   1   0  -1  122.31    2.23
  -1   0   1  125.58    2.23
   1   0  -1  128.50    2.21
  -1   0   1  127.99    2.21
   0   0  -1    1.26    0.07
   0   0  -1    1.27    0.06
   0   0   1    1.24    0.07
   0   0  -1    1.32    0.06
   0   0  -1    1.40    0.07
   0   0   1    1.30    0.07
   1   0   1  141.02    2.48
   1   0   1  139.05    2.39
  -1   0  -1  135.96    2.44
   1   0   1  142.18    2.44
   2   0   1   27.09    0.66
  -2   0  -1   26.66    0.65
   2   0   1   26.85    0.56
  -2   0  -1   27.40    0.64
   2   0   1   26.27    0.58
  -2   0  -1   26.66    0.57
   3   0   1   10.87    0.34
  -3   0  -1   10.65    0.39
  -3   0  -1   11.19    0.32
   3   0   1   10.58    0.32
   3   0   1   11.75    0.42
  -3   0  -1   10.22    0.39
   4   0   1    2.53    0.26
  -4   0  -1    2.51    0.25
  -4   0  -1    2.50    0.15
   4   0   1    2.58    0.16
   4   0   1    2.78    0.17
  -5   0  -1   30.38    0.92
  -5   0  -1   30.79    0.75
   5   0   1   30.49    0.79
   5   0   1   29.95    0.93
   5   0   1   29.94    0.77
  -6   0  -1    4.16    0.32
   6   0   1    3.14    0.23
  -6   0  -1    3.40    0.21
   6   0   1    2.66    0.33
   6   0   1    3.63    0.24
   7   0   1    2.43    0.26
   7   0   1    2.00    0.31
  -7   0  -1    2.54    0.33
  -8   0  -1    0.79    0.22
   8   0   1    0.28    0.17
  -9   0  -1    2.69    0.40
 -10   0  -1    0.41    0.20
 -11  -1   1    0.06    0.13
 -10  -1   1    0.69    0.23
 -10   1   1    0.81    0.25
  -9   1   1    8.38    0.59
   9   1  -1    9.23    0.60
  -8  -1   1    0.97    0.23
   8  -1  -1    1.01    0.25
   8  -1  -1    0.94    0.19
   8   1  -1    1.26    0.22
  -8   1   1    1.03    0.20
   8   1  -1    1.65    0.29
  -8   1   1    0.96    0.23
  -7  -1   1    0.11    0.08
  -7  -1   1    0.07    0.11
   7  -1  -1    0.12    0.09
   7  -1  -1    0.23    0.09
   7  -1  -1    0.13    0.12
  -7   1   1    0.12    0.09
   7   1  -1    0.07    0.10
  -7   1   1    0.10    0.08
   7   1  -1    0.17    0.09
   7   1  -1    0.09    0.08
   6  -1  -1    5.14    0.29
  -6  -1   1    5.76    0.38
   6  -1  -1    6.16    0.33
  -6  -1   1    5.77    0.31
   6  -1  -1    5.55    0.38
   6   1  -1    5.86    0.25
   6   1  -1    6.14    0.38
   6   1  -1    5.60    0.31
  -6   1   1    5.36    0.37
  -6   1   1    5.53    0.32
   6   1  -1    4.55    0.31
  -5  -1   1    7.80    0.35
   5  -1  -1    6.54    0.30
   5  -1  -1    7.52    0.39
  -5  -1   1    6.46    0.37
   5  -1  -1    7.33    0.34
   5   1  -1    6.67    0.32
   5   1  -1    6.98    0.35
  -5   1   1    7.38    0.20
  -5   1   1    6.38    0.33
   5   1  -1    7.02    0.36
  -5   1   1    6.65    0.38
   5   1  -1    6.96    0.25
  -4  -1   1   23.06    0.71
  -4  -1   1   23.62    0.52
  -4  -1   1   23.79    0.66
  -4  -1   1   23.99    0.66
   4  -1  -1   23.63    0.71
   4  -1  -1   23.97    0.61
   4   1  -1   22.87    0.66
  -4   1   1   24.69    0.46
   4   1  -1   24.58    0.67
  -4   1   1   23.17    0.71
   4   1  -1   23.68    0.68
  -4   1   1   23.50    0.66
   4   1  -1   24.11    0.52
   3  -1  -1   13.08    0.45
   3  -1  -1   13.22    0.25
  -3  -1   1   12.97    0.39
  -3  -1   1   13.50    0.29
  -3  -1   1   12.24    0.43
   3  -1  -1   13.04    0.37
  -3   1   1   12.88    0.41
   3   1  -1   12.61    0.41
  -3   1   1   13.48    0.45
  -3   1   1   12.93    0.43
   3   1  -1   12.70    0.40
   3   1  -1   13.20    0.29
   3   1  -1   12.52    0.42
  -3   1   1   13.36    0.25
   2  -1  -1  948.11   16.50
  -2  -1   1 1000.00   16.21
  -2  -1   1  937.61   16.74
   2  -1  -1  972.59   16.27
  -2  -1   1  917.84   16.86
   2  -1  -1  984.45   16.84
   2  -1  -1  971.53   17.07
  -2   1   1  936.92   16.84
   2   1  -1  937.00   16.85
  -2   1   1  999.95   17.08
   2   1  -1  992.09   17.00
  -2   1   1  971.11   16.83
   2   1  -1  922.35   16.72
  -1  -1   1   34.54    0.72
   1  -1  -1   34.58    0.75
  -1  -1   1   35.10    0.65
  -1  -1   1   34.99    0.62
   1  -1  -1   34.16    0.65
   1  -1  -1   34.94    0.69
  -1  -1   1   35.18    0.62
  -1   1   1   34.21    0.74
  -1   1   1   33.66    0.74
  -1   1   1   35.23    0.68
   1   1  -1   34.53    0.74
   1   1  -1   34.79    0.72
   1   1  -1   34.45    0.65
   1   1  -1   35.02    0.62
  -1   1   1   34.77    0.72
   0  -1   1  229.74    4.08
   0  -1  -1  235.34    4.10
   0  -1  -1  240.83    4.14
   0  -1  -1  242.13    4.14
   0  -1  -1  235.63    4.11
   0  -1   1  236.86    4.07
   0  -1   1  239.64    4.07
   0   1  -1  233.15    4.07
   0   1  -1  236.95    4.12
   0   1  -1  236.87    4.08
   0   1  -1  241.94    4.11
   0   1  -1  240.39    4.07
   0   1   1  239.18    4.11
   0   1   1  236.44    4.09
   0   1   1  246.29    4.15
   0   1   1  239.54    4.13
   1  -1   1    8.92    0.27
   1  -1   1    8.56    0.27
   1  -1   1    8.86    0.18
  -1  -1  -1    8.69    0.28
  -1  -1  -1    9.14    0.28
  -1  -1  -1    8.71    0.23
  -1   1  -1    8.99    0.28
   1   1   1    8.63    0.27
  -1   1  -1    8.70    0.28
   1   1   1    8.80    0.23
  -1   1  -1    8.90    0.19
   1   1   1    8.53    0.27
  -1   1  -1    8.63    0.22
  -1   1  -1    8.95    0.27
   1   1   1    8.75    0.28
  -2  -1  -1   32.71    0.72
   2  -1   1   31.49    0.77
   2  -1   1   32.72    0.59
   2  -1   1   32.15    0.73
  -2  -1  -1   31.90    0.74
  -2  -1  -1   32.38    0.76
   2   1   1   31.82    0.73
  -2   1  -1   31.44    0.74
  -2   1  -1   32.21    0.76
   2   1   1   32.14    0.74
   2   1   1   31.94    0.65
  -2   1  -1   32.32    0.62
   2   1   1   31.28    0.76
   3  -1   1   20.53    0.57
  -3  -1  -1   19.82    0.57
  -3  -1  -1   19.04    0.59
  -3  -1  -1   19.78    0.56
   3  -1   1   19.97    0.61
   3  -1   1   20.66    0.44
  -3   1  -1   20.47    0.44
  -3   1  -1   20.14    0.60
   3   1   1   20.90    0.48
   3   1   1   19.60    0.60
  -3   1  -1   20.70    0.57
   3   1   1   19.48    0.55
   3   1   1   20.32    0.56
   4  -1   1    6.87    0.36
   4  -1   1    6.54    0.23
  -4  -1  -1    6.92    0.31
   4  -1   1    6.88    0.32
  -4  -1  -1    6.17    0.32
   4   1   1    7.24    0.36
  -4   1  -1    6.41    0.34
  -4   1  -1    6.64    0.32
  -4   1  -1    6.40    0.21
   4   1   1    6.68    0.31
   4   1   1    5.88    0.24
   5  -1   1    3.07    0.17
   5  -1   1    2.93    0.27
  -5  -1  -1    2.38    0.27
   5  -1   1    3.02    0.33
  -5  -1  -1    3.25    0.23
  -5   1  -1    3.20    0.23
   5   1   1    2.62    0.21
   5   1   1    3.43    0.19
   5   1   1    3.18    0.27
  -5   1  -1    2.64    0.28
  -5   1  -1    2.98    0.15
   6  -1   1    1.47    0.26
  -6  -1  -1    1.60    0.25
  -6  -1  -1    2.06    0.23
   6  -1   1    1.43    0.21
   6  -1   1    1.73    0.18
  -6   1  -1    1.43    0.23
   6   1   1    1.08    0.22
   6   1   1    1.65    0.18
   6   1   1    1.58    0.21
  -6   1  -1    1.80    0.23
  -7  -1  -1    9.24    0.54
   7  -1   1    8.81    0.45
  -7  -1  -1    9.30    0.43
   7  -1   1    9.66    0.57
  -7   1  -1    8.60    0.52
   7   1   1    9.49    0.47
   7   1   1    8.14    0.52
  -8  -1  -1    0.25    0.13
   8  -1   1    0.31    0.21
   8  -1   1    0.20    0.12
  -8   1  -1    0.09    0.11
   8   1   1    0.19    0.16
  -9  -1  -1    4.78    0.54
  -9   1  -1    5.95    0.60
 -10  -1  -1    1.25    0.30
 -10   1  -1    1.81    0.36
 -10  -2   1    0.58    0.22
 -10   2   1    0.82    0.24
   9  -2  -1    0.09    0.14
  -9  -2   1    0.06    0.11
  -9   2   1    0.01    0.10
  -9   2   1   -0.03    0.13
   9   2  -1   -0.14    0.10
   8  -2  -1    2.69    0.34
  -8  -2   1    3.05    0.40
   8  -2  -1    3.08    0.42
  -8   2   1    2.70    0.39
   8   2  -1    2.40    0.33
  -8   2   1    3.42    0.39
   8   2  -1    3.39    0.41
   7  -2  -1    0.95    0.19
  -7  -2   1    0.94    0.18
   7  -2  -1    0.71    0.19
  -7  -2   1    1.45    0.26
   7   2  -1    0.72    0.19
   7   2  -1    0.85    0.19
  -7   2   1    0.88    0.20
   7   2  -1    0.66    0.16
  -7   2   1    1.30    0.22
   6  -2  -1    1.40    0.17
  -6  -2   1    1.29    0.21
  -6  -2   1    1.38    0.24
   6  -2  -1    1.84    0.28
   6  -2  -1    1.46    0.22
   6   2  -1    1.42    0.22
   6   2  -1    1.21    0.20
   6   2  -1    1.27    0.22
  -6   2   1    1.24    0.22
  -6   2   1    1.41    0.21
   5  -2  -1    1.06    0.18
  -5  -2   1    1.53    0.22
   5  -2  -1    1.44    0.16
   5  -2  -1    1.34    0.21
  -5  -2   1    1.32    0.20
  -5   2   1    1.23    0.20
   5   2  -1    1.11    0.18
   5   2  -1    1.12    0.18
   5   2  -1    1.33    0.20
  -5   2   1    1.55    0.22
   4  -2  -1   54.94    1.35
   4  -2  -1   54.85    1.16
  -4  -2   1   56.68    1.33
  -4  -2   1   54.92    1.23
  -4  -2   1   54.31    1.31
   4   2  -1   56.65    1.25
   4   2  -1   54.15    1.31
   4   2  -1   55.65    1.32
  -4   2   1   55.97    1.31
  -4   2   1   55.18    1.31
   3  -2  -1   42.29    1.06
   3  -2  -1   43.10    0.91
  -3  -2   1   41.24    1.01
  -3  -2   1   43.03    0.94
  -3   2   1   41.84    1.02
  -3   2   1   42.87    1.00
   3   2  -1   43.80    1.05
   3   2  -1   42.32    1.03
   3   2  -1   40.73    0.94
  -2  -2   1  348.94    5.89
  -2  -2   1  339.94    5.98
  -2  -2   1  346.78    6.07
   2  -2  -1  353.51    5.99
   2  -2  -1  340.30    5.96
  -2  -2   1  341.20    5.90
   2  -2  -1  346.89    6.14
   2   2  -1  353.01    6.13
  -2   2   1  340.34    6.08
  -2   2   1  352.38    6.16
  -2   2   1  342.39    6.03
   2   2  -1  345.34    6.10
   2   2  -1  351.17    5.99
   1  -2  -1   53.07    1.06
   1  -2  -1   53.22    1.17
  -1  -2   1   53.96    1.06
   1  -2  -1   53.98    1.17
   1  -2  -1   53.62    1.09
  -1  -2   1   54.55    1.12
  -1  -2   1   52.78    1.01
  -1   2   1   53.04    1.12
   1   2  -1   55.52    1.07
   1   2  -1   53.12    1.13
   1   2  -1   55.52    1.02
  -1   2   1   53.87    1.07
  -1   2   1   53.64    1.06
   1   2  -1   54.32    1.16
  -1   2   1   53.64    1.18
   1   2  -1   52.73    1.12
  -1   2   1   54.68    1.10
   0  -2  -1   28.90    0.70
   0  -2  -1   30.16    0.73
   0  -2  -1   30.05    0.63
   0  -2   1   30.72    0.69
   0  -2   1   30.86    0.67
   0  -2  -1   29.63    0.70
   0  -2   1   29.88    0.68
   0   2  -1   31.52    0.72
   0   2  -1   30.63    0.72
   0   2   1   30.12    0.71
   0   2  -1   30.47    0.67
   0   2  -1   30.95    0.69
   0   2   1   30.08    0.70
   0   2   1   29.53    0.63
   0   2   1   30.50    0.68
   0   2   1   31.27    0.75
   0   2  -1   30.25    0.68
   1  -2   1   60.88    1.25
   1  -2   1   60.89    1.26
  -1  -2  -1   61.91    1.26
  -1  -2  -1   60.95    1.27
   1  -2   1   58.62    1.23
  -1  -2  -1   60.93    1.16
   1   2   1   60.40    1.27
   1   2   1   61.31    1.27
   1   2   1   59.39    1.15
  -1   2  -1   59.76    1.18
  -1   2  -1   59.50    1.26
  -1   2  -1   60.26    1.15
  -1   2  -1   60.36    1.25
  -1   2  -1   60.23    1.24
   1   2   1   61.00    1.27
  -2  -2  -1    0.39    0.09
   2  -2   1    0.27    0.04
  -2  -2  -1    0.25    0.08
   2  -2   1    0.31    0.08
   2  -2   1    0.38    0.09
  -2  -2  -1    0.28    0.07
   2  -2   1    0.15    0.06
  -2   2  -1    0.23    0.05
   2   2   1    0.29    0.09
  -2   2  -1    0.34    0.09
   2   2   1    0.35    0.09
   2   2   1    0.19    0.07
   2   2   1    0.36    0.06
  -2   2  -1    0.26    0.08
  -2   2  -1    0.28    0.08
   3  -2   1   16.80    0.58
   3  -2   1   17.37    0.39
  -3  -2  -1   16.80    0.56
   3  -2   1   17.60    0.56
  -3  -2  -1   17.65    0.53
  -3   2  -1   16.42    0.55
  -3   2  -1   17.32    0.39
   3   2   1   16.38    0.56
   3   2   1   18.01    0.57
   3   2   1   16.74    0.56
  -3   2  -1   17.78    0.58
   3   2   1   17.46    0.40
  -4  -2  -1    4.99    0.29
  -4  -2  -1    5.64    0.32
   4  -2   1    5.69    0.34
   4  -2   1    5.47    0.31
   4  -2   1    5.25    0.19
   4   2   1    5.53    0.20
   4   2   1    4.49    0.29
   4   2   1    5.23    0.32
  -4   2  -1    5.02    0.30
   4   2   1    5.13    0.30
  -4   2  -1    5.40    0.15
  -4   2  -1    5.66    0.33
   5  -2   1    0.36    0.11
   5  -2   1    0.45    0.14
  -5  -2  -1    0.08    0.06
   5  -2   1    0.26    0.06
  -5  -2  -1    0.36    0.12
   5   2   1    0.35    0.13
   5   2   1    0.14    0.07
   5   2   1    0.32    0.07
  -5   2  -1    0.31    0.11
  -5   2  -1    0.34    0.11
   5   2   1    0.34    0.10
  -6  -2  -1    2.25    0.30
  -6  -2  -1    2.04    0.26
   6  -2   1    1.81    0.28
   6  -2   1    1.69    0.24
   6   2   1    1.92    0.26
  -6   2  -1    2.57    0.30
   6   2   1    2.00    0.29
  -6   2  -1    2.51    0.32
  -7  -2  -1    8.06    0.45
  -7  -2  -1    8.42    0.50
   7  -2   1    8.53    0.56
   7  -2   1    8.15    0.47
   7   2   1    7.46    0.45
   7   2   1    7.57    0.50
  -7   2  -1    8.53    0.53
  -7   2  -1    7.37    0.45
  -8  -2  -1    7.28    0.51
   8  -2   1    7.45    0.48
   8   2   1    7.02    0.52
  -8   2  -1    7.78    0.56
   8   2   1    7.29    0.47
  -9  -2  -1    0.07    0.12
   9  -2   1    0.03    0.14
  -9   2  -1   -0.06    0.09
 -10  -2  -1    0.09    0.15
 -10   2  -1    0.19    0.16
 -10  -3   1    0.59    0.23
  10  -3  -1    0.26    0.29
  10   3  -1    0.44    0.22
 -10   3   1    0.38    0.17
 -10   3   1    0.36    0.20
   9  -3  -1    1.12    0.25
  -9  -3   1    1.92    0.36
  -9   3   1    1.02    0.28
   9   3  -1    1.04    0.27
  -9   3   1    1.24    0.28
  -8  -3   1    1.70    0.30
   8  -3  -1    2.06    0.31
  -8  -3   1    1.51    0.29
   8   3  -1    1.53    0.28
  -8   3   1    1.85    0.33
  -8   3   1    1.76    0.29
   8   3  -1    1.40    0.28
  -7  -3   1    0.75    0.19
   7  -3  -1    0.91    0.22
   7  -3  -1    0.60    0.17
  -7  -3   1    0.82    0.21
   7   3  -1    0.92    0.21
  -7   3   1    0.61    0.19
   7   3  -1    0.62    0.17
  -7   3   1    0.54    0.17
   7   3  -1    0.98    0.20
  -6  -3   1    2.79    0.33
  -6  -3   1    2.59    0.33
   6  -3  -1    2.03    0.28
   6  -3  -1    2.60    0.34
  -6   3   1    2.22    0.31
  -6   3   1    1.76    0.28
   6   3  -1    2.43    0.32
   6   3  -1    2.38    0.28
   6   3  -1    2.27    0.30
   5  -3  -1    4.16    0.23
  -5  -3   1    4.05    0.32
   5  -3  -1    3.87    0.32
  -5  -3   1    3.89    0.31
   5   3  -1    4.26    0.29
   5   3  -1    3.94    0.31
  -5   3   1    4.08    0.31
   5   3  -1    4.10    0.32
  -5   3   1    4.25    0.32
  -4  -3   1   22.21    0.77
   4  -3  -1   22.71    0.61
   4  -3  -1   21.19    0.77
  -4  -3   1   22.72    0.74
   4   3  -1   22.97    0.68
   4   3  -1   23.50    0.78
  -4   3   1   22.41    0.75
   4   3  -1   22.01    0.77
  -4   3   1   21.32    0.71
   3  -3  -1   24.73    0.63
   3  -3  -1   23.97    0.52
   3  -3  -1   22.49    0.75
  -3  -3   1   23.48    0.71
  -3  -3   1   23.45    0.65
  -3   3   1   23.65    0.73
   3   3  -1   22.57    0.64
  -3   3   1   24.83    0.71
   3   3  -1   23.25    0.76
   3   3  -1   23.39    0.75
   2  -3  -1   38.02    1.02
  -2  -3   1   38.81    0.77
   2  -3  -1   39.25    0.84
  -2  -3   1   38.91    0.90
  -2  -3   1   38.79    0.96
   2  -3  -1   38.29    0.89
  -2   3   1   38.03    0.98
   2   3  -1   38.90    1.02
  -2   3   1   38.73    0.84
   2   3  -1   39.26    0.91
   2   3  -1   39.80    0.77
  -2   3   1   38.10    1.03
   2   3  -1   37.86    0.99
  -2   3   1   39.10    0.93
   1  -3  -1    4.49    0.27
   1  -3  -1    5.48    0.26
  -1  -3   1    4.84    0.23
  -1  -3   1    4.93    0.26
   1  -3  -1    4.87    0.23
  -1  -3   1    4.50    0.19
   1   3  -1    4.90    0.24
   1   3  -1    4.96    0.21
  -1   3   1    5.36    0.26
   1   3  -1    5.35    0.27
  -1   3   1    4.98    0.23
   1   3  -1    4.65    0.27
   1   3  -1    4.66    0.26
  -1   3   1    4.58    0.25
  -1   3   1    4.70    0.23
  -1   3   1    4.81    0.28
   0  -3   1  191.88    3.55
   0  -3  -1  192.54    3.57
   0  -3   1  195.12    3.55
   0  -3  -1  193.47    3.47
   0  -3   1  189.03    3.50
   0  -3  -1  190.54    3.58
   0  -3  -1  199.10    3.63
   0   3   1  196.56    3.47
   0   3   1  188.80    3.57
   0   3  -1  193.76    3.56
   0   3  -1  196.54    3.52
   0   3   1  191.32    3.52
   0   3   1  195.83    3.59
   0   3  -1  194.80    3.55
   0   3   1  197.48    3.64
   0   3  -1  197.47    3.59
   0   3  -1  195.28    3.59
   1  -3   1   56.41    1.29
  -1  -3  -1   55.99    1.31
   1  -3   1   59.00    1.27
  -1  -3  -1   58.33    1.19
   1  -3   1   59.93    1.30
  -1  -3  -1   58.94    1.31
   1  -3   1   57.39    1.20
  -1   3  -1   56.75    1.20
   1   3   1   58.09    1.32
  -1   3  -1   58.13    1.30
   1   3   1   57.80    1.32
   1   3   1   57.88    1.32
  -1   3  -1   57.97    1.30
  -1   3  -1   60.15    1.25
  -1   3  -1   57.83    1.28
  -1   3  -1   57.63    1.30
   1   3   1   58.24    1.19
  -2  -3  -1    8.23    0.32
   2  -3   1    9.19    0.40
  -2  -3  -1    8.73    0.40
   2  -3   1    8.45    0.28
   2  -3   1    7.73    0.36
   2   3   1    7.97    0.37
  -2   3  -1    8.65    0.39
   2   3   1    8.29    0.27
  -2   3  -1    7.70    0.36
  -2   3  -1    8.01    0.30
   2   3   1    8.49    0.39
  -2   3  -1    8.51    0.29
   2   3   1    8.09    0.39
   3  -3   1    1.32    0.10
  -3  -3  -1    1.40    0.17
  -3  -3  -1    1.19    0.19
   3  -3   1    0.95    0.16
   3  -3   1    1.22    0.19
  -3   3  -1    1.44    0.21
   3   3   1    1.22    0.19
   3   3   1    1.12    0.18
  -3   3  -1    0.97    0.16
  -3   3  -1    1.31    0.10
   3   3   1    1.10    0.10
   3   3   1    1.20    0.18
  -4  -3  -1    1.14    0.18
   4  -3   1    0.76    0.16
   4  -3   1    1.10    0.19
   4  -3   1    1.19    0.11
  -4  -3  -1    1.54    0.23
   4   3   1    1.39    0.21
  -4   3  -1    1.41    0.21
  -4   3  -1    1.19    0.21
   4   3   1    1.01    0.18
   4   3   1    1.19    0.09
   4   3   1    1.18    0.19
   5  -3   1    7.33    0.43
  -5  -3  -1    8.38    0.46
   5  -3   1    8.76    0.50
  -5  -3  -1    7.85    0.43
   5   3   1    8.21    0.45
  -5   3  -1    8.26    0.46
   5   3   1    8.68    0.47
   5   3   1    9.28    0.48
  -5   3  -1    7.72    0.45
   6  -3   1   10.36    0.54
  -6  -3  -1   10.37    0.53
  -6  -3  -1   10.17    0.54
   6  -3   1   10.15    0.59
  -6   3  -1    9.98    0.56
   6   3   1   10.53    0.55
  -6   3  -1    9.11    0.52
   6   3   1   10.20    0.54
  -7  -3  -1    3.89    0.42
  -7  -3  -1    3.56    0.40
   7  -3   1    3.52    0.40
   7  -3   1    3.33    0.42
  -7   3  -1    4.05    0.47
   7   3   1    3.47    0.40
   7   3   1    3.90    0.43
  -7   3  -1    3.73    0.41
  -8  -3  -1    0.14    0.12
  -8  -3  -1   -0.06    0.09
   8  -3   1    0.09    0.12
   8   3   1    0.00    0.10
  -8   3  -1    0.09    0.11
  -8   3  -1    0.16    0.14
   8   3   1   -0.06    0.11
   9  -3   1    1.00    0.24
  -9  -3  -1    1.19    0.28
  -9   3  -1    1.27    0.30
   9   3   1    1.60    0.36
 -10  -3  -1   -0.04    0.14
  10  -3   1    0.06    0.15
 -10   3  -1    0.18    0.15
  10  -4  -1    0.00    0.16
 -10  -4   1    0.09    0.15
 -10   4   1    0.13    0.19
  10   4  -1   -0.12    0.15
 -10   4   1   -0.10    0.18
   9  -4  -1    0.25    0.18
  -9  -4   1    0.55    0.24
  -9  -4   1    0.98    0.27
  -9   4   1    0.30    0.17
  -9   4   1    0.68    0.25
   9   4  -1    0.64    0.24
  -8  -4   1    0.35    0.15
   8  -4  -1    0.04    0.11
  -8  -4   1   -0.03    0.12
  -8   4   1    0.23    0.17
  -8   4   1    0.04    0.12
   8   4  -1    0.07    0.14
   8   4  -1    0.13    0.11
  -7  -4   1    1.66    0.30
   7  -4  -1    1.45    0.27
  -7  -4   1    1.53    0.28
  -7   4   1    2.27    0.35
   7   4  -1    1.68    0.30
   7   4  -1    1.58    0.29
  -7   4   1    1.50    0.28
  -6  -4   1    4.78    0.39
   6  -4  -1    4.20    0.43
   6  -4  -1    4.59    0.48
  -6  -4   1    5.19    0.41
   6   4  -1    5.07    0.41
   6   4  -1    4.68    0.47
  -6   4   1    4.83    0.47
  -6   4   1    5.04    0.39
   6   4  -1    4.58    0.46
   5  -4  -1    3.51    0.39
   5  -4  -1    3.68    0.39
   5  -4  -1    4.00    0.25
  -5  -4   1    4.32    0.34
  -5  -4   1    3.76    0.41
  -5   4   1    3.45    0.37
  -5   4   1    3.34    0.38
   5   4  -1    3.68    0.41
   5   4  -1    4.29    0.30
   5   4  -1    3.75    0.40
   4  -4  -1    0.94    0.19
  -4  -4   1    1.00    0.21
  -4  -4   1    1.09    0.19
   4  -4  -1    1.17    0.16
  -4   4   1    1.25    0.22
   4   4  -1    1.02    0.17
   4   4  -1    1.17    0.21
   4   4  -1    1.34    0.24
  -4   4   1    1.06    0.19
  -3  -4   1    3.08    0.30
  -3  -4   1    2.55    0.13
   3  -4  -1    2.41    0.30
   3  -4  -1    2.44    0.19
  -3  -4   1    3.18    0.34
   3  -4  -1    2.87    0.17
  -3   4   1    2.70    0.28
  -3   4   1    2.58    0.29
   3   4  -1    2.18    0.23
   3   4  -1    3.04    0.32
   3   4  -1    2.64    0.32
   2  -4  -1    1.06    0.15
  -2  -4   1    1.45    0.20
  -2  -4   1    1.28    0.13
   2  -4  -1    1.67    0.18
   2  -4  -1    1.22    0.20
  -2  -4   1    1.31    0.19
  -2   4   1    1.30    0.16
   2   4  -1    1.60    0.23
   2   4  -1    1.54    0.14
   2   4  -1    1.09    0.16
  -2   4   1    1.29    0.21
  -2   4   1    1.46    0.19
  -2   4   1    1.39    0.21
   2   4  -1    1.41    0.21
  -1  -4   1    8.27    0.32
   1  -4  -1    7.92    0.36
  -1  -4   1    7.79    0.37
   1  -4  -1    8.44    0.43
  -1  -4   1    7.46    0.36
   1  -4  -1    8.18    0.38
   1   4  -1    8.11    0.41
  -1   4   1    8.63    0.44
  -1   4   1    9.30    0.40
  -1   4   1    7.87    0.37
   1   4  -1    7.94    0.38
   1   4  -1    8.50    0.33
   1   4  -1    7.37    0.38
  -1   4   1    8.76    0.37
  -1   4   1    8.55    0.35
   1   4  -1    8.57    0.38
   0  -4   1    7.43    0.33
   0  -4  -1    7.47    0.37
   0  -4   1    7.27    0.36
   0  -4   1    7.61    0.37
   0  -4  -1    7.30    0.31
   0  -4  -1    7.05    0.36
   0   4  -1    7.11    0.33
   0   4   1    7.27    0.37
   0   4  -1    7.39    0.35
   0   4  -1    7.15    0.36
   0   4   1    7.39    0.32
   0   4   1    7.59    0.37
   0   4  -1    7.28    0.36
   0   4  -1    7.11    0.37
   0   4   1    7.34    0.39
   0   4   1    7.06    0.33
   1  -4   1    4.54    0.26
   1  -4   1    4.64    0.30
   1  -4   1    4.87    0.28
  -1  -4  -1    4.89    0.31
  -1  -4  -1    4.67    0.25
  -1   4  -1    4.75    0.30
   1   4   1    5.10    0.32
   1   4   1    5.03    0.32
  -1   4  -1    4.50    0.27
  -1   4  -1    4.68    0.26
   1   4   1    5.04    0.31
  -1   4  -1    4.31    0.28
  -1   4  -1    4.75    0.29
   1   4   1    4.77    0.25
   2  -4   1    0.06    0.04
  -2  -4  -1    0.03    0.05
   2  -4   1    0.08    0.07
   2  -4   1    0.08    0.07
  -2  -4  -1    0.13    0.09
  -2   4  -1    0.09    0.06
   2   4   1    0.05    0.06
  -2   4  -1    0.13    0.06
  -2   4  -1    0.19    0.09
  -2   4  -1    0.11    0.07
   2   4   1    0.05    0.07
   2   4   1    0.10    0.07
   2   4   1    0.16    0.06
   3  -4   1    4.15    0.30
  -3  -4  -1    4.19    0.32
   3  -4   1    3.71    0.20
  -3  -4  -1    3.93    0.26
   3  -4   1    3.73    0.30
   3   4   1    3.65    0.18
   3   4   1    3.34    0.34
  -3   4  -1    3.84    0.21
   3   4   1    3.33    0.27
   3   4   1    3.34    0.35
  -3   4  -1    3.95    0.30
  -3   4  -1    3.76    0.35
   4  -4   1    5.15    0.38
  -4  -4  -1    5.50    0.39
   4  -4   1    4.61    0.34
  -4  -4  -1    4.93    0.32
  -4   4  -1    4.16    0.40
   4   4   1    5.60    0.39
   4   4   1    5.42    0.38
  -4   4  -1    5.05    0.37
   4   4   1    4.72    0.34
   5  -4   1    7.78    0.47
   5  -4   1    9.42    0.54
  -5  -4  -1    8.43    0.51
  -5  -4  -1    8.46    0.46
   5   4   1    9.44    0.54
  -5   4  -1    8.45    0.50
   5   4   1    9.77    0.52
   5   4   1    8.91    0.53
  -5   4  -1    9.28    0.53
   6  -4   1    1.28    0.27
  -6  -4  -1    1.30    0.27
   6  -4   1    1.19    0.24
  -6  -4  -1    1.59    0.26
  -6   4  -1    1.09    0.24
   6   4   1    1.52    0.26
   6   4   1    1.33    0.26
  -6   4  -1    1.50    0.28
   6   4   1    1.91    0.31
  -7  -4  -1    1.14    0.26
  -7  -4  -1    0.51    0.16
   7  -4   1    0.93    0.23
   7   4   1    1.05    0.24
   7   4   1    0.99    0.23
  -7   4  -1    0.53    0.20
  -7   4  -1    1.03    0.25
   8  -4   1    1.23    0.28
  -8  -4  -1    1.72    0.32
  -8   4  -1    1.47    0.31
  -8   4  -1    2.30    0.39
   8   4   1    2.56    0.39
   9  -4   1    3.37    0.47
  -9  -4  -1    3.04    0.46
   9   4   1    2.41    0.40
  -9   4  -1    3.05    0.48
   9  -5  -1    0.17    0.17
  -9  -5   1    0.36    0.21
  -9  -5   1    0.23    0.19
  -9   5   1    0.47    0.23
   9   5  -1    0.47    0.23
  -9   5   1    0.16    0.19
  -8  -5   1    0.27    0.18
  -8  -5   1    0.16    0.16
   8  -5  -1    0.22    0.16
   8   5  -1    0.18    0.16
  -8   5   1    0.46    0.20
   8   5  -1    0.13    0.15
  -8   5   1    0.14    0.14
  -7  -5   1    2.19    0.35
   7  -5  -1    1.42    0.29
  -7  -5   1    1.72    0.32
   7   5  -1    1.31    0.30
  -7   5   1    1.17    0.28
   7   5  -1    2.15    0.37
  -7   5   1    0.88    0.24
  -6  -5   1    1.01    0.25
  -6  -5   1    0.88    0.22
   6  -5  -1    1.17    0.26
   6   5  -1    1.37    0.28
  -6   5   1    1.52    0.29
  -6   5   1    1.60    0.31
   6   5  -1    1.21    0.26
  -5  -5   1    1.73    0.27
  -5  -5   1    1.31    0.28
   5  -5  -1    1.74    0.30
   5  -5  -1    1.63    0.28
  -5   5   1    1.14    0.23
   5   5  -1    0.85    0.23
   5   5  -1    1.07    0.25
  -5   5   1    1.12    0.24
   4  -5  -1    4.97    0.40
  -4  -5   1    5.78    0.43
  -4  -5   1    4.33    0.34
   4  -5  -1    5.13    0.30
  -4   5   1    5.36    0.40
  -4   5   1    4.49    0.34
   4   5  -1    3.95    0.45
   4   5  -1    4.60    0.47
   4   5  -1    4.58    0.32
   3  -5  -1    0.58    0.13
  -3  -5   1    0.81    0.20
  -3  -5   1    0.57    0.15
   3  -5  -1    0.91    0.20
   3  -5  -1    0.68    0.14
   3   5  -1    0.85    0.16
  -3   5   1    0.85    0.20
   3   5  -1    0.98    0.20
   3   5  -1    1.14    0.23
  -3   5   1    0.93    0.18
   2  -5  -1   11.04    0.47
  -2  -5   1    9.88    0.48
   2  -5  -1   10.38    0.55
   2  -5  -1   11.32    0.46
  -2  -5   1   10.27    0.37
  -2  -5   1   10.17    0.54
  -2   5   1   10.44    0.47
   2   5  -1   10.18    0.54
  -2   5   1   10.75    0.47
   2   5  -1   10.37    0.38
  -2   5   1   10.91    0.45
   2   5  -1   10.60    0.54
   2   5  -1   11.29    0.49
  -2   5   1    9.94    0.50
  -2   5   1   10.43    0.55
  -1  -5   1    1.05    0.20
  -1  -5   1    1.56    0.19
   1  -5  -1    1.24    0.19
   1  -5  -1    1.33    0.20
  -1  -5   1    1.10    0.19
  -1  -5   1    1.60    0.22
   1  -5  -1    1.27    0.22
  -1   5   1    1.38    0.21
   1   5  -1    1.31    0.20
   1   5  -1    1.54    0.22
   1   5  -1    1.51    0.24
  -1   5   1    1.28    0.19
  -1   5   1    1.21    0.19
  -1   5   1    1.34    0.21
  -1   5   1    1.03    0.20
   1   5  -1    1.24    0.20
   1   5  -1    1.44    0.18
   0  -5  -1    5.28    0.34
   0  -5   1    5.64    0.34
   0  -5  -1    5.20    0.34
   0  -5  -1    5.35    0.30
   0  -5   1    4.59    0.32
   0  -5   1    5.10    0.30
   0  -5   1    5.28    0.35
   0  -5  -1    6.05    0.39
   0   5  -1    4.71    0.32
   0   5   1    5.50    0.38
   0   5   1    5.01    0.31
   0   5  -1    5.49    0.32
   0   5  -1    5.92    0.37
   0   5  -1    5.45    0.34
   0   5   1    5.85    0.36
   0   5   1    5.08    0.34
   0   5  -1    5.34    0.34
   0   5   1    5.23    0.30
  -1  -5  -1   14.02    0.60
  -1  -5  -1   12.16    0.57
   1  -5   1   13.12    0.57
   1  -5   1   13.34    0.54
   1  -5   1   12.54    0.51
  -1  -5  -1   13.46    0.50
   1  -5   1   12.90    0.54
   1   5   1   12.16    0.58
  -1   5  -1   13.19    0.55
  -1   5  -1   12.98    0.52
   1   5   1   14.02    0.61
  -1   5  -1   13.26    0.57
  -1   5  -1   13.31    0.55
   1   5   1   12.69    0.58
   1   5   1   13.27    0.49
  -1   5  -1   12.55    0.57
   2  -5   1    2.39    0.30
   2  -5   1    2.22    0.27
  -2  -5  -1    2.49    0.32
  -2  -5  -1    2.60    0.26
   2  -5   1    2.43    0.26
   2  -5   1    2.63    0.20
  -2   5  -1    2.12    0.23
  -2   5  -1    2.04    0.24
   2   5   1    2.67    0.32
   2   5   1    2.63    0.33
  -2   5  -1    2.20    0.28
   2   5   1    2.24    0.21
   2   5   1    2.25    0.30
  -2   5  -1    2.16    0.28
  -3  -5  -1   12.34    0.52
   3  -5   1   12.98    0.62
   3  -5   1   12.49    0.46
  -3  -5  -1   12.51    0.63
   3  -5   1   12.53    0.58
   3   5   1   13.23    0.64
  -3   5  -1   12.02    0.58
  -3   5  -1   12.37    0.59
   3   5   1   12.69    0.63
   3   5   1   13.83    0.62
   4  -5   1    3.74    0.42
   4  -5   1    4.04    0.41
  -4  -5  -1    4.02    0.44
  -4  -5  -1    4.76    0.33
   4   5   1    4.42    0.47
  -4   5  -1    4.43    0.45
  -4   5  -1    4.97    0.39
   4   5   1    3.83    0.42
   4   5   1    4.04    0.34
   5  -5   1    1.21    0.24
  -5  -5  -1    1.29    0.27
   5  -5   1    0.97    0.24
  -5  -5  -1    0.86    0.20
   5   5   1    1.17    0.23
   5   5   1    1.47    0.29
  -5   5  -1    0.82    0.21
  -5   5  -1    1.52    0.28
   5   5   1    1.03    0.25
  -6  -5  -1    1.21    0.24
  -6  -5  -1    0.90    0.25
   6  -5   1    1.10    0.26
   6   5   1    0.44    0.17
   6   5   1    0.97    0.25
   6   5   1    0.95    0.24
  -6   5  -1    1.11    0.25
  -6   5  -1    0.96    0.25
  -7  -5  -1    0.08    0.12
   7  -5   1    0.23    0.16
  -7  -5  -1    0.05    0.13
   7   5   1    0.01    0.11
  -7   5  -1    0.04    0.11
  -7   5  -1    0.07    0.13
  -8  -5  -1    0.95    0.28
   8  -5   1    1.56    0.33
  -8  -5  -1    0.89    0.23
   8   5   1    1.07    0.29
  -8   5  -1    1.46    0.32
  -8   5  -1    1.26    0.30
  -9  -5  -1    0.22    0.18
  -9   5  -1    0.53    0.24
   9   5   1    0.18    0.20
   8  -6  -1    0.12    0.16
  -8  -6   1    0.57    0.25
  -8  -6   1    0.16    0.17
   8   6  -1    0.24    0.22
   8   6  -1    0.45    0.23
  -8   6   1    0.06    0.17
  -8   6   1    0.65    0.25
   7  -6  -1    0.12    0.13
  -7  -6   1   -0.23    0.11
  -7  -6   1    0.13    0.16
   7   6  -1    0.09    0.15
  -7   6   1    0.03    0.15
   7   6  -1    0.11    0.15
  -7   6   1    0.28    0.18
  -6  -6   1   -0.06    0.08
  -6  -6   1    0.09    0.13
   6  -6  -1    0.00    0.09
  -6   6   1    0.09    0.12
  -6   6   1    0.07    0.13
   6   6  -1   -0.01    0.07
   6   6  -1    0.11    0.13
  -5  -6   1    0.65    0.19
  -5  -6   1    0.41    0.17
   5  -6  -1    0.24    0.13
  -5   6   1    0.59    0.19
   5   6  -1    0.12    0.11
  -5   6   1    0.33    0.16
   5   6  -1    0.30    0.15
   4  -6  -1    2.88    0.39
  -4  -6   1    2.76    0.40
  -4  -6   1    2.44    0.33
   4  -6  -1    3.23    0.40
  -4   6   1    2.98    0.36
  -4   6   1    2.70    0.39
   4   6  -1    2.75    0.40
   4   6  -1    2.25    0.35
  -3  -6   1    0.09    0.11
   3  -6  -1    0.01    0.10
   3  -6  -1    0.05    0.08
  -3  -6   1    0.07    0.10
   3   6  -1    0.27    0.14
  -3   6   1    0.15    0.11
   3   6  -1    0.07    0.11
  -3   6   1    0.16    0.10
   2  -6  -1    1.91    0.30
   2  -6  -1    2.08    0.26
  -2  -6   1    1.64    0.25
  -2  -6   1    1.74    0.25
  -2  -6   1    1.52    0.28
   2  -6  -1    1.18    0.21
   2   6  -1    1.66    0.28
  -2   6   1    1.85    0.25
  -2   6   1    1.70    0.25
   2   6  -1    1.54    0.28
  -2   6   1    1.58    0.29
   2   6  -1    1.80    0.26
  -2   6   1    1.86    0.25
  -2   6   1    1.58    0.27
  -1  -6   1    2.28    0.29
  -1  -6   1    2.12    0.31
   1  -6  -1    2.33    0.27
  -1  -6   1    2.26    0.24
   1  -6  -1    2.57    0.30
   1  -6  -1    1.95    0.27
  -1  -6   1    1.99    0.27
   1  -6  -1    1.80    0.29
   1   6  -1    1.99    0.31
  -1   6   1    1.85    0.27
   1   6  -1    2.14    0.30
  -1   6   1    2.02    0.27
   1   6  -1    2.48    0.30
   1   6  -1    2.29    0.25
   1   6  -1    1.78    0.26
  -1   6   1    2.17    0.31
  -1   6   1    1.69    0.25
  -1   6   1    2.15    0.26
   0  -6   1    1.41    0.23
   0  -6   1    1.74    0.26
   0  -6   1    1.59    0.22
   0  -6  -1    1.80    0.27
   0  -6  -1    1.81    0.24
   0  -6  -1    1.34    0.23
   0  -6  -1    2.13    0.31
   0  -6   1    1.65    0.25
   0  -6   1    2.06    0.30
   0   6   1    2.01    0.25
   0   6   1    1.45    0.25
   0   6  -1    1.86    0.25
   0   6  -1    1.72    0.26
   0   6  -1    1.59    0.25
   0   6   1    1.39    0.24
   0   6  -1    2.21    0.31
   0   6   1    1.73    0.25
   0   6  -1    1.58    0.25
   0   6   1    2.14    0.31
   1  -6   1    1.66    0.23
  -1  -6  -1    1.49    0.26
  -1  -6  -1    1.08    0.23
   1  -6   1    1.05    0.20
   1  -6   1    1.40    0.24
  -1  -6  -1    1.87    0.23
   1  -6   1    1.57    0.24
   1  -6   1    1.62    0.25
  -1  -6  -1    1.62    0.27
  -1   6  -1    1.26    0.23
  -1   6  -1    1.53    0.25
  -1   6  -1    1.41    0.25
   1   6   1    1.62    0.27
   1   6   1    1.62    0.27
  -1   6  -1    1.51    0.23
  -1   6  -1    1.38    0.23
   1   6   1    1.31    0.25
   1   6   1    1.58    0.22
   2  -6   1    6.92    0.40
   2  -6   1    7.85    0.46
   2  -6   1    7.54    0.40
  -2  -6  -1    7.76    0.51
   2  -6   1    8.73    0.52
  -2  -6  -1    7.46    0.40
   2   6   1    8.41    0.51
   2   6   1    7.40    0.49
  -2   6  -1    7.39    0.47
  -2   6  -1    7.30    0.46
   2   6   1    8.57    0.53
  -2   6  -1    7.58    0.41
  -2   6  -1    7.57    0.43
  -3  -6  -1    3.04    0.40
   3  -6   1    2.38    0.32
  -3  -6  -1    2.78    0.31
   3  -6   1    3.13    0.39
  -3   6  -1    2.91    0.37
   3   6   1    2.05    0.33
  -3   6  -1    3.45    0.41
   3   6   1    3.07    0.37
   3   6   1    2.82    0.38
  -4  -6  -1    0.05    0.11
   4  -6   1   -0.05    0.08
   4  -6   1    0.13    0.11
   4   6   1   -0.07    0.10
   4   6   1   -0.05    0.06
  -4   6  -1    0.03    0.12
   4   6   1   -0.04    0.10
  -4   6  -1   -0.06    0.09
   5  -6   1    1.56    0.28
  -5  -6  -1    1.66    0.33
  -5   6  -1    2.96    0.41
   5   6   1    2.23    0.37
  -5   6  -1    2.54    0.39
   5   6   1    1.09    0.27
   6  -6   1    0.47    0.19
  -6  -6  -1    0.89    0.27
   6   6   1    0.71    0.23
  -6   6  -1    0.77    0.22
  -6   6  -1    0.73    0.24
   7  -6   1    1.45    0.31
  -7  -6  -1    1.52    0.33
  -7   6  -1    2.45    0.41
   7   6   1    1.81    0.35
  -7   6  -1    1.87    0.37
  -8  -6  -1    0.01    0.13
   8   6   1    0.31    0.24
  -8   6  -1    0.26    0.20
  -7  -7   1    2.01    0.41
   7   7  -1    1.38    0.36
   7   7  -1    2.06    0.45
  -6  -7   1   -0.03    0.15
   6  -7  -1   -0.08    0.11
   6   7  -1   -0.04    0.13
   6   7  -1    0.17    0.17
  -6   7   1    0.08    0.15
  -5  -7   1    1.26    0.31
   5  -7  -1    0.95    0.26
   5   7  -1    0.99    0.27
   5   7  -1    0.69    0.25
  -5   7   1    1.23    0.29
  -4  -7   1    0.59    0.22
   4  -7  -1    0.48    0.18
  -4  -7   1    0.50    0.19
   4   7  -1    0.26    0.18
  -4   7   1    0.58    0.20
   4   7  -1    0.52    0.20
  -3  -7   1    0.01    0.12
   3  -7  -1    0.02    0.09
  -3  -7   1    0.01    0.09
   3  -7  -1    0.11    0.10
  -3   7   1    0.09    0.11
   3   7  -1    0.00    0.07
   3   7  -1    0.02    0.11
   2  -7  -1    4.16    0.49
  -2  -7   1    4.36    0.44
   2  -7  -1    4.27    0.45
  -2  -7   1    4.48    0.50
   2  -7  -1    4.61    0.36
   2   7  -1    4.31    0.47
  -2   7   1    4.34    0.50
  -2   7   1    5.36    0.52
   2   7  -1    3.66    0.45
   1  -7  -1    3.02    0.36
  -1  -7   1    2.24    0.31
  -1  -7   1    2.62    0.36
   1  -7  -1    2.34    0.31
   1  -7  -1    2.24    0.36
  -1  -7   1    2.78    0.38
  -1   7   1    2.41    0.36
  -1   7   1    2.52    0.34
   1   7  -1    2.58    0.38
   1   7  -1    3.32    0.41
  -1   7   1    2.38    0.33
  -1   7   1    2.85    0.36
   0  -7  -1    3.95    0.46
   0  -7  -1    3.22    0.39
   0  -7  -1    3.15    0.40
   0  -7   1    4.36    0.46
   0  -7   1    3.76    0.41
   0  -7   1    4.42    0.44
   0  -7   1    3.66    0.37
   0  -7   1    3.93    0.43
   0   7  -1    3.97    0.39
   0   7   1    3.89    0.44
   0   7   1    4.05    0.46
   0   7  -1    4.38    0.44
   0   7   1    3.60    0.38
   0   7  -1    3.83    0.41
   0   7  -1    3.70    0.44
   0   7   1    4.13    0.44
   0   7  -1    3.77    0.42
  -1  -7  -1    0.68    0.20
   1  -7   1    0.72    0.18
   1  -7   1    0.86    0.20
  -1  -7  -1    0.70    0.21
   1  -7   1    0.70    0.19
   1  -7   1    0.96    0.23
   1  -7   1    0.68    0.18
  -1  -7  -1    0.87    0.23
   1   7   1    0.83    0.22
  -1   7  -1    0.98    0.23
   1   7   1    0.88    0.22
  -1   7  -1    0.48    0.15
  -1   7  -1    0.57    0.17
  -1   7  -1    0.84    0.20
   1   7   1    1.19    0.26
  -2  -7  -1    1.11    0.25
  -2  -7  -1    0.93    0.24
  -2  -7  -1    0.97    0.25
   2  -7   1    0.31    0.17
   2  -7   1    0.86    0.21
   2   7   1    0.68    0.21
  -2   7  -1    1.06    0.24
   2   7   1    0.77    0.23
  -2   7  -1    0.86    0.23
   2   7   1    0.86    0.23
  -3  -7  -1    4.14    0.50
  -3  -7  -1    4.55    0.53
   3  -7   1    4.89    0.50
  -3   7  -1    4.91    0.52
  -3   7  -1    5.45    0.44
   3   7   1    4.09    0.52
   3   7   1    3.74    0.48
   4  -7   1    0.34    0.14
  -4  -7  -1    0.47    0.21
  -4   7  -1    0.83    0.23
  -4   7  -1    0.50    0.20
   4   7   1    0.68    0.25
   4   7   1    0.95    0.28
  -5  -7  -1    1.61    0.35
   5  -7   1    1.87    0.34
  -5   7  -1    0.74    0.25
   5   7   1    1.51    0.34
  -5   7  -1    1.38    0.31
   5   7   1    1.11    0.31
  -6  -7  -1    0.04    0.16
   6  -7   1   -0.01    0.14
  -6   7  -1    0.11    0.17
   6   7   1   -0.02    0.14
  -6   7  -1   -0.17    0.14
  -7  -7  -1   -0.02    0.17
   7   7   1    0.17    0.17
  -7   7  -1    0.06    0.17
   5  -8  -1    2.73    0.43
  -5  -8   1    2.51    0.44
   5   8  -1    2.91    0.47
  -5   8   1    2.70    0.45
   5   8  -1    2.62    0.46
   4  -8  -1    0.07    0.14
  -4  -8   1    0.26    0.18
   4   8  -1    0.20    0.19
   4   8  -1    0.00    0.14
  -4   8   1    0.12    0.17
   3  -8  -1    0.81    0.24
  -3  -8   1    0.52    0.23
   3   8  -1    0.74    0.26
   3   8  -1    0.66    0.24
  -3   8   1    0.74    0.24
   2  -8  -1    0.54    0.20
   2  -8  -1    1.09    0.24
  -2  -8   1    0.83    0.24
  -2  -8   1    0.84    0.23
  -2   8   1    1.31    0.30
   2   8  -1    0.57    0.21
   2   8  -1    0.72    0.23
   1  -8  -1    0.05    0.13
   1  -8  -1    0.14    0.13
  -1  -8   1   -0.14    0.08
  -1  -8   1    0.20    0.15
   1   8  -1    0.08    0.13
  -1   8   1    0.13    0.12
  -1   8   1   -0.01    0.11
   1   8  -1    0.17    0.14
   0  -8   1    0.31    0.17
   0  -8  -1    0.54    0.21
   0  -8   1    0.42    0.18
   0  -8  -1    0.05    0.12
   0   8   1    0.64    0.21
   0   8   1    0.32    0.17
   0   8  -1    0.50    0.19
   0   8  -1    0.49    0.18
  -1  -8  -1   -0.04    0.06
   1  -8   1    0.26    0.15
  -1  -8  -1    0.12    0.14
  -1   8  -1    0.17    0.15
   1   8   1    0.05    0.13
   1   8   1   -0.09    0.11
  -2  -8  -1    0.16    0.14
  -2  -8  -1    0.35    0.18
   2  -8   1    0.53    0.19
  -2   8  -1    0.15    0.15
   2   8   1    0.10    0.15
   2   8   1    0.10    0.15
   3  -8   1    1.03    0.26
  -3  -8  -1    1.32    0.33
  -3  -8  -1    1.24    0.29
  -3   8  -1    0.62    0.21
   3   8   1    0.81    0.28
   3   8   1    1.64    0.34
  -4  -8  -1   -0.04    0.15
   4  -8   1   -0.03    0.12
  -4  -8  -1    0.12    0.17
   4   8   1    0.11    0.17
  -4   8  -1   -0.17    0.12
  -5  -8  -1    7.55    0.77
   5  -8   1    6.20    0.74
  -5  -8  -1    7.30    0.77
  -5   8  -1    5.99    0.73
   5   8   1    6.87    0.73
   3  -9  -1    0.13    0.18
  -3   9   1    0.14    0.19
  -2  -9   1    0.03    0.17
  -2  -9   1    0.02    0.15
   2   9  -1    0.02    0.15
   2   9  -1   -0.07    0.13
  -1  -9   1    0.23    0.18
   1  -9  -1    0.14    0.16
  -1  -9   1    0.32    0.19
   1   9  -1    0.02    0.14
   1   9  -1    0.19    0.18
   0  -9  -1    0.42    0.22
   0   9   1    0.36    0.17
  -1  -9  -1    0.82    0.28
  -1  -9  -1    1.40    0.34
   1   9   1    1.00    0.28
  -2  -9  -1    1.09    0.28
  -2  -9  -1    1.78    0.37
   2   9   1    2.05    0.40
 -11   0   2    1.10    0.30
 -10   0   2    0.09    0.14
  -9   0   2   -0.04    0.10
   9   0  -2    0.15    0.14
  -8   0   2    3.10    0.40
   8   0  -2    2.87    0.33
   8   0  -2    2.74    0.36
   7   0  -2    5.67    0.30
   7   0  -2    5.38    0.35
   7   0  -2    5.14    0.38
  -7   0   2    5.79    0.42
  -7   0   2    5.23    0.30
   6   0  -2   12.13    0.41
  -6   0   2   11.71    0.55
   6   0  -2   11.94    0.53
   6   0  -2   10.89    0.48
  -6   0   2   10.77    0.39
  -6   0   2   11.43    0.43
   6   0  -2   11.82    0.43
   5   0  -2    2.38    0.24
   5   0  -2    2.17    0.15
   5   0  -2    2.11    0.23
  -5   0   2    2.18    0.25
  -5   0   2    2.11    0.19
   4   0  -2   21.85    0.62
  -4   0   2   21.67    0.66
   4   0  -2   20.90    0.61
   4   0  -2   20.86    0.54
  -4   0   2   21.34    0.61
  -4   0   2   20.66    0.55
  -3   0   2   15.10    0.44
  -3   0   2   15.82    0.41
   3   0  -2   15.15    0.44
  -3   0   2   14.41    0.47
   3   0  -2   15.04    0.45
   3   0  -2   15.99    0.41
   2   0  -2  548.30    9.52
   2   0  -2  562.86    9.65
  -2   0   2  542.75    9.32
   2   0  -2  545.71    9.44
   2   0  -2  531.55    9.41
  -2   0   2  527.98    9.26
  -2   0   2  538.99    9.41
   1   0  -2   14.77    0.35
   1   0  -2   14.61    0.36
  -1   0   2   14.56    0.33
  -1   0   2   14.76    0.35
  -1   0   2   14.69    0.35
   1   0  -2   14.99    0.33
   0   0  -2  239.90    4.11
   0   0   2  243.52    4.14
   0   0  -2  243.16    4.11
   0   0  -2  241.84    4.14
   0   0  -2  235.15    4.15
   0   0   2  237.81    4.14
  -1   0  -2    5.12    0.21
  -1   0  -2    5.60    0.20
   1   0   2    5.30    0.20
   1   0   2    5.12    0.22
   1   0   2    5.11    0.15
  -1   0  -2    4.90    0.18
  -1   0  -2    5.26    0.15
  -2   0  -2   11.66    0.34
   2   0   2   11.64    0.35
   2   0   2   12.33    0.30
  -2   0  -2   11.89    0.37
   2   0   2   12.15    0.41
   3   0   2    2.44    0.19
  -3   0  -2    2.00    0.14
   3   0   2    2.06    0.15
   3   0   2    1.93    0.12
  -3   0  -2    2.17    0.17
   4   0   2    0.00    0.03
   4   0   2    0.02    0.04
  -4   0  -2   -0.01    0.03
   4   0   2    0.08    0.07
  -4   0  -2    0.09    0.05
   5   0   2    3.56    0.30
  -5   0  -2    3.69    0.22
  -5   0  -2    3.85    0.28
   5   0   2    3.72    0.24
   5   0   2    3.72    0.21
  -6   0  -2    6.68    0.32
   6   0   2    7.24    0.33
   6   0   2    6.80    0.35
   6   0   2    6.63    0.45
  -6   0  -2    6.83    0.42
  -7   0  -2    6.16    0.44
   7   0   2    7.46    0.39
   7   0   2    6.16    0.48
  -8   0  -2    1.27    0.26
  -9   0  -2    3.94    0.49
 -10   0  -2    0.60    0.20
 -11  -1   2    0.59    0.25
 -11   1   2    0.62    0.25
 -10  -1   2    2.97    0.45
 -10   1   2    2.15    0.37
  -9  -1   2    1.22    0.28
   9   1  -2    0.85    0.21
   9   1  -2    0.70    0.23
  -9   1   2    0.90    0.26
   8  -1  -2    0.71    0.16
   8  -1  -2    0.54    0.15
   8  -1  -2    0.85    0.23
  -8  -1   2    0.60    0.18
   8   1  -2    0.76    0.21
   8   1  -2    0.51    0.16
  -8   1   2    0.39    0.14
  -8   1   2    0.72    0.17
   7  -1  -2    1.45    0.21
   7  -1  -2    1.82    0.28
   7  -1  -2    1.62    0.22
  -7  -1   2    1.44    0.26
  -7  -1   2    1.93    0.24
  -7   1   2    1.48    0.27
   7   1  -2    1.83    0.27
   7   1  -2    1.55    0.24
  -7   1   2    1.79    0.24
   7   1  -2    1.48    0.21
   6  -1  -2    1.07    0.20
   6  -1  -2    1.17    0.17
  -6  -1   2    1.07    0.21
  -6  -1   2    1.24    0.18
  -6  -1   2    0.99    0.12
   6  -1  -2    1.50    0.20
  -6   1   2    1.56    0.25
  -6   1   2    0.89    0.16
   6   1  -2    1.17    0.13
   6   1  -2    0.71    0.14
   6   1  -2    1.18    0.20
   6   1  -2    1.38    0.21
   5  -1  -2   13.67    0.48
   5  -1  -2   13.78    0.34
   5  -1  -2   13.53    0.55
  -5  -1   2   14.36    0.39
  -5  -1   2   13.16    0.55
  -5   1   2   14.89    0.51
   5   1  -2   14.27    0.50
   5   1  -2   13.99    0.38
  -5   1   2   13.42    0.33
   5   1  -2   13.34    0.50
  -5   1   2   12.86    0.54
   5   1  -2   13.29    0.52
   4  -1  -2  159.08    2.95
  -4  -1   2  161.84    2.81
   4  -1  -2  157.04    3.05
   4  -1  -2  159.38    2.77
  -4  -1   2  163.48    2.95
  -4  -1   2  157.15    3.07
   4   1  -2  161.61    3.00
  -4   1   2  157.40    2.99
  -4   1   2  159.33    3.05
   4   1  -2  158.10    2.95
   4   1  -2  156.35    3.03
   3  -1  -2   84.23    1.64
   3  -1  -2   83.06    1.71
   3  -1  -2   83.45    1.51
  -3  -1   2   85.97    1.51
  -3  -1   2   82.83    1.72
  -3  -1   2   84.69    1.59
   3   1  -2   86.92    1.72
  -3   1   2   83.72    1.69
  -3   1   2   84.23    1.68
   3   1  -2   84.18    1.69
   3   1  -2   85.34    1.60
  -3   1   2   85.20    1.72
   2  -1  -2  405.54    6.87
   2  -1  -2  413.88    7.04
  -2  -1   2  409.76    7.07
  -2  -1   2  392.50    7.02
   2  -1  -2  410.57    7.03
   2  -1  -2  401.53    6.97
  -2  -1   2  407.91    7.02
  -2   1   2  413.17    7.04
  -2   1   2  408.10    7.03
   2   1  -2  390.52    7.09
  -2   1   2  410.76    7.00
   2   1  -2  409.17    7.02
  -2   1   2  400.04    6.96
   2   1  -2  397.65    7.01
  -1  -1   2  177.44    3.11
   1  -1  -2  175.84    3.12
   1  -1  -2  169.82    3.03
   1  -1  -2  172.12    3.07
  -1  -1   2  176.79    3.01
   1   1  -2  173.28    3.11
  -1   1   2  176.68    3.13
   1   1  -2  173.68    3.10
   1   1  -2  173.94    3.08
  -1   1   2  171.64    3.08
  -1   1   2  170.92    2.99
   0  -1  -2   27.69    0.60
   0  -1   2   25.75    0.57
   0  -1   2   26.63    0.54
   0   1   2   26.30    0.62
   0   1  -2   27.14    0.55
   0   1  -2   25.74    0.61
   0   1   2   26.00    0.59
   0   1  -2   26.19    0.59
   0   1  -2   27.28    0.54
   0   1   2   26.87    0.58
   1  -1   2   26.27    0.63
  -1  -1  -2   27.19    0.55
  -1  -1  -2   26.44    0.66
  -1  -1  -2   27.10    0.62
   1  -1   2   26.37    0.62
  -1  -1  -2   26.79    0.64
  -1   1  -2   27.26    0.49
   1   1   2   27.36    0.67
  -1   1  -2   27.41    0.65
  -1   1  -2   27.56    0.59
  -1   1  -2   27.51    0.63
   1   1   2   26.90    0.62
   1   1   2   27.76    0.60
   2  -1   2   31.72    0.75
  -2  -1  -2   30.46    0.78
   2  -1   2   32.41    0.78
  -2  -1  -2   31.21    0.74
  -2  -1  -2   31.21    0.70
  -2   1  -2   30.61    0.66
   2   1   2   31.21    0.69
  -2   1  -2   30.27    0.76
   2   1   2   30.57    0.72
   2   1   2   30.98    0.79
   3  -1   2   12.17    0.26
   3  -1   2   11.97    0.42
   3  -1   2   12.14    0.47
  -3  -1  -2   12.14    0.42
  -3  -1  -2   11.57    0.41
  -3   1  -2   12.18    0.45
   3   1   2   12.74    0.41
   3   1   2   12.51    0.48
   3   1   2   11.65    0.37
  -3   1  -2   12.31    0.34
  -4  -1  -2   19.81    0.64
   4  -1   2   20.37    0.63
   4  -1   2   19.53    0.69
   4  -1   2   19.57    0.45
  -4  -1  -2   19.75    0.60
  -4   1  -2   19.40    0.66
   4   1   2   20.42    0.55
  -4   1  -2   19.60    0.50
   4   1   2   20.39    0.70
   4   1   2   20.69    0.60
   5  -1   2   26.25    0.78
   5  -1   2   24.96    0.88
  -5  -1  -2   27.43    0.77
   5  -1   2   25.35    0.60
  -5  -1  -2   25.18    0.82
   5   1   2   25.35    0.87
   5   1   2   25.75    0.69
   5   1   2   25.37    0.74
  -5   1  -2   26.33    0.86
  -5   1  -2   26.94    0.64
  -6  -1  -2    3.59    0.36
   6  -1   2    4.05    0.42
  -6  -1  -2    3.00    0.24
   6  -1   2    3.05    0.31
   6   1   2    3.61    0.24
   6   1   2    3.60    0.26
  -6   1  -2    2.85    0.34
   6   1   2    4.16    0.43
  -7  -1  -2    0.15    0.11
   7  -1   2    0.26    0.16
   7  -1   2    0.08    0.08
  -7  -1  -2    0.02    0.08
   7   1   2    0.05    0.07
   7   1   2    0.07    0.09
  -7   1  -2    0.03    0.07
   8  -1   2    1.28    0.23
  -8  -1  -2    1.07    0.24
  -8   1  -2    1.43    0.28
  -9  -1  -2    0.79    0.22
  -9   1  -2    1.11    0.26
 -10  -1  -2    0.25    0.18
 -10   1  -2    0.22    0.19
 -10  -2   2    0.05    0.10
 -10   2   2   -0.02    0.12
  10   2  -2   -0.10    0.24
   9  -2  -2    0.63    0.18
  -9  -2   2    0.64    0.22
   9   2  -2    0.95    0.23
  -9   2   2    0.83    0.22
  -9   2   2    0.88    0.24
   8  -2  -2    0.50    0.18
   8  -2  -2    0.32    0.13
  -8  -2   2    0.53    0.19
  -8   2   2    0.27    0.13
   8   2  -2    0.69    0.19
   8   2  -2    0.40    0.14
  -8   2   2    0.59    0.19
  -7  -2   2    0.29    0.11
   7  -2  -2    0.24    0.12
   7  -2  -2   -0.04    0.10
   7  -2  -2    0.42    0.12
  -7  -2   2    0.10    0.12
  -7   2   2    0.17    0.11
   7   2  -2    0.24    0.12
   7   2  -2    0.22    0.10
   7   2  -2    0.19    0.11
  -7   2   2    0.11    0.10
   6  -2  -2    1.17    0.22
  -6  -2   2    1.24    0.23
   6  -2  -2    1.22    0.17
  -6  -2   2    1.32    0.21
   6   2  -2    1.44    0.21
   6   2  -2    0.99    0.19
   6   2  -2    1.14    0.20
  -6   2   2    1.46    0.22
  -6   2   2    1.47    0.24
   5  -2  -2   21.57    0.76
   5  -2  -2   21.97    0.64
  -5  -2   2   22.68    0.77
   5   2  -2   21.29    0.66
   5   2  -2   20.95    0.72
  -5   2   2   21.16    0.72
  -5   2   2   21.17    0.71
   5   2  -2   21.94    0.75
  -4  -2   2   64.42    1.34
   4  -2  -2   64.93    1.52
   4  -2  -2   65.56    1.37
  -4  -2   2   65.49    1.50
  -4   2   2   61.79    1.46
  -4   2   2   64.71    1.45
   4   2  -2   64.79    1.36
   4   2  -2   64.84    1.50
   4   2  -2   64.52    1.49
   3  -2  -2   14.71    0.52
  -3  -2   2   13.95    0.39
  -3  -2   2   13.79    0.49
   3  -2  -2   14.26    0.44
   3  -2  -2   14.09    0.31
  -3   2   2   12.43    0.47
   3   2  -2   12.90    0.49
  -3   2   2   14.48    0.46
   3   2  -2   13.61    0.49
   3   2  -2   13.78    0.39
  -2  -2   2    7.11    0.22
  -2  -2   2    6.92    0.31
  -2  -2   2    7.08    0.18
   2  -2  -2    6.80    0.27
   2  -2  -2    7.23    0.33
   2  -2  -2    7.19    0.23
   2   2  -2    6.90    0.22
   2   2  -2    6.76    0.31
  -2   2   2    7.15    0.31
  -2   2   2    6.73    0.25
   2   2  -2    6.86    0.31
  -2   2   2    6.93    0.33
  -1  -2   2   17.56    0.40
   1  -2  -2   17.15    0.48
  -1  -2   2   17.80    0.51
  -1  -2   2   17.70    0.40
  -1  -2   2   17.23    0.41
   1  -2  -2   17.27    0.45
  -1   2   2   17.15    0.50
   1   2  -2   17.20    0.51
  -1   2   2   17.03    0.40
   1   2  -2   17.54    0.40
  -1   2   2   17.04    0.54
   1   2  -2   17.73    0.51
   1   2  -2   17.32    0.49
   0  -2   2   15.59    0.41
   0  -2   2   15.73    0.42
   0  -2   2   14.67    0.40
   0  -2  -2   15.85    0.33
   0  -2  -2   15.02    0.48
   0  -2  -2   15.19    0.45
   0  -2  -2   15.52    0.46
   0   2   2   15.10    0.33
   0   2  -2   15.15    0.47
   0   2  -2   15.26    0.41
   0   2   2   15.71    0.50
   0   2  -2   15.05    0.42
   0   2  -2   15.59    0.41
   0   2   2   15.54    0.46
   0   2   2   16.10    0.44
   0   2  -2   16.81    0.47
   1  -2   2   30.26    0.72
  -1  -2  -2   29.61    0.74
   1  -2   2   29.58    0.72
  -1  -2  -2   29.01    0.61
  -1  -2  -2   29.02    0.74
  -1  -2  -2   29.21    0.76
  -1   2  -2   30.34    0.69
  -1   2  -2   28.75    0.72
   1   2   2   29.71    0.77
  -1   2  -2   28.78    0.61
  -1   2  -2   29.17    0.76
  -1   2  -2   29.72    0.72
   1   2   2   29.36    0.74
   1   2   2   28.89    0.66
  -2  -2  -2   28.46    0.79
   2  -2   2   29.59    0.78
  -2  -2  -2   29.55    0.68
  -2  -2  -2   29.63    0.78
   2  -2   2   28.87    0.54
   2  -2   2   28.91    0.76
  -2   2  -2   28.60    0.76
  -2   2  -2   29.11    0.79
   2   2   2   28.45    0.65
   2   2   2   28.41    0.76
  -2   2  -2   29.50    0.77
  -2   2  -2   29.02    0.66
   2   2   2   28.35    0.78
   3  -2   2   42.08    1.03
   3  -2   2   41.12    1.06
  -3  -2  -2   38.92    1.02
  -3  -2  -2   41.09    0.96
  -3   2  -2   39.37    1.04
   3   2   2   40.38    1.05
  -3   2  -2   40.09    0.84
   3   2   2   41.14    1.02
  -3   2  -2   40.33    1.02
   3   2   2   40.82    0.86
   4  -2   2    3.56    0.10
   4  -2   2    3.44    0.25
  -4  -2  -2    3.88    0.25
   4  -2   2    3.59    0.28
  -4  -2  -2    3.13    0.24
  -4   2  -2    3.65    0.16
   4   2   2    3.49    0.27
   4   2   2    2.98    0.23
  -4   2  -2    3.99    0.28
   4   2   2    3.25    0.18
  -4   2  -2    3.26    0.25
  -5  -2  -2    2.70    0.29
   5  -2   2    2.30    0.30
   5  -2   2    2.18    0.27
  -5  -2  -2    2.23    0.26
   5   2   2    2.21    0.16
   5   2   2    2.30    0.30
   5   2   2    2.26    0.26
  -5   2  -2    2.33    0.28
  -5   2  -2    2.18    0.28
  -6  -2  -2    0.97    0.19
   6  -2   2    1.43    0.27
   6  -2   2    1.02    0.19
  -6  -2  -2    1.57    0.24
  -6   2  -2    1.02    0.20
   6   2   2    1.23    0.21
   6   2   2    1.45    0.26
   7  -2   2   31.98    1.04
   7  -2   2   32.05    1.19
  -7  -2  -2   32.24    1.09
  -7  -2  -2   31.69    1.00
   7   2   2   29.15    1.10
  -7   2  -2   33.85    1.16
   7   2   2   31.14    1.01
  -8  -2  -2    1.20    0.25
   8  -2   2    1.16    0.24
  -8   2  -2    0.60    0.21
  -9  -2  -2    0.04    0.11
   9  -2   2    0.13    0.12
  -9   2  -2   -0.03    0.10
 -10  -2  -2    0.09    0.15
 -10   2  -2    0.13    0.17
 -10  -3   2    0.16    0.16
 -10   3   2    0.11    0.17
  10   3  -2    0.10    0.16
 -10   3   2    0.22    0.18
  -9  -3   2    0.26    0.16
   9  -3  -2    0.24    0.16
   9   3  -2    0.12    0.16
  -9   3   2    0.64    0.23
  -9   3   2    0.31    0.17
  -8  -3   2    0.48    0.18
   8  -3  -2    0.78    0.21
  -8  -3   2    0.61    0.19
  -8   3   2    0.84    0.23
  -8   3   2    0.41    0.16
   8   3  -2    0.24    0.13
   8   3  -2    0.34    0.15
   7  -3  -2    2.00    0.33
  -7  -3   2    2.37    0.33
   7  -3  -2    2.01    0.29
  -7  -3   2    1.65    0.29
   7   3  -2    1.99    0.30
  -7   3   2    1.58    0.27
   7   3  -2    2.01    0.30
  -7   3   2    1.87    0.30
  -6  -3   2    8.19    0.48
   6  -3  -2    8.94    0.52
  -6  -3   2    7.38    0.47
   6  -3  -2    8.14    0.38
   6   3  -2    9.34    0.52
  -6   3   2    8.37    0.48
  -6   3   2    7.96    0.47
   6   3  -2    7.05    0.45
   6   3  -2    8.67    0.42
  -5  -3   2   10.15    0.51
   5  -3  -2    9.87    0.52
  -5  -3   2   10.08    0.51
   5  -3  -2    9.96    0.40
  -5   3   2    8.78    0.47
  -5   3   2    9.72    0.47
   5   3  -2   10.02    0.42
   5   3  -2    9.84    0.51
   5   3  -2    9.03    0.49
  -4  -3   2   34.95    0.85
   4  -3  -2   34.07    1.03
   4  -3  -2   33.73    0.87
  -4  -3   2   37.07    1.02
   4   3  -2   35.00    0.86
  -4   3   2   35.06    0.95
   4   3  -2   32.89    1.00
  -4   3   2   35.35    1.01
   4   3  -2   34.95    1.03
   3  -3  -2    9.58    0.45
   3  -3  -2    8.64    0.35
  -3  -3   2    9.40    0.33
  -3  -3   2    8.43    0.41
   3  -3  -2    9.42    0.28
   3   3  -2    9.09    0.44
  -3   3   2    9.69    0.46
  -3   3   2    8.96    0.37
   3   3  -2    9.38    0.33
  -3   3   2    9.29    0.42
   3   3  -2    9.29    0.43
   2  -3  -2    5.93    0.34
  -2  -3   2    6.19    0.25
  -2  -3   2    6.79    0.33
   2  -3  -2    6.41    0.29
   2  -3  -2    6.48    0.25
  -2  -3   2    6.74    0.21
   2   3  -2    6.64    0.35
   2   3  -2    6.33    0.26
  -2   3   2    6.89    0.34
   2   3  -2    6.02    0.32
  -2   3   2    6.11    0.35
  -2   3   2    6.54    0.28
   1  -3  -2   36.15    0.91
  -1  -3   2   39.67    0.84
  -1  -3   2   38.24    0.85
  -1  -3   2   36.68    0.95
  -1  -3   2   38.17    0.85
   1  -3  -2   36.81    1.00
   1  -3  -2   38.77    0.90
   1   3  -2   37.99    0.98
  -1   3   2   38.36    0.93
  -1   3   2   37.40    1.01
   1   3  -2   38.29    0.84
  -1   3   2   39.91    0.95
  -1   3   2   37.75    0.83
   1   3  -2   37.60    0.96
   1   3  -2   36.90    0.85
   1   3  -2   39.58    0.95
   0  -3  -2    8.26    0.35
   0  -3   2    8.16    0.32
   0  -3   2    7.82    0.32
   0  -3  -2    7.81    0.35
   0  -3  -2    8.63    0.27
   0  -3   2    8.38    0.32
   0   3   2    8.60    0.37
   0   3   2    8.32    0.33
   0   3  -2    8.24    0.32
   0   3  -2    8.00    0.36
   0   3   2    8.52    0.27
   0   3  -2    8.32    0.36
   0   3  -2    8.02    0.32
   0   3   2    7.99    0.38
   0   3  -2    7.94    0.32
  -1  -3  -2   17.58    0.59
  -1  -3  -2   18.73    0.61
   1  -3   2   18.08    0.56
   1  -3   2   18.03    0.57
   1  -3   2   18.33    0.56
  -1  -3  -2   19.29    0.47
  -1   3  -2   18.52    0.57
  -1   3  -2   17.61    0.60
  -1   3  -2   18.72    0.50
   1   3   2   18.31    0.52
  -1   3  -2   19.06    0.55
  -1   3  -2   19.87    0.59
   1   3   2   19.05    0.61
   1   3   2   17.22    0.59
   1   3   2   18.26    0.62
   2  -3   2   13.78    0.51
   2  -3   2   14.32    0.37
   2  -3   2   14.28    0.52
  -2  -3  -2   13.65    0.54
  -2  -3  -2   14.56    0.43
   2   3   2   14.61    0.54
   2   3   2   13.68    0.53
  -2   3  -2   13.37    0.51
  -2   3  -2   14.13    0.44
  -2   3  -2   13.29    0.53
  -2   3  -2   13.94    0.38
   2   3   2   13.85    0.53
   2   3   2   14.39    0.42
  -3  -3  -2   34.76    0.99
   3  -3   2   34.17    0.68
   3  -3   2   34.16    0.95
  -3  -3  -2   34.90    0.86
   3  -3   2   34.03    0.97
  -3   3  -2   32.97    0.77
   3   3   2   33.77    0.97
   3   3   2   33.69    0.98
   3   3   2   34.28    0.77
  -3   3  -2   31.48    0.94
   3   3   2   33.99    0.97
  -3   3  -2   34.07    0.99
   4  -3   2    4.71    0.32
  -4  -3  -2    4.81    0.29
  -4  -3  -2    4.54    0.33
   4  -3   2    5.69    0.38
  -4   3  -2    5.66    0.36
   4   3   2    4.78    0.33
   4   3   2    4.67    0.21
  -4   3  -2    5.34    0.36
   4   3   2    4.43    0.32
   5  -3   2   16.44    0.72
  -5  -3  -2   16.01    0.67
   5  -3   2   15.95    0.67
  -5  -3  -2   17.04    0.64
   5   3   2   17.19    0.72
   5   3   2   16.82    0.68
  -5   3  -2   16.31    0.71
  -5   3  -2   16.99    0.69
  -6  -3  -2    7.61    0.47
   6  -3   2    9.02    0.51
  -6  -3  -2    9.08    0.49
   6  -3   2    9.11    0.56
   6   3   2    8.25    0.52
  -6   3  -2    8.72    0.54
   6   3   2    9.49    0.53
  -6   3  -2    9.44    0.53
  -7  -3  -2    0.70    0.19
   7  -3   2    0.53    0.18
  -7  -3  -2    0.44    0.16
   7   3   2    0.61    0.20
  -7   3  -2    0.98    0.23
   7   3   2    1.03    0.23
  -8  -3  -2    0.30    0.15
  -8  -3  -2    0.06    0.12
   8  -3   2    0.38    0.16
  -8   3  -2    0.02    0.14
   8   3   2    0.30    0.16
  -9  -3  -2    0.28    0.16
   9  -3   2   -0.01    0.14
  -9   3  -2    0.28    0.19
 -10  -3  -2    0.11    0.16
  10  -3   2    0.00    0.18
 -10  -4   2   -0.09    0.14
  10  -4  -2    0.14    0.17
  10   4  -2    0.00    0.15
 -10   4   2   -0.30    0.16
 -10   4   2   -0.11    0.15
   9  -4  -2    0.02    0.13
  -9  -4   2    0.22    0.18
  -9  -4   2    0.20    0.14
  -9   4   2   -0.03    0.15
  -9   4   2    0.12    0.17
   9   4  -2    0.14    0.16
   9   4  -2   -0.04    0.14
  -8  -4   2    0.42    0.19
  -8  -4   2    0.12    0.12
   8  -4  -2    0.58    0.19
  -8   4   2    0.77    0.23
  -8   4   2    0.68    0.21
   8   4  -2    0.70    0.23
   8   4  -2    0.19    0.15
   7  -4  -2    0.24    0.14
  -7  -4   2    0.44    0.17
  -7  -4   2    0.29    0.16
   7   4  -2    0.31    0.15
  -7   4   2    0.30    0.16
   7   4  -2    0.40    0.16
  -7   4   2    0.44    0.17
  -6  -4   2    0.64    0.19
   6  -4  -2    1.09    0.25
  -6  -4   2    1.14    0.23
   6   4  -2    1.22    0.26
  -6   4   2    1.08    0.22
  -6   4   2    1.27    0.24
   6   4  -2    0.95    0.22
  -5  -4   2    2.46    0.33
   5  -4  -2    3.18    0.38
   5  -4  -2    2.89    0.23
  -5  -4   2    2.83    0.33
   5   4  -2    2.46    0.32
  -5   4   2    2.28    0.31
   5   4  -2    3.38    0.40
  -5   4   2    2.98    0.33
   5   4  -2    3.04    0.24
  -4  -4   2    1.13    0.21
   4  -4  -2    0.77    0.14
   4  -4  -2    0.70    0.18
  -4   4   2    0.90    0.18
   4   4  -2    0.80    0.17
   4   4  -2    0.98    0.20
  -4   4   2    0.78    0.16
   4   4  -2    0.85    0.14
  -3  -4   2    1.86    0.24
  -3  -4   2    1.98    0.17
   3  -4  -2    2.22    0.15
   3  -4  -2    2.28    0.23
   3  -4  -2    1.58    0.24
  -3   4   2    1.73    0.26
   3   4  -2    2.26    0.28
   3   4  -2    2.13    0.17
  -3   4   2    1.85    0.25
   3   4  -2    2.23    0.29
  -3   4   2    2.09    0.23
   2  -4  -2   30.15    0.78
  -2  -4   2   31.78    0.70
  -2  -4   2   30.88    0.78
   2  -4  -2   29.31    0.95
  -2  -4   2   30.55    0.89
   2  -4  -2   30.61    0.84
  -2   4   2   29.88    0.89
  -2   4   2   28.41    0.94
   2   4  -2   30.17    0.91
   2   4  -2   29.48    0.94
  -2   4   2   31.54    0.81
   2   4  -2   30.23    0.70
   2   4  -2   29.15    0.78
   1  -4  -2   16.55    0.58
   1  -4  -2   15.92    0.64
   1  -4  -2   17.26    0.57
  -1  -4   2   17.09    0.54
  -1  -4   2   16.70    0.49
  -1  -4   2   16.09    0.53
  -1  -4   2   15.61    0.59
  -1   4   2   15.02    0.63
   1   4  -2   16.07    0.59
   1   4  -2   16.37    0.54
  -1   4   2   16.51    0.50
   1   4  -2   16.93    0.51
  -1   4   2   16.37    0.58
   1   4  -2   15.21    0.61
   1   4  -2   16.71    0.60
  -1   4   2   17.31    0.59
   0  -4   2    2.70    0.28
   0  -4  -2    2.65    0.27
   0  -4   2    2.70    0.20
   0  -4  -2    3.01    0.18
   0  -4  -2    2.72    0.23
   0  -4   2    2.71    0.21
   0   4  -2    3.38    0.23
   0   4  -2    2.82    0.23
   0   4   2    2.73    0.22
   0   4  -2    3.29    0.22
   0   4  -2    2.94    0.24
   0   4   2    2.92    0.22
   0   4   2    2.91    0.31
   0   4  -2    2.59    0.21
   0   4   2    2.67    0.27
   0   4   2    3.00    0.18
  -1  -4  -2   19.43    0.54
  -1  -4  -2   18.46    0.67
   1  -4   2   18.89    0.62
   1  -4   2   19.90    0.65
  -1  -4  -2   19.34    0.68
   1   4   2   18.98    0.58
   1   4   2   18.77    0.69
  -1   4  -2   18.72    0.57
   1   4   2   19.13    0.68
  -1   4  -2   17.84    0.61
  -1   4  -2   18.87    0.67
  -1   4  -2   18.03    0.62
   1   4   2   19.80    0.69
   2  -4   2    1.70    0.22
   2  -4   2    1.32    0.15
  -2  -4  -2    1.85    0.19
   2  -4   2    1.11    0.18
  -2  -4  -2    1.51    0.23
  -2   4  -2    1.47    0.18
  -2   4  -2    1.55    0.22
   2   4   2    1.47    0.22
  -2   4  -2    1.69    0.17
   2   4   2    1.39    0.16
  -2   4  -2    1.56    0.23
   2   4   2    1.73    0.25
   2   4   2    1.79    0.26
   3  -4   2   19.70    0.71
   3  -4   2   19.36    0.50
  -3  -4  -2   19.35    0.61
  -3  -4  -2   18.12    0.73
   3  -4   2   18.48    0.71
   3   4   2   18.03    0.72
  -3   4  -2   19.16    0.73
  -3   4  -2   19.06    0.71
   3   4   2   19.88    0.54
   3   4   2   19.71    0.73
  -3   4  -2   18.93    0.56
   3   4   2   18.26    0.73
   4  -4   2   12.59    0.58
  -4  -4  -2   13.18    0.63
  -4  -4  -2   13.52    0.53
   4  -4   2   14.08    0.64
  -4   4  -2   13.82    0.62
  -4   4  -2   13.27    0.63
   4   4   2   14.01    0.64
   4   4   2   12.64    0.62
   4   4   2   12.94    0.61
   5  -4   2    9.11    0.55
  -5  -4  -2    7.87    0.43
  -5  -4  -2    8.15    0.51
   5  -4   2    8.53    0.50
  -5   4  -2    8.24    0.52
   5   4   2    9.08    0.52
  -5   4  -2    7.81    0.49
   5   4   2    7.47    0.48
  -6  -4  -2    0.37    0.15
  -6  -4  -2    0.57    0.17
   6  -4   2    0.49    0.17
   6  -4   2    0.44    0.17
   6   4   2    0.29    0.14
  -6   4  -2    0.40    0.18
   6   4   2    0.42    0.16
  -6   4  -2    0.41    0.17
  -7  -4  -2    1.59    0.27
   7  -4   2    1.64    0.30
  -7  -4  -2    1.76    0.32
   7   4   2    2.11    0.35
   7   4   2    1.67    0.29
  -7   4  -2    2.00    0.34
  -7   4  -2    2.04    0.36
  -8  -4  -2    1.05    0.24
   8  -4   2    0.39    0.18
  -8  -4  -2    0.41    0.17
  -8   4  -2    0.49    0.22
   8   4   2    0.63    0.22
   9  -4   2    0.26    0.17
  -9  -4  -2    0.61    0.22
  -9   4  -2    0.73    0.27
   9  -5  -2    0.03    0.16
  -9  -5   2    0.28    0.21
  -9  -5   2    0.33    0.20
  -9   5   2    0.10    0.17
   9   5  -2    0.20    0.20
  -9   5   2    0.26    0.18
   9   5  -2    0.08    0.18
  -8  -5   2    0.10    0.12
  -8  -5   2    0.21    0.15
   8  -5  -2    0.07    0.12
   8   5  -2    0.07    0.14
  -8   5   2    0.24    0.15
   8   5  -2   -0.05    0.11
  -8   5   2   -0.10    0.12
  -7  -5   2   -0.01    0.11
  -7  -5   2    0.07    0.13
   7  -5  -2    0.23    0.16
  -7   5   2    0.22    0.15
   7   5  -2    0.53    0.19
   7   5  -2    0.05    0.13
  -7   5   2    0.25    0.16
  -6  -5   2    4.73    0.48
  -6  -5   2    3.87    0.47
   6  -5  -2    3.89    0.44
  -6   5   2    3.78    0.46
  -6   5   2    4.22    0.45
   6   5  -2    4.53    0.53
   6   5  -2    4.04    0.48
  -5  -5   2    0.50    0.18
   5  -5  -2    0.41    0.13
  -5  -5   2    0.59    0.19
   5  -5  -2    0.62    0.20
  -5   5   2    0.45    0.14
   5   5  -2    0.30    0.13
   5   5  -2    0.22    0.14
  -5   5   2    0.47    0.18
  -4  -5   2    1.85    0.30
   4  -5  -2    2.42    0.27
   4  -5  -2    2.33    0.33
  -4  -5   2    1.99    0.29
   4   5  -2    2.32    0.35
  -4   5   2    2.06    0.31
   4   5  -2    2.16    0.32
  -4   5   2    2.14    0.28
   3  -5  -2   10.83    0.48
   3  -5  -2   10.30    0.58
   3  -5  -2   10.70    0.41
  -3  -5   2   10.40    0.52
   3   5  -2   10.84    0.46
  -3   5   2   10.74    0.48
   3   5  -2   11.08    0.59
  -3   5   2   10.49    0.54
  -3   5   2   10.05    0.58
   3   5  -2   11.11    0.57
   2  -5  -2    4.64    0.31
  -2  -5   2    4.52    0.24
   2  -5  -2    4.90    0.30
  -2  -5   2    4.97    0.30
  -2  -5   2    4.63    0.33
   2  -5  -2    5.17    0.39
   2   5  -2    4.42    0.36
   2   5  -2    4.22    0.23
   2   5  -2    4.69    0.29
   2   5  -2    4.32    0.34
  -2   5   2    4.31    0.33
  -2   5   2    4.42    0.28
  -2   5   2    4.59    0.37
  -1  -5   2    7.09    0.37
   1  -5  -2    6.69    0.38
  -1  -5   2    6.15    0.38
   1  -5  -2    6.56    0.43
  -1  -5   2    6.59    0.32
   1  -5  -2    6.43    0.37
   1  -5  -2    6.34    0.32
  -1   5   2    6.04    0.42
   1   5  -2    6.61    0.42
  -1   5   2    6.64    0.38
   1   5  -2    7.30    0.38
   1   5  -2    7.31    0.41
   1   5  -2    6.62    0.39
  -1   5   2    6.72    0.33
  -1   5   2    6.67    0.39
   1   5  -2    6.95    0.33
   0  -5   2   15.02    0.54
   0  -5  -2   14.75    0.61
   0  -5  -2   13.89    0.48
   0  -5   2   13.86    0.59
   0  -5  -2   13.90    0.59
   0  -5   2   13.99    0.56
   0   5   2   14.70    0.56
   0   5   2   15.37    0.61
   0   5  -2   13.85    0.57
   0   5   2   13.97    0.48
   0   5  -2   13.67    0.53
   0   5  -2   14.15    0.60
   0   5   2   14.28    0.61
   0   5  -2   13.86    0.56
   0   5   2   15.38    0.67
   0   5  -2   14.36    0.61
  -1  -5  -2    1.66    0.25
   1  -5   2    1.73    0.23
   1  -5   2    2.02    0.25
   1  -5   2    1.92    0.23
  -1  -5  -2    1.72    0.19
  -1  -5  -2    2.14    0.28
   1   5   2    2.02    0.27
   1   5   2    1.94    0.27
  -1   5  -2    1.91    0.25
  -1   5  -2    1.33    0.19
   1   5   2    1.52    0.24
  -1   5  -2    1.59    0.23
  -1   5  -2    1.94    0.27
   1   5   2    1.80    0.22
   2  -5   2    1.95    0.21
  -2  -5  -2    2.07    0.22
  -2  -5  -2    1.58    0.26
   2  -5   2    2.29    0.29
  -2  -5  -2    1.78    0.26
   2  -5   2    1.53    0.24
   2   5   2    1.70    0.20
  -2   5  -2    2.02    0.22
  -2   5  -2    2.05    0.24
  -2   5  -2    2.42    0.30
   2   5   2    1.64    0.26
   2   5   2    1.99    0.29
   2   5   2    2.09    0.30
  -2   5  -2    1.28    0.22
  -3  -5  -2    1.37    0.25
   3  -5   2    2.02    0.29
   3  -5   2    1.85    0.28
  -3  -5  -2    1.56    0.21
  -3   5  -2    1.79    0.28
   3   5   2    1.21    0.24
  -3   5  -2    2.09    0.30
   3   5   2    1.69    0.28
   3   5   2    1.35    0.25
  -4  -5  -2    1.71    0.30
   4  -5   2    1.85    0.29
  -4  -5  -2    1.43    0.22
   4  -5   2    1.74    0.28
   4   5   2    1.79    0.29
  -4   5  -2    1.73    0.29
   4   5   2    1.87    0.31
   4   5   2    2.03    0.32
  -4   5  -2    1.86    0.29
   5  -5   2    3.65    0.44
   5  -5   2    3.72    0.43
  -5  -5  -2    4.25    0.33
  -5  -5  -2    4.44    0.48
   5   5   2    4.58    0.50
  -5   5  -2    3.83    0.45
   5   5   2    4.27    0.45
  -5   5  -2    3.91    0.45
  -6  -5  -2    1.41    0.30
   6  -5   2    1.08    0.26
  -6   5  -2    1.50    0.30
   6   5   2    0.91    0.23
  -6   5  -2    1.18    0.27
   6   5   2    2.13    0.34
   7  -5   2    5.09    0.55
  -7  -5  -2    5.90    0.60
   7   5   2    6.63    0.53
  -7   5  -2    6.20    0.61
  -7   5  -2    6.25    0.64
   8  -5   2    0.17    0.16
  -8  -5  -2    0.24    0.16
   8   5   2    0.14    0.15
  -8   5  -2    0.00    0.14
   8  -6  -2   -0.10    0.12
  -8  -6   2    0.18    0.18
  -8  -6   2    0.09    0.16
  -8   6   2    0.31    0.19
   8   6  -2    0.25    0.19
   8   6  -2    0.01    0.15
  -8   6   2    0.37    0.20
  -7  -6   2    0.06    0.15
   7  -6  -2    0.20    0.17
  -7  -6   2   -0.07    0.15
   7   6  -2   -0.04    0.12
   7   6  -2    0.08    0.11
  -7   6   2   -0.03    0.12
  -7   6   2   -0.12    0.12
  -6  -6   2    1.79    0.32
   6  -6  -2    1.26    0.28
  -6  -6   2    1.23    0.29
  -6   6   2    1.13    0.26
   6   6  -2    1.25    0.29
   6   6  -2    1.37    0.30
  -6   6   2    0.70    0.24
  -5  -6   2    0.12    0.14
  -5  -6   2    0.25    0.14
   5   6  -2    0.48    0.19
  -5   6   2    0.44    0.18
   5   6  -2    0.22    0.16
  -5   6   2    0.28    0.14
   4  -6  -2    7.36    0.42
  -4  -6   2    6.91    0.46
  -4  -6   2    5.80    0.48
   4  -6  -2    6.21    0.50
   4   6  -2    6.98    0.51
  -4   6   2    6.61    0.43
  -4   6   2    6.15    0.47
   4   6  -2    6.23    0.50
   3  -6  -2    0.64    0.16
  -3  -6   2    0.30    0.15
  -3  -6   2    0.50    0.15
   3  -6  -2    0.49    0.18
  -3   6   2    0.57    0.18
  -3   6   2    0.72    0.17
  -3   6   2    0.37    0.17
   3   6  -2    0.46    0.18
   3   6  -2    0.64    0.19
  -2  -6   2    3.91    0.44
   2  -6  -2    4.20    0.32
   2  -6  -2    4.03    0.30
  -2  -6   2    5.15    0.37
   2  -6  -2    4.37    0.46
   2   6  -2    3.80    0.42
   2   6  -2    3.57    0.43
  -2   6   2    4.44    0.48
  -2   6   2    4.38    0.43
  -1  -6   2    0.40    0.14
   1  -6  -2    0.47    0.14
  -1  -6   2    0.42    0.16
   1  -6  -2    0.70    0.17
   1  -6  -2    0.59    0.18
  -1  -6   2    0.21    0.10
  -1  -6   2    0.59    0.15
   1   6  -2    0.06    0.08
  -1   6   2    0.17    0.13
   1   6  -2    0.36    0.14
  -1   6   2    0.45    0.14
   1   6  -2    0.39    0.12
   1   6  -2    0.56    0.15
   1   6  -2    0.44    0.17
  -1   6   2    0.39    0.14
   0  -6   2    1.83    0.28
   0  -6  -2    1.45    0.25
   0  -6   2    1.32    0.21
   0  -6   2    1.59    0.25
   0  -6  -2    1.65    0.26
   0  -6  -2    1.31    0.26
   0   6  -2    1.27    0.24
   0   6  -2    1.45    0.24
   0   6   2    1.15    0.23
   0   6   2    1.58    0.24
   0   6  -2    1.66    0.26
   0   6  -2    2.02    0.26
   0   6  -2    1.20    0.24
   0   6   2    1.58    0.28
   0   6   2    1.60    0.27
   1  -6   2   16.20    0.63
   1  -6   2   16.51    0.70
  -1  -6  -2   17.27    0.75
  -1  -6  -2   16.86    0.75
   1  -6   2   15.48    0.65
   1  -6   2   17.06    0.73
   1   6   2   17.80    0.77
  -1   6  -2   16.98    0.69
  -1   6  -2   17.42    0.74
  -1   6  -2   17.07    0.66
   1   6   2   17.83    0.76
   1   6   2   17.27    0.78
   1   6   2   16.23    0.63
  -1   6  -2   16.76    0.70
  -2  -6  -2    3.08    0.38
   2  -6   2    3.24    0.37
   2  -6   2    3.36    0.37
   2  -6   2    3.71    0.30
  -2  -6  -2    4.45    0.48
  -2   6  -2    3.28    0.37
  -2   6  -2    3.79    0.31
   2   6   2    3.78    0.43
   2   6   2    3.17    0.39
   2   6   2    3.08    0.38
  -2   6  -2    3.25    0.39
  -3  -6  -2    5.69    0.45
  -3  -6  -2    5.01    0.52
   3  -6   2    5.90    0.43
   3  -6   2    5.83    0.45
   3   6   2    5.79    0.47
   3   6   2    5.73    0.44
  -3   6  -2    7.00    0.48
  -3   6  -2    5.60    0.53
   3   6   2    5.96    0.47
   4  -6   2    2.05    0.34
  -4  -6  -2    1.42    0.30
   4  -6   2    1.68    0.30
  -4   6  -2    2.15    0.34
   4   6   2    1.46    0.30
  -4   6  -2    2.57    0.38
   4   6   2    1.78    0.31
  -5  -6  -2    2.72    0.41
   5  -6   2    3.06    0.41
  -5   6  -2    3.40    0.45
  -5   6  -2    2.63    0.40
   5   6   2    2.84    0.42
   5   6   2    3.35    0.43
   6  -6   2    0.43    0.19
  -6  -6  -2    0.32    0.20
  -6   6  -2    0.61    0.22
  -6   6  -2    0.80    0.26
   6   6   2    0.69    0.23
   7  -6   2    0.60    0.24
  -7  -6  -2    0.30    0.20
  -7   6  -2    0.40    0.20
  -7   6  -2    0.90    0.27
   7   6   2    0.39    0.20
  -8  -6  -2    0.43    0.23
  -8   6  -2    0.39    0.22
   8   6   2    0.52    0.23
  -7  -7   2    0.90    0.29
  -7  -7   2    1.41    0.35
   7   7  -2    1.05    0.34
   7   7  -2    1.57    0.36
  -6  -7   2    1.00    0.28
  -6  -7   2    1.64    0.38
   6  -7  -2    1.04    0.26
   6   7  -2    0.72    0.26
   6   7  -2    1.07    0.30
  -6   7   2    1.41    0.34
  -5  -7   2    0.50    0.20
   5  -7  -2    0.53    0.21
  -5  -7   2    0.73    0.24
   5   7  -2    0.87    0.26
   5   7  -2    0.46    0.21
  -5   7   2    0.26    0.18
  -4  -7   2    0.71    0.21
  -4  -7   2    0.79    0.24
   4   7  -2    0.80    0.25
   4   7  -2    0.62    0.21
  -4   7   2    0.64    0.23
  -3  -7   2    1.73    0.35
   3  -7  -2    1.54    0.26
  -3  -7   2    1.33    0.27
   3   7  -2    1.47    0.31
   3   7  -2    1.06    0.27
  -3   7   2    1.33    0.28
  -2  -7   2   -0.10    0.08
  -2  -7   2   -0.05    0.08
   2  -7  -2    0.09    0.09
   2   7  -2    0.08    0.10
   2   7  -2    0.05    0.12
  -2   7   2   -0.02    0.10
  -1  -7   2    0.76    0.19
   1  -7  -2    1.38    0.29
   1  -7  -2    1.14    0.23
  -1  -7   2    1.12    0.25
   1  -7  -2    1.17    0.24
  -1   7   2    1.06    0.25
   1   7  -2    0.84    0.21
  -1   7   2    0.79    0.21
  -1   7   2    0.74    0.19
   1   7  -2    1.39    0.29
   1   7  -2    0.91    0.21
   0  -7   2    4.04    0.45
   0  -7   2    3.64    0.41
   0  -7   2    3.29    0.38
   0  -7  -2    3.75    0.43
   0  -7  -2    3.41    0.43
   0  -7   2    3.61    0.36
   0  -7  -2    4.34    0.45
   0   7  -2    3.93    0.39
   0   7   2    3.47    0.42
   0   7  -2    4.27    0.45
   0   7   2    3.63    0.45
   0   7  -2    4.25    0.47
   0   7  -2    3.85    0.41
   0   7   2    3.76    0.40
  -1  -7  -2    1.26    0.27
  -1  -7  -2    1.26    0.26
  -1  -7  -2    1.40    0.30
   1  -7   2    0.68    0.18
   1  -7   2    1.17    0.24
   1  -7   2    1.04    0.23
   1  -7   2    1.06    0.23
   1  -7   2    0.92    0.20
  -1   7  -2    0.92    0.22
  -1   7  -2    1.41    0.26
   1   7   2    0.99    0.26
   1   7   2    1.20    0.26
  -1   7  -2    0.70    0.19
  -1   7  -2    1.01    0.21
  -2  -7  -2    4.48    0.51
  -2  -7  -2    5.27    0.54
   2  -7   2    5.11    0.43
   2  -7   2    4.86    0.48
  -2   7  -2    4.49    0.49
   2   7   2    4.39    0.50
   2   7   2    5.12    0.54
  -2   7  -2    4.80    0.49
  -3  -7  -2    8.15    0.59
   3  -7   2    9.01    0.56
  -3  -7  -2    7.98    0.59
   3   7   2    8.92    0.60
   3   7   2    8.18    0.60
  -3   7  -2    7.84    0.56
  -3   7  -2    8.40    0.56
  -4  -7  -2    0.51    0.21
   4  -7   2    0.52    0.19
  -4  -7  -2    0.47    0.19
   4   7   2    0.59    0.22
  -4   7  -2    0.56    0.20
  -4   7  -2    0.75    0.24
  -5  -7  -2    1.48    0.33
   5  -7   2    1.70    0.33
  -5  -7  -2    1.24    0.29
   5   7   2    2.02    0.38
  -5   7  -2    1.74    0.36
  -5   7  -2    1.66    0.34
   6  -7   2    0.99    0.29
  -6  -7  -2    0.80    0.28
  -6   7  -2    0.73    0.25
  -6   7  -2    0.82    0.27
   6   7   2    0.36    0.21
  -5  -8   2   -0.02    0.17
   5  -8  -2    0.18    0.16
   5   8  -2    0.23    0.20
  -5   8   2    0.15    0.19
   5   8  -2   -0.02    0.15
  -4  -8   2    0.54    0.22
   4  -8  -2    0.24    0.16
  -4   8   2    0.21    0.20
   4   8  -2    0.50    0.25
   4   8  -2    0.26    0.19
   3  -8  -2   -0.03    0.13
  -3  -8   2    0.04    0.12
   3   8  -2    0.20    0.16
   3   8  -2   -0.18    0.11
  -3   8   2   -0.01    0.14
   2  -8  -2    2.91    0.38
  -2  -8   2    1.63    0.33
  -2  -8   2    1.90    0.36
   2   8  -2    2.56    0.39
   2   8  -2    2.72    0.44
  -2   8   2    1.29    0.29
  -1  -8   2   -0.01    0.12
  -1  -8   2    0.00    0.11
  -1  -8   2   -0.08    0.12
   1  -8  -2   -0.09    0.09
   1   8  -2    0.12    0.14
  -1   8   2   -0.01    0.10
  -1   8   2   -0.09    0.09
   1   8  -2   -0.09    0.10
   0  -8  -2    0.17    0.14
   0  -8   2    0.29    0.15
   0  -8   2    0.18    0.14
   0  -8  -2    0.37    0.16
   0  -8   2    0.65    0.22
   0   8   2    0.11    0.11
   0   8  -2    0.36    0.18
   0   8  -2    0.14    0.15
   0   8  -2    0.54    0.19
  -1  -8  -2    0.49    0.19
  -1  -8  -2    0.57    0.20
   1  -8   2    0.39    0.18
   1  -8   2    0.52    0.21
   1   8   2    0.69    0.23
  -1   8  -2    1.15    0.28
   2  -8   2    0.35    0.17
  -2  -8  -2    0.19    0.14
   2  -8   2    0.19    0.15
  -2  -8  -2    0.14    0.15
  -2   8  -2    0.17    0.18
  -2   8  -2   -0.01    0.13
   2   8   2    0.12    0.16
  -3  -8  -2    0.38    0.18
  -3  -8  -2   -0.18    0.10
   3  -8   2    0.23    0.16
   3   8   2    0.39    0.19
  -3   8  -2    0.05    0.15
  -3   8  -2    0.22    0.18
  -4  -8  -2    1.34    0.32
  -4  -8  -2    1.00    0.30
   4  -8   2    2.30    0.42
  -4   8  -2    1.91    0.38
   4   8   2    1.63    0.36
  -4   8  -2    1.50    0.33
  -5  -8  -2    0.48    0.28
  -5   8  -2    0.41    0.19
   5   8   2    0.53    0.28
  -2  -9   2    0.60    0.25
   2  -9  -2    0.70    0.37
  -2  -9   2    0.78    0.26
   2   9  -2    0.80    0.26
   2   9  -2    0.24    0.19
  -1  -9   2    0.12    0.16
  -1  -9   2    0.05    0.16
   1  -9  -2    0.01    0.13
   1   9  -2    0.07    0.15
   1   9  -2    0.16    0.18
   0  -9  -2    0.67    0.24
   0   9   2    0.62    0.22
  -1  -9  -2    0.21    0.17
  -1  -9  -2   -0.05    0.14
   1   9   2    0.30    0.19
  -2  -9  -2    0.47    0.23
  -2  -9  -2    0.37    0.21
   2   9   2    0.45    0.23
 -11   0   3    1.79    0.35
 -10   0   3    0.09    0.15
  -9   0   3    0.75    0.23
   9   0  -3    0.54    0.18
   9   0  -3    0.46    0.19
   8   0  -3    0.12    0.10
   8   0  -3    0.55    0.17
  -8   0   3    0.33    0.15
  -7   0   3    7.12    0.35
  -7   0   3    6.67    0.45
   7   0  -3    6.53    0.41
   7   0  -3    6.43    0.40
   7   0  -3    7.05    0.35
   6   0  -3    0.17    0.08
   6   0  -3    0.09    0.06
   6   0  -3    0.26    0.10
  -6   0   3    0.22    0.09
  -6   0   3    0.12    0.09
  -5   0   3   16.31    0.62
   5   0  -3   15.77    0.56
  -5   0   3   17.30    0.52
   5   0  -3   16.20    0.50
   5   0  -3   16.77    0.58
   4   0  -3   46.65    1.07
   4   0  -3   47.85    1.11
  -4   0   3   46.94    1.14
  -4   0   3   46.13    1.03
   4   0  -3   48.51    1.03
  -4   0   3   47.50    1.08
   3   0  -3   28.75    0.68
   3   0  -3   27.97    0.71
   3   0  -3   28.49    0.67
  -3   0   3   27.65    0.67
  -3   0   3   26.77    0.71
  -3   0   3   26.99    0.65
   3   0  -3   27.51    0.66
   2   0  -3  104.73    1.90
  -2   0   3  104.81    1.91
   2   0  -3  101.81    1.95
  -2   0   3  103.20    1.94
   2   0  -3  102.04    1.92
  -2   0   3  102.44    1.89
   2   0  -3  104.31    1.89
  -1   0   3    9.25    0.27
   1   0  -3    9.68    0.30
  -1   0   3    9.16    0.28
   1   0  -3    9.37    0.26
   1   0  -3    8.84    0.29
  -1   0   3    9.91    0.27
   0   0   3   42.25    0.88
   0   0  -3   41.29    0.84
   0   0  -3   41.21    0.88
   0   0  -3   42.92    0.87
   0   0   3   42.48    0.87
   0   0  -3   42.53    0.84
   1   0   3    2.87    0.16
  -1   0  -3    2.84    0.16
  -1   0  -3    3.01    0.18
  -1   0  -3    3.09    0.16
   1   0   3    3.22    0.18
  -1   0  -3    2.78    0.12
   2   0   3    0.58    0.11
   2   0   3    0.62    0.07
  -2   0  -3    0.66    0.10
  -2   0  -3    0.68    0.07
  -2   0  -3    0.55    0.09
   2   0   3    0.59    0.10
  -2   0  -3    0.28    0.08
   3   0   3   42.74    0.87
  -3   0  -3   43.01    0.96
   3   0   3   41.41    0.98
   3   0   3   39.75    1.07
  -3   0  -3   42.80    1.02
  -4   0  -3   20.15    0.67
   4   0   3   20.06    0.62
   4   0   3   20.63    0.73
  -4   0  -3   20.47    0.60
  -5   0  -3   39.88    0.98
  -5   0  -3   39.81    1.11
   5   0   3   40.36    0.91
   5   0   3   37.66    1.01
   5   0   3   40.45    1.20
  -6   0  -3    1.93    0.27
   6   0   3    1.84    0.23
   6   0   3    1.62    0.28
  -6   0  -3    1.72    0.21
   7   0   3   -0.08    0.08
   7   0   3   -0.01    0.11
  -7   0  -3    0.02    0.08
  -8   0  -3    0.11    0.13
  -9   0  -3    0.34    0.16
 -10   0  -3    0.16    0.17
 -11  -1   3    0.07    0.17
 -11   1   3    0.46    0.19
 -10  -1   3    0.22    0.16
 -10   1   3   -0.01    0.08
  -9  -1   3    0.28    0.16
   9   1  -3    0.23    0.14
  -9   1   3    0.26    0.15
   8  -1  -3    0.61    0.19
   8  -1  -3    0.79    0.17
   8  -1  -3    1.02    0.19
  -8  -1   3    1.04    0.24
  -8   1   3    0.89    0.18
   8   1  -3    0.99    0.21
  -8   1   3    0.82    0.21
   8   1  -3    0.95    0.22
   7  -1  -3    2.91    0.34
   7  -1  -3    3.39    0.27
  -7  -1   3    3.25    0.38
   7   1  -3    3.86    0.28
  -7   1   3    3.19    0.32
  -7   1   3    3.70    0.40
   7   1  -3    3.26    0.35
   7   1  -3    3.41    0.35
   6  -1  -3    1.00    0.19
  -6  -1   3    1.56    0.25
  -6  -1   3    1.11    0.13
   6  -1  -3    1.43    0.20
   6   1  -3    1.35    0.20
   6   1  -3    1.09    0.13
   6   1  -3    1.41    0.20
  -6   1   3    1.05    0.20
   6   1  -3    0.77    0.17
  -6   1   3    1.18    0.18
   5  -1  -3    4.93    0.31
  -5  -1   3    4.22    0.24
   5  -1  -3    3.94    0.25
  -5  -1   3    4.91    0.21
   5  -1  -3    4.26    0.19
  -5  -1   3    4.76    0.32
   5   1  -3    4.60    0.28
   5   1  -3    4.03    0.28
   5   1  -3    4.40    0.26
  -5   1   3    4.02    0.26
  -5   1   3    4.22    0.29
  -4  -1   3    7.44    0.24
  -4  -1   3    7.31    0.28
   4  -1  -3    7.38    0.25
   4  -1  -3    7.27    0.35
   4  -1  -3    7.32    0.32
   4   1  -3    7.01    0.33
  -4   1   3    7.56    0.35
   4   1  -3    7.47    0.29
  -4   1   3    6.80    0.32
   4   1  -3    6.53    0.33
  -3  -1   3   13.16    0.34
  -3  -1   3   12.66    0.33
  -3  -1   3   12.71    0.45
   3  -1  -3   12.77    0.42
   3  -1  -3   13.23    0.35
   3  -1  -3   11.97    0.43
  -3   1   3   12.48    0.42
  -3   1   3   12.53    0.44
  -3   1   3   13.36    0.43
   3   1  -3   12.09    0.43
   3   1  -3   13.09    0.45
   3   1  -3   12.80    0.34
  -2  -1   3   88.33    1.73
  -2  -1   3   87.83    1.59
   2  -1  -3   87.02    1.69
   2  -1  -3   86.39    1.72
   2  -1  -3   87.80    1.62
   2  -1  -3   85.89    1.72
  -2   1   3   86.46    1.64
  -2   1   3   88.01    1.71
   2   1  -3   87.84    1.71
   2   1  -3   86.56    1.72
  -2   1   3   85.54    1.72
   2   1  -3   86.92    1.51
   2   1  -3   87.32    1.51
   1  -1  -3    5.99    0.23
  -1  -1   3    5.76    0.24
  -1  -1   3    5.54    0.21
  -1  -1   3    6.03    0.14
   1  -1  -3    6.00    0.25
   1  -1  -3    5.54    0.22
   1   1  -3    5.74    0.24
   1   1  -3    5.48    0.24
  -1   1   3    5.79    0.24
  -1   1   3    6.05    0.26
   1   1  -3    6.05    0.14
  -1   1   3    5.71    0.17
   1   1  -3    5.86    0.23
   0  -1   3   24.49    0.54
   0  -1  -3   24.51    0.45
   0  -1   3   24.51    0.58
   0  -1  -3   24.93    0.62
   0  -1  -3   24.11    0.58
   0  -1  -3   24.57    0.60
   0   1   3   24.80    0.45
   0   1   3   24.25    0.59
   0   1  -3   24.50    0.53
   0   1  -3   24.18    0.61
   0   1  -3   24.07    0.53
   0   1   3   24.76    0.63
   0   1  -3   24.02    0.59
   1  -1   3   54.19    1.15
  -1  -1  -3   53.85    1.16
  -1  -1  -3   55.27    1.04
   1  -1   3   55.77    1.15
  -1  -1  -3   55.59    1.12
  -1   1  -3   55.68    0.99
  -1   1  -3   54.29    1.11
  -1   1  -3   54.72    1.14
   1   1   3   55.45    1.13
   1   1   3   54.86    1.12
  -1   1  -3   54.32    1.17
   1   1   3   54.30    1.20
   2  -1   3    3.29    0.21
   2  -1   3    3.24    0.20
  -2  -1  -3    3.62    0.19
  -2  -1  -3    3.23    0.20
  -2  -1  -3    3.47    0.17
   2   1   3    3.62    0.19
  -2   1  -3    3.52    0.21
   2   1   3    3.56    0.24
  -2   1  -3    2.98    0.16
  -2   1  -3    3.48    0.21
   2   1   3    3.41    0.19
   3  -1   3   62.54    1.44
  -3  -1  -3   61.02    1.32
   3  -1   3   62.54    1.36
  -3  -1  -3   63.58    1.36
   3   1   3   60.04    1.29
  -3   1  -3   59.27    1.25
  -3   1  -3   61.77    1.05
   3   1   3   62.21    1.30
   3   1   3   59.84    1.44
  -3   1  -3   60.49    1.39
  -4  -1  -3    5.19    0.30
   4  -1   3    6.33    0.17
  -4  -1  -3    6.15    0.32
   4  -1   3    6.10    0.37
   4  -1   3    6.19    0.33
   4   1   3    6.47    0.38
  -4   1  -3    6.19    0.17
  -4   1  -3    6.01    0.26
   4   1   3    6.34    0.30
  -4   1  -3    6.14    0.35
   4   1   3    6.24    0.30
  -5  -1  -3   24.01    0.78
   5  -1   3   22.38    0.84
   5  -1   3   22.77    0.74
  -5  -1  -3   21.60    0.72
   5   1   3   22.91    0.69
  -5   1  -3   23.12    0.81
   5   1   3   23.61    0.86
  -5   1  -3   22.99    0.62
   5   1   3   23.47    0.68
   6  -1   3    0.03    0.07
   6  -1   3    0.04    0.09
  -6  -1  -3    0.12    0.08
  -6  -1  -3    0.14    0.09
   6   1   3    0.05    0.08
  -6   1  -3    0.09    0.08
   6   1   3    0.12    0.08
   6   1   3    0.13    0.14
   7  -1   3    5.09    0.45
   7  -1   3    4.88    0.52
  -7  -1  -3    5.47    0.35
  -7  -1  -3    5.38    0.41
   7   1   3    4.15    0.47
  -7   1  -3    5.13    0.51
   8  -1   3    1.21    0.24
  -8  -1  -3    1.20    0.26
  -8   1  -3    1.61    0.31
  -9  -1  -3    0.43    0.18
  -9   1  -3    0.60    0.21
 -10  -1  -3    0.29    0.20
 -10   1  -3    0.49    0.22
 -10  -2   3    1.06    0.28
 -10   2   3    1.58    0.32
  10   2  -3    1.03    0.26
  -9  -2   3    1.48    0.31
   9  -2  -3    0.74    0.20
  -9   2   3    1.02    0.23
  -9   2   3    1.73    0.32
   9   2  -3    1.21    0.26
   8  -2  -3    1.97    0.29
  -8  -2   3    1.47    0.24
   8  -2  -3    1.95    0.32
  -8  -2   3    1.86    0.31
  -8   2   3    1.61    0.28
  -8   2   3    1.52    0.25
   8   2  -3    1.77    0.29
   8   2  -3    1.54    0.25
  -7  -2   3    3.16    0.39
   7  -2  -3    3.36    0.27
   7  -2  -3    3.60    0.40
  -7  -2   3    3.02    0.34
  -7   2   3    3.02    0.37
   7   2  -3    3.15    0.27
   7   2  -3    3.29    0.35
  -7   2   3    2.62    0.31
   7   2  -3    3.28    0.38
   6  -2  -3   19.48    0.76
  -6  -2   3   19.35    0.77
   6  -2  -3   18.62    0.64
  -6   2   3   19.61    0.74
  -6   2   3   19.81    0.72
   6   2  -3   19.58    0.65
   6   2  -3   18.92    0.74
   6   2  -3   20.18    0.73
  -5  -2   3    5.12    0.26
  -5  -2   3    5.46    0.35
   5  -2  -3    5.50    0.30
   5  -2  -3    5.40    0.35
   5   2  -3    5.42    0.27
  -5   2   3    5.58    0.34
   5   2  -3    5.94    0.36
  -5   2   3    5.15    0.33
   5   2  -3    5.28    0.34
  -4  -2   3  245.70    4.34
   4  -2  -3  241.19    4.23
  -4  -2   3  249.24    4.17
   4  -2  -3  246.03    4.48
   4  -2  -3  242.09    4.60
  -4  -2   3  243.35    4.60
  -4   2   3  249.65    4.57
   4   2  -3  252.03    4.61
   4   2  -3  247.55    4.60
  -4   2   3  248.58    4.52
   4   2  -3  245.36    4.35
  -3  -2   3   39.95    0.76
  -3  -2   3   40.57    0.80
   3  -2  -3   41.28    0.83
   3  -2  -3   39.31    0.95
  -3  -2   3   39.50    1.02
   3  -2  -3   40.80    1.05
   3   2  -3   40.74    1.02
  -3   2   3   41.48    0.94
  -3   2   3   40.51    1.01
   3   2  -3   40.38    0.80
   3   2  -3   38.78    1.02
  -3   2   3   41.89    1.06
  -2  -2   3   22.16    0.65
   2  -2  -3   23.11    0.76
  -2  -2   3   22.61    0.43
  -2  -2   3   22.56    0.50
   2  -2  -3   22.76    0.55
   2  -2  -3   21.91    0.61
  -2  -2   3   22.79    0.43
   2  -2  -3   22.72    0.68
   2   2  -3   22.89    0.64
   2   2  -3   22.78    0.43
  -2   2   3   23.03    0.54
   2   2  -3   22.49    0.66
  -2   2   3   22.92    0.65
  -2   2   3   21.85    0.68
   1  -2  -3    9.88    0.35
  -1  -2   3    9.55    0.24
   1  -2  -3    9.40    0.33
  -1  -2   3    9.46    0.37
  -1  -2   3    9.56    0.30
  -1  -2   3    9.62    0.24
  -1   2   3    9.76    0.40
  -1   2   3    9.85    0.36
  -1   2   3    9.86    0.24
   1   2  -3    9.64    0.34
   1   2  -3    9.88    0.38
   1   2  -3    8.98    0.37
   0  -2  -3   43.65    0.99
   0  -2  -3   44.35    0.99
   0  -2   3   43.17    0.90
   0  -2   3   42.98    0.90
   0  -2   3   43.56    0.95
   0   2   3   43.64    1.05
   0   2  -3   43.21    0.92
   0   2  -3   44.44    0.91
   0   2  -3   44.15    1.03
   0   2   3   43.92    1.00
   0   2  -3   43.13    0.99
   0   2   3   43.90    0.97
  -1  -2  -3   58.19    1.07
   1  -2   3   56.40    1.22
  -1  -2  -3   57.64    1.27
   1  -2   3   61.22    1.26
  -1  -2  -3   57.69    1.26
  -1  -2  -3   55.27    1.39
   1   2   3   56.74    1.26
   1   2   3   59.45    1.32
  -1   2  -3   59.14    1.22
  -1   2  -3   58.23    1.09
   1   2   3   58.35    1.20
  -1   2  -3   57.18    1.30
  -1   2  -3   56.69    1.22
  -2  -2  -3    9.58    0.40
   2  -2   3   10.16    0.40
  -2  -2  -3   10.27    0.32
   2  -2   3    9.72    0.39
  -2  -2  -3   10.01    0.40
  -2   2  -3    9.47    0.41
  -2   2  -3   10.01    0.34
   2   2   3    8.93    0.38
   2   2   3    9.94    0.34
   2   2   3    9.95    0.43
  -3  -2  -3    3.09    0.20
  -3  -2  -3    2.79    0.22
   3  -2   3    2.69    0.23
   3  -2   3    2.93    0.22
   3   2   3    2.94    0.18
  -3   2  -3    2.99    0.17
   3   2   3    2.87    0.24
   3   2   3    2.64    0.21
  -3   2  -3    2.59    0.28
   4  -2   3    1.80    0.25
   4  -2   3    1.56    0.22
  -4  -2  -3    1.59    0.22
  -4  -2  -3    1.84    0.21
   4   2   3    1.81    0.18
  -4   2  -3    1.56    0.12
   4   2   3    1.71    0.25
  -4   2  -3    1.76    0.25
   4   2   3    1.65    0.21
   5  -2   3    2.40    0.28
  -5  -2  -3    1.91    0.25
  -5  -2  -3    2.39    0.27
   5  -2   3    2.30    0.31
   5   2   3    2.33    0.22
   5   2   3    2.47    0.32
  -5   2  -3    1.96    0.28
   5   2   3    2.47    0.28
   6  -2   3    2.81    0.33
  -6  -2  -3    3.23    0.35
  -6  -2  -3    3.09    0.34
   6  -2   3    3.27    0.40
   6   2   3    2.92    0.38
  -6   2  -3    2.86    0.36
   6   2   3    2.96    0.32
   7  -2   3    0.78    0.28
  -7  -2  -3    0.97    0.21
   7  -2   3    0.91    0.22
  -7  -2  -3    0.63    0.17
   7   2   3    0.96    0.20
  -7   2  -3    0.55    0.19
   7   2   3    0.86    0.24
  -8  -2  -3    0.92    0.21
   8  -2   3    0.70    0.20
  -8   2  -3    0.94    0.25
   9  -2   3    0.69    0.21
  -9  -2  -3    0.99    0.24
  -9   2  -3    0.64    0.23
 -10  -2  -3    0.16    0.15
 -10   2  -3   -0.01    0.15
 -10  -3   3    0.12    0.16
  10   3  -3   -0.04    0.15
 -10   3   3   -0.01    0.15
 -10   3   3   -0.03    0.13
   9  -3  -3    0.00    0.11
  -9  -3   3   -0.05    0.10
  -9   3   3    0.06    0.16
  -9   3   3    0.02    0.09
   9   3  -3    0.39    0.17
  -8  -3   3    3.02    0.38
  -8  -3   3    3.72    0.46
   8  -3  -3    2.79    0.36
   8   3  -3    2.48    0.37
  -8   3   3    2.58    0.36
  -8   3   3    3.84    0.46
   8   3  -3    3.61    0.41
   7  -3  -3    2.63    0.36
  -7  -3   3    3.01    0.37
  -7  -3   3    3.57    0.42
   7  -3  -3    2.93    0.29
  -7   3   3    3.84    0.42
  -7   3   3    3.31    0.39
   7   3  -3    3.70    0.40
   7   3  -3    2.92    0.38
  -6  -3   3   17.27    0.75
   6  -3  -3   16.49    0.60
   6  -3  -3   15.43    0.71
   6   3  -3   16.43    0.72
   6   3  -3   15.47    0.69
  -6   3   3   16.64    0.70
  -6   3   3   15.67    0.67
  -5  -3   3    0.66    0.17
   5  -3  -3    0.35    0.12
   5  -3  -3    0.93    0.16
   5   3  -3    0.61    0.16
  -5   3   3    0.76    0.16
   5   3  -3    0.79    0.12
   5   3  -3    0.82    0.18
  -5   3   3    0.88    0.18
   4  -3  -3    3.35    0.34
  -4  -3   3    3.65    0.20
  -4  -3   3    2.95    0.30
   4  -3  -3    3.70    0.25
   4  -3  -3    3.49    0.15
  -4   3   3    3.80    0.29
   4   3  -3    3.81    0.20
  -4   3   3    3.81    0.25
   4   3  -3    3.80    0.30
   4   3  -3    3.30    0.33
   3  -3  -3    1.78    0.20
   3  -3  -3    2.02    0.13
  -3  -3   3    1.80    0.22
   3  -3  -3    2.05    0.26
  -3  -3   3    1.77    0.09
  -3  -3   3    1.78    0.12
  -3   3   3    2.37    0.17
   3   3  -3    1.76    0.25
   3   3  -3    1.45    0.11
  -3   3   3    1.61    0.21
   3   3  -3    1.63    0.21
  -3   3   3    1.47    0.22
   2  -3  -3    2.07    0.21
  -2  -3   3    2.32    0.24
   2  -3  -3    2.33    0.16
   2  -3  -3    2.60    0.28
  -2  -3   3    2.36    0.13
  -2  -3   3    2.49    0.13
  -2  -3   3    2.58    0.13
   2   3  -3    2.21    0.13
  -2   3   3    2.62    0.28
  -2   3   3    2.39    0.15
  -2   3   3    2.74    0.26
   2   3  -3    2.87    0.22
   2   3  -3    2.26    0.26
  -1  -3   3    4.32    0.21
  -1  -3   3    3.77    0.18
  -1  -3   3    3.51    0.25
  -1  -3   3    3.95    0.18
   1  -3  -3    3.57    0.21
   1  -3  -3    3.86    0.24
   1   3  -3    3.98    0.24
  -1   3   3    3.86    0.28
   1   3  -3    3.72    0.25
   1   3  -3    3.88    0.25
  -1   3   3    3.89    0.25
  -1   3   3    4.02    0.16
   0  -3  -3    2.86    0.12
   0  -3   3    2.83    0.17
   0  -3  -3    2.38    0.19
   0  -3  -3    2.18    0.22
   0  -3   3    2.48    0.18
   0  -3   3    2.62    0.17
   0   3   3    2.31    0.25
   0   3  -3    2.84    0.18
   0   3  -3    2.93    0.18
   0   3   3    2.78    0.21
   0   3  -3    2.95    0.21
   0   3  -3    2.90    0.22
   0   3   3    2.88    0.20
   1  -3   3   52.18    1.20
  -1  -3  -3   51.12    1.01
  -1  -3  -3   51.60    1.24
   1  -3   3   52.03    1.20
  -1  -3  -3   51.95    1.24
   1  -3   3   52.16    1.18
  -1   3  -3   53.54    1.20
  -1   3  -3   52.54    1.28
  -1   3  -3   52.25    1.19
   1   3   3   51.94    1.15
  -1   3  -3   53.02    1.22
  -1   3  -3   51.21    1.08
   1   3   3   50.08    1.23
   1   3   3   52.57    1.30
   2  -3   3    1.42    0.09
  -2  -3  -3    1.40    0.14
   2  -3   3    1.74    0.20
   2  -3   3    1.17    0.18
  -2  -3  -3    1.70    0.22
  -2  -3  -3    1.83    0.22
   2   3   3    1.46    0.21
  -2   3  -3    1.62    0.21
   2   3   3    1.36    0.20
  -2   3  -3    1.70    0.10
  -2   3  -3    1.39    0.20
   2   3   3    1.59    0.17
  -2   3  -3    1.53    0.17
  -3  -3  -3   11.21    0.40
  -3  -3  -3   10.52    0.49
   3  -3   3    9.16    0.46
   3  -3   3   10.69    0.48
  -3   3  -3   11.74    0.39
   3   3   3   11.12    0.53
   3   3   3   11.06    0.49
  -3   3  -3   10.92    0.51
  -3   3  -3   11.21    0.50
   3   3   3   10.54    0.38
  -4  -3  -3    2.89    0.22
   4  -3   3    2.16    0.27
   4  -3   3    2.81    0.32
  -4  -3  -3    2.61    0.30
  -4   3  -3    1.96    0.28
  -4   3  -3    2.83    0.32
   4   3   3    2.94    0.18
  -4   3  -3    2.56    0.20
   4   3   3    3.04    0.34
   4   3   3    2.51    0.29
  -5  -3  -3   52.37    1.32
   5  -3   3   49.56    1.46
  -5  -3  -3   52.41    1.41
   5  -3   3   49.13    1.38
   5   3   3   54.23    1.41
  -5   3  -3   50.50    1.46
   5   3   3   51.44    1.47
  -6  -3  -3    4.16    0.42
   6  -3   3    4.19    0.46
   6  -3   3    3.92    0.41
  -6  -3  -3    5.15    0.36
   6   3   3    4.37    0.47
   6   3   3    4.09    0.41
  -6   3  -3    4.27    0.47
   7  -3   3    0.48    0.18
  -7  -3  -3    0.44    0.17
  -7  -3  -3    0.64    0.19
  -7   3  -3    0.39    0.18
   7   3   3    0.79    0.21
   7   3   3    0.48    0.16
   8  -3   3    0.09    0.13
  -8  -3  -3    0.27    0.14
  -8  -3  -3    0.16    0.14
  -8   3  -3    0.13    0.14
  -9  -3  -3    1.37    0.29
   9  -3   3    1.44    0.29
  -9   3  -3    0.85    0.28
  10  -4  -3   -0.02    0.14
 -10  -4   3   -0.04    0.16
  10   4  -3    0.17    0.19
 -10   4   3    0.25    0.17
 -10   4   3   -0.07    0.17
  -9  -4   3    0.03    0.14
   9  -4  -3   -0.07    0.11
  -9  -4   3    0.02    0.14
  -9   4   3    0.04    0.13
   9   4  -3    0.08    0.13
  -9   4   3   -0.04    0.15
   9   4  -3    0.08    0.13
  -8  -4   3    1.36    0.28
  -8  -4   3    1.56    0.32
   8  -4  -3    1.27    0.27
  -8   4   3    1.63    0.31
  -8   4   3    1.29    0.28
   8   4  -3    1.69    0.32
   8   4  -3    1.33    0.30
  -7  -4   3    0.75    0.21
  -7  -4   3    1.02    0.25
  -7   4   3    0.60    0.18
   7   4  -3    0.69    0.20
   7   4  -3    0.96    0.24
  -7   4   3    0.65    0.20
  -6  -4   3    5.90    0.44
   6  -4  -3    5.19    0.43
   6  -4  -3    5.22    0.33
  -6  -4   3    5.22    0.43
   6   4  -3    5.56    0.43
  -6   4   3    4.24    0.45
   6   4  -3    4.86    0.50
  -6   4   3    5.70    0.40
   5  -4  -3    5.65    0.43
   5  -4  -3    5.56    0.34
  -5  -4   3    6.01    0.41
   5   4  -3    5.01    0.39
  -5   4   3    5.46    0.40
  -5   4   3    6.42    0.38
   5   4  -3    6.07    0.43
  -4  -4   3    1.88    0.26
   4  -4  -3    1.36    0.20
   4  -4  -3    1.32    0.24
   4   4  -3    0.99    0.21
   4   4  -3    1.37    0.16
  -4   4   3    1.52    0.24
  -4   4   3    1.12    0.18
   4   4  -3    1.70    0.28
  -3  -4   3    3.77    0.21
   3  -4  -3    3.56    0.21
   3  -4  -3    3.42    0.36
  -3  -4   3    3.08    0.32
   3  -4  -3    3.66    0.26
   3   4  -3    3.71    0.21
   3   4  -3    3.73    0.38
  -3   4   3    3.59    0.24
  -3   4   3    3.29    0.34
  -3   4   3    3.75    0.38
   3   4  -3    3.79    0.30
   2  -4  -3   41.70    1.10
   2  -4  -3   42.48    1.23
  -2  -4   3   44.85    0.95
  -2  -4   3   44.12    0.97
  -2  -4   3   43.54    0.97
  -2  -4   3   43.21    1.17
   2  -4  -3   42.46    1.03
   2   4  -3   43.44    1.17
   2   4  -3   44.26    1.22
   2   4  -3   41.78    1.15
  -2   4   3   41.66    1.23
  -2   4   3   44.46    1.00
  -2   4   3   41.92    1.15
   2   4  -3   43.78    0.98
  -1  -4   3    6.07    0.36
   1  -4  -3    6.13    0.32
   1  -4  -3    5.78    0.34
  -1  -4   3    6.18    0.28
  -1  -4   3    6.24    0.28
  -1  -4   3    5.84    0.28
   1   4  -3    6.83    0.36
  -1   4   3    5.61    0.33
   1   4  -3    6.10    0.29
  -1   4   3    6.10    0.39
   1   4  -3    7.02    0.39
  -1   4   3    6.27    0.26
  -1   4   3    6.33    0.35
   1   4  -3    6.00    0.36
   0  -4  -3    7.36    0.39
   0  -4  -3    7.62    0.26
   0  -4   3    7.32    0.40
   0  -4   3    7.87    0.34
   0  -4   3    7.83    0.36
   0  -4   3    7.56    0.35
   0  -4  -3    7.19    0.38
   0   4   3    7.52    0.40
   0   4  -3    7.45    0.39
   0   4   3    7.10    0.36
   0   4  -3    7.68    0.41
   0   4  -3    7.21    0.35
   0   4  -3    7.58    0.35
   0   4   3    7.86    0.44
  -1  -4  -3    9.75    0.47
  -1  -4  -3   10.52    0.48
   1  -4   3    9.44    0.43
  -1  -4  -3   10.60    0.33
   1  -4   3    9.97    0.44
   1   4   3   10.72    0.49
  -1   4  -3   10.50    0.50
  -1   4  -3   10.56    0.46
  -1   4  -3   10.85    0.40
   1   4   3   10.13    0.51
  -1   4  -3   11.06    0.46
   1   4   3   10.84    0.43
   2  -4   3   10.24    0.48
  -2  -4  -3   10.63    0.37
   2  -4   3   10.82    0.49
  -2  -4  -3   11.56    0.53
   2  -4   3   10.99    0.36
  -2  -4  -3   10.56    0.51
  -2   4  -3   11.01    0.50
   2   4   3    9.97    0.50
  -2   4  -3   11.17    0.36
  -2   4  -3   11.29    0.54
   2   4   3   10.63    0.41
   2   4   3   10.89    0.53
  -2   4  -3   10.58    0.44
  -3  -4  -3   11.37    0.43
   3  -4   3   11.53    0.54
  -3  -4  -3   11.01    0.55
   3  -4   3   11.47    0.54
  -3   4  -3   10.90    0.43
  -3   4  -3   11.20    0.54
   3   4   3   10.52    0.40
  -3   4  -3   11.02    0.56
   3   4   3   10.75    0.54
   3   4   3   11.39    0.56
  -4  -4  -3   14.27    0.53
   4  -4   3   11.70    0.58
  -4  -4  -3   12.33    0.61
   4  -4   3   12.88    0.62
   4   4   3   12.89    0.63
  -4   4  -3   12.74    0.61
  -4   4  -3   12.45    0.63
   4   4   3   13.10    0.62
  -5  -4  -3    0.18    0.13
   5  -4   3    0.06    0.09
  -5  -4  -3    0.20    0.10
   5  -4   3    0.15    0.12
   5   4   3    0.09    0.09
   5   4   3    0.27    0.13
  -5   4  -3    0.07    0.08
  -5   4  -3    0.24    0.14
  -6  -4  -3    1.83    0.31
   6  -4   3    1.67    0.30
  -6  -4  -3    1.28    0.22
  -6   4  -3    1.58    0.30
   6   4   3    1.71    0.30
   6   4   3    1.39    0.28
   7  -4   3    0.60    0.20
  -7  -4  -3    0.41    0.18
  -7  -4  -3    0.67    0.19
   7   4   3    0.78    0.22
  -7   4  -3    1.00    0.27
   8  -4   3    0.43    0.19
  -8  -4  -3    0.43    0.19
   8   4   3    0.19    0.18
  -8   4  -3    0.36    0.20
   9  -4   3    0.69    0.26
  -9   4  -3    0.54    0.25
  -9  -5   3   -0.16    0.13
   9  -5  -3    0.25    0.18
  -9  -5   3    0.20    0.19
  -9   5   3    0.13    0.18
   9   5  -3    0.27    0.20
  -9   5   3    0.20    0.17
   9   5  -3   -0.11    0.10
   8  -5  -3    0.25    0.17
  -8  -5   3    0.26    0.19
  -8  -5   3    0.16    0.17
   8   5  -3    0.17    0.16
   8   5  -3    0.27    0.16
  -8   5   3    0.25    0.15
  -8   5   3   -0.07    0.13
   7  -5  -3    0.08    0.14
  -7  -5   3    0.00    0.11
  -7  -5   3    0.24    0.15
   7   5  -3   -0.01    0.11
  -7   5   3    0.00    0.12
  -7   5   3   -0.02    0.11
   7   5  -3    0.09    0.14
  -6  -5   3    2.38    0.39
  -6  -5   3    2.25    0.35
   6   5  -3    2.57    0.40
  -6   5   3    2.80    0.36
   6   5  -3    2.78    0.41
  -6   5   3    2.64    0.38
  -5  -5   3    0.43    0.16
   5  -5  -3    0.56    0.20
   5  -5  -3    0.67    0.16
  -5  -5   3    0.42    0.17
  -5   5   3    0.34    0.13
   5   5  -3    0.47    0.18
   5   5  -3    0.41    0.17
  -5   5   3    0.50    0.17
   4  -5  -3   14.58    0.59
  -4  -5   3   14.16    0.66
   4  -5  -3   14.55    0.72
   4   5  -3   14.88    0.72
   4   5  -3   14.58    0.70
  -4   5   3   13.33    0.66
  -4   5   3   14.78    0.59
  -3  -5   3    0.51    0.15
   3  -5  -3    0.15    0.08
   3  -5  -3    0.19    0.08
   3  -5  -3    0.24    0.12
  -3   5   3    0.06    0.09
   3   5  -3    0.14    0.11
  -3   5   3    0.26    0.12
   3   5  -3    0.28    0.12
  -3   5   3    0.21    0.10
   2  -5  -3    1.53    0.21
  -2  -5   3    1.01    0.20
   2  -5  -3    1.69    0.27
   2  -5  -3    1.80    0.24
  -2  -5   3    1.44    0.16
  -2  -5   3    1.27    0.17
  -2   5   3    1.31    0.23
   2   5  -3    1.46    0.23
  -2   5   3    1.23    0.17
   2   5  -3    1.19    0.16
   2   5  -3    1.75    0.28
  -2   5   3    1.56    0.27
   1  -5  -3   21.41    0.59
  -1  -5   3   21.57    0.78
  -1  -5   3   20.74    0.64
  -1  -5   3   20.10    0.65
   1  -5  -3   20.31    0.82
   1  -5  -3   20.75    0.72
   1  -5  -3   20.99    0.75
  -1   5   3   20.45    0.63
   1   5  -3   19.42    0.75
  -1   5   3   21.22    0.75
   1   5  -3   19.99    0.66
   1   5  -3   19.76    0.78
  -1   5   3   20.81    0.75
  -1   5   3   19.29    0.81
   1   5  -3   21.64    0.76
   0  -5   3    0.57    0.13
   0  -5  -3    0.75    0.17
   0  -5  -3    0.77    0.17
   0  -5   3    0.83    0.16
   0  -5   3    0.77    0.17
   0   5  -3    0.83    0.17
   0   5  -3    0.89    0.19
   0   5  -3    0.87    0.19
   0   5   3    0.82    0.18
   0   5   3    0.87    0.19
   0   5  -3    0.85    0.16
   0   5   3    0.91    0.18
   1  -5   3   13.04    0.55
  -1  -5  -3   13.38    0.61
   1  -5   3   12.53    0.54
   1   5   3   12.74    0.52
  -1   5  -3   13.14    0.50
   1   5   3   12.73    0.63
   1   5   3   11.59    0.58
  -1   5  -3   13.27    0.62
  -1   5  -3   12.93    0.56
  -1   5  -3   12.83    0.56
   2  -5   3   17.73    0.70
   2  -5   3   17.84    0.70
   2  -5   3   18.86    0.65
  -2  -5  -3   18.68    0.76
  -2  -5  -3   18.03    0.75
   2   5   3   18.36    0.62
   2   5   3   17.58    0.75
  -2   5  -3   16.22    0.63
  -2   5  -3   17.09    0.74
  -2   5  -3   19.12    0.74
   2   5   3   19.53    0.80
  -3  -5  -3    1.41    0.26
   3  -5   3    2.04    0.29
   3  -5   3    2.43    0.31
  -3  -5  -3    2.52    0.34
   3   5   3    2.30    0.32
  -3   5  -3    3.06    0.36
   3   5   3    2.32    0.33
  -3   5  -3    1.51    0.28
   4  -5   3    0.38    0.16
   4  -5   3    0.21    0.12
  -4  -5  -3    0.07    0.11
  -4   5  -3    0.27    0.14
  -4   5  -3    0.31    0.14
   4   5   3    0.35    0.14
   4   5   3    0.15    0.10
   5  -5   3    2.41    0.35
   5  -5   3    2.24    0.36
  -5  -5  -3    3.47    0.43
   5   5   3    2.14    0.34
  -5   5  -3    2.49    0.37
   5   5   3    2.86    0.39
  -5   5  -3    2.79    0.41
   6  -5   3    0.22    0.14
  -6  -5  -3    0.27    0.16
   6   5   3    0.27    0.15
  -6   5  -3    0.49    0.21
  -7  -5  -3    2.39    0.40
   7  -5   3    2.76    0.41
  -7   5  -3    2.39    0.42
   7   5   3    3.01    0.43
   8  -5   3    0.08    0.14
  -8  -5  -3   -0.20    0.11
  -8   5  -3    0.03    0.17
   8   5   3   -0.08    0.15
   8  -6  -3    0.63    0.24
  -8  -6   3    0.60    0.24
  -8  -6   3    0.79    0.28
   8   6  -3    0.40    0.22
   8   6  -3    0.61    0.24
  -8   6   3    0.75    0.27
  -7  -6   3    0.53    0.23
  -7  -6   3    1.67    0.36
   7  -6  -3    1.03    0.28
   7   6  -3    1.12    0.30
   7   6  -3    1.62    0.34
  -7   6   3    1.26    0.30
  -6  -6   3    0.62    0.20
  -6  -6   3    0.59    0.23
   6   6  -3    0.16    0.17
   6   6  -3    0.40    0.20
  -6   6   3    0.35    0.18
  -5  -6   3    3.04    0.44
  -5  -6   3    2.71    0.38
  -5   6   3    3.04    0.43
   5   6  -3    3.38    0.44
   5   6  -3    2.43    0.39
   4  -6  -3    0.05    0.08
  -4  -6   3   -0.01    0.08
  -4  -6   3    0.08    0.09
   4   6  -3   -0.03    0.08
   4   6  -3    0.16    0.14
  -4   6   3   -0.06    0.08
   3  -6  -3    0.89    0.23
   3  -6  -3    1.05    0.21
  -3  -6   3    0.66    0.18
  -3   6   3    0.74    0.21
  -3   6   3    0.85    0.23
   3   6  -3    0.59    0.20
   3   6  -3    0.90    0.22
   2  -6  -3    3.06    0.35
   2  -6  -3    2.72    0.30
   2  -6  -3    2.54    0.37
  -2  -6   3    2.57    0.34
  -2   6   3    2.92    0.37
  -2   6   3    2.55    0.37
   2   6  -3    2.76    0.37
   2   6  -3    3.00    0.40
   1  -6  -3    1.18    0.26
  -1  -6   3    0.57    0.16
   1  -6  -3    0.91    0.19
  -1  -6   3    0.66    0.14
   1  -6  -3    1.12    0.22
  -1   6   3    0.57    0.16
   1   6  -3    0.99    0.21
  -1   6   3    0.73    0.22
   1   6  -3    0.70    0.19
  -1   6   3    0.74    0.18
   1   6  -3    0.79    0.21
   0  -6   3   15.97    0.64
   0  -6   3   13.99    0.67
   0  -6  -3   15.03    0.75
   0  -6   3   15.35    0.61
   0  -6  -3   15.30    0.69
   0  -6  -3   14.56    0.66
   0   6   3   14.46    0.68
   0   6  -3   15.37    0.64
   0   6  -3   15.19    0.70
   0   6  -3   14.43    0.68
   0   6   3   14.87    0.63
   0   6   3   15.12    0.75
   0   6  -3   15.25    0.62
   1  -6   3   13.10    0.60
   1  -6   3   13.63    0.56
  -1  -6  -3   14.17    0.68
  -1  -6  -3   12.99    0.66
   1  -6   3   12.76    0.59
   1  -6   3   13.40    0.66
  -1   6  -3   12.53    0.60
  -1   6  -3   12.60    0.61
  -1   6  -3   13.76    0.68
   1   6   3   12.24    0.65
  -1   6  -3   12.54    0.55
   1   6   3   13.43    0.70
   1   6   3   12.61    0.56
   2  -6   3    1.82    0.28
  -2  -6  -3    2.48    0.35
  -2  -6  -3    2.54    0.35
   2  -6   3    2.53    0.32
  -2   6  -3    3.02    0.33
  -2   6  -3    2.56    0.33
   2   6   3    1.96    0.32
  -2   6  -3    2.70    0.37
   2   6   3    2.48    0.36
  -3  -6  -3    2.83    0.38
  -3  -6  -3    2.14    0.35
   3  -6   3    2.60    0.35
   3  -6   3    2.66    0.35
   3   6   3    2.42    0.37
  -3   6  -3    2.84    0.38
   3   6   3    2.94    0.39
  -3   6  -3    2.59    0.38
   4  -6   3    0.20    0.14
   4  -6   3    0.36    0.17
  -4  -6  -3    0.64    0.20
  -4  -6  -3    0.25    0.13
   4   6   3    0.17    0.13
  -4   6  -3   -0.08    0.08
  -4   6  -3    0.68    0.23
   4   6   3    0.38    0.16
  -5  -6  -3    1.44    0.30
  -5  -6  -3    1.44    0.31
   5  -6   3    1.97    0.34
   5   6   3    1.98    0.36
  -5   6  -3    1.60    0.33
  -5   6  -3    1.96    0.34
  -6  -6  -3    0.32    0.18
   6  -6   3    0.32    0.18
  -6  -6  -3    0.22    0.15
  -6   6  -3    0.60    0.23
   6   6   3    0.27    0.13
   7  -6   3    0.36    0.20
  -7  -6  -3    0.28    0.19
   7   6   3    0.30    0.20
  -7   6  -3    1.09    0.32
  -7  -7   3   -0.15    0.16
  -7  -7   3    0.06    0.18
   7   7  -3    0.15    0.19
   7   7  -3   -0.05    0.16
  -6  -7   3    0.00    0.16
  -6  -7   3   -0.02    0.15
   6  -7  -3    0.04    0.14
  -6   7   3    0.35    0.21
   6   7  -3    0.24    0.15
   6   7  -3    0.23    0.15
  -5  -7   3    0.78    0.25
  -5  -7   3    0.62    0.25
  -5   7   3    0.49    0.22
   5   7  -3    0.89    0.28
   5   7  -3    0.63    0.23
  -4  -7   3    0.98    0.25
  -4  -7   3    0.84    0.27
   4  -7  -3    0.71    0.19
   4   7  -3    0.69    0.24
  -4   7   3    0.90    0.25
   4   7  -3    0.92    0.24
  -3  -7   3    0.17    0.12
   3  -7  -3    0.07    0.10
  -3  -7   3    0.04    0.14
  -3   7   3    0.09    0.12
   3   7  -3    0.01    0.12
   3   7  -3    0.14    0.14
  -2  -7   3    0.89    0.22
   2  -7  -3    0.81    0.20
  -2  -7   3    1.20    0.28
   2   7  -3    0.82    0.23
   2   7  -3    0.41    0.17
  -2   7   3    0.83    0.23
   1  -7  -3    2.05    0.32
   1  -7  -3    2.34    0.32
  -1  -7   3    1.52    0.27
  -1  -7   3    2.19    0.36
   1   7  -3    1.73    0.30
  -1   7   3    1.77    0.29
   1   7  -3    2.45    0.38
   1   7  -3    1.96    0.33
  -1   7   3    1.98    0.31
   0  -7  -3    0.81    0.27
   0  -7   3    0.57    0.17
   0  -7   3    0.41    0.16
   0  -7  -3    0.74    0.21
   0  -7   3    0.87    0.19
   0  -7  -3    0.86    0.22
   0  -7   3    0.77    0.21
   0   7  -3    0.87    0.22
   0   7   3    0.84    0.28
   0   7  -3    0.45    0.15
   0   7  -3    0.83    0.23
   0   7   3    0.67    0.19
   0   7  -3    0.70    0.18
   0   7   3    1.08    0.26
   1  -7   3    2.15    0.32
  -1  -7  -3    2.84    0.39
  -1  -7  -3    2.46    0.37
   1  -7   3    2.11    0.31
   1  -7   3    1.98    0.32
  -1   7  -3    2.19    0.32
  -1   7  -3    2.61    0.38
   1   7   3    3.09    0.51
   1   7   3    2.42    0.36
  -1   7  -3    2.28    0.33
  -2  -7  -3    3.10    0.43
   2  -7   3    2.36    0.34
   2  -7   3    2.64    0.36
  -2  -7  -3    2.63    0.40
  -2   7  -3    2.80    0.38
   2   7   3    2.35    0.37
  -2   7  -3    2.13    0.35
  -3  -7  -3    8.61    0.61
  -3  -7  -3   11.95    0.71
   3  -7   3    9.57    0.60
  -3   7  -3   10.19    0.66
   3   7   3   10.51    0.68
  -3   7  -3   10.67    0.64
  -4  -7  -3    0.85    0.26
   4  -7   3    1.14    0.25
  -4  -7  -3    0.62    0.20
   4   7   3    0.61    0.23
  -4   7  -3    0.76    0.24
  -4   7  -3    1.22    0.29
  -5  -7  -3    1.28    0.33
  -5  -7  -3    1.46    0.33
   5  -7   3    2.11    0.38
  -5   7  -3    1.94    0.38
   5   7   3    1.32    0.32
  -5   7  -3    1.29    0.32
  -6  -7  -3    0.18    0.19
   6  -7   3    0.49    0.23
  -6  -7  -3    0.62    0.25
   6   7   3    0.35    0.23
  -6   7  -3    0.44    0.23
  -5  -8   3    0.33    0.21
  -5  -8   3    0.06    0.16
   5  -8  -3    0.12    0.17
   5   8  -3    0.04    0.15
  -5   8   3   -0.01    0.13
   5   8  -3    0.31    0.20
  -4  -8   3    0.81    0.26
  -4  -8   3    0.72    0.23
   4   8  -3    1.29    0.33
   4   8  -3    1.37    0.34
  -4   8   3    1.28    0.31
  -3  -8   3    0.61    0.22
  -3  -8   3    0.32    0.17
   3  -8  -3    0.64    0.21
   3   8  -3    0.28    0.18
  -3   8   3    0.26    0.18
   3   8  -3    0.19    0.16
  -2  -8   3   -0.07    0.12
  -2  -8   3    0.06    0.12
   2  -8  -3    0.10    0.13
   2   8  -3    0.17    0.16
  -2   8   3    0.20    0.16
   2   8  -3    0.09    0.15
  -1  -8   3    1.68    0.32
   1  -8  -3    1.40    0.28
  -1  -8   3    1.25    0.31
  -1  -8   3    2.10    0.34
   1   8  -3    1.51    0.32
   1   8  -3    1.57    0.31
  -1   8   3    1.27    0.27
   1   8  -3    1.23    0.27
   0  -8   3    0.93    0.25
   0  -8   3    1.04    0.28
   0  -8  -3    1.85    0.33
   0  -8  -3    1.75    0.34
   0   8  -3    1.35    0.29
   0   8  -3    1.26    0.29
   0   8   3    0.87    0.23
   1  -8   3    0.62    0.21
  -1  -8  -3    0.91    0.26
   1  -8   3    0.40    0.18
  -1  -8  -3    0.85    0.25
  -1   8  -3    0.97    0.27
   1   8   3    0.81    0.23
   2  -8   3    0.80    0.24
  -2  -8  -3    0.60    0.22
  -2  -8  -3    0.68    0.22
   2  -8   3    0.41    0.17
  -2   8  -3    0.51    0.21
  -2   8  -3    0.78    0.24
   2   8   3    0.20    0.17
   3  -8   3    0.14    0.14
  -3  -8  -3    0.26    0.19
  -3  -8  -3    0.36    0.18
  -3   8  -3    0.49    0.22
   3   8   3    0.11    0.15
  -3   8  -3    0.03    0.15
  -4  -8  -3    0.57    0.25
   4  -8   3    0.54    0.23
  -4  -8  -3    0.31    0.21
  -4   8  -3    0.67    0.25
   4   8   3    0.57    0.23
  -4   8  -3    0.49    0.21
  -2  -9   3    0.61    0.25
   2  -9  -3    1.28    0.30
   2  -9  -3    0.65    0.29
  -2  -9   3    0.37    0.21
   2   9  -3    0.69    0.26
   2   9  -3    0.54    0.24
  -1  -9   3    0.25    0.18
   1  -9  -3    0.36    0.19
   1   9  -3    0.37    0.20
   0  -9  -3    0.55    0.24
   0   9   3    0.52    0.22
  -1  -9  -3    0.57    0.23
  -1  -9  -3    0.35    0.20
   1   9   3    0.82    0.27
 -11   0   4    0.15    0.19
 -10   0   4    0.13    0.17
   9   0  -4    0.29    0.16
  -9   0   4    0.34    0.15
   8   0  -4    4.14    0.42
   8   0  -4    4.30    0.43
  -8   0   4    2.93    0.38
  -7   0   4    0.67    0.14
  -7   0   4    0.88    0.21
   7   0  -4    0.72    0.17
   7   0  -4    0.87    0.18
   6   0  -4   29.58    0.93
  -6   0   4   29.77    0.97
   6   0  -4   31.70    0.83
   6   0  -4   30.30    0.89
  -6   0   4   31.85    0.84
   5   0  -4    6.83    0.31
   5   0  -4    6.44    0.32
   5   0  -4    5.50    0.33
  -5   0   4    6.19    0.29
  -5   0   4    6.18    0.36
   4   0  -4    7.18    0.30
   4   0  -4    6.38    0.29
   4   0  -4    6.55    0.33
  -4   0   4    6.87    0.29
  -4   0   4    7.56    0.36
  -4   0   4    6.96    0.30
   3   0  -4    2.67    0.16
  -3   0   4    3.18    0.20
  -3   0   4    2.84    0.17
   3   0  -4    2.70    0.16
   3   0  -4    2.70    0.17
   3   0  -4    3.24    0.21
  -2   0   4    7.25    0.28
  -2   0   4    7.61    0.29
   2   0  -4    7.48    0.29
   2   0  -4    7.81    0.26
   2   0  -4    7.41    0.26
   2   0  -4    7.52    0.30
  -2   0   4    7.36    0.26
   1   0  -4   43.17    0.88
  -1   0   4   42.10    0.92
   1   0  -4   41.73    0.89
   1   0  -4   42.92    0.94
   1   0  -4   41.93    0.92
  -1   0   4   42.93    0.89
  -1   0   4   42.32    0.89
   0   0  -4   32.49    0.77
   0   0   4   32.87    0.77
   0   0  -4   31.72    0.74
   0   0  -4   32.45    0.71
   0   0   4   32.75    0.76
   0   0  -4   31.90    0.71
  -1   0  -4  135.63    2.47
  -1   0  -4  131.17    2.51
  -1   0  -4  129.45    2.39
   1   0   4  135.02    2.54
   1   0   4  135.07    2.51
   2   0   4    9.06    0.40
   2   0   4    9.60    0.37
  -2   0  -4    9.77    0.36
  -2   0  -4    9.55    0.28
  -2   0  -4    9.43    0.37
  -3   0  -4    3.26    0.22
   3   0   4    3.95    0.28
  -3   0  -4    3.84    0.23
  -3   0  -4    3.51    0.17
   3   0   4    3.88    0.17
   3   0   4    3.50    0.23
   4   0   4    8.01    0.45
   4   0   4    7.71    0.28
  -4   0  -4    8.43    0.29
  -4   0  -4    7.30    0.35
  -4   0  -4    7.74    0.39
   4   0   4    7.28    0.36
  -5   0  -4    0.46    0.13
  -5   0  -4    0.31    0.10
   5   0   4    0.13    0.09
   5   0   4    0.39    0.14
  -6   0  -4    1.98    0.28
   6   0   4    2.14    0.33
  -6   0  -4    1.74    0.23
   6   0   4    1.74    0.25
  -7   0  -4    6.23    0.46
   7   0   4    7.01    0.43
   7   0   4    7.25    0.54
  -8   0  -4    1.51    0.29
  -9   0  -4    0.57    0.22
 -10   0  -4   -0.08    0.15
 -11  -1   4    0.13    0.14
 -11   1   4    0.06    0.17
 -10  -1   4    1.06    0.30
  10   1  -4    0.73    0.23
 -10   1   4    0.90    0.26
   9  -1  -4    2.90    0.41
   9  -1  -4    2.57    0.35
  -9  -1   4    2.61    0.40
  -9   1   4    2.47    0.39
   9   1  -4    2.88    0.38
   8  -1  -4    0.18    0.11
   8  -1  -4    0.32    0.15
   8  -1  -4    0.30    0.13
  -8  -1   4    0.27    0.15
  -8   1   4    0.44    0.16
   8   1  -4    0.35    0.15
  -8   1   4    0.17    0.10
  -7  -1   4   -0.05    0.09
   7  -1  -4    0.09    0.08
   7  -1  -4   -0.02    0.07
   7   1  -4    0.02    0.08
  -7   1   4    0.02    0.08
  -7   1   4    0.18    0.09
   7   1  -4    0.10    0.09
   7   1  -4    0.11    0.09
  -6  -1   4   33.30    1.05
   6  -1  -4   33.02    0.95
   6  -1  -4   32.21    0.97
  -6  -1   4   31.91    0.77
  -6   1   4   31.62    1.00
   6   1  -4   32.02    1.00
  -6   1   4   31.59    0.92
   6   1  -4   33.22    0.90
   6   1  -4   33.22    0.94
  -5  -1   4    1.12    0.20
   5  -1  -4    1.48    0.15
  -5  -1   4    1.41    0.14
  -5  -1   4    1.13    0.15
   5  -1  -4    1.61    0.21
   5  -1  -4    1.38    0.19
   5   1  -4    1.44    0.17
  -5   1   4    1.17    0.17
   5   1  -4    1.11    0.17
   5   1  -4    1.55    0.22
  -5   1   4    1.58    0.22
   4  -1  -4   54.32    1.10
   4  -1  -4   51.05    1.21
  -4  -1   4   52.35    1.09
   4  -1  -4   53.68    1.24
  -4  -1   4   52.95    1.08
  -4  -1   4   51.17    1.27
  -4   1   4   52.68    1.22
   4   1  -4   51.93    1.23
   4   1  -4   53.90    1.10
   4   1  -4   51.59    1.08
   4   1  -4   52.33    1.26
  -4   1   4   50.79    1.21
  -3  -1   4    5.90    0.30
   3  -1  -4    4.91    0.27
  -3  -1   4    5.80    0.23
   3  -1  -4    5.90    0.24
   3  -1  -4    5.55    0.28
   3  -1  -4    5.34    0.28
  -3  -1   4    5.75    0.19
   3   1  -4    5.75    0.29
  -3   1   4    5.59    0.28
  -3   1   4    6.17    0.27
  -3   1   4    5.41    0.28
   3   1  -4    6.03    0.30
   3   1  -4    6.21    0.20
   3   1  -4    6.16    0.19
   2  -1  -4   14.65    0.47
   2  -1  -4   14.14    0.46
  -2  -1   4   13.71    0.39
   2  -1  -4   13.87    0.42
  -2  -1   4   15.29    0.48
   2  -1  -4   13.23    0.45
   2   1  -4   14.65    0.29
   2   1  -4   14.15    0.47
   2   1  -4   14.27    0.46
  -2   1   4   14.03    0.39
  -2   1   4   14.33    0.47
  -2   1   4   14.38    0.46
   2   1  -4   14.77    0.30
   1  -1  -4   58.57    1.25
  -1  -1   4   60.09    1.09
   1  -1  -4   57.99    1.23
  -1  -1   4   59.04    1.25
  -1  -1   4   60.35    1.21
   1  -1  -4   56.30    1.22
  -1   1   4   61.57    1.28
   1   1  -4   59.14    1.25
   1   1  -4   58.04    1.08
  -1   1   4   59.28    1.24
   1   1  -4   59.00    1.26
  -1   1   4   58.63    1.10
   1   1  -4   58.20    1.20
   0  -1  -4    9.56    0.35
   0  -1   4    9.66    0.34
   0  -1  -4    9.56    0.33
   0  -1  -4    9.58    0.24
   0  -1   4    9.65    0.31
   0   1  -4    9.73    0.30
   0   1   4    8.61    0.33
   0   1   4    9.28    0.36
   0   1  -4    9.33    0.35
   0   1  -4    9.96    0.35
   0   1   4    9.56    0.24
   0   1  -4    8.75    0.28
  -1  -1  -4   22.22    0.51
   1  -1   4   22.02    0.61
  -1  -1  -4   21.96    0.58
  -1  -1  -4   22.26    0.63
   1  -1   4   22.19    0.62
  -1  -1  -4   22.32    0.65
   1   1   4   22.43    0.61
  -1   1  -4   21.83    0.48
   1   1   4   23.03    0.67
  -1   1  -4   22.87    0.60
  -1   1  -4   22.23    0.60
  -1   1  -4   21.91    0.63
  -2  -1  -4   42.58    0.94
   2  -1   4   43.67    1.02
  -2  -1  -4   40.82    0.91
   2  -1   4   41.77    1.04
  -2  -1  -4   41.17    1.01
  -2   1  -4   42.05    0.77
   2   1   4   40.41    1.06
   2   1   4   40.88    0.94
  -2   1  -4   41.21    0.95
  -2   1  -4   40.42    1.02
   2   1   4   42.47    0.98
  -3  -1  -4   62.90    1.36
  -3  -1  -4   63.11    1.42
   3  -1   4   63.55    1.42
  -3  -1  -4   62.93    1.33
   3  -1   4   63.56    1.49
   3   1   4   60.16    1.50
  -3   1  -4   62.46    1.33
  -3   1  -4   62.11    1.45
   3   1   4   61.67    1.32
   3   1   4   61.27    1.36
  -3   1  -4   62.39    1.08
  -4  -1  -4    6.90    0.35
   4  -1   4    6.05    0.34
   4  -1   4    5.94    0.39
  -4  -1  -4    6.62    0.31
  -4  -1  -4    6.48    0.35
  -4   1  -4    6.95    0.39
  -4   1  -4    6.00    0.29
   4   1   4    6.85    0.42
   4   1   4    6.35    0.33
   4   1   4    6.62    0.31
  -5  -1  -4    2.52    0.28
   5  -1   4    2.04    0.26
  -5  -1  -4    1.75    0.23
   5  -1   4    1.76    0.28
   5   1   4    1.67    0.27
   5   1   4    2.14    0.22
   5   1   4    2.26    0.25
  -5   1  -4    2.06    0.21
  -5   1  -4    1.64    0.25
  -6  -1  -4    2.06    0.26
   6  -1   4    1.25    0.26
  -6  -1  -4    1.38    0.23
   6  -1   4    1.95    0.28
   6   1   4    1.74    0.24
   6   1   4    1.83    0.31
  -6   1  -4    1.97    0.30
  -7  -1  -4    1.61    0.27
   7  -1   4    2.65    0.34
  -7   1  -4    1.99    0.32
   7   1   4    2.69    0.41
  -8  -1  -4    0.48    0.17
   8  -1   4    0.28    0.14
  -8   1  -4    0.40    0.16
  -9  -1  -4    0.58    0.21
  -9   1  -4    0.27    0.16
 -10  -1  -4    0.03    0.16
 -10   1  -4    0.66    0.27
 -10  -2   4    0.97    0.27
 -10   2   4    0.65    0.23
  10   2  -4    0.60    0.22
  -9  -2   4    0.44    0.19
   9  -2  -4    0.48    0.16
  -9   2   4    0.35    0.16
   9   2  -4    0.27    0.16
  -9   2   4    0.58    0.20
   8  -2  -4    0.00    0.11
   8  -2  -4    0.01    0.07
  -8  -2   4   -0.13    0.07
  -8  -2   4   -0.04    0.11
   8   2  -4    0.05    0.10
  -8   2   4   -0.03    0.07
   8   2  -4    0.02    0.10
  -8   2   4    0.12    0.11
  -7  -2   4    0.62    0.19
   7  -2  -4    0.87    0.18
   7  -2  -4    1.00    0.22
  -7   2   4    0.95    0.21
   7   2  -4    0.73    0.19
   7   2  -4    0.55    0.15
  -7   2   4    0.75    0.18
   6  -2  -4    4.80    0.32
   6  -2  -4    4.99    0.37
  -6  -2   4    4.88    0.37
  -6   2   4    4.82    0.34
   6   2  -4    4.78    0.36
   6   2  -4    5.28    0.29
   6   2  -4    5.32    0.36
  -6   2   4    4.72    0.35
  -5  -2   4    1.91    0.26
   5  -2  -4    2.07    0.24
  -5  -2   4    1.98    0.15
   5  -2  -4    1.69    0.13
   5  -2  -4    1.96    0.25
   5   2  -4    1.85    0.15
   5   2  -4    1.89    0.25
  -5   2   4    1.94    0.25
   5   2  -4    1.81    0.25
  -5   2   4    2.20    0.25
   4  -2  -4   37.29    1.03
   4  -2  -4   37.22    0.97
  -4  -2   4   36.80    1.04
  -4  -2   4   36.39    0.77
   4  -2  -4   36.70    0.80
  -4  -2   4   37.44    0.75
   4   2  -4   39.03    1.04
  -4   2   4   35.26    0.99
  -4   2   4   37.91    0.95
   4   2  -4   36.51    0.77
   4   2  -4   37.22    1.03
   3  -2  -4    0.53    0.12
   3  -2  -4    0.88    0.14
  -3  -2   4    1.04    0.10
   3  -2  -4    0.93    0.11
  -3  -2   4    0.86    0.15
  -3   2   4    0.95    0.12
   3   2  -4    0.89    0.15
  -3   2   4    0.95    0.16
   3   2  -4    0.69    0.14
  -3   2   4    1.16    0.17
   3   2  -4    0.91    0.04
  -2  -2   4   14.44    0.52
   2  -2  -4   15.16    0.45
   2  -2  -4   14.27    0.48
  -2  -2   4   14.99    0.41
   2  -2  -4   15.13    0.55
   2   2  -4   14.46    0.53
   2   2  -4   14.46    0.50
  -2   2   4   14.31    0.50
  -2   2   4   15.19    0.55
  -2   2   4   14.65    0.39
  -1  -2   4   39.31    0.88
   1  -2  -4   39.15    0.92
  -1  -2   4   39.50    0.98
  -1  -2   4   39.44    0.76
  -1  -2   4   39.96    0.76
   1  -2  -4   38.23    0.94
   1   2  -4   40.94    0.99
  -1   2   4   38.92    0.95
   1   2  -4   39.55    0.92
   1   2  -4   40.07    0.76
  -1   2   4   38.72    1.01
   1   2  -4   38.91    0.98
  -1   2   4   39.78    0.72
   0  -2  -4    4.30    0.24
   0  -2   4    4.75    0.20
   0  -2   4    3.80    0.21
   0  -2  -4    4.26    0.24
   0   2  -4    3.99    0.19
   0   2  -4    4.31    0.19
   0   2   4    3.90    0.26
   0   2   4    4.54    0.24
   0   2  -4    3.96    0.25
   0   2  -4    4.03    0.24
  -1  -2  -4   17.69    0.59
   1  -2   4   18.36    0.57
   1  -2   4   17.99    0.55
  -1  -2  -4   18.53    0.57
  -1  -2  -4   18.89    0.40
  -1   2  -4   19.25    0.44
  -1   2  -4   18.50    0.56
  -1   2  -4   18.93    0.62
   1   2   4   18.52    0.58
   1   2   4   20.06    0.56
   1   2   4   17.80    0.62
  -2  -2  -4   26.33    0.78
  -2  -2  -4   26.33    0.61
   2  -2   4   26.59    0.77
   2  -2   4   24.85    0.75
  -2  -2  -4   26.97    0.74
   2   2   4   25.18    0.80
  -2   2  -4   25.84    0.46
  -2   2  -4   26.04    0.80
  -2   2  -4   25.65    0.69
   2   2   4   26.38    0.69
   2   2   4   25.96    0.74
   3  -2   4   32.92    0.93
  -3  -2  -4   33.47    0.82
  -3  -2  -4   33.50    0.95
  -3  -2  -4   33.83    0.90
   3  -2   4   32.69    0.97
  -3   2  -4   33.85    0.82
  -3   2  -4   33.50    0.98
   3   2   4   33.33    0.90
   3   2   4   33.24    0.84
   3   2   4   30.27    0.98
   4  -2   4    3.59    0.34
  -4  -2  -4    3.27    0.23
  -4  -2  -4    3.56    0.28
  -4  -2  -4    3.01    0.24
   4  -2   4    3.91    0.39
   4   2   4    3.97    0.32
   4   2   4    3.38    0.23
  -4   2  -4    3.80    0.30
   4   2   4    3.58    0.26
  -4   2  -4    3.53    0.21
   5  -2   4    4.21    0.43
   5  -2   4    3.96    0.39
  -5  -2  -4    4.33    0.33
  -5  -2  -4    4.76    0.32
  -5   2  -4    5.18    0.38
   5   2   4    3.93    0.27
   5   2   4    4.53    0.38
   5   2   4    5.48    0.34
  -6  -2  -4    2.90    0.32
   6  -2   4    2.39    0.35
  -6  -2  -4    2.63    0.33
   6  -2   4    2.25    0.31
  -6   2  -4    3.09    0.39
   6   2   4    2.01    0.32
   6   2   4    2.39    0.29
  -7  -2  -4    0.75    0.18
  -7  -2  -4    1.22    0.23
   7  -2   4    0.84    0.20
  -7   2  -4    0.91    0.24
  -8  -2  -4    3.70    0.44
   8  -2   4    3.06    0.40
  -8   2  -4    4.81    0.56
   9  -2   4    0.33    0.19
  -9  -2  -4    0.41    0.20
  -9   2  -4    0.16    0.16
 -10  -3   4    0.81    0.26
  10   3  -4    0.86    0.27
 -10   3   4    0.49    0.22
   9  -3  -4    0.03    0.11
  -9  -3   4    0.41    0.21
  -9   3   4    0.06    0.14
  -9   3   4    0.25    0.17
   9   3  -4    0.23    0.15
  -8  -3   4    2.20    0.34
  -8  -3   4    2.06    0.35
   8   3  -4    2.27    0.36
  -8   3   4    3.16    0.41
   8   3  -4    2.23    0.34
  -8   3   4    2.59    0.37
   7  -3  -4    2.09    0.27
  -7  -3   4    2.19    0.34
   7  -3  -4    2.77    0.38
  -7   3   4    2.00    0.30
   7   3  -4    1.71    0.31
   7   3  -4    2.13    0.32
  -7   3   4    2.17    0.32
   6  -3  -4   41.55    1.29
  -6  -3   4   42.19    1.29
   6  -3  -4   42.89    1.15
  -6   3   4   41.34    1.20
   6   3  -4   42.73    1.29
  -6   3   4   42.53    1.26
   6   3  -4   43.27    1.31
   5  -3  -4    2.22    0.25
  -5  -3   4    1.89    0.27
   5  -3  -4    2.07    0.28
  -5   3   4    1.87    0.27
   5   3  -4    1.59    0.25
  -5   3   4    1.97    0.25
   5   3  -4    2.04    0.29
   4  -3  -4    1.80    0.13
   4  -3  -4    2.18    0.28
  -4  -3   4    2.00    0.12
   4  -3  -4    2.38    0.26
  -4  -3   4    2.16    0.28
  -4   3   4    1.84    0.26
  -4   3   4    2.05    0.26
  -4   3   4    2.14    0.23
   4   3  -4    2.24    0.12
   4   3  -4    1.87    0.25
   4   3  -4    2.31    0.29
  -3  -3   4    3.31    0.11
  -3  -3   4    2.95    0.30
  -3  -3   4    3.56    0.12
   3  -3  -4    3.62    0.20
   3  -3  -4    3.07    0.23
   3  -3  -4    3.45    0.28
  -3  -3   4    3.33    0.16
   3   3  -4    3.22    0.25
   3   3  -4    3.02    0.31
  -3   3   4    2.77    0.30
  -3   3   4    3.11    0.19
   3   3  -4    3.36    0.12
  -3   3   4    2.90    0.29
   2  -3  -4    2.68    0.21
   2  -3  -4    2.86    0.30
  -2  -3   4    3.13    0.11
  -2  -3   4    2.81    0.17
  -2  -3   4    2.98    0.24
   2  -3  -4    3.09    0.20
  -2  -3   4    3.13    0.11
  -2   3   4    2.65    0.27
  -2   3   4    2.84    0.15
   2   3  -4    2.97    0.22
  -2   3   4    2.40    0.28
   2   3  -4    3.20    0.25
   2   3  -4    3.14    0.25
   1  -3  -4   41.38    1.02
  -1  -3   4   42.78    1.10
  -1  -3   4   40.31    0.86
   1  -3  -4   41.43    1.05
  -1  -3   4   41.36    0.85
  -1  -3   4   40.87    0.95
  -1   3   4   41.27    1.05
   1   3  -4   40.43    1.08
   1   3  -4   43.74    1.03
  -1   3   4   41.65    0.78
  -1   3   4   40.38    1.13
   1   3  -4   44.19    1.12
   0  -3   4   29.41    0.72
   0  -3  -4   28.69    0.82
   0  -3   4   29.58    0.78
   0  -3  -4   29.57    0.84
   0  -3   4   30.49    0.74
   0   3  -4   30.26    0.75
   0   3  -4   28.75    0.84
   0   3  -4   29.86    0.89
   0   3   4   30.54    0.81
   0   3  -4   30.46    0.74
   0   3   4   28.58    0.90
   0   3   4   30.29    0.84
   1  -3   4   16.42    0.53
   1  -3   4   14.67    0.53
  -1  -3  -4   14.82    0.56
   1  -3   4   15.51    0.53
  -1  -3  -4   15.36    0.57
  -1  -3  -4   15.36    0.34
   1   3   4   15.87    0.62
   1   3   4   15.96    0.58
  -1   3  -4   15.63    0.58
  -1   3  -4   15.34    0.60
   1   3   4   14.48    0.51
  -1   3  -4   15.62    0.54
  -2  -3  -4    6.93    0.37
   2  -3   4    6.53    0.36
  -2  -3  -4    6.42    0.37
   2  -3   4    7.11    0.36
  -2  -3  -4    6.78    0.25
  -2   3  -4    7.45    0.41
  -2   3  -4    7.27    0.34
   2   3   4    6.36    0.36
   2   3   4    6.71    0.32
  -2   3  -4    7.03    0.21
   2   3   4    6.57    0.39
  -3  -3  -4    0.57    0.14
   3  -3   4    0.54    0.14
  -3  -3  -4    0.23    0.10
   3  -3   4    0.23    0.10
  -3  -3  -4    0.43    0.10
  -3   3  -4    0.46    0.10
   3   3   4    0.47    0.15
   3   3   4    0.53    0.11
  -3   3  -4    0.54    0.14
   3   3   4    0.46    0.13
  -4  -3  -4   10.70    0.51
  -4  -3  -4   10.56    0.53
   4  -3   4    9.41    0.52
  -4  -3  -4   10.14    0.43
   4  -3   4   10.49    0.51
  -4   3  -4    9.26    0.38
  -4   3  -4    9.17    0.52
   4   3   4    9.64    0.54
   4   3   4   10.70    0.51
   4   3   4    9.88    0.40
   5  -3   4   11.10    0.56
   5  -3   4   10.16    0.59
  -5  -3  -4   12.50    0.53
  -5  -3  -4   10.77    0.56
  -5   3  -4   11.14    0.61
   5   3   4   11.21    0.55
   5   3   4   11.96    0.64
   6  -3   4    0.34    0.16
   6  -3   4    0.46    0.16
  -6  -3  -4    0.49    0.16
  -6  -3  -4    0.46    0.15
  -6   3  -4    0.71    0.22
   6   3   4    0.71    0.18
   6   3   4    1.02    0.24
  -7  -3  -4    2.16    0.31
  -7  -3  -4    1.75    0.31
   7  -3   4    2.32    0.35
   7   3   4    1.63    0.28
  -7   3  -4    2.35    0.38
  -8  -3  -4    2.69    0.38
  -8  -3  -4    2.82    0.39
   8  -3   4    2.17    0.36
  -8   3  -4    2.26    0.40
   9  -3   4    0.35    0.17
  -9   3  -4    0.08    0.18
  10  -4  -4    0.09    0.17
 -10  -4   4    0.21    0.18
 -10   4   4    0.23    0.20
  10   4  -4    0.18    0.19
 -10   4   4    0.12    0.19
   9  -4  -4    0.23    0.16
  -9  -4   4    0.10    0.15
  -9  -4   4   -0.02    0.13
   9   4  -4    0.34    0.18
  -9   4   4    0.27    0.21
   9   4  -4    0.25    0.16
  -9   4   4    0.25    0.17
  -8  -4   4    5.46    0.57
  -8  -4   4    6.40    0.51
   8   4  -4    5.85    0.60
  -8   4   4    7.12    0.51
   8   4  -4    6.16    0.50
  -8   4   4    5.12    0.54
  -7  -4   4    0.55    0.19
   7  -4  -4    0.14    0.12
  -7  -4   4    0.29    0.16
  -7   4   4    0.53    0.16
   7   4  -4    0.34    0.17
   7   4  -4    0.19    0.14
  -7   4   4    0.26    0.14
   6  -4  -4    0.47    0.17
  -6  -4   4    0.51    0.18
   6  -4  -4    0.42    0.13
   6   4  -4    0.68    0.20
  -6   4   4    0.44    0.15
  -6   4   4    0.52    0.18
   6   4  -4    0.61    0.20
  -5  -4   4    1.38    0.25
   5  -4  -4    1.45    0.26
   5  -4  -4    1.23    0.21
   5   4  -4    1.32    0.27
   5   4  -4    1.78    0.29
  -5   4   4    1.07    0.23
  -5   4   4    1.64    0.23
  -4  -4   4    1.30    0.23
   4  -4  -4    1.49    0.27
   4  -4  -4    1.49    0.22
  -4   4   4    1.00    0.22
  -4   4   4    1.62    0.26
  -4   4   4    1.42    0.20
   4   4  -4    1.03    0.21
   4   4  -4    1.75    0.28
   3  -4  -4    3.48    0.37
   3  -4  -4    3.00    0.30
  -3  -4   4    2.69    0.19
  -3  -4   4    2.27    0.29
   3  -4  -4    3.26    0.21
  -3  -4   4    2.82    0.15
  -3   4   4    3.50    0.35
  -3   4   4    3.23    0.36
   3   4  -4    2.34    0.31
   3   4  -4    2.91    0.32
  -3   4   4    2.77    0.20
  -2  -4   4    3.11    0.19
  -2  -4   4    3.09    0.17
  -2  -4   4    2.99    0.17
   2  -4  -4    3.00    0.22
   2  -4  -4    3.14    0.35
  -2  -4   4    3.35    0.34
   2  -4  -4    2.88    0.29
   2   4  -4    3.13    0.31
  -2   4   4    3.37    0.19
   2   4  -4    3.89    0.32
  -2   4   4    3.49    0.34
   2   4  -4    3.57    0.35
  -2   4   4    3.35    0.36
  -1  -4   4    2.53    0.17
   1  -4  -4    2.70    0.28
  -1  -4   4    3.45    0.34
   1  -4  -4    2.55    0.27
  -1  -4   4    2.57    0.18
  -1  -4   4    2.00    0.21
   1  -4  -4    2.89    0.14
   1   4  -4    2.50    0.29
  -1   4   4    2.42    0.31
   1   4  -4    2.19    0.28
  -1   4   4    2.69    0.14
  -1   4   4    2.71    0.29
   1   4  -4    2.69    0.27
   0  -4   4    0.31    0.12
   0  -4   4    0.33    0.08
   0  -4  -4    0.29    0.11
   0  -4   4    0.15    0.07
   0  -4   4    0.39    0.10
   0  -4  -4    0.51    0.13
   0   4  -4    0.44    0.13
   0   4   4    0.16    0.09
   0   4  -4    0.30    0.11
   0   4   4    0.28    0.11
   0   4   4    0.18    0.09
   0   4  -4    0.25    0.08
   1  -4   4    5.68    0.33
  -1  -4  -4    5.93    0.37
  -1  -4  -4    5.96    0.37
   1  -4   4    6.18    0.33
  -1   4  -4    6.28    0.40
  -1   4  -4    5.91    0.28
   1   4   4    5.84    0.32
   1   4   4    6.11    0.41
  -1   4  -4    5.45    0.33
   1   4   4    5.18    0.35
   2  -4   4    3.06    0.32
  -2  -4  -4    2.95    0.32
   2  -4   4    2.58    0.28
  -2  -4  -4    2.33    0.29
   2   4   4    2.85    0.34
  -2   4  -4    2.83    0.23
  -2   4  -4    2.56    0.32
   2   4   4    2.94    0.32
   2   4   4    2.96    0.22
   3  -4   4   61.22    1.58
   3  -4   4   61.62    1.58
  -3  -4  -4   63.68    1.61
  -3  -4  -4   61.20    1.61
   3   4   4   62.78    1.66
  -3   4  -4   61.15    1.65
   3   4   4   62.58    1.39
   3   4   4   61.85    1.61
  -3   4  -4   63.25    1.43
  -4  -4  -4    3.65    0.41
  -4  -4  -4    2.47    0.32
   4  -4   4    2.82    0.35
   4  -4   4    2.96    0.35
   4   4   4    2.92    0.35
  -4   4  -4    2.34    0.34
   4   4   4    3.29    0.40
  -5  -4  -4    0.57    0.17
  -5  -4  -4    0.69    0.19
   5  -4   4    0.35    0.15
   5  -4   4    0.26    0.15
  -5   4  -4    0.38    0.16
   5   4   4    0.86    0.21
   5   4   4    0.80    0.22
   6  -4   4    0.21    0.14
  -6  -4  -4    0.43    0.16
   6   4   4    0.52    0.17
  -6   4  -4    0.44    0.18
  -7  -4  -4    0.84    0.23
   7  -4   4    1.18    0.29
   7   4   4    1.28    0.27
  -7   4  -4    1.47    0.32
   8  -4   4    3.87    0.49
  -8  -4  -4    3.45    0.47
  -8   4  -4    4.27    0.57
  -9  -5   4    0.70    0.27
  -9  -5   4    0.91    0.28
   9  -5  -4    0.54    0.22
  -9   5   4    0.96    0.27
  -9   5   4    0.86    0.29
   9   5  -4    0.97    0.30
   9   5  -4    0.78    0.29
   8  -5  -4   -0.02    0.14
  -8  -5   4    0.32    0.19
  -8  -5   4    0.60    0.24
  -8   5   4    0.40    0.18
  -8   5   4    0.65    0.23
   8   5  -4    0.47    0.20
   8   5  -4    0.44    0.21
  -7  -5   4    0.70    0.22
  -7  -5   4    0.76    0.25
   7   5  -4    1.29    0.29
  -7   5   4    0.67    0.20
  -7   5   4    0.76    0.22
   7   5  -4    0.56    0.20
   6  -5  -4    0.65    0.18
  -6  -5   4    1.33    0.29
   6   5  -4    0.70    0.22
   6   5  -4    0.76    0.22
  -6   5   4    0.52    0.18
  -6   5   4    0.85    0.19
  -5  -5   4    0.11    0.11
   5  -5  -4    0.17    0.13
   5  -5  -4    0.12    0.09
   5   5  -4    0.36    0.14
  -5   5   4    0.16    0.10
   5   5  -4    0.15    0.14
  -5   5   4    0.38    0.15
  -4  -5   4    5.42    0.41
   4  -5  -4    4.90    0.35
   4  -5  -4    5.45    0.44
   4   5  -4    5.82    0.43
   4   5  -4    5.06    0.42
  -4   5   4    5.27    0.49
  -4   5   4    4.78    0.50
   3  -5  -4    0.93    0.22
   3  -5  -4    0.92    0.15
   3  -5  -4    0.61    0.15
  -3  -5   4    0.58    0.17
   3   5  -4    0.62    0.19
  -3   5   4    0.62    0.20
   3   5  -4    1.01    0.22
  -3   5   4    1.00    0.21
  -2  -5   4    5.35    0.39
   2  -5  -4    5.85    0.44
   2  -5  -4    6.48    0.36
  -2  -5   4    6.25    0.30
   2  -5  -4    6.12    0.39
  -2   5   4    6.78    0.48
   2   5  -4    5.84    0.43
   2   5  -4    5.75    0.38
   2   5  -4    5.91    0.41
  -2   5   4    6.23    0.40
  -1  -5   4   25.14    0.70
   1  -5  -4   22.80    0.91
  -1  -5   4   23.37    0.86
  -1  -5   4   24.27    0.73
   1  -5  -4   24.79    0.85
   1  -5  -4   23.95    0.80
   1   5  -4   24.84    0.89
  -1   5   4   24.14    0.84
   1   5  -4   23.12    0.87
   1   5  -4   23.44    0.80
  -1   5   4   22.90    0.92
   0  -5   4    8.25    0.39
   0  -5   4    7.38    0.39
   0  -5  -4    7.49    0.43
   0  -5  -4    7.44    0.44
   0  -5   4    8.39    0.49
   0   5   4    7.28    0.41
   0   5   4    7.69    0.45
   0   5  -4    7.29    0.44
   0   5  -4    8.15    0.48
   0   5  -4    7.29    0.39
   0   5   4    7.82    0.50
   1  -5   4   17.79    0.68
  -1  -5  -4   18.84    0.75
   1  -5   4   16.90    0.64
  -1  -5  -4   17.13    0.73
   1   5   4   18.64    0.80
  -1   5  -4   17.88    0.60
   1   5   4   17.56    0.65
  -1   5  -4   18.66    0.78
   1   5   4   17.78    0.74
  -1   5  -4   18.47    0.71
   2  -5   4    8.03    0.46
   2  -5   4    7.82    0.45
  -2  -5  -4    7.74    0.48
  -2  -5  -4    7.22    0.47
  -2   5  -4    7.47    0.42
   2   5   4    7.55    0.39
  -2   5  -4    8.20    0.50
   2   5   4    7.28    0.48
   2   5   4    7.31    0.50
  -3  -5  -4    4.01    0.42
  -3  -5  -4    5.01    0.40
   3  -5   4    3.73    0.39
   3  -5   4    4.60    0.45
   3   5   4    3.58    0.42
  -3   5  -4    3.54    0.43
   3   5   4    4.42    0.47
   4  -5   4    0.04    0.08
   4  -5   4    0.13    0.12
  -4  -5  -4    0.10    0.09
  -4  -5  -4    0.07    0.09
   4   5   4   -0.07    0.08
  -4   5  -4    0.04    0.08
   4   5   4   -0.02    0.07
  -5  -5  -4    0.97    0.25
  -5  -5  -4    0.84    0.22
   5  -5   4    1.37    0.28
   5   5   4    1.46    0.28
  -5   5  -4    1.61    0.32
   5   5   4    1.09    0.29
  -6  -5  -4    1.66    0.32
   6  -5   4    1.57    0.30
  -6  -5  -4    1.86    0.34
  -6   5  -4    2.26    0.39
   6   5   4    2.35    0.38
  -7  -5  -4    0.42    0.19
  -7  -5  -4    0.11    0.15
   7  -5   4    0.17    0.12
  -7   5  -4    0.10    0.16
   7   5   4    0.17    0.17
  -8  -5  -4    1.54    0.33
  -8  -5  -4    1.89    0.37
   8   5   4    1.67    0.37
  -8   5  -4    1.31    0.34
   8  -6  -4    0.32    0.20
  -8  -6   4    0.10    0.19
  -8  -6   4    0.01    0.17
  -8   6   4    0.41    0.23
   8   6  -4    0.07    0.16
   8   6  -4    0.56    0.25
  -7  -6   4    0.53    0.24
  -7  -6   4    0.43    0.21
   7   6  -4    0.48    0.22
  -7   6   4    0.41    0.19
   7   6  -4    0.37    0.18
  -6  -6   4    2.15    0.40
  -6  -6   4    1.92    0.36
   6   6  -4    2.89    0.45
   6   6  -4    2.14    0.38
  -6   6   4    3.14    0.46
   5  -6  -4   -0.01    0.09
  -5  -6   4    0.22    0.13
   5   6  -4   -0.10    0.11
  -5   6   4   -0.06    0.10
   5   6  -4   -0.07    0.06
  -4  -6   4    2.31    0.35
   4  -6  -4    3.15    0.36
   4   6  -4    1.75    0.34
   4   6  -4    2.14    0.35
  -4   6   4    2.36    0.36
   3  -6  -4    3.42    0.37
  -3  -6   4    2.91    0.37
   3  -6  -4    3.44    0.45
  -3   6   4    3.70    0.43
   3   6  -4    3.84    0.47
  -3   6   4    3.31    0.45
   3   6  -4    3.43    0.41
   2  -6  -4    2.69    0.39
  -2  -6   4    2.07    0.32
   2  -6  -4    2.15    0.28
   2  -6  -4    2.39    0.31
   2   6  -4    2.34    0.34
  -2   6   4    1.39    0.29
   2   6  -4    2.79    0.39
  -2   6   4    1.78    0.30
   2   6  -4    1.98    0.30
   1  -6  -4    3.33    0.38
   1  -6  -4    3.17    0.41
  -1  -6   4    3.44    0.33
   1  -6  -4    3.23    0.36
  -1  -6   4    3.72    0.42
   1   6  -4    3.06    0.38
  -1   6   4    3.48    0.44
  -1   6   4    2.72    0.34
   1   6  -4    3.46    0.41
   1   6  -4    3.06    0.35
   0  -6   4    4.63    0.33
   0  -6  -4    3.80    0.41
   0  -6   4    4.17    0.45
   0  -6  -4    3.96    0.43
   0   6   4    4.21    0.41
   0   6  -4    3.96    0.44
   0   6  -4    4.11    0.44
   0   6   4    3.31    0.39
   0   6   4    4.62    0.50
   0   6  -4    3.81    0.31
   1  -6   4   19.21    0.85
   1  -6   4   20.98    0.77
  -1  -6  -4   17.96    0.81
  -1  -6  -4   20.40    0.85
   1  -6   4   19.59    0.77
  -1   6  -4   21.07    0.88
  -1   6  -4   20.88    0.82
   1   6   4   20.56    0.92
   1   6   4   19.99    0.85
   1   6   4   20.55    0.76
   2  -6   4    0.29    0.13
  -2  -6  -4    0.19    0.14
  -2  -6  -4    0.37    0.15
   2  -6   4    0.29    0.13
  -2   6  -4    0.33    0.13
   2   6   4    0.48    0.18
  -2   6  -4    0.35    0.17
   2   6   4    0.11    0.13
  -3  -6  -4    0.58    0.19
  -3  -6  -4    0.84    0.22
   3  -6   4    1.05    0.24
   3  -6   4    1.08    0.23
   3   6   4    1.35    0.29
   3   6   4    1.48    0.30
  -3   6  -4    0.98    0.25
   4  -6   4    2.11    0.34
  -4  -6  -4    2.76    0.41
  -4  -6  -4    2.28    0.37
   4   6   4    2.80    0.41
  -4   6  -4    2.57    0.40
   5  -6   4    4.66    0.51
  -5  -6  -4    3.74    0.48
  -5  -6  -4    3.35    0.47
   5   6   4    3.85    0.49
  -5   6  -4    4.75    0.57
  -6  -6  -4    2.25    0.39
   6  -6   4    1.46    0.30
  -6  -6  -4    1.83    0.36
  -6   6  -4    2.25    0.41
   6   6   4    2.23    0.40
  -7  -6  -4    0.01    0.16
  -7  -6  -4    0.02    0.13
   7   6   4   -0.05    0.17
  -7   6  -4    0.06    0.17
  -7  -7   4    0.12    0.16
  -7  -7   4    0.10    0.19
   7   7  -4    0.31    0.21
   7   7  -4    0.37    0.21
  -6  -7   4    0.76    0.27
  -6  -7   4    1.40    0.34
   6   7  -4    1.30    0.33
   6   7  -4    1.66    0.36
  -6   7   4    1.16    0.31
  -5  -7   4    0.44    0.19
  -5  -7   4    0.25    0.16
  -5   7   4    0.15    0.15
   5   7  -4    0.14    0.17
   5   7  -4    0.19    0.15
   4  -7  -4    0.57    0.18
  -4  -7   4    0.72    0.25
  -4  -7   4    0.37    0.19
   4   7  -4    0.49    0.22
  -4   7   4    0.98    0.27
   4   7  -4    0.70    0.22
   3  -7  -4    2.38    0.34
  -3  -7   4    3.72    0.46
  -3   7   4    2.76    0.41
   3   7  -4    3.27    0.47
   3   7  -4    2.83    0.41
   2  -7  -4    1.97    0.32
  -2  -7   4    1.90    0.33
   2   7  -4    1.84    0.32
  -2   7   4    1.96    0.35
   2   7  -4    3.09    0.44
   1  -7  -4    2.15    0.32
   1  -7  -4    1.50    0.28
  -1  -7   4    2.02    0.33
   1   7  -4    1.83    0.30
  -1   7   4    2.02    0.32
   1   7  -4    2.79    0.41
   1   7  -4    1.95    0.34
   0  -7  -4    0.25    0.14
   0  -7  -4    0.32    0.14
   0  -7   4    0.17    0.13
   0  -7   4    0.02    0.12
   0   7   4    0.17    0.12
   0   7  -4    0.50    0.19
   0   7   4    0.19    0.14
   0   7  -4    0.07    0.11
  -1  -7  -4    0.37    0.17
  -1  -7  -4    0.33    0.15
   1  -7   4    0.21    0.15
   1  -7   4    0.31    0.13
  -1   7  -4    0.34    0.15
  -1   7  -4    0.17    0.16
   1   7   4    0.08    0.09
  -2  -7  -4    1.66    0.32
  -2  -7  -4    1.70    0.32
   2  -7   4    1.35    0.27
   2   7   4    1.98    0.36
  -2   7  -4    2.17    0.39
  -3  -7  -4   -0.03    0.10
   3  -7   4    0.22    0.13
  -3  -7  -4    0.06    0.10
  -3   7  -4    0.03    0.14
   3   7   4    0.11    0.13
   4  -7   4    1.66    0.32
  -4  -7  -4    2.63    0.43
  -4  -7  -4    2.36    0.40
  -4   7  -4    2.55    0.43
   4   7   4    2.29    0.40
   5  -7   4    0.57    0.21
  -5  -7  -4    0.35    0.20
  -5  -7  -4    0.65    0.25
  -5   7  -4    0.85    0.27
   5   7   4    0.41    0.19
  -6  -7  -4   -0.01    0.15
  -6  -7  -4    0.40    0.26
  -6   7  -4    0.20    0.21
   6   7   4    0.42    0.24
  -5  -8   4   -0.06    0.15
  -5  -8   4   -0.02    0.17
   5   8  -4    0.03    0.15
   5   8  -4    0.37    0.21
  -4  -8   4    0.40    0.21
  -4  -8   4    0.58    0.25
   4   8  -4    0.98    0.28
  -4   8   4    0.55    0.23
   4   8  -4    0.11    0.14
  -3  -8   4   -0.01    0.14
  -3  -8   4   -0.10    0.12
   3  -8  -4    0.36    0.16
   3   8  -4    0.13    0.15
  -3   8   4    0.05    0.13
   3   8  -4    0.25    0.20
  -2  -8   4    3.89    0.49
  -2  -8   4    4.64    0.58
   2  -8  -4    4.10    0.48
   2   8  -4    2.67    0.45
   2   8  -4    3.70    0.47
  -2   8   4    4.22    0.51
  -1  -8   4    0.61    0.23
   1  -8  -4    0.19    0.14
  -1  -8   4    0.51    0.19
   1   8  -4    0.30    0.18
   1   8  -4    0.30    0.18
  -1   8   4    0.46    0.20
   0  -8   4    0.36    0.17
   0  -8   4    0.29    0.18
   0  -8  -4    0.29    0.16
   0  -8  -4    0.39    0.16
   0   8  -4    0.07    0.16
   0   8  -4    0.27    0.16
   0   8   4    0.06    0.14
   1  -8   4    1.95    0.36
  -1  -8  -4    1.82    0.35
  -1  -8  -4    1.74    0.35
   1   8   4    1.25    0.29
  -1   8  -4    1.37    0.33
   2  -8   4    1.02    0.27
  -2  -8  -4    1.08    0.28
   2  -8   4    1.42    0.33
  -2  -8  -4    0.96    0.26
  -2   8  -4    1.09    0.30
   2   8   4    0.81    0.26
   3  -8   4    0.90    0.24
  -3  -8  -4    1.33    0.32
  -3  -8  -4    0.53    0.20
   3  -8   4    0.94    0.28
  -3   8  -4    1.03    0.31
   3   8   4    0.87    0.27
  -4  -8  -4    0.08    0.14
   4  -8   4   -0.06    0.14
  -4  -8  -4    0.00    0.16
   4   8   4    0.15    0.18
  -4   8  -4   -0.02    0.17
   1  -9  -4    0.18    0.16
  -1  -9   4   -0.16    0.14
  -1  -9   4   -0.02    0.16
   1   9  -4    0.06    0.14
   0  -9  -4    1.98    0.47
   0  -9   4    2.58    0.45
   0  -9  -4    2.50    0.43
   0   9  -4    2.66    0.45
 -11   0   5    0.20    0.18
 -10   0   5    0.38    0.20
  10   0  -5    0.14    0.15
  -9   0   5    1.26    0.28
   9   0  -5    1.67    0.30
   8   0  -5    4.22    0.44
  -8   0   5    3.00    0.39
  -7   0   5    0.07    0.08
  -7   0   5    0.00    0.09
   7   0  -5   -0.10    0.05
   7   0  -5    0.03    0.07
  -6   0   5    0.34    0.11
  -6   0   5    0.38    0.13
   6   0  -5    0.32    0.10
   6   0  -5    0.40    0.11
   6   0  -5    0.32    0.12
  -5   0   5    6.67    0.38
   5   0  -5    6.99    0.33
   5   0  -5    7.05    0.38
   5   0  -5    7.21    0.34
  -5   0   5    6.99    0.33
  -4   0   5   23.94    0.68
   4   0  -5   24.38    0.65
   4   0  -5   24.55    0.74
  -4   0   5   24.49    0.74
   4   0  -5   24.61    0.70
  -3   0   5   19.82    0.59
   3   0  -5   19.26    0.60
   3   0  -5   19.26    0.53
   3   0  -5   19.75    0.54
  -3   0   5   20.12    0.57
   3   0  -5   18.21    0.57
  -3   0   5   19.68    0.53
  -2   0   5    5.76    0.24
   2   0  -5    5.42    0.27
   2   0  -5    5.74    0.27
   2   0  -5    5.83    0.24
  -2   0   5    5.19    0.25
  -2   0   5    5.89    0.27
  -1   0   5    1.34    0.14
   1   0  -5    1.51    0.12
   1   0  -5    1.33    0.15
   1   0  -5    1.60    0.12
  -1   0   5    1.54    0.17
   1   0  -5    1.36    0.16
  -1   0   5    1.07    0.12
   0   0  -5   54.31    1.12
   0   0   5   54.47    1.17
   0   0   5   52.48    1.18
   0   0  -5   53.07    1.12
   0   0  -5   52.01    1.19
  -1   0  -5   15.36    0.52
  -1   0  -5   16.11    0.44
   1   0   5   16.12    0.53
  -1   0  -5   17.07    0.55
   1   0   5   16.69    0.55
  -1   0  -5   16.29    0.49
  -2   0  -5    7.00    0.33
   2   0   5    6.92    0.34
  -2   0  -5    7.47    0.33
  -2   0  -5    7.21    0.26
   2   0   5    6.88    0.37
   3   0   5   34.24    0.93
  -3   0  -5   34.06    0.75
  -3   0  -5   33.23    0.91
   3   0   5   32.05    0.99
  -3   0  -5   35.83    0.93
  -4   0  -5    0.03    0.05
   4   0   5    0.15    0.11
  -4   0  -5    0.09    0.04
   4   0   5    0.01    0.06
   4   0   5    0.06    0.05
  -4   0  -5   -0.02    0.05
  -5   0  -5    0.04    0.06
   5   0   5    0.11    0.09
   5   0   5   -0.01    0.07
  -5   0  -5    0.11    0.08
   6   0   5    0.75    0.22
   6   0   5    0.75    0.18
  -6   0  -5    0.60    0.15
  -6   0  -5    0.51    0.16
  -7   0  -5    1.72    0.29
   7   0   5    1.30    0.24
  -8   0  -5    0.11    0.11
  -9   0  -5    0.25    0.19
 -11  -1   5    0.34    0.22
 -11   1   5    0.31    0.20
 -10  -1   5    0.89    0.26
 -10   1   5    1.21    0.30
  10   1  -5    1.43    0.30
   9  -1  -5    0.13    0.12
  -9  -1   5    0.02    0.14
  -9   1   5   -0.04    0.12
   9   1  -5   -0.04    0.11
   8  -1  -5    5.70    0.41
  -8  -1   5    5.64    0.56
   8  -1  -5    6.26    0.44
  -8   1   5    5.33    0.54
  -8   1   5    6.18    0.40
   8   1  -5    5.26    0.42
   7  -1  -5    2.11    0.28
   7  -1  -5    1.97    0.27
  -7  -1   5    2.14    0.32
   7   1  -5    2.42    0.33
  -7   1   5    1.91    0.29
   7   1  -5    2.22    0.27
  -7   1   5    2.25    0.27
  -6  -1   5    0.30    0.12
   6  -1  -5    0.20    0.10
  -6  -1   5    0.28    0.08
   6  -1  -5    0.26    0.11
  -6   1   5    0.38    0.13
  -6   1   5    0.33    0.11
   6   1  -5    0.41    0.12
   6   1  -5    0.42    0.11
   6   1  -5    0.55    0.14
  -5  -1   5    0.12    0.09
  -5  -1   5    0.32    0.08
   5  -1  -5    0.26    0.10
  -5  -1   5    0.15    0.06
   5  -1  -5    0.23    0.07
   5  -1  -5    0.01    0.06
   5   1  -5    0.16    0.06
  -5   1   5    0.32    0.11
   5   1  -5    0.25    0.07
   5   1  -5    0.11    0.07
   5   1  -5    0.10    0.07
  -5   1   5    0.18    0.09
  -4  -1   5    0.30    0.08
   4  -1  -5    0.33    0.08
  -4  -1   5    0.36    0.11
   4  -1  -5    0.25    0.09
   4  -1  -5    0.34    0.10
   4   1  -5    0.42    0.07
   4   1  -5    0.26    0.09
   4   1  -5    0.21    0.06
   4   1  -5    0.37    0.11
  -4   1   5    0.61    0.13
  -4   1   5    0.43    0.12
   3  -1  -5    6.59    0.33
  -3  -1   5    6.91    0.34
   3  -1  -5    6.65    0.29
   3  -1  -5    6.87    0.33
   3  -1  -5    6.92    0.33
  -3  -1   5    6.68    0.28
   3   1  -5    6.64    0.33
   3   1  -5    7.15    0.21
  -3   1   5    7.47    0.31
  -3   1   5    6.47    0.32
   3   1  -5    6.57    0.33
  -3   1   5    7.08    0.33
   3   1  -5    6.83    0.21
  -2  -1   5   18.43    0.40
   2  -1  -5   18.20    0.54
   2  -1  -5   18.19    0.56
  -2  -1   5   18.15    0.57
  -2  -1   5   17.81    0.51
   2   1  -5   18.47    0.40
  -2   1   5   17.86    0.57
  -2   1   5   17.90    0.47
   2   1  -5   17.85    0.40
   2   1  -5   18.26    0.56
  -2   1   5   18.25    0.57
   2   1  -5   18.49    0.58
  -1  -1   5   11.80    0.42
   1  -1  -5   10.35    0.39
  -1  -1   5   11.31    0.32
  -1  -1   5   10.09    0.38
   1  -1  -5   11.74    0.42
  -1   1   5   10.81    0.42
   1   1  -5   11.39    0.42
   1   1  -5   11.52    0.32
  -1   1   5   11.39    0.31
  -1   1   5   10.74    0.40
   1   1  -5   11.55    0.38
   1   1  -5   11.39    0.42
   0  -1  -5    6.26    0.31
   0  -1  -5    6.53    0.21
   0  -1   5    6.26    0.30
   0  -1  -5    6.19    0.28
   0  -1  -5    6.55    0.31
   0  -1   5    6.27    0.26
   0   1   5    7.24    0.33
   0   1  -5    6.19    0.30
   0   1  -5    6.78    0.25
   0   1  -5    6.89    0.31
   0   1  -5    6.51    0.26
   0   1   5    6.13    0.29
   0   1   5    6.39    0.21
  -1  -1  -5   29.04    0.74
   1  -1   5   29.81    0.79
   1  -1   5   28.16    0.79
  -1  -1  -5   30.98    0.83
  -1  -1  -5   30.90    0.68
   1   1   5   29.54    0.84
  -1   1  -5   30.10    0.79
   1   1   5   29.91    0.79
  -1   1  -5   29.95    0.65
  -1   1  -5   30.06    0.77
  -1   1  -5   28.64    0.80
  -2  -1  -5    8.01    0.31
   2  -1   5    8.05    0.38
   2  -1   5    8.42    0.40
  -2  -1  -5    8.37    0.33
  -2  -1  -5    7.93    0.38
   2   1   5    8.43    0.33
   2   1   5    8.23    0.42
  -2   1  -5    8.59    0.24
   2   1   5    8.67    0.38
  -2   1  -5    8.48    0.39
  -2   1  -5    8.22    0.35
  -3  -1  -5    2.52    0.19
  -3  -1  -5    2.44    0.26
   3  -1   5    2.07    0.24
  -3  -1  -5    2.30    0.17
   3  -1   5    2.43    0.29
   3   1   5    2.69    0.19
  -3   1  -5    2.61    0.20
  -3   1  -5    2.59    0.28
  -3   1  -5    2.57    0.10
   3   1   5    2.76    0.31
   3   1   5    2.44    0.25
   4  -1   5    0.49    0.13
   4  -1   5    0.13    0.11
  -4  -1  -5    0.28    0.10
  -4  -1  -5    0.17    0.07
  -4  -1  -5    0.08    0.06
  -4   1  -5    0.16    0.09
   4   1   5    0.35    0.14
   4   1   5    0.27    0.08
  -4   1  -5    0.20    0.09
   4   1   5    0.31    0.11
  -5  -1  -5    0.90    0.17
  -5  -1  -5    0.88    0.18
  -5  -1  -5    0.95    0.15
   5  -1   5    0.99    0.23
   5  -1   5    0.72    0.17
  -5   1  -5    0.98    0.20
   5   1   5    1.18    0.25
   5   1   5    0.87    0.14
  -5   1  -5    0.65    0.14
   5   1   5    0.82    0.17
  -6  -1  -5    4.91    0.36
   6  -1   5    5.23    0.53
   6  -1   5    4.48    0.43
  -6  -1  -5    4.64    0.36
   6   1   5    5.00    0.53
   6   1   5    5.28    0.36
  -6   1  -5    4.87    0.40
   7  -1   5    1.39    0.25
  -7  -1  -5    1.25    0.25
  -7   1  -5    1.58    0.29
  -8  -1  -5    1.57    0.30
   8  -1   5    1.18    0.27
  -8   1  -5    1.24    0.27
  -9  -1  -5    0.86    0.25
  -9   1  -5    0.72    0.24
 -10  -2   5    0.33    0.16
  10   2  -5    0.20    0.19
 -10   2   5    0.33    0.20
   9  -2  -5    0.15    0.15
  -9  -2   5    0.14    0.13
   9  -2  -5    0.14    0.12
  -9   2   5    0.05    0.11
  -9   2   5    0.03    0.13
   9   2  -5    0.33    0.16
  -8  -2   5    3.20    0.43
   8  -2  -5    2.30    0.35
   8  -2  -5    2.75    0.34
  -8   2   5    2.68    0.37
   8   2  -5    2.35    0.35
  -8   2   5    2.69    0.34
   8   2  -5    2.78    0.35
   7  -2  -5    0.51    0.15
  -7  -2   5    0.63    0.20
   7  -2  -5    0.39    0.15
   7   2  -5    0.18    0.13
  -7   2   5    0.62    0.17
   7   2  -5    0.37    0.13
  -7   2   5    0.08    0.10
  -6  -2   5    6.92    0.46
   6  -2  -5    6.69    0.43
   6  -2  -5    6.73    0.40
  -6   2   5    7.02    0.42
  -6   2   5    7.92    0.44
   6   2  -5    6.86    0.43
   6   2  -5    7.07    0.45
   5  -2  -5    0.91    0.18
   5  -2  -5    1.06    0.18
  -5  -2   5    1.40    0.23
   5  -2  -5    0.84    0.11
  -5   2   5    0.72    0.16
   5   2  -5    1.05    0.11
   5   2  -5    0.70    0.16
  -5   2   5    1.11    0.18
   5   2  -5    0.88    0.18
   4  -2  -5    2.93    0.28
  -4  -2   5    3.68    0.29
   4  -2  -5    3.23    0.26
   4  -2  -5    3.47    0.19
  -4  -2   5    3.53    0.18
   4   2  -5    3.27    0.27
  -4   2   5    3.18    0.31
  -4   2   5    3.44    0.28
   4   2  -5    3.29    0.12
  -4   2   5    3.21    0.22
   4   2  -5    3.51    0.27
   4   2  -5    3.40    0.11
   3  -2  -5   17.16    0.52
   3  -2  -5   17.94    0.63
  -3  -2   5   16.91    0.47
   3  -2  -5   16.31    0.58
  -3  -2   5   16.45    0.61
  -3   2   5   17.11    0.61
  -3   2   5   17.64    0.50
  -3   2   5   17.57    0.64
   3   2  -5   15.95    0.59
   3   2  -5   16.62    0.62
   2  -2  -5   13.35    0.49
  -2  -2   5   12.99    0.41
  -2  -2   5   13.01    0.51
   2  -2  -5   12.84    0.45
  -2   2   5   13.20    0.35
   2   2  -5   12.42    0.50
   2   2  -5   12.58    0.51
  -2   2   5   13.44    0.50
   2   2  -5   12.89    0.47
  -2   2   5   12.01    0.51
   1  -2  -5   65.83    1.46
   1  -2  -5   65.27    1.45
  -1  -2   5   65.76    1.40
  -1  -2   5   63.95    1.49
  -1  -2   5   69.24    1.25
   1   2  -5   68.14    1.24
   1   2  -5   66.18    1.41
  -1   2   5   66.28    1.15
   1   2  -5   68.65    1.51
  -1   2   5   66.20    1.54
   1   2  -5   66.36    1.50
  -1   2   5   66.33    1.47
   0  -2   5   49.25    1.04
   0  -2  -5   47.74    1.16
   0  -2   5   46.67    1.12
   0  -2  -5   50.34    1.15
   0   2  -5   47.96    1.02
   0   2  -5   50.36    1.17
   0   2   5   47.09    1.21
   0   2  -5   47.81    1.19
   0   2  -5   48.70    1.04
   0   2   5   47.06    1.13
  -1  -2  -5   70.55    1.59
  -1  -2  -5   71.80    1.54
   1  -2   5   70.15    1.55
   1  -2   5   71.66    1.51
  -1  -2  -5   70.30    1.29
  -1   2  -5   68.59    1.60
   1   2   5   70.40    1.53
   1   2   5   72.88    1.53
  -1   2  -5   70.70    1.35
   1   2   5   69.97    1.64
  -1   2  -5   71.01    1.54
  -1   2  -5   69.12    1.49
  -2  -2  -5   27.80    0.84
   2  -2   5   29.88    0.85
   2  -2   5   28.08    0.83
  -2  -2  -5   27.85    0.66
  -2  -2  -5   28.86    0.80
   2   2   5   27.58    0.77
   2   2   5   28.29    0.80
  -2   2  -5   29.43    0.88
  -2   2  -5   27.95    0.77
   2   2   5   27.46    0.89
  -2   2  -5   27.86    0.55
   3  -2   5    0.23    0.09
  -3  -2  -5    0.35    0.11
  -3  -2  -5    0.26    0.07
   3  -2   5    0.20    0.10
  -3  -2  -5    0.30    0.09
  -3   2  -5    0.30    0.12
   3   2   5    0.32    0.10
  -3   2  -5    0.24    0.08
   3   2   5    0.26    0.10
   3   2   5    0.37    0.13
  -4  -2  -5    1.65    0.20
  -4  -2  -5    1.47    0.23
   4  -2   5    1.80    0.28
  -4  -2  -5    2.00    0.24
   4  -2   5    1.67    0.25
   4   2   5    1.75    0.22
  -4   2  -5    1.58    0.25
  -4   2  -5    1.85    0.21
   4   2   5    2.17    0.25
   4   2   5    2.07    0.29
  -5  -2  -5   20.66    0.78
   5  -2   5   20.28    0.78
  -5  -2  -5   22.00    0.73
   5  -2   5   18.68    0.82
  -5  -2  -5   19.94    0.71
   5   2   5   20.27    0.86
  -5   2  -5   18.66    0.80
   5   2   5   19.99    0.70
   5   2   5   20.19    0.68
   6  -2   5    2.48    0.33
  -6  -2  -5    3.08    0.34
  -6  -2  -5    2.81    0.35
   6  -2   5    2.48    0.38
   6   2   5    2.67    0.30
  -6   2  -5    2.02    0.32
   6   2   5    2.52    0.38
  -7  -2  -5    2.61    0.34
  -7  -2  -5    3.04    0.38
   7  -2   5    4.03    0.44
  -7   2  -5    3.66    0.47
  -8  -2  -5    2.82    0.38
   8  -2   5    2.48    0.36
  -8   2  -5    2.44    0.40
  -9  -2  -5    0.77    0.24
   9  -2   5    0.53    0.22
  -9   2  -5    0.95    0.28
 -10  -3   5    0.82    0.27
  10   3  -5    1.27    0.32
 -10   3   5    0.77    0.25
  -9  -3   5    0.11    0.16
  -9   3   5    0.11    0.12
   9   3  -5    0.09    0.13
  -9   3   5   -0.01    0.15
   8  -3  -5    1.84    0.28
  -8  -3   5    1.98    0.36
  -8   3   5    1.40    0.27
   8   3  -5    1.77    0.33
  -8   3   5    2.48    0.36
   8   3  -5    1.35    0.28
   7  -3  -5    0.01    0.10
   7  -3  -5    0.09    0.10
  -7  -3   5    0.19    0.13
   7   3  -5    0.07    0.10
   7   3  -5    0.04    0.10
  -7   3   5   -0.03    0.07
  -7   3   5    0.06    0.09
   6  -3  -5   23.10    0.90
   6  -3  -5   24.01    0.82
  -6  -3   5   21.89    0.90
  -6   3   5   25.52    0.91
   6   3  -5   23.86    0.91
   6   3  -5   23.05    0.90
  -6   3   5   23.19    0.81
   5  -3  -5    3.92    0.40
  -5  -3   5    3.83    0.40
   5  -3  -5    3.76    0.29
   5   3  -5    3.22    0.37
   5   3  -5    2.87    0.34
  -5   3   5    3.99    0.39
  -5   3   5    3.21    0.25
   4  -3  -5    2.34    0.27
  -4  -3   5    2.24    0.29
   4  -3  -5    2.38    0.17
   4  -3  -5    2.08    0.28
  -4   3   5    2.62    0.32
  -4   3   5    2.06    0.27
   4   3  -5    2.37    0.31
   4   3  -5    2.44    0.30
  -4   3   5    2.61    0.20
   3  -3  -5    5.93    0.34
  -3  -3   5    5.92    0.37
  -3  -3   5    5.79    0.25
   3  -3  -5    5.74    0.38
   3  -3  -5    5.96    0.29
  -3   3   5    6.01    0.36
  -3   3   5    5.92    0.26
  -3   3   5    5.96    0.39
   3   3  -5    5.44    0.36
   3   3  -5    6.27    0.37
  -2  -3   5    0.05    0.05
   2  -3  -5    0.00    0.05
   2  -3  -5   -0.02    0.04
  -2  -3   5    0.07    0.06
  -2   3   5    0.01    0.02
  -2   3   5   -0.03    0.04
  -2   3   5    0.05    0.06
   2   3  -5    0.02    0.05
   2   3  -5   -0.04    0.05
   2   3  -5    0.02    0.04
  -1  -3   5    4.46    0.19
   1  -3  -5    4.56    0.28
  -1  -3   5    4.39    0.18
  -1  -3   5    4.22    0.30
   1  -3  -5    4.91    0.30
  -1  -3   5    4.78    0.26
   1   3  -5    5.19    0.28
   1   3  -5    4.08    0.29
  -1   3   5    4.73    0.34
   1   3  -5    4.45    0.31
  -1   3   5    4.83    0.30
   0  -3   5    5.44    0.25
   0  -3  -5    5.18    0.32
   0  -3   5    5.13    0.25
   0  -3   5    5.20    0.29
   0  -3  -5    5.16    0.31
   0   3  -5    5.57    0.35
   0   3  -5    5.47    0.33
   0   3  -5    5.56    0.27
   0   3   5    5.31    0.30
   0   3  -5    5.56    0.26
   0   3   5    4.48    0.33
  -1  -3  -5   62.98    1.50
   1  -3   5   59.49    1.42
  -1  -3  -5   62.27    1.46
   1  -3   5   61.27    1.37
   1   3   5   60.87    1.40
  -1   3  -5   60.63    1.24
  -1   3  -5   61.10    1.52
   1   3   5   58.68    1.44
   1   3   5   61.64    1.55
  -1   3  -5   61.12    1.43
  -2  -3  -5    1.04    0.19
   2  -3   5    0.94    0.17
   2  -3   5    0.68    0.15
  -2  -3  -5    1.07    0.10
  -2  -3  -5    0.81    0.16
   2   3   5    0.83    0.18
   2   3   5    0.98    0.16
  -2   3  -5    0.80    0.17
  -2   3  -5    0.62    0.13
   2   3   5    0.65    0.14
  -3  -3  -5   18.21    0.68
   3  -3   5   17.88    0.71
  -3  -3  -5   19.36    0.74
  -3  -3  -5   20.18    0.55
   3  -3   5   17.93    0.70
  -3   3  -5   18.03    0.61
   3   3   5   18.52    0.77
  -3   3  -5   18.12    0.75
   3   3   5   18.74    0.70
   3   3   5   17.41    0.60
  -4  -3  -5    0.22    0.13
   4  -3   5    0.21    0.12
  -4  -3  -5    0.17    0.08
  -4  -3  -5    0.26    0.11
   4  -3   5    0.18    0.11
   4   3   5    0.14    0.09
   4   3   5    0.23    0.13
   4   3   5    0.32    0.10
  -4   3  -5    0.28    0.13
  -4   3  -5    0.26    0.09
  -5  -3  -5    1.63    0.27
   5  -3   5    1.64    0.29
  -5  -3  -5    2.01    0.25
  -5  -3  -5    1.48    0.25
   5  -3   5    1.42    0.25
   5   3   5    1.62    0.26
  -5   3  -5    1.68    0.29
   5   3   5    1.81    0.30
  -6  -3  -5    8.58    0.54
  -6  -3  -5    8.26    0.49
   6  -3   5    9.12    0.55
  -6  -3  -5    7.52    0.54
   6   3   5    8.46    0.50
  -6   3  -5    7.28    0.54
  -7  -3  -5    2.03    0.33
   7  -3   5    1.90    0.32
  -7   3  -5    1.64    0.32
   8  -3   5    0.44    0.19
  -8  -3  -5    0.65    0.23
  -8   3  -5    0.65    0.23
   9  -3   5    0.90    0.27
  -9   3  -5    1.31    0.34
 -10  -4   5    0.24    0.22
  10  -4  -5    0.17    0.15
  10   4  -5    0.18    0.19
 -10   4   5    0.28    0.18
 -10   4   5    0.15    0.22
  -9  -4   5    0.21    0.17
   9  -4  -5    0.08    0.14
  -9  -4   5    0.49    0.21
  -9   4   5    0.13    0.17
   9   4  -5    0.22    0.18
  -9   4   5    0.07    0.16
   9   4  -5    0.41    0.21
  -8  -4   5   10.27    0.66
  -8  -4   5   10.75    0.70
  -8   4   5   10.12    0.64
   8   4  -5   12.41    0.73
  -8   4   5    9.55    0.59
   8   4  -5   10.61    0.67
   7  -4  -5    0.84    0.20
  -7  -4   5    1.11    0.26
   7   4  -5    1.12    0.27
  -7   4   5    0.99    0.22
   7   4  -5    1.13    0.26
  -7   4   5    0.82    0.23
   6  -4  -5    1.07    0.25
   6  -4  -5    1.28    0.22
  -6  -4   5    1.13    0.24
  -6   4   5    1.35    0.27
  -6   4   5    1.47    0.23
   6   4  -5    1.09    0.25
   6   4  -5    1.32    0.27
   5  -4  -5   -0.03    0.07
  -5  -4   5   -0.01    0.09
   5  -4  -5    0.03    0.09
   5   4  -5    0.01    0.06
   5   4  -5    0.14    0.12
  -5   4   5    0.06    0.07
  -5   4   5    0.03    0.10
   4  -4  -5   11.52    0.61
   4  -4  -5   11.09    0.53
  -4  -4   5   11.10    0.58
  -4   4   5   11.93    0.59
   4   4  -5    9.96    0.57
  -4   4   5   11.16    0.44
   4   4  -5   10.30    0.55
  -4   4   5   11.09    0.61
  -3  -4   5   33.93    1.07
  -3  -4   5   32.16    0.79
   3  -4  -5   32.53    0.97
   3  -4  -5   32.81    0.88
   3  -4  -5   32.31    1.09
  -3   4   5   30.76    1.02
   3   4  -5   32.73    1.02
  -3   4   5   32.43    1.10
   3   4  -5   34.24    1.10
  -2  -4   5    9.88    0.51
  -2  -4   5    8.64    0.36
   2  -4  -5    8.95    0.45
   2  -4  -5    9.54    0.43
   2  -4  -5    9.58    0.53
   2   4  -5    9.24    0.50
   2   4  -5    8.75    0.45
  -2   4   5    9.44    0.53
   2   4  -5    8.96    0.49
  -2   4   5    9.08    0.47
  -1  -4   5   16.33    0.47
  -1  -4   5   15.18    0.66
   1  -4  -5   16.37    0.61
  -1  -4   5   17.35    0.57
   1  -4  -5   16.27    0.64
   1   4  -5   16.92    0.69
  -1   4   5   16.25    0.64
   1   4  -5   16.62    0.60
  -1   4   5   17.04    0.73
   1   4  -5   16.33    0.67
   0  -4  -5    3.46    0.28
   0  -4   5    3.98    0.24
   0  -4   5    4.10    0.27
   0  -4   5    4.33    0.26
   0  -4  -5    4.01    0.30
   0  -4   5    4.15    0.33
   0   4  -5    3.17    0.33
   0   4  -5    4.07    0.33
   0   4  -5    3.82    0.24
   0   4  -5    3.47    0.24
   0   4   5    4.07    0.30
   0   4   5    3.21    0.37
   0   4   5    4.24    0.29
  -1  -4  -5   10.03    0.50
  -1  -4  -5    8.59    0.46
   1  -4   5    8.80    0.44
   1  -4   5    9.28    0.42
  -1   4  -5    9.52    0.46
   1   4   5    9.04    0.52
   1   4   5    8.91    0.47
  -1   4  -5    9.77    0.52
  -1   4  -5    9.27    0.36
   1   4   5    9.62    0.44
   2  -4   5    3.58    0.36
   2  -4   5    3.39    0.33
  -2  -4  -5    2.76    0.32
  -2  -4  -5    3.94    0.32
   2   4   5    3.64    0.37
   2   4   5    3.73    0.41
  -2   4  -5    3.67    0.28
   2   4   5    3.59    0.26
  -2   4  -5    3.64    0.39
   3  -4   5   17.20    0.71
  -3  -4  -5   18.48    0.76
   3  -4   5   17.22    0.71
  -3  -4  -5   15.05    0.68
  -3   4  -5   17.38    0.63
   3   4   5   17.65    0.78
   3   4   5   17.14    0.61
  -3   4  -5   17.86    0.78
   3   4   5   17.47    0.73
   4  -4   5    8.64    0.53
  -4  -4  -5    8.05    0.51
  -4  -4  -5    8.49    0.50
   4  -4   5    7.59    0.48
   4   4   5    9.26    0.53
   4   4   5    8.92    0.57
  -4   4  -5    7.93    0.53
   5  -4   5    0.28    0.17
   5  -4   5    0.21    0.12
  -5  -4  -5    0.38    0.15
  -5  -4  -5    0.29    0.15
   5   4   5    0.22    0.15
   5   4   5    0.02    0.09
  -5   4  -5   -0.01    0.08
   6  -4   5    2.50    0.38
  -6  -4  -5    1.89    0.31
  -6  -4  -5    2.02    0.34
  -6   4  -5    2.04    0.37
   6   4   5    2.53    0.36
  -7  -4  -5    1.90    0.35
   7  -4   5    2.34    0.38
  -7  -4  -5    2.07    0.34
  -7   4  -5    2.78    0.45
   7   4   5    2.09    0.34
  -8  -4  -5    3.48    0.47
   8  -4   5    3.49    0.49
  -8   4  -5    3.34    0.50
  -9  -5   5    0.27    0.20
  -9  -5   5    0.27    0.19
   9  -5  -5   -0.06    0.14
   9   5  -5   -0.01    0.16
  -9   5   5   -0.01    0.18
   9   5  -5    0.19    0.16
  -8  -5   5   -0.05    0.13
  -8  -5   5    0.24    0.18
   8   5  -5    0.08    0.14
  -8   5   5    0.20    0.17
   8   5  -5    0.13    0.16
  -7  -5   5   -0.15    0.06
   7   5  -5    0.06    0.13
   7   5  -5   -0.04    0.08
  -7   5   5    0.05    0.11
   6  -5  -5    1.58    0.27
  -6  -5   5    1.60    0.31
   6   5  -5    1.56    0.32
   6   5  -5    1.72    0.33
  -6   5   5    2.12    0.35
   5  -5  -5    0.25    0.15
   5  -5  -5    0.22    0.12
  -5  -5   5    0.42    0.16
   5   5  -5    0.27    0.15
  -5   5   5    0.27    0.15
   5   5  -5    0.54    0.18
   4  -5  -5    0.39    0.14
   4  -5  -5    0.60    0.21
  -4  -5   5    0.73    0.20
  -4   5   5    0.33    0.17
  -4   5   5    0.25    0.14
   4   5  -5    0.58    0.17
   4   5  -5    0.30    0.15
   3  -5  -5    4.37    0.48
   3  -5  -5    4.39    0.34
  -3  -5   5    3.65    0.40
   3  -5  -5    4.65    0.30
  -3   5   5    4.78    0.49
   3   5  -5    5.11    0.52
   3   5  -5    4.64    0.37
  -3   5   5    4.04    0.43
   2  -5  -5    8.83    0.49
  -2  -5   5    8.80    0.52
   2  -5  -5    9.26    0.45
  -2  -5   5    8.94    0.39
   2  -5  -5    7.74    0.52
   2   5  -5    7.71    0.49
  -2   5   5    8.72    0.56
   2   5  -5    9.19    0.49
   2   5  -5    7.83    0.51
  -2   5   5    8.88    0.51
   1  -5  -5   34.34    1.08
   1  -5  -5   35.04    1.06
  -1  -5   5   34.65    1.14
  -1  -5   5   33.98    0.95
  -1   5   5   35.65    1.09
   1   5  -5   33.43    1.12
   1   5  -5   36.55    1.05
  -1   5   5   35.95    1.22
   1   5  -5   34.14    1.14
   0  -5  -5    1.95    0.28
   0  -5  -5    2.03    0.29
   0  -5   5    2.59    0.22
   0  -5   5    2.01    0.30
   0  -5   5    2.58    0.28
   0   5  -5    2.01    0.30
   0   5  -5    2.82    0.29
   0   5  -5    2.28    0.32
   0   5   5    2.95    0.38
   0   5   5    2.33    0.30
   0   5   5    2.63    0.31
   1  -5   5   11.73    0.55
   1  -5   5   10.79    0.50
  -1  -5  -5   11.51    0.58
  -1  -5  -5   11.02    0.58
   1   5   5   12.45    0.55
  -1   5  -5   11.42    0.56
   1   5   5   12.35    0.61
  -1   5  -5   11.20    0.62
   1   5   5   11.57    0.64
   2  -5   5   10.09    0.52
  -2  -5  -5    9.88    0.56
   2  -5   5   10.87    0.55
  -2  -5  -5    9.55    0.55
   2   5   5    9.49    0.47
   2   5   5    9.54    0.55
  -2   5  -5   10.47    0.51
   2   5   5   10.86    0.63
  -2   5  -5    9.38    0.57
   3  -5   5    1.76    0.28
  -3  -5  -5    1.44    0.28
  -3  -5  -5    1.54    0.26
   3  -5   5    1.68    0.27
   3   5   5    1.93    0.32
   3   5   5    1.70    0.30
  -3   5  -5    1.74    0.31
   4  -5   5    2.25    0.34
  -4  -5  -5    2.12    0.35
   4  -5   5    2.29    0.35
  -4  -5  -5    2.16    0.34
  -4   5  -5    2.70    0.40
   4   5   5    2.49    0.36
   4   5   5    2.61    0.38
  -5  -5  -5    0.50    0.18
   5  -5   5    0.82    0.22
  -5  -5  -5    0.87    0.24
   5   5   5    0.59    0.19
  -5   5  -5    1.17    0.29
  -6  -5  -5    0.51    0.21
   6  -5   5    0.72    0.23
  -6  -5  -5    0.22    0.16
  -6   5  -5    0.60    0.22
   6   5   5    0.31    0.18
  -7  -5  -5    0.33    0.19
  -7  -5  -5    0.27    0.19
   7  -5   5    0.38    0.21
   7   5   5    0.39    0.21
  -7   5  -5    0.37    0.20
  -8  -6   5    0.25    0.21
  -8  -6   5    0.29    0.22
  -8   6   5    0.17    0.21
   8   6  -5    0.06    0.15
   8   6  -5    0.24    0.21
  -7  -6   5    1.00    0.30
  -7  -6   5    0.61    0.22
   7   6  -5    0.73    0.26
  -7   6   5    0.85    0.25
   7   6  -5    0.67    0.25
  -6  -6   5    0.17    0.14
   6  -6  -5    0.32    0.17
   6   6  -5    0.59    0.22
   6   6  -5    0.46    0.21
  -6   6   5    0.22    0.16
   5  -6  -5    1.47    0.27
  -5  -6   5    1.32    0.28
   5   6  -5    1.72    0.34
  -5   6   5    1.86    0.35
   5   6  -5    1.31    0.31
  -4  -6   5    0.11    0.12
   4  -6  -5    0.34    0.14
   4   6  -5    0.66    0.22
  -4   6   5   -0.04    0.10
   4   6  -5    0.24    0.14
   3  -6  -5    1.52    0.26
  -3  -6   5    1.03    0.24
   3   6  -5    1.27    0.26
   3   6  -5    1.40    0.30
  -3   6   5    1.02    0.24
   2  -6  -5    0.21    0.11
  -2  -6   5    0.21    0.11
   2  -6  -5    0.44    0.16
   2  -6  -5    0.24    0.16
  -2   6   5    0.42    0.19
  -2   6   5    0.29    0.15
   2   6  -5    0.50    0.19
   2   6  -5    0.33    0.15
   2   6  -5    0.35    0.15
   1  -6  -5    8.48    0.58
  -1  -6   5    7.58    0.41
  -1  -6   5    6.34    0.48
   1  -6  -5    7.89    0.48
   1  -6  -5    8.30    0.51
   1   6  -5    7.50    0.46
  -1   6   5    8.46    0.51
  -1   6   5    8.41    0.58
   1   6  -5    7.77    0.52
   1   6  -5    7.37    0.52
   0  -6  -5   15.13    0.73
   0  -6   5   15.92    0.78
   0  -6  -5   16.34    0.74
   0  -6   5   18.15    0.70
   0   6   5   16.55    0.84
   0   6  -5   16.63    0.68
   0   6   5   16.53    0.72
   0   6   5   16.22    0.76
   0   6  -5   17.85    0.79
   0   6  -5   18.18    0.83
  -1  -6  -5    8.68    0.55
   1  -6   5    8.26    0.56
   1  -6   5    8.06    0.48
  -1  -6  -5    8.28    0.53
   1   6   5    8.31    0.58
  -1   6  -5    8.70    0.57
   1   6   5    8.19    0.53
  -1   6  -5    8.35    0.52
   1   6   5    8.62    0.49
  -2  -6  -5    2.25    0.35
  -2  -6  -5    2.11    0.33
   2  -6   5    1.81    0.29
  -2   6  -5    1.81    0.32
  -2   6  -5    2.48    0.38
   2   6   5    2.06    0.34
   2   6   5    2.38    0.45
  -3  -6  -5    1.28    0.28
   3  -6   5    1.57    0.29
  -3  -6  -5    1.44    0.29
   3  -6   5    1.46    0.28
  -3   6  -5    1.56    0.32
   3   6   5    1.14    0.27
   4  -6   5    2.14    0.34
  -4  -6  -5    2.44    0.40
  -4  -6  -5    2.14    0.35
  -4   6  -5    2.38    0.40
   4   6   5    1.48    0.30
  -5  -6  -5    0.54    0.21
  -5  -6  -5    1.31    0.33
   5  -6   5    0.65    0.22
  -5   6  -5    0.63    0.24
   5   6   5    0.94    0.26
  -6  -6  -5    1.71    0.34
  -6  -6  -5    1.00    0.30
   6  -6   5    1.04    0.29
   6   6   5    1.55    0.35
  -6   6  -5    1.78    0.40
  -7  -6  -5    1.72    0.40
  -7  -7   5    0.17    0.21
  -7  -7   5    0.06    0.16
   7   7  -5    0.19    0.20
   7   7  -5    0.05    0.18
  -6  -7   5    0.18    0.18
  -6  -7   5    0.26    0.21
   6   7  -5    0.05    0.17
   6   7  -5    0.24    0.19
  -6   7   5    0.24    0.18
  -5  -7   5    0.27    0.18
   5  -7  -5    0.25    0.17
  -5  -7   5    0.27    0.17
   5   7  -5    0.25    0.19
   5   7  -5    0.31    0.17
  -5   7   5    0.38    0.20
  -4  -7   5    1.21    0.27
   4  -7  -5    1.42    0.28
   4   7  -5    1.57    0.33
   4   7  -5    1.28    0.31
  -4   7   5    1.48    0.33
  -3  -7   5    1.46    0.31
   3  -7  -5    0.99    0.24
   3   7  -5    0.40    0.17
   3   7  -5    0.67    0.24
  -3   7   5    0.31    0.17
   2  -7  -5    3.06    0.39
  -2  -7   5    1.97    0.35
  -2   7   5    2.51    0.37
   2   7  -5    2.10    0.38
   2   7  -5    2.42    0.36
   1  -7  -5    2.55    0.37
  -1  -7   5    2.79    0.40
   1  -7  -5    2.54    0.35
   1   7  -5    2.32    0.34
   1   7  -5    2.18    0.37
   1   7  -5    2.25    0.38
  -1   7   5    2.18    0.34
   0  -7  -5    0.12    0.12
   0  -7   5    0.04    0.12
   0  -7   5    0.11    0.12
   0  -7  -5    0.06    0.10
   0   7   5    0.26    0.15
   0   7   5   -0.04    0.10
   0   7  -5    0.03    0.12
   0   7  -5    0.06    0.12
  -1  -7  -5    0.61    0.20
   1  -7   5    0.46    0.16
   1  -7   5    1.05    0.26
  -1  -7  -5    0.68    0.22
  -1   7  -5    0.83    0.23
   1   7   5    0.72    0.22
  -1   7  -5    0.76    0.22
   2  -7   5    0.23    0.14
  -2  -7  -5    0.21    0.16
   2  -7   5    0.31    0.17
  -2  -7  -5    0.67    0.23
  -2   7  -5    0.21    0.17
   2   7   5    0.49    0.21
  -3  -7  -5    6.39    0.65
   3  -7   5    5.94    0.59
  -3  -7  -5    5.34    0.59
   3   7   5    5.91    0.62
  -3   7  -5    5.86    0.63
  -4  -7  -5    0.04    0.15
   4  -7   5    0.01    0.11
  -4  -7  -5    0.03    0.09
   4   7   5   -0.07    0.13
  -4   7  -5   -0.06    0.14
   5  -7   5    0.05    0.15
  -5  -7  -5   -0.02    0.11
  -5  -7  -5    0.18    0.18
  -5   7  -5    0.22    0.16
   5   7   5   -0.10    0.16
  -5  -8   5    0.21    0.19
  -5  -8   5    0.33    0.20
   5   8  -5    0.75    0.30
   5   8  -5    0.34    0.23
  -4  -8   5    0.83    0.29
   4  -8  -5    1.63    0.33
  -4  -8   5    1.56    0.38
  -4   8   5    1.30    0.32
   4   8  -5    1.32    0.33
   4   8  -5    1.07    0.33
   3  -8  -5    0.79    0.25
  -3  -8   5    0.82    0.28
  -3  -8   5    0.34    0.17
   3   8  -5    0.71    0.25
   3   8  -5    0.75    0.25
  -3   8   5    0.74    0.25
  -2  -8   5    0.74    0.24
   2  -8  -5    0.82    0.24
  -2   8   5    0.70    0.24
   2   8  -5    0.39    0.18
   2   8  -5    0.22    0.19
  -1  -8   5    1.07    0.27
   1  -8  -5    1.01    0.25
   1   8  -5    0.70    0.25
   1   8  -5    1.35    0.32
  -1   8   5    0.95    0.28
   0  -8  -5    0.82    0.24
   0  -8   5    0.50    0.22
   0  -8  -5    0.59    0.22
   0   8  -5    0.63    0.25
   0   8  -5    0.88    0.26
  -1  -8  -5    1.65    0.35
   1  -8   5    1.56    0.34
  -1  -8  -5    1.47    0.32
   1   8   5    2.53    0.42
  -1   8  -5    2.29    0.40
  -2  -8  -5    2.00    0.37
  -2  -8  -5    1.24    0.32
   2  -8   5    0.90    0.25
   2  -8   5    0.99    0.30
  -2   8  -5    1.97    0.40
   2   8   5    1.74    0.37
   3  -8   5    0.91    0.28
  -3  -8  -5    0.44    0.22
  -3  -8  -5    0.61    0.25
   3  -8   5    0.65    0.24
   3   8   5    0.89    0.28
  -3   8  -5    0.80    0.28
 -11   0   6    0.40    0.22
  10   0  -6    0.76    0.23
 -10   0   6    1.21    0.31
   9   0  -6    0.23    0.14
  -9   0   6    0.22    0.15
  -8   0   6    5.05    0.51
   8   0  -6    4.74    0.47
  -7   0   6    0.01    0.10
   7   0  -6    0.04    0.07
  -7   0   6    0.05    0.08
   7   0  -6    0.16    0.11
   6   0  -6    0.98    0.20
  -6   0   6    1.16    0.22
   6   0  -6    0.97    0.16
   6   0  -6    1.30    0.20
  -6   0   6    1.23    0.18
  -5   0   6    0.75    0.17
  -5   0   6    0.94    0.16
   5   0  -6    0.99    0.18
   5   0  -6    0.76    0.15
   5   0  -6    1.00    0.15
   4   0  -6   19.67    0.57
  -4   0   6   19.18    0.61
   4   0  -6   19.59    0.64
   4   0  -6   19.72    0.68
  -4   0   6   20.21    0.66
  -3   0   6   27.33    0.76
   3   0  -6   27.04    0.69
  -3   0   6   27.54    0.75
  -3   0   6   27.27    0.69
   3   0  -6   26.17    0.76
   3   0  -6   27.18    0.69
   3   0  -6   27.01    0.78
  -2   0   6   14.89    0.49
   2   0  -6   15.52    0.52
   2   0  -6   15.84    0.47
  -2   0   6   15.83    0.52
   2   0  -6   14.75    0.52
  -2   0   6   15.97    0.48
   1   0  -6   12.65    0.44
  -1   0   6   14.39    0.45
   1   0  -6   14.52    0.48
  -1   0   6   14.04    0.46
   1   0  -6   13.64    0.49
   1   0  -6   14.88    0.45
  -1   0   6   14.60    0.50
   0   0   6    0.69    0.13
   0   0  -6    0.75    0.11
   0   0  -6    0.80    0.13
   0   0  -6    0.70    0.11
   0   0   6    0.79    0.13
   0   0  -6    1.00    0.16
  -1   0  -6    0.01    0.04
   1   0   6    0.04    0.05
  -1   0  -6    0.05    0.06
   1   0   6    0.09    0.07
  -1   0  -6    0.00    0.03
  -2   0  -6    3.89    0.25
   2   0   6    3.65    0.27
   2   0   6    4.89    0.32
  -2   0  -6    3.73    0.27
  -2   0  -6    4.17    0.20
   3   0   6   12.21    0.58
  -3   0  -6   13.59    0.53
  -3   0  -6   12.53    0.52
  -3   0  -6   12.97    0.40
   3   0   6   13.09    0.54
   4   0   6    0.51    0.16
   4   0   6    0.35    0.15
  -4   0  -6    0.66    0.15
  -4   0  -6    0.71    0.16
   5   0   6    0.54    0.18
  -5   0  -6    0.72    0.17
   5   0   6    0.90    0.20
  -5   0  -6    0.90    0.19
   6   0   6    6.25    0.52
   6   0   6    8.07    0.48
  -6   0  -6    8.48    0.46
  -6   0  -6    7.02    0.47
  -7   0  -6    1.53    0.28
   7   0   6    1.61    0.27
  -8   0  -6    1.35    0.30
  -9   0  -6    0.30    0.19
  11   1  -6    0.25    0.20
 -11   1   6    0.14    0.17
 -10  -1   6    0.22    0.19
  10  -1  -6    0.60    0.23
 -10   1   6    0.26    0.17
  10   1  -6    0.19    0.16
  -9  -1   6   -0.04    0.11
   9  -1  -6    0.05    0.14
  -9   1   6    0.08    0.14
   9   1  -6   -0.04    0.10
   8  -1  -6    0.77    0.19
   8  -1  -6    1.03    0.22
  -8  -1   6    0.55    0.21
  -8   1   6    0.76    0.21
  -8   1   6    0.59    0.19
   8   1  -6    0.64    0.19
   7  -1  -6    0.56    0.16
  -7  -1   6    0.60    0.19
   7  -1  -6    0.58    0.16
  -7   1   6    0.59    0.15
   7   1  -6    0.72    0.20
  -7   1   6    0.59    0.16
   7   1  -6    0.75    0.17
  -6  -1   6    2.10    0.21
  -6  -1   6    2.15    0.31
   6  -1  -6    2.17    0.27
   6  -1  -6    2.96    0.34
   6  -1  -6    2.32    0.23
  -6   1   6    2.13    0.28
  -6   1   6    1.95    0.25
   6   1  -6    2.34    0.31
   6   1  -6    2.16    0.27
  -5  -1   6    6.41    0.40
  -5  -1   6    6.41    0.30
   5  -1  -6    6.70    0.32
   5  -1  -6    5.62    0.33
   5  -1  -6    7.22    0.40
   5   1  -6    5.53    0.35
   5   1  -6    6.16    0.26
  -5   1   6    6.36    0.36
  -5   1   6    5.83    0.35
   5   1  -6    5.86    0.38
  -4  -1   6    1.31    0.16
   4  -1  -6    0.95    0.15
   4  -1  -6    1.18    0.17
  -4  -1   6    1.02    0.18
   4  -1  -6    1.12    0.19
   4   1  -6    1.31    0.19
  -4   1   6    1.23    0.18
   4   1  -6    1.32    0.21
  -4   1   6    1.46    0.19
   4   1  -6    1.07    0.11
  -4   1   6    0.99    0.17
   4   1  -6    1.11    0.09
   3  -1  -6   14.99    0.50
  -3  -1   6   13.96    0.53
   3  -1  -6   12.90    0.51
   3  -1  -6   14.07    0.51
  -3  -1   6   14.72    0.48
  -3   1   6   14.40    0.52
   3   1  -6   13.73    0.54
   3   1  -6   13.87    0.53
   3   1  -6   14.40    0.36
  -3   1   6   14.97    0.54
   3   1  -6   14.95    0.36
  -3   1   6   15.17    0.48
  -2  -1   6   27.01    0.59
   2  -1  -6   26.08    0.76
   2  -1  -6   26.00    0.74
  -2  -1   6   26.17    0.75
  -2  -1   6   25.79    0.71
  -2   1   6   26.13    0.76
  -2   1   6   26.93    0.65
  -2   1   6   26.17    0.76
   2   1  -6   26.29    0.74
   2   1  -6   26.67    0.58
   2   1  -6   26.97    0.78
   1  -1  -6   54.82    1.26
   1  -1  -6   54.09    1.23
  -1  -1   6   54.37    1.24
  -1  -1   6   52.34    1.22
  -1  -1   6   54.01    1.12
   1   1  -6   53.86    1.19
   1   1  -6   52.44    1.24
   1   1  -6   55.39    1.27
  -1   1   6   54.46    1.26
  -1   1   6   55.38    1.08
  -1   1   6   52.39    1.26
   1   1  -6   53.42    1.10
   0  -1   6   22.25    0.61
   0  -1  -6   21.66    0.52
   0  -1  -6   21.73    0.62
   0  -1   6   20.92    0.66
   0  -1  -6   21.79    0.68
   0   1  -6   22.09    0.58
   0   1   6   21.44    0.66
   0   1  -6   20.77    0.66
   0   1   6   21.63    0.52
   0   1  -6   20.24    0.65
   0   1   6   20.54    0.67
   1  -1   6   36.64    0.98
  -1  -1  -6   38.93    0.92
  -1  -1  -6   37.08    1.00
   1  -1   6   36.86    0.96
  -1  -1  -6   36.94    0.83
   1   1   6   36.53    1.02
  -1   1  -6   37.01    0.81
  -1   1  -6   36.71    0.97
   1   1   6   37.60    0.98
  -1   1  -6   35.38    0.95
   2  -1   6    0.77    0.15
  -2  -1  -6    0.95    0.13
  -2  -1  -6    0.81    0.12
  -2  -1  -6    0.98    0.17
   2  -1   6    0.77    0.16
   2   1   6    0.43    0.13
  -2   1  -6    0.87    0.16
  -2   1  -6    0.84    0.10
  -2   1  -6    0.74    0.14
   2   1   6    1.01    0.18
   3  -1   6   15.85    0.61
  -3  -1  -6   15.37    0.50
  -3  -1  -6   13.87    0.58
  -3  -1  -6   15.08    0.53
   3  -1   6   13.59    0.61
   3   1   6   13.45    0.63
   3   1   6   15.20    0.58
  -3   1  -6   14.56    0.60
  -3   1  -6   15.47    0.56
   4  -1   6    2.86    0.33
  -4  -1  -6    2.94    0.32
   4  -1   6    2.89    0.36
  -4  -1  -6    3.52    0.26
  -4  -1  -6    2.64    0.20
   4   1   6    3.25    0.32
   4   1   6    2.81    0.36
  -4   1  -6    3.05    0.24
   4   1   6    2.68    0.20
  -4   1  -6    3.12    0.35
   5  -1   6   10.02    0.60
  -5  -1  -6   10.28    0.53
   5  -1   6    9.98    0.53
  -5  -1  -6   11.73    0.54
   5   1   6   11.87    0.65
  -5   1  -6   10.60    0.48
  -5   1  -6   11.59    0.59
   5   1   6   11.28    0.53
  -6  -1  -6    5.61    0.41
  -6  -1  -6    6.30    0.43
   6  -1   6    6.62    0.52
   6  -1   6    6.41    0.44
   6   1   6    6.37    0.71
  -6   1  -6    6.92    0.48
   6   1   6    6.56    0.42
   7  -1   6    0.72    0.20
  -7  -1  -6    1.07    0.24
  -7   1  -6    1.16    0.25
   8  -1   6    1.30    0.29
  -8  -1  -6    1.24    0.27
  -8   1  -6    1.36    0.30
  -9  -1  -6   -0.01    0.16
  -9   1  -6    0.11    0.17
 -10  -2   6    1.34    0.33
  10   2  -6    1.43    0.33
 -10   2   6    1.18    0.30
  -9  -2   6    0.08    0.16
   9  -2  -6    0.32    0.15
   9   2  -6    0.16    0.13
  -9   2   6    0.51    0.21
  -9   2   6    0.22    0.15
  -8  -2   6    0.56    0.19
   8  -2  -6    0.49    0.18
   8  -2  -6    0.79    0.19
  -8   2   6    0.72    0.21
  -8   2   6    0.74    0.20
   8   2  -6    0.60    0.18
   8   2  -6    0.72    0.21
  -7  -2   6    0.26    0.14
   7  -2  -6    0.37    0.14
   7  -2  -6    0.31    0.15
  -7   2   6    0.35    0.15
   7   2  -6    0.16    0.12
  -7   2   6    0.18    0.11
   7   2  -6    0.34    0.14
   6  -2  -6   12.34    0.57
  -6  -2   6   12.36    0.62
   6  -2  -6   12.10    0.58
  -6   2   6   11.35    0.54
   6   2  -6   11.53    0.58
   6   2  -6   13.35    0.64
  -6   2   6   12.06    0.58
  -5  -2   6    1.67    0.26
  -5  -2   6    2.04    0.26
   5  -2  -6    1.91    0.19
   5  -2  -6    1.58    0.23
   5  -2  -6    1.97    0.26
   5   2  -6    2.13    0.28
   5   2  -6    1.80    0.26
  -5   2   6    1.69    0.24
  -5   2   6    2.19    0.25
  -4  -2   6    6.43    0.27
   4  -2  -6    5.67    0.36
   4  -2  -6    5.98    0.29
   4  -2  -6    5.33    0.34
  -4  -2   6    6.22    0.38
   4   2  -6    5.41    0.35
   4   2  -6    5.54    0.36
  -4   2   6    5.57    0.29
  -4   2   6    5.82    0.36
  -4   2   6    5.30    0.35
  -3  -2   6   10.19    0.37
   3  -2  -6    9.92    0.47
   3  -2  -6   10.22    0.41
  -3  -2   6    9.49    0.46
   3  -2  -6   10.52    0.46
  -3   2   6   10.02    0.46
   3   2  -6   10.02    0.46
  -3   2   6    9.63    0.35
  -3   2   6   10.52    0.49
   3   2  -6    9.83    0.47
  -2  -2   6    5.36    0.32
   2  -2  -6    5.03    0.29
   2  -2  -6    5.05    0.31
  -2  -2   6    5.74    0.29
   2   2  -6    4.73    0.32
  -2   2   6    5.30    0.33
   2   2  -6    5.49    0.31
  -2   2   6    4.66    0.30
   2   2  -6    6.25    0.35
  -2   2   6    5.71    0.20
  -1  -2   6   39.29    0.97
   1  -2  -6   38.22    1.00
  -1  -2   6   39.01    0.81
   1  -2  -6   37.94    1.01
  -1  -2   6   39.24    1.05
   1   2  -6   38.33    0.95
  -1   2   6   38.27    0.71
   1   2  -6   38.65    1.05
   1   2  -6   40.22    1.06
  -1   2   6   37.64    1.07
   1   2  -6   38.86    0.80
  -1   2   6   40.36    1.03
   0  -2   6    4.51    0.24
   0  -2  -6    4.69    0.28
   0  -2   6    4.29    0.27
   0  -2  -6    4.19    0.28
   0   2  -6    4.80    0.30
   0   2  -6    4.01    0.29
   0   2   6    3.98    0.26
   0   2  -6    4.34    0.22
   0   2   6    4.33    0.31
   0   2  -6    4.54    0.22
  -1  -2  -6    1.42    0.09
  -1  -2  -6    1.37    0.18
   1  -2   6    1.51    0.21
  -1  -2  -6    1.10    0.18
   1  -2   6    1.48    0.19
  -1   2  -6    1.40    0.11
  -1   2  -6    1.25    0.20
   1   2   6    1.49    0.20
   1   2   6    1.38    0.22
  -1   2  -6    1.42    0.20
  -2  -2  -6    1.92    0.22
  -2  -2  -6    2.26    0.15
   2  -2   6    2.03    0.25
   2  -2   6    2.23    0.26
  -2  -2  -6    1.72    0.24
   2   2   6    1.29    0.22
  -2   2  -6    1.79    0.25
   2   2   6    2.07    0.23
  -2   2  -6    1.80    0.22
   2   2   6    2.05    0.24
   3  -2   6    1.93    0.27
  -3  -2  -6    2.11    0.24
   3  -2   6    2.16    0.27
  -3  -2  -6    2.10    0.28
  -3  -2  -6    2.34    0.18
   3   2   6    1.95    0.29
  -3   2  -6    2.28    0.29
   3   2   6    2.74    0.28
  -3   2  -6    2.58    0.26
   3   2   6    2.10    0.24
  -4  -2  -6   12.63    0.50
  -4  -2  -6   12.46    0.52
  -4  -2  -6   12.04    0.58
   4  -2   6   13.02    0.64
   4  -2   6   12.61    0.59
  -4   2  -6   11.99    0.49
   4   2   6   12.94    0.67
  -4   2  -6   12.67    0.62
   4   2   6   13.14    0.53
   4   2   6   11.70    0.52
  -5  -2  -6    0.36    0.11
  -5  -2  -6    0.56    0.14
  -5  -2  -6    0.55    0.17
   5  -2   6    0.61    0.17
   5  -2   6    0.63    0.20
   5   2   6    0.61    0.15
   5   2   6    0.90    0.18
  -5   2  -6    0.54    0.18
   5   2   6    0.72    0.21
  -6  -2  -6    4.78    0.39
   6  -2   6    5.77    0.43
  -6  -2  -6    4.94    0.37
  -6   2  -6    5.13    0.54
  -7  -2  -6    0.61    0.19
   7  -2   6    0.39    0.16
  -7  -2  -6    0.47    0.17
  -7   2  -6    0.48    0.20
   8  -2   6    0.04    0.13
  -8   2  -6   -0.03    0.15
   9  -2   6    0.11    0.17
  -9   2  -6    0.30    0.21
 -10  -3   6    0.84    0.30
  10   3  -6    0.78    0.27
 -10   3   6    0.97    0.27
  -9  -3   6    0.42    0.19
   9   3  -6    0.29    0.17
  -9   3   6    0.18    0.16
  -9   3   6    0.55    0.20
  -8  -3   6    5.56    0.58
   8  -3  -6    6.29    0.44
   8   3  -6    5.22    0.57
  -8   3   6    6.32    0.46
  -8   3   6    5.30    0.51
   8   3  -6    5.26    0.54
   7  -3  -6    0.05    0.10
  -7  -3   6    0.11    0.13
   7  -3  -6    0.17    0.13
   7   3  -6    0.26    0.13
  -7   3   6    0.24    0.14
  -7   3   6    0.12    0.10
   7   3  -6    0.09    0.10
  -6  -3   6    0.60    0.20
   6  -3  -6    0.78    0.21
   6  -3  -6    0.63    0.16
  -6   3   6    0.72    0.21
  -6   3   6    1.35    0.22
   6   3  -6    1.02    0.22
   6   3  -6    1.10    0.24
  -5  -3   6   12.10    0.62
   5  -3  -6   11.50    0.60
   5  -3  -6   12.45    0.57
   5   3  -6   13.20    0.65
  -5   3   6   12.61    0.61
  -5   3   6   12.22    0.50
  -5   3   6   14.03    0.66
   5   3  -6   13.33    0.63
  -4  -3   6    4.70    0.35
   4  -3  -6    4.29    0.25
   4  -3  -6    4.67    0.36
   4  -3  -6    4.95    0.34
   4   3  -6    4.14    0.34
  -4   3   6    5.04    0.27
  -4   3   6    4.56    0.36
   4   3  -6    4.13    0.33
  -4   3   6    4.50    0.34
   3  -3  -6   12.25    0.47
  -3  -3   6   11.94    0.56
  -3  -3   6   12.84    0.43
   3  -3  -6   12.29    0.59
   3  -3  -6   13.19    0.56
   3   3  -6   12.77    0.59
  -3   3   6   12.03    0.55
  -3   3   6   12.18    0.38
   3   3  -6   11.82    0.53
  -3   3   6   12.04    0.59
   2  -3  -6   15.82    0.57
  -2  -3   6   15.04    0.62
  -2  -3   6   15.62    0.52
   2  -3  -6   14.99    0.59
   2   3  -6   15.17    0.63
  -2   3   6   15.73    0.67
  -2   3   6   16.09    0.62
   2   3  -6   15.87    0.59
   2   3  -6   15.21    0.64
  -1  -3   6   11.71    0.34
  -1  -3   6   12.79    0.56
   1  -3  -6   11.38    0.49
  -1  -3   6   12.43    0.35
  -1  -3   6   11.05    0.45
   1  -3  -6   11.59    0.50
  -1   3   6   11.89    0.57
  -1   3   6   11.31    0.50
   1   3  -6   11.22    0.52
   1   3  -6   11.29    0.34
   1   3  -6   12.06    0.55
   1   3  -6   12.36    0.47
   0  -3  -6   13.22    0.55
   0  -3   6   12.70    0.57
   0  -3  -6   12.81    0.53
   0  -3   6   13.00    0.51
   0  -3   6   13.07    0.44
   0   3  -6   11.92    0.56
   0   3   6   12.85    0.60
   0   3  -6   12.99    0.45
   0   3  -6   13.11    0.55
   0   3   6   12.47    0.52
  -1  -3  -6    3.50    0.29
   1  -3   6    3.00    0.23
  -1  -3  -6    2.64    0.28
   1  -3   6    3.75    0.28
  -1   3  -6    3.19    0.32
   1   3   6    2.97    0.30
  -1   3  -6    3.30    0.34
   1   3   6    3.50    0.38
  -1   3  -6    3.58    0.19
  -2  -3  -6    4.76    0.33
   2  -3   6    4.76    0.33
   2  -3   6    5.20    0.34
  -2  -3  -6    4.41    0.34
  -2   3  -6    5.66    0.34
  -2   3  -6    4.81    0.36
   2   3   6    5.36    0.39
   2   3   6    5.97    0.34
   2   3   6    5.21    0.34
   3  -3   6   12.85    0.60
   3  -3   6   13.46    0.61
  -3  -3  -6   13.27    0.61
  -3  -3  -6   12.83    0.56
   3   3   6   11.71    0.55
   3   3   6   12.93    0.66
   3   3   6   12.01    0.51
  -3   3  -6   12.81    0.63
  -3   3  -6   13.35    0.53
  -4  -3  -6    0.05    0.07
   4  -3   6    0.19    0.12
   4  -3   6    0.18    0.12
  -4  -3  -6    0.06    0.08
   4   3   6    0.12    0.09
  -4   3  -6    0.27    0.11
   4   3   6    0.21    0.11
   4   3   6    0.33    0.14
  -4   3  -6    0.14    0.10
   5  -3   6    1.07    0.23
   5  -3   6    0.89    0.23
  -5  -3  -6    0.94    0.23
  -5  -3  -6    0.48    0.15
   5   3   6    0.84    0.20
   5   3   6    0.61    0.19
  -5   3  -6    0.51    0.18
   6  -3   6   10.97    0.64
  -6  -3  -6   10.65    0.63
  -6  -3  -6   11.41    0.66
   6   3   6   11.73    0.60
  -6   3  -6   12.67    0.73
   7  -3   6    4.78    0.53
  -7  -3  -6    3.72    0.45
  -7   3  -6    3.98    0.52
   8  -3   6    0.19    0.16
  -8   3  -6    0.04    0.11
  -9  -4   6    0.25    0.16
  -9  -4   6    0.28    0.18
   9   4  -6    0.36    0.19
   9   4  -6    0.37    0.21
  -9   4   6    0.15    0.29
  -9   4   6    0.14    0.18
  -8  -4   6    3.23    0.48
   8  -4  -6    3.72    0.42
   8   4  -6    4.45    0.55
  -8   4   6    3.84    0.48
  -8   4   6    3.20    0.46
   8   4  -6    3.09    0.44
  -7  -4   6    0.92    0.25
   7  -4  -6    0.90    0.22
   7   4  -6    0.98    0.25
  -7   4   6    1.17    0.27
   7   4  -6    0.60    0.21
  -7   4   6    1.21    0.29
  -6  -4   6    0.22    0.15
   6  -4  -6    0.11    0.12
   6  -4  -6    0.24    0.12
   6   4  -6    0.02    0.10
   6   4  -6    0.38    0.16
  -6   4   6    0.00    0.12
  -5  -4   6    1.12    0.24
   5  -4  -6    1.10    0.25
   5  -4  -6    1.33    0.24
  -5   4   6    1.67    0.29
   5   4  -6    1.62    0.28
  -5   4   6    0.84    0.21
   5   4  -6    1.22    0.25
  -4  -4   6    9.41    0.54
   4  -4  -6    8.52    0.45
   4  -4  -6    9.13    0.49
   4  -4  -6    8.92    0.54
  -4   4   6    8.74    0.55
   4   4  -6    8.78    0.51
   4   4  -6    8.59    0.54
  -4   4   6    8.74    0.51
   3  -4  -6   35.57    0.99
  -3  -4   6   37.39    1.17
   3  -4  -6   35.81    1.19
  -3  -4   6   36.08    0.90
   3  -4  -6   37.38    1.10
   3   4  -6   33.90    1.08
  -3   4   6   37.09    1.14
  -3   4   6   38.91    1.24
   3   4  -6   36.74    1.18
  -2  -4   6    1.72    0.27
  -2  -4   6    1.49    0.19
   2  -4  -6    1.40    0.23
   2  -4  -6    1.93    0.24
  -2   4   6    1.78    0.28
   2   4  -6    1.31    0.21
   2   4  -6    1.62    0.27
  -2   4   6    1.48    0.24
   2   4  -6    2.02    0.29
   1  -4  -6    5.52    0.36
  -1  -4   6    6.46    0.43
  -1  -4   6    5.97    0.33
   1  -4  -6    5.76    0.37
   1   4  -6    6.10    0.35
   1   4  -6    5.34    0.38
   1   4  -6    5.61    0.40
  -1   4   6    5.23    0.36
  -1   4   6    5.63    0.42
   0  -4  -6    5.95    0.38
   0  -4   6    5.15    0.28
   0  -4  -6    5.23    0.36
   0  -4   6    4.04    0.41
   0  -4   6    5.22    0.33
   0   4  -6    5.16    0.29
   0   4  -6    5.38    0.39
   0   4  -6    4.75    0.35
   0   4   6    5.26    0.35
   0   4   6    5.07    0.40
   1  -4   6    4.69    0.33
  -1  -4  -6    5.08    0.37
   1  -4   6    4.61    0.31
  -1  -4  -6    5.31    0.37
  -1   4  -6    4.74    0.38
   1   4   6    4.57    0.32
   1   4   6    4.77    0.35
   1   4   6    5.08    0.40
  -1   4  -6    4.98    0.35
   2  -4   6    1.48    0.25
   2  -4   6    1.40    0.23
  -2  -4  -6    1.06    0.20
  -2  -4  -6    1.00    0.21
   2   4   6    1.60    0.24
   2   4   6    1.85    0.27
  -2   4  -6    1.52    0.24
  -2   4  -6    1.17    0.25
   2   4   6    1.22    0.26
   3  -4   6    0.16    0.11
  -3  -4  -6    0.34    0.13
   3  -4   6    0.25    0.12
  -3  -4  -6    0.49    0.16
  -3   4  -6    0.18    0.10
   3   4   6    0.40    0.16
   3   4   6    0.33    0.11
  -3   4  -6    0.25    0.15
   3   4   6    0.27    0.12
   4  -4   6    2.13    0.33
   4  -4   6    2.17    0.34
  -4  -4  -6    2.20    0.32
  -4  -4  -6    2.05    0.32
   4   4   6    1.94    0.33
   4   4   6    2.45    0.34
  -4   4  -6    2.56    0.38
  -5  -4  -6    1.37    0.25
   5  -4   6    1.80    0.31
  -5  -4  -6    1.95    0.32
   5  -4   6    1.39    0.36
   5   4   6    1.37    0.26
  -5   4  -6    2.03    0.35
   6  -4   6    0.26    0.16
  -6  -4  -6    0.20    0.13
  -6  -4  -6    0.12    0.11
  -6   4  -6    0.27    0.15
   6   4   6    0.34    0.17
   7  -4   6   -0.04    0.13
  -7  -4  -6    0.21    0.16
  -7   4  -6    0.05    0.14
  -8  -4  -6    0.36    0.21
  -8   4  -6    0.39    0.23
  -9  -5   6    0.89    0.31
  -9  -5   6    0.36    0.24
  -9   5   6    0.50    0.23
   9   5  -6    0.77    0.28
   9   5  -6    0.56    0.25
  -8  -5   6    0.40    0.22
  -8  -5   6    0.77    0.27
  -8   5   6    0.92    0.26
   8   5  -6    1.01    0.29
   8   5  -6    0.84    0.27
   7  -5  -6    0.11    0.14
  -7  -5   6   -0.10    0.11
   7   5  -6    0.02    0.09
  -7   5   6    0.13    0.15
   7   5  -6    0.00    0.14
   6  -5  -6    0.74    0.20
  -6  -5   6    0.81    0.22
   6   5  -6    0.46    0.19
   6   5  -6    0.62    0.22
  -6   5   6    0.46    0.20
  -5  -5   6    1.69    0.31
   5  -5  -6    2.13    0.31
   5   5  -6    1.67    0.32
  -5   5   6    2.05    0.34
   5   5  -6    1.81    0.31
   4  -5  -6    0.35    0.13
   4  -5  -6    0.51    0.18
  -4  -5   6    0.33    0.13
  -4   5   6    0.40    0.16
  -4   5   6    0.56    0.18
   4   5  -6    0.31    0.15
   4   5  -6    0.23    0.14
   3  -5  -6    8.18    0.48
  -3  -5   6    7.49    0.50
   3  -5  -6    7.71    0.55
   3  -5  -6    8.97    0.45
  -3   5   6    9.63    0.61
   3   5  -6    8.38    0.51
  -3   5   6    8.23    0.52
   3   5  -6    8.36    0.55
  -2  -5   6    4.77    0.48
  -2  -5   6    5.04    0.30
   2  -5  -6    5.86    0.46
   2  -5  -6    4.61    0.37
   2  -5  -6    4.68    0.34
  -2   5   6    6.06    0.47
  -2   5   6    5.31    0.39
   2   5  -6    5.38    0.38
   2   5  -6    4.47    0.48
   2   5  -6    5.22    0.42
   1  -5  -6   21.30    0.82
   1  -5  -6   19.36    0.76
  -1  -5   6   20.38    0.70
  -1  -5   6   18.56    0.82
  -1   5   6   20.59    0.91
   1   5  -6   19.84    0.85
   1   5  -6   19.96    0.84
   1   5  -6   20.73    0.75
  -1   5   6   20.07    0.79
   0  -5   6    4.23    0.32
   0  -5  -6    4.39    0.35
   0  -5   6    3.82    0.43
   0  -5  -6    4.63    0.37
   0   5   6    3.95    0.40
   0   5   6    4.10    0.47
   0   5  -6    4.65    0.31
   0   5  -6    4.92    0.38
   0   5  -6    3.58    0.41
   1  -5   6   30.94    1.00
  -1  -5  -6   31.20    1.06
  -1  -5  -6   29.93    1.06
  -1   5  -6   32.19    1.04
  -1   5  -6   27.48    1.08
   1   5   6   30.52    1.06
   1   5   6   31.10    1.16
   1   5   6   33.38    1.02
  -2  -5  -6    7.94    0.50
  -2  -5  -6    6.72    0.48
   2  -5   6    6.79    0.44
   2  -5   6    7.24    0.46
   2   5   6    7.59    0.43
   2   5   6    7.72    0.54
   2   5   6    7.40    0.49
  -2   5  -6    6.36    0.48
   3  -5   6    0.92    0.22
  -3  -5  -6    0.66    0.19
   3  -5   6    1.19    0.25
  -3  -5  -6    1.51    0.29
   3   5   6    1.23    0.26
   3   5   6    0.90    0.24
  -3   5  -6    1.24    0.26
   4  -5   6    1.76    0.31
  -4  -5  -6    2.28    0.38
   4  -5   6    2.31    0.36
  -4  -5  -6    2.12    0.33
  -4   5  -6    1.64    0.34
   4   5   6    2.15    0.34
  -5  -5  -6    2.42    0.39
  -5  -5  -6    2.44    0.37
   5  -5   6    1.99    0.34
   5   5   6    1.96    0.34
  -5   5  -6    2.60    0.41
  -6  -5  -6    2.61    0.40
  -6  -5  -6    2.69    0.44
   6  -5   6    3.21    0.45
  -6   5  -6    2.71    0.43
   6   5   6    2.32    0.37
  -7  -5  -6    1.04    0.30
   7  -5   6    0.94    0.28
  -7  -5  -6    1.11    0.28
  -7   5  -6    1.96    0.42
   7   5   6    0.99    0.28
  -8  -6   6    0.14    0.20
  -8  -6   6    0.01    0.18
   8   6  -6    0.07    0.17
   8   6  -6    0.19    0.20
  -7  -6   6   -0.06    0.13
   7   6  -6    0.02    0.11
   7   6  -6    0.04    0.13
  -7   6   6    0.11    0.17
  -6  -6   6    1.96    0.35
   6  -6  -6    2.83    0.38
  -6   6   6    3.13    0.45
   6   6  -6    3.52    0.49
   6   6  -6    3.20    0.48
   5  -6  -6    2.19    0.34
  -5  -6   6    1.37    0.30
  -5   6   6    1.83    0.34
   5   6  -6    1.41    0.30
   5   6  -6    1.90    0.38
   4  -6  -6    1.37    0.26
  -4  -6   6    0.87    0.23
  -4   6   6    0.69    0.23
   4   6  -6    1.22    0.29
   4   6  -6    1.24    0.27
  -3  -6   6    3.31    0.43
   3  -6  -6    3.94    0.43
   3   6  -6    4.09    0.52
   3   6  -6    3.64    0.43
  -3   6   6    3.23    0.42
   2  -6  -6    1.77    0.27
  -2  -6   6    1.51    0.30
   2  -6  -6    1.93    0.31
  -2   6   6    1.45    0.28
   2   6  -6    1.79    0.32
   2   6  -6    1.81    0.30
   2   6  -6    1.72    0.32
   1  -6  -6    9.99    0.55
   1  -6  -6    8.48    0.54
  -1  -6   6    8.71    0.58
  -1  -6   6    8.86    0.47
   1   6  -6    8.37    0.49
   1   6  -6    9.23    0.59
  -1   6   6    8.87    0.54
   1   6  -6    9.25    0.60
   0  -6   6    1.79    0.33
   0  -6   6    2.63    0.33
   0  -6  -6    2.29    0.34
   0  -6  -6    2.01    0.32
   0   6  -6    2.09    0.34
   0   6  -6    2.90    0.40
   0   6   6    2.40    0.33
  -1  -6  -6    1.76    0.30
  -1  -6  -6    2.30    0.35
   1  -6   6    2.01    0.30
   1  -6   6    2.14    0.35
  -1   6  -6    2.35    0.38
   1   6   6    1.91    0.28
  -1   6  -6    2.42    0.34
   1   6   6    2.00    0.32
  -2  -6  -6    0.86    0.23
  -2  -6  -6    0.82    0.22
   2  -6   6    1.00    0.23
   2   6   6    0.29    0.16
  -2   6  -6    0.61    0.22
   3  -6   6   -0.05    0.09
  -3  -6  -6   -0.02    0.09
  -3  -6  -6    0.05    0.13
   3   6   6   -0.16    0.09
  -3   6  -6    0.04    0.14
   4  -6   6    0.57    0.19
  -4  -6  -6    0.75    0.24
  -4  -6  -6    0.47    0.22
  -4   6  -6    0.87    0.27
   4   6   6    0.78    0.24
  -5  -6  -6    0.87    0.27
   5  -6   6    0.48    0.20
  -5  -6  -6    0.65    0.22
   5   6   6    0.80    0.25
  -5   6  -6    0.94    0.28
  -6  -6  -6    0.56    0.21
  -6  -6  -6    0.38    0.22
   6   6   6    0.42    0.21
  -6   6  -6    0.61    0.25
  -6  -7   6    0.56    0.25
  -6  -7   6    0.66    0.28
  -6   7   6    0.81    0.28
   6   7  -6    0.71    0.25
   6   7  -6    1.00    0.31
  -5  -7   6    1.00    0.28
   5  -7  -6    1.20    0.28
  -5   7   6    2.08    0.39
   5   7  -6    1.14    0.33
   5   7  -6    1.19    0.29
  -4  -7   6    2.40    0.40
   4  -7  -6    3.55    0.45
  -4   7   6    1.97    0.35
   4   7  -6    2.97    0.44
   4   7  -6    2.47    0.44
  -3  -7   6    0.96    0.25
   3  -7  -6    0.47    0.18
   3   7  -6    0.54    0.22
   3   7  -6    0.71    0.22
  -3   7   6    0.49    0.20
  -2  -7   6    4.39    0.53
   2  -7  -6    5.47    0.55
   2   7  -6    4.60    0.57
   2   7  -6    4.48    0.48
  -2   7   6    5.21    0.56
  -1  -7   6    0.38    0.18
   1  -7  -6    0.29    0.13
   1  -7  -6    0.66    0.20
   1   7  -6    0.31    0.17
   1   7  -6    0.34    0.19
  -1   7   6    0.21    0.15
   0  -7  -6    0.56    0.19
   0  -7   6    0.59    0.21
   0  -7  -6    0.76    0.22
   0   7  -6    0.52    0.20
   0   7   6    0.35    0.17
   0   7  -6    0.75    0.24
   1  -7   6    0.51    0.18
  -1  -7  -6    0.27    0.16
  -1  -7  -6    0.59    0.21
   1  -7   6    0.34    0.17
  -1   7  -6    0.66    0.21
   1   7   6    0.37    0.20
  -1   7  -6    0.26    0.19
  -2  -7  -6    0.25    0.17
   2  -7   6    0.25    0.16
  -2  -7  -6    0.53    0.19
   2  -7   6    0.23    0.16
   2   7   6    0.30    0.16
  -2   7  -6    0.15    0.18
  -3  -7  -6    1.97    0.38
   3  -7   6    1.30    0.29
  -3  -7  -6    1.97    0.38
  -3   7  -6    2.86    0.46
   3   7   6    2.59    0.42
  -4  -7  -6    0.28    0.19
   4  -7   6   -0.01    0.14
  -4  -7  -6    0.03    0.15
   4   7   6   -0.06    0.13
  -4   7  -6   -0.17    0.13
  -5  -7  -6    0.46    0.23
   5   7   6    0.73    0.26
  -5   7  -6    0.61    0.26
   4  -8  -6    1.34    0.31
  -4  -8   6    0.52    0.23
   4   8  -6    0.69    0.28
  -4   8   6    1.25    0.34
   4   8  -6    0.51    0.24
  -3  -8   6    0.05    0.16
   3  -8  -6   -0.03    0.13
   3   8  -6    0.02    0.15
  -3   8   6   -0.01    0.14
   3   8  -6   -0.04    0.12
   2  -8  -6    1.61    0.34
  -2  -8   6    1.44    0.34
   2   8  -6    1.81    0.40
  -2   8   6    1.90    0.38
  -1  -8   6    0.99    0.28
   1  -8  -6    2.05    0.56
   1  -8  -6    1.63    0.33
   1   8  -6    0.80    0.29
  -1   8   6    2.02    0.35
   1   8  -6    1.75    0.38
   0  -8  -6    0.12    0.14
   0  -8   6    0.32    0.20
   0  -8  -6   -0.09    0.09
   0   8  -6    0.13    0.17
   0   8  -6   -0.17    0.14
  -1  -8  -6    0.41    0.20
   1  -8   6    0.15    0.18
  -1  -8  -6    0.58    0.23
  -1   8  -6    0.69    0.24
   2  -8   6   -0.07    0.12
  -2  -8  -6    0.18    0.17
   2  -8   6    0.12    0.15
  -2  -8  -6    0.11    0.17
   2   8   6    0.18    0.18
  -2   8  -6    0.09    0.18
   3  -8   6    0.54    0.23
   3  -8   6    0.23    0.22
  -3  -8  -6    0.36    0.27
  -3   8  -6    0.48    0.24
  10   0  -7    0.26    0.19
 -10   0   7    0.16    0.16
  -9   0   7    0.17    0.15
   9   0  -7    0.15    0.12
   8   0  -7    0.06    0.10
  -8   0   7    0.11    0.12
  -7   0   7    0.10    0.10
  -7   0   7    0.12    0.10
   7   0  -7    0.00    0.10
  -6   0   7    0.14    0.11
  -6   0   7    0.04    0.08
   6   0  -7    0.13    0.08
   6   0  -7   -0.03    0.06
   6   0  -7    0.08    0.07
   5   0  -7    4.49    0.26
   5   0  -7    5.01    0.35
  -5   0   7    4.71    0.30
  -5   0   7    3.71    0.30
   5   0  -7    4.45    0.30
  -4   0   7    5.60    0.33
  -4   0   7    6.02    0.33
   4   0  -7    5.70    0.35
   4   0  -7    4.22    0.25
   4   0  -7    5.88    0.28
  -4   0   7    6.27    0.30
   4   0  -7    4.93    0.31
  -3   0   7    9.04    0.41
   3   0  -7    9.28    0.36
  -3   0   7    8.72    0.36
  -3   0   7    8.65    0.39
   3   0  -7    8.71    0.42
   3   0  -7    8.96    0.41
  -2   0   7    5.46    0.28
   2   0  -7    5.62    0.31
  -2   0   7    5.34    0.27
   2   0  -7    5.30    0.31
  -2   0   7    5.04    0.30
  -1   0   7    3.64    0.22
  -1   0   7    3.96    0.24
   1   0  -7    3.83    0.27
   1   0  -7    4.09    0.24
   1   0  -7    3.55    0.22
   1   0  -7    4.37    0.26
  -1   0   7    4.12    0.27
   0   0  -7    5.95    0.33
   0   0   7    5.07    0.30
   0   0  -7    6.01    0.29
   0   0   7    5.51    0.32
   0   0   7    5.09    0.27
   0   0  -7    5.24    0.27
   1   0   7    0.26    0.10
   1   0   7    0.19    0.10
  -1   0  -7    0.14    0.08
  -1   0  -7    0.17    0.06
  -1   0  -7    0.22    0.08
  -2   0  -7    3.25    0.26
  -2   0  -7    2.80    0.18
   2   0   7    3.01    0.31
  -2   0  -7    2.83    0.22
   2   0   7    3.10    0.33
   3   0   7    1.76    0.25
  -3   0  -7    1.61    0.22
  -3   0  -7    1.63    0.24
   3   0   7    1.34    0.24
  -3   0  -7    1.56    0.16
   4   0   7   47.66    1.42
   4   0   7   45.07    1.28
  -4   0  -7   44.05    1.26
  -4   0  -7   46.53    1.27
   5   0   7   10.68    0.64
  -5   0  -7   10.09    0.55
  -5   0  -7   10.32    0.53
   5   0   7   11.75    0.59
  -6   0  -7    2.49    0.35
   6   0   7    2.77    0.36
  -6   0  -7    2.45    0.32
   7   0   7    0.70    0.21
  -7   0  -7    0.62    0.20
  -8   0  -7    1.44    0.30
  10  -1  -7    1.13    0.27
 -10  -1   7    1.16    0.32
  10   1  -7    0.68    0.24
 -10   1   7    1.46    0.32
   9  -1  -7    0.12    0.13
  -9  -1   7   -0.02    0.12
  -9   1   7    0.16    0.16
   9   1  -7    0.12    0.12
  -8  -1   7    0.51    0.20
   8  -1  -7    1.11    0.23
   8   1  -7    0.90    0.23
  -8   1   7    0.66    0.18
  -8   1   7    0.62    0.20
  -7  -1   7    0.46    0.18
   7  -1  -7   -0.03    0.08
   7  -1  -7    0.00    0.07
   7   1  -7    0.03    0.10
  -7   1   7    0.00    0.10
  -7   1   7    0.02    0.10
   7   1  -7    0.16    0.11
   6  -1  -7    4.23    0.34
   6  -1  -7    3.73    0.30
  -6  -1   7    4.19    0.27
   6  -1  -7    3.66    0.27
  -6  -1   7    3.73    0.40
  -6   1   7    4.27    0.39
   6   1  -7    4.90    0.38
  -6   1   7    4.03    0.32
   6   1  -7    4.05    0.32
   5  -1  -7    0.34    0.11
   5  -1  -7    0.49    0.14
  -5  -1   7    0.54    0.12
  -5  -1   7    0.56    0.15
   5  -1  -7    0.62    0.13
   5   1  -7    0.43    0.14
  -5   1   7    0.30    0.11
   5   1  -7    0.24    0.11
  -5   1   7    0.41    0.12
   4  -1  -7    1.48    0.20
   4  -1  -7    0.91    0.16
  -4  -1   7    1.24    0.20
   4  -1  -7    1.19    0.20
  -4  -1   7    0.85    0.14
  -4   1   7    1.25    0.18
   4   1  -7    1.09    0.19
   4   1  -7    0.98    0.10
   4   1  -7    0.83    0.17
  -4   1   7    0.99    0.18
  -4   1   7    1.14    0.18
   3  -1  -7   47.07    1.16
  -3  -1   7   48.08    0.96
   3  -1  -7   49.26    1.23
   3  -1  -7   48.18    1.19
  -3  -1   7   47.59    1.21
  -3  -1   7   46.66    1.13
  -3   1   7   46.05    1.20
  -3   1   7   47.52    1.19
   3   1  -7   48.69    0.96
   3   1  -7   47.51    1.20
   3   1  -7   46.81    1.23
  -3   1   7   46.66    1.09
   3   1  -7   47.20    0.96
   2  -1  -7    2.05    0.23
  -2  -1   7    1.91    0.13
  -2  -1   7    1.92    0.22
   2  -1  -7    2.28    0.24
  -2  -1   7    1.94    0.22
   2   1  -7    1.82    0.13
  -2   1   7    1.81    0.21
   2   1  -7    1.97    0.22
  -2   1   7    1.79    0.14
   2   1  -7    1.82    0.24
  -2   1   7    1.77    0.23
  -1  -1   7    1.18    0.17
  -1  -1   7    0.89    0.12
   1  -1  -7    1.05    0.17
   1  -1  -7    1.10    0.17
  -1  -1   7    1.03    0.17
   1   1  -7    1.06    0.17
  -1   1   7    1.16    0.12
   1   1  -7    0.99    0.15
  -1   1   7    1.00    0.17
   1   1  -7    1.00    0.13
   1   1  -7    1.09    0.17
  -1   1   7    0.98    0.16
   0  -1   7    9.86    0.43
   0  -1  -7   10.04    0.41
   0  -1  -7    9.37    0.44
   0  -1   7    8.67    0.42
   0  -1  -7    9.20    0.32
   0  -1   7    9.10    0.38
   0   1  -7    9.36    0.42
   0   1  -7    8.82    0.37
   0   1   7    9.98    0.44
   0   1   7    9.38    0.44
   0   1   7    9.04    0.31
   0   1  -7    9.15    0.36
   0   1  -7    9.04    0.43
  -1  -1  -7   20.02    0.56
  -1  -1  -7   21.08    0.63
   1  -1   7   19.64    0.67
  -1  -1  -7   20.94    0.73
   1  -1   7   21.51    0.72
   1   1   7   20.03    0.70
  -1   1  -7   19.98    0.68
  -1   1  -7   19.49    0.67
  -1   1  -7   20.69    0.56
   1   1   7   20.38    0.73
  -2  -1  -7    1.39    0.17
   2  -1   7    1.19    0.21
   2  -1   7    0.98    0.19
  -2  -1  -7    1.06    0.15
  -2  -1  -7    1.08    0.20
  -2   1  -7    0.93    0.18
  -2   1  -7    1.04    0.12
   2   1   7    0.98    0.19
   2   1   7    1.44    0.22
  -2   1  -7    0.93    0.17
  -3  -1  -7    7.12    0.43
   3  -1   7    6.81    0.42
   3  -1   7    8.17    0.48
  -3  -1  -7    6.75    0.33
  -3  -1  -7    7.24    0.37
  -3   1  -7    6.39    0.40
   3   1   7    7.55    0.43
   3   1   7    7.16    0.46
  -3   1  -7    7.71    0.40
  -4  -1  -7    7.58    0.46
   4  -1   7    6.63    0.47
  -4  -1  -7    6.91    0.39
   4  -1   7    7.39    0.45
  -4   1  -7    7.00    0.40
  -4   1  -7    6.86    0.44
   4   1   7    7.03    0.49
   4   1   7    6.72    0.42
   5  -1   7    0.98    0.25
   5  -1   7    1.20    0.25
  -5  -1  -7    0.95    0.21
  -5  -1  -7    1.07    0.21
   5   1   7    1.07    0.21
  -5   1  -7    1.06    0.24
  -5   1  -7    0.82    0.18
   5   1   7    0.84    0.23
   6  -1   7    4.01    0.45
  -6  -1  -7    3.12    0.37
  -6  -1  -7    3.56    0.41
   6   1   7    3.39    0.39
  -6   1  -7    3.28    0.42
  -7  -1  -7    1.10    0.24
   7  -1   7    1.12    0.26
  -7   1  -7    1.54    0.31
   8  -1   7    0.08    0.17
  -8  -1  -7    0.08    0.12
  -8   1  -7    0.11    0.16
 -10  -2   7    0.18    0.16
 -10   2   7    0.34    0.17
  10   2  -7    0.28    0.19
   9  -2  -7    0.21    0.14
  -9  -2   7    0.55    0.23
  -9   2   7    0.59    0.21
  -9   2   7    0.10    0.15
   9   2  -7    0.21    0.14
   8  -2  -7    1.86    0.30
   8  -2  -7    1.61    0.29
  -8  -2   7    1.61    0.31
   8   2  -7    1.28    0.26
   8   2  -7    1.64    0.32
  -8   2   7    1.56    0.29
  -8   2   7    1.22    0.26
   7  -2  -7    4.05    0.42
   7  -2  -7    3.70    0.40
  -7  -2   7    4.39    0.48
  -7   2   7    4.49    0.44
   7   2  -7    4.16    0.44
  -7   2   7    4.39    0.44
   7   2  -7    3.97    0.46
   6  -2  -7    1.37    0.24
  -6  -2   7    1.04    0.23
   6  -2  -7    1.08    0.21
  -6   2   7    1.42    0.25
   6   2  -7    1.02    0.22
   6   2  -7    1.42    0.25
  -6   2   7    1.29    0.22
   5  -2  -7    5.11    0.36
   5  -2  -7    3.96    0.32
   5  -2  -7    5.12    0.29
  -5  -2   7    5.42    0.31
  -5  -2   7    4.66    0.37
  -5   2   7    4.42    0.34
  -5   2   7    4.66    0.35
   5   2  -7    5.19    0.38
   5   2  -7    5.96    0.40
  -5   2   7    4.97    0.31
  -4  -2   7    2.18    0.21
  -4  -2   7    2.32    0.30
   4  -2  -7    2.85    0.22
   4  -2  -7    2.41    0.29
   4  -2  -7    2.15    0.27
  -4   2   7    1.98    0.26
  -4   2   7    2.40    0.19
   4   2  -7    2.50    0.30
   4   2  -7    2.54    0.31
  -4   2   7    2.21    0.28
  -3  -2   7    3.61    0.29
   3  -2  -7    4.03    0.30
   3  -2  -7    3.64    0.26
  -3  -2   7    3.79    0.24
   3  -2  -7    3.75    0.29
   3   2  -7    3.19    0.34
  -3   2   7    3.53    0.29
   3   2  -7    3.55    0.27
  -3   2   7    3.03    0.31
   2  -2  -7    1.26    0.19
  -2  -2   7    0.75    0.14
  -2  -2   7    0.71    0.16
   2  -2  -7    0.90    0.16
  -2  -2   7    0.92    0.06
  -2   2   7    0.82    0.17
   2   2  -7    0.89    0.06
   2   2  -7    1.04    0.19
  -2   2   7    1.04    0.19
  -2   2   7    1.14    0.11
   2   2  -7    0.59    0.14
   2   2  -7    1.07    0.18
  -1  -2   7   21.59    0.55
   1  -2  -7   21.15    0.70
  -1  -2   7   21.94    0.70
   1  -2  -7   21.14    0.72
  -1  -2   7   21.36    0.74
  -1   2   7   20.85    0.76
   1   2  -7   22.01    0.75
   1   2  -7   21.50    0.54
   1   2  -7   22.33    0.66
  -1   2   7   21.90    0.73
   1   2  -7   20.67    0.73
  -1   2   7   20.88    0.47
   0  -2   7    0.00    0.07
   0  -2   7    0.02    0.07
   0  -2  -7    0.13    0.07
   0  -2   7    0.07    0.06
   0  -2  -7    0.07    0.06
   0   2  -7    0.09    0.07
   0   2  -7    0.08    0.07
   0   2   7    0.17    0.09
   0   2   7    0.06    0.08
   0   2  -7    0.11    0.05
   0   2  -7    0.27    0.08
   1  -2   7    0.61    0.15
  -1  -2  -7    0.45    0.13
   1  -2   7    0.72    0.15
  -1  -2  -7    0.56    0.13
  -1   2  -7    0.41    0.12
   1   2   7    0.67    0.15
  -1   2  -7    0.72    0.16
  -1   2  -7    0.53    0.09
   1   2   7    0.45    0.13
  -2  -2  -7    1.17    0.21
  -2  -2  -7    1.19    0.18
   2  -2   7    1.01    0.19
   2  -2   7    1.10    0.20
  -2  -2  -7    0.68    0.13
   2   2   7    1.02    0.19
  -2   2  -7    0.69    0.15
  -2   2  -7    1.06    0.20
   2   2   7    0.99    0.21
  -3  -2  -7   11.22    0.56
   3  -2   7   11.28    0.58
  -3  -2  -7   11.28    0.49
   3  -2   7   12.67    0.59
   3   2   7   11.93    0.53
  -3   2  -7   10.72    0.49
  -3   2  -7   11.16    0.57
   3   2   7   12.25    0.63
   4  -2   7   30.91    1.04
   4  -2   7   29.64    1.07
  -4  -2  -7   30.78    1.04
  -4  -2  -7   27.95    0.88
  -4   2  -7   30.26    0.92
   4   2   7   30.41    0.96
   4   2   7   30.43    1.12
  -4   2  -7   30.98    1.07
   4   2   7   30.10    0.90
  -5  -2  -7    5.99    0.45
   5  -2   7    6.60    0.47
   5  -2   7    5.90    0.49
   5   2   7    6.22    0.41
   5   2   7    6.88    0.53
  -5   2  -7    6.52    0.48
  -6  -2  -7    0.06    0.12
   6  -2   7    0.13    0.14
  -6   2  -7    0.10    0.09
   7  -2   7    0.35    0.19
  -7  -2  -7    0.53    0.21
  -7   2  -7    0.41    0.18
   8  -2   7    0.24    0.21
  -8   2  -7    0.53    0.22
 -10  -3   7   -0.02    0.18
 -10   3   7    0.34    0.19
  10   3  -7    0.09    0.18
  -9  -3   7    0.07    0.14
   9  -3  -7   -0.06    0.12
   9   3  -7   -0.05    0.11
  -9   3   7   -0.22    0.13
  -9   3   7    0.06    0.13
   8  -3  -7    1.85    0.30
  -8  -3   7    2.28    0.37
  -8   3   7    1.90    0.31
  -8   3   7    2.48    0.37
   8   3  -7    1.73    0.31
   8   3  -7    2.83    0.43
   7  -3  -7    0.03    0.09
  -7  -3   7    0.12    0.13
   7  -3  -7    0.00    0.10
  -7   3   7   -0.01    0.10
   7   3  -7   -0.05    0.09
   7   3  -7    0.06    0.11
  -7   3   7    0.06    0.10
   6  -3  -7    6.64    0.44
  -6  -3   7    5.60    0.46
   6  -3  -7    6.40    0.46
  -6   3   7    6.43    0.46
   6   3  -7    5.46    0.44
  -6   3   7    6.26    0.38
   6   3  -7    7.06    0.49
   5  -3  -7   28.66    1.01
   5  -3  -7   26.17    0.93
  -5  -3   7   26.42    0.98
   5   3  -7   27.73    1.00
  -5   3   7   25.85    0.98
  -5   3   7   26.37    0.80
  -5   3   7   26.38    0.96
   5   3  -7   27.46    0.99
  -4  -3   7    2.53    0.33
  -4  -3   7    2.97    0.35
   4  -3  -7    2.51    0.32
   4  -3  -7    2.88    0.23
   4  -3  -7    3.16    0.34
   4   3  -7    2.61    0.32
  -4   3   7    2.80    0.34
   4   3  -7    2.46    0.33
  -4   3   7    3.11    0.37
   3  -3  -7    4.20    0.34
  -3  -3   7    4.21    0.26
   3  -3  -7    4.66    0.30
  -3  -3   7    4.53    0.35
   3  -3  -7    4.83    0.34
   3   3  -7    4.09    0.42
  -3   3   7    4.88    0.35
  -3   3   7    3.72    0.39
   3   3  -7    4.82    0.34
  -2  -3   7    0.63    0.16
   2  -3  -7    0.72    0.15
  -2  -3   7    0.77    0.15
   2  -3  -7    0.59    0.15
   2   3  -7    0.83    0.18
   2   3  -7    0.60    0.16
  -2   3   7    0.96    0.20
  -2   3   7    0.82    0.18
   2   3  -7    0.58    0.14
  -1  -3   7   13.68    0.54
   1  -3  -7   13.15    0.57
   1  -3  -7   14.16    0.59
  -1  -3   7   14.05    0.40
  -1  -3   7   13.65    0.61
  -1   3   7   13.94    0.64
   1   3  -7   14.01    0.62
   1   3  -7   12.37    0.50
   1   3  -7   14.58    0.63
  -1   3   7   14.20    0.59
   0  -3   7    2.86    0.21
   0  -3   7    2.52    0.28
   0  -3  -7    2.69    0.29
   0  -3   7    3.02    0.34
   0  -3  -7    3.32    0.34
   0   3  -7    2.31    0.19
   0   3   7    3.05    0.36
   0   3   7    3.13    0.33
   0   3  -7    2.78    0.33
   0   3  -7    3.03    0.34
   1  -3   7   -0.04    0.07
   1  -3   7    0.11    0.08
  -1  -3  -7    0.02    0.06
  -1  -3  -7    0.02    0.06
   1   3   7   -0.01    0.05
  -1   3  -7    0.00    0.05
   1   3   7    0.06    0.08
  -1   3  -7    0.03    0.07
  -2  -3  -7    2.32    0.31
  -2  -3  -7    2.20    0.27
   2  -3   7    2.19    0.30
   2  -3   7    1.88    0.27
  -2   3  -7    1.63    0.24
   2   3   7    1.76    0.24
  -2   3  -7    1.95    0.30
   2   3   7    2.32    0.32
   3  -3   7    6.30    0.43
  -3  -3  -7    5.75    0.38
  -3  -3  -7    5.75    0.42
   3  -3   7    5.46    0.40
   3   3   7    5.45    0.36
   3   3   7    5.79    0.38
  -3   3  -7    5.60    0.43
  -3   3  -7    6.77    0.39
   3   3   7    5.84    0.45
  -4  -3  -7    3.71    0.43
  -4  -3  -7    3.74    0.37
   4  -3   7    3.04    0.38
   4  -3   7    3.81    0.44
  -4   3  -7    2.96    0.39
  -4   3  -7    3.98    0.41
   4   3   7    3.79    0.37
   4   3   7    3.44    0.45
   4   3   7    3.64    0.37
  -5  -3  -7    2.38    0.37
   5  -3   7    2.62    0.39
   5  -3   7    2.75    0.38
  -5  -3  -7    3.12    0.35
   5   3   7    3.22    0.36
  -5   3  -7    2.46    0.37
  -6  -3  -7    3.60    0.46
   6  -3   7    3.16    0.43
  -6   3  -7    2.22    0.38
  -7  -3  -7    1.09    0.28
   7  -3   7    1.02    0.29
  -7   3  -7    1.03    0.26
   8  -3   7   -0.18    0.15
  -8   3  -7    0.00    0.13
  -9  -4   7    0.01    0.16
   9   4  -7    0.14    0.19
  -9   4   7    0.08    0.17
   9   4  -7    0.08    0.18
   8  -4  -7    1.97    0.32
  -8  -4   7    2.28    0.40
   8   4  -7    1.78    0.33
   8   4  -7    2.50    0.41
  -8   4   7    2.13    0.37
  -7  -4   7    1.64    0.34
   7  -4  -7    1.66    0.29
   7   4  -7    1.81    0.33
   7   4  -7    0.99    0.25
  -7   4   7    2.31    0.37
  -6  -4   7    0.68    0.20
   6  -4  -7    0.63    0.20
   6  -4  -7    0.59    0.18
  -6   4   7    0.23    0.15
   6   4  -7    0.52    0.20
   6   4  -7    0.36    0.17
   5  -4  -7    3.35    0.38
   5  -4  -7    3.64    0.43
  -5  -4   7    3.93    0.45
   5   4  -7    3.13    0.40
  -5   4   7    4.01    0.47
  -5   4   7    3.73    0.44
   5   4  -7    4.66    0.51
  -4  -4   7    7.08    0.49
   4  -4  -7    7.16    0.51
   4  -4  -7    7.43    0.39
   4  -4  -7    8.33    0.49
   4   4  -7    7.24    0.47
  -4   4   7    7.53    0.52
   4   4  -7    7.15    0.50
  -4   4   7    7.33    0.48
  -3  -4   7   12.90    0.49
  -3  -4   7   12.61    0.64
   3  -4  -7   12.48    0.54
   3  -4  -7   13.07    0.67
   3  -4  -7   12.47    0.60
  -3   4   7   12.75    0.67
   3   4  -7   13.45    0.67
   3   4  -7   11.93    0.59
  -3   4   7   11.27    0.60
  -2  -4   7    9.39    0.54
  -2  -4   7    9.31    0.43
   2  -4  -7   10.64    0.53
   2  -4  -7    9.13    0.48
   2   4  -7    9.13    0.54
   2   4  -7    9.78    0.49
   2   4  -7   10.54    0.57
  -2   4   7    9.70    0.58
  -2   4   7    9.08    0.51
   1  -4  -7    9.16    0.49
  -1  -4   7    9.31    0.53
  -1  -4   7    8.56    0.44
   1  -4  -7    9.47    0.50
   1   4  -7    7.89    0.49
   1   4  -7    9.09    0.44
   1   4  -7    8.33    0.51
  -1   4   7    8.49    0.48
  -1   4   7    8.47    0.53
   0  -4  -7    5.24    0.38
   0  -4   7    5.34    0.41
   0  -4   7    5.07    0.35
   0  -4  -7    5.91    0.39
   0   4   7    4.84    0.41
   0   4   7    5.42    0.37
   0   4  -7    5.12    0.40
   0   4  -7    5.49    0.31
   0   4  -7    5.46    0.39
  -1  -4  -7    7.90    0.47
   1  -4   7    8.29    0.46
  -1  -4  -7    7.34    0.47
   1  -4   7    8.22    0.42
   1   4   7    7.79    0.44
  -1   4  -7    7.80    0.51
   1   4   7    7.63    0.52
  -1   4  -7    6.87    0.44
  -2  -4  -7   10.50    0.58
   2  -4   7   10.33    0.53
   2  -4   7   11.69    0.59
  -2  -4  -7   12.14    0.59
  -2   4  -7   11.29    0.56
   2   4   7   10.68    0.52
   2   4   7   11.35    0.66
   2   4   7   11.59    0.58
  -2   4  -7   12.39    0.66
  -3  -4  -7    0.78    0.19
   3  -4   7    0.92    0.22
  -3  -4  -7    0.82    0.22
   3  -4   7    0.59    0.18
   3   4   7    0.57    0.15
   3   4   7    0.86    0.23
  -3   4  -7    0.91    0.24
   3   4   7    0.80    0.19
  -3   4  -7    0.99    0.20
   4  -4   7    5.07    0.52
   4  -4   7    5.77    0.46
  -4  -4  -7    5.84    0.43
  -4  -4  -7    4.88    0.51
  -4   4  -7    3.94    0.48
   4   4   7    3.79    0.41
   5  -4   7    0.07    0.12
  -5  -4  -7    0.19    0.15
  -5  -4  -7    0.16    0.14
   5   4   7    0.38    0.15
  -5   4  -7    0.03    0.12
  -6  -4  -7    0.17    0.15
  -6  -4  -7    0.08    0.13
   6  -4   7    0.32    0.19
   6   4   7    0.04    0.12
  -6   4  -7   -0.05    0.11
   7  -4   7    3.86    0.50
  -7  -4  -7    3.92    0.52
  -7   4  -7    3.15    0.50
  -9  -5   7    0.01    0.17
   9   5  -7    0.08    0.18
  -8  -5   7    0.97    0.29
  -8   5   7    1.13    0.31
   8   5  -7    0.50    0.21
   8   5  -7    0.85    0.28
  -7  -5   7    0.39    0.18
   7  -5  -7    0.56    0.20
   7   5  -7    0.68    0.23
   7   5  -7    0.91    0.26
  -7   5   7    0.55    0.20
  -6  -5   7    0.19    0.18
   6  -5  -7    0.06    0.13
  -6   5   7    0.22    0.16
   6   5  -7    0.29    0.15
   6   5  -7    0.03    0.10
  -5  -5   7    3.99    0.48
   5  -5  -7    6.16    0.46
  -5   5   7    4.46    0.49
   5   5  -7    5.19    0.59
   5   5  -7    6.02    0.48
   4  -5  -7    1.18    0.25
   4  -5  -7    0.86    0.26
  -4  -5   7    1.07    0.25
  -4   5   7    0.96    0.29
   4   5  -7    1.03    0.23
   4   5  -7    1.75    0.33
  -4   5   7    1.26    0.27
   3  -5  -7    0.97    0.22
  -3  -5   7    0.74    0.20
   3  -5  -7    0.28    0.12
   3  -5  -7    0.29    0.17
  -3   5   7    0.77    0.22
   3   5  -7    0.73    0.23
  -3   5   7    0.57    0.17
   3   5  -7    0.72    0.19
   2  -5  -7    0.84    0.21
   2  -5  -7    1.84    0.27
  -2  -5   7    1.09    0.25
   2  -5  -7    1.17    0.26
  -2  -5   7    1.20    0.20
   2   5  -7    1.28    0.26
  -2   5   7    1.60    0.31
   2   5  -7    1.17    0.21
  -2   5   7    1.32    0.26
   2   5  -7    1.04    0.24
   1  -5  -7    0.71    0.19
   1  -5  -7    1.24    0.24
  -1  -5   7    0.75    0.21
  -1  -5   7    1.11    0.20
   1   5  -7    1.60    0.24
  -1   5   7    1.09    0.26
  -1   5   7    1.70    0.29
   1   5  -7    0.86    0.21
   1   5  -7    1.17    0.26
   0  -5   7    4.18    0.40
   0  -5   7    3.93    0.44
   0  -5  -7    4.03    0.43
   0  -5  -7    3.59    0.40
   0   5  -7    3.29    0.41
   0   5  -7    4.46    0.50
   0   5   7    4.86    0.52
   0   5   7    3.80    0.40
  -1  -5  -7    3.71    0.42
  -1  -5  -7    4.00    0.44
   1  -5   7    3.48    0.39
   1   5   7    3.59    0.39
  -1   5  -7    2.89    0.40
   1   5   7    3.33    0.44
  -1   5  -7    3.74    0.41
  -2  -5  -7    0.24    0.15
   2  -5   7    0.26    0.15
  -2  -5  -7    0.85    0.21
  -2   5  -7    0.62    0.19
  -2   5  -7    0.56    0.17
   2   5   7    0.49    0.18
   2   5   7    0.61    0.17
  -3  -5  -7    0.22    0.13
   3  -5   7    0.04    0.11
   3  -5   7   -0.03    0.12
  -3  -5  -7    0.17    0.12
   3   5   7    0.09    0.12
  -3   5  -7    0.06    0.11
  -4  -5  -7    2.63    0.38
   4  -5   7    2.50    0.37
  -4  -5  -7    2.63    0.41
   4  -5   7    2.53    0.45
   4   5   7    2.43    0.37
  -4   5  -7    2.57    0.43
   5  -5   7    1.05    0.27
  -5  -5  -7    0.93    0.26
  -5  -5  -7    0.87    0.23
  -5   5  -7    0.55    0.22
   5   5   7    0.51    0.20
  -6  -5  -7    0.12    0.17
   6  -5   7    0.39    0.20
  -6  -5  -7   -0.06    0.12
   6   5   7    0.15    0.15
  -6   5  -7   -0.01    0.15
  -7  -6   7    0.15    0.19
   7  -6  -7    0.29    0.18
   7   6  -7    0.21    0.19
  -7   6   7    0.45    0.23
   7   6  -7    0.28    0.20
  -6  -6   7    1.54    0.34
   6  -6  -7    1.68    0.31
  -6   6   7    2.02    0.39
   6   6  -7    2.10    0.39
   6   6  -7    1.80    0.38
   5  -6  -7    0.32    0.16
  -5  -6   7    0.13    0.12
   5   6  -7   -0.04    0.10
  -5   6   7    0.23    0.15
   5   6  -7    0.00    0.10
   4  -6  -7    0.28    0.15
  -4  -6   7    0.14    0.11
   4   6  -7    0.20    0.14
  -4   6   7    0.07    0.10
   4   6  -7    0.04    0.11
   3  -6  -7    2.48    0.36
  -3  -6   7    1.91    0.33
   3   6  -7    1.66    0.30
  -3   6   7    1.90    0.33
   3   6  -7    2.16    0.39
   2  -6  -7    1.68    0.30
  -2  -6   7    2.48    0.38
   2  -6  -7    2.07    0.31
   2   6  -7    2.22    0.32
   2   6  -7    2.06    0.36
   2   6  -7    2.28    0.39
  -2   6   7    1.48    0.29
  -1  -6   7    7.39    0.55
   1  -6  -7    7.64    0.52
   1  -6  -7    7.28    0.49
  -1  -6   7    6.60    0.49
  -1   6   7    6.64    0.48
   1   6  -7    6.05    0.50
   1   6  -7    6.99    0.53
   0  -6   7    1.82    0.35
   0  -6  -7    2.34    0.34
   0  -6   7    2.95    0.36
   0  -6  -7    2.44    0.36
   0   6   7    2.34    0.34
   0   6  -7    2.11    0.36
   0   6  -7    2.31    0.36
   1  -6   7    0.33    0.16
   1  -6   7    0.25    0.16
  -1  -6  -7    0.14    0.10
  -1  -6  -7    0.05    0.11
  -1   6  -7    0.22    0.14
  -1   6  -7    0.31    0.17
   1   6   7    0.35    0.14
   2  -6   7    0.20    0.13
  -2  -6  -7    0.00    0.08
  -2  -6  -7    0.01    0.10
  -2   6  -7   -0.10    0.06
   2   6   7    0.12    0.13
  -3  -6  -7    0.00    0.11
  -3  -6  -7    0.01    0.12
   3  -6   7    0.00    0.09
   3   6   7   -0.10    0.06
  -3   6  -7   -0.02    0.14
   4  -6   7    1.94    0.36
  -4  -6  -7    1.34    0.31
  -4  -6  -7    1.42    0.32
   4   6   7    1.10    0.27
  -4   6  -7    1.59    0.34
   5  -6   7    0.46    0.23
  -5  -6  -7    0.75    0.26
  -5  -6  -7    0.21    0.17
   5   6   7    1.00    0.29
  -5   6  -7    0.66    0.25
   6  -7  -7    0.14    0.16
  -6  -7   7    0.06    0.12
   6   7  -7    0.15    0.17
   6   7  -7    0.22    0.19
   5  -7  -7    0.27    0.17
  -5  -7   7   -0.13    0.15
   5   7  -7    0.16    0.18
  -5   7   7   -0.04    0.16
   5   7  -7   -0.07    0.12
   4  -7  -7    2.21    0.37
  -4  -7   7    1.65    0.34
  -4   7   7    2.68    0.43
   4   7  -7    2.87    0.43
   4   7  -7    2.12    0.43
  -3  -7   7    8.16    0.62
   3  -7  -7    7.95    0.56
   3   7  -7    7.53    0.57
   3   7  -7    7.87    0.63
  -3   7   7    6.62    0.66
  -2  -7   7    0.83    0.24
   2  -7  -7    0.59    0.19
  -2   7   7    0.97    0.26
   2   7  -7    0.59    0.23
  -1  -7   7    0.56    0.21
   1  -7  -7    0.62    0.20
   1  -7  -7    1.26    0.30
  -1   7   7    0.39    0.18
   1   7  -7    0.70    0.24
   1   7  -7    0.68    0.24
   0  -7   7    0.11    0.15
   0  -7  -7    0.43    0.18
   0  -7  -7    0.27    0.16
   0   7  -7    0.33    0.18
   0   7  -7    0.35    0.19
   0   7   7    0.35    0.20
  -1  -7  -7    0.53    0.22
  -1  -7  -7    1.13    0.27
   1  -7   7    0.63    0.22
   1  -7   7    0.34    0.16
  -1   7  -7    0.64    0.24
  -1   7  -7    0.35    0.19
  -2  -7  -7    0.28    0.17
   2  -7   7    0.42    0.18
  -2  -7  -7    0.33    0.20
   2  -7   7    0.21    0.18
  -2   7  -7    0.25    0.20
   2   7   7    0.40    0.19
  -3  -7  -7    0.35    0.19
  -3  -7  -7    0.10    0.16
   3  -7   7    0.47    0.20
  -3   7  -7    0.06    0.13
   3   7   7    0.10    0.14
   4  -7   7    0.12    0.17
  -4  -7  -7    0.55    0.24
  -4  -7  -7    0.08    0.15
  -4   7  -7    0.19    0.19
   4   7   7    0.16    0.17
  -4  -8   7    1.52    0.37
   4  -8  -7    1.82    0.37
   4   8  -7    0.90    0.32
   3  -8  -7    0.12    0.16
  -3  -8   7    0.22    0.19
   3   8  -7    0.08    0.19
  -3   8   7    0.18    0.19
   2  -8  -7    1.47    0.33
  -2  -8   7    1.57    0.36
  -2   8   7    0.72    0.25
   2   8  -7    0.47    0.25
  -1  -8   7    0.72    0.25
   1  -8  -7    0.77    0.26
  -1   8   7    0.40    0.22
   1   8  -7    0.36    0.17
   1   8  -7    0.69    0.24
   0  -8   7    0.45    0.23
   0  -8  -7    0.25    0.19
   0  -8  -7    0.25    0.20
   0   8  -7    0.73    0.28
   0   8  -7    0.32    0.23
  -1  -8  -7    3.81    0.53
   1  -8   7    4.25    0.60
  -1   8  -7    3.96    0.57
   2  -8   7    0.29    0.20
   2  -8   7    0.05    0.19
  -2  -8  -7    0.38    0.20
  -2   8  -7    0.01    0.16
  10   0  -8    0.68    0.24
 -10   0   8    0.77    0.25
   9   0  -8    0.04    0.10
  -9   0   8    0.12    0.16
  -8   0   8    0.24    0.16
   8   0  -8    0.39    0.17
  -7   0   8    2.47    0.30
   7   0  -8    2.30    0.34
  -7   0   8    2.74    0.36
   6   0  -8    1.45    0.23
  -6   0   8    1.46    0.26
  -6   0   8    1.09    0.20
   6   0  -8    1.30    0.25
   5   0  -8   39.33    1.16
  -5   0   8   36.28    1.05
  -5   0   8   40.37    1.13
   5   0  -8   36.95    1.09
  -4   0   8    3.83    0.29
  -4   0   8    3.96    0.29
  -4   0   8    4.04    0.25
   4   0  -8    4.23    0.25
   4   0  -8    4.37    0.32
   4   0  -8    4.00    0.30
   3   0  -8    0.55    0.11
  -3   0   8    0.75    0.14
  -3   0   8    0.77    0.13
   3   0  -8    0.61    0.11
   3   0  -8    0.58    0.14
  -3   0   8    0.50    0.13
   3   0  -8    0.72    0.16
   2   0  -8   12.22    0.53
   2   0  -8   12.68    0.51
  -2   0   8   12.25    0.47
  -2   0   8   12.41    0.52
  -2   0   8   12.14    0.46
   1   0  -8    8.48    0.40
   1   0  -8    8.44    0.44
   1   0  -8    9.13    0.38
  -1   0   8    9.91    0.40
  -1   0   8    9.45    0.45
  -1   0   8    8.45    0.39
   0   0   8    0.51    0.11
   0   0  -8    0.56    0.14
   0   0   8    0.48    0.12
   0   0  -8    0.58    0.12
   0   0   8    0.44    0.14
   0   0  -8    0.70    0.13
  -1   0  -8   55.21    1.39
  -1   0  -8   53.06    1.26
  -1   0  -8   53.32    1.21
   1   0   8   53.55    1.38
   1   0   8   49.79    1.35
  -2   0  -8    0.09    0.08
  -2   0  -8   -0.03    0.05
  -2   0  -8   -0.03    0.05
   2   0   8   -0.05    0.08
   2   0   8    0.08    0.08
  -3   0  -8    1.19    0.20
   3   0   8    1.31    0.24
   3   0   8    1.31    0.25
  -3   0  -8    1.04    0.21
   4   0   8    4.89    0.50
   4   0   8    4.37    0.44
  -4   0  -8    5.01    0.37
  -4   0  -8    3.47    0.36
   5   0   8    4.58    0.47
  -5   0  -8    3.98    0.42
  -5   0  -8    4.16    0.43
   6   0   8    2.80    0.37
  -6   0  -8    2.23    0.34
  -6   0  -8    2.06    0.35
  -7   0  -8    0.25    0.15
   7   0   8    0.22    0.18
  -8   0  -8    0.05    0.14
  10  -1  -8    0.84    0.25
 -10  -1   8    0.81    0.28
 -10   1   8    0.78    0.26
  10   1  -8    0.65    0.25
   9  -1  -8    0.29    0.17
  -9  -1   8    0.62    0.24
   9   1  -8    0.04    0.12
  -9   1   8    0.54    0.21
  -8  -1   8    1.66    0.32
   8  -1  -8    1.42    0.29
   8   1  -8    2.59    0.40
  -8   1   8    1.35    0.30
  -8   1   8    1.76    0.31
   7  -1  -8    2.97    0.38
  -7  -1   8    2.83    0.39
  -7   1   8    3.73    0.40
  -7   1   8    2.60    0.32
   7   1  -8    3.13    0.41
   7   1  -8    3.04    0.36
  -6  -1   8    1.01    0.18
   6  -1  -8    1.16    0.20
   6  -1  -8    1.27    0.23
   6  -1  -8    1.47    0.22
  -6  -1   8    0.74    0.19
   6   1  -8    1.81    0.29
  -6   1   8    1.69    0.25
   6   1  -8    1.12    0.22
  -6   1   8    1.40    0.24
   5  -1  -8    7.34    0.40
   5  -1  -8    6.47    0.37
  -5  -1   8    8.04    0.47
  -5  -1   8    7.50    0.38
   5  -1  -8    7.64    0.45
   5   1  -8    8.12    0.46
   5   1  -8    7.65    0.46
  -5   1   8    7.81    0.44
  -5   1   8    7.35    0.40
   4  -1  -8    2.94    0.30
  -4  -1   8    2.68    0.27
  -4  -1   8    3.02    0.32
   4  -1  -8    2.80    0.31
   4  -1  -8    2.87    0.24
   4   1  -8    2.86    0.33
   4   1  -8    3.10    0.33
  -4   1   8    3.16    0.24
  -4   1   8    2.71    0.30
  -4   1   8    2.93    0.29
  -3  -1   8    5.33    0.32
  -3  -1   8    5.89    0.24
   3  -1  -8    5.57    0.33
   3  -1  -8    5.69    0.36
  -3  -1   8    6.06    0.36
   3   1  -8    5.70    0.35
   3   1  -8    5.43    0.23
  -3   1   8    6.11    0.30
   3   1  -8    6.22    0.38
  -3   1   8    5.30    0.33
  -3   1   8    5.52    0.35
   2  -1  -8    0.80    0.16
  -2  -1   8    0.47    0.13
  -2  -1   8    0.82    0.11
  -2  -1   8    0.88    0.16
   2  -1  -8    0.96    0.18
  -2   1   8    0.81    0.16
   2   1  -8    0.76    0.15
   2   1  -8    0.59    0.15
   2   1  -8    0.75    0.11
  -2   1   8    0.75    0.15
  -2   1   8    0.83    0.13
   1  -1  -8    5.96    0.37
   1  -1  -8    6.05    0.34
  -1  -1   8    6.30    0.30
  -1  -1   8    6.14    0.34
  -1  -1   8    5.88    0.35
  -1   1   8    5.84    0.26
  -1   1   8    6.19    0.36
   1   1  -8    5.98    0.34
   1   1  -8    5.95    0.29
  -1   1   8    6.85    0.38
   1   1  -8    6.33    0.37
   1   1  -8    6.38    0.33
   0  -1  -8    0.33    0.10
   0  -1  -8    0.33    0.08
   0  -1  -8    0.29    0.12
   0  -1   8    0.29    0.09
   0  -1   8    0.55    0.15
   0  -1   8    0.22    0.09
   0   1  -8    0.40    0.10
   0   1   8    0.23    0.10
   0   1  -8    0.25    0.11
   0   1   8    0.22    0.11
   0   1   8    0.32    0.08
   0   1  -8    0.22    0.09
  -1  -1  -8   11.11    0.40
   1  -1   8   11.36    0.50
   1  -1   8   10.61    0.52
  -1  -1  -8   10.25    0.51
  -1  -1  -8   11.02    0.45
   1   1   8   10.24    0.52
  -1   1  -8   10.11    0.48
  -1   1  -8   10.70    0.39
   1   1   8   10.03    0.50
  -1   1  -8   10.54    0.50
   2  -1   8   68.52    1.69
   2  -1   8   67.48    1.69
  -2  -1  -8   66.97    1.49
  -2  -1  -8   65.31    1.68
  -2  -1  -8   69.67    1.52
   2   1   8   64.99    1.72
  -2   1  -8   67.96    1.64
  -2   1  -8   67.98    1.66
   2   1   8   67.17    1.66
   3  -1   8   18.87    0.78
  -3  -1  -8   15.93    0.70
  -3  -1  -8   17.25    0.62
   3  -1   8   17.00    0.73
  -3  -1  -8   16.28    0.57
  -3   1  -8   16.71    0.70
   3   1   8   16.38    0.69
  -3   1  -8   17.88    0.69
   3   1   8   17.08    0.78
  -4  -1  -8    1.55    0.24
   4  -1   8    1.92    0.32
  -4  -1  -8    2.33    0.32
   4  -1   8    1.98    0.31
   4   1   8    1.89    0.32
  -4   1  -8    2.05    0.30
  -4   1  -8    2.08    0.28
   4   1   8    1.72    0.28
   5  -1   8    1.00    0.24
   5  -1   8    1.10    0.31
  -5  -1  -8    1.20    0.22
  -5  -1  -8    0.90    0.22
  -5   1  -8    0.81    0.18
   5   1   8    0.91    0.22
  -5   1  -8    0.67    0.19
  -6  -1  -8    0.31    0.15
   6  -1   8    0.68    0.22
  -6   1  -8    0.58    0.20
   6   1   8    0.45    0.18
   7  -1   8    0.59    0.22
  -7   1  -8    0.88    0.25
   8  -1   8    0.02    0.21
  -8   1  -8    0.12    0.18
 -10  -2   8    0.06    0.17
  10  -2  -8    0.09    0.15
  10   2  -8    0.13    0.19
 -10   2   8    0.04    0.15
   9  -2  -8    0.06    0.13
  -9  -2   8   -0.03    0.10
  -9   2   8    0.07    0.14
   9   2  -8    0.21    0.17
  -8  -2   8    0.42    0.21
   8  -2  -8    1.06    0.25
  -8   2   8    0.80    0.22
   8   2  -8    0.67    0.21
  -8   2   8    0.78    0.22
   8   2  -8    0.89    0.25
   7  -2  -8    8.70    0.54
   7  -2  -8    8.83    0.53
  -7  -2   8    8.66    0.57
   7   2  -8    8.20    0.53
   7   2  -8    7.83    0.54
  -7   2   8    9.17    0.54
  -7   2   8    8.66    0.51
   6  -2  -8    0.31    0.15
   6  -2  -8    0.64    0.17
  -6  -2   8    0.58    0.19
   6   2  -8    0.16    0.10
  -6   2   8    0.78    0.20
   6   2  -8    0.40    0.15
  -6   2   8    0.54    0.15
   5  -2  -8    0.14    0.08
  -5  -2   8   -0.02    0.07
  -5  -2   8    0.19    0.11
   5  -2  -8    0.02    0.09
   5  -2  -8    0.04    0.09
  -5   2   8    0.11    0.10
   5   2  -8    0.07    0.07
  -5   2   8    0.07    0.09
   5   2  -8   -0.03    0.08
  -5   2   8    0.12    0.08
  -4  -2   8    1.33    0.24
   4  -2  -8    1.42    0.24
  -4  -2   8    1.13    0.17
   4  -2  -8    1.19    0.19
   4  -2  -8    1.20    0.21
  -4   2   8    1.39    0.23
   4   2  -8    1.18    0.22
  -4   2   8    0.93    0.19
  -4   2   8    1.25    0.17
   4   2  -8    1.43    0.25
  -3  -2   8    4.87    0.35
   3  -2  -8    5.65    0.38
  -3  -2   8    5.13    0.30
   3  -2  -8    5.37    0.33
   3  -2  -8    5.15    0.36
  -3   2   8    4.95    0.35
  -3   2   8    5.38    0.37
  -3   2   8    5.31    0.38
   3   2  -8    5.33    0.35
   3   2  -8    5.58    0.39
   2  -2  -8    0.17    0.09
   2  -2  -8    0.13    0.09
  -2  -2   8    0.36    0.11
  -2  -2   8    0.26    0.11
   2   2  -8    0.06    0.08
  -2   2   8    0.03    0.06
   2   2  -8    0.10    0.08
   2   2  -8    0.15    0.08
  -2   2   8    0.17    0.11
   1  -2  -8    6.87    0.39
  -1  -2   8    6.66    0.38
  -1  -2   8    7.29    0.30
   1  -2  -8    8.02    0.43
  -1  -2   8    7.01    0.41
   1   2  -8    6.52    0.34
   1   2  -8    7.27    0.42
  -1   2   8    6.86    0.42
   1   2  -8    6.81    0.41
  -1   2   8    6.96    0.40
   0  -2   8    2.94    0.22
   0  -2   8    2.68    0.30
   0  -2   8    3.29    0.34
   0  -2  -8    3.29    0.26
   0  -2  -8    3.05    0.34
   0   2  -8    2.93    0.33
   0   2   8    2.92    0.32
   0   2   8    2.47    0.31
   0   2  -8    2.93    0.21
   0   2  -8    3.11    0.33
   1  -2   8    2.06    0.25
  -1  -2  -8    2.40    0.27
  -1  -2  -8    1.44    0.24
   1  -2   8    1.70    0.26
   1   2   8    1.87    0.28
  -1   2  -8    1.89    0.15
   1   2   8    2.12    0.27
  -1   2  -8    1.62    0.25
  -1   2  -8    2.56    0.30
  -2  -2  -8    1.74    0.27
   2  -2   8    2.36    0.29
  -2  -2  -8    3.02    0.30
   2  -2   8    2.14    0.29
   2   2   8    2.86    0.32
  -2   2  -8    2.93    0.33
   2   2   8    2.42    0.34
  -2   2  -8    2.62    0.33
  -3  -2  -8   12.82    0.64
  -3  -2  -8   12.12    0.52
   3  -2   8   11.87    0.61
   3  -2   8   12.53    0.63
  -3   2  -8   11.77    0.55
   3   2   8   12.13    0.57
  -3   2  -8   12.03    0.62
   3   2   8   11.51    0.64
  -4  -2  -8    6.96    0.40
   4  -2   8    7.08    0.51
   4  -2   8    6.81    0.48
  -4  -2  -8    7.42    0.50
   4   2   8    7.58    0.46
   4   2   8    8.35    0.57
  -4   2  -8    7.46    0.43
  -4   2  -8    7.52    0.51
  -5  -2  -8    5.84    0.46
   5  -2   8    6.22    0.48
  -5   2  -8    5.23    0.55
   5   2   8    6.41    0.44
  -6  -2  -8    0.15    0.15
   6  -2   8    0.11    0.15
  -6   2  -8    0.20    0.12
  -7  -2  -8    0.28    0.19
   7  -2   8    0.23    0.17
  -7   2  -8    0.44    0.20
   8  -2   8    0.46    0.24
  -8   2  -8    0.33    0.21
  10   3  -8   -0.01    0.16
   9  -3  -8    0.55    0.20
  -9  -3   8    0.27    0.20
  -9   3   8    0.42    0.21
   9   3  -8    0.26    0.15
   8  -3  -8    0.35    0.16
  -8  -3   8    0.55    0.24
   8   3  -8    0.33    0.19
  -8   3   8    0.72    0.22
   8   3  -8    0.60    0.22
  -7  -3   8    1.44    0.32
   7  -3  -8    1.16    0.26
   7  -3  -8    0.93    0.23
   7   3  -8    0.99    0.26
   7   3  -8    1.69    0.31
  -7   3   8    1.32    0.27
   6  -3  -8    5.39    0.42
  -6  -3   8    4.45    0.49
   6  -3  -8    4.55    0.47
   6   3  -8    3.94    0.46
   6   3  -8    4.23    0.48
  -6   3   8    5.27    0.52
   5  -3  -8    9.27    0.55
   5  -3  -8    8.35    0.51
  -5  -3   8    9.36    0.57
   5   3  -8   10.21    0.58
  -5   3   8   10.00    0.57
  -5   3   8    8.96    0.55
   5   3  -8    7.60    0.52
   4  -3  -8    0.34    0.11
  -4  -3   8    0.63    0.18
   4  -3  -8    0.48    0.16
   4  -3  -8    0.43    0.16
  -4  -3   8    0.49    0.14
  -4   3   8    0.69    0.19
  -4   3   8    0.72    0.20
   4   3  -8    0.73    0.19
   4   3  -8    0.75    0.20
   3  -3  -8    2.10    0.27
  -3  -3   8    1.70    0.21
   3  -3  -8    2.31    0.32
   3  -3  -8    2.02    0.28
  -3  -3   8    2.33    0.32
   3   3  -8    2.07    0.28
  -3   3   8    1.15    0.22
   3   3  -8    1.46    0.26
  -3   3   8    1.56    0.26
   2  -3  -8    7.46    0.43
   2  -3  -8    7.52    0.44
  -2  -3   8    7.52    0.40
  -2  -3   8    7.59    0.46
   2   3  -8    7.58    0.41
   2   3  -8    7.56    0.46
  -2   3   8    7.88    0.49
  -2   3   8    6.55    0.42
   2   3  -8    8.09    0.49
   1  -3  -8    0.61    0.16
   1  -3  -8    0.76    0.18
  -1  -3   8    0.82    0.19
  -1  -3   8    1.01    0.19
   1   3  -8    0.99    0.17
   1   3  -8    1.24    0.23
  -1   3   8    0.82    0.20
  -1   3   8    0.72    0.17
   1   3  -8    0.48    0.15
   0  -3   8    7.61    0.47
   0  -3   8    8.53    0.46
   0  -3  -8    7.51    0.43
   0  -3   8    7.72    0.36
   0  -3  -8    7.16    0.45
   0   3  -8    7.82    0.48
   0   3  -8    7.98    0.37
   0   3   8    6.80    0.42
   0   3   8    8.02    0.50
   0   3  -8    7.77    0.46
  -1  -3  -8   11.70    0.60
   1  -3   8   12.21    0.52
  -1  -3  -8   11.27    0.54
   1  -3   8   12.46    0.59
   1   3   8   10.67    0.61
   1   3   8   11.52    0.55
  -1   3  -8   11.57    0.61
  -1   3  -8   11.06    0.56
   2  -3   8    7.01    0.45
  -2  -3  -8    6.59    0.41
   2  -3   8    6.94    0.43
  -2  -3  -8    5.89    0.43
   2   3   8    6.76    0.42
  -2   3  -8    6.19    0.40
  -2   3  -8    7.02    0.48
   2   3   8    6.38    0.47
  -3  -3  -8    0.29    0.13
  -3  -3  -8    0.13    0.10
   3  -3   8    0.13    0.13
   3  -3   8    0.14    0.12
  -3   3  -8    0.01    0.09
   3   3   8    0.40    0.16
  -3   3  -8    0.14    0.09
   3   3   8    0.30    0.12
  -4  -3  -8    0.65    0.18
   4  -3   8    0.57    0.19
  -4  -3  -8    0.30    0.14
   4  -3   8    0.40    0.18
   4   3   8    0.30    0.13
  -4   3  -8    0.41    0.18
  -5  -3  -8    4.15    0.48
   5  -3   8    3.86    0.46
  -5   3  -8    4.06    0.48
   6  -3   8    0.23    0.18
  -6  -3  -8    0.29    0.17
  -6   3  -8    0.25    0.17
   7  -3   8    0.04    0.17
  -7  -3  -8    0.12    0.17
  -7   3  -8    0.44    0.20
   9  -4  -8    0.32    0.17
  -9  -4   8    0.15    0.19
   9   4  -8    0.24    0.21
   9   4  -8    0.41    0.23
  -9   4   8    0.29    0.21
   8  -4  -8    0.34    0.17
  -8  -4   8    0.03    0.15
   8   4  -8    0.39    0.21
  -8   4   8    0.06    0.17
   8   4  -8    0.12    0.13
  -7  -4   8    2.47    0.41
   7  -4  -8    2.62    0.37
   7   4  -8    2.41    0.40
  -7   4   8    2.06    0.36
   7   4  -8    2.94    0.43
  -6  -4   8    0.03    0.14
   6  -4  -8    0.14    0.13
   6   4  -8    0.08    0.11
   6   4  -8    0.30    0.15
  -6   4   8    0.28    0.15
   5  -4  -8    2.18    0.34
   5  -4  -8    2.15    0.33
  -5  -4   8    2.21    0.34
   5   4  -8    2.01    0.33
  -5   4   8    2.29    0.37
  -5   4   8    2.17    0.35
   5   4  -8    1.61    0.32
  -4  -4   8    1.16    0.25
   4  -4  -8    1.23    0.26
   4  -4  -8    1.39    0.26
   4  -4  -8    1.33    0.21
  -4   4   8    0.96    0.23
   4   4  -8    1.11    0.26
   4   4  -8    0.79    0.20
  -4   4   8    0.88    0.23
  -3  -4   8   11.86    0.69
   3  -4  -8   12.29    0.67
   3  -4  -8   11.20    0.60
   3  -4  -8   12.56    0.56
  -3  -4   8   10.62    0.61
  -3   4   8   10.93    0.60
   3   4  -8   10.74    0.56
   3   4  -8   11.75    0.64
  -3   4   8   11.70    0.66
  -2  -4   8    2.82    0.37
   2  -4  -8    3.09    0.35
  -2  -4   8    3.66    0.35
   2  -4  -8    3.61    0.38
   2   4  -8    3.22    0.35
   2   4  -8    3.27    0.40
  -2   4   8    3.44    0.42
   2   4  -8    2.50    0.37
  -2   4   8    2.46    0.33
  -1  -4   8    0.20    0.11
  -1  -4   8   -0.10    0.08
   1  -4  -8    0.10    0.09
   1  -4  -8    0.09    0.10
   1   4  -8   -0.02    0.09
   1   4  -8    0.10    0.07
  -1   4   8   -0.04    0.05
   1   4  -8    0.15    0.12
  -1   4   8    0.06    0.10
   0  -4  -8    0.55    0.16
   0  -4  -8    0.58    0.18
   0  -4   8    0.46    0.16
   0  -4   8    0.44    0.15
   0   4  -8    0.46    0.15
   0   4  -8    0.68    0.19
   0   4   8    0.66    0.20
   0   4   8    0.99    0.21
  -1  -4  -8    2.85    0.37
  -1  -4  -8    3.16    0.36
   1  -4   8    3.40    0.38
  -1   4  -8    3.43    0.40
  -1   4  -8    3.52    0.43
   1   4   8    3.74    0.40
   1   4   8    3.55    0.44
  -2  -4  -8    2.76    0.35
   2  -4   8    3.65    0.42
  -2  -4  -8    3.46    0.42
   2  -4   8    3.24    0.37
   2   4   8    3.36    0.44
  -2   4  -8    3.17    0.37
  -2   4  -8    3.48    0.44
   2   4   8    3.15    0.36
  -3  -4  -8    4.30    0.49
   3  -4   8    4.22    0.45
  -3  -4  -8    4.32    0.43
   3  -4   8    3.72    0.44
   3   4   8    4.45    0.43
  -3   4  -8    4.61    0.37
  -3   4  -8    5.10    0.54
   4  -4   8    2.28    0.36
  -4  -4  -8    2.57    0.40
   4  -4   8    1.79    0.33
  -4  -4  -8    2.45    0.34
   4   4   8    2.23    0.33
  -4   4  -8    2.27    0.37
   5  -4   8    1.19    0.28
  -5  -4  -8    0.74    0.22
  -5  -4  -8    0.75    0.21
  -5   4  -8    1.40    0.32
   5   4   8    0.72    0.19
   6  -4   8    0.25    0.18
  -6  -4  -8    0.49    0.24
  -6   4  -8    0.47    0.21
  -7  -4  -8    0.76    0.25
  -7   4  -8    0.93    0.30
   8  -5  -8    0.34    0.21
  -8  -5   8    0.07    0.19
   8   5  -8    0.13    0.16
   8   5  -8    0.18    0.19
  -8   5   8    0.55    0.25
   7  -5  -8    0.19    0.17
  -7  -5   8    0.33    0.20
   7   5  -8    0.46    0.21
   7   5  -8    0.43    0.21
  -7   5   8    0.26    0.18
   6  -5  -8    1.11    0.25
  -6  -5   8    0.42    0.19
   6   5  -8    0.78    0.26
   6   5  -8    0.62    0.22
  -6   5   8    0.70    0.24
   5  -5  -8    0.68    0.21
  -5  -5   8    0.27    0.17
  -5   5   8    0.55    0.20
   5   5  -8    0.52    0.20
   5   5  -8    0.40    0.17
  -4  -5   8    1.14    0.26
   4  -5  -8    1.01    0.24
   4   5  -8    1.36    0.31
  -4   5   8    1.00    0.26
   4   5  -8    1.34    0.27
   3  -5  -8    1.94    0.28
  -3  -5   8    2.53    0.39
   3  -5  -8    1.88    0.30
   3   5  -8    1.74    0.33
  -3   5   8    1.25    0.26
   3   5  -8    1.86    0.30
   2  -5  -8    1.13    0.23
   2  -5  -8    0.96    0.22
  -2  -5   8    0.85    0.23
   2   5  -8    1.42    0.24
   2   5  -8    1.41    0.28
  -2   5   8    0.65    0.19
  -2   5   8    1.90    0.35
   2   5  -8    1.05    0.25
   1  -5  -8    4.98    0.40
   1  -5  -8    5.28    0.41
  -1  -5   8    6.07    0.40
  -1  -5   8    6.07    0.48
  -1   5   8    4.71    0.48
   1   5  -8    5.47    0.56
   1   5  -8    5.31    0.41
   1   5  -8    5.26    0.54
  -1   5   8    4.17    0.50
   0  -5  -8    0.90    0.22
   0  -5   8    0.91    0.24
   0  -5   8    1.08    0.22
   0  -5  -8    0.95    0.22
   0   5  -8    0.93    0.23
   0   5   8    0.84    0.20
   0   5  -8    1.29    0.27
   1  -5   8    0.86    0.22
  -1  -5  -8    0.59    0.18
  -1  -5  -8    0.44    0.17
   1  -5   8    0.52    0.20
  -1   5  -8    0.73    0.20
  -1   5  -8    0.57    0.21
   1   5   8    0.55    0.17
  -2  -5  -8    1.37    0.27
   2  -5   8    1.22    0.26
  -2  -5  -8    0.77    0.22
  -2   5  -8    1.74    0.29
   2   5   8    1.36    0.24
  -2   5  -8    1.28    0.29
   3  -5   8    0.57    0.20
  -3  -5  -8    1.16    0.26
  -3  -5  -8    1.41    0.31
   3   5   8    1.59    0.29
  -3   5  -8    1.14    0.28
  -4  -5  -8    0.09    0.12
  -4  -5  -8   -0.01    0.13
   4  -5   8    0.05    0.12
   4   5   8   -0.04    0.10
  -4   5  -8   -0.06    0.10
   5  -5   8    2.16    0.37
  -5  -5  -8    2.46    0.42
  -5  -5  -8    1.64    0.31
   5   5   8    3.12    0.44
  -5   5  -8    2.97    0.46
  -6  -5  -8    0.14    0.18
  -6   5  -8    0.21    0.20
   6   5   8    0.19    0.18
  -7  -6   8    0.74    0.30
   7  -6  -8    0.71    0.26
   7   6  -8    0.22    0.15
   7   6  -8    0.20    0.21
  -7   6   8    0.62    0.29
  -6  -6   8   -0.05    0.15
   6  -6  -8    0.16    0.16
   6   6  -8    0.22    0.18
  -6   6   8    0.33    0.20
   6   6  -8    0.54    0.22
   5  -6  -8    1.32    0.29
  -5  -6   8    1.47    0.32
   5   6  -8    1.99    0.35
   5   6  -8    1.96    0.38
  -5   6   8    1.56    0.35
   4  -6  -8    0.17    0.15
  -4  -6   8    0.22    0.15
  -4   6   8    0.19    0.13
   4   6  -8    0.16    0.14
   4   6  -8    0.05    0.11
   3  -6  -8    3.00    0.41
  -3  -6   8    4.01    0.50
  -3   6   8    4.37    0.53
   3   6  -8    4.22    0.47
   3   6  -8    3.80    0.50
  -2  -6   8    1.67    0.33
   2  -6  -8    1.22    0.27
   2  -6  -8    1.93    0.32
   2   6  -8    1.52    0.33
  -2   6   8    1.24    0.27
   2   6  -8    1.44    0.26
   2   6  -8    0.88    0.24
   1  -6  -8    8.47    0.56
  -1  -6   8    6.21    0.63
   1  -6  -8    7.92    0.53
   1   6  -8    7.17    0.57
  -1   6   8    6.77    0.51
   1   6  -8    6.88    0.55
   0  -6   8    2.10    0.33
   0  -6  -8    2.15    0.36
   0  -6   8    1.72    0.34
   0  -6  -8    2.31    0.35
   0   6  -8    1.93    0.36
   0   6  -8    2.28    0.38
   0   6   8    1.86    0.31
  -1  -6  -8   -0.02    0.12
  -1  -6  -8    0.61    0.20
   1  -6   8    0.29    0.18
   1  -6   8    0.27    0.16
  -1   6  -8    0.15    0.13
  -1   6  -8    0.29    0.19
   1   6   8    0.28    0.14
  -2  -6  -8    0.56    0.22
  -2  -6  -8    1.26    0.28
   2  -6   8    1.06    0.26
  -2   6  -8    0.97    0.28
  -3  -6  -8    0.70    0.21
  -3  -6  -8    0.57    0.21
   3  -6   8    0.70    0.21
  -3   6  -8    0.20    0.18
   3   6   8    0.39    0.17
  -4  -6  -8    0.15    0.17
  -4  -6  -8   -0.07    0.12
   4  -6   8   -0.09    0.15
   4   6   8    0.17    0.17
  -4   6  -8    0.05    0.18
  -5  -6  -8    1.85    0.37
  -5  -6  -8    1.71    0.39
  -5   6  -8    2.17    0.42
   5   6   8    1.78    0.36
   6  -7  -8    0.18    0.20
  -6  -7   8   -0.06    0.17
   6   7  -8    0.57    0.25
  -5  -7   8    0.16    0.21
   5  -7  -8    0.36    0.21
   5   7  -8    0.07    0.16
   5   7  -8    0.35    0.22
  -5   7   8    0.32    0.18
  -4  -7   8    1.84    0.37
   4  -7  -8    2.24    0.38
   4   7  -8    2.14    0.44
   4   7  -8    1.83    0.36
  -4   7   8    1.69    0.36
  -3  -7   8    0.76    0.25
   3  -7  -8    0.68    0.22
   3   7  -8    0.67    0.23
   3   7  -8    0.59    0.25
  -3   7   8    0.71    0.24
  -2  -7   8    1.10    0.28
   2  -7  -8    1.01    0.25
   2   7  -8    1.13    0.32
  -2   7   8    1.15    0.29
   2   7  -8    1.38    0.31
  -1  -7   8    1.38    0.32
   1  -7  -8    1.74    0.33
   1  -7  -8    1.04    0.27
   1   7  -8    1.84    0.37
   1   7  -8    1.73    0.37
  -1   7   8    1.41    0.32
   0  -7   8    0.08    0.14
   0  -7  -8    0.08    0.14
   0  -7  -8    0.10    0.13
   0   7  -8    0.10    0.15
   0   7   8    0.06    0.12
   0   7  -8    0.11    0.16
  -1  -7  -8    0.22    0.18
   1  -7   8    0.16    0.15
   1  -7   8    0.03    0.15
  -1  -7  -8    0.22    0.17
  -1   7  -8    0.02    0.16
   2  -7   8    0.55    0.24
   2  -7   8    0.47    0.23
  -2  -7  -8    0.27    0.18
  -2  -7  -8    0.22    0.15
  -2   7  -8    0.85    0.28
   3  -7   8    1.65    0.36
  -3  -7  -8    0.77    0.27
  -3  -7  -8    1.57    0.35
  -3   7  -8    1.77    0.39
  -2  -8   8   -0.07    0.16
   2  -8  -8   -0.12    0.13
   2   8  -8    0.06    0.14
  -2   8   8   -0.10    0.16
   1  -8  -8    0.13    0.19
  -1  -8   8   -0.10    0.14
   1   8  -8    0.22    0.17
  -1   8   8    0.00    0.16
   1   8  -8   -0.12    0.15
   0  -8   8    0.27    0.18
   0  -8  -8    0.00    0.17
   0   8  -8    0.15    0.16
 -10   0   9    0.23    0.19
  10   0  -9    0.56    0.22
   9   0  -9    0.11    0.15
  -9   0   9    0.32    0.16
   8   0  -9    0.58    0.19
  -8   0   9    0.28    0.16
  -7   0   9    1.69    0.30
   7   0  -9    1.01    0.24
  -7   0   9    1.59    0.30
   6   0  -9    1.09    0.21
  -6   0   9    1.81    0.26
  -6   0   9    1.33    0.25
   6   0  -9    1.88    0.30
   5   0  -9    1.86    0.27
  -5   0   9    2.19    0.27
   5   0  -9    2.43    0.32
  -5   0   9    1.78    0.27
  -4   0   9   -0.03    0.06
  -4   0   9   -0.01    0.06
   4   0  -9   -0.01    0.06
  -4   0   9   -0.05    0.06
   4   0  -9    0.08    0.08
  -3   0   9    4.20    0.31
  -3   0   9    4.16    0.28
   3   0  -9    4.32    0.32
   3   0  -9    4.30    0.32
  -3   0   9    4.42    0.28
  -2   0   9    2.71    0.27
   2   0  -9    2.69    0.31
  -2   0   9    2.91    0.31
  -2   0   9    2.76    0.23
   2   0  -9    2.53    0.29
  -1   0   9   26.33    0.88
  -1   0   9   27.30    0.83
   1   0  -9   27.28    0.78
  -1   0   9   26.78    0.78
   1   0  -9   27.35    0.90
   1   0  -9   26.57    0.82
   0   0   9   33.74    0.92
   0   0   9   33.41    1.05
   0   0  -9   33.02    0.92
   0   0  -9   35.27    1.07
   0   0  -9   35.12    0.95
   0   0   9   36.08    1.04
   1   0   9    8.43    0.47
  -1   0  -9    8.53    0.47
  -1   0  -9    8.12    0.41
  -1   0  -9    7.92    0.38
   1   0   9    8.23    0.48
   2   0   9   18.90    0.78
  -2   0  -9   19.55    0.78
  -2   0  -9   20.16    0.67
  -2   0  -9   20.36    0.71
   2   0   9   20.14    0.81
   3   0   9    2.59    0.36
  -3   0  -9    2.23    0.29
  -3   0  -9    2.43    0.33
   3   0   9    2.87    0.37
   4   0   9    1.32    0.27
   4   0   9    0.87    0.24
  -4   0  -9    1.10    0.22
  -4   0  -9    0.57    0.17
   5   0   9    0.44    0.19
  -5   0  -9    0.45    0.18
  -5   0  -9    0.48    0.17
  -6   0  -9    0.01    0.12
   6   0   9    0.03    0.14
   7   0   9   -0.21    0.13
 -10  -1   9    0.60    0.23
  10  -1  -9    0.77    0.25
  10   1  -9    0.11    0.17
 -10   1   9    0.26    0.18
  -9  -1   9    3.19    0.47
   9  -1  -9    3.92    0.49
   9   1  -9    2.98    0.44
  -9   1   9    3.85    0.49
   8  -1  -9    0.21    0.15
  -8  -1   9    0.18    0.16
   8   1  -9    0.35    0.15
  -8   1   9    0.31    0.16
   7  -1  -9    0.65    0.19
  -7  -1   9    1.28    0.27
  -7   1   9    0.89    0.21
   7   1  -9    1.13    0.26
  -7   1   9    0.62    0.18
   7   1  -9    0.86    0.21
   6  -1  -9    0.09    0.09
   6  -1  -9    0.13    0.09
  -6  -1   9   -0.03    0.09
  -6  -1   9    0.06    0.10
   6   1  -9    0.00    0.09
   6   1  -9    0.22    0.12
  -6   1   9   -0.02    0.09
  -6   1   9    0.19    0.11
   5  -1  -9    0.87    0.18
   5  -1  -9    1.44    0.26
   5  -1  -9    1.09    0.19
  -5  -1   9    1.20    0.23
  -5  -1   9    0.46    0.13
   5   1  -9    0.62    0.18
   5   1  -9    0.81    0.19
  -5   1   9    0.81    0.18
  -5   1   9    0.93    0.19
  -5   1   9    0.98    0.18
   4  -1  -9    2.02    0.26
   4  -1  -9    2.42    0.30
   4  -1  -9    1.83    0.24
  -4  -1   9    2.49    0.28
  -4  -1   9    2.08    0.28
  -4   1   9    2.01    0.24
  -4   1   9    1.90    0.27
   4   1  -9    1.72    0.26
   4   1  -9    2.02    0.29
  -4   1   9    2.10    0.26
   3  -1  -9    1.16    0.21
  -3  -1   9    1.12    0.19
   3  -1  -9    1.08    0.19
  -3  -1   9    1.29    0.21
  -3   1   9    1.26    0.18
  -3   1   9    1.21    0.20
   3   1  -9    1.52    0.24
   3   1  -9    1.31    0.22
  -3   1   9    0.91    0.19
  -2  -1   9    3.68    0.23
   2  -1  -9    3.72    0.30
  -2  -1   9    3.94    0.30
   2  -1  -9    3.33    0.34
  -2  -1   9    3.35    0.27
  -2   1   9    3.51    0.28
   2   1  -9    3.47    0.36
   2   1  -9    3.27    0.32
  -2   1   9    3.39    0.35
  -2   1   9    3.07    0.21
  -1  -1   9   16.03    0.63
   1  -1  -9   16.93    0.64
   1  -1  -9   16.96    0.68
  -1  -1   9   16.02    0.56
  -1  -1   9   17.37    0.67
  -1   1   9   16.46    0.66
   1   1  -9   16.66    0.68
  -1   1   9   17.05    0.68
   1   1  -9   16.46    0.60
   1   1  -9   16.55    0.63
  -1   1   9   16.26    0.50
   0  -1   9    3.48    0.26
   0  -1  -9    4.00    0.33
   0  -1   9    3.43    0.36
   0  -1  -9    3.60    0.24
   0  -1  -9    3.01    0.30
   0  -1   9    3.24    0.32
   0   1  -9    3.33    0.24
   0   1  -9    3.64    0.37
   0   1   9    3.01    0.33
   0   1  -9    3.49    0.28
   0   1   9    4.05    0.38
  -1  -1  -9   14.32    0.57
  -1  -1  -9   15.83    0.69
   1  -1   9   14.40    0.66
   1  -1   9   15.17    0.63
  -1   1  -9   15.03    0.62
   1   1   9   15.20    0.66
  -1   1  -9   14.45    0.63
   1   1   9   14.88    0.67
  -1   1  -9   15.02    0.51
  -2  -1  -9    5.89    0.34
   2  -1   9    5.99    0.41
  -2  -1  -9    5.77    0.41
   2  -1   9    5.67    0.42
   2   1   9    5.81    0.41
  -2   1  -9    6.14    0.40
   2   1   9    6.38    0.45
  -2   1  -9    6.64    0.43
   3  -1   9   12.75    0.65
   3  -1   9   12.70    0.66
  -3  -1  -9   12.67    0.64
  -3   1  -9   13.12    0.63
   3   1   9   12.55    0.62
   3   1   9   11.88    0.67
  -3   1  -9   12.72    0.61
   4  -1   9    7.69    0.52
   4  -1   9    7.60    0.55
  -4  -1  -9    7.84    0.51
   4   1   9    7.31    0.49
   4   1   9    6.53    0.69
  -4   1  -9    6.51    0.44
  -4   1  -9    6.67    0.47
   5  -1   9    0.61    0.21
  -5  -1  -9    1.05    0.26
   5   1   9    0.73    0.20
  -5   1  -9    0.77    0.21
  -5   1  -9    0.49    0.19
   6  -1   9    0.56    0.23
  -6  -1  -9    0.44    0.18
   6   1   9    0.70    0.23
  -6   1  -9    0.61    0.20
   7  -1   9    0.43    0.23
  -7   1  -9    0.60    0.24
 -10  -2   9    0.22    0.17
  10  -2  -9    0.17    0.18
  10   2  -9    0.02    0.16
   9  -2  -9    0.58    0.20
  -9  -2   9    0.84    0.27
   9   2  -9    0.64    0.23
  -9   2   9    0.97    0.24
  -8  -2   9    3.73    0.49
   8  -2  -9    3.49    0.44
   8   2  -9    4.57    0.50
  -8   2   9    3.86    0.45
   8   2  -9    3.77    0.49
  -8   2   9    3.77    0.45
   7  -2  -9    9.51    0.58
  -7  -2   9   10.93    0.66
  -7   2   9    9.86    0.59
  -7   2   9    9.52    0.61
   7   2  -9   10.77    0.65
   7   2  -9    9.96    0.60
  -6  -2   9    2.27    0.35
   6  -2  -9    2.76    0.34
   6  -2  -9    2.22    0.34
   6   2  -9    2.82    0.38
   6   2  -9    2.89    0.39
  -6   2   9    1.63    0.29
   5  -2  -9    0.16    0.11
  -5  -2   9    0.37    0.15
   5  -2  -9    0.35    0.12
   5  -2  -9    0.28    0.13
   5   2  -9    0.19    0.13
  -5   2   9    0.38    0.15
   5   2  -9    0.10    0.12
  -5   2   9    0.16    0.12
   4  -2  -9    1.31    0.23
   4  -2  -9    2.04    0.29
  -4  -2   9    2.00    0.29
  -4  -2   9    1.99    0.24
   4  -2  -9    2.58    0.29
   4   2  -9    1.91    0.30
  -4   2   9    1.82    0.28
  -4   2   9    2.14    0.30
   4   2  -9    2.05    0.29
  -3  -2   9    3.42    0.33
   3  -2  -9    3.03    0.33
  -3  -2   9    3.46    0.37
   3  -2  -9    3.00    0.34
  -3   2   9    3.39    0.37
  -3   2   9    2.07    0.29
   3   2  -9    2.29    0.32
   3   2  -9    3.23    0.35
   2  -2  -9    0.67    0.17
   2  -2  -9    1.10    0.20
  -2  -2   9    1.05    0.21
  -2  -2   9    1.05    0.19
  -2   2   9    1.08    0.21
   2   2  -9    0.76    0.19
   2   2  -9    1.00    0.20
  -2   2   9    0.90    0.20
   2   2  -9    1.11    0.19
  -1  -2   9    3.57    0.37
   1  -2  -9    3.77    0.30
  -1  -2   9    4.24    0.39
   1  -2  -9    3.43    0.37
   1   2  -9    3.38    0.38
   1   2  -9    3.59    0.37
  -1   2   9    3.74    0.40
  -1   2   9    4.16    0.41
   1   2  -9    3.46    0.26
   0  -2   9    5.20    0.31
   0  -2   9    4.88    0.36
   0  -2  -9    5.53    0.39
   0  -2   9    5.38    0.37
   0  -2  -9    4.45    0.33
   0   2  -9    4.73    0.36
   0   2   9    4.78    0.38
   0   2   9    4.63    0.35
   0   2  -9    5.15    0.29
   0   2  -9    5.25    0.38
  -1  -2  -9    2.64    0.29
   1  -2   9    2.56    0.33
   1  -2   9    2.24    0.27
  -1  -2  -9    2.76    0.36
   1   2   9    2.70    0.35
   1   2   9    2.41    0.31
  -1   2  -9    2.72    0.34
  -1   2  -9    3.15    0.36
  -2  -2  -9   13.65    0.67
   2  -2   9   13.59    0.63
   2  -2   9   12.52    0.64
  -2  -2  -9   14.27    0.59
  -2   2  -9   12.51    0.60
   2   2   9   12.83    0.69
   2   2   9   13.68    0.63
  -2   2  -9   13.37    0.65
   3  -2   9    4.41    0.46
  -3  -2  -9    5.13    0.35
  -3  -2  -9    4.86    0.40
   3  -2   9    4.18    0.45
   3   2   9    5.02    0.53
  -3   2  -9    4.78    0.47
  -3   2  -9    4.99    0.37
   3   2   9    4.76    0.45
   4  -2   9    2.29    0.36
  -4  -2  -9    1.98    0.33
   4  -2   9    1.49    0.29
  -4   2  -9    2.05    0.30
   4   2   9    2.19    0.33
  -4   2  -9    1.90    0.32
  -5  -2  -9    0.86    0.23
   5  -2   9    0.69    0.23
   5   2   9    0.59    0.19
  -5   2  -9    0.90    0.23
   6  -2   9   -0.10    0.12
  -6  -2  -9   -0.12    0.11
  -6   2  -9   -0.03    0.11
  -7  -2  -9    0.55    0.23
   7  -2   9    0.59    0.26
  -7   2  -9    0.63    0.25
  -9  -3   9    0.85    0.28
   9  -3  -9    0.99    0.27
  -9   3   9    0.86    0.26
   9   3  -9    1.02    0.29
  -8  -3   9    0.01    0.15
   8  -3  -9    0.40    0.15
   8   3  -9    0.45    0.21
   8   3  -9    0.20    0.17
  -8   3   9    0.25    0.18
   7  -3  -9    1.60    0.37
  -7  -3   9    1.62    0.33
   7  -3  -9    1.25    0.28
  -7   3   9    1.48    0.30
   7   3  -9    1.11    0.27
   7   3  -9    2.03    0.35
   6  -3  -9    0.40    0.17
  -6  -3   9    0.37    0.17
   6  -3  -9    0.18    0.13
   6   3  -9    0.10    0.11
  -6   3   9    0.16    0.12
   6   3  -9    0.25    0.15
   5  -3  -9    7.93    0.52
  -5  -3   9    8.87    0.56
   5  -3  -9    8.40    0.54
   5   3  -9    7.90    0.52
  -5   3   9    8.61    0.57
   5   3  -9    9.41    0.58
  -5   3   9    9.15    0.56
  -4  -3   9    3.08    0.38
   4  -3  -9    3.09    0.39
   4  -3  -9    2.89    0.32
   4  -3  -9    2.89    0.36
  -4   3   9    3.35    0.40
   4   3  -9    4.03    0.43
  -4   3   9    3.69    0.43
   4   3  -9    3.65    0.45
  -3  -3   9    6.99    0.39
   3  -3  -9    5.05    0.40
  -3  -3   9    5.88    0.43
   3  -3  -9    7.57    0.44
   3  -3  -9    6.02    0.45
  -3   3   9    6.08    0.43
   3   3  -9    6.55    0.42
  -3   3   9    5.41    0.43
   3   3  -9    5.73    0.44
  -2  -3   9    3.26    0.38
  -2  -3   9    3.16    0.33
   2  -3  -9    3.03    0.35
   2  -3  -9    2.94    0.35
   2   3  -9    2.22    0.32
  -2   3   9    2.25    0.32
   2   3  -9    3.49    0.36
   2   3  -9    3.00    0.39
  -2   3   9    3.66    0.40
   1  -3  -9    0.15    0.10
   1  -3  -9    0.05    0.10
  -1  -3   9    0.34    0.14
  -1  -3   9   -0.02    0.09
   1   3  -9    0.15    0.09
   1   3  -9    0.11    0.10
  -1   3   9    0.24    0.13
   1   3  -9    0.19    0.12
  -1   3   9    0.06    0.09
   0  -3  -9    4.96    0.39
   0  -3  -9    4.97    0.36
   0  -3   9    4.85    0.39
   0  -3   9    4.11    0.41
   0   3  -9    4.87    0.40
   0   3  -9    4.66    0.38
   0   3   9    4.87    0.41
   0   3   9    4.39    0.43
  -1  -3  -9   16.24    0.75
  -1  -3  -9   15.61    0.67
   1  -3   9   15.29    0.71
   1   3   9   17.02    0.72
  -1   3  -9   17.14    0.78
   1   3   9   18.60    0.84
  -1   3  -9   15.48    0.71
   2  -3   9    3.00    0.38
   2  -3   9    3.53    0.38
  -2  -3  -9    3.26    0.35
  -2  -3  -9    3.06    0.39
   2   3   9    3.64    0.39
  -2   3  -9    3.12    0.40
  -2   3  -9    3.64    0.40
   2   3   9    3.16    0.42
   3  -3   9    0.16    0.13
   3  -3   9    0.47    0.20
  -3  -3  -9    0.52    0.15
  -3  -3  -9    0.56    0.20
  -3   3  -9    0.20    0.14
   3   3   9    0.54    0.17
  -3   3  -9    0.42    0.15
   4  -3   9    0.77    0.22
   4  -3   9    0.88    0.26
  -4  -3  -9    0.60    0.17
  -4  -3  -9    0.96    0.25
  -4   3  -9    0.43    0.18
   4   3   9    0.50    0.17
   5  -3   9    0.27    0.18
  -5  -3  -9    0.21    0.13
  -5   3  -9    0.05    0.11
   6  -3   9    0.02    0.16
  -6  -3  -9   -0.09    0.13
  -6   3  -9    0.16    0.14
  -7  -3  -9    0.01    0.15
  -7   3  -9    0.29    0.20
   9  -4  -9    0.21    0.18
  -9  -4   9   -0.35    0.15
  -9   4   9    0.15    0.19
   9   4  -9   -0.08    0.19
   9   4  -9    0.22    0.20
  -8  -4   9    0.03    0.19
   8  -4  -9    0.59    0.23
   8   4  -9    0.09    0.16
   8   4  -9    0.36    0.21
  -8   4   9    0.61    0.25
  -7  -4   9    0.27    0.22
   7  -4  -9    0.65    0.22
   7   4  -9    0.37    0.18
   7   4  -9    0.27    0.15
  -7   4   9    0.49    0.20
   6  -4  -9    0.27    0.15
  -6  -4   9    0.14    0.15
   6   4  -9    0.29    0.16
   6   4  -9    0.42    0.18
  -6   4   9    0.24    0.17
  -5  -4   9    2.15    0.36
   5  -4  -9    2.38    0.36
   5  -4  -9    0.88    0.28
   5   4  -9    1.77    0.34
  -5   4   9    2.17    0.36
   5   4  -9    1.85    0.33
  -5   4   9    1.75    0.39
   4  -4  -9    1.30    0.27
   4  -4  -9    1.55    0.25
  -4  -4   9    1.48    0.29
   4  -4  -9    1.33    0.28
  -4   4   9    1.24    0.27
  -4   4   9    0.92    0.24
   4   4  -9    1.23    0.25
   4   4  -9    1.07    0.27
  -3  -4   9    1.24    0.26
   3  -4  -9    1.82    0.33
   3  -4  -9    1.03    0.21
   3  -4  -9    1.11    0.23
  -3   4   9    1.30    0.27
  -3   4   9    1.12    0.26
   3   4  -9    1.40    0.25
   3   4  -9    1.28    0.27
   2  -4  -9    0.23    0.13
   2  -4  -9    0.16    0.12
  -2  -4   9    0.22    0.13
  -2  -4   9    0.25    0.12
  -2   4   9    0.44    0.15
  -2   4   9    0.36    0.18
   2   4  -9    0.15    0.09
   2   4  -9    0.52    0.17
   2   4  -9    0.00    0.09
  -1  -4   9    4.97    0.50
   1  -4  -9    4.48    0.46
   1  -4  -9    4.91    0.39
  -1  -4   9    6.26    0.41
   1   4  -9    5.47    0.35
   1   4  -9    5.09    0.51
  -1   4   9    4.35    0.45
   1   4  -9    5.21    0.53
  -1   4   9    4.62    0.51
   0  -4  -9    1.97    0.31
   0  -4   9    2.35    0.35
   0  -4  -9    2.42    0.33
   0  -4   9    2.91    0.36
   0   4   9    2.04    0.30
   0   4  -9    2.38    0.34
   0   4   9    2.95    0.42
   0   4  -9    3.15    0.41
  -1  -4  -9    1.28    0.25
   1  -4   9    0.89    0.24
   1  -4   9    1.27    0.25
  -1  -4  -9    1.39    0.27
   1   4   9    1.28    0.29
   1   4   9    1.33    0.26
  -1   4  -9    1.29    0.25
  -1   4  -9    1.51    0.29
   2  -4   9    0.85    0.24
  -2  -4  -9    0.79    0.23
  -2  -4  -9    1.18    0.23
   2   4   9    0.90    0.21
  -2   4  -9    0.81    0.21
  -2   4  -9    1.14    0.27
   3  -4   9    0.30    0.14
  -3  -4  -9    0.69    0.22
  -3  -4  -9    0.77    0.20
  -3   4  -9    0.86    0.21
   3   4   9    1.19    0.25
  -3   4  -9    0.23    0.16
  -4  -4  -9    0.33    0.18
  -4  -4  -9    0.40    0.17
   4  -4   9    0.38    0.19
  -4   4  -9    0.65    0.22
  -5  -4  -9   -0.01    0.15
   5  -4   9   -0.08    0.13
  -5   4  -9   -0.08    0.09
  -6  -4  -9   -0.09    0.13
   6  -4   9   -0.11    0.15
  -6   4  -9    0.16    0.18
  -8  -5   9    0.87    0.31
   8  -5  -9    0.92    0.28
  -8   5   9    0.55    0.28
   8   5  -9    0.87    0.28
   8   5  -9    0.50    0.27
  -7  -5   9    0.14    0.19
   7  -5  -9    0.14    0.17
   7   5  -9    0.24    0.21
  -7   5   9    0.18    0.21
   7   5  -9    0.35    0.19
   6  -5  -9    0.64    0.23
  -6  -5   9    0.51    0.23
  -6   5   9    0.84    0.27
   6   5  -9    0.71    0.23
   6   5  -9    0.78    0.26
  -5  -5   9    0.26    0.19
   5  -5  -9    0.36    0.17
   5   5  -9    0.69    0.23
   5   5  -9    0.40    0.18
  -5   5   9    0.58    0.21
  -4  -5   9    0.75    0.24
   4  -5  -9    0.66    0.20
  -4   5   9    0.28    0.15
   4   5  -9    0.68    0.23
   4   5  -9    0.60    0.20
   3  -5  -9    1.14    0.24
  -3  -5   9    1.64    0.33
   3  -5  -9    1.36    0.27
   3   5  -9    0.93    0.22
  -3   5   9    0.96    0.25
   3   5  -9    1.17    0.28
  -2  -5   9    0.80    0.22
   2  -5  -9    0.55    0.17
   2  -5  -9    0.79    0.21
   2   5  -9    1.11    0.23
   2   5  -9    0.74    0.24
  -2   5   9    0.74    0.22
   2   5  -9    1.03    0.24
   1  -5  -9    6.53    0.48
   1  -5  -9    6.65    0.49
  -1  -5   9    6.78    0.52
  -1  -5   9    6.55    0.44
   1   5  -9    5.90    0.60
   1   5  -9    6.69    0.52
  -1   5   9    7.05    0.50
   0  -5  -9    0.08    0.12
   0  -5   9    0.20    0.14
   0  -5   9    0.05    0.11
   0  -5  -9    0.06    0.11
   0   5   9    0.04    0.10
   0   5  -9    0.00    0.07
   0   5  -9    0.20    0.16
  -1  -5  -9    1.00    0.26
  -1  -5  -9    0.56    0.19
   1  -5   9    0.63    0.20
   1  -5   9    0.93    0.23
  -1   5  -9    0.60    0.20
   1   5   9    1.09    0.23
  -1   5  -9    0.54    0.19
   2  -5   9    1.71    0.32
  -2  -5  -9    1.42    0.30
  -2  -5  -9    1.56    0.29
  -2   5  -9    1.35    0.28
  -2   5  -9    1.69    0.35
   2   5   9    1.67    0.29
  -3  -5  -9    1.88    0.33
  -3  -5  -9    2.24    0.39
   3  -5   9    2.27    0.38
  -3   5  -9    2.33    0.41
  -4  -5  -9    0.34    0.18
  -4  -5  -9    0.67    0.24
   4  -5   9    0.82    0.25
  -4   5  -9    0.66    0.23
  -5  -5  -9    0.75    0.22
  -5  -5  -9    0.36    0.21
   5  -5   9    0.77    0.26
  -5   5  -9    1.11    0.32
  -7  -6   9    0.11    0.18
   7  -6  -9    0.22    0.19
   7   6  -9    0.09    0.21
   7   6  -9    0.12    0.19
  -6  -6   9    0.95    0.30
   6  -6  -9    1.62    0.34
   6   6  -9    1.71    0.37
   6   6  -9    1.45    0.36
  -6   6   9    1.51    0.36
  -5  -6   9    0.36    0.22
   5  -6  -9    0.40    0.20
  -5   6   9    0.90    0.28
   5   6  -9    0.77    0.28
   5   6  -9    0.89    0.26
  -4  -6   9    0.03    0.08
   4  -6  -9    0.00    0.08
  -4   6   9    0.04    0.15
   4   6  -9    0.36    0.21
   4   6  -9    0.03    0.12
   3  -6  -9    1.58    0.31
  -3  -6   9    0.61    0.22
   3   6  -9    1.52    0.30
   3   6  -9    1.09    0.30
  -3   6   9    1.65    0.34
   2  -6  -9    0.06    0.14
  -2  -6   9    0.19    0.14
   2  -6  -9    0.21    0.16
   2   6  -9    0.23    0.19
  -2   6   9   -0.03    0.10
   2   6  -9    0.26    0.17
  -1  -6   9    0.05    0.13
   1  -6  -9   -0.03    0.11
   1  -6  -9    0.03    0.09
   1   6  -9   -0.07    0.12
   1   6  -9    0.00    0.12
  -1   6   9    0.12    0.13
   0  -6  -9    0.16    0.13
   0  -6   9    0.01    0.13
   0  -6  -9    0.02    0.14
   0  -6   9   -0.13    0.11
   0   6   9    0.29    0.18
   0   6  -9   -0.03    0.11
   0   6  -9   -0.04    0.13
  -1  -6  -9    0.57    0.21
   1  -6   9    0.42    0.19
  -1  -6  -9    0.41    0.16
   1  -6   9    0.76    0.25
  -1   6  -9    0.68    0.21
   1   6   9    0.49    0.17
  -1   6  -9    0.50    0.20
   2  -6   9    0.10    0.15
  -2  -6  -9    0.05    0.14
   2  -6   9    0.15    0.19
  -2  -6  -9    0.35    0.19
  -2   6  -9    0.09    0.16
   3  -6   9    1.92    0.38
  -3  -6  -9    1.88    0.35
  -3  -6  -9    2.03    0.39
  -3   6  -9    1.23    0.33
  -4  -6  -9    0.27    0.21
  -4  -6  -9    0.22    0.17
   4  -6   9   -0.10    0.11
  -4   6  -9   -0.01    0.18
   5  -7  -9    1.23    0.31
  -5  -7   9    0.46    0.28
   5   7  -9    1.26    0.33
  -4  -7   9    0.24    0.19
   4  -7  -9   -0.04    0.12
   4   7  -9    0.09    0.18
   4   7  -9    0.10    0.15
  -4   7   9    0.07    0.17
   3  -7  -9    3.60    0.49
  -3  -7   9    4.05    0.56
  -3   7   9    3.15    0.48
   3   7  -9    4.14    0.60
  -2  -7   9    0.83    0.26
   2  -7  -9    0.58    0.21
  -2   7   9    0.23    0.19
   2   7  -9    0.23    0.19
  -1  -7   9    0.08    0.15
   1  -7  -9    0.60    0.22
   1  -7  -9    0.24    0.19
   1   7  -9    0.06    0.16
  -1   7   9    0.06    0.14
   1   7  -9    0.22    0.21
   0  -7  -9    0.49    0.21
   0  -7  -9    0.22    0.14
   0  -7   9    0.70    0.24
   0   7  -9    0.86    0.27
   0   7   9    0.50    0.20
   0   7  -9    0.69    0.25
   1  -7   9   -0.15    0.17
  -1  -7  -9   -0.16    0.08
   1  -7   9    0.17    0.21
  -1  -7  -9    0.23    0.15
  -1   7  -9    0.07    0.19
   2  -7   9    0.31    0.19
  -2  -7  -9   -0.05    0.12
   2  -7   9    0.02    0.12
  -2  -7  -9    0.12    0.17
  -2   7  -9   -0.11    0.15
  10   0 -10    0.40    0.20
 -10   0  10    0.11    0.18
  -9   0  10    0.96    0.27
   9   0 -10    0.70    0.25
   8   0 -10    0.43    0.19
  -8   0  10    1.03    0.27
   7   0 -10    0.01    0.09
   7   0 -10   -0.01    0.10
  -7   0  10   -0.07    0.11
  -6   0  10    0.08    0.10
  -6   0  10    0.23    0.14
   6   0 -10    0.13    0.11
   6   0 -10    0.28    0.15
   5   0 -10    1.71    0.28
   5   0 -10    1.38    0.25
  -5   0  10    1.76    0.26
  -5   0  10    1.83    0.27
  -4   0  10    0.63    0.16
   4   0 -10    0.26    0.12
   4   0 -10    0.50    0.15
  -4   0  10    0.52    0.16
   3   0 -10    1.97    0.29
  -3   0  10    1.50    0.21
  -3   0  10    1.71    0.26
   3   0 -10    1.79    0.27
   2   0 -10    0.23    0.11
  -2   0  10    0.55    0.16
  -2   0  10    0.24    0.11
  -2   0  10    0.40    0.12
   2   0 -10    0.21    0.10
  -1   0  10    0.06    0.08
   1   0 -10    0.06    0.09
  -1   0  10    0.03    0.08
   1   0 -10   -0.03    0.07
  -1   0  10    0.39    0.13
   1   0 -10    0.08    0.09
   0   0  10   57.51    1.50
   0   0 -10   58.18    1.40
   0   0  10   58.23    1.56
   0   0  10   57.21    1.39
   0   0 -10   59.12    1.57
   0   0 -10   57.03    1.41
  -1   0 -10   16.38    0.60
   1   0  10   16.33    0.72
  -1   0 -10   15.97    0.72
   1   0  10   16.51    0.73
  -1   0 -10   16.53    0.63
  -2   0 -10    8.96    0.54
  -2   0 -10   10.53    0.51
   2   0  10    9.60    0.57
   2   0  10    8.71    0.54
  -3   0 -10    0.09    0.10
   3   0  10    0.14    0.13
  -3   0 -10    0.05    0.09
   3   0  10    0.05    0.12
   4   0  10    1.64    0.31
  -4   0 -10    1.28    0.27
  -5   0 -10    1.09    0.26
   5   0  10    1.50    0.31
   6   0  10    0.16    0.20
   7   0  10    0.72    0.28
  10  -1 -10    1.19    0.32
 -10  -1  10    1.89    0.39
  10   1 -10    1.95    0.41
 -10   1  10    1.65    0.38
  -9  -1  10    2.12    0.38
   9  -1 -10    1.89    0.36
  -9   1  10    2.08    0.36
   9   1 -10    2.00    0.38
   8  -1 -10    0.51    0.19
  -8  -1  10    1.01    0.28
   8   1 -10    0.82    0.24
  -8   1  10    0.48    0.19
   7  -1 -10    3.18    0.42
  -7  -1  10    3.42    0.44
  -7   1  10    2.98    0.38
   7   1 -10    2.86    0.38
   7   1 -10    2.86    0.41
  -7   1  10    3.09    0.39
   6  -1 -10    2.50    0.37
  -6  -1  10    2.06    0.33
   6  -1 -10    2.30    0.31
   6   1 -10    2.13    0.33
  -6   1  10    2.92    0.38
   6   1 -10    2.54    0.36
  -6   1  10    2.48    0.32
  -5  -1  10    0.42    0.16
   5  -1 -10    0.68    0.17
   5  -1 -10    0.59    0.17
  -5  -1  10    0.31    0.13
  -5   1  10    0.46    0.15
  -5   1  10    0.67    0.19
   5   1 -10    0.65    0.17
   5   1 -10    0.52    0.17
  -4  -1  10    0.06    0.09
   4  -1 -10    0.18    0.09
   4  -1 -10   -0.02    0.08
   4  -1 -10    0.07    0.09
  -4  -1  10    0.02    0.08
  -4   1  10    0.28    0.13
  -4   1  10   -0.01    0.08
   4   1 -10   -0.02    0.06
   4   1 -10    0.22    0.12
   3  -1 -10    6.99    0.43
  -3  -1  10    6.16    0.40
  -3  -1  10    6.09    0.39
   3  -1 -10    6.70    0.43
  -3   1  10    6.26    0.42
  -3   1  10    6.59    0.41
   3   1 -10    6.19    0.40
   3   1 -10    6.86    0.45
   2  -1 -10    1.30    0.23
  -2  -1  10    1.24    0.21
   2  -1 -10    1.52    0.25
  -2  -1  10    1.21    0.22
  -2   1  10    1.13    0.22
   2   1 -10    1.25    0.24
  -2   1  10    1.38    0.23
   2   1 -10    1.27    0.21
  -1  -1  10    8.03    0.40
   1  -1 -10    8.41    0.49
   1  -1 -10    8.13    0.45
  -1  -1  10    7.66    0.43
  -1  -1  10    8.17    0.48
   1   1 -10    7.52    0.41
   1   1 -10    8.27    0.49
   1   1 -10    8.42    0.45
  -1   1  10    7.88    0.47
  -1   1  10    6.91    0.44
   0  -1  10   17.23    0.73
   0  -1  10   16.19    0.65
   0  -1 -10   15.02    0.62
   0  -1 -10   16.82    0.73
   0  -1  10   16.47    0.64
   0   1  10   16.01    0.70
   0   1  10   16.22    0.70
   0   1 -10   16.26    0.66
   0   1 -10   15.43    0.58
   0   1 -10   15.01    0.69
  -1  -1 -10    0.12    0.12
  -1  -1 -10    0.12    0.09
   1  -1  10    0.16    0.13
   1  -1  10    0.26    0.13
  -1   1 -10    0.35    0.13
   1   1  10    0.20    0.13
   1   1  10    0.04    0.10
  -1   1 -10    0.23    0.12
   2  -1  10   10.72    0.58
  -2  -1 -10   10.39    0.48
  -2  -1 -10   10.06    0.59
   2  -1  10   10.45    0.60
   2   1  10    8.64    0.53
  -2   1 -10   10.71    0.57
   2   1  10    9.56    0.58
  -2   1 -10    9.75    0.53
  -3  -1 -10    3.40    0.43
   3  -1  10    2.40    0.35
   3  -1  10    3.53    0.42
  -3   1 -10    3.67    0.42
   3   1  10    3.28    0.40
   3   1  10    2.82    0.39
  -3   1 -10    3.17    0.38
   4  -1  10    0.02    0.14
  -4  -1 -10    0.04    0.12
  -4   1 -10    0.16    0.13
  -4   1 -10    0.09    0.11
   4   1  10    0.08    0.13
  -5  -1 -10    0.10    0.14
   5  -1  10    0.27    0.19
  -5   1 -10    0.32    0.15
   5   1  10    0.46    0.20
  -5   1 -10    0.41    0.17
   6  -1  10    0.32    0.23
  -6  -1 -10    0.88    0.28
  -6   1 -10    0.78    0.24
   6   1  10    0.75    0.25
   7  -1  10    0.14    0.21
  -7   1 -10    0.21    0.17
  -9  -2  10    0.25    0.22
   9  -2 -10    0.28    0.19
   9   2 -10    0.32    0.20
   8  -2 -10    0.55    0.20
  -8  -2  10   -0.03    0.14
   8   2 -10    0.08    0.13
   8   2 -10    0.67    0.23
  -8   2  10    0.19    0.17
   7  -2 -10    3.87    0.48
  -7  -2  10    3.13    0.44
   7   2 -10    2.84    0.39
   7   2 -10    3.45    0.46
  -7   2  10    3.70    0.45
  -6  -2  10    0.44    0.20
   6  -2 -10    0.10    0.12
  -6   2  10    0.02    0.11
   6   2 -10    0.38    0.17
   6   2 -10    0.39    0.17
  -5  -2  10    0.78    0.20
   5  -2 -10    0.53    0.19
   5  -2 -10    0.69    0.18
   5  -2 -10    0.49    0.15
  -5   2  10    0.49    0.17
   5   2 -10    0.46    0.18
  -5   2  10    0.54    0.17
   5   2 -10    0.46    0.18
   4  -2 -10    6.16    0.43
  -4  -2  10    5.89    0.43
   4  -2 -10    6.21    0.41
  -4  -2  10    6.03    0.37
   4  -2 -10    5.89    0.43
   4   2 -10    6.01    0.46
  -4   2  10    5.44    0.42
   4   2 -10    6.27    0.44
  -4   2  10    6.14    0.44
  -3  -2  10    5.02    0.35
   3  -2 -10    4.97    0.39
   3  -2 -10    4.60    0.36
  -3  -2  10    4.81    0.38
   3   2 -10    4.91    0.41
   3   2 -10    5.11    0.37
  -3   2  10    5.56    0.41
  -3   2  10    5.25    0.40
   2  -2 -10    9.36    0.51
  -2  -2  10    8.71    0.50
  -2  -2  10    7.82    0.46
   2  -2 -10    8.79    0.50
   2   2 -10    8.44    0.49
  -2   2  10    7.87    0.49
   2   2 -10    8.52    0.46
   2   2 -10    8.14    0.51
  -2   2  10    8.21    0.51
  -1  -2  10    6.67    0.43
   1  -2 -10    6.33    0.41
  -1  -2  10    6.86    0.44
   1  -2 -10    6.98    0.46
   1   2 -10    7.46    0.46
   1   2 -10    7.14    0.39
  -1   2  10    6.05    0.44
   1   2 -10    7.46    0.47
  -1   2  10    6.20    0.43
   0  -2 -10   18.57    0.80
   0  -2 -10   17.88    0.72
   0  -2  10   17.50    0.75
   0  -2  10   17.98    0.75
   0   2 -10   17.60    0.74
   0   2  10   17.27    0.79
   0   2 -10   19.42    0.89
   0   2 -10   17.43    0.76
   0   2  10   17.75    0.76
  -1  -2 -10    2.67    0.32
  -1  -2 -10    2.13    0.33
   1  -2  10    2.45    0.29
   1  -2  10    2.11    0.32
  -1   2 -10    2.51    0.34
  -1   2 -10    2.84    0.36
   1   2  10    2.99    0.36
   1   2  10    2.53    0.36
  -2  -2 -10    9.64    0.58
   2  -2  10    9.79    0.59
   2  -2  10    9.35    0.54
  -2  -2 -10    9.99    0.51
  -2   2 -10    9.30    0.54
   2   2  10    9.71    0.56
  -2   2 -10    9.50    0.56
   2   2  10    9.70    0.62
  -3  -2 -10    0.22    0.12
   3  -2  10    0.04    0.13
   3  -2  10   -0.05    0.10
  -3   2 -10    0.15    0.12
  -3   2 -10    0.14    0.11
   3   2  10    0.11    0.12
   4  -2  10    1.07    0.28
  -4  -2 -10    1.19    0.28
   4   2  10    0.99    0.24
  -4   2 -10    1.17    0.27
  -4   2 -10    1.78    0.29
  -5  -2 -10   -0.02    0.12
   5  -2  10   -0.18    0.11
   5   2  10    0.23    0.13
  -5   2 -10    0.05    0.13
   6  -2  10    0.31    0.23
  -6  -2 -10    0.25    0.18
  -6   2 -10    0.32    0.19
   9  -3 -10    0.96    0.29
  -9  -3  10    0.09    0.16
  -9   3  10    0.14    0.20
   9   3 -10    0.41    0.21
  -8  -3  10   -0.11    0.15
   8  -3 -10    0.26    0.16
  -8   3  10   -0.10    0.19
   8   3 -10   -0.23    0.12
   8   3 -10    0.07    0.16
  -7  -3  10    0.39    0.18
   7  -3 -10    0.60    0.22
  -7   3  10    0.48    0.19
   7   3 -10    0.50    0.21
   7   3 -10    0.56    0.22
   6  -3 -10    0.17    0.16
   6  -3 -10    0.06    0.11
  -6  -3  10    0.07    0.14
  -6   3  10    0.21    0.15
  -6   3  10    0.20    0.16
   6   3 -10    0.11    0.11
   6   3 -10    0.02    0.11
   5  -3 -10    1.89    0.32
   5  -3 -10    1.58    0.29
  -5  -3  10    1.69    0.31
  -5   3  10    1.54    0.29
   5   3 -10    0.94    0.24
   5   3 -10    1.35    0.28
  -5   3  10    1.03    0.25
   4  -3 -10    1.25    0.26
   4  -3 -10    0.61    0.19
   4  -3 -10    1.07    0.21
  -4  -3  10    0.80    0.22
   4   3 -10    0.73    0.21
   4   3 -10    1.31    0.26
  -4   3  10    0.73    0.21
  -4   3  10    0.96    0.24
  -3  -3  10    0.32    0.13
  -3  -3  10    0.12    0.11
   3  -3 -10   -0.09    0.08
   3  -3 -10    0.36    0.14
  -3   3  10    0.21    0.15
   3   3 -10    0.36    0.15
  -3   3  10    0.10    0.12
   3   3 -10    0.22    0.11
  -2  -3  10    0.51    0.16
   2  -3 -10    0.49    0.17
   2  -3 -10    0.33    0.14
  -2  -3  10    0.34    0.15
   2   3 -10    0.32    0.15
   2   3 -10    0.48    0.16
  -2   3  10    0.32    0.14
   2   3 -10    0.56    0.16
  -2   3  10    0.16    0.14
   1  -3 -10    2.83    0.35
  -1  -3  10    3.61    0.40
  -1  -3  10    3.19    0.40
   1  -3 -10    3.12    0.39
  -1   3  10    2.52    0.35
   1   3 -10    2.83    0.31
  -1   3  10    3.48    0.42
   1   3 -10    3.67    0.44
   1   3 -10    2.49    0.35
   0  -3  10    3.46    0.40
   0  -3  10    2.78    0.37
   0  -3 -10    2.69    0.34
   0  -3 -10    3.67    0.43
   0   3 -10    2.88    0.38
   0   3  10    3.31    0.42
   0   3 -10    2.60    0.37
   0   3  10    3.53    0.42
   1  -3  10    1.06    0.25
   1  -3  10    0.82    0.22
  -1  -3 -10    1.09    0.25
  -1  -3 -10    1.08    0.21
   1   3  10    1.08    0.23
   1   3  10    0.83    0.23
  -1   3 -10    0.50    0.17
  -1   3 -10    0.63    0.19
  -2  -3 -10    0.35    0.14
  -2  -3 -10    0.80    0.23
   2  -3  10    0.83    0.22
  -2   3 -10    0.70    0.21
  -2   3 -10    0.58    0.18
   2   3  10    0.40    0.15
  -3  -3 -10    0.41    0.16
  -3  -3 -10    0.53    0.22
   3  -3  10    0.35    0.18
  -3   3 -10    0.51    0.17
  -3   3 -10    0.51    0.19
   3   3  10    0.53    0.16
   4  -3  10    0.48    0.22
  -4  -3 -10    0.56    0.22
  -4   3 -10    0.84    0.24
   4   3  10    0.52    0.19
  -5  -3 -10    0.71    0.23
   5  -3  10    0.78    0.26
  -5   3 -10    1.21    0.32
  -6  -3 -10    0.10    0.17
   6  -3  10   -0.15    0.16
  -6   3 -10    0.20    0.18
   8  -4 -10   -0.09    0.14
  -8  -4  10   -0.19    0.16
  -8   4  10   -0.05    0.15
   8   4 -10    0.11    0.18
   8   4 -10    0.06    0.17
  -7  -4  10    0.18    0.20
   7  -4 -10    0.28    0.18
   7   4 -10    0.27    0.17
  -7   4  10    0.17    0.17
   7   4 -10    0.29    0.19
  -6  -4  10    0.10    0.13
   6  -4 -10    0.05    0.11
   6   4 -10    0.38    0.19
  -6   4  10    0.03    0.14
   6   4 -10    0.41    0.21
  -5  -4  10    0.83    0.26
   5  -4 -10    0.64    0.22
   5   4 -10    0.53    0.19
  -5   4  10    0.56    0.22
   5   4 -10    0.58    0.21
   4  -4 -10    0.09    0.10
  -4  -4  10    0.70    0.23
   4  -4 -10    0.13    0.13
   4   4 -10    0.08    0.12
   4   4 -10    0.31    0.14
  -4   4  10    0.51    0.20
   3  -4 -10    0.24    0.17
   3  -4 -10    0.67    0.19
   3  -4 -10    0.55    0.18
  -3  -4  10    0.39    0.17
  -3   4  10    0.36    0.19
   3   4 -10    0.25    0.13
  -3   4  10    0.84    0.23
   3   4 -10    0.74    0.23
  -2  -4  10    0.26    0.14
   2  -4 -10    0.31    0.15
   2  -4 -10    0.16    0.12
  -2  -4  10    0.21    0.13
   2   4 -10    0.02    0.12
   2   4 -10    0.05    0.08
  -2   4  10    0.14    0.17
  -2   4  10    0.01    0.10
   2   4 -10    0.24    0.14
   1  -4 -10    3.17    0.39
  -1  -4  10    4.86    0.52
   1  -4 -10    4.13    0.46
  -1  -4  10    4.60    0.46
  -1   4  10    4.28    0.46
   1   4 -10    3.68    0.45
   1   4 -10    3.01    0.43
  -1   4  10    3.57    0.54
   0  -4 -10    2.98    0.38
   0  -4 -10    2.63    0.38
   0  -4  10    2.98    0.38
   0  -4  10    2.91    0.40
   0   4 -10    2.35    0.37
   0   4  10    3.40    0.41
   0   4 -10    2.81    0.40
  -1  -4 -10    1.15    0.24
   1  -4  10    1.10    0.24
   1  -4  10    1.21    0.28
  -1  -4 -10    0.99    0.25
  -1   4 -10    1.24    0.27
  -1   4 -10    0.94    0.23
   1   4  10    1.10    0.25
  -2  -4 -10    1.03    0.27
   2  -4  10    1.51    0.30
  -2  -4 -10    1.48    0.27
  -2   4 -10    1.24    0.29
  -2   4 -10    2.12    0.34
   2   4  10    1.10    0.25
  -3  -4 -10    0.32    0.18
   3  -4  10    0.32    0.17
  -3  -4 -10    0.09    0.12
   3   4  10    0.43    0.18
  -3   4 -10    0.10    0.14
  -3   4 -10    0.37    0.15
   4  -4  10    0.79    0.26
  -4  -4 -10    0.39    0.18
  -4  -4 -10    0.75    0.26
  -4   4 -10    0.52    0.21
  -5  -4 -10    0.92    0.29
   5  -4  10    0.78    0.28
  -5   4 -10    1.40    0.33
  -7  -5  10    0.97    0.32
   7  -5 -10    1.03    0.29
   7   5 -10    1.53    0.36
  -7   5  10    0.91    0.28
   7   5 -10    1.12    0.33
  -6  -5  10    0.30    0.20
   6  -5 -10    0.29    0.17
   6   5 -10    0.12    0.15
   6   5 -10    0.27    0.18
  -6   5  10    0.14    0.16
   5  -5 -10    0.78    0.24
  -5  -5  10    0.74    0.27
   5   5 -10    1.19    0.31
  -5   5  10    1.66    0.34
   5   5 -10    0.67    0.22
   4  -5 -10    0.43    0.18
  -4  -5  10    0.17    0.17
   4   5 -10   -0.03    0.11
   4   5 -10    0.26    0.16
  -4   5  10    0.14    0.18
   3  -5 -10    0.99    0.26
   3  -5 -10    1.02    0.23
  -3  -5  10    0.80    0.23
   3   5 -10    0.65    0.19
   3   5 -10    0.50    0.18
  -3   5  10    0.65    0.23
   2  -5 -10   -0.05    0.10
   2  -5 -10   -0.03    0.09
  -2  -5  10    0.09    0.15
   2   5 -10    0.05    0.14
  -2   5  10    0.09    0.12
   2   5 -10    0.11    0.12
   1  -5 -10    0.22    0.16
  -1  -5  10    0.39    0.17
  -1  -5  10    0.44    0.20
   1  -5 -10    0.49    0.19
   1   5 -10    0.11    0.15
   1   5 -10    0.28    0.18
  -1   5  10    0.46    0.18
   0  -5 -10    0.40    0.17
   0  -5  10    0.33    0.18
   0  -5  10    0.23    0.17
   0  -5 -10    0.17    0.11
   0   5 -10    0.26    0.15
   0   5  10    0.56    0.20
   0   5 -10    0.39    0.19
   1  -5  10    0.40    0.18
   1  -5  10    0.58    0.22
  -1  -5 -10    0.38    0.17
  -1  -5 -10    0.43    0.16
  -1   5 -10    0.42    0.19
  -1   5 -10    0.40    0.19
   1   5  10    0.43    0.17
   2  -5  10    0.11    0.15
   2  -5  10    0.15    0.14
  -2  -5 -10    0.29    0.17
  -2  -5 -10    0.45    0.18
  -2   5 -10    0.16    0.15
  -2   5 -10    0.04    0.09
   2   5  10    0.37    0.17
  -3  -5 -10    0.36    0.20
  -3  -5 -10    0.41    0.17
   3  -5  10    0.81    0.24
  -3   5 -10    0.59    0.22
  -4  -5 -10    0.34    0.18
  -4  -5 -10    0.20    0.18
   4  -5  10   -0.04    0.16
  -4   5 -10    0.13    0.17
   6  -6 -10    0.02    0.17
  -6  -6  10    0.05    0.18
   6   6 -10   -0.08    0.13
   6   6 -10    0.05    0.14
   5  -6 -10    1.45    0.34
  -5  -6  10    0.78    0.26
  -5   6  10    1.36    0.33
   5   6 -10    1.08    0.29
   5   6 -10    0.90    0.30
  -4  -6  10   -0.06    0.10
   4  -6 -10   -0.07    0.07
   4   6 -10    0.17    0.20
   4   6 -10    0.03    0.13
  -4   6  10    0.08    0.18
  -3  -6  10    3.42    0.49
   3  -6 -10    4.39    0.54
  -3   6  10    3.55    0.48
   3   6 -10    3.75    0.54
   2  -6 -10    0.16    0.14
  -2  -6  10    0.43    0.20
   2  -6 -10    0.49    0.20
  -2   6  10    0.17    0.17
   2   6 -10    0.22    0.18
   2   6 -10    0.32    0.17
  -1  -6  10    0.36    0.18
   1  -6 -10    0.59    0.20
   1  -6 -10    0.94    0.26
   1   6 -10    1.03    0.27
   1   6 -10    0.42    0.20
  -1   6  10    1.07    0.29
   0  -6  10    0.56    0.22
   0  -6 -10    0.80    0.23
   0  -6  10    0.70    0.25
   0  -6 -10    0.61    0.21
   0   6 -10    0.91    0.26
   0   6  10    1.15    0.29
   0   6 -10    0.96    0.27
   1  -6  10    0.11    0.17
   1  -6  10    0.23    0.20
  -1  -6 -10    0.28    0.19
  -1  -6 -10    0.15    0.15
   1   6  10    0.01    0.14
  -1   6 -10    0.17    0.16
  -1   6 -10   -0.07    0.12
  -2  -6 -10    0.04    0.16
   2  -6  10    0.32    0.21
  -2  -6 -10    0.48    0.20
   2  -6  10    0.01    0.18
  -2   6 -10    0.18    0.18
   3  -6  10    0.30    0.21
  -3  -6 -10    0.59    0.23
  -3  -6 -10    0.55    0.23
  -3   6 -10    0.67    0.25
   4  -7 -10    0.36    0.21
  -3  -7  10    0.59    0.24
   3  -7 -10    0.53    0.23
   3   7 -10    0.50    0.25
  -3   7  10    0.35    0.23
   2  -7 -10    0.29    0.21
  -2  -7  10    0.48    0.21
  -2   7  10    0.22    0.18
   2   7 -10    0.74    0.28
  -1  -7  10    0.40    0.23
   1  -7 -10    0.18    0.18
   1  -7 -10    0.18    0.18
   1   7 -10    0.14    0.19
  -1   7  10    0.11    0.18
   1   7 -10    0.23    0.20
   0  -7 -10    0.29    0.20
   0  -7 -10    0.20    0.20
   0  -7  10    0.09    0.19
   0   7  10    0.07    0.19
   0   7 -10    0.07    0.17
   0   7 -10    0.48    0.24
   1  -7  10    2.70    0.44
  -1  -7 -10    3.05    0.49
  -9   0  11    0.24    0.17
   9   0 -11    0.11    0.16
  -8   0  11    0.67    0.23
   8   0 -11    0.34    0.18
   7   0 -11    0.03    0.11
   7   0 -11    0.01    0.12
  -7   0  11   -0.06    0.11
   6   0 -11    0.30    0.14
  -6   0  11   -0.04    0.09
   6   0 -11    0.31    0.16
  -6   0  11    0.40    0.15
   5   0 -11    0.50    0.17
  -5   0  11    0.40    0.16
   5   0 -11    0.40    0.15
  -5   0  11    0.64    0.18
   4   0 -11    0.64    0.18
  -4   0  11    0.18    0.11
   4   0 -11    0.27    0.14
  -4   0  11    0.58    0.16
   3   0 -11    2.06    0.30
  -3   0  11    2.74    0.31
  -3   0  11    2.72    0.35
   3   0 -11    2.91    0.37
   2   0 -11    1.16    0.24
  -2   0  11    1.53    0.26
  -2   0  11    1.43    0.22
   2   0 -11    0.83    0.19
   1   0 -11   12.34    0.64
  -1   0  11   12.63    0.58
   1   0 -11   11.66    0.55
  -1   0  11   12.98    0.63
   0   0  11   16.00    0.69
   0   0 -11   16.40    0.75
   0   0 -11   15.67    0.63
   0   0  11   15.40    0.72
  -1   0 -11   12.61    0.66
   1   0  11   11.88    0.65
   1   0  11   11.74    0.63
  -2   0 -11    0.36    0.16
   2   0  11    0.22    0.13
   2   0  11    0.60    0.20
   3   0  11    0.48    0.20
  -3   0 -11    0.23    0.15
  -4   0 -11    0.78    0.23
   4   0  11    0.83    0.25
   5   0  11    1.92    0.36
  -5   0 -11    2.35    0.37
   6   0  11    0.25    0.18
  -9  -1  11    2.16    0.41
   9  -1 -11    1.39    0.32
   9   1 -11    1.58    0.35
  -8  -1  11    0.18    0.16
   8  -1 -11    0.18    0.16
   8   1 -11    0.48    0.18
   7  -1 -11    0.64    0.20
  -7  -1  11    0.42    0.20
   7   1 -11    0.62    0.22
   7   1 -11    0.86    0.24
  -7   1  11    0.80    0.22
  -6  -1  11    1.31    0.28
   6  -1 -11    1.10    0.25
   6  -1 -11    1.02    0.24
  -6   1  11    1.11    0.24
   6   1 -11    1.27    0.27
   6   1 -11    1.58    0.30
  -5  -1  11    0.05    0.09
   5  -1 -11   -0.07    0.10
   5  -1 -11    0.00    0.09
  -5  -1  11   -0.07    0.09
   5   1 -11   -0.08    0.09
  -5   1  11    0.03    0.10
   5   1 -11   -0.06    0.09
   4  -1 -11    3.91    0.43
  -4  -1  11    4.10    0.42
  -4  -1  11    4.27    0.41
   4  -1 -11    3.75    0.41
   4   1 -11    5.13    0.40
   4   1 -11    4.10    0.46
  -4   1  11    4.33    0.44
   3  -1 -11    0.51    0.17
   3  -1 -11    0.71    0.19
  -3  -1  11    0.38    0.14
  -3  -1  11    0.67    0.17
  -3   1  11    0.71    0.19
   3   1 -11    0.64    0.19
  -3   1  11    0.41    0.16
   3   1 -11    0.52    0.16
   2  -1 -11   43.47    1.32
   2  -1 -11   44.55    1.29
  -2  -1  11   42.20    1.27
  -2  -1  11   44.45    1.24
  -2   1  11   42.16    1.26
  -2   1  11   43.20    1.32
   2   1 -11   41.73    1.33
   2   1 -11   42.94    1.22
   1  -1 -11    5.13    0.38
   1  -1 -11    5.42    0.42
  -1  -1  11    5.40    0.37
  -1  -1  11    6.20    0.44
   1   1 -11    5.50    0.38
   1   1 -11    5.03    0.41
  -1   1  11    5.93    0.43
  -1   1  11    5.30    0.40
   1   1 -11    5.65    0.36
   0  -1  11    1.34    0.25
   0  -1  11    1.39    0.23
   0  -1 -11    1.75    0.29
   0  -1 -11    1.91    0.27
   0   1  11    1.63    0.30
   0   1  11    1.19    0.24
   0   1 -11    1.33    0.21
   0   1 -11    1.26    0.23
   0   1 -11    1.12    0.25
   1  -1  11    1.49    0.25
   1  -1  11    1.60    0.26
   1  -1  11    1.59    0.30
  -1  -1 -11    1.91    0.26
  -1  -1 -11    1.36    0.27
   1   1  11    2.32    0.33
  -1   1 -11    2.15    0.33
  -1   1 -11    1.95    0.29
   1   1  11    1.88    0.30
   2  -1  11    0.96    0.24
  -2  -1 -11    0.56    0.20
   2  -1  11    0.15    0.16
   2   1  11    0.43    0.18
   2   1  11    0.87    0.23
  -2   1 -11    0.32    0.14
  -2   1 -11    0.79    0.20
  -3  -1 -11    0.62    0.20
   3  -1  11    1.17    0.28
   3  -1  11    1.04    0.26
   3   1  11    1.31    0.28
  -3   1 -11    0.88    0.22
  -3   1 -11    1.35    0.28
  -4  -1 -11    0.17    0.14
   4  -1  11   -0.06    0.15
  -4   1 -11    0.08    0.12
   4   1  11   -0.02    0.13
  -4   1 -11    0.17    0.13
   5  -1  11    1.40    0.34
  -5  -1 -11    2.08    0.37
   5   1  11    1.67    0.33
  -6  -1 -11    0.07    0.14
   6  -1  11    0.06    0.18
   6   1  11   -0.16    0.13
  -9  -2  11    1.57    0.37
   9  -2 -11    1.85    0.38
   9   2 -11    2.04    0.40
   8  -2 -11    0.00    0.11
  -8  -2  11    0.16    0.19
   8   2 -11    0.30    0.19
   8   2 -11    0.14    0.16
  -8   2  11    0.11    0.19
   7  -2 -11    1.45    0.30
  -7  -2  11    1.00    0.27
  -7   2  11    1.19    0.28
   7   2 -11    1.09    0.28
   7   2 -11    0.57    0.22
  -6  -2  11    1.47    0.31
   6  -2 -11    1.65    0.31
  -6   2  11    1.50    0.30
   6   2 -11    1.56    0.31
   6   2 -11    1.64    0.31
   5  -2 -11    1.90    0.28
   5  -2 -11    1.27    0.27
  -5  -2  11    1.79    0.31
   5   2 -11    1.94    0.32
  -5   2  11    1.60    0.28
   5   2 -11    1.41    0.30
   4  -2 -11    0.87    0.23
  -4  -2  11    0.96    0.23
   4  -2 -11    0.67    0.20
   4  -2 -11    0.91    0.21
  -4  -2  11    0.59    0.16
   4   2 -11    0.71    0.20
  -4   2  11    0.39    0.16
  -4   2  11    0.49    0.19
   4   2 -11    0.79    0.22
   3  -2 -11    4.70    0.39
   3  -2 -11    5.63    0.43
  -3  -2  11    5.21    0.41
  -3  -2  11    5.22    0.38
   3   2 -11    5.33    0.40
  -3   2  11    4.75    0.47
   3   2 -11    5.32    0.54
  -3   2  11    5.07    0.51
   2  -2 -11    0.07    0.09
  -2  -2  11    0.07    0.09
   2  -2 -11    0.13    0.10
  -2  -2  11   -0.09    0.08
  -2   2  11    0.07    0.11
   2   2 -11    0.20    0.10
   2   2 -11    0.09    0.10
  -2   2  11    0.09    0.12
   1  -2 -11    0.73    0.18
  -1  -2  11    0.97    0.22
  -1  -2  11    0.36    0.14
   1  -2 -11    0.45    0.16
   1   2 -11    0.81    0.20
   1   2 -11    0.46    0.14
  -1   2  11    0.58    0.19
   1   2 -11    0.59    0.17
  -1   2  11    0.56    0.18
   0  -2  11    6.42    0.47
   0  -2  11    6.92    0.47
   0  -2 -11    5.40    0.44
   0  -2 -11    7.08    0.45
   0   2 -11    5.90    0.45
   0   2  11    6.17    0.46
   0   2 -11    6.37    0.45
   0   2  11    5.17    0.44
   1  -2  11    3.10    0.39
  -1  -2 -11    2.30    0.31
  -1  -2 -11    2.78    0.40
   1  -2  11    2.47    0.37
  -1   2 -11    2.57    0.35
  -1   2 -11    2.91    0.39
   1   2  11    2.57    0.36
   1   2  11    3.05    0.42
  -2  -2 -11    0.12    0.11
  -2  -2 -11    0.05    0.12
   2  -2  11    0.20    0.17
  -2   2 -11    0.42    0.16
  -2   2 -11    0.21    0.14
   2   2  11    0.21    0.14
   3  -2  11    0.06    0.13
   3  -2  11   -0.08    0.14
  -3  -2 -11   -0.14    0.11
  -3   2 -11    0.01    0.11
  -3   2 -11    0.09    0.11
   3   2  11    0.00    0.11
  -4  -2 -11    0.73    0.25
   4  -2  11    0.56    0.23
   4   2  11    0.71    0.20
  -4   2 -11    0.90    0.24
  -4   2 -11    0.93    0.24
  -5  -2 -11    0.63    0.25
   5  -2  11    1.07    0.29
   5   2  11    0.27    0.16
  -5   2 -11    1.12    0.29
  -6  -2 -11    0.54    0.23
  -6   2 -11    0.30    0.20
  -8  -3  11    0.36    0.22
   8  -3 -11    0.16    0.17
  -8   3  11    0.11    0.20
   8   3 -11   -0.06    0.15
   8   3 -11    0.24    0.19
   7  -3 -11   -0.03    0.13
  -7  -3  11   -0.20    0.14
   7   3 -11   -0.10    0.13
  -7   3  11    0.25    0.18
   7   3 -11    0.04    0.14
   6  -3 -11    1.32    0.29
  -6  -3  11    1.71    0.34
   6   3 -11    1.25    0.29
  -6   3  11    1.28    0.29
   6   3 -11    1.17    0.29
  -5  -3  11    0.66    0.21
   5  -3 -11    0.63    0.21
   5  -3 -11    0.80    0.23
   5   3 -11    1.11    0.26
   5   3 -11    1.34    0.31
  -5   3  11    0.83    0.23
  -5   3  11    1.19    0.27
   4  -3 -11    0.31    0.15
   4  -3 -11    0.63    0.20
  -4  -3  11    0.57    0.19
   4  -3 -11    0.47    0.20
   4   3 -11    0.40    0.16
  -4   3  11    0.42    0.19
   4   3 -11    0.48    0.20
  -4   3  11    0.46    0.16
   3  -3 -11    0.20    0.14
  -3  -3  11    0.22    0.13
   3  -3 -11    0.18    0.12
  -3  -3  11    0.18    0.13
   3   3 -11    0.11    0.10
  -3   3  11    0.16    0.13
   3   3 -11    0.04    0.08
  -3   3  11    0.37    0.19
   2  -3 -11   10.15    0.59
  -2  -3  11   11.34    0.64
   2  -3 -11   10.55    0.61
  -2  -3  11   10.93    0.57
   2   3 -11   10.39    0.64
   2   3 -11   10.24    0.54
  -2   3  11   10.41    0.65
   2   3 -11    9.96    0.60
  -2   3  11   10.92    0.63
   1  -3 -11    0.78    0.20
  -1  -3  11    0.49    0.18
   1  -3 -11    0.52    0.20
  -1  -3  11    0.46    0.17
  -1   3  11    0.55    0.19
   1   3 -11    0.20    0.13
  -1   3  11    0.40    0.17
   1   3 -11    0.64    0.19
   0  -3  11    6.78    0.50
   0  -3 -11    6.86    0.47
   0  -3  11    7.58    0.52
   0  -3 -11    7.27    0.53
   0   3 -11    6.32    0.49
   0   3  11    5.68    0.64
   0   3  11    7.44    0.51
   0   3 -11    6.46    0.49
   1  -3  11    0.41    0.19
  -1  -3 -11    0.62    0.20
   1  -3  11    0.61    0.20
  -1  -3 -11    0.59    0.19
  -1   3 -11    0.30    0.16
   1   3  11    0.30    0.15
  -1   3 -11    0.34    0.16
  -2  -3 -11    1.06    0.24
  -2  -3 -11    1.83    0.35
   2  -3  11    1.08    0.26
  -2   3 -11    1.33    0.28
  -2   3 -11    1.24    0.28
   2   3  11    1.36    0.27
  -3  -3 -11    0.13    0.16
   3  -3  11    0.24    0.17
  -3   3 -11    0.09    0.11
  -3   3 -11    0.15    0.15
   3   3  11    0.10    0.11
   4  -3  11    0.48    0.23
  -4  -3 -11    0.71    0.25
  -4   3 -11    0.56    0.20
   4   3  11    0.70    0.20
   5  -3  11    0.21    0.20
  -5  -3 -11    0.53    0.23
  -5   3 -11    0.45    0.20
  -8  -4  11   -0.16    0.13
   8  -4 -11   -0.16    0.14
   8   4 -11    0.11    0.15
   8   4 -11   -0.03    0.17
  -8   4  11    0.01    0.19
   7  -4 -11    0.86    0.27
  -7  -4  11    0.62    0.26
   7   4 -11    0.45    0.20
  -7   4  11    0.76    0.27
   7   4 -11    0.49    0.23
   6  -4 -11    0.11    0.15
  -6  -4  11   -0.04    0.14
   6   4 -11    0.15    0.13
   6   4 -11    0.23    0.16
  -6   4  11    0.10    0.15
  -5  -4  11    1.17    0.31
   5  -4 -11    1.06    0.26
   5   4 -11    0.88    0.26
  -5   4  11    0.70    0.24
   5   4 -11    0.80    0.24
   4  -4 -11    0.89    0.21
  -4  -4  11    0.97    0.25
   4  -4 -11    0.76    0.23
   4   4 -11    0.76    0.24
   4   4 -11    0.62    0.20
  -4   4  11    0.86    0.26
   3  -4 -11    0.92    0.24
   3  -4 -11    1.00    0.23
  -3  -4  11    1.45    0.30
  -3   4  11    1.47    0.30
   3   4 -11    0.79    0.21
   3   4 -11    0.63    0.23
  -2  -4  11    0.56    0.19
   2  -4 -11    0.48    0.18
   2  -4 -11    0.50    0.19
  -2  -4  11    0.53    0.19
  -2   4  11    0.47    0.19
   2   4 -11    0.62    0.22
   2   4 -11    0.38    0.18
  -1  -4  11    1.52    0.28
  -1  -4  11    2.35    0.39
   1  -4 -11    1.52    0.30
   1  -4 -11    1.82    0.32
   1   4 -11    1.46    0.30
   1   4 -11    2.70    0.41
  -1   4  11    1.72    0.32
   0  -4 -11    0.54    0.19
   0  -4  11    0.75    0.24
   0  -4 -11    0.17    0.12
   0  -4  11    0.57    0.20
   0   4 -11    0.23    0.14
   0   4 -11    0.51    0.20
   0   4  11    0.51    0.19
   1  -4  11    0.06    0.10
   1  -4  11    0.51    0.21
  -1  -4 -11    0.46    0.16
  -1  -4 -11    0.12    0.10
  -1   4 -11    0.15    0.14
   1   4  11    0.35    0.16
  -1   4 -11    0.08    0.12
   2  -4  11    0.43    0.20
  -2  -4 -11    0.61    0.24
  -2  -4 -11    0.42    0.17
  -2   4 -11    0.41    0.19
  -2   4 -11    0.47    0.20
   2   4  11    0.42    0.18
  -3  -4 -11    0.01    0.12
  -3  -4 -11   -0.08    0.09
   3  -4  11   -0.04    0.14
  -3   4 -11   -0.02    0.11
   3   4  11    0.22    0.15
  -4  -4 -11    1.16    0.31
   4  -4  11    0.69    0.27
  -4   4 -11    0.35    0.19
   7  -5 -11    0.07    0.18
   7   5 -11    0.17    0.18
   7   5 -11    0.17    0.17
  -6  -5  11   -0.06    0.17
   6  -5 -11   -0.17    0.11
  -6   5  11    0.15    0.19
   6   5 -11   -0.07    0.11
   6   5 -11    0.13    0.15
   5  -5 -11    0.66    0.20
  -5  -5  11    0.51    0.24
   5   5 -11    1.17    0.30
   5   5 -11    0.66    0.22
  -5   5  11    0.73    0.24
  -4  -5  11    0.10    0.13
   4  -5 -11   -0.08    0.10
   4   5 -11    0.03    0.13
   4   5 -11    0.10    0.15
  -4   5  11    0.13    0.16
  -3  -5  11    3.63    0.51
   3  -5 -11    3.61    0.47
   3  -5 -11    2.75    0.39
   3   5 -11    2.90    0.48
   3   5 -11    2.18    0.38
  -3   5  11    3.10    0.46
   2  -5 -11    0.71    0.22
  -2  -5  11    0.76    0.24
   2  -5 -11    0.68    0.24
   2   5 -11    0.36    0.19
  -2   5  11    0.61    0.22
   2   5 -11    0.92    0.26
  -1  -5  11    0.32    0.19
   1  -5 -11    0.27    0.15
  -1  -5  11    0.36    0.18
   1  -5 -11    0.09    0.15
   1   5 -11   -0.04    0.11
  -1   5  11    0.38    0.19
   1   5 -11    0.21    0.17
   0  -5 -11    0.43    0.19
   0  -5  11    0.60    0.22
   0  -5  11    0.34    0.18
   0  -5 -11    0.47    0.20
   0   5  11    0.53    0.20
   0   5 -11    1.10    0.29
   0   5 -11    1.04    0.27
  -1  -5 -11    0.03    0.10
   1  -5  11    0.01    0.16
   1  -5  11    0.00    0.15
  -1  -5 -11    0.21    0.15
   1   5  11   -0.07    0.11
  -1   5 -11    0.13    0.16
  -1   5 -11    0.08    0.14
   2  -5  11    0.27    0.20
   2  -5  11    0.15    0.20
  -2  -5 -11    0.02    0.09
  -2  -5 -11    0.15    0.15
  -2   5 -11   -0.13    0.11
   2   5  11    0.10    0.15
  -2   5 -11   -0.01    0.14
  -3  -5 -11    0.49    0.20
  -3  -5 -11    1.23    0.33
   3  -5  11    0.46    0.25
  -3   5 -11    0.09    0.17
  -5  -6  11    0.46    0.27
   5  -6 -11    0.30    0.21
   5   6 -11    0.56    0.22
   5   6 -11    0.63    0.26
  -4  -6  11    0.32    0.20
   4  -6 -11    0.30    0.18
  -4   6  11    0.33    0.22
   4   6 -11    0.43    0.22
   4   6 -11    0.08    0.18
   3  -6 -11    0.36    0.20
  -3  -6  11    0.96    0.30
   3   6 -11    0.76    0.27
  -3   6  11    0.58    0.26
   2  -6 -11    0.10    0.18
  -2  -6  11    0.17    0.16
   2  -6 -11    0.24    0.16
  -2   6  11    0.45    0.22
   2   6 -11    0.23    0.19
   2   6 -11    0.62    0.24
   1  -6 -11    0.46    0.19
   1  -6 -11    0.30    0.20
  -1  -6  11    0.26    0.19
  -1   6  11    0.07    0.15
   1   6 -11    0.15    0.16
   1   6 -11    0.60    0.22
   0  -6 -11    0.54    0.21
   0  -6  11    0.20    0.22
   0  -6 -11    0.21    0.21
   0  -6  11    0.58    0.24
   0   6 -11    0.05    0.15
   0   6 -11    0.50    0.24
   0   6  11    0.60    0.23
   1  -6  11    1.54    0.34
  -1  -6 -11    1.48    0.33
  -1  -6 -11    1.97    0.41
   1  -6  11    2.26    0.43
  -1   6 -11    1.43    0.34
   1   6  11    1.83    0.35
  -1   6 -11    1.77    0.36
  -2  -6 -11    0.30    0.19
   2  -6  11    0.34    0.24
  -2  -6 -11    0.13    0.16
   2  -6  11    0.12    0.21
  -2   6 -11    0.26    0.24
   9   0 -12   -0.11    0.17
   8   0 -12    0.19    0.15
   7   0 -12    0.20    0.18
   7   0 -12    0.19    0.14
  -6   0  12    1.87    0.31
   6   0 -12    1.45    0.30
   6   0 -12    1.90    0.33
  -5   0  12    0.08    0.11
   5   0 -12    0.02    0.09
   5   0 -12    0.08    0.11
   4   0 -12   10.63    0.62
   4   0 -12   10.44    0.59
  -4   0  12    9.12    0.55
   3   0 -12    2.44    0.37
  -3   0  12    2.21    0.32
   3   0 -12    2.37    0.34
  -2   0  12    2.19    0.32
   2   0 -12    3.12    0.41
   2   0 -12    2.51    0.33
   1   0 -12    0.86    0.19
   1   0 -12    0.87    0.22
  -1   0  12    0.89    0.22
   0   0 -12    0.86    0.23
   0   0  12    0.84    0.22
   0   0 -12    0.43    0.15
  -1   0 -12    0.16    0.10
   1   0  12    0.04    0.11
   1   0  12    0.13    0.13
   2   0  12    0.06    0.14
  -2   0 -12   -0.09    0.10
   2   0  12    0.08    0.12
  -3   0 -12    2.78    0.41
   3   0  12    3.36    0.47
  -4   0 -12   -0.09    0.10
   4   0  12   -0.11    0.14
  -5   0 -12    0.97    0.27
   5   0  12    0.68    0.26
  -9  -1  12    0.09    0.19
   9  -1 -12    0.44    0.25
  -8  -1  12    0.66    0.26
   8  -1 -12    0.44    0.20
   8   1 -12    0.85    0.27
  -7  -1  12    0.03    0.17
   7  -1 -12   -0.02    0.11
  -7   1  12   -0.07    0.13
   7   1 -12    0.08    0.14
   7   1 -12    0.16    0.15
   6  -1 -12    1.04    0.26
   6  -1 -12    1.00    0.24
  -6  -1  12    0.78    0.23
  -6   1  12    0.80    0.23
   6   1 -12    0.77    0.23
   6   1 -12    0.82    0.23
   5  -1 -12    0.31    0.17
   5  -1 -12    0.22    0.14
  -5  -1  12    0.09    0.12
  -5  -1  12    0.16    0.13
   5   1 -12   -0.01    0.09
   5   1 -12    0.24    0.16
  -5   1  12    0.16    0.12
  -4  -1  12    2.52    0.34
   4  -1 -12    2.01    0.33
   4  -1 -12    2.41    0.35
  -4  -1  12    1.87    0.29
  -4   1  12    2.11    0.33
   4   1 -12    2.32    0.36
   4   1 -12    1.93    0.32
  -3  -1  12   10.81    0.58
   3  -1 -12    9.69    0.57
   3  -1 -12    9.86    0.58
  -3  -1  12    9.13    0.53
   3   1 -12   10.30    0.57
   3   1 -12   10.36    0.62
  -3   1  12    9.16    0.56
  -2  -1  12    2.79    0.34
   2  -1 -12    1.95    0.30
  -2  -1  12    2.58    0.35
   2  -1 -12    2.37    0.36
   2   1 -12    1.71    0.32
   2   1 -12    1.96    0.28
  -2   1  12    2.17    0.33
   1  -1 -12    6.57    0.44
  -1  -1  12    6.42    0.47
  -1  -1  12    7.00    0.44
   1  -1 -12    6.84    0.50
  -1   1  12    7.04    0.49
   1   1 -12    7.78    0.44
   1   1 -12    7.56    0.46
   1   1 -12    6.75    0.50
  -1   1  12    6.94    0.48
   0  -1  12    0.15    0.15
   0  -1 -12    0.17    0.12
   0  -1  12    0.34    0.14
   0  -1 -12    0.16    0.12
   0   1  12    0.06    0.12
   0   1 -12    0.05    0.11
   0   1  12    0.29    0.15
   0   1 -12    0.15    0.11
   1  -1  12    0.93    0.23
  -1  -1 -12    0.77    0.22
   1   1  12    0.58    0.19
  -1   1 -12    0.97    0.23
  -1   1 -12    0.43    0.17
   1   1  12    1.05    0.24
  -2  -1 -12    0.68    0.22
   2  -1  12    0.84    0.24
  -2   1 -12    0.41    0.17
   2   1  12    0.17    0.14
  -3  -1 -12    0.42    0.19
   3  -1  12    0.09    0.16
  -3   1 -12    0.04    0.12
   3   1  12    0.09    0.13
  -4  -1 -12    0.67    0.24
   4  -1  12    0.61    0.24
   4   1  12    0.65    0.24
  -4   1 -12    0.68    0.22
   5  -1  12   -0.05    0.17
  -5  -1 -12   -0.02    0.16
   5   1  12    0.20    0.19
   8  -2 -12    0.00    0.15
  -8  -2  12    0.35    0.23
   8   2 -12    0.06    0.15
  -8   2  12    0.05    0.17
   8   2 -12    0.29    0.19
  -7  -2  12   -0.06    0.15
   7  -2 -12    0.05    0.12
   7   2 -12    0.09    0.15
  -7   2  12    0.36    0.19
   7   2 -12    0.09    0.12
  -6  -2  12    0.46    0.19
   6  -2 -12    0.69    0.21
   6   2 -12    0.68    0.22
  -6   2  12    0.34    0.17
   6   2 -12    0.91    0.25
   5  -2 -12    2.57    0.39
  -5  -2  12    2.23    0.35
   5  -2 -12    2.16    0.33
  -5   2  12    2.00    0.34
   5   2 -12    2.73    0.40
   5   2 -12    2.10    0.37
   4  -2 -12   11.07    0.65
   4  -2 -12   10.38    0.60
  -4  -2  12   11.13    0.64
  -4  -2  12   10.71    0.57
  -4   2  12   11.50    0.66
   4   2 -12   10.25    0.61
   4   2 -12   11.78    0.70
  -3  -2  12    1.17    0.25
   3  -2 -12    0.97    0.24
  -3  -2  12    0.72    0.20
   3  -2 -12    0.81    0.20
   3   2 -12    0.78    0.22
   3   2 -12    1.01    0.22
  -3   2  12    0.83    0.24
  -3   2  12    0.66    0.23
   2  -2 -12    3.35    0.40
   2  -2 -12    2.88    0.40
  -2  -2  12    3.30    0.39
  -2  -2  12    4.36    0.45
   2   2 -12    3.06    0.43
  -2   2  12    2.50    0.37
   2   2 -12    3.24    0.37
  -2   2  12    2.28    0.36
   1  -2 -12    0.70    0.20
   1  -2 -12    0.94    0.22
  -1  -2  12    0.77    0.21
  -1  -2  12    0.39    0.17
  -1   2  12    0.49    0.18
   1   2 -12    0.55    0.20
  -1   2  12    0.35    0.19
   1   2 -12    0.74    0.19
   0  -2  12    0.73    0.22
   0  -2 -12    0.60    0.20
   0  -2 -12    0.85    0.21
   0  -2  12    0.67    0.21
   0   2  12    0.72    0.21
   0   2 -12    0.50    0.17
   0   2 -12    1.12    0.26
   0   2  12    0.82    0.23
   1  -2  12    0.15    0.12
  -1  -2 -12    0.36    0.14
  -1  -2 -12    0.37    0.16
   1  -2  12    0.18    0.13
  -1   2 -12    0.35    0.15
  -1   2 -12    0.33    0.16
   1   2  12    0.47    0.17
  -2  -2 -12    0.19    0.14
   2  -2  12    0.21    0.16
   2   2  12    0.20    0.16
  -2   2 -12    0.24    0.14
  -2   2 -12    0.32    0.15
   3  -2  12    0.15    0.18
  -3  -2 -12    0.14    0.12
   3   2  12    0.34    0.18
  -3   2 -12    0.25    0.16
  -3   2 -12    0.21    0.14
  -4  -2 -12    0.84    0.28
   4  -2  12    0.07    0.19
  -4   2 -12    0.56    0.21
  -4   2 -12    0.87    0.26
   4   2  12    0.77    0.25
  -5  -2 -12    0.99    0.30
   5   2  12    0.86    0.25
  -5   2 -12    0.83    0.25
  -8  -3  12    0.17    0.21
   8  -3 -12    0.26    0.17
   8   3 -12    0.44    0.23
   8   3 -12    0.12    0.20
  -8   3  12    0.05    0.18
   7  -3 -12    0.13    0.12
  -7  -3  12   -0.11    0.16
  -7   3  12    0.27    0.20
   7   3 -12   -0.01    0.10
   7   3 -12   -0.17    0.13
  -6  -3  12    0.40    0.19
   6  -3 -12    0.47    0.21
  -6   3  12    0.39    0.19
   6   3 -12    0.08    0.11
   6   3 -12    0.75    0.25
   5  -3 -12    2.61    0.40
  -5  -3  12    3.37    0.46
   5   3 -12    3.24    0.47
   5   3 -12    4.30    0.51
  -5   3  12    3.01    0.44
   4  -3 -12   -0.19    0.11
   4  -3 -12    0.09    0.13
  -4  -3  12    0.19    0.15
   4   3 -12    0.10    0.14
   4   3 -12    0.09    0.10
  -4   3  12    0.00    0.12
   3  -3 -12    0.44    0.17
  -3  -3  12    0.31    0.15
   3  -3 -12    0.38    0.16
  -3  -3  12    0.31    0.16
  -3   3  12    0.18    0.19
   3   3 -12    0.39    0.15
  -3   3  12    0.36    0.17
   3   3 -12    0.25    0.17
  -2  -3  12    1.47    0.29
  -2  -3  12    1.12    0.25
   2  -3 -12    0.99    0.24
   2  -3 -12    1.23    0.26
   2   3 -12    1.26    0.28
   2   3 -12    1.38    0.27
  -2   3  12    1.37    0.30
   2   3 -12    0.99    0.26
   1  -3 -12    3.22    0.44
  -1  -3  12    4.04    0.48
  -1  -3  12    3.72    0.44
   1  -3 -12    3.17    0.40
   1   3 -12    4.13    0.48
   1   3 -12    4.23    0.52
  -1   3  12    3.29    0.43
   0  -3 -12    0.00    0.13
   0  -3  12   -0.03    0.12
   0  -3  12    0.34    0.19
   0  -3 -12    0.08    0.12
   0   3 -12    0.12    0.13
   0   3  12    0.10    0.13
   0   3 -12    0.03    0.11
   1  -3  12    0.17    0.14
  -1  -3 -12    0.14    0.15
  -1  -3 -12    0.11    0.12
   1  -3  12    0.29    0.18
   1   3  12    0.36    0.19
  -1   3 -12   -0.13    0.09
  -1   3 -12    0.18    0.14
   2  -3  12    0.51    0.21
   2  -3  12    1.03    0.28
  -2  -3 -12    0.87    0.23
  -2  -3 -12    0.51    0.21
  -2   3 -12    1.04    0.26
  -2   3 -12    1.21    0.29
   2   3  12    0.97    0.26
   3  -3  12    1.47    0.33
  -3  -3 -12    2.48    0.45
  -3   3 -12    2.07    0.38
   3   3  12    1.62    0.33
  -3   3 -12    2.18    0.37
   4  -3  12   -0.03    0.16
  -4  -3 -12    0.09    0.16
   4   3  12    0.29    0.16
  -4   3 -12    0.67    0.25
   7  -4 -12    1.29    0.33
  -7  -4  12    1.32    0.35
  -7   4  12    1.17    0.32
   7   4 -12    1.81    0.39
   7   4 -12    1.12    0.33
  -6  -4  12   -0.02    0.16
   6  -4 -12   -0.05    0.15
   6   4 -12   -0.18    0.12
  -6   4  12    0.00    0.15
   6   4 -12    0.14    0.15
  -5  -4  12    0.03    0.16
   5  -4 -12   -0.13    0.11
   5   4 -12   -0.08    0.11
  -5   4  12    0.06    0.14
   5   4 -12   -0.02    0.14
   4  -4 -12    1.10    0.29
  -4  -4  12    0.93    0.26
   4  -4 -12    1.10    0.25
   4   4 -12    1.19    0.27
  -4   4  12    1.09    0.28
   4   4 -12    1.21    0.32
   3  -4 -12    1.22    0.27
   3  -4 -12    0.95    0.25
  -3  -4  12    1.20    0.28
   3   4 -12    1.40    0.28
  -3   4  12    1.41    0.31
   3   4 -12    0.77    0.26
   2  -4 -12    1.29    0.27
  -2  -4  12    1.49    0.30
  -2  -4  12    1.82    0.34
   2  -4 -12    1.82    0.33
   2   4 -12    1.55    0.32
  -2   4  12    1.51    0.32
   2   4 -12    1.70    0.35
   1  -4 -12    0.68    0.23
   1  -4 -12    0.54    0.19
  -1  -4  12    0.35    0.19
  -1  -4  12    0.08    0.16
  -1   4  12    0.42    0.18
   1   4 -12    0.22    0.15
   1   4 -12    0.18    0.16
   0  -4 -12    0.05    0.13
   0  -4  12    0.12    0.16
   0  -4 -12   -0.02    0.11
   0  -4  12   -0.13    0.13
   0   4 -12    0.04    0.10
   0   4  12    0.02    0.12
   0   4 -12    0.08    0.14
  -1  -4 -12    1.13    0.26
   1  -4  12    0.35    0.18
   1  -4  12    1.05    0.28
  -1  -4 -12    0.99    0.28
  -1   4 -12    0.64    0.22
   1   4  12    0.76    0.23
  -1   4 -12    0.69    0.23
   2  -4  12    0.08    0.19
  -2  -4 -12    0.38    0.22
  -2  -4 -12    0.45    0.18
   2  -4  12    0.29    0.21
  -2   4 -12    0.44    0.19
   2   4  12    0.20    0.14
  -2   4 -12   -0.04    0.16
   3  -4  12    1.06    0.30
  -3  -4 -12    1.21    0.33
  -3   4 -12    0.98    0.30
   3   4  12    1.46    0.32
   6  -5 -12    0.39    0.24
  -6  -5  12    0.35    0.24
   6   5 -12    0.16    0.22
   6   5 -12    0.09    0.16
  -5  -5  12    0.25    0.24
   5  -5 -12    0.56    0.24
  -5   5  12    0.39    0.23
   5   5 -12    0.61    0.26
   5   5 -12    0.12    0.17
   4  -5 -12    0.04    0.17
  -4  -5  12    0.18    0.18
  -4   5  12    0.17    0.19
   4   5 -12    0.19    0.14
   4   5 -12    0.19    0.18
  -3  -5  12    0.36    0.21
   3  -5 -12    0.68    0.24
   3  -5 -12    0.34    0.16
   3   5 -12    0.72    0.24
  -3   5  12    1.29    0.32
   2  -5 -12    0.81    0.25
   2  -5 -12    0.70    0.23
  -2  -5  12    0.79    0.27
   2   5 -12    0.36    0.21
  -2   5  12    0.43    0.20
   2   5 -12    0.90    0.26
  -1  -5  12    0.31    0.19
   1  -5 -12    0.55    0.21
   1  -5 -12    0.17    0.16
  -1  -5  12    0.27    0.17
  -1   5  12    0.61    0.23
   1   5 -12    0.37    0.21
   1   5 -12    0.22    0.18
   0  -5  12    0.12    0.19
   0  -5  12    0.06    0.16
   0  -5 -12    0.09    0.14
   0  -5 -12    0.05    0.14
   0   5 -12   -0.12    0.14
   0   5 -12    0.22    0.18
   0   5  12    0.13    0.15
  -1  -5 -12    3.07    0.48
   1  -5  12    2.33    0.43
  -1  -5 -12    1.61    0.33
   1  -5  12    1.77    0.37
   1   5  12    1.69    0.33
  -1   5 -12    1.12    0.31
  -1   5 -12    1.71    0.36
  -2  -5 -12    0.99    0.28
   2  -5  12    0.56    0.26
  -2  -5 -12    0.85    0.30
   2  -5  12    1.03    0.32
  -2   5 -12    0.46    0.24
   2   5  12    0.72    0.24
  -3  -6  12    0.13    0.18
   3  -6 -12   -0.15    0.15
   3   6 -12    0.26    0.22
  -2  -6  12    0.31    0.19
   2  -6 -12   -0.08    0.15
   2  -6 -12   -0.12    0.15
  -2   6  12    0.23    0.21
   2   6 -12    0.15    0.18
  -1  -6  12    0.49    0.25
   1  -6 -12    0.32    0.20
   1  -6 -12    0.63    0.26
   1   6 -12    0.30    0.23
  -1   6  12    0.64    0.25
   1   6 -12    0.50    0.24
   0  -6 -12    0.27    0.19
   0  -6  12    0.42    0.25
   0  -6  12    0.04    0.17
   0  -6 -12    0.47    0.25
   0   6  12    0.43    0.22
   0   6 -12    0.29    0.24
   0   6 -12    0.29    0.23
   8   0 -13    2.24    0.40
   7   0 -13    0.11    0.14
   7   0 -13    0.02    0.25
   6   0 -13    2.13    0.37
  -6   0  13    1.51    0.30
   6   0 -13    2.78    0.41
  -5   0  13    4.09    0.46
   5   0 -13    5.15    0.54
   5   0 -13    5.35    0.56
   4   0 -13    0.45    0.16
   4   0 -13    0.34    0.15
  -4   0  13    0.37    0.16
   3   0 -13    0.04    0.11
  -3   0  13    0.15    0.13
   3   0 -13   -0.06    0.08
   2   0 -13    1.69    0.33
   2   0 -13    1.73    0.28
   1   0 -13    0.11    0.10
  -1   0  13    0.06    0.11
   1   0 -13    0.23    0.14
   0   0 -13    0.12    0.14
   0   0  13    0.04    0.11
   1   0  13    0.07    0.11
  -1   0 -13    0.13    0.11
  -2   0 -13    0.13    0.14
   2   0  13    0.08    0.16
  -3   0 -13    1.74    0.35
   3   0  13    1.14    0.32
   4   0  13    0.84    0.29
  -4   0 -13    1.13    0.30
   8  -1 -13    0.03    0.16
  -8  -1  13   -0.02    0.16
   8   1 -13    0.11    0.18
  -7  -1  13   -0.07    0.15
   7  -1 -13    0.22    0.18
  -7   1  13    0.22    0.19
   7   1 -13    0.02    0.15
   7   1 -13    0.21    0.16
   6  -1 -13    0.75    0.23
   6  -1 -13    1.06    0.28
  -6  -1  13    0.90    0.25
   6   1 -13    1.11    0.29
   6   1 -13    1.14    0.27
  -6   1  13    0.48    0.20
  -5  -1  13    0.93    0.22
   5  -1 -13    1.42    0.30
   5  -1 -13    1.19    0.27
   5   1 -13    0.70    0.23
   5   1 -13    0.73    0.23
  -5   1  13    1.07    0.26
   4  -1 -13    2.65    0.38
   4  -1 -13    1.70    0.32
  -4  -1  13    2.23    0.34
  -4   1  13    1.94    0.33
   4   1 -13    2.45    0.37
   4   1 -13    1.87    0.35
   3  -1 -13    0.05    0.12
  -3  -1  13    0.07    0.10
   3  -1 -13    0.12    0.15
  -3   1  13    0.14    0.13
   3   1 -13    0.10    0.12
   3   1 -13   -0.05    0.10
   2  -1 -13    0.25    0.15
   2  -1 -13    0.40    0.16
  -2  -1  13    0.89    0.24
   2   1 -13    0.55    0.19
   2   1 -13    0.65    0.19
  -2   1  13    0.28    0.15
   1  -1 -13    0.54    0.19
  -1  -1  13    0.65    0.21
   1  -1 -13    0.97    0.26
  -1   1  13    0.54    0.18
   1   1 -13    0.62    0.21
   0  -1 -13    0.42    0.16
   0  -1  13    0.68    0.20
   0  -1 -13    0.48    0.19
   0   1  13    0.80    0.23
   0   1 -13    0.54    0.19
   1  -1  13    1.68    0.34
  -1  -1 -13    2.31    0.38
   1   1  13    2.53    0.39
  -1   1 -13    2.31    0.37
  -2  -1 -13    0.27    0.17
   2  -1  13   -0.04    0.15
  -2   1 -13    0.24    0.16
   2   1  13    0.04    0.15
   3  -1  13    0.47    0.24
  -3  -1 -13    0.42    0.18
  -3   1 -13    0.38    0.19
   3   1  13    0.57    0.23
  -4  -1 -13    0.48    0.22
   4  -1  13    0.74    0.32
   4   1  13    0.34    0.19
  -4   1 -13    0.33    0.17
  -8  -2  13   -0.20    0.17
   8   2 -13    0.22    0.17
  -8   2  13   -0.02    0.20
  -7  -2  13   -0.08    0.19
   7  -2 -13    0.56    0.23
   7   2 -13    0.14    0.15
  -7   2  13    0.02    0.17
   7   2 -13    0.11    0.18
  -6  -2  13    0.55    0.23
   6  -2 -13    0.10    0.14
  -6   2  13    0.10    0.17
   6   2 -13    0.04    0.16
   6   2 -13    0.38    0.17
   5  -2 -13    1.00    0.25
   5  -2 -13    1.26    0.29
  -5  -2  13    1.43    0.31
  -5   2  13    0.63    0.21
   5   2 -13    1.65    0.33
   5   2 -13    1.26    0.31
  -4  -2  13    2.31    0.34
   4  -2 -13    2.27    0.38
  -4  -2  13    1.62    0.32
   4  -2 -13    2.39    0.36
   4   2 -13    2.19    0.39
  -4   2  13    2.02    0.35
   4   2 -13    2.18    0.35
  -3  -2  13    4.78    0.49
   3  -2 -13    6.34    0.49
   3  -2 -13    5.72    0.57
  -3  -2  13    5.95    0.47
   3   2 -13    5.44    0.43
  -3   2  13    5.39    0.56
   3   2 -13    5.46    0.60
   2  -2 -13    0.60    0.21
  -2  -2  13    0.67    0.19
  -2  -2  13    0.83    0.22
   2  -2 -13    0.56    0.20
  -2   2  13    0.88    0.24
   2   2 -13    1.03    0.23
   2   2 -13    1.45    0.32
  -1  -2  13    0.00    0.11
   1  -2 -13    0.07    0.12
  -1  -2  13   -0.04    0.11
   1  -2 -13    0.04    0.10
   1   2 -13   -0.06    0.11
   1   2 -13   -0.05    0.10
  -1   2  13    0.12    0.12
   0  -2 -13    2.24    0.38
   0  -2  13    2.56    0.38
   0  -2  13    1.60    0.29
   0  -2 -13    2.08    0.33
   0   2 -13    2.02    0.33
   0   2  13    1.84    0.34
   0   2 -13    2.24    0.38
  -1  -2 -13    0.41    0.19
   1  -2  13    0.36    0.19
   1  -2  13   -0.10    0.12
  -1   2 -13    0.19    0.14
   1   2  13    0.25    0.16
  -1   2 -13    0.33    0.17
   2  -2  13    1.02    0.28
  -2  -2 -13    1.22    0.30
   2   2  13    1.39    0.30
  -2   2 -13    0.84    0.25
  -2   2 -13    1.15    0.30
   3  -2  13    2.50    0.44
  -3  -2 -13    2.53    0.45
   3   2  13    2.22    0.39
  -3   2 -13    2.49    0.42
  -4  -2 -13    0.83    0.28
   4   2  13    0.63    0.25
  -7  -3  13    1.12    0.34
   7  -3 -13    0.57    0.25
   7   3 -13    0.68    0.25
   7   3 -13    0.70    0.25
  -7   3  13    1.22    0.33
  -6  -3  13    2.56    0.43
   6  -3 -13    1.54    0.33
   6   3 -13    2.01    0.40
   6   3 -13    1.80    0.38
  -6   3  13    1.44    0.33
   5  -3 -13    0.69    0.24
  -5  -3  13    1.14    0.28
   5   3 -13    0.59    0.23
  -5   3  13    0.79    0.24
   5   3 -13    0.43    0.19
   4  -3 -13    1.37    0.29
   4  -3 -13    1.20    0.30
  -4  -3  13    1.01    0.27
  -4   3  13    1.62    0.33
   4   3 -13    1.24    0.28
   4   3 -13    1.40    0.32
   3  -3 -13    0.59    0.21
  -3  -3  13    0.72    0.22
  -3  -3  13    0.76    0.21
   3  -3 -13    0.74    0.24
   3   3 -13    0.80    0.21
   3   3 -13    0.59    0.21
  -3   3  13    0.93    0.26
   2  -3 -13    0.44    0.17
  -2  -3  13    0.25    0.15
  -2  -3  13    0.47    0.19
   2  -3 -13    0.20    0.15
  -2   3  13    0.33    0.18
   2   3 -13    0.15    0.17
  -1  -3  13    0.43    0.20
  -1  -3  13    0.11    0.15
   1  -3 -13    0.15    0.14
   1  -3 -13    0.14    0.13
   1   3 -13    0.16    0.12
   1   3 -13    0.28    0.16
  -1   3  13   -0.09    0.10
   0  -3 -13    0.51    0.19
   0  -3  13    0.44    0.20
   0  -3 -13    0.57    0.21
   0  -3  13    0.34    0.19
   0   3 -13    0.28    0.15
   0   3 -13    0.54    0.22
   0   3  13    0.30    0.14
  -1  -3 -13    1.10    0.25
  -1  -3 -13    0.67    0.22
   1  -3  13    1.23    0.32
   1  -3  13    0.57    0.22
  -1   3 -13    0.79    0.25
   1   3  13    0.67    0.24
  -1   3 -13    0.72    0.24
  -2  -3 -13    0.77    0.27
   2  -3  13    0.74    0.26
   2  -3  13    0.72    0.27
  -2   3 -13    0.29    0.18
   2   3  13    0.82    0.24
  -2   3 -13    0.70    0.25
  -3  -3 -13    0.89    0.28
   3   3  13    1.00    0.27
  -3   3 -13    0.73    0.24
  -3   3 -13    0.50    0.22
  -6  -4  13    0.14    0.14
   6  -4 -13    0.08    0.18
   6   4 -13    0.00    0.15
   6   4 -13   -0.19    0.14
  -5  -4  13   -0.13    0.10
   5  -4 -13    0.31    0.20
   5   4 -13    0.01    0.16
   5   4 -13    0.09    0.16
  -5   4  13   -0.04    0.13
   4  -4 -13    0.98    0.29
   4  -4 -13    0.70    0.22
  -4  -4  13    0.52    0.23
   4   4 -13    0.83    0.26
   4   4 -13    0.66    0.23
  -4   4  13    1.03    0.29
   3  -4 -13    0.21    0.14
  -3  -4  13    0.17    0.19
   3  -4 -13    0.21    0.17
   3   4 -13    0.32    0.20
  -3   4  13    0.00    0.13
   2  -4 -13    1.87    0.35
  -2  -4  13    1.87    0.34
   2  -4 -13    1.88    0.37
  -2  -4  13    2.65    0.42
  -2   4  13    2.05    0.37
   2   4 -13    1.34    0.33
  -1  -4  13    1.05    0.30
   1  -4 -13    1.22    0.29
   1  -4 -13    0.90    0.25
  -1  -4  13    0.87    0.26
   1   4 -13    1.03    0.28
   1   4 -13    0.93    0.27
  -1   4  13    1.40    0.31
   0  -4 -13   -0.15    0.11
   0  -4  13   -0.09    0.14
   0  -4  13    0.00    0.14
   0  -4 -13    0.21    0.14
   0   4 -13    0.25    0.18
   0   4 -13    0.19    0.18
   0   4  13    0.06    0.16
  -1  -4 -13    0.43    0.22
  -1  -4 -13    0.28    0.19
   1  -4  13    0.40    0.22
   1  -4  13    0.32    0.22
  -1   4 -13    0.44    0.21
   1   4  13    0.18    0.16
  -1   4 -13    0.30    0.20
  -2  -4 -13    1.89    0.34
  -2  -4 -13    1.51    0.35
   2  -4  13    2.07    0.48
   2  -4  13    1.85    0.39
  -2   4 -13    2.50    0.45
  -2   4 -13    1.93    0.38
   2   4  13    1.68    0.34
  -4  -5  13    0.06    0.19
   4  -5 -13    0.45    0.23
   4   5 -13    0.18    0.20
   3  -5 -13    0.79    0.26
   3  -5 -13    0.76    0.29
  -3  -5  13    0.78    0.29
   3   5 -13    0.35    0.20
  -2  -5  13    0.37    0.18
   2  -5 -13    0.24    0.20
   2  -5 -13    0.32    0.18
   2   5 -13    0.14    0.18
  -2   5  13    0.29    0.20
   1  -5 -13    2.67    0.45
  -1  -5  13    2.59    0.41
   1  -5 -13    2.77    0.44
  -1  -5  13    2.35    0.44
   1   5 -13    2.56    0.45
   1   5 -13    2.79    0.45
  -1   5  13    2.88    0.46
   0  -5 -13    0.22    0.19
   0  -5 -13    0.19    0.20
   0  -5  13    0.28    0.22
   0  -5  13    0.25    0.20
   0   5 -13    0.14    0.18
   0   5  13    0.35    0.21
   0   5 -13   -0.08    0.16
  -1  -5 -13    1.55    0.33
   1  -5  13    2.61    0.48
  -1   5 -13    2.19    0.42
   1   5  13    2.45    0.48
   7   0 -14    0.14    0.17
   6   0 -14   -0.03    0.13
   6   0 -14    0.08    0.15
  -6   0  14    0.07    0.16
  -5   0  14    0.30    0.19
   5   0 -14    0.66    0.22
   5   0 -14    0.95    0.26
   4   0 -14    0.69    0.23
  -4   0  14    0.51    0.21
   4   0 -14    0.74    0.21
   3   0 -14    0.84    0.25
   3   0 -14    0.68    0.21
  -3   0  14    0.54    0.19
   2   0 -14    1.81    0.30
   2   0 -14    2.39    0.40
  -2   0  14    1.41    0.29
   1   0 -14    0.07    0.14
  -1   0  14    0.00    0.11
   0   0  14    0.48    0.20
   0   0 -14    0.32    0.19
  -1   0 -14    0.04    0.15
   1   0  14    0.17    0.14
  -2   0 -14    0.20    0.15
   2   0  14    0.34    0.19
  -3   0 -14    2.41    0.43
   7  -1 -14    0.46    0.19
  -7   1  14    0.33    0.21
   7   1 -14    0.19    0.19
   7   1 -14    0.94    0.29
   6  -1 -14    2.09    0.38
   6  -1 -14    2.12    0.38
  -6   1  14    1.11    0.27
   6   1 -14    1.97    0.36
   6   1 -14    2.34    0.40
   5  -1 -14    0.17    0.16
  -5  -1  14    0.24    0.17
   5  -1 -14   -0.10    0.12
  -5   1  14    0.14    0.16
   5   1 -14   -0.12    0.08
   5   1 -14    0.23    0.15
   4  -1 -14    0.69    0.22
   4  -1 -14    0.72    0.24
  -4  -1  14    0.82    0.22
   4   1 -14    0.81    0.24
   4   1 -14    0.56    0.21
  -4   1  14    0.61    0.22
   3  -1 -14    0.13    0.11
  -3  -1  14    0.32    0.17
   3  -1 -14    0.04    0.12
  -3   1  14    0.16    0.13
   3   1 -14    0.52    0.20
   3   1 -14    0.36    0.16
   2  -1 -14    0.75    0.22
   2  -1 -14    1.18    0.29
  -2  -1  14    1.11    0.26
   2   1 -14    1.12    0.25
   2   1 -14    1.07    0.28
  -2   1  14    0.76    0.23
  -1  -1  14    0.07    0.13
   1  -1 -14    0.04    0.08
   1  -1 -14   -0.04    0.11
  -1   1  14   -0.02    0.10
   1   1 -14    0.09    0.12
   0  -1  14    0.75    0.24
   0  -1 -14    0.64    0.24
   0   1  14    0.46    0.21
   0   1 -14    0.41    0.20
  -1  -1 -14    0.63    0.25
   1  -1  14    0.80    0.24
  -1   1 -14    0.69    0.23
   1   1  14    0.65    0.25
  -2  -1 -14    1.73    0.37
   2  -1  14    1.61    0.36
  -2   1 -14    1.82    0.35
   2   1  14    1.92    0.38
  -3  -1 -14    0.43    0.22
  -3   1 -14    0.15    0.15
  -7  -2  14    0.05    0.20
   7   2 -14    0.28    0.20
  -7   2  14    0.34    0.22
   7   2 -14    0.23    0.18
  -6  -2  14    0.81    0.29
   6  -2 -14    0.70    0.25
   6   2 -14    0.38    0.21
   6   2 -14    0.56    0.25
  -6   2  14    0.40    0.23
  -5  -2  14    0.66    0.25
   5  -2 -14    0.19    0.16
   5  -2 -14    0.30    0.21
  -5   2  14    0.24    0.20
   5   2 -14    0.45    0.20
   5   2 -14    0.42    0.19
  -4  -2  14    1.00    0.26
   4  -2 -14    0.96    0.25
  -4  -2  14    0.81    0.23
   4  -2 -14    0.41    0.18
   4   2 -14    0.93    0.24
   4   2 -14    0.93    0.28
  -4   2  14    0.71    0.23
  -3  -2  14    0.53    0.20
   3  -2 -14    0.21    0.16
   3  -2 -14    0.40    0.19
  -3   2  14    0.66    0.21
   3   2 -14    0.33    0.15
   3   2 -14    0.66    0.25
  -2  -2  14    0.76    0.23
   2  -2 -14    0.38    0.18
   2  -2 -14    0.43    0.18
   2   2 -14    0.69    0.25
  -2   2  14    0.69    0.24
   1  -2 -14    1.23    0.28
  -1  -2  14    1.47    0.31
   1  -2 -14    2.35    0.41
   1   2 -14    1.77    0.36
  -1   2  14    1.71    0.33
   0  -2  14    0.31    0.17
   0  -2 -14    0.74    0.22
   0  -2 -14    0.45    0.19
   0   2 -14    0.73    0.25
   0   2  14    0.50    0.21
  -1  -2 -14    0.45    0.21
   1  -2  14    0.28    0.21
  -1   2 -14    0.26    0.18
   1   2  14    0.71    0.24
  -2  -2 -14    0.67    0.25
   2  -2  14    0.70    0.27
   2   2  14    0.52    0.21
  -2   2 -14    0.43    0.20
  -3   2 -14    0.76    0.25
  -6  -3  14    0.33    0.22
   6  -3 -14    0.64    0.30
   6   3 -14    1.21    0.33
   6   3 -14    0.57    0.25
  -5  -3  14    0.35    0.21
   5  -3 -14    0.53    0.23
  -5   3  14    0.41    0.21
   5   3 -14    0.32    0.19
   5   3 -14    0.18    0.20
   4  -3 -14    1.84    0.34
   4  -3 -14    2.43    0.42
  -4  -3  14    1.42    0.32
  -4   3  14    1.88    0.38
   4   3 -14    1.67    0.32
   4   3 -14    1.62    0.36
   3  -3 -14    0.42    0.20
  -3  -3  14    0.26    0.16
  -3  -3  14    0.41    0.19
   3  -3 -14    0.54    0.23
  -3   3  14    0.14    0.15
   3   3 -14    0.07    0.12
  -2  -3  14    0.32    0.19
   2  -3 -14    0.11    0.16
  -2  -3  14    0.19    0.16
   2  -3 -14    0.06    0.14
   2   3 -14    0.17    0.14
  -2   3  14   -0.05    0.14
  -1  -3  14    1.35    0.31
  -1  -3  14    1.19    0.30
   1  -3 -14    1.41    0.30
   1  -3 -14    1.74    0.35
   1   3 -14    1.44    0.31
   1   3 -14    1.67    0.35
  -1   3  14    1.46    0.33
   0  -3 -14    0.29    0.19
   0  -3  14    0.81    0.25
   0  -3  14    0.40    0.23
   0  -3 -14    0.68    0.23
   0   3  14    0.54    0.23
   0   3 -14    0.32    0.19
   0   3 -14    0.80    0.27
   1  -3  14    0.56    0.24
   1  -3  14    0.33    0.23
  -1  -3 -14    0.46    0.22
  -1   3 -14    0.66    0.23
   1   3  14    0.48    0.21
  -1   3 -14    0.30    0.19
  -2  -3 -14    0.49    0.27
   2  -3  14    0.53    0.29
  -2   3 -14    0.24    0.22
  -2   3 -14    0.32    0.18
  -5  -4  14    1.42    0.35
  -4  -4  14    0.08    0.16
   4  -4 -14   -0.09    0.16
   4  -4 -14   -0.05    0.13
   4   4 -14    0.05    0.20
  -3  -4  14    2.50    0.44
   3  -4 -14    2.71    0.43
   3  -4 -14    1.47    0.33
  -3   4  14    2.41    0.50
   3   4 -14    1.92    0.42
   2  -4 -14    0.11    0.15
  -2  -4  14    0.26    0.18
   2  -4 -14    0.29    0.21
  -2  -4  14   -0.05    0.15
  -2   4  14    0.22    0.20
   2   4 -14    0.07    0.16
   1  -4 -14    0.62    0.25
  -1  -4  14    1.18    0.32
  -1  -4  14    0.35    0.21
   1  -4 -14    0.47    0.23
   1   4 -14    0.73    0.26
   1   4 -14    0.65    0.27
  -1   4  14    1.12    0.35
   0  -4 -14    1.08    0.30
   0  -4  14    0.74    0.26
   0  -4 -14    0.79    0.26
   0  -4  14    1.02    0.31
   0   4 -14    0.46    0.23
   0   4 -14    0.64    0.25
  -6   0  15    0.21    0.23
   6   0 -15   -0.03    0.15
   6   0 -15   -0.04    0.14
   5   0 -15   -0.04    0.13
  -5   0  15    0.01    0.15
   5   0 -15    0.01    0.13
  -4   0  15    0.03    0.15
   4   0 -15    0.16    0.14
   4   0 -15    0.00    0.13
   3   0 -15    0.19    0.14
  -3   0  15    0.02    0.16
   3   0 -15    0.04    0.13
  -2   0  15    0.12    0.16
   2   0 -15    0.21    0.16
   2   0 -15   -0.08    0.10
   1   0 -15    1.04    0.28
  -1   0  15    0.86    0.25
   0   0  15    2.74    0.45
   0   0 -15    2.38    0.44
  -1   0 -15    0.31    0.20
   6  -1 -15    0.25    0.19
   6  -1 -15    0.15    0.19
   6   1 -15    0.30    0.19
  -6   1  15    0.32    0.21
   6   1 -15    0.05    0.16
   5  -1 -15    0.46    0.22
  -5  -1  15    0.34    0.21
   5  -1 -15    0.28    0.17
   5   1 -15    0.49    0.20
  -5   1  15    0.62    0.24
   5   1 -15    0.22    0.22
   4  -1 -15    0.40    0.20
  -4  -1  15    0.44    0.21
   4  -1 -15    0.46    0.20
   4   1 -15    0.48    0.20
   4   1 -15    0.31    0.18
  -4   1  15    0.91    0.27
   3  -1 -15    0.09    0.14
   3  -1 -15    0.07    0.14
  -3  -1  15    0.16    0.17
   3   1 -15    0.12    0.15
   3   1 -15    0.17    0.18
  -3   1  15   -0.10    0.15
  -2  -1  15    1.08    0.26
   2  -1 -15    1.10    0.27
   2  -1 -15    1.02    0.27
  -2   1  15    0.80    0.27
   2   1 -15    1.07    0.29
   1  -1 -15   -0.09    0.12
  -1  -1  15    0.03    0.13
  -1   1  15    0.30    0.18
   1   1 -15    0.05    0.15
   0  -1 -15    0.26    0.19
   0  -1  15    0.03    0.15
   0   1 -15    0.27    0.21
   0   1  15    0.17    0.14
  -1  -1 -15    0.75    0.27
  -1   1 -15    1.45    0.36
   5  -2 -15    0.00    0.18
   5  -2 -15   -0.31    0.13
   5   2 -15    0.12    0.16
  -5   2  15    0.02    0.19
   5   2 -15    0.12    0.16
   4  -2 -15    0.12    0.17
  -4  -2  15    0.17    0.16
   4  -2 -15    0.31    0.20
  -4   2  15    0.10    0.16
   4   2 -15    0.04    0.17
   4   2 -15   -0.02    0.12
  -3  -2  15    0.22    0.17
   3  -2 -15    0.11    0.16
   3  -2 -15    0.18    0.14
   3   2 -15   -0.04    0.16
  -3   2  15    0.29    0.20
   2  -2 -15    0.72    0.24
   2  -2 -15    0.42    0.21
  -2  -2  15    0.30    0.20
   2   2 -15    0.61    0.27
  -2   2  15    0.77    0.27
  -1  -2  15    0.22    0.18
   1  -2 -15    0.08    0.15
   1  -2 -15    0.14    0.18
   1   2 -15    0.28    0.20
  -1   2  15   -0.02    0.14
   0  -2  15    0.69    0.26
   0  -2 -15    0.49    0.19
   0   2 -15    0.48    0.21
  -1   2 -15    1.09    0.32
   4  -3 -15   -0.05    0.16
  -4  -3  15   -0.17    0.19
   4  -3 -15    0.03    0.15
  -3  -3  15    0.29    0.21
   3  -3 -15    0.08    0.15
  -3  -3  15    0.32    0.24
   3  -3 -15   -0.01    0.14
   3   3 -15    0.08    0.18
  -2  -3  15    0.47    0.21
   2  -3 -15    0.62    0.26
   2  -3 -15    0.50    0.23
   2   3 -15    1.07    0.33
   1  -3 -15    0.48    0.22
  -1  -3  15    0.30    0.21
   1  -3 -15    0.31    0.20
   1   3 -15    0.42    0.23
   0  -3 -15    1.04    0.29
   0   3 -15    1.09    0.37
   4   0 -16    2.36    0.40
   4   0 -16    2.03    0.40
  -4   0  16    2.38    0.48
   3   0 -16    0.03    0.15
   3   0 -16   -0.15    0.14
   2   0 -16   -0.04    0.11
   3  -1 -16    0.28    0.20
   3  -1 -16    0.46    0.24
  -3  -1  16    0.42    0.23
   2  -1 -16    0.57    0.23
   2  -1 -16    0.63    0.27
   0   0   0    0.00    0.00
;
_shelx_hkl_checksum              42246
_shelx_res_file
;
TITL SIR92 run in space group P 21
    shelx.res
    created by SHELXL-2018/3 at 18:02:23 on 22-Jun-2022
CELL  0.71073   7.9887   6.6098  11.4753   90.000  102.080   90.000
ZERR     2.00   0.0004   0.0003   0.0006    0.000    0.002    0.000
LATT  -1
SYMM  - X, 1/2 + Y, - Z
SFAC  C    H    N    O
UNIT  22 28 8 6
MERG   2
FMAP   2
PLAN    5
SIZE     0.290   0.310   0.580
ACTA
BOND   $H
CONF
L.S.  10
TEMP    23.10
WGHT    0.074100    0.005400
FVAR       0.33739
O2    4    1.189067    0.753796    0.109174    11.00000    0.04902    0.03660 =
         0.03614   -0.00176   -0.00219   -0.00592
O1    4    1.287800    0.730064    0.304612    11.00000    0.05904    0.03736 =
         0.03396    0.00031    0.00384   -0.01116
O5    4    1.221863    0.281594    0.508378    11.00000    0.06415    0.04746 =
         0.03567   -0.00040   -0.00257    0.00687
N1    3    1.123329    0.387723    0.315628    11.00000    0.03964    0.03305 =
         0.03379    0.00088    0.00145    0.00062
N2    3    0.989126    0.403196    0.114839    11.00000    0.04504    0.04043 =
         0.03393    0.00341   -0.00085   -0.00327
AFIX  93
H2A   2    0.922002    0.350684    0.053936    11.00000   -1.50000
H2B   2    1.037368    0.517785    0.108395    11.00000   -1.50000
AFIX   0
N3    3    0.953810    0.132987    0.241304    11.00000    0.03758    0.03401 =
         0.03785    0.00092    0.00349   -0.00285
N8    3    1.664343    1.336934    0.422256    11.00000    0.05689    0.04756 =
         0.04079   -0.00827    0.00057   -0.01371
AFIX  93
H8A   2    1.719074    1.449209    0.423439    11.00000   -1.50000
H8B   2    1.673196    1.266985    0.486449    11.00000   -1.50000
AFIX   0
C6    1    1.376532    1.012872    0.206182    11.00000    0.02963    0.02918 =
         0.03274   -0.00097    0.00634    0.00233
C7    1    1.477194    1.082303    0.312008    11.00000    0.03616    0.03229 =
         0.03153   -0.00061    0.00715    0.00204
AFIX  43
H7    2    1.488580    1.004053    0.380574    11.00000   -1.20000
AFIX   0
C2    1    1.017810    0.308891    0.217148    11.00000    0.03004    0.03161 =
         0.03307   -0.00144    0.00453    0.00357
C10   1    1.449093    1.309283    0.106927    11.00000    0.04301    0.04506 =
         0.04083    0.01325    0.00390   -0.00153
AFIX  43
H10   2    1.440669    1.385072    0.037659    11.00000   -1.20000
AFIX   0
C3    1    0.837496    0.004562    0.159813    11.00000    0.03696    0.04313 =
         0.04993   -0.01100    0.00657   -0.00567
AFIX 137
H3A   2    0.746392   -0.038874    0.196803    11.00000   -1.50000
H3B   2    0.898264   -0.111474    0.140027    11.00000   -1.50000
H3C   2    0.790681    0.078849    0.088556    11.00000   -1.50000
AFIX   0
C8    1    1.562063    1.268850    0.317093    11.00000    0.03245    0.03275 =
         0.03900   -0.00607    0.00763   -0.00027
C5    1    1.134823    0.257723    0.409965    11.00000    0.04371    0.03419 =
         0.03298   -0.00090    0.00572    0.00607
C9    1    1.546185    1.380313    0.212125    11.00000    0.04068    0.03178 =
         0.05070    0.00275    0.00805   -0.00322
AFIX  43
H9    2    1.601932    1.504059    0.213370    11.00000   -1.20000
AFIX   0
C4    1    1.017000    0.083248    0.366518    11.00000    0.04630    0.03460 =
         0.03755    0.00442    0.00932    0.00109
AFIX  23
H4A   2    1.078528   -0.044220    0.375370    11.00000   -1.20000
H4B   2    0.924136    0.075954    0.408945    11.00000   -1.20000
AFIX   0
C11   1    1.362932    1.124860    0.102656    11.00000    0.03346    0.04368 =
         0.03604    0.00300    0.00203    0.00003
AFIX  43
H11   2    1.297219    1.077792    0.031180    11.00000   -1.20000
AFIX   0
C12   1    1.278515    0.817945    0.205602    11.00000    0.03361    0.03055 =
         0.03255   -0.00403    0.00463    0.00163
H1    2    1.187890    0.504602    0.313902    11.00000    0.08006
HKLF 4
REM  SIR92 run in space group P 21
REM wR2 = 0.1264, GooF = S = 1.041, Restrained GooF = 1.041 for all data
REM R1 = 0.0458 for 2802 Fo > 4sig(Fo) and 0.0589 for all 3487 data
REM 168 parameters refined using 1 restraints
END
WGHT      0.0746      0.0044
REM Highest difference peak  0.207,  deepest hole -0.227,  1-sigma level  0.046
Q1    1   1.6594  1.4914  0.4245  11.00000  0.05    0.20
Q2    1   1.3406  0.9126  0.2022  11.00000  0.05    0.18
Q3    1   1.5980  1.2752  0.4884  11.00000  0.05    0.16
Q4    1   0.7127  0.0224  0.1346  11.00000  0.05    0.15
Q5    1   1.3113  0.1245  0.4046  11.00000  0.05    0.15
;
_shelx_res_checksum              69626
loop_
_space_group_symop_operation_xyz
'x, y, z'
'-x, y+1/2, -z'
loop_
_atom_site_type_symbol
_atom_site_label
_atom_site_fract_x
_atom_site_fract_y
_atom_site_fract_z
_atom_site_U_iso_or_equiv
_atom_site_adp_type
_atom_site_calc_flag
_atom_site_occupancy
_atom_site_disorder_assembly
_atom_site_disorder_group
O O2 1.1891(2) 0.7538(3) 0.10917(14) 0.0422(4) Uani d 1 . .
O O1 1.2878(2) 0.7301(3) 0.30461(14) 0.0443(4) Uani d 1 . .
O O5 1.2219(2) 0.2816(3) 0.50838(15) 0.0510(5) Uani d 1 . .
N N1 1.1233(3) 0.3877(3) 0.31563(17) 0.0364(4) Uani d 1 . .
N N2 0.9891(3) 0.4032(3) 0.11484(17) 0.0411(5) Uani d 1 . .
H H2A 0.922002 0.350684 0.053936 0.062 Uiso calc 1 . .
H H2B 1.037368 0.517785 0.108395 0.062 Uiso calc 1 . .
N N3 0.9538(2) 0.1330(3) 0.24130(17) 0.0371(4) Uani d 1 . .
N N8 1.6643(3) 1.3369(4) 0.4223(2) 0.0498(6) Uani d 1 . .
H H8A 1.719074 1.449209 0.423439 0.075 Uiso calc 1 . .
H H8B 1.673196 1.266985 0.486449 0.075 Uiso calc 1 . .
C C6 1.3765(3) 1.0129(3) 0.20618(19) 0.0305(4) Uani d 1 . .
C C7 1.4772(3) 1.0823(4) 0.31201(19) 0.0333(5) Uani d 1 . .
H H7 1.488580 1.004053 0.380574 0.040 Uiso calc 1 . .
C C2 1.0178(3) 0.3089(3) 0.21715(18) 0.0319(5) Uani d 1 . .
C C10 1.4491(3) 1.3093(4) 0.1069(2) 0.0437(6) Uani d 1 . .
H H10 1.440669 1.385072 0.037659 0.052 Uiso calc 1 . .
C C3 0.8375(3) 0.0046(4) 0.1598(2) 0.0437(6) Uani d 1 . .
H H3A 0.746392 -0.038874 0.196803 0.066 Uiso calc 1 . .
H H3B 0.898264 -0.111474 0.140027 0.066 Uiso calc 1 . .
H H3C 0.790681 0.078849 0.088556 0.066 Uiso calc 1 . .
C C8 1.5621(3) 1.2689(4) 0.31709(19) 0.0347(5) Uani d 1 . .
C C5 1.1348(3) 0.2577(4) 0.4100(2) 0.0373(5) Uani d 1 . .
C C9 1.5462(3) 1.3803(4) 0.2121(2) 0.0413(6) Uani d 1 . .
H H9 1.601932 1.504059 0.213370 0.050 Uiso calc 1 . .
C C4 1.0170(3) 0.0832(4) 0.3665(2) 0.0394(5) Uani d 1 . .
H H4A 1.078528 -0.044220 0.375370 0.047 Uiso calc 1 . .
H H4B 0.924136 0.075954 0.408945 0.047 Uiso calc 1 . .
C C11 1.3629(3) 1.1249(4) 0.1027(2) 0.0385(5) Uani d 1 . .
H H11 1.297219 1.077792 0.031180 0.046 Uiso calc 1 . .
C C12 1.2785(3) 0.8179(3) 0.20560(18) 0.0326(5) Uani d 1 . .
H H1 1.188(5) 0.505(8) 0.314(3) 0.080(12) Uiso d 1 . .
loop_
_atom_site_aniso_label
_atom_site_aniso_U_11
_atom_site_aniso_U_22
_atom_site_aniso_U_33
_atom_site_aniso_U_12
_atom_site_aniso_U_13
_atom_site_aniso_U_23
O2 0.0490(9) 0.0366(8) 0.0361(8) -0.0059(8) -0.0022(7) -0.0018(7)
O1 0.0590(11) 0.0374(9) 0.0340(8) -0.0112(8) 0.0038(7) 0.0003(7)
O5 0.0641(11) 0.0475(11) 0.0357(9) 0.0069(10) -0.0026(8) -0.0004(8)
N1 0.0396(11) 0.0331(10) 0.0338(10) 0.0006(8) 0.0014(8) 0.0009(8)
N2 0.0450(11) 0.0404(11) 0.0339(10) -0.0033(9) -0.0008(8) 0.0034(9)
N3 0.0376(10) 0.0340(10) 0.0379(9) -0.0028(8) 0.0035(8) 0.0009(8)
N8 0.0569(13) 0.0476(12) 0.0408(11) -0.0137(11) 0.0006(9) -0.0083(10)
C6 0.0296(10) 0.0292(10) 0.0327(10) 0.0023(8) 0.0063(8) -0.0010(8)
C7 0.0362(11) 0.0323(11) 0.0315(10) 0.0020(8) 0.0071(8) -0.0006(9)
C2 0.0300(10) 0.0316(11) 0.0331(10) 0.0036(8) 0.0045(8) -0.0014(8)
C10 0.0430(13) 0.0451(14) 0.0408(13) -0.0015(11) 0.0039(10) 0.0132(11)
C3 0.0370(12) 0.0431(12) 0.0499(14) -0.0057(11) 0.0066(10) -0.0110(12)
C8 0.0324(11) 0.0327(11) 0.0390(11) -0.0003(9) 0.0076(9) -0.0061(9)
C5 0.0437(12) 0.0342(11) 0.0330(11) 0.0061(10) 0.0057(9) -0.0009(9)
C9 0.0407(13) 0.0318(12) 0.0507(14) -0.0032(10) 0.0080(11) 0.0028(11)
C4 0.0463(13) 0.0346(11) 0.0376(11) 0.0011(10) 0.0093(10) 0.0044(10)
C11 0.0335(11) 0.0437(13) 0.0360(11) 0.0000(10) 0.0020(9) 0.0030(10)
C12 0.0336(11) 0.0305(10) 0.0326(10) 0.0016(8) 0.0046(8) -0.0040(9)
loop_
_atom_type_symbol
_atom_type_description
_atom_type_scat_dispersion_real
_atom_type_scat_dispersion_imag
_atom_type_scat_source
C C 0.0033 0.0016 'International Tables Vol C Tables 4.2.6.8 and 6.1.1.4'
H H 0.0000 0.0000 'International Tables Vol C Tables 4.2.6.8 and 6.1.1.4'
N N 0.0061 0.0033 'International Tables Vol C Tables 4.2.6.8 and 6.1.1.4'
O O 0.0106 0.0060 'International Tables Vol C Tables 4.2.6.8 and 6.1.1.4'
loop_
_geom_angle_atom_site_label_1
_geom_angle_atom_site_label_2
_geom_angle_atom_site_label_3
_geom_angle_site_symmetry_1
_geom_angle_site_symmetry_3
_geom_angle
_geom_angle_publ_flag
C2 N1 C5 . . 110.0(2) ?
C2 N1 H1 . . 123(2) ?
C5 N1 H1 . . 126(2) ?
C2 N2 H2A . . 120.0 ?
C2 N2 H2B . . 120.0 ?
H2A N2 H2B . . 120.0 ?
C2 N3 C3 . . 127.2(2) ?
C2 N3 C4 . . 109.61(19) ?
C3 N3 C4 . . 123.2(2) ?
C8 N8 H8A . . 120.0 ?
C8 N8 H8B . . 120.0 ?
H8A N8 H8B . . 120.0 ?
C11 C6 C7 . . 120.1(2) ?
C11 C6 C12 . . 120.4(2) ?
C7 C6 C12 . . 119.49(19) ?
C6 C7 C8 . . 120.9(2) ?
C6 C7 H7 . . 119.5 ?
C8 C7 H7 . . 119.5 ?
N2 C2 N3 . . 127.2(2) ?
N2 C2 N1 . . 121.6(2) ?
N3 C2 N1 . . 111.17(19) ?
C9 C10 C11 . . 120.9(2) ?
C9 C10 H10 . . 119.6 ?
C11 C10 H10 . . 119.6 ?
N3 C3 H3A . . 109.5 ?
N3 C3 H3B . . 109.5 ?
H3A C3 H3B . . 109.5 ?
N3 C3 H3C . . 109.5 ?
H3A C3 H3C . . 109.5 ?
H3B C3 H3C . . 109.5 ?
N8 C8 C9 . . 120.8(2) ?
N8 C8 C7 . . 121.0(2) ?
C9 C8 C7 . . 118.2(2) ?
O5 C5 N1 . . 126.0(2) ?
O5 C5 C4 . . 127.4(2) ?
N1 C5 C4 . . 106.55(19) ?
C10 C9 C8 . . 120.7(2) ?
C10 C9 H9 . . 119.6 ?
C8 C9 H9 . . 119.6 ?
N3 C4 C5 . . 102.54(19) ?
N3 C4 H4A . . 111.3 ?
C5 C4 H4A . . 111.3 ?
N3 C4 H4B . . 111.3 ?
C5 C4 H4B . . 111.3 ?
H4A C4 H4B . . 109.2 ?
C6 C11 C10 . . 119.2(2) ?
C6 C11 H11 . . 120.4 ?
C10 C11 H11 . . 120.4 ?
O2 C12 O1 . . 123.4(2) ?
O2 C12 C6 . . 119.4(2) ?
O1 C12 C6 . . 117.14(18) ?
loop_
_geom_bond_atom_site_label_1
_geom_bond_atom_site_label_2
_geom_bond_site_symmetry_2
_geom_bond_distance
_geom_bond_publ_flag
O2 C12 . 1.259(3) ?
O1 C12 . 1.264(3) ?
O5 C5 . 1.206(3) ?
N1 C2 . 1.364(3) ?
N1 C5 . 1.370(3) ?
N1 H1 . 0.93(5) ?
N2 C2 . 1.306(3) ?
N2 H2A . 0.8600 ?
N2 H2B . 0.8600 ?
N3 C2 . 1.323(3) ?
N3 C3 . 1.447(3) ?
N3 C4 . 1.457(3) ?
N8 C8 . 1.383(3) ?
N8 H8A . 0.8600 ?
N8 H8B . 0.8600 ?
C6 C11 . 1.385(3) ?
C6 C7 . 1.387(3) ?
C6 C12 . 1.507(3) ?
C7 C8 . 1.402(3) ?
C7 H7 . 0.9300 ?
C10 C9 . 1.374(3) ?
C10 C11 . 1.396(4) ?
C10 H10 . 0.9300 ?
C3 H3A . 0.9600 ?
C3 H3B . 0.9600 ?
C3 H3C . 0.9600 ?
C8 C9 . 1.395(3) ?
C5 C4 . 1.506(4) ?
C9 H9 . 0.9300 ?
C4 H4A . 0.9700 ?
C4 H4B . 0.9700 ?
C11 H11 . 0.9300 ?
loop_
_geom_hbond_atom_site_label_D
_geom_hbond_atom_site_label_H
_geom_hbond_atom_site_label_A
_geom_hbond_site_symmetry_A
_geom_hbond_distance_DH
_geom_hbond_distance_HA
_geom_hbond_distance_DA
_geom_hbond_angle_DHA
N1 H1 O1 . 0.93(5) 1.70(5) 2.633(3) 174(4)
N2 H2A O2 2_745 0.86 2.00 2.842(3) 166
N2 H2B O2 . 0.86 1.97 2.823(3) 169
N8 H8A O5 2_866 0.86 2.35 3.130(3) 152
N8 H8B O1 . 0.86 2.36 3.157(3) 153
C3 H3C O2 2_745 0.96 2.58 3.466(3) 153
loop_
_geom_torsion_atom_site_label_1
_geom_torsion_atom_site_label_2
_geom_torsion_atom_site_label_3
_geom_torsion_atom_site_label_4
_geom_torsion_site_symmetry_1
_geom_torsion_site_symmetry_2
_geom_torsion_site_symmetry_3
_geom_torsion_site_symmetry_4
_geom_torsion
_geom_torsion_publ_flag
C11 C6 C7 C8 . . . . 2.1(3) ?
C12 C6 C7 C8 . . . . -176.24(19) ?
C3 N3 C2 N2 . . . . 0.1(4) ?
C4 N3 C2 N2 . . . . -179.4(2) ?
C3 N3 C2 N1 . . . . -180.0(2) ?
C4 N3 C2 N1 . . . . 0.5(3) ?
C5 N1 C2 N2 . . . . -178.5(2) ?
C5 N1 C2 N3 . . . . 1.5(3) ?
C6 C7 C8 N8 . . . . -179.1(2) ?
C6 C7 C8 C9 . . . . -1.7(3) ?
C2 N1 C5 O5 . . . . 177.8(2) ?
C2 N1 C5 C4 . . . . -2.8(2) ?
C11 C10 C9 C8 . . . . 0.5(4) ?
N8 C8 C9 C10 . . . . 177.8(2) ?
C7 C8 C9 C10 . . . . 0.4(3) ?
C2 N3 C4 C5 . . . . -2.1(2) ?
C3 N3 C4 C5 . . . . 178.4(2) ?
O5 C5 C4 N3 . . . . -177.7(2) ?
N1 C5 C4 N3 . . . . 2.9(2) ?
C7 C6 C11 C10 . . . . -1.1(3) ?
C12 C6 C11 C10 . . . . 177.2(2) ?
C9 C10 C11 C6 . . . . -0.1(4) ?
C11 C6 C12 O2 . . . . 2.6(3) ?
C7 C6 C12 O2 . . . . -179.0(2) ?
C11 C6 C12 O1 . . . . -175.5(2) ?
C7 C6 C12 O1 . . . . 2.8(3) ?

_cod_database_fobs_code 2022648
