#------------------------------------------------------------------------------
#$Date: 2020-05-14 06:47:12 +0300 (Thu, 14 May 2020) $
#$Revision: 252049 $
#$URL: file:///home/coder/svn-repositories/cod/cif/2/02/21/2022115.cif $
#------------------------------------------------------------------------------
#
# This file is available in the Crystallography Open Database (COD),
# http://www.crystallography.net/. The original data for this entry
# were provided by IUCr Journals, http://journals.iucr.org/.
#
# The file may be used within the scientific community so long as
# proper attribution is given to the journal article from which the
# data were obtained.
#
data_2022115
loop_
_publ_author_name
'Senior, Levi'
'Linden, Anthony'
_publ_section_title
;
 Halobismuth(III) salts with substituted aminopyridinium cations
;
_journal_coeditor_code           FP3085
_journal_issue                   6
_journal_name_full               'Acta Crystallographica Section C'
_journal_page_first
;
;
_journal_paper_doi               10.1107/S2053229620006130
_journal_volume                  76
_journal_year                    2020
_chemical_formula_iupac          '(C6 H9 N2)4 [Bi2 Br10]'
_chemical_formula_moiety         '4(C6 H9 N2 1+), Bi2 Br10 4-'
_chemical_formula_sum            'C24 H36 Bi2 Br10 N8'
_chemical_formula_weight         1653.67
_chemical_name_systematic
;
Tetrakis(2-amino-3-methylpyridinium)
di-\m-bromido-bis[tetrabromidobismuth(III)]
;
_space_group_crystal_system      triclinic
_space_group_IT_number           2
_space_group_name_Hall           '-P 1'
_space_group_name_H-M_alt        'P -1'
_atom_sites_solution_hydrogens   geom
_atom_sites_solution_primary     dual
_atom_sites_solution_secondary   difmap
_audit_creation_method           SHELXL-2018/3
_cell_angle_alpha                75.476(3)
_cell_angle_beta                 86.926(3)
_cell_angle_gamma                89.221(2)
_cell_formula_units_Z            1
_cell_length_a                   9.2145(3)
_cell_length_b                   9.0678(2)
_cell_length_c                   12.6314(4)
_cell_measurement_reflns_used    11813
_cell_measurement_temperature    160(2)
_cell_measurement_theta_max      29.0680
_cell_measurement_theta_min      3.1780
_cell_volume                     1020.22(5)
_computing_cell_refinement
;
CrysAlis PRO (Rigaku OD, 2018)
;
_computing_data_collection
;
CrysAlis PRO (Rigaku OD, 2018)
;
_computing_data_reduction
;
CrysAlis PRO (Rigaku OD, 2018)
;
_computing_molecular_graphics
;
OLEX2 (Dolomanov <i>et al.</i>, 2009) and Mercury (Macrae <i>et al.</i>,
2020)
;
_computing_publication_material
;
SHELXL2018 (Sheldrick, 2015b) and PLATON (Spek, 2015,
2020)
;
_computing_structure_refinement
;
SHELXL2018 (Sheldrick, 2015b)
;
_computing_structure_solution
;
SHELXT2018 (Sheldrick, 2015a)
;
_diffrn_ambient_temperature      160(2)
_diffrn_detector                 'CCD area detector'
_diffrn_detector_area_resol_mean 10.3801
_diffrn_measured_fraction_theta_full 0.999
_diffrn_measured_fraction_theta_max 0.895
_diffrn_measurement_device       'four-circle \k-geometry diffractometer'
_diffrn_measurement_device_type  'Oxford Diffraction SuperNova dual radiation'
_diffrn_measurement_method       '\w scans'
_diffrn_radiation_monochromator  mirror
_diffrn_radiation_probe          x-ray
_diffrn_radiation_type           'Mo K\a'
_diffrn_radiation_wavelength     0.71073
_diffrn_reflns_av_R_equivalents  0.0455
_diffrn_reflns_av_unetI/netI     0.0394
_diffrn_reflns_limit_h_max       12
_diffrn_reflns_limit_h_min       -12
_diffrn_reflns_limit_k_max       11
_diffrn_reflns_limit_k_min       -12
_diffrn_reflns_limit_l_max       17
_diffrn_reflns_limit_l_min       -17
_diffrn_reflns_number            22534
_diffrn_reflns_theta_full        25.242
_diffrn_reflns_theta_max         29.572
_diffrn_reflns_theta_min         2.840
_diffrn_source                   'micro-focus sealed X-ray tube'
_exptl_absorpt_coefficient_mu    18.433
_exptl_absorpt_correction_T_max  1.00000
_exptl_absorpt_correction_T_min  0.27432
_exptl_absorpt_correction_type   multi-scan
_exptl_absorpt_process_details
;
(CrysAlis PRO; Rigaku OD, 2018)
;
_exptl_crystal_colour            yellow
_exptl_crystal_density_diffrn    2.692
_exptl_crystal_description       needle
_exptl_crystal_F_000             752
_exptl_crystal_size_max          0.15
_exptl_crystal_size_mid          0.14
_exptl_crystal_size_min          0.07
_refine_diff_density_max         1.523
_refine_diff_density_min         -1.772
_refine_ls_extinction_coef       0.00191(12)
_refine_ls_extinction_expression Fc^*^=kFc[1+0.001xFc^2^\l^3^/sin(2\q)]^-1/4^
_refine_ls_extinction_method
;
SHELXL2018 (Sheldrick, 2015b)
;
_refine_ls_goodness_of_fit_ref   1.059
_refine_ls_hydrogen_treatment    constr
_refine_ls_matrix_type           full
_refine_ls_number_parameters     202
_refine_ls_number_reflns         5122
_refine_ls_number_restraints     0
_refine_ls_restrained_S_all      1.059
_refine_ls_R_factor_all          0.0347
_refine_ls_R_factor_gt           0.0282
_refine_ls_shift/su_max          0.001
_refine_ls_shift/su_mean         0.000
_refine_ls_structure_factor_coef Fsqd
_refine_ls_weighting_details
'w=1/[\s^2^(Fo^2^)+(0.0239P)^2^] where P=(Fo^2^+2Fc^2^)/3'
_refine_ls_weighting_scheme      calc
_refine_ls_wR_factor_gt          0.0558
_refine_ls_wR_factor_ref         0.0592
_reflns_number_gt                4575
_reflns_number_total             5122
_reflns_threshold_expression     'I > 2\s(I)'
_cod_data_source_file            fp3085sup1.cif
_cod_data_source_block           3
_cod_database_code               2022115
_shelx_space_group_comment
;
The symmetry employed for this shelxl refinement is uniquely defined
by the following loop, which should always be used as a source of
symmetry information in preference to the above space-group names.
They are only intended as comments.
;
_shelx_estimated_absorpt_t_min   0.169
_shelx_estimated_absorpt_t_max   0.359
_shelx_hkl_file
;
   0   0  -2  814.11   22.38
   0   0   2  797.67   20.20
   0   0  -2  806.63   20.41
   0   0  -2  788.27   19.52
   0   0   2  849.94   18.83
   0   0  -2  828.99   20.65
   0   0   2  813.83   19.61
   0   0  -3  764.90   20.94
   0   0  -3  732.18   19.27
   0   0  -3  740.64   23.24
   0   0  -3  744.95   21.29
   0   0   3  725.20   19.17
   0   0   3  735.64   18.25
   0   0   4  153.60    6.34
   0   0  -4  167.64   10.40
   0   0   4  160.16    7.92
   0   0   4  153.33    7.05
   0   0  -4  151.19    7.12
   0   0  -4  149.38    8.87
   0   0  -5  869.82   28.61
   0   0  -5  891.85   31.37
   0   0   5  875.48   23.01
   0   0  -5  857.35   24.12
   0   0   5  855.84   25.93
   0   0   5  902.95   24.33
   0   0  -6 3234.46   83.68
   0   0   6 3162.28   72.15
   0   0   6 3206.59   75.46
   0   0   6 3254.77   70.49
   0   0  -6 3148.44   80.01
   0   0  -6 3042.68   71.95
   0   0  -7   22.71    3.16
   0   0  -7   22.27    4.68
   0   0   7   22.45    2.79
   0   0  -7   21.61    5.27
   0   0   7   20.42    3.90
   0   0   7   19.71    3.05
   0   0  -8  675.80   32.11
   0   0  -8  629.49   21.32
   0   0   8  593.54   19.55
   0   0   8  645.95   21.47
   0   0  -8  616.54   29.38
   0   0   8  663.20   25.54
   0   0   9    5.65    2.77
   0   0  -9    2.90    1.39
   0   0   9    4.13    1.45
   0   0   9    3.75    1.32
   0   0  -9   -0.34    3.42
   0   0  -9    1.09    3.24
   0   0  10   20.81    3.78
   0   0  10   15.07    2.63
   0   0  10   19.91    4.47
   0   0 -10   16.58    3.18
   0   0 -10   19.63    5.23
   0   0  11   99.84    8.14
   0   0  11   96.90    7.03
   0   0 -11   95.11   13.25
   0   0  11   97.81   10.51
   0   0 -11  100.80    8.04
   0   0 -12   90.76   12.84
   0   0  12   94.50   10.96
   0   0  12   81.76    7.57
   0   0  12   99.98    7.28
   0   0 -12   89.55    7.92
   0   0 -12  105.74   15.16
   0   0  13   41.49    7.60
   0   0 -13   41.20   10.58
   0   0  13   46.35    4.94
   0   0 -13   44.30    5.55
   0   0 -13   34.47    8.23
   0   0 -14  121.90   18.78
   0   0 -14  111.85    9.14
   0   0 -14  100.74   13.99
   0   0  14  120.10   14.12
   0   0  15    4.66    3.92
   0   0 -15    5.14    4.89
   0  -1  15    6.97    4.47
   0   1 -15    5.58    4.84
   0  -1  14  169.53   17.31
   0   1 -14  164.82   21.40
   0   1 -14  144.24   12.10
   0   1 -13   27.52    5.13
   0  -1  13   37.43    7.50
   0   1 -13   36.50   10.16
   0  -1  13   28.49    4.58
   0  -1  12  133.60   10.00
   0  -1  12  144.64    8.34
   0  -1  12  135.22   13.48
   0   1 -12  115.05   10.42
   0   1 -12  133.63   17.01
   0   1 -11   24.12    5.55
   0  -1  11   41.70    5.48
   0  -1  11   37.80    4.04
   0  -1  11   31.86    6.32
   0   1 -11   34.11    8.25
   0   1 -11   27.01    4.77
   0  -1  10    0.50    2.10
   0   1 -10   -2.69    3.93
   0  -1  10    2.54    1.77
   0   1 -10    1.77    2.11
   0   1 -10    0.69    1.63
   0  -1  10    0.27    0.85
   0  -1   9  170.49    8.21
   0  -1   9  172.66   10.56
   0   1  -9  158.65   15.68
   0   1  -9  143.39   12.90
   0   1  -9  141.53   10.93
   0  -1   9  174.41   12.95
   0  -1   8  129.99    6.79
   0   1  -8  114.25   10.39
   0  -1   8  127.07    8.66
   0   1  -8  122.80    9.72
   0  -1   8  125.91   10.17
   0   1  -8  129.86   13.06
   0   1  -7   63.60    6.69
   0  -1   7   64.30    4.21
   0   1  -7   60.67    8.08
   0   1  -7   54.43    6.53
   0  -1   7   73.71    6.98
   0  -1   7   58.85    5.60
   0   1  -6  843.06   27.33
   0  -1   6  800.89   25.74
   0  -1   6  881.55   21.83
   0  -1   6  878.85   27.89
   0   1  -6  831.18   28.33
   0   1  -6  877.49   33.41
   0   1  -5    5.23    2.01
   0   1  -5    7.89    1.94
   0   1  -5    6.62    1.38
   0   1  -5    6.09    1.73
   0   1  -5    5.34    2.00
   0  -1   5    8.33    1.20
   0  -1   5    6.22    1.65
   0   1  -4   30.56    4.35
   0  -1   4   24.76    3.18
   0   1  -4   24.79    3.14
   0   1  -4   26.19    2.26
   0  -1   4   25.39    1.83
   0   1  -4   23.08    3.49
   0   1  -3  904.62   27.50
   0   1  -3  874.78   24.11
   0  -1   3  883.65   24.25
   0   1  -3  845.09   26.22
   0  -1   2  359.57   11.78
   0   1  -2  377.51   13.44
   0  -1   2  347.80   13.51
   0   1  -2  348.18   13.66
   0  -1   1  170.11    7.22
   0  -1   1  171.66    6.68
   0  -1   1  160.47    6.68
   0   1   2  570.63   19.16
   0   1   2  587.52   19.31
   0   1   3   49.50    4.82
   0   1   3   50.05    2.25
   0   1   3   54.06    5.10
   0  -1  -3   45.54    5.20
   0  -1  -4   54.49    2.65
   0  -1  -4   48.90    5.48
   0   1   4   52.14    5.22
   0  -1  -4   54.20    2.76
   0   1   4   55.38    2.59
   0  -1  -4   54.61    6.21
   0   1   4   48.90    3.22
   0   1   5  971.20   22.24
   0  -1  -5  942.86   32.36
   0  -1  -5  949.44   33.81
   0   1   5  924.61   29.61
   0  -1  -5  951.92   22.70
   0   1   6 2848.28   69.87
   0   1   6 2800.06   60.67
   0  -1  -6 2926.63   76.51
   0  -1  -6 2857.62   77.57
   0  -1  -6 2832.32   61.58
   0   1   7   36.35    2.78
   0   1   7   40.75    5.24
   0  -1  -7   37.29    6.37
   0  -1  -7   46.61    7.13
   0  -1  -7   42.17    3.39
   0  -1  -8 1157.79   44.40
   0   1   8 1078.93   26.87
   0  -1  -8 1052.90   28.15
   0   1   8 1123.75   35.08
   0  -1  -9  208.51    9.42
   0   1   9  203.13    8.41
   0   1   9  203.03   12.74
   0   1   9  216.10   14.35
   0  -1  -9  222.09   18.79
   0  -1 -10   42.72    8.55
   0   1  10   45.51    3.80
   0  -1 -10   45.23    8.74
   0   1  10   45.77    6.90
   0  -1 -10   41.68    4.14
   0   1  10   43.10    5.98
   0   1  11  590.42   17.62
   0  -1 -11  510.83   34.31
   0   1  11  574.63   24.58
   0   1  11  571.05   27.68
   0  -1 -11  550.02   19.08
   0   1  12  322.22   20.99
   0  -1 -12  279.10   12.74
   0   1  12  302.15   11.25
   0  -1 -12  325.01   27.39
   0   1  12  293.05   17.03
   0  -1 -13  225.59   11.45
   0  -1 -13  217.08   23.21
   0  -1 -13  276.70   26.95
   0   1  13  235.70   18.99
   0  -1 -14  292.11   29.58
   0   1  14  316.15   23.19
   0  -1 -14  260.50   25.75
   0  -1 -15   42.78   10.68
   0   1  15   44.95    9.25
   0  -1 -15   50.92   13.38
   0   1  15   41.26    8.50
   0  -2  15   13.47    4.73
   0   2 -14  373.32   23.31
   0  -2  14  460.67   29.04
   0   2 -14  472.30   36.20
   0   2 -13   69.30    9.37
   0  -2  13   75.56    8.70
   0  -2  13   86.70   11.95
   0   2 -13   87.56   14.74
   0   2 -12  491.30   24.14
   0  -2  12  565.54   29.60
   0   2 -12  604.13   36.99
   0  -2  12  527.75   24.28
   0   2 -12  509.95   26.44
   0  -2  11  462.25   13.06
   0   2 -11  447.51   30.31
   0  -2  11  418.66   24.09
   0   2 -11  418.74   21.94
   0  -2  11  428.41   21.35
   0   2 -11  416.15   23.43
   0   2 -10   65.73   10.80
   0   2 -10   70.12    8.02
   0  -2  10   72.39    8.96
   0   2 -10   58.86    8.14
   0  -2  10   69.62    3.96
   0  -2  10   56.32    7.09
   0   2  -9  127.64   14.06
   0   2  -9  120.42   11.25
   0  -2   9  111.48    9.58
   0  -2   9  117.15    5.20
   0   2  -9  111.26    9.67
   0  -2   9  115.81   10.60
   0  -2   8  931.31   33.15
   0  -2   8  940.13   21.92
   0   2  -8  964.06   39.77
   0   2  -8  887.82   34.51
   0  -2   8  841.60   31.21
   0   2  -7    2.63    1.52
   0  -2   7    0.76    1.45
   0  -2   7    3.19    0.78
   0   2  -7   -0.31    2.38
   0   2  -7    0.57    1.86
   0   2  -7    2.96    1.87
   0   2  -6 2656.20   70.67
   0   2  -6 2659.61   72.74
   0   2  -6 2535.65   59.84
   0   2  -6 2652.69   66.36
   0   2  -6 2549.36   57.40
   0  -2   6 2618.09   66.00
   0  -2   5  236.71   15.67
   0   2  -5  254.16   15.28
   0   2  -5  234.88   14.66
   0   2  -5  240.14    7.61
   0  -2   5  219.49   12.06
   0   2  -5  239.81   12.59
   0   2  -4    4.15    0.80
   0  -2   4    5.41    1.76
   0  -2   4    5.11    2.02
   0   2  -4    4.55    1.68
   0   2  -4    8.25    2.82
   0   2  -4    3.32    0.63
   0   2  -4    0.54    1.92
   0   2  -3  365.08   15.78
   0   2  -3  338.99   14.22
   0  -2   3  347.28   14.19
   0   2  -3  340.78    9.51
   0   2  -3  348.27    9.62
   0   2  -3  353.91   17.04
   0  -2   3  358.37   16.68
   0  -2   2  200.84   10.02
   0  -2   2  194.11   10.47
   0  -2   2  201.64    9.77
   0   2  -2  199.88    7.59
   0   2  -2  214.27   10.35
   0  -2   2  204.08    7.01
   0  -2   1  285.99   11.75
   0  -2   1  304.30   13.23
   0   2  -1  337.99   12.30
   0  -2   1  300.72   13.33
   0   2  -1  302.51   13.51
   0   2  -1  292.59   12.01
   0  -2   1  304.47   11.59
   0  -2   0 2063.28   48.10
   0   2   0 2105.97   53.20
   0  -2   0 1869.44   55.42
   0  -2   0 2281.19   53.70
   0   2   0 1917.69   55.60
   0  -2   0 2173.08   53.90
   0  -2  -1   14.52    2.61
   0  -2  -1   19.25    3.13
   0   2   1   13.01    2.64
   0  -2  -2   25.02    3.24
   0   2   2   28.26    4.55
   0   2   3 1019.46   33.82
   0  -2  -3  936.64   28.19
   0   2   3  998.97   33.66
   0  -2  -3  962.23   23.47
   0   2   4    1.99    1.76
   0   2   4    2.56    1.02
   0  -2  -4    1.02    1.54
   0  -2  -4    2.93    0.69
   0  -2  -5   84.47    8.10
   0  -2  -5   78.45    9.25
   0  -2  -5   96.86    4.07
   0   2   5   82.21    8.65
   0  -2  -6  335.65   10.02
   0  -2  -6  361.50   19.25
   0   2   6  376.64   19.49
   0   2   6  356.60   10.09
   0  -2  -6  358.11   21.79
   0  -2  -7   26.21    5.33
   0   2   7   23.65    1.97
   0   2   7   23.29    4.66
   0   2   8  153.63   12.57
   0   2   8  174.08    6.36
   0   2   8  152.93   12.12
   0  -2  -8  177.41   15.42
   0   2   9   26.44    5.53
   0  -2  -9   19.87    5.54
   0  -2  -9   14.40    4.91
   0   2   9   25.77    2.19
   0   2   9   20.12    5.17
   0   2  10    7.67    1.06
   0  -2 -10   10.29    4.99
   0   2  10    4.54    1.75
   0   2  10    5.37    2.85
   0  -2 -10    1.94    3.35
   0  -2 -11  104.82   15.76
   0   2  11  114.77   11.44
   0   2  11  125.00   12.14
   0   2  11  106.23   11.91
   0  -2 -11  105.80   14.65
   0   2  11   98.24    4.08
   0   2  12   34.56    6.33
   0   2  12   39.49    7.14
   0  -2 -12   40.52   10.10
   0   2  12   43.59    8.07
   0  -2 -12   30.13    8.62
   0   2  13  137.27   14.29
   0  -2 -13  138.99   19.73
   0  -2 -13  128.23   18.16
   0   2  13  146.82   15.47
   0  -2 -14  268.14   28.54
   0  -2 -14  303.71   29.96
   0   2  14  276.29   21.89
   0   2  14  252.00   21.87
   0   2  15    8.31    3.81
   0  -2 -15    9.75    7.22
   0  -2 -15   16.85    9.22
   0   2  15   19.35    6.69
   0   3 -15   -4.19    4.37
   0   3 -14  144.26   19.71
   0  -3  14  130.60   13.27
   0   3 -14  142.05   14.89
   0  -3  14  140.71   16.08
   0  -3  13    9.36    4.34
   0  -3  13   24.10    5.93
   0   3 -13   27.11    8.22
   0   3 -12  312.12   26.56
   0   3 -12  272.41   20.84
   0  -3  12  283.53   21.00
   0  -3  12  279.87   18.87
   0  -3  11  102.57   11.21
   0   3 -11  120.06   15.22
   0  -3  11  131.53   13.23
   0   3 -11  122.48   13.39
   0   3 -11  107.06    6.98
   0   3 -11  112.84    5.52
   0  -3  10   64.94    8.80
   0   3 -10   53.84    5.04
   0  -3  10   52.81    7.68
   0   3 -10   67.20    9.76
   0   3 -10   65.76    3.96
   0   3 -10   66.91   10.62
   0   3  -9    9.63    3.88
   0   3  -9   11.24    4.41
   0   3  -9    9.66    2.10
   0   3  -9    8.24    1.33
   0  -3   9   14.62    4.18
   0   3  -8  802.46   24.23
   0  -3   8  820.44   32.30
   0   3  -8  874.91   37.84
   0   3  -8  813.37   32.24
   0   3  -8  809.65   20.34
   0   3  -8  894.97   37.36
   0   3  -7  130.38   11.13
   0   3  -7  140.62    5.56
   0   3  -7  129.76    6.89
   0  -3   7  139.83   11.40
   0   3  -7  147.11   13.46
   0  -3   7  150.31    7.55
   0   3  -7  160.89   14.16
   0   3  -6 3037.92   67.40
   0   3  -6 3258.58   85.77
   0   3  -6 3294.69   81.57
   0  -3   6 3431.42   81.83
   0   3  -6 3213.17   87.75
   0  -3   6 3283.50   69.35
   0  -3   5  565.68   14.20
   0  -3   5  520.17   25.91
   0   3  -5  531.55   13.70
   0   3  -5  526.71   25.94
   0   3  -5  585.29   24.93
   0  -3   5  520.31   22.07
   0   3  -5  500.14   14.22
   0  -3   4   52.92    7.08
   0   3  -4   47.32    3.28
   0  -3   4   51.48    5.74
   0   3  -4   38.54    6.23
   0   3  -4   59.98    6.82
   0  -3   4   45.71    5.58
   0   3  -4   49.20    3.56
   0  -3   3  351.13   16.50
   0   3  -3  325.64   12.31
   0   3  -3  353.57   16.28
   0  -3   3  326.49   15.37
   0   3  -3  367.44   19.31
   0  -3   3  329.55   16.98
   0  -3   3  331.95   11.11
   0  -3   2 1216.15   37.87
   0   3  -2 1321.09   36.36
   0   3  -2 1317.91   38.87
   0   3  -2 1230.76   35.03
   0  -3   2 1213.55   37.43
   0  -3   2 1178.80   36.42
   0  -3   2 1267.62   33.27
   0  -3   1 1343.12   39.02
   0  -3   1 1313.21   37.01
   0  -3   1 1406.99   42.55
   0  -3   1 1304.11   42.90
   0   3  -1 1419.59   40.67
   0   3  -1 1365.16   43.87
   0  -3   0 5867.43  128.90
   0   3   0 5660.22  142.15
   0  -3   0 6014.71  143.58
   0  -3   0 5903.08  138.11
   0   3   0 6185.58  137.85
   0  -3   0 6362.62  137.40
   0  -3   0 5998.50  126.59
   0  -3  -1   23.55    4.42
   0   3   1   23.72    4.83
   0  -3  -1   27.75    4.50
   0  -3  -1   32.79    5.26
   0   3   1   24.50    4.74
   0   3   2  726.16   24.39
   0   3   2  718.68   25.75
   0  -3  -2  726.67   26.01
   0  -3  -3  260.25   13.67
   0   3   3  226.54   15.97
   0   3   4   75.00    9.21
   0  -3  -4   84.68    7.76
   0  -3  -4   83.92    5.16
   0   3   4   75.32    9.32
   0  -3  -5  665.19   18.14
   0   3   5  615.37   29.79
   0   3   5  657.71   30.33
   0  -3  -6 1119.18   38.50
   0   3   6 1050.48   41.72
   0  -3  -6 1088.59   26.26
   0   3   7  224.73   17.14
   0  -3  -7  194.74    6.99
   0  -3  -7  205.54   18.70
   0  -3  -7  209.45   15.83
   0   3   8  244.42   18.23
   0  -3  -8  237.09   18.25
   0  -3  -8  244.17   21.70
   0   3   8  233.01   15.75
   0  -3  -9    9.83    3.88
   0  -3  -9   11.65    4.29
   0   3   9   14.58    4.40
   0   3   9   15.26    4.88
   0  -3 -10   11.13    5.74
   0   3  10    2.42    2.76
   0  -3 -10   -1.54    3.33
   0   3  10    7.22    2.90
   0   3  11   65.07    9.46
   0   3  11   49.10    8.33
   0  -3 -11   62.68   11.57
   0  -3 -11   66.77   13.16
   0  -3 -12   -3.50    5.21
   0  -3 -12    4.47    4.89
   0   3  12    2.63    3.06
   0  -3 -13   86.58   14.76
   0   3  13   72.28   11.03
   0   3  13   66.35    9.70
   0  -3 -13   72.18   16.22
   0   3  14   36.83    7.37
   0   3  14   46.03    9.61
   0  -3 -14   49.90   11.85
   0  -3 -14   29.01    9.65
   0  -3 -15    7.76    5.58
   0   3  15    8.00    3.90
   0   3  15    4.32    4.65
   0  -3 -16    9.90    3.60
   0   4 -15   -3.62    2.61
   0  -4  14   88.87   12.17
   0   4 -14   90.68   15.59
   0  -4  14   96.09   14.02
   0   4 -14  107.41   14.41
   0  -4  13    0.55    3.65
   0   4 -13   -2.88    4.67
   0  -4  13    0.59    2.23
   0   4 -13   -1.62    3.06
   0   4 -12  177.89   20.14
   0  -4  12  158.43   15.81
   0  -4  12  152.51   15.69
   0   4 -12  169.67   17.95
   0  -4  11    3.15    1.70
   0   4 -11    5.28    4.82
   0   4 -11   10.73    5.73
   0  -4  11   -0.28    2.35
   0   4 -10   28.68    7.83
   0  -4  10   25.57    5.92
   0   4 -10   27.49    7.34
   0  -4  10   25.78    3.41
   0  -4  10   17.26    4.89
   0   4  -9   70.11   10.79
   0  -4   9   64.00    4.75
   0   4  -9   61.91    9.92
   0  -4   9   60.04    8.62
   0   4  -8  122.80   13.42
   0  -4   8  113.21    5.73
   0   4  -8  123.25   13.88
   0  -4   8  135.69   12.38
   0  -4   7  113.29   10.43
   0   4  -7  103.08   12.48
   0   4  -7   88.18    9.81
   0  -4   7   99.92    4.50
   0  -4   7   96.83   12.56
   0  -4   7   90.49    9.61
   0   4  -7  110.19   11.85
   0   4  -6  869.73   38.19
   0  -4   6  877.33   32.25
   0   4  -6  809.78   22.02
   0   4  -6  901.30   35.37
   0  -4   6  744.27   36.04
   0  -4   6  834.12   32.76
   0   4  -6  839.37   33.23
   0   4  -6  839.22   20.45
   0   4  -5    2.41    1.78
   0   4  -5    0.82    1.42
   0   4  -5    2.44    0.94
   0  -4   5    5.81    2.90
   0   4  -5    2.79    1.04
   0  -4   5    3.13    2.34
   0   4  -5    0.03    1.65
   0  -4   4   11.85    2.03
   0   4  -4   11.22    3.28
   0   4  -4    7.91    1.90
   0  -4   4   16.87    4.41
   0  -4   4   11.66    3.17
   0  -4   4   10.96    3.53
   0   4  -4   12.68    3.30
   0  -4   3    4.88    1.76
   0   4  -3    7.00    2.99
   0   4  -3    3.48    0.78
   0   4  -3    1.42    1.14
   0  -4   3    2.17    1.89
   0  -4   3    2.98    1.46
   0  -4   3    2.84    1.85
   0   4  -2  226.00   13.39
   0  -4   2  197.43   14.30
   0  -4   2  216.48   12.25
   0  -4   2  190.07   14.04
   0   4  -2  223.43   15.53
   0   4  -2  244.65   13.45
   0  -4   2  199.86   12.48
   0   4  -1  407.67   23.31
   0  -4   1  380.11   16.44
   0   4  -1  449.79   19.03
   0  -4   1  371.47   15.51
   0  -4   1  378.85   21.44
   0   4  -1  415.99   20.22
   0  -4   1  354.67   21.95
   0  -4   1  399.50   19.33
   0   4   0 3703.40   95.36
   0  -4   0 3603.75   96.30
   0  -4   0 3836.43   94.90
   0  -4   0 3509.13   84.92
   0  -4   0 3856.98   82.72
   0  -4   0 3982.74  103.32
   0   4   0 3676.06  102.11
   0  -4  -1   20.26    5.17
   0   4   1   22.00    4.58
   0  -4  -1   16.46    4.30
   0  -4  -1   20.39    4.89
   0   4   1   14.12    4.06
   0   4   2  407.07   21.79
   0  -4  -2  476.24   23.27
   0   4   2  439.47   11.92
   0  -4  -2  466.58   24.78
   0   4   2  429.46   24.39
   0  -4  -3  421.65   21.11
   0   4   3  389.56   24.08
   0   4   4   27.39    6.21
   0  -4  -4   37.19    4.34
   0   4   4   29.55    6.28
   0  -4  -4   41.72    6.13
   0   4   5 1206.86   48.28
   0   4   5 1239.42   48.66
   0  -4  -5 1204.96   41.09
   0  -4  -5 1209.74   32.76
   0   4   6 1594.76   57.57
   0  -4  -6 1502.80   37.54
   0   4   6 1440.61   56.14
   0  -4  -6 1540.61   48.26
   0  -4  -6 1608.20   59.78
   0  -4  -7   88.80   12.97
   0  -4  -7  103.25   10.84
   0   4   7   81.84    9.48
   0  -4  -7   92.94    5.28
   0   4   7   75.71   11.05
   0   4   8 1058.69   39.81
   0   4   8 1041.19   46.14
   0  -4  -8 1042.23   25.46
   0  -4  -8 1041.67   42.82
   0  -4  -8 1044.59   50.50
   0  -4  -9  234.51   19.81
   0   4   9  252.37   21.07
   0   4   9  246.75   17.81
   0  -4  -9  241.27   23.73
   0  -4 -10   41.92    9.49
   0  -4 -10   40.89    8.46
   0   4  10   53.70    8.52
   0  -4 -11  415.31   34.79
   0   4  11  439.21   26.22
   0  -4 -11  389.43   29.54
   0  -4 -12   19.59    7.22
   0   4  12   27.05    6.35
   0  -4 -12   21.58    8.18
   0  -4 -13  210.13   26.45
   0   4  13  190.17   18.49
   0  -4 -13  205.89   23.67
   0  -4 -14  252.98   29.63
   0   4  14  224.42   21.06
   0  -4 -14  201.92   24.63
   0  -4 -15    9.13    7.08
   0   4  15    3.25    2.88
   0  -4 -16   45.92   13.52
   0   5 -15   14.10    5.32
   0   5 -14  331.19   27.83
   0  -5  14  264.17   23.48
   0  -5  13   -4.80    3.47
   0   5 -13   -2.65    3.42
   0   5 -13   -0.25    4.48
   0  -5  13    4.84    4.04
   0   5 -12  390.63   30.52
   0  -5  12  356.70   26.93
   0  -5  12  394.41   27.13
   0   5 -12  420.88   30.90
   0   5 -11  187.45   19.80
   0  -5  11  169.19   16.77
   0  -5  11  138.80   16.00
   0   5 -11  191.50   19.93
   0   5 -10   15.67    5.68
   0   5 -10   19.48    6.53
   0  -5  10   22.68    6.09
   0   5  -9   24.57    7.22
   0  -5   9   18.73    5.41
   0   5  -9   15.54    5.59
   0   5  -8  442.88   26.46
   0   5  -8  399.37   27.70
   0  -5   8  396.83   24.31
   0   5  -7  206.08   16.55
   0  -5   7  149.80   16.19
   0   5  -7  199.29   18.49
   0  -5   7  164.31   14.65
   0  -5   7  190.12   14.94
   0   5  -7  168.71    6.94
   0   5  -7  176.29    6.20
   0  -5   6  998.73   44.17
   0   5  -6 1252.39   44.40
   0   5  -6 1081.38   29.20
   0  -5   6 1150.16   43.17
   0   5  -6 1147.90   44.11
   0  -5   6 1144.11   41.61
   0   5  -6 1165.30   31.01
   0   5  -6 1261.53   49.53
   0   5  -5    2.77    2.92
   0  -5   5    0.70    1.46
   0   5  -5    2.55    3.25
   0  -5   5    5.58    3.27
   0   5  -5    2.06    1.46
   0   5  -5    2.09    1.68
   0   5  -4    7.30    2.73
   0   5  -4    8.22    2.43
   0  -5   4    8.55    2.73
   0   5  -4    8.59    3.81
   0  -5   4    2.21    1.26
   0  -5   4    5.84    1.78
   0   5  -4    7.18    3.16
   0  -5   4    9.36    3.56
   0  -5   3  248.59   17.33
   0  -5   3  243.04   15.78
   0  -5   3  231.38   17.14
   0  -5   3  250.80   13.81
   0   5  -3  275.66   15.64
   0   5  -3  284.27   16.31
   0   5  -3  252.62    8.35
   0   5  -3  285.09   19.73
   0  -5   2   88.52   10.84
   0   5  -2   94.95    9.57
   0  -5   2   96.25    9.15
   0  -5   2   90.74   10.78
   0   5  -2   97.32   10.86
   0   5  -2  103.17    9.29
   0  -5   2   94.71    8.72
   0   5  -1  409.49   22.33
   0  -5   1  449.90   27.27
   0  -5   1  422.21   24.71
   0  -5   1  403.34   18.04
   0  -5   1  439.57   22.25
   0  -5   1  462.32   17.77
   0  -5   0  341.63   21.81
   0  -5   0  361.55   13.04
   0  -5   0  323.24   14.77
   0  -5   0  375.14   24.68
   0  -5   0  349.19   20.71
   0   5   0  324.79   20.60
   0  -5  -1  196.47   10.46
   0  -5  -1  194.35   15.73
   0   5   1  188.91   15.99
   0  -5  -1  183.56   15.20
   0  -5  -1  208.40   17.66
   0  -5  -2   14.26    4.70
   0  -5  -2   14.39    4.28
   0   5   2   10.54    4.01
   0  -5  -3   88.54   10.44
   0  -5  -3   90.47   11.32
   0   5   3   85.46    4.29
   0   5   3   86.02   11.62
   0   5   4    6.77    3.27
   0  -5  -4    5.68    2.93
   0   5   4    4.51    1.52
   0   5   4    5.64    1.75
   0   5   4    4.62    2.66
   0   5   5  143.18   15.90
   0   5   5  140.27   15.66
   0   5   5  147.81   12.25
   0  -5  -5  128.76    9.44
   0   5   5  144.96   12.99
   0   5   5  166.98    9.52
   0  -5  -5  143.24   13.21
   0  -5  -5  134.78   15.53
   0   5   6  131.11    6.78
   0  -5  -6  139.03   15.78
   0  -5  -6  117.70    8.12
   0   5   6  136.58   12.83
   0   5   6  102.66   13.92
   0   5   6  123.73   14.88
   0   5   7  122.86   15.20
   0  -5  -7  105.13   11.06
   0  -5  -7  137.19   16.77
   0  -5  -7  118.78    7.48
   0   5   7  136.18   12.93
   0   5   8  233.60   17.62
   0  -5  -8  225.44   23.05
   0  -5  -8  205.64    9.38
   0  -5  -8  209.13   17.18
   0  -5  -9   75.03    4.34
   0  -5  -9   83.25   11.45
   0   5   9   74.06   10.00
   0  -5  -9   73.94   13.49
   0  -5 -10   15.81    5.35
   0   5  10    8.45    2.71
   0   5  11  172.75   16.71
   0  -5 -11  169.98   22.70
   0  -5 -11  166.32   18.91
   0  -5 -12   12.60    5.66
   0   5  12   18.40    6.33
   0  -5 -12    2.49    4.80
   0  -5 -13  198.15   25.83
   0   5  13  168.60   18.12
   0  -5 -13  191.06   22.97
   0   5  14  205.32   20.75
   0  -5 -14  228.76   28.60
   0  -5 -14  172.09   22.31
   0  -5 -15   53.98   14.01
   0  -5 -15   31.64   11.83
   0  -6  14  139.79   18.42
   0   6 -13   -0.08    2.75
   0  -6  13   -1.89    4.71
   0   6 -13   -0.21    3.40
   0  -6  12  337.39   26.78
   0   6 -12  391.25   31.51
   0   6 -12  383.50   30.90
   0  -6  12  325.80   27.86
   0   6 -11  141.81   18.03
   0   6 -11  144.18   18.61
   0  -6  11  131.13   15.73
   0  -6  11  110.11   15.57
   0   6 -10  122.77   16.60
   0  -6  10  116.86   14.81
   0   6 -10  133.73   17.00
   0   6  -9  174.14   19.37
   0   6  -9  181.30   18.10
   0  -6   9  162.65   16.58
   0   6  -8  784.06   37.59
   0   6  -8  799.14   41.91
   0   6  -7  189.21   19.26
   0  -6   7  163.85   15.89
   0   6  -7  158.60    8.71
   0   6  -7  146.38    7.36
   0   6  -7  162.60   15.30
   0  -6   7  149.04   16.11
   0   6  -6 1536.60   43.75
   0  -6   6 1643.08   58.56
   0   6  -6 1899.75   66.53
   0   6  -6 1880.79   58.82
   0   6  -6 1743.69   44.94
   0   6  -6 1688.69   47.47
   0  -6   6 1690.94   60.25
   0  -6   6 1653.62   57.36
   0   6  -5  249.31   14.02
   0  -6   5  221.96   17.97
   0  -6   5  227.58   17.72
   0  -6   5  228.25   11.92
   0  -6   5  249.25   18.58
   0   6  -5  269.01   18.05
   0   6  -5  280.67   22.26
   0  -6   4   31.75    6.36
   0   6  -4   41.73    6.73
   0   6  -4   48.03    8.79
   0   6  -4   53.23    9.06
   0  -6   4   34.51    4.91
   0  -6   4   37.06    7.18
   0   6  -4   43.28    6.02
   0  -6   3  511.57   29.05
   0   6  -3  549.46   25.28
   0   6  -3  572.30   30.71
   0   6  -3  552.06   30.95
   0   6  -3  608.73   26.56
   0   6  -3  541.51   30.71
   0  -6   3  522.80   23.74
   0   6  -3  544.78   16.31
   0  -6   3  512.61   24.80
   0  -6   3  469.13   28.13
   0   6  -2  467.25   24.24
   0   6  -2  440.62   28.27
   0   6  -2  510.37   27.65
   0  -6   2  496.72   24.22
   0  -6   2  456.31   19.82
   0  -6   2  455.33   27.46
   0  -6   2  429.95   27.69
   0  -6   2  458.71   21.47
   0   6  -2  457.60   28.21
   0   6  -1  966.92   45.41
   0   6  -1  977.23   39.63
   0  -6   1  976.42   45.02
   0   6  -1  915.84   38.28
   0  -6   1  983.12   38.30
   0  -6   1  867.77   30.51
   0  -6   1  979.80   30.21
   0   6  -1  980.14   43.24
   0  -6   1  937.47   41.70
   0   6   0 2223.91   71.50
   0  -6   0 2206.54   66.94
   0  -6   0 2079.35   69.01
   0  -6   0 2274.70   74.91
   0   6   0 2255.50   75.94
   0   6   0 2032.06   66.55
   0  -6   0 2103.85   48.26
   0   6   0 2010.85   63.81
   0  -6   0 1948.06   53.20
   0   6   1    3.00    2.11
   0  -6  -1    0.21    1.90
   0   6   1    2.52    2.76
   0  -6  -1    0.38    0.91
   0   6   1    2.98    2.23
   0  -6  -1    6.28    3.83
   0  -6  -1    5.14    2.08
   0  -6  -2  322.99   23.35
   0   6   2  370.85   24.84
   0   6   2  336.19   22.28
   0  -6  -2  318.69   22.16
   0  -6  -2  319.13   14.13
   0   6   2  308.86   23.47
   0   6   3   74.46   11.42
   0   6   3   82.25   10.22
   0  -6  -3   81.22   11.47
   0   6   3   84.13   12.10
   0  -6  -3   82.94   11.17
   0   6   3   85.76    8.98
   0   6   3   81.17   11.58
   0   6   4    8.28    3.89
   0   6   4    0.70    3.11
   0   6   4    6.66    1.16
   0   6   4    6.82    2.34
   0   6   4    4.46    3.03
   0  -6  -4    4.60    2.70
   0   6   4    2.02    1.95
   0  -6  -4    4.19    2.65
   0   6   5  343.15   22.32
   0   6   5  364.21   16.73
   0  -6  -5  267.09   16.49
   0  -6  -5  321.33   22.59
   0   6   5  314.89   26.15
   0   6   5  342.80   26.39
   0   6   5  331.20   20.80
   0  -6  -5  312.10   24.86
   0  -6  -6   37.22    9.06
   0   6   6   29.64    6.26
   0   6   6   34.22    4.29
   0  -6  -6   24.23    4.28
   0   6   7  136.92   13.95
   0  -6  -7  142.80   17.63
   0   6   7  154.46    6.74
   0  -6  -7  120.62    9.17
   0  -6  -7  131.37   12.44
   0  -6  -8  100.58   11.71
   0   6   8  107.94   12.78
   0  -6  -8   91.10   14.77
   0  -6  -8   76.20    6.63
   0  -6  -9    3.82    2.87
   0  -6  -9   -3.94    4.10
   0  -6  -9    3.78    1.38
   0   6   9    3.79    3.78
   0  -6 -10   29.80    9.04
   0   6  10   48.85    9.08
   0  -6 -10   45.46    9.54
   0  -6 -11   16.20    8.51
   0   6  11   31.43    7.68
   0  -6 -11   17.85    5.80
   0  -6 -12   46.02   11.93
   0   6  12   51.09   10.36
   0  -6 -12   65.32   12.21
   0  -6 -13   51.75   11.60
   0   6  13   64.19   11.63
   0  -6 -13   63.60   14.21
   0  -6 -14   59.94   14.97
   0  -6 -14   50.71   12.39
   0  -6 -15    7.09    7.34
   0  -7  13    2.28    2.79
   0  -7  12   64.32   13.15
   0   7 -12   95.20   15.38
   0   7 -12   76.28   14.15
   0   7 -11    2.03    4.02
   0   7 -11    3.25    2.68
   0  -7  11    3.48    4.17
   0  -7  10    6.41    3.57
   0   7 -10    4.56    3.55
   0   7 -10   -2.05    4.98
   0  -7   9    9.99    4.99
   0   7  -9   10.25    4.53
   0   7  -9    6.92    3.63
   0  -7   8   83.40   12.45
   0   7  -8   97.43   12.85
   0   7  -8   98.92   14.53
   0   7  -7  225.03   18.58
   0   7  -7  232.81   22.05
   0  -7   7  206.00   19.23
   0   7  -7  187.05   11.23
   0   7  -7  182.36   10.42
   0  -7   6  578.12   31.48
   0   7  -6  536.60   23.91
   0   7  -6  623.78   31.27
   0   7  -6  554.54   21.74
   0  -7   6  525.24   31.79
   0  -7   5    0.60    3.28
   0  -7   5    0.03    2.16
   0   7  -5    4.83    3.15
   0   7  -5    1.66    1.77
   0   7  -5    0.53    3.31
   0   7  -5    4.54    1.98
   0  -7   5    2.98    2.03
   0   7  -4    3.45    2.38
   0   7  -4   -0.66    2.24
   0  -7   4    0.66    1.22
   0   7  -4    2.81    3.71
   0   7  -4    3.02    2.02
   0  -7   4    3.88    3.32
   0  -7   4    1.69    1.34
   0  -7   4    3.01    2.34
   0   7  -3  115.37    6.91
   0  -7   3  131.60   10.73
   0   7  -3  131.11   15.50
   0  -7   3  121.55   14.48
   0  -7   3  123.92   11.26
   0   7  -3  105.38   11.05
   0  -7   3  128.88   11.74
   0   7  -3  145.20   15.22
   0  -7   3  113.10   13.96
   0  -7   2  204.60   13.90
   0  -7   2  219.78   19.85
   0  -7   2  227.41   13.43
   0  -7   2  266.67   18.27
   0   7  -2  237.78   21.63
   0   7  -2  247.87   19.54
   0   7  -2  216.91   16.83
   0  -7   2  235.75   21.14
   0  -7   1  704.62   23.66
   0   7  -1  752.83   40.56
   0   7  -1  703.89   37.97
   0  -7   1  717.57   33.33
   0  -7   1  603.40   24.68
   0   7  -1  672.68   33.24
   0  -7   1  694.74   36.87
   0   7  -1  702.38   34.03
   0  -7   1  762.15   39.76
   0   7   0 1592.54   54.48
   0   7   0 1638.80   61.12
   0  -7   0 1660.95   63.33
   0   7   0 1577.28   63.32
   0  -7   0 1587.72   59.02
   0  -7   0 1341.27   40.60
   0   7   0 1366.02   53.95
   0  -7   0 1575.31   55.18
   0  -7  -1    1.38    2.91
   0  -7  -1   -7.49    4.69
   0   7   1    0.77    2.12
   0   7   1    0.90    2.33
   0  -7  -1   -0.15    0.78
   0   7   1   -0.28    2.49
   0   7   1    0.54    3.46
   0   7   1    1.89    1.62
   0  -7  -1    1.60    1.65
   0   7   2  542.22   33.17
   0   7   2  592.91   28.21
   0   7   2  555.83   32.68
   0   7   2  552.27   31.80
   0  -7  -2  559.07   34.00
   0  -7  -2  551.09   31.53
   0  -7  -2  535.91   19.34
   0   7   2  532.63   33.56
   0  -7  -3  710.95   24.34
   0   7   3  720.13   40.47
   0  -7  -3  783.61   38.95
   0   7   3  660.53   38.13
   0   7   3  766.62   40.73
   0  -7  -3  768.03   39.88
   0   7   3  813.81   32.63
   0  -7  -4   -3.44    2.79
   0   7   4   -1.45    2.05
   0   7   4    0.04    1.45
   0   7   5  665.86   36.06
   0   7   5  677.10   18.14
   0  -7  -5  753.82   40.26
   0   7   5  802.76   29.11
   0  -7  -5  586.20   29.03
   0   7   6  667.77   24.07
   0  -7  -6  580.90   25.20
   0  -7  -6  610.02   37.30
   0   7   6  595.78   33.27
   0  -7  -6  494.10   24.88
   0   7   6  543.50   17.84
   0   7   7  134.58    8.19
   0  -7  -7  119.71   10.70
   0  -7  -7  129.25   11.99
   0  -7  -7  145.20   18.25
   0   7   7  136.64   15.17
   0   7   8  715.14   37.46
   0  -7  -8  720.43   43.59
   0  -7  -8  692.83   32.22
   0  -7  -8  586.74   24.33
   0  -7  -9  251.64   26.19
   0  -7  -9  211.00   18.23
   0   7   9  232.83   20.89
   0   7  10   33.99    7.89
   0  -7 -10   42.27    8.36
   0  -7 -10   36.41   10.35
   0   7  11  158.81   18.01
   0  -7 -11  162.02   22.24
   0  -7 -11  146.55   16.88
   0  -7 -12   -0.03    4.42
   0  -7 -12   -9.62    5.46
   0   7  12   -2.28    2.42
   0  -7 -13  114.90   20.11
   0  -7 -13   88.32   14.17
   0   8 -12  207.06   23.41
   0   8 -11   62.07   11.96
   0   8 -10   22.83    6.56
   0  -8  10   33.66    9.10
   0   8 -10   24.73    9.53
   0   8  -9   33.01    8.16
   0   8  -9   15.80    6.72
   0  -8   9   27.71    7.08
   0  -8   8   92.10   14.25
   0   8  -8  114.87   16.79
   0   8  -8  114.88   14.21
   0   8  -7  140.14   17.53
   0   8  -7  119.41    9.62
   0  -8   7  134.79   16.45
   0   8  -7  151.65   15.76
   0   8  -6  217.99   21.75
   0   8  -6  161.90   13.24
   0  -8   6  168.56   18.78
   0  -8   6  174.74   15.83
   0   8  -6  195.31   17.34
   0   8  -5   25.49    5.47
   0   8  -5   16.92    6.25
   0   8  -5   18.45    4.14
   0  -8   5    7.11    2.85
   0  -8   5   19.46    4.57
   0  -8   5   28.13    6.30
   0  -8   5   16.11    4.06
   0   8  -5   21.19    5.73
   0  -8   4   -0.95    4.02
   0  -8   4    0.11    1.77
   0   8  -4   -5.26    2.71
   0   8  -4    0.73    1.39
   0   8  -4    2.77    2.22
   0  -8   4    3.65    2.73
   0  -8   4   -0.44    2.03
   0   8  -3    6.79    1.75
   0   8  -3    8.55    2.87
   0  -8   3    8.05    2.71
   0  -8   3   20.11    4.89
   0   8  -3    4.96    3.09
   0  -8   3    6.00    3.52
   0   8  -3    7.93    3.78
   0   8  -3    9.98    3.69
   0   8  -2    3.94    1.79
   0  -8   2    3.05    2.12
   0  -8   2    2.61    1.74
   0  -8   2    2.52    2.50
   0   8  -2    0.58    2.17
   0   8  -2   -0.18    2.68
   0   8  -2   -0.59    2.73
   0   8  -2   -0.67    2.02
   0  -8   2    8.64    5.49
   0   8  -1  212.20   18.51
   0  -8   1  156.98   11.14
   0   8  -1  189.69   20.70
   0   8  -1  181.50   17.79
   0  -8   1  194.67    9.32
   0  -8   1  190.17   19.28
   0  -8   1  201.55   17.15
   0   8  -1  190.55   17.26
   0  -8   0   72.98   10.30
   0   8   0   74.86   10.70
   0   8   0   60.16    9.79
   0   8   0   65.37   10.68
   0   8   0   85.98   13.82
   0  -8   0   64.72    6.32
   0  -8   0   78.18   12.48
   0  -8  -1  112.86   15.01
   0   8   1  143.66   17.73
   0   8   1  109.80   14.26
   0   8   1  136.98   13.64
   0  -8  -1  110.65    7.57
   0  -8  -1  120.49   14.01
   0  -8  -2   41.23    8.81
   0   8   2   57.08    8.68
   0   8   2   51.42   10.52
   0  -8  -2   51.08    4.67
   0   8   3   21.05    6.79
   0  -8  -3   22.35    6.41
   0  -8  -3   25.40    3.44
   0   8   3   28.73    6.44
   0  -8  -4   -0.39    1.31
   0   8   4   -2.72    4.20
   0  -8  -4    3.20    4.35
   0   8   4    1.73    1.96
   0   8   5  236.39   22.86
   0   8   5  253.14   16.19
   0  -8  -5  217.13   21.85
   0  -8  -6   12.33    3.60
   0   8   6    7.95    5.25
   0   8   6   17.66    4.03
   0  -8  -6   14.26    6.42
   0  -8  -6    7.49    3.20
   0   8   7   69.65    4.89
   0   8   7   76.95   12.03
   0  -8  -7   75.62    8.47
   0  -8  -7   69.67   12.68
   0   8   7   78.53    7.09
   0  -8  -7   58.45    8.39
   0   8   8  269.28   24.12
   0   8   8  289.33   12.96
   0  -8  -8  283.23   27.48
   0  -8  -8  301.21   19.47
   0  -8  -9  124.06   13.27
   0  -8  -9  120.96   18.46
   0   8   9  117.55   16.00
   0  -8 -10   95.82   17.44
   0  -8 -10   95.62   12.13
   0   8  10   90.18   13.80
   0  -8 -11  156.23   22.81
   0   8  11  153.73   18.64
   0   9 -11   96.52   15.05
   0   9 -10    5.30    3.24
   0   9  -9  194.79   20.22
   0  -9   9  192.19   21.73
   0  -9   8  282.06   26.78
   0   9  -8  356.37   30.54
   0   9  -8  312.44   24.87
   0   9  -7  189.21   18.30
   0   9  -7  192.33   21.34
   0  -9   7  179.36   20.91
   0   9  -6  865.68   46.45
   0  -9   6  719.74   43.62
   0   9  -6  801.30   39.25
   0  -9   5   73.88    8.97
   0   9  -5  103.34   14.76
   0  -9   5   78.48   13.71
   0  -9   4   43.86    9.75
   0  -9   4   52.43    7.86
   0  -9   4   46.47    7.82
   0   9  -4   40.47    7.53
   0   9  -4   50.41    9.93
   0   9  -3  369.86   14.37
   0  -9   3  368.77   29.11
   0   9  -3  315.92   21.91
   0  -9   3  410.96   24.63
   0   9  -3  405.49   28.69
   0   9  -3  429.34   32.90
   0   9  -3  299.55   22.85
   0   9  -2   85.02   14.74
   0  -9   2   74.95   10.74
   0   9  -2   74.40    7.50
   0   9  -2   80.94   12.26
   0  -9   2   72.29   12.31
   0   9  -2   65.82   10.17
   0  -9   2   75.15    7.97
   0   9  -1  322.85   24.04
   0   9  -1  377.55   26.01
   0   9  -1  420.95   32.03
   0  -9   1  357.34   28.19
   0  -9   1  312.78   16.03
   0  -9   1  368.66   25.06
   0  -9   0  276.86   13.37
   0  -9   0  300.24   22.83
   0   9   0  304.65   22.51
   0  -9   0  307.67   25.71
   0   9   0  341.35   28.82
   0  -9  -1   10.40    5.39
   0  -9  -1   10.21    4.93
   0  -9  -1    7.82    1.86
   0   9   1   11.61    4.49
   0   9   1   13.33    6.22
   0  -9  -2  164.16   17.81
   0   9   2  152.26   15.00
   0  -9  -2  134.80    7.02
   0   9   2  171.30   20.05
   0  -9  -3   36.46    9.05
   0  -9  -3   30.41    3.06
   0   9   3   29.30    8.84
   0   9   3   32.92    6.46
   0   9   4   16.71    4.43
   0   9   4    7.31    4.45
   0  -9  -4   22.24    7.70
   0   9   5   41.43    6.75
   0  -9  -5   25.25    3.57
   0  -9  -5   26.96    8.37
   0   9   5   27.12    7.03
   0   9   6    0.50    3.00
   0   9   6    4.89    2.46
   0   9   7   66.95   12.61
   0  -9  -7   66.49   13.17
   0   9   8   53.96   11.08
   0  -9  -8   56.49   12.29
   0   9   9   -9.75    6.69
   0  -9  -9    6.51    6.12
   0   9  10   24.42    7.98
   0  -9 -10   40.93   11.88
   0 -10   6  238.81   25.62
   0  10  -6  298.44   26.74
   0  10  -5   21.47    7.63
   0 -10   5   13.51    5.62
   0 -10   4   33.32    9.31
   0  10  -4   60.53   11.04
   0 -10   4   45.34    7.76
   0  10  -3  309.33   28.87
   0  10  -3  292.54   24.77
   0 -10   3  319.22   22.58
   0 -10   3  279.28   25.95
   0 -10   2   72.27   13.28
   0  10  -2   86.61   13.13
   0 -10   2  101.46   13.08
   0 -10   1  519.58   31.59
   0 -10   1  510.13   35.76
   0  10  -1  500.86   31.95
   0  10  -1  523.10   37.73
   0  10   0  555.46   33.06
   0 -10   0  575.35   37.70
   0 -10   0  540.19   33.06
   0  10   0  581.84   39.79
   0  10   1    0.41    2.99
   0 -10  -1    6.04    4.03
   0 -10  -1    1.20    2.59
   0  10   1   -2.83    2.95
   0  10   2  551.75   31.17
   0  10   2  576.58   39.52
   0 -10  -2  515.24   33.68
   0 -10  -3  498.94   33.38
   0  10   3  474.81   28.14
   0  10   3  523.90   37.39
   0  10   4   17.89    7.39
   0 -10  -4   26.26    8.95
   0  10   4   17.34    5.04
   0  10   5  429.66   24.46
   0  10   5  395.06   33.32
   0 -10  -5  410.02   32.14
   0  10   6   56.64   12.04
   0 -10  -6  105.11   16.50
   0  10   7   68.47   14.02
   0 -10  -7   97.26   16.03
   0 -10  -8  384.91   33.45
   0  10   8  328.72   31.34
   0  11  -4   12.08    5.33
   0  11  -3    7.82    4.54
   0 -11   3    8.52    6.46
   0  11  -2   -2.28    4.80
   0  11  -2    9.03    5.00
   0 -11   2    7.03    5.96
   0 -11   2    7.80    4.63
   0 -11   1   58.83   10.57
   0 -11   1   67.96   13.69
   0  11  -1   99.28   16.53
   0  11  -1   65.53   11.41
   0 -11   0   21.31    7.77
   0  11   0   20.33    6.51
   0 -11   0    8.05    4.51
   0  11   0   22.60    8.34
   0  11   1   21.87    5.71
   0 -11  -1   27.83    7.58
   0  11   1   16.72    7.44
   0  11   2  136.26   19.04
   0 -11  -2  121.90   16.90
   0  11   2  109.43   13.91
   0  11   3   98.52   17.01
   0  11   3   84.43   11.98
   0 -11  -3   87.40   14.20
   0 -11  -4   27.94    7.96
   0  11   4   24.60    8.69
   0  11   4   17.13    5.06
   0  11   5   95.40   16.67
   0 -11  -5  106.67   16.69
   0  11   6    8.25    4.59
   0 -11  -6   25.12    8.45
   0  12  -2   -2.45    3.82
   0  12  -2   -1.79    4.07
   0  12  -1   89.81   16.40
   0  12  -1   94.19   14.19
   0 -12   1   93.56   13.91
   0  12   0   47.06   12.16
   0  12   0   39.82    9.44
   0 -12   0   47.12   10.35
   0  12   1   34.64   10.87
   0 -12  -1   14.47    5.59
   0  12   1   31.15    8.43
   0  12   2   88.64   15.86
   0  12   2   86.03   12.56
   0 -12  -2   85.86   14.28
   0 -12  -3   -2.32    6.20
  -1  12   2    9.63    4.59
   1 -12  -2    4.85    3.19
  -1  12   1   44.75    9.44
   1 -12  -1   41.61    9.70
   1 -12   0   15.18    6.61
  -1  12   0   11.25    5.11
   1 -12   1  230.82   22.20
  -1  12  -1  216.90   21.76
  -1  12  -2  117.95   16.14
  -1  11   5  260.05   28.38
   1 -11  -5  285.01   28.05
  -1  11   4  104.90   17.90
  -1  11   4   98.45   12.00
   1 -11  -4  110.35   16.72
  -1  11   3    9.92    7.11
  -1  11   3    2.91    2.31
   1 -11  -3    6.93    3.42
  -1  11   2    1.20    4.33
  -1  11   2    2.04    2.10
   1 -11  -2   -0.19    3.93
  -1  11   1   42.93   11.71
   1 -11  -1   35.87    9.51
  -1  11   1   32.48    7.66
  -1  11   0   45.57    9.44
   1 -11   0   49.28   10.09
  -1  11   0   48.27   12.85
   1 -11   1  165.40   18.86
  -1  11  -1  217.40   25.00
   1 -11   1  179.72   21.30
  -1  11  -1  157.82   17.84
  -1  11  -2   42.58   11.13
   1 -11   2   51.35   11.17
   1 -11   2   54.25   10.23
  -1  11  -2   63.51   11.52
  -1  11  -3    2.81    4.37
   1 -11   3    5.63    5.52
  -1  11  -3    3.56    5.32
   1 -11   3    1.78    2.91
  -1  11  -4   11.13    5.32
   1 -11   4   21.31    6.83
  -1  10   8   38.37   10.67
  -1  10   7  244.47   27.02
   1 -10  -7  331.29   31.03
  -1  10   6    2.58    6.66
   1 -10  -6   -2.03    4.93
   1 -10  -5  821.47   47.58
  -1  10   5  771.54   48.82
  -1  10   5  837.91   35.81
  -1  10   4  310.65   29.90
   1 -10  -4  303.71   27.69
  -1  10   4  310.30   21.29
  -1  10   3  110.73   12.41
   1 -10  -3  134.99   17.41
  -1  10   3  122.42   18.49
  -1  10   2  189.34   17.48
   1 -10  -2  189.17   20.33
  -1  10   2  234.39   25.13
  -1  10   1  244.54   20.12
   1 -10  -1  232.62   22.43
  -1  10   1  248.31   26.21
  -1  10   0   96.33   15.99
   1 -10   0   83.46   14.54
   1 -10   0   93.21   13.90
  -1  10   0   90.34   12.27
  -1  10  -1 1351.81   65.16
   1 -10   1 1183.18   57.60
   1 -10   1 1228.54   53.68
  -1  10  -1 1198.27   52.29
  -1  10  -2  105.01   13.66
   1 -10   2   98.66   13.15
  -1  10  -2  103.00   16.79
   1 -10   2  103.14   15.71
  -1  10  -3  194.15   19.75
  -1  10  -3  228.99   25.58
   1 -10   3  212.53   22.64
   1 -10   3  220.96   19.63
   1 -10   4   59.65   11.92
  -1  10  -4   67.03   12.06
   1 -10   4   76.26   10.93
  -1  10  -5    2.99    3.57
   1 -10   5    9.26    4.83
   1 -10   6   45.18   10.84
  -1  10  -6   48.91   10.42
   1 -10   7  289.53   27.96
  -1  10  -7  307.07   27.99
  -1   9   9   -5.27    6.54
   1  -9  -9    9.70    5.92
  -1   9   8   21.37    7.46
   1  -9  -8   35.14   10.34
   1  -9  -7   79.69   14.58
  -1   9   7   77.61   14.16
  -1   9   6   39.09   10.38
   1  -9  -6   54.10   11.84
  -1   9   6   40.03    6.41
  -1   9   5  286.19   18.62
   1  -9  -5  275.28   26.41
  -1   9   5  244.95   25.57
  -1   9   4  143.06   19.13
   1  -9  -4  129.27   17.11
  -1   9   4  136.57   13.29
  -1   9   3    3.25    2.47
  -1   9   3    1.88    2.26
   1  -9  -3    7.19    5.02
  -1   9   2   -1.52    2.98
  -1   9   2    3.79    2.88
   1  -9  -2    5.54    2.93
   1  -9  -1  149.26   16.93
  -1   9   1  136.89   18.79
  -1   9   1  145.66   15.01
   1  -9   0   12.13    4.17
   1  -9   0   14.94    5.42
  -1   9   0   16.02    5.49
  -1   9   0   27.59    8.29
   1  -9   1 1337.98   59.71
   1  -9   1 1414.21   56.46
  -1   9  -1 1375.06   54.77
  -1   9  -1 1518.63   67.57
  -1   9  -2   97.02   15.92
  -1   9  -2   93.10   12.66
   1  -9   2  101.68   14.64
   1  -9   2   83.26   12.35
   1  -9   3  368.65   24.50
  -1   9  -3  366.00   26.51
   1  -9   3  383.98   29.25
  -1   9  -3  328.97   23.56
  -1   9  -3  342.23   13.45
  -1   9  -3  396.42   32.26
   1  -9   4  167.06   15.71
   1  -9   4  175.39   19.55
  -1   9  -4  181.71   19.06
  -1   9  -4  175.45   15.84
  -1   9  -5    5.70    4.64
   1  -9   5   -2.54    2.85
   1  -9   5    5.02    3.16
  -1   9  -6  340.85   22.50
  -1   9  -6  373.91   28.49
   1  -9   6  307.32   27.45
   1  -9   6  293.34   18.77
  -1   9  -7  725.25   35.91
  -1   9  -7  773.34   43.85
  -1   9  -8   12.72    6.46
   1  -9   8    1.73    5.33
  -1   9  -8    6.09    2.78
  -1   9  -9  467.42   34.94
  -1   9  -9  404.99   28.24
   1  -9   9  394.49   32.37
  -1   9 -10   70.13   12.08
  -1   9 -11   11.68    5.06
   1  -8 -11  251.83   29.43
  -1   8  11  199.20   22.02
  -1   8  10  148.58   18.78
   1  -8 -10  173.42   23.81
  -1   8   9    3.66    4.33
   1  -8  -9    0.12    3.78
   1  -8  -8   -1.10    1.43
   1  -8  -8   -2.96    4.79
  -1   8   7  282.40   15.28
   1  -8  -7  272.05   27.19
   1  -8  -7  243.47   14.65
  -1   8   7  240.21   22.76
  -1   8   6    6.18    3.69
   1  -8  -6   11.79    2.69
   1  -8  -6   13.81    6.76
  -1   8   6    8.90    2.91
   1  -8  -6    4.36    1.55
  -1   8   5  407.31   31.08
   1  -8  -5  477.12   33.74
   1  -8  -5  410.19   13.83
  -1   8   4   38.85    9.49
   1  -8  -4   36.75    9.40
   1  -8  -3    0.96    2.17
  -1   8   3    3.18    2.06
  -1   8   2  209.65   22.11
   1  -8  -2  201.56   19.88
  -1   8   1   87.27   14.62
   1  -8  -1   99.96   13.34
   1  -8   0   17.12    5.72
  -1   8   0   11.47    5.87
  -1   8   0    8.04    4.42
   1  -8   0    5.95    3.47
  -1   8  -1  403.67   31.77
   1  -8   1  364.56   24.76
   1  -8   1  344.84   26.42
  -1   8  -1  324.11   23.60
   1  -8   2   37.99    4.13
   1  -8   2   39.42    8.03
   1  -8   2   36.61    8.89
  -1   8  -2   35.74    7.54
  -1   8  -2   37.14    9.78
   1  -8   3   12.36    3.83
  -1   8  -3   10.33    2.04
  -1   8  -3   10.08    3.50
  -1   8  -3   13.54    5.49
  -1   8  -3   11.70    2.19
  -1   8  -3   11.11    6.60
   1  -8   3    9.46    2.45
   1  -8   3   12.04    5.16
   1  -8   4   38.22    5.76
   1  -8   4   35.43    8.89
   1  -8   4   40.90    6.97
  -1   8  -4   40.86    7.38
  -1   8  -4   50.05    7.21
  -1   8  -4   52.32    9.83
   1  -8   5   24.38    7.13
  -1   8  -5   27.71    5.55
  -1   8  -5   36.71    8.41
   1  -8   5   25.13    5.61
  -1   8  -5   25.07    5.38
  -1   8  -6   27.17    5.98
  -1   8  -6   26.48    7.51
   1  -8   6   19.76    5.51
  -1   8  -6   25.48    5.36
  -1   8  -7  364.82   23.54
  -1   8  -7  347.58   27.73
   1  -8   7  337.80   27.38
  -1   8  -8   -0.77    2.78
   1  -8   8   -3.83    2.82
  -1   8  -8    1.60    2.39
  -1   8  -9  151.36   16.36
  -1   8  -9  162.14   20.30
   1  -8   9  143.14   17.44
  -1   8 -10   30.22    9.29
   1  -8  10   18.04    5.01
  -1   8 -10   11.89    4.91
   1  -8  10   19.58    6.15
  -1   8 -11    6.14    4.40
  -1   8 -11    3.07    2.87
   1  -8  11   15.76    6.22
   1  -8  11   12.18    5.56
  -1   8 -12  165.12   19.84
   1  -7 -12   68.22   12.67
  -1   7  12   62.94   12.51
   1  -7 -12   85.64   17.73
  -1   7  11  285.28   25.53
   1  -7 -11  325.43   32.49
   1  -7 -11  264.48   23.19
   1  -7 -10  229.16   26.68
   1  -7 -10  220.45   19.58
  -1   7  10  215.89   21.25
   1  -7  -9   61.35    9.61
   1  -7  -9   71.28   14.47
  -1   7   9   47.38    9.49
   1  -7  -8  113.74    8.28
   1  -7  -8  136.23   13.00
  -1   7   8  157.67    8.20
  -1   7   8  126.88   15.55
   1  -7  -8  166.08   21.11
   1  -7  -7  515.28   24.39
   1  -7  -7  437.66   20.74
  -1   7   7  510.85   31.84
   1  -7  -6    3.49    1.49
  -1   7   6    2.51    1.30
  -1   7   6   -1.61    4.91
   1  -7  -6    1.10    1.49
   1  -7  -6    4.22    3.00
   1  -7  -5 2250.31   80.67
   1  -7  -5 2075.63   53.90
  -1   7   5 2067.52   74.36
  -1   7   4  300.12   24.83
   1  -7  -4  349.38   27.20
   1  -7  -4  341.20   12.40
  -1   7   3   80.47   12.44
   1  -7  -3   90.03   13.18
  -1   7   2  211.90   21.19
  -1   7   2  222.26   20.39
   1  -7  -2  237.45   20.78
  -1   7   1  314.54   26.20
   1  -7  -1  363.44   28.07
   1  -7  -1  290.67   22.74
   1  -7  -1  296.84   23.06
  -1   7   1  310.33   23.58
   1  -7   0  202.34   18.96
   1  -7   0  218.08   18.84
  -1   7   0  228.56   20.35
  -1   7   0  241.40   23.03
  -1   7   0  199.56   18.11
   1  -7   0  233.91   22.35
   1  -7   1 2237.93   79.29
   1  -7   1 2127.99   47.11
   1  -7   1 2133.21   69.45
   1  -7   1 2014.72   72.01
  -1   7  -1 2192.52   80.48
  -1   7  -1 1988.53   68.11
   1  -7   2   42.72    8.51
   1  -7   2   42.65    7.54
   1  -7   2   39.54    4.62
  -1   7  -2   40.78    7.19
   1  -7   2   47.81    9.50
  -1   7  -2   45.15   10.06
   1  -7   3   96.69   10.82
   1  -7   3  110.53   13.98
  -1   7  -3  124.40   10.58
  -1   7  -3  117.36   15.88
  -1   7  -3  107.29   11.69
  -1   7  -3  107.63    6.38
   1  -7   4    2.91    2.06
  -1   7  -4    8.14    2.92
  -1   7  -4    3.53    1.90
   1  -7   4    3.82    2.59
   1  -7   5   20.54    4.62
  -1   7  -5   17.80    5.83
   1  -7   5   16.18    5.69
  -1   7  -5   26.75    5.58
  -1   7  -5   16.86    4.07
  -1   7  -6   84.09   12.24
  -1   7  -6   73.71    8.45
  -1   7  -6   85.82    9.88
   1  -7   6   56.90    9.80
  -1   7  -7  145.95   17.10
   1  -7   7  111.32   14.18
  -1   7  -7  146.10   13.88
  -1   7  -7  118.27    9.94
  -1   7  -7  129.54   10.51
   1  -7   8    1.37    2.45
  -1   7  -8    3.61    1.53
  -1   7  -8    3.10    3.23
  -1   7  -8   -2.82    3.79
   1  -7   9   59.32   10.17
  -1   7  -9   52.70    9.34
  -1   7  -9   69.67   12.46
   1  -7  10    7.41    2.80
   1  -7  10    6.36    3.75
  -1   7 -10    7.11    3.34
  -1   7 -10    2.35    4.17
   1  -7  11    0.87    3.64
   1  -7  11   -5.05    5.62
  -1   7 -11    0.49    3.36
  -1   7 -11    0.13    3.15
   1  -7  12    7.66    3.66
  -1   7 -12   14.15    6.81
  -1   7 -12   22.23    7.26
   1  -7  12   21.26    7.65
   1  -7  13    9.97    5.92
  -1   7 -13   15.90    6.80
   1  -6 -14   37.40   10.85
   1  -6 -14   29.04   12.60
   1  -6 -13   67.01   13.44
   1  -6 -13   59.25   15.10
  -1   6  13   52.32   11.02
   1  -6 -12   13.08    6.11
  -1   6  12    5.75    4.11
   1  -6 -12    2.50    4.61
  -1   6  11   94.65   13.55
   1  -6 -11  118.47   19.34
   1  -6 -11  104.60   15.17
   1  -6 -10   29.36    9.85
  -1   6  10   27.38    7.50
   1  -6 -10   25.55    7.37
   1  -6  -9    3.18    2.29
  -1   6   9    3.62    2.76
   1  -6  -9    0.68    5.06
   1  -6  -8   81.72    5.36
   1  -6  -8   90.75   15.39
   1  -6  -8   84.88   10.62
  -1   6   8  106.89    5.85
  -1   6   8   90.79    4.61
  -1   6   8  107.54   13.23
   1  -6  -7  346.19   28.87
   1  -6  -7  257.94   12.60
  -1   6   7  327.18   23.00
   1  -6  -7  311.25   19.33
   1  -6  -6   19.92    7.51
   1  -6  -6   16.51    3.91
  -1   6   6   13.03    4.57
   1  -6  -6   12.68    2.98
   1  -6  -5 1010.95   33.52
   1  -6  -5 1128.73   51.77
  -1   6   5 1066.66   44.83
   1  -6  -4  175.41    9.73
   1  -6  -4  159.26   16.35
  -1   6   4  168.90   16.57
  -1   6   4  190.42   15.53
  -1   6   4  176.75    6.48
  -1   6   4  187.03   19.43
   1  -6  -4  186.58   18.99
   1  -6  -3   26.55    2.65
  -1   6   3   28.82    6.00
   1  -6  -3   20.41    5.41
  -1   6   3   24.54    6.45
  -1   6   3   20.65    6.63
   1  -6  -3   30.14    7.64
   1  -6  -2   67.96   10.70
   1  -6  -2   61.73   10.49
  -1   6   2   64.99   10.68
  -1   6   2   68.93   10.64
  -1   6   2   53.07    8.26
  -1   6   1  362.32   24.35
   1  -6  -1  360.86   26.82
  -1   6   1  365.98   23.92
  -1   6   1  366.66   27.23
   1  -6  -1  371.18   24.63
   1  -6  -1  317.12   22.45
   1  -6   0  489.90   27.75
   1  -6   0  469.63   28.02
  -1   6   0  526.73   33.03
  -1   6   0  482.95   28.76
   1  -6   0  527.90   32.82
  -1   6   0  438.30   26.63
  -1   6  -1 3284.62   99.44
   1  -6   1 2973.71   67.36
   1  -6   1 3350.58   98.87
   1  -6   1 2814.30   84.52
  -1   6  -1 3165.89   93.03
   1  -6   1 2996.77   89.52
  -1   6  -1 2808.76   84.59
  -1   6  -2   39.77    6.84
  -1   6  -2   49.25    5.56
   1  -6   2   35.01    7.92
   1  -6   2   36.05    7.24
  -1   6  -2   38.99    8.11
   1  -6   2   44.93    7.28
  -1   6  -2   48.34    9.84
   1  -6   3  856.43   39.47
   1  -6   3  827.00   32.58
  -1   6  -3  800.54   39.55
   1  -6   3  781.57   38.34
  -1   6  -3  930.25   30.88
  -1   6  -3  767.71   32.72
  -1   6  -3  802.63   21.85
  -1   6  -3  864.85   41.76
   1  -6   4  488.17   28.31
   1  -6   4  501.99   28.93
  -1   6  -4  546.21   23.55
   1  -6   4  465.52   22.35
  -1   6  -4  523.67   30.39
  -1   6  -4  496.25   23.66
  -1   6  -5    2.85    1.93
  -1   6  -5    3.06    1.48
   1  -6   5    0.61    2.63
  -1   6  -5    0.05    2.20
   1  -6   5    5.16    2.46
   1  -6   6  709.06   34.21
  -1   6  -6  730.86   30.97
  -1   6  -6  791.07   38.94
  -1   6  -6  586.29   24.17
  -1   6  -6  625.12   25.33
  -1   6  -7 1172.06   37.19
  -1   6  -7 1322.97   46.74
  -1   6  -7 1430.71   56.28
   1  -6   7 1265.69   49.47
  -1   6  -7 1153.48   35.88
  -1   6  -8   79.42   12.14
  -1   6  -8   65.58    6.21
   1  -6   8   64.04   10.08
  -1   6  -8   71.05    5.95
  -1   6  -8   83.98   10.87
  -1   6  -9  396.89   15.05
   1  -6   9  384.06   26.07
  -1   6  -9  431.07   26.74
  -1   6  -9  390.41   13.79
  -1   6 -10  155.98   18.13
  -1   6 -10  150.63   16.18
   1  -6  10  136.16   15.48
   1  -6  10   99.33   14.18
  -1   6 -11   28.42    8.89
   1  -6  11   30.22    7.79
  -1   6 -11   16.98    6.36
   1  -6  11   15.20    5.33
   1  -6  12  149.10   17.37
   1  -6  12  144.91   18.09
  -1   6 -12  148.25   18.10
  -1   6 -12  139.48   18.39
  -1   6 -13   26.40    8.67
  -1   6 -13   28.77    8.01
   1  -6  13   18.54    6.99
   1  -6  13    9.32    5.16
   1  -6  14   59.43   11.68
  -1   6 -14   59.58   12.77
   1  -5 -15   51.81   14.13
   1  -5 -15   67.70   15.23
   1  -5 -14   19.42    9.79
   1  -5 -14   12.59    5.77
   1  -5 -13  306.42   32.78
   1  -5 -13  317.57   30.47
  -1   5  13  299.37   24.96
   1  -5 -12   15.13    8.53
   1  -5 -12    7.82    5.75
  -1   5  12    0.50    2.28
   1  -5 -11  349.85   28.59
   1  -5 -11  360.52   33.56
  -1   5  11  336.62   24.21
   1  -5 -10   99.13   16.65
  -1   5  10   76.47   10.98
   1  -5 -10   77.52   12.29
   1  -5  -9   54.88    9.57
   1  -5  -9   56.62   12.32
  -1   5   9   60.67    9.82
  -1   5   8   33.35    2.43
   1  -5  -8   43.71   10.10
  -1   5   8   46.69    8.21
   1  -5  -8   31.89    6.75
   1  -5  -7  252.44   23.99
  -1   5   7  223.44    8.78
   1  -5  -7  212.54    8.68
   1  -5  -7  214.03   16.49
  -1   5   7  228.12   17.53
  -1   5   7  212.30   21.69
  -1   5   6   13.57    5.54
  -1   5   6   20.62    5.50
   1  -5  -6   10.43    2.30
   1  -5  -6   19.48    4.61
   1  -5  -6   21.50    6.76
   1  -5  -6   23.54    6.10
   1  -5  -5  667.61   32.42
   1  -5  -5  771.22   40.11
  -1   5   5  721.98   39.47
  -1   5   5  673.62   31.70
   1  -5  -5  627.30   25.73
  -1   5   5  726.32   30.12
   1  -5  -4   10.17    2.45
  -1   5   4    6.73    2.90
  -1   5   4   10.10    4.19
   1  -5  -4   10.82    3.96
  -1   5   3   26.38    7.00
   1  -5  -3   26.32    3.06
   1  -5  -3   25.90    5.49
  -1   5   2  417.76   26.34
   1  -5  -2  413.33   25.88
   1  -5  -2  402.07   25.60
   1  -5  -1  136.27   15.22
  -1   5   1  144.99   14.39
   1  -5  -1  175.45   15.37
   1  -5  -1  146.06   13.38
   1  -5   0  190.35   15.75
   1  -5   0  170.82   14.75
   1  -5   0  211.44   19.12
  -1   5   0  174.37   14.81
   1  -5   1  766.74   38.30
   1  -5   1  787.04   35.07
   1  -5   1  689.90   30.61
  -1   5  -1  727.75   31.37
  -1   5  -2    7.94    2.57
   1  -5   2    1.80    1.53
   1  -5   2    5.70    2.88
   1  -5   2    5.12    2.37
  -1   5  -2    8.26    2.17
   1  -5   3   30.89    4.89
   1  -5   3   32.38    6.54
   1  -5   3   26.66    6.12
  -1   5  -3   31.12    2.38
  -1   5  -3   44.35    8.24
  -1   5  -3   32.37    5.03
  -1   5  -3   34.28    4.72
  -1   5  -3   38.16    7.06
  -1   5  -4    1.95    1.60
  -1   5  -4    6.23    2.43
   1  -5   4    6.39    2.35
   1  -5   4    3.68    1.50
   1  -5   4    3.08    1.50
  -1   5  -4    8.96    2.73
   1  -5   5   20.10    4.65
  -1   5  -5   31.47    6.40
   1  -5   5   25.68    5.30
  -1   5  -5   31.63    5.23
  -1   5  -5   28.26    4.26
   1  -5   6  353.64   21.69
   1  -5   6  395.14   22.26
  -1   5  -6  355.38   15.62
  -1   5  -6  386.38   23.10
  -1   5  -6  356.62   15.80
  -1   5  -6  402.99   21.06
  -1   5  -7  252.32   12.18
  -1   5  -7  256.27   17.94
   1  -5   7  276.26   18.83
  -1   5  -7  244.92   11.67
  -1   5  -7  245.43   18.67
   1  -5   7  264.10   18.52
  -1   5  -7  294.24   22.51
  -1   5  -8   41.74    4.29
  -1   5  -8   38.79    8.38
  -1   5  -8   48.26    7.92
   1  -5   8   29.93    6.42
  -1   5  -8   38.33    3.93
  -1   5  -9  576.79   30.63
   1  -5   9  512.85   28.48
  -1   5  -9  521.45   16.38
  -1   5  -9  507.04   17.24
   1  -5   9  501.46   30.44
  -1   5  -9  590.20   34.84
  -1   5 -10  175.24   18.62
   1  -5  10  154.80   15.43
  -1   5 -10  146.16    7.12
  -1   5 -10  157.73   16.45
   1  -5  10  140.89   15.77
   1  -5  11   53.45    9.25
  -1   5 -11   66.21   10.89
  -1   5 -11   61.13   11.19
   1  -5  11   55.50   10.42
   1  -5  12  312.43   23.90
  -1   5 -12  331.88   26.84
   1  -5  12  292.46   23.99
  -1   5 -12  362.69   28.53
  -1   5 -13   19.31    7.44
   1  -5  13   21.26    6.71
  -1   5 -13   21.00    7.23
   1  -5  13   19.31    6.85
   1  -5  14  148.44   17.22
  -1   5 -14  177.81   20.30
   1  -5  14  154.94   17.91
  -1   5 -14  176.37   20.84
  -1   5 -15  217.91   22.84
   1  -5  15  181.28   19.38
   1  -4 -15   66.45   15.57
   1  -4 -15   75.99   17.92
  -1   4  14    4.22    4.59
   1  -4 -14    2.77    4.99
   1  -4 -14   -0.41    4.80
   1  -4 -13  360.02   32.89
   1  -4 -13  384.42   35.94
  -1   4  13  342.78   26.10
  -1   4  12    1.25    3.56
   1  -4 -12   11.85    7.86
   1  -4 -12    6.49    5.37
   1  -4 -11  716.15   42.66
  -1   4  11  693.46   35.50
   1  -4 -11  796.30   49.15
   1  -4 -10  366.24   31.40
   1  -4 -10  331.09   26.24
  -1   4  10  350.68   22.98
   1  -4  -9   31.25    7.18
  -1   4   9   37.68    7.15
   1  -4  -9   40.72   10.05
  -1   4   9   31.15    7.83
   1  -4  -8  134.73   14.08
  -1   4   8  141.51    6.29
   1  -4  -8  144.52   17.97
  -1   4   8  129.47   15.83
  -1   4   8  131.27   15.63
  -1   4   8  142.81   13.18
  -1   4   7  767.29   40.42
  -1   4   7  793.48   21.03
   1  -4  -7  773.99   34.76
   1  -4  -7  866.30   44.89
  -1   4   7  832.64   41.56
  -1   4   7  831.55   33.98
  -1   4   6  201.71   19.21
   1  -4  -6  219.76   15.31
   1  -4  -6  247.32   21.78
  -1   4   6  218.02   15.49
  -1   4   6  208.45    8.40
   1  -4  -6  214.38    7.66
  -1   4   5 2998.82   90.33
   1  -4  -5 3060.79   78.60
   1  -4  -5 2708.59   73.22
   1  -4  -5 2718.77   63.60
   1  -4  -4  298.58   18.14
   1  -4  -4  276.70   14.15
  -1   4   4  318.93   22.88
   1  -4  -3   21.15    4.38
   1  -4  -3   15.01    2.66
  -1   4   3   17.42    5.21
   1  -4  -2  199.51   15.51
   1  -4  -2  178.60    7.20
  -1   4   1  283.84   18.83
   1  -4  -1  273.75   18.39
   1  -4  -1  231.46   18.26
   1  -4   0  184.22   16.79
   1  -4   0  169.17   13.41
   1  -4   0  177.74   13.68
  -1   4   0  177.07   13.49
   1  -4   1 1589.53   51.93
   1  -4   1 1521.72   47.81
  -1   4  -1 1495.37   46.98
  -1   4  -2    3.23    1.61
   1  -4   2    3.34    1.33
  -1   4  -2    4.51    2.64
   1  -4   2    4.05    2.60
  -1   4  -2    3.13    1.33
   1  -4   2    4.68    2.24
  -1   4  -3   60.79    5.69
  -1   4  -3   51.39    5.55
   1  -4   3   54.16    5.57
   1  -4   3   52.98    6.91
   1  -4   3   46.75    6.45
  -1   4  -3   48.01    7.06
  -1   4  -4    3.63    0.71
  -1   4  -4    4.83    2.03
   1  -4   4    6.07    2.04
  -1   4  -4    2.77    1.24
   1  -4   4    1.24    1.47
  -1   4  -5   21.64    3.17
   1  -4   5   26.68    5.05
  -1   4  -5   21.94    3.12
  -1   4  -5   25.20    4.63
   1  -4   5   28.48    5.24
  -1   4  -5   22.50    4.67
  -1   4  -6   39.50    6.32
  -1   4  -6   27.64    3.50
  -1   4  -6   35.18    3.88
   1  -4   6   39.66    6.15
  -1   4  -6   35.81    5.82
   1  -4   6   34.33    6.02
  -1   4  -7   59.97    7.84
   1  -4   7   60.33    7.89
  -1   4  -7   53.37    4.56
  -1   4  -7   55.04    7.96
   1  -4   7   59.41    8.03
  -1   4  -7   54.45    4.79
  -1   4  -7   61.18    9.65
   1  -4   8   11.79    3.67
  -1   4  -8    5.08    3.06
  -1   4  -8    9.44    2.07
   1  -4   8   13.12    3.76
   1  -4   8   10.07    1.25
   1  -4   8    9.13    1.10
  -1   4  -8    8.93    3.16
  -1   4  -8    6.29    2.78
  -1   4  -8    8.93    1.93
  -1   4  -9   48.11    8.94
   1  -4   9   37.09    6.74
  -1   4  -9   37.71    7.63
   1  -4   9   46.62    3.32
  -1   4  -9   46.30    4.14
   1  -4   9   47.02    7.47
  -1   4  -9   44.80    4.12
   1  -4  10   32.05    6.21
   1  -4  10   35.03    7.00
   1  -4  10   45.70    3.83
  -1   4 -10   44.37    5.36
  -1   4 -10   41.43    3.86
  -1   4 -10   45.69    8.91
  -1   4 -11    2.10    1.24
  -1   4 -11    3.49    2.71
   1  -4  11    0.69    2.32
  -1   4 -11    5.19    4.16
  -1   4 -11    0.62    1.08
   1  -4  11   -1.27    2.51
  -1   4 -12   37.14    8.90
  -1   4 -12   33.55    7.89
   1  -4  12   37.67    7.72
   1  -4  12   42.80    8.39
  -1   4 -13    7.74    5.59
   1  -4  13    5.84    4.12
  -1   4 -13   10.22    5.22
   1  -4  13    4.45    3.55
   1  -4  14   44.08    8.57
  -1   4 -14   37.37   10.54
  -1   4 -14   45.18    9.88
   1  -4  14   50.01    9.18
  -1   4 -15   96.78   14.03
   1  -4  15   79.56   12.97
   1  -3 -15   56.38   14.49
   1  -3 -15   55.20   14.33
  -1   3  14   20.91    6.22
  -1   3  14   29.89    7.77
   1  -3 -14   13.57    6.44
   1  -3 -14   20.60    8.66
   1  -3 -13  127.09   19.58
   1  -3 -13  100.89   17.14
  -1   3  13  126.42   14.78
  -1   3  13  123.57   14.34
   1  -3 -12   -5.75    4.36
   1  -3 -12   -1.19    3.29
  -1   3  12    4.12    3.67
  -1   3  11  278.09   21.18
   1  -3 -11  281.74   27.28
  -1   3  11  280.10   20.70
   1  -3 -11  334.50   27.84
   1  -3 -10   14.76    5.13
  -1   3  10   15.62    4.67
  -1   3  10   16.79    4.77
   1  -3 -10   14.68    6.60
   1  -3  -9  146.07   16.03
  -1   3   9  164.49   14.06
   1  -3  -9  158.96   18.85
  -1   3   9  155.34   15.45
  -1   3   8    6.31    3.29
   1  -3  -8    6.32    3.41
   1  -3  -8    4.29    3.04
  -1   3   8    4.23    1.07
  -1   3   8   -2.06    2.81
  -1   3   8    1.85    1.61
  -1   3   7  529.07   15.96
   1  -3  -7  511.22   32.19
  -1   3   7  498.98   29.07
   1  -3  -7  526.96   27.86
  -1   3   7  516.40   24.28
  -1   3   7  511.70   29.53
  -1   3   6  235.44    8.84
  -1   3   6  210.39   18.30
   1  -3  -6  236.75   16.31
   1  -3  -5 2507.66   66.34
   1  -3  -5 2424.72   50.75
  -1   3   5 2364.96   53.71
  -1   3   5 2293.35   74.56
   1  -3  -4  185.26   12.27
   1  -3  -4  153.71   10.65
  -1   3   4  172.28   15.44
   1  -3  -3   59.77    5.35
  -1   3   3   54.47    8.40
   1  -3  -3   63.17    7.00
   1  -3  -2  497.71   22.02
  -1   3   2  514.36   25.49
   1  -3  -2  461.84   14.68
  -1   3   2  470.80   15.05
   1  -3  -1  496.80   23.76
  -1   3   1  535.68   24.50
   1  -3  -1  535.57   25.25
  -1   3   0 2249.84   59.46
  -1   3   0 2364.65   61.09
   1  -3   0 2220.75   60.18
   1  -3   0 2258.38   68.00
   1  -3   1 4503.14  103.86
  -1   3  -1 3910.55   95.48
  -1   3  -1 4359.41  103.45
   1  -3   1 4263.23   97.21
   1  -3   1 3984.42  104.06
  -1   3  -1 4148.40   88.51
   1  -3   2   -1.61    2.33
  -1   3  -2    3.37    1.87
  -1   3  -2    0.69    0.52
  -1   3  -2    0.67    0.53
   1  -3   2    0.10    2.32
   1  -3   2   -0.44    0.69
  -1   3  -2    0.98    0.75
  -1   3  -3 1388.31   41.77
   1  -3   3 1344.57   41.34
  -1   3  -3 1361.50   35.76
   1  -3   3 1370.31   41.35
  -1   3  -3 1427.82   37.89
   1  -3   3 1422.94   36.37
   1  -3   4  888.77   30.56
  -1   3  -4  927.57   29.46
   1  -3   4  905.25   30.64
  -1   3  -4  879.69   24.69
  -1   3  -4  910.44   30.77
  -1   3  -4  868.65   24.81
  -1   3  -5   13.25    3.46
  -1   3  -5   19.44    2.56
   1  -3   5   14.90    3.63
  -1   3  -5   12.77    2.09
  -1   3  -5   12.98    3.11
   1  -3   5   14.67    3.65
  -1   3  -6 1307.03   33.43
  -1   3  -6 1402.61   43.88
  -1   3  -6 1339.25   33.50
   1  -3   6 1325.55   41.27
  -1   3  -6 1267.22   40.88
  -1   3  -7  479.67   22.19
  -1   3  -7  487.20   16.11
  -1   3  -7  502.03   16.46
  -1   3  -7  476.07   26.70
  -1   3  -7  530.98   25.25
   1  -3   7  459.62   22.88
   1  -3   7  487.39   22.34
  -1   3  -8  194.00    9.20
  -1   3  -8  204.75    9.88
  -1   3  -8  219.34   17.50
   1  -3   8  191.20   14.24
   1  -3   8  195.27   13.86
  -1   3  -8  197.29   13.95
  -1   3  -8  226.68   16.85
  -1   3  -9  608.51   31.65
  -1   3  -9  622.09   31.33
  -1   3  -9  535.09   25.76
   1  -3   9  581.43   26.68
  -1   3  -9  568.19   18.52
  -1   3  -9  575.13   20.25
   1  -3   9  551.23   26.58
  -1   3 -10  264.58   20.64
   1  -3  10  258.55   17.51
   1  -3  10  244.17   16.91
  -1   3 -10  251.21   14.86
  -1   3 -10  287.65   21.25
  -1   3 -10  243.56   11.01
   1  -3  11   52.60    8.24
  -1   3 -11   45.42    4.54
  -1   3 -11   47.82   10.06
  -1   3 -11   45.32    8.86
  -1   3 -11   38.67    6.11
   1  -3  11   38.70    7.11
   1  -3  12  100.53   12.15
  -1   3 -12  100.65   14.14
  -1   3 -12   87.89    9.65
   1  -3  12   89.42   10.54
  -1   3 -12  105.58   13.09
  -1   3 -13   19.38    7.05
   1  -3  13   15.48    5.40
  -1   3 -13   20.67    6.36
   1  -3  13   19.66    5.82
   1  -3  14   66.56    9.53
  -1   3 -14   68.09   10.84
   1  -3  14   76.62   11.87
  -1   3 -14   92.30   14.86
   1  -3  15   66.00   10.99
  -1   3 -15   53.44    9.26
   1  -2 -15   72.08   13.91
   1  -2 -15   87.58   17.97
  -1   2  15   51.30   10.47
  -1   2  15   77.47   12.24
  -1   2  14    2.51    3.76
  -1   2  14   11.22    4.93
   1  -2 -14    4.15    5.72
   1  -2 -14    5.41    6.60
   1  -2 -13  191.72   22.27
  -1   2  13  241.55   19.68
   1  -2 -13  204.31   24.63
  -1   2  13  190.01   18.14
  -1   2  12   25.63    5.38
   1  -2 -12   35.39    8.57
  -1   2  12   20.40    5.64
   1  -2 -12   50.12   12.00
  -1   2  12   49.57    8.64
  -1   2  11  364.03   22.33
   1  -2 -11  383.39   29.95
  -1   2  11  354.61   22.75
   1  -2 -11  286.24   25.94
  -1   2  11  320.76   20.47
   1  -2 -10   49.93   10.51
   1  -2 -10   70.16   11.55
  -1   2  10   57.58    8.15
  -1   2  10   58.03    8.28
   1  -2  -9   83.41   11.68
  -1   2   9   85.68    9.81
  -1   2   9   92.56   10.06
   1  -2  -9   83.34   12.97
  -1   2   8   78.85    9.64
   1  -2  -8   92.27   11.96
  -1   2   8   77.46    6.58
   1  -2  -8   88.73   12.94
  -1   2   8   85.37    9.16
  -1   2   7  173.42   14.42
   1  -2  -7  185.24   15.61
  -1   2   7  172.02   14.50
  -1   2   7  170.81    8.78
  -1   2   7  159.55   11.98
  -1   2   6  194.21   15.39
  -1   2   6  198.14   12.68
  -1   2   6  205.64    8.85
   1  -2  -6  204.51   15.23
  -1   2   6  219.65   16.18
   1  -2  -5  559.83   29.90
  -1   2   5  594.28   28.43
   1  -2  -5  627.62   26.50
  -1   2   5  617.17   17.16
   1  -2  -4    3.47    1.69
  -1   2   4    7.18    1.24
  -1   2   4    7.25    1.90
  -1   2   4    6.87    2.85
   1  -2  -4    3.95    2.27
   1  -2  -3  120.63    8.20
  -1   2   3  111.84   10.71
   1  -2  -3  109.60    7.83
   1  -2  -3  107.18   10.62
  -1   2   3  111.19    7.86
  -1   2   2  146.88   11.61
   1  -2  -2  152.80    7.66
   1  -2  -2  162.19    9.66
  -1   2   1  128.56    6.01
   1  -2  -1  125.12    9.23
  -1   2   1  135.06    9.56
  -1   2   0  470.95   17.56
   1  -2   0  487.33   18.13
   1  -2   0  478.07   17.49
  -1   2   0  490.58   17.73
   1  -2   0  427.96   21.51
   1  -2   1  771.70   27.26
  -1   2  -1  775.43   23.06
  -1   2  -1  834.46   19.84
  -1   2  -1  768.36   26.59
   1  -2   1  854.56   27.52
   1  -2   1  813.99   23.60
   1  -2   2    1.57    0.87
  -1   2  -2    1.92    0.96
   1  -2   2    0.12    1.10
   1  -2   2    1.32    1.21
  -1   2  -2    2.65    1.62
  -1   2  -2    1.23    0.90
   1  -2   3  367.31   14.98
  -1   2  -3  329.13   11.59
   1  -2   3  335.82   14.23
  -1   2  -3  339.77   13.85
  -1   2  -3  347.04   11.63
  -1   2  -3  339.07   14.14
   1  -2   4  951.74   28.96
  -1   2  -4 1008.06   30.57
  -1   2  -4  980.50   29.10
  -1   2  -4  971.45   25.12
  -1   2  -4  980.80   25.25
  -1   2  -5    2.24    1.35
  -1   2  -5    2.12    1.13
   1  -2   5    2.35    1.38
  -1   2  -5    1.76    0.99
   1  -2   5    1.29    0.69
   1  -2   6  599.44   17.06
  -1   2  -6  614.42   25.61
   1  -2   6  600.86   22.26
  -1   2  -6  573.05   18.08
   1  -2   6  540.20   22.20
  -1   2  -6  567.48   21.81
   1  -2   7  291.16   15.58
  -1   2  -7  300.33   15.49
  -1   2  -7  322.67   19.49
  -1   2  -7  302.72   18.44
   1  -2   7  322.42   16.19
   1  -2   7  315.65   11.25
  -1   2  -7  311.33   12.70
  -1   2  -8  117.75    8.08
   1  -2   8  133.03   10.48
   1  -2   8  118.94    6.54
   1  -2   8  119.72    9.94
  -1   2  -8  117.96    9.71
  -1   2  -8  119.66   11.81
  -1   2  -8  128.83   12.38
  -1   2  -9 1160.61   42.29
  -1   2  -9 1031.61   33.83
   1  -2   9 1093.41   37.76
  -1   2  -9 1061.40   43.56
   1  -2   9 1053.10   36.24
   1  -2   9 1095.34   28.63
  -1   2 -10  436.45   24.27
   1  -2  10  420.03   20.87
   1  -2  10  449.58   23.00
  -1   2 -10  458.96   27.56
  -1   2 -10  435.15   22.48
   1  -2  10  448.31   15.24
  -1   2 -11  178.93   15.33
   1  -2  11  207.97   15.63
   1  -2  11  186.35   13.68
  -1   2 -11  214.55   16.63
  -1   2 -11  215.23   19.72
   1  -2  11  219.49    9.93
  -1   2 -12  381.40   22.78
   1  -2  12  379.42   23.02
   1  -2  12  358.42   19.96
  -1   2 -12  399.92   28.71
   1  -2  13   10.11    3.65
   1  -2  13    9.56    4.03
  -1   2 -13   18.45    6.11
  -1   2 -13    6.73    1.88
  -1   2 -14  185.09   15.74
   1  -2  14  183.90   14.52
  -1   2 -14  211.15   23.29
   1  -2  14  225.84   19.20
  -1   2 -15  333.30   30.02
   1  -2  15  281.27   22.95
   1  -1 -15  112.56   20.38
  -1   1  15   98.87   14.17
  -1   1  15  108.63   14.90
   1  -1 -14   24.54    9.60
   1  -1 -14   30.23    8.67
  -1   1  14   21.40    6.30
  -1   1  14   19.51    5.99
   1  -1 -13  448.18   18.58
   1  -1 -13  534.99   39.36
   1  -1 -13  480.29   31.88
  -1   1  13  504.34   29.46
  -1   1  13  463.00   28.80
   1  -1 -12   31.80    4.19
  -1   1  12   31.28    5.64
  -1   1  12   33.35    6.84
   1  -1 -12   37.30    9.23
   1  -1 -12   33.91    8.72
  -1   1  12   34.83    7.49
   1  -1 -11 1046.53   51.07
   1  -1 -11  908.11   28.33
   1  -1 -11  856.79   43.77
  -1   1  11  983.69   39.34
  -1   1  11  912.59   33.40
   1  -1 -10  299.59   13.36
   1  -1 -10  299.48   23.49
  -1   1  10  311.74   19.48
  -1   1  10  309.92    8.88
  -1   1  10  314.10   17.19
   1  -1 -10  362.81   27.03
   1  -1  -9   66.13    5.53
  -1   1   9   69.21    7.57
  -1   1   9   70.58    3.36
  -1   1   9   77.61    8.80
   1  -1  -9   72.14   11.60
  -1   1   8  257.51   14.10
   1  -1  -8  272.88   20.70
   1  -1  -8  267.39   11.20
  -1   1   8  247.88    7.43
  -1   1   8  255.62   14.95
   1  -1  -7  801.74   35.25
   1  -1  -7  748.90   21.54
  -1   1   7  759.89   28.43
  -1   1   7  740.50   16.98
  -1   1   7  685.52   24.29
  -1   1   6  734.92   28.17
   1  -1  -6  721.35   20.35
  -1   1   6  727.43   27.50
  -1   1   6  711.47   22.18
   1  -1  -6  762.86   32.06
  -1   1   5 2378.92   54.19
   1  -1  -5 2352.15   53.02
  -1   1   5 2282.24   61.73
   1  -1  -5 2535.31   66.93
  -1   1   5 2418.63   64.42
  -1   1   4  127.65    8.89
  -1   1   4  126.25   10.14
   1  -1  -4  107.53   10.15
   1  -1  -4  133.14   10.24
  -1   1   4  132.31    8.06
  -1   1   4  130.08    6.19
   1  -1  -4  134.95    5.99
   1  -1  -3  237.44   12.43
  -1   1   3  223.64   10.90
  -1   1   3  223.68    8.10
  -1   1   3  219.30   13.44
   1  -1  -3  212.94   13.05
  -1   1   3  239.65   10.39
  -1   1   2  296.93   11.22
  -1   1   2  285.55    9.04
   1  -1  -2  266.83   13.46
   1  -1  -2  298.78   12.36
  -1   1   2  279.29   10.94
  -1   1   2  265.26   13.98
   1  -1  -2  292.30   11.01
  -1   1   1  223.94    6.60
   1  -1  -1  221.24    9.03
  -1   1   1  218.70   10.35
   1  -1  -1  223.94    6.54
  -1   1   1  197.19    9.42
  -1   1   1  222.59    8.19
   1  -1  -1  201.84    9.00
  -1   1   1  226.57    9.44
  -1   1   0  503.99   13.88
  -1   1   0  494.56   13.05
  -1   1   0  485.13   13.44
   1  -1   0  484.28   13.03
   1  -1   0  469.12   14.46
  -1   1   0  463.09   14.52
  -1   1  -1 1218.62   31.13
   1  -1   1 1213.46   27.83
   1  -1   1 1254.58   31.36
  -1   1  -1 1275.32   29.39
   1  -1   1 1142.91   31.04
  -1   1  -1 1194.45   28.26
  -1   1  -1 1329.89   29.82
   1  -1   1 1235.31   29.48
   1  -1   2    3.73    0.80
   1  -1   2    5.00    1.33
  -1   1  -2    3.59    0.92
  -1   1  -2    3.36    0.96
  -1   1  -2    4.08    0.99
   1  -1   2    4.33    0.83
  -1   1  -3   55.76    4.10
  -1   1  -3   64.89    3.89
   1  -1   3   59.17    4.51
   1  -1   3   58.67    4.22
   1  -1   3   65.86    3.79
   1  -1   4   12.91    2.24
  -1   1  -4   18.19    2.48
   1  -1   4   12.01    2.13
  -1   1  -4   19.52    3.41
   1  -1   4   16.41    1.94
  -1   1  -4   11.04    1.77
   1  -1   5    5.38    1.50
  -1   1  -5    3.02    1.82
  -1   1  -5    4.16    1.45
   1  -1   5    3.98    1.66
  -1   1  -5    3.31    1.03
   1  -1   5    3.55    0.99
   1  -1   6   70.13    4.70
   1  -1   6   68.45    6.18
   1  -1   6   68.70    6.00
  -1   1  -6   82.28    8.18
  -1   1  -6   66.83    5.39
  -1   1  -7   29.50    5.61
   1  -1   7   30.30    4.11
   1  -1   7   23.78    3.89
   1  -1   7   31.85    3.27
  -1   1  -7   26.07    4.64
  -1   1  -7   33.15    4.16
  -1   1  -8   43.71    7.13
  -1   1  -8   41.69    5.76
   1  -1   8   36.47    3.80
   1  -1   8   32.12    4.86
  -1   1  -8   35.64    5.13
   1  -1   8   43.02    5.01
   1  -1   9  233.08   14.54
  -1   1  -9  243.07   18.69
  -1   1  -9  244.69   15.92
   1  -1   9  245.57   13.29
  -1   1  -9  241.82   15.11
   1  -1   9  247.89   11.27
  -1   1  -9  237.25   14.77
   1  -1  10  208.53   14.42
   1  -1  10  193.10   12.14
  -1   1 -10  207.31   13.98
   1  -1  10  202.54   10.55
  -1   1 -10  213.98   16.14
  -1   1 -10  181.70   17.18
   1  -1  11   52.49    6.22
   1  -1  11   51.96    7.58
  -1   1 -11   60.19    7.64
   1  -1  11   52.28    5.32
  -1   1 -11   58.79   10.44
  -1   1 -12   47.20    9.93
   1  -1  12   52.60    5.40
   1  -1  12   58.41    8.51
   1  -1  12   44.45    5.99
  -1   1 -12   45.16    6.40
   1  -1  13   42.82    8.08
  -1   1 -13   38.40    6.29
   1  -1  13   41.84    6.07
  -1   1 -13   36.80    7.95
  -1   1 -13   40.58    9.83
   1  -1  14   95.24    9.05
  -1   1 -14   94.94   13.68
   1  -1  14   91.00   12.06
  -1   1 -14  101.78   15.98
  -1   1 -14   77.48    8.93
   1  -1  15  215.78   19.79
  -1   1 -15  249.54   26.58
   1  -1  16   43.10    9.37
  -1   0  15  100.18   14.52
   1   0 -15   99.12   18.64
   1   0 -14   -3.22    6.09
  -1   0  14    6.20    3.76
  -1   0  13  162.17   16.12
   1   0 -13  175.78   22.12
   1   0 -13  133.90   14.48
   1   0 -13  125.02   10.21
   1   0 -12   42.48    5.46
   1   0 -12   50.00   11.19
   1   0 -12   49.40    8.91
  -1   0  12   46.88    8.27
  -1   0  12   43.07    4.22
  -1   0  11  418.96   23.84
   1   0 -11  368.40   17.43
  -1   0  11  383.48   14.53
  -1   0  11  397.12   17.18
  -1   0  10  122.29   11.76
   1   0 -10  145.04   16.82
  -1   0  10  117.04    7.01
  -1   0  10  112.13    8.24
   1   0 -10  110.33    8.47
  -1   0   9  119.85   10.98
  -1   0   9  119.99    6.93
  -1   0   9  107.04    8.07
   1   0  -9   97.92   11.41
   1   0  -9  125.99   14.91
   1   0  -9  123.89    8.67
   1   0  -8  102.37   11.17
   1   0  -8  108.28    7.83
  -1   0   8  112.99    7.82
   1   0  -8  136.98   14.37
  -1   0   8  127.82   10.51
  -1   0   8  112.07    6.55
   1   0  -7  665.59   31.93
  -1   0   7  661.43   21.56
  -1   0   7  633.60   24.70
   1   0  -7  574.86   27.45
   1   0  -7  636.97   21.15
  -1   0   7  630.97   18.74
  -1   0   7  618.13   24.30
  -1   0   7  616.65   29.34
   1   0  -6  698.97   21.79
  -1   0   6  682.36   23.94
  -1   0   6  721.84   25.02
   1   0  -6  720.59   31.61
   1   0  -6  632.30   27.56
  -1   0   6  705.54   22.74
   1   0  -5 2594.19   72.28
  -1   0   5 2947.42   68.59
  -1   0   5 2899.78   67.85
   1   0  -5 2876.06   65.50
   1   0  -5 3078.62   78.55
  -1   0   5 3015.26   69.30
  -1   0   5 2746.11   67.13
  -1   0   4  286.74   11.59
   1   0  -4  297.10   11.00
   1   0  -4  329.10   17.01
  -1   0   4  300.03   12.50
   1   0  -4  267.69   13.83
  -1   0   4  307.77   15.69
  -1   0   4  295.01   13.23
  -1   0   3   33.59    3.15
   1   0  -3   32.85    3.80
   1   0  -3   36.56    3.06
   1   0  -3   42.19    5.22
  -1   0   3   33.96    3.99
  -1   0   3   38.24    4.64
   1   0  -2 1391.95   34.16
  -1   0   2 1407.71   33.12
   1   0  -2 1395.80   32.85
  -1   0   2 1478.26   31.57
   1   0  -2 1538.99   39.64
  -1   0   2 1392.80   37.78
  -1   0   2 1318.65   35.60
  -1   0   1  231.92    8.03
   1   0  -1  233.37    7.64
  -1   0   1  238.91    6.91
   1   0  -1  233.82    7.67
  -1   0   1  235.67    7.75
   1   0  -1  246.86    7.12
   1   0  -1  232.28   10.87
  -1   0   1  228.62    7.06
   1   0   2    3.47    0.58
  -1   0  -2    3.65    0.92
  -1   0  -2    3.27    0.76
   1   0   2    3.56    0.83
   1   0   2    3.92    0.81
   1   0   3 2308.80   50.13
   1   0   3 2272.75   50.32
  -1   0  -3 2275.34   50.19
  -1   0  -3 2356.23   51.03
   1   0   4 1632.82   39.55
   1   0   4 1716.62   39.68
   1   0   4 1683.40   40.17
  -1   0  -4 1654.21   40.88
  -1   0  -4 1711.49   40.06
   1   0   5  104.36    6.22
   1   0   5   90.65    5.52
   1   0   5   85.28    5.79
  -1   0  -5   86.65    5.65
  -1   0  -5   86.78    6.42
   1   0   6  534.94   17.55
  -1   0  -6  554.24   20.59
   1   0   6  563.12   19.33
   1   0   6  570.96   18.54
  -1   0  -6  522.38   23.37
  -1   0  -6  541.58   19.98
  -1   0  -7   20.16    4.47
   1   0   7   18.08    3.39
  -1   0  -7   14.71    2.75
   1   0   7   21.54    3.17
  -1   0  -7   21.22    3.68
   1   0   7   16.51    2.55
   1   0   8  127.24    9.51
  -1   0  -8  116.95   10.18
  -1   0  -8  131.66   12.44
  -1   0  -8  121.07   10.80
   1   0   8  112.98    7.49
   1   0   8  123.44    8.19
  -1   0  -8  117.27    8.33
  -1   0  -9  569.38   21.97
   1   0   9  641.99   22.50
  -1   0  -9  604.00   30.86
   1   0   9  609.67   24.88
   1   0   9  642.09   21.41
   1   0  10  254.24   15.74
   1   0  10  233.55   12.03
   1   0  10  239.14   12.85
  -1   0 -10  209.56   12.22
  -1   0 -10  240.95   19.61
   1   0  11   76.60    9.03
  -1   0 -11   80.16    7.26
  -1   0 -11   84.73   11.90
   1   0  11   78.52    6.96
  -1   0 -11   93.51   13.03
   1   0  11   80.13    7.44
  -1   0 -12    6.80    2.29
  -1   0 -12   14.64    5.44
  -1   0 -12   11.72    5.38
   1   0  12   15.39    4.59
   1   0  12   10.02    2.54
   1   0  12   13.56    2.76
   1   0  13  126.75   13.25
   1   0  13  133.45    9.67
  -1   0 -13  121.05    9.35
  -1   0 -13   97.09   14.48
  -1   0 -13  146.83   18.14
  -1   0 -14   37.17    9.68
  -1   0 -14   37.13    9.41
  -1   0 -14   40.78    5.45
   1   0  14   49.52    8.86
   1   0  15   82.89   12.31
  -1   0 -15   67.97   12.95
  -1   0 -15   97.36   17.12
   1   0  16   42.90    9.75
  -1  -1  15   81.04   13.06
   1   1 -14    6.71    6.17
   1   1 -14    2.13    1.61
  -1  -1  14   12.69    5.79
   1   1 -13  131.87   19.24
  -1  -1  13  119.07   14.09
   1   1 -13  106.84   10.39
   1   1 -12   89.07    9.23
   1   1 -12   90.51   15.14
  -1  -1  12  104.40   12.12
   1   1 -12   94.19    9.77
  -1  -1  12   93.67    7.85
  -1  -1  11  225.47    9.77
   1   1 -11  227.94   14.59
  -1  -1  11  231.83   12.68
  -1  -1  11  230.19   17.50
   1   1 -11  220.98   15.16
   1   1 -11  251.68   23.60
  -1  -1  10   33.89    4.54
  -1  -1  10   30.36    3.16
  -1  -1  10   37.73    6.35
   1   1 -10   34.51    5.83
   1   1 -10   26.24    7.10
   1   1 -10   34.84    5.42
   1   1  -9  192.94   18.44
   1   1  -9  169.10   11.76
  -1  -1   9  184.59    8.36
  -1  -1   9  168.04   10.38
   1   1  -9  172.82   12.43
  -1  -1   9  188.10   13.83
   1   1  -8    5.85    3.62
   1   1  -8    5.88    1.95
  -1  -1   8    6.07    2.40
   1   1  -8    4.69    1.87
  -1  -1   8    9.52    4.17
  -1  -1   8    6.42    1.50
   1   1  -7   39.48    5.18
  -1  -1   7   36.05    5.37
  -1  -1   7   44.34    3.32
   1   1  -7   53.78    8.71
   1   1  -7   35.72    4.70
  -1  -1   6  140.42    9.92
  -1  -1   6  137.44   10.62
  -1  -1   6  158.80    6.34
   1   1  -6  156.19    9.68
   1   1  -6  150.26   13.54
   1   1  -6  138.83    8.99
   1   1  -5  312.94   12.89
  -1  -1   5  313.48   15.09
   1   1  -5  345.97   19.60
   1   1  -5  310.18   14.14
  -1  -1   5  337.69    9.81
  -1  -1   5  328.52   14.81
   1   1  -4    1.62    0.89
  -1  -1   4    2.07    0.54
  -1  -1   4    3.31    1.49
   1   1  -4    2.44    0.97
  -1  -1   4    3.11    1.48
   1   1  -4    1.12    1.33
  -1  -1   3  257.24    7.98
   1   1  -3  248.67   10.87
  -1  -1   3  250.09   10.71
   1   1  -3  244.88    7.32
  -1  -1   3  230.46   10.75
   1   1  -2  106.98    6.24
  -1  -1   2  115.75    5.58
  -1  -1   2  116.83    6.27
   1   1  -2  120.55    8.77
  -1  -1   2  114.51    6.32
  -1  -1   1   52.54    2.48
   1   1  -1   51.28    2.45
   1   1  -1   53.49    3.58
  -1  -1   1   51.63    3.58
   1   1  -1   44.58    3.46
   1   1  -1   55.34    3.67
   1   1  -1   62.33    5.97
  -1  -1   1   52.71    3.46
   1   1   0  888.40   26.84
   1   1   0  924.94   22.76
  -1  -1   0  913.31   23.15
   1   1   0  941.76   22.96
  -1  -1   0  957.93   22.41
  -1  -1   0  943.53   23.54
   1   1   0  989.89   22.56
  -1  -1   0  944.65   23.58
   1   1   0  972.32   23.91
  -1  -1   0  851.97   26.98
   1   1   1 1305.99   29.59
  -1  -1  -1 1372.02   29.68
   1   1   1 1383.37   32.55
  -1  -1  -1 1325.01   31.41
   1   1   1 1301.73   29.76
   1   1   1 1375.24   31.90
  -1  -1  -1 1399.78   31.22
   1   1   2   14.72    2.07
  -1  -1  -2   14.24    1.14
  -1  -1  -2   14.30    1.73
   1   1   2   14.83    1.64
   1   1   3 1780.84   43.08
  -1  -1  -3 1844.93   43.60
  -1  -1  -3 1757.40   39.53
   1   1   4 1438.25   34.76
   1   1   4 1487.78   39.09
  -1  -1  -4 1499.96   40.33
  -1  -1  -4 1565.61   35.42
  -1  -1  -5  168.56   10.66
   1   1   5  172.73    7.37
   1   1   5  188.26   10.26
  -1  -1  -5  189.39    7.89
   1   1   6  938.45   29.36
  -1  -1  -6  915.61   32.13
  -1  -1  -6  956.37   25.42
  -1  -1  -6  960.32   32.38
   1   1   6  944.37   24.60
  -1  -1  -6  907.43   23.61
   1   1   7  103.28    5.96
  -1  -1  -7   93.44    5.40
  -1  -1  -7  105.41    9.85
   1   1   7   98.28    7.93
  -1  -1  -7   91.99    6.11
  -1  -1  -7  103.72   10.48
  -1  -1  -7  105.13    9.87
  -1  -1  -8  247.06   17.58
   1   1   8  233.37   10.13
   1   1   8  241.44   13.52
  -1  -1  -8  237.27    9.65
   1   1   9 1790.58   51.20
  -1  -1  -9 1727.57   42.50
   1   1   9 1847.94   50.74
   1   1   9 1753.40   43.75
  -1  -1  -9 1797.07   60.67
  -1  -1 -10  506.74   29.37
   1   1  10  510.00   17.51
   1   1  10  530.05   22.75
  -1  -1 -10  481.05   16.45
   1   1  10  507.62   23.53
  -1  -1 -10  517.99   30.23
   1   1  11  507.54   22.85
   1   1  11  467.98   17.46
  -1  -1 -11  464.17   16.44
   1   1  11  495.84   24.54
  -1  -1 -11  516.29   32.10
  -1  -1 -11  512.77   31.48
  -1  -1 -12  179.86   19.44
  -1  -1 -12  168.15    8.95
   1   1  12  190.20   15.48
  -1  -1 -12  160.39   18.52
   1   1  12  171.60   12.81
   1   1  12  159.16    9.34
   1   1  13   44.27    6.56
  -1  -1 -13   50.86   10.14
   1   1  13   39.97    7.26
   1   1  13   45.80    4.88
  -1  -1 -13   39.35    4.30
  -1  -1 -13   26.32    8.03
  -1  -1 -14  125.71   18.64
   1   1  14  160.09   15.44
  -1  -1 -14  158.99   20.64
  -1  -1 -15  253.67   27.82
   1   1  15  337.77   24.54
  -1  -1 -15  318.62   30.81
   1   1  16    9.44    5.14
  -1  -2  14   66.25   11.60
   1   2 -14   63.97    9.04
   1   2 -14   89.45   16.75
  -1  -2  13  317.29   23.56
  -1  -2  13  298.03   17.55
   1   2 -13  296.92   19.68
   1   2 -13  352.62   31.43
   1   2 -12   94.43   10.54
  -1  -2  12  115.23   13.11
   1   2 -12  100.68   15.76
   1   2 -12   77.24    6.10
  -1  -2  12   95.76    9.77
  -1  -2  11  643.18   31.64
   1   2 -11  624.45   29.11
  -1  -2  11  627.11   26.49
   1   2 -11  608.87   20.79
  -1  -2  10  179.44   14.85
   1   2 -10  206.77   20.17
  -1  -2  10  166.96   12.33
   1   2 -10  175.14   13.95
   1   2 -10  158.79    8.95
   1   2  -9   14.14    2.43
  -1  -2   9   16.76    3.78
   1   2  -9   21.57    6.52
   1   2  -9   16.40    3.81
   1   2  -8  226.07    9.65
   1   2  -8  247.37   20.09
  -1  -2   8  238.56   15.36
  -1  -2   8  235.12   20.03
   1   2  -8  226.48   14.98
   1   2  -7  273.64    9.67
   1   2  -7  273.00   16.23
  -1  -2   7  264.12   20.34
   1   2  -7  308.37   21.33
  -1  -2   7  273.16   15.66
   1   2  -6  717.11   17.34
   1   2  -6  717.32   27.76
  -1  -2   6  698.56   26.41
   1   2  -6  783.96   33.80
  -1  -2   5  868.44   24.97
   1   2  -5  882.64   30.43
  -1  -2   5  834.92   28.70
  -1  -2   4   58.45    5.67
  -1  -2   4   51.73    4.04
   1   2  -4   56.04    6.20
   1   2  -4   59.41    7.37
  -1  -2   4   41.67    5.24
   1   2  -3    9.56    2.69
  -1  -2   3    9.65    3.50
   1   2  -3    8.45    2.51
  -1  -2   3   12.03    1.84
  -1  -2   3    9.12    2.03
  -1  -2   3    9.85    2.17
   1   2  -2  164.92   11.38
   1   2  -2  144.26    5.13
   1   2  -2  138.00    6.69
  -1  -2   2  152.76    7.52
  -1  -2   2  132.31   10.45
   1   2  -2  142.07    8.97
  -1  -2   2  141.46    6.31
  -1  -2   2  131.29    8.01
   1   2  -1    3.45    1.03
  -1  -2   1    3.13    0.77
  -1  -2   1    3.14    1.62
   1   2  -1    2.50    0.77
   1   2  -1    3.48    1.26
  -1  -2   1    3.48    1.60
   1   2  -1    5.49    1.39
   1   2  -1    3.58    1.54
  -1  -2   1    2.12    0.70
  -1  -2   1    2.45    0.69
  -1  -2   1    3.83    1.81
   1   2  -1    5.70    1.85
  -1  -2   1    3.97    0.99
   1   2   0   59.75    5.46
   1   2   0   55.91    5.53
  -1  -2   0   60.55    4.49
  -1  -2   0   57.81    4.34
   1   2   0   66.91    4.92
  -1  -2   0   65.72    4.43
  -1  -2   0   61.95    5.44
   1   2   0   65.89    4.72
   1   2   0   62.35    5.54
  -1  -2   0   59.35    6.17
  -1  -2   0   55.09    5.72
  -1  -2   0   60.53    5.67
  -1  -2  -1   29.24    3.11
  -1  -2  -1   23.84    3.48
  -1  -2  -1   26.05    2.56
   1   2   1   28.78    3.42
  -1  -2  -1   30.86    3.54
  -1  -2  -1   25.49    3.04
   1   2   1   31.67    3.22
  -1  -2  -1   30.95    3.34
  -1  -2  -1   24.59    3.10
   1   2   1   25.83    2.58
   1   2   1   32.00    3.41
  -1  -2  -2    9.21    1.29
   1   2   2   14.65    2.77
   1   2   2   11.38    2.10
  -1  -2  -2    9.14    1.80
   1   2   2    8.76    1.20
   1   2   2   10.74    1.86
  -1  -2  -2   11.03    1.87
   1   2   3  248.46    6.84
  -1  -2  -3  239.35    7.15
   1   2   3  246.84    9.53
   1   2   3  247.54   12.68
   1   2   3  244.95   10.95
  -1  -2  -3  232.46    9.35
   1   2   4  270.75   12.19
  -1  -2  -4  250.53    9.82
   1   2   4  272.53   10.01
   1   2   4  275.33   14.11
  -1  -2  -4  263.51   14.22
  -1  -2  -4  274.96   14.40
   1   2   5   52.55    3.93
  -1  -2  -5   51.70    6.59
  -1  -2  -5   57.12    6.69
  -1  -2  -5   55.06    4.05
   1   2   5   56.48    6.41
   1   2   6    7.07    2.39
   1   2   6    5.04    1.11
  -1  -2  -6    2.39    1.98
  -1  -2  -6    8.14    3.21
  -1  -2  -6    5.14    1.30
   1   2   7   24.35    2.78
   1   2   7   27.98    4.69
  -1  -2  -7   26.84    2.95
  -1  -2  -8   97.96   11.44
  -1  -2  -8   90.61    5.94
  -1  -2  -8  100.44   11.04
   1   2   8   86.37    8.88
   1   2   8   94.36    5.64
   1   2   9  651.95   27.59
  -1  -2  -9  613.98   14.88
   1   2   9  652.98   19.13
  -1  -2  -9  658.11   32.64
  -1  -2  -9  695.35   34.12
  -1  -2 -10  327.19   23.55
  -1  -2 -10  319.97   24.03
   1   2  10  305.91   11.84
  -1  -2 -10  295.42    8.57
   1   2  10  297.69   18.16
  -1  -2 -11  176.66   18.44
  -1  -2 -11  171.36   18.45
   1   2  11  170.76   13.82
   1   2  11  164.96    8.51
   1   2  11  173.57   13.88
   1   2  12   60.29    4.89
  -1  -2 -12   49.86   10.66
   1   2  12   60.87    8.40
   1   2  12   52.11    8.10
  -1  -2 -12   50.37   11.10
  -1  -2 -13   81.18   14.10
  -1  -2 -13   68.01   12.73
   1   2  13   81.61   10.50
   1   2  14  128.73   14.25
  -1  -2 -14  134.97   18.92
   1   2  14  119.62   14.63
  -1  -2 -14  114.59   18.80
  -1  -2 -15  260.37   29.40
  -1  -2 -15  312.92   31.46
   1   2  15  307.02   23.36
   1   2  15  295.79   24.41
   1   2  16    8.85    5.51
  -1  -2 -16    8.98    3.32
   1   3 -15   52.65    9.91
  -1  -3  14   33.98    8.60
   1   3 -14   26.08   10.24
   1   3 -14   18.55    5.71
  -1  -3  13  127.55   12.89
   1   3 -13  161.26   20.54
  -1  -3  13  144.64   15.79
   1   3 -13  102.74   12.67
  -1  -3  12   90.39   10.74
   1   3 -12  121.23   16.93
  -1  -3  12  113.08   13.28
   1   3 -12  100.93   12.21
  -1  -3  11  437.61   20.15
   1   3 -11  406.55   25.01
  -1  -3  11  400.20   23.22
  -1  -3  11  421.95   25.46
   1   3 -11  445.38   31.85
  -1  -3  10  249.83   18.34
   1   3 -10  279.48   23.93
   1   3 -10  260.96   18.97
  -1  -3  10  262.44   14.35
  -1  -3   9    4.49    1.66
  -1  -3   9    0.78    1.87
   1   3  -9    2.72    2.01
  -1  -3   8  549.19   26.27
   1   3  -8  592.89   28.78
  -1  -3   8  587.54   20.90
  -1  -3   8  578.61   34.10
  -1  -3   7  362.33   24.84
  -1  -3   7  358.51   19.50
   1   3  -7  367.58   19.78
   1   3  -7  385.42   21.72
  -1  -3   7  369.54   14.77
   1   3  -7  401.66   24.68
  -1  -3   6  647.03   33.57
  -1  -3   6  706.43   21.53
   1   3  -6  780.16   34.18
  -1  -3   6  709.12   28.00
   1   3  -6  705.46   30.27
  -1  -3   5 1996.37   56.59
   1   3  -5 2162.03   64.17
  -1  -3   5 2074.25   48.40
   1   3  -5 2059.50   60.73
  -1  -3   4  196.17   15.42
   1   3  -4  240.75   15.31
  -1  -3   4  236.73   13.56
   1   3  -4  249.67   16.51
  -1  -3   4  235.04    9.26
  -1  -3   4  233.80   12.45
   1   3  -3  969.08   33.88
  -1  -3   3  958.88   31.33
   1   3  -3  934.85   25.32
  -1  -3   3  935.75   29.28
  -1  -3   3  866.48   34.54
  -1  -3   3  974.92   24.37
   1   3  -3 1032.94   35.87
   1   3  -3  959.45   23.66
  -1  -3   2 2130.16   63.92
   1   3  -2 2708.70   67.91
   1   3  -2 2419.53   63.65
   1   3  -2 2301.61   55.15
  -1  -3   2 2517.55   56.58
   1   3  -2 2400.75   55.66
  -1  -3   2 2362.12   61.41
  -1  -3   2 2360.81   59.65
   1   3  -1   17.30    2.51
  -1  -3   1   17.13    2.81
   1   3  -1   16.08    3.35
  -1  -3   1   17.27    3.97
   1   3  -1   15.80    2.83
   1   3  -1   15.08    3.15
  -1  -3   1   16.73    3.47
  -1  -3   1   15.81    3.41
   1   3  -1   19.03    3.66
   1   3  -1   24.18    4.55
  -1  -3   1   21.43    3.91
   1   3   0  956.24   34.99
   1   3   0  992.17   33.95
   1   3   0 1008.76   31.17
  -1  -3   0  967.93   33.35
   1   3   0  937.78   29.58
  -1  -3   0  957.65   33.77
  -1  -3   0 1054.49   30.27
  -1  -3   0 1123.55   36.50
   1   3   0 1037.48   31.02
  -1  -3   0  975.23   31.69
   1   3   1  801.45   28.97
  -1  -3  -1  826.49   26.40
  -1  -3  -1  798.79   26.91
   1   3   1  786.68   27.52
  -1  -3  -1  736.27   28.09
   1   3   1  742.81   27.47
   1   3   1  741.72   23.25
   1   3   1  793.36   24.01
  -1  -3  -2   13.61    3.25
  -1  -3  -2    8.19    2.59
   1   3   2    9.18    2.12
   1   3   2   10.04    2.04
   1   3   2   12.21    3.12
   1   3   2   11.13    2.78
  -1  -3  -2   10.20    2.48
   1   3   2   11.98    2.06
  -1  -3  -2   11.89    2.29
   1   3   3 2251.31   56.21
   1   3   3 2169.17   61.49
   1   3   3 2223.21   56.00
  -1  -3  -3 2222.05   53.81
   1   3   3 2210.22   49.75
  -1  -3  -3 2218.20   56.12
   1   3   4  958.95   21.87
  -1  -3  -4  930.15   26.67
   1   3   4  965.35   30.37
   1   3   4  981.98   35.26
  -1  -3  -5  205.40    9.48
   1   3   5  220.72   15.11
  -1  -3  -6   27.76    3.15
   1   3   6   31.69    5.97
   1   3   7   81.34    9.49
  -1  -3  -7   71.49    9.69
  -1  -3  -7   65.66    4.96
   1   3   7   78.88    5.43
   1   3   8    9.19    3.13
   1   3   8   10.69    2.02
  -1  -3  -8   10.30    2.05
   1   3   8    9.68    3.27
  -1  -3  -8   11.07    4.27
   1   3   9  564.52   28.07
  -1  -3  -9  521.03   17.64
   1   3   9  576.87   17.91
  -1  -3  -9  544.50   30.03
  -1  -3  -9  552.17   32.25
   1   3   9  529.42   25.73
   1   3  10   66.53    8.62
  -1  -3 -10   64.21   10.81
   1   3  10   68.82    4.99
   1   3  10   69.65    9.49
  -1  -3 -10   56.19    4.91
  -1  -3 -10   63.04   10.62
  -1  -3 -11  125.44   16.58
   1   3  11  134.20   13.52
   1   3  11  135.98    7.25
   1   3  11  138.92   13.66
  -1  -3 -11  155.10   17.58
   1   3  12   33.59    7.14
  -1  -3 -12   13.76    5.27
  -1  -3 -12   30.36    8.79
  -1  -3 -13  115.72   17.02
   1   3  13   84.67   11.13
  -1  -3 -13  102.97   17.51
   1   3  13   90.95   12.08
   1   3  14   14.51    5.08
  -1  -3 -14   18.41    7.70
  -1  -3 -14   18.38    7.72
   1   3  14    7.60    3.04
   1   3  15   97.05   13.69
   1   3  15   93.49   12.86
  -1  -3 -15  100.34   17.47
  -1  -3 -15   85.40   17.36
  -1  -3 -16    1.31    4.49
   1   3  16   -3.30    4.53
   1   4 -15   46.14    9.77
   1   4 -14    3.78    3.81
   1   4 -13   32.47    8.08
  -1  -4  13   30.12    6.88
  -1  -4  13   26.57    7.20
   1   4 -13   31.43    9.28
  -1  -4  12   55.10    8.99
  -1  -4  12   60.70   10.10
   1   4 -12   53.15   11.75
   1   4 -12   53.91    9.74
   1   4 -11   67.13   10.55
   1   4 -11   87.94   14.09
  -1  -4  11   63.25    9.73
  -1  -4  10   18.17    4.76
   1   4 -10   11.42    5.10
  -1  -4  10   17.76    3.21
   1   4 -10   25.27    7.25
  -1  -4   9   27.56    5.91
   1   4  -9   24.32    6.55
  -1  -4   9   26.74    3.65
   1   4  -9   26.75    6.96
   1   4  -8   14.79    5.33
  -1  -4   8   10.93    3.19
   1   4  -8    9.94    5.37
  -1  -4   8   14.91    2.52
  -1  -4   7   20.84    4.52
   1   4  -7    9.58    3.09
  -1  -4   7   17.00    2.41
   1   4  -7   24.61    6.31
  -1  -4   7   22.23    6.45
   1   4  -7   25.46    6.47
  -1  -4   7   13.22    3.61
  -1  -4   6   80.74    9.15
  -1  -4   6   86.53    5.29
   1   4  -6   92.77    9.89
  -1  -4   6   90.80    8.81
   1   4  -6   94.18   11.30
  -1  -4   6   76.38   10.94
   1   4  -6   96.11   11.44
  -1  -4   5  213.21    8.45
   1   4  -5  223.25   16.87
  -1  -4   5  188.65   16.58
  -1  -4   5  234.69   15.19
   1   4  -5  225.38   17.27
  -1  -4   5  218.20   13.55
   1   4  -4   10.89    3.80
  -1  -4   4   14.00    3.35
   1   4  -4   13.52    4.12
  -1  -4   4   12.77    3.93
   1   4  -4   10.38    1.82
   1   4  -3  258.33   11.94
  -1  -4   3  255.63   15.67
   1   4  -3  248.08   10.40
  -1  -4   3  255.32   14.70
  -1  -4   3  222.76   16.12
  -1  -4   3  270.25   11.05
   1   4  -3  255.41   17.18
  -1  -4   2  295.33   17.65
   1   4  -2  293.93   12.34
  -1  -4   2  303.25   17.27
  -1  -4   2  283.83   16.44
   1   4  -2  310.09   18.30
   1   4  -2  283.50   14.31
  -1  -4   2  285.44   16.75
   1   4  -2  311.08   16.99
  -1  -4   2  339.04   15.01
   1   4  -2  317.78   18.75
   1   4  -1   -0.48    1.64
  -1  -4   1   -1.52    2.27
   1   4  -1    2.02    1.61
  -1  -4   1    6.27    2.53
   1   4  -1    2.11    2.17
  -1  -4   1    0.95    1.01
  -1  -4   1    0.36    1.13
  -1  -4   1   -1.46    2.50
   1   4  -1    0.73    0.90
  -1  -4   0  665.88   29.26
   1   4   0  543.96   23.47
   1   4   0  569.10   26.68
  -1  -4   0  566.24   23.49
   1   4   0  539.14   24.08
  -1  -4   0  583.54   23.17
  -1  -4   0  537.64   26.26
   1   4   0  630.09   29.15
  -1  -4   0  577.45   24.35
   1   4   1  458.85   23.06
   1   4   1  433.93   23.91
  -1  -4  -1  524.29   22.72
  -1  -4  -1  520.92   24.83
   1   4   1  532.03   25.29
   1   4   1  491.32   17.83
  -1  -4  -1  518.54   18.07
  -1  -4  -1  524.64   24.19
   1   4   1  496.65   20.88
  -1  -4  -2   25.14    4.72
  -1  -4  -2   27.72    5.15
  -1  -4  -2   27.27    4.53
   1   4   2   23.68    5.09
   1   4   2   26.30    4.87
   1   4   2   25.58    4.26
   1   4   2   32.71    4.38
   1   4   2   27.19    3.37
   1   4   3 2742.49   65.12
   1   4   3 2904.79   72.43
   1   4   3 2727.20   77.79
   1   4   3 2717.02   62.83
   1   4   3 2742.88   71.68
  -1  -4  -3 2593.47   67.96
  -1  -4  -3 2870.52   72.22
   1   4   4 1071.20   28.03
  -1  -4  -4 1057.72   32.41
   1   4   4 1113.85   42.56
   1   4   4 1096.67   35.46
  -1  -4  -4 1117.80   36.48
   1   4   5  318.19    9.43
   1   4   5  314.53   20.84
  -1  -4  -5  328.78   14.12
   1   4   6  596.62   25.28
   1   4   6  543.03   28.84
  -1  -4  -6  543.86   19.30
  -1  -4  -7   33.70    3.90
   1   4   7   29.28    6.53
  -1  -4  -7   23.68    6.03
   1   4   7   32.56    5.40
   1   4   8  320.83   22.53
  -1  -4  -8  304.12   12.76
   1   4   8  307.51   18.66
  -1  -4  -8  297.17   23.14
  -1  -4  -9 1699.28   61.18
   1   4   9 1753.11   62.13
   1   4   9 1800.71   56.70
  -1  -4  -9 1825.08   68.73
  -1  -4  -9 1715.38   43.22
  -1  -4 -10  183.90    9.08
  -1  -4 -10  202.23   20.76
   1   4  10  181.50   15.52
  -1  -4 -10  205.62   18.87
   1   4  11  439.27   25.90
  -1  -4 -11  453.73   31.29
  -1  -4 -11  454.02   33.99
  -1  -4 -12   46.43   11.69
  -1  -4 -12   49.73   10.46
   1   4  12   50.41    9.13
  -1  -4 -13   47.00   12.73
  -1  -4 -13   56.33   11.95
   1   4  13   46.61    9.14
  -1  -4 -14  104.61   18.74
  -1  -4 -14  121.52   19.22
   1   4  14  122.21   15.37
  -1  -4 -15  178.59   25.53
   1   4  15  166.26   17.37
  -1  -4 -15  210.91   25.96
  -1  -4 -16   -3.09    5.27
   1   5 -14   94.28   14.63
   1   5 -13  169.55   19.29
   1   5 -13  170.56   21.93
  -1  -5  13  144.36   17.04
  -1  -5  13  149.04   17.05
   1   5 -12   80.24   13.13
  -1  -5  12   59.88   10.56
  -1  -5  12   64.19   11.24
   1   5 -12   78.68   14.75
   1   5 -11  370.17   28.24
  -1  -5  11  346.93   24.98
   1   5 -11  409.97   31.31
   1   5 -10  117.83   15.38
   1   5 -10  142.17   17.46
  -1  -5  10  106.61   12.44
   1   5  -9    5.90    4.38
  -1  -5   9    2.08    1.91
  -1  -5   9    5.41    1.29
   1   5  -9    0.11    2.89
   1   5  -8  244.52   21.04
  -1  -5   8  240.42   18.39
  -1  -5   8  223.68    8.43
   1   5  -8  245.12   20.73
   1   5  -7   18.48    6.25
  -1  -5   7   11.10    4.96
  -1  -5   7   17.69    5.20
   1   5  -7   14.73    4.40
  -1  -5   7   21.31    4.98
  -1  -5   6  130.94   14.92
   1   5  -6  142.57   14.38
  -1  -5   6  145.25   12.50
  -1  -5   6  141.28   13.14
   1   5  -6  147.98   15.28
   1   5  -5  129.76    6.94
  -1  -5   5  136.69   12.73
  -1  -5   5  134.77   11.62
  -1  -5   5  121.06   13.55
   1   5  -5  148.78   14.15
   1   5  -5  138.07   13.30
   1   5  -5  149.25   15.17
   1   5  -4    7.05    3.23
   1   5  -4    5.29    1.85
  -1  -5   4    3.76    1.06
  -1  -5   4    5.67    2.78
   1   5  -4    2.24    2.59
   1   5  -4    5.75    3.06
  -1  -5   4    2.74    1.23
  -1  -5   3  183.20   10.70
   1   5  -3  190.13   15.15
   1   5  -3  172.32   15.09
   1   5  -3  159.06   11.16
  -1  -5   3  163.70   13.26
   1   5  -3  178.94    9.16
  -1  -5   3  154.54   13.51
  -1  -5   3  176.84   14.60
  -1  -5   3  162.82   13.32
   1   5  -2  184.46   15.04
  -1  -5   2  172.23   14.48
   1   5  -2  153.06   12.07
  -1  -5   2  169.70   12.82
  -1  -5   2  174.67   13.84
   1   5  -2  176.21   14.53
   1   5  -2  167.66    9.61
  -1  -5   2  161.02   13.95
  -1  -5   2  198.19   12.72
   1   5  -1   20.29    4.33
  -1  -5   1   32.14    5.49
   1   5  -1   22.72    3.79
  -1  -5   1   33.16    6.58
  -1  -5   1   37.63    5.52
   1   5  -1   26.84    5.04
  -1  -5   1   34.30    6.37
   1   5  -1   24.50    5.72
  -1  -5   1   29.83    5.43
  -1  -5   0   62.91    7.76
  -1  -5   0   68.79    9.68
  -1  -5   0   70.07    7.79
  -1  -5   0   64.38    9.02
   1   5   0   55.80    7.49
  -1  -5   0   67.83    6.95
   1   5   0   56.64    7.56
   1   5   0   66.91    9.72
   1   5   0   49.75    7.32
  -1  -5  -1    8.72    3.30
  -1  -5  -1    8.11    2.16
   1   5   1   13.53    3.77
  -1  -5  -1   13.48    4.13
  -1  -5  -1    4.97    1.75
   1   5   1    7.13    2.87
   1   5   1    9.13    3.14
   1   5   1    0.74    2.35
  -1  -5  -1    7.61    3.45
  -1  -5  -2    6.24    3.04
   1   5   2    2.56    2.36
  -1  -5  -2    6.12    2.59
   1   5   2    7.29    2.60
  -1  -5  -2    4.23    2.57
   1   5   2    7.59    1.87
  -1  -5  -3  631.32   28.33
   1   5   3  623.06   23.58
  -1  -5  -3  644.16   30.25
   1   5   3  540.08   30.02
   1   5   3  595.24   19.45
   1   5   4  142.02    8.95
   1   5   4  132.02   11.59
  -1  -5  -4  119.52    9.89
   1   5   4  129.95   13.91
   1   5   4  127.81    7.63
  -1  -5  -4  122.72   11.51
  -1  -5  -4  125.58   12.96
   1   5   5  165.91   13.25
   1   5   5  140.92    7.69
   1   5   5  136.98   15.22
   1   5   5  167.28   12.76
  -1  -5  -5  151.76   13.02
  -1  -5  -5  147.99   14.82
  -1  -5  -5  133.15   10.03
   1   5   6   16.17    4.05
  -1  -5  -6    8.42    2.70
   1   5   6   19.76    5.04
   1   5   6   18.86    5.51
   1   5   6   16.72    1.77
  -1  -5  -6   14.38    3.02
  -1  -5  -7   22.05    3.60
  -1  -5  -7   18.02    5.86
   1   5   7   27.33    5.40
   1   5   7   22.94    6.84
   1   5   7   24.23    5.42
  -1  -5  -8   78.00   12.27
   1   5   8   68.21    9.02
  -1  -5  -8   67.17    6.15
  -1  -5  -9  779.01   38.29
  -1  -5  -9  842.79   45.19
   1   5   9  856.61   36.62
  -1  -5  -9  822.81   25.67
  -1  -5 -10   60.53   10.14
  -1  -5 -10   77.43    5.88
  -1  -5 -10   86.81   13.98
   1   5  10   74.94   10.27
   1   5  11  382.45   24.73
  -1  -5 -11  340.10   26.80
  -1  -5 -11  375.52   32.21
  -1  -5 -12   30.66    8.64
   1   5  12   33.34    7.67
  -1  -5 -12   34.32    8.66
  -1  -5 -13   18.79    7.83
  -1  -5 -13   43.03   11.64
   1   5  13   37.46    8.03
  -1  -5 -14  103.53   17.01
  -1  -5 -14   90.40   18.34
   1   5  14   91.75   13.16
  -1  -5 -15  265.61   29.39
  -1  -5 -15  274.33   32.76
   1   6 -13   71.52   13.95
  -1  -6  13   42.76   10.50
   1   6 -12   65.61   12.25
  -1  -6  12   67.65   12.10
   1   6 -12   82.62   15.21
   1   6 -11  301.63   27.37
  -1  -6  11  256.66   22.55
   1   6 -11  277.44   26.11
   1   6 -10  199.97   21.29
  -1  -6  10  191.60   18.77
   1   6 -10  190.54   20.81
   1   6  -9  131.43   17.05
  -1  -6   9  120.34   14.25
   1   6  -9  146.93   17.15
   1   6  -8  523.60   33.99
   1   6  -8  532.60   32.36
  -1  -6   8  486.05   29.20
   1   6  -7  184.63   17.80
   1   6  -7  167.66   18.09
  -1  -6   7  189.90   17.13
  -1  -6   6  378.29   26.14
   1   6  -6  402.99   25.46
   1   6  -6  395.63   27.48
  -1  -6   6  360.62   23.74
   1   6  -6  353.51   12.04
   1   6  -6  338.13   11.76
  -1  -6   6  324.95   21.29
   1   6  -5 1035.04   42.35
   1   6  -5  918.24   29.75
  -1  -6   5 1009.71   43.54
   1   6  -5 1094.29   47.03
  -1  -6   5  959.23   41.10
  -1  -6   5  948.53   38.88
  -1  -6   4   71.29    9.48
  -1  -6   4   63.37    8.86
   1   6  -4   59.56    9.57
   1   6  -4   60.79    6.87
   1   6  -4   67.53    9.52
  -1  -6   4   59.44    9.21
   1   6  -4   71.49   10.67
  -1  -6   4   65.23    6.05
  -1  -6   4   57.16    8.79
   1   6  -3  983.54   30.03
  -1  -6   3 1079.02   39.29
   1   6  -3 1061.06   44.68
   1   6  -3 1209.01   43.99
  -1  -6   3 1134.81   35.79
   1   6  -3 1030.41   44.30
  -1  -6   3  982.13   41.60
  -1  -6   3 1028.15   42.86
   1   6  -3  919.74   35.66
  -1  -6   2  780.39   37.47
  -1  -6   2  913.11   40.26
  -1  -6   2  914.00   33.56
  -1  -6   2  855.23   34.38
  -1  -6   2  969.46   34.28
   1   6  -2  869.25   38.99
   1   6  -2  821.47   38.97
   1   6  -2  753.04   32.83
   1   6  -2  776.47   27.40
   1   6  -2  955.63   39.75
   1   6  -1    7.11    3.23
  -1  -6   1    9.00    3.06
   1   6  -1    4.67    2.30
  -1  -6   1   10.17    2.96
  -1  -6   1   10.96    3.36
  -1  -6   1   11.20    3.09
  -1  -6   1   11.79    4.29
   1   6  -1    6.55    3.09
   1   6   0  221.48   17.01
  -1  -6   0  239.70   19.37
  -1  -6   0  229.88   16.73
  -1  -6   0  248.52   13.66
   1   6   0  238.66   19.29
   1   6   0  171.52   15.85
  -1  -6   0  256.67   20.43
  -1  -6   0  213.20   14.14
   1   6   1  237.30   16.61
  -1  -6  -1  282.66   21.07
   1   6   1  269.57   20.50
   1   6   1  217.76   18.53
  -1  -6  -1  243.29   18.02
  -1  -6  -1  286.49   21.00
  -1  -6  -1  245.20   14.95
   1   6   2   26.73    6.32
   1   6   2   38.09    7.56
  -1  -6  -2   29.24    6.62
  -1  -6  -2   39.75    7.51
  -1  -6  -2   31.95    6.37
   1   6   2   40.60    6.22
   1   6   2   36.53    7.50
   1   6   3 1134.52   49.39
   1   6   3 1198.93   46.55
   1   6   3 1152.88   31.63
  -1  -6  -3 1192.80   47.30
  -1  -6  -3 1233.92   46.82
   1   6   3 1160.49   46.60
   1   6   3 1218.89   39.86
  -1  -6  -4  218.11   15.43
   1   6   4  242.48   21.12
   1   6   4  232.54   10.90
  -1  -6  -4  249.99   20.02
   1   6   4  259.13   18.54
   1   6   4  243.23   18.37
   1   6   4  271.41   14.78
  -1  -6  -4  259.80   18.96
   1   6   5  239.41   12.26
   1   6   5  226.93   17.01
  -1  -6  -5  206.13   14.44
   1   6   5  207.50   16.77
  -1  -6  -5  230.01   17.81
   1   6   5  204.51   10.49
   1   6   5  214.85   20.60
  -1  -6  -5  185.24   17.81
   1   6   6   60.39    9.03
   1   6   6   72.45    9.28
  -1  -6  -6   43.36    6.05
   1   6   6   63.91    4.99
  -1  -6  -6   49.72    9.37
  -1  -6  -7   -3.34    4.00
  -1  -6  -7   -1.97    1.54
   1   6   7    1.74    2.49
  -1  -6  -8   21.15    6.92
   1   6   8   17.53    5.26
  -1  -6  -8   20.24    3.91
   1   6   9  352.46   23.54
  -1  -6  -9  348.62   29.15
  -1  -6  -9  315.47   15.39
  -1  -6  -9  340.56   24.12
  -1  -6 -10    8.84    4.45
  -1  -6 -10    5.55    1.52
  -1  -6 -10    7.89    3.40
   1   6  10   10.38    5.54
  -1  -6 -11   84.68   13.04
   1   6  11   80.25   11.77
  -1  -6 -11   84.22   15.47
   1   6  12   43.96    8.85
  -1  -6 -12   42.23   10.19
  -1  -6 -12   29.13    9.57
   1   6  13   10.61    4.70
  -1  -6 -13   17.92    9.30
  -1  -6 -13   19.78    7.93
  -1  -6 -14   23.62    7.88
  -1  -6 -14   37.39   12.51
  -1  -6 -15   65.61   14.54
  -1  -7  13    4.07    3.53
   1   7 -12   29.95    9.08
  -1  -7  11   44.55    9.94
   1   7 -11   65.00   13.66
   1   7 -11   76.14   13.84
  -1  -7  10   21.80    7.03
   1   7 -10   20.60    7.91
   1   7 -10   18.63    6.74
  -1  -7   9    8.67    4.76
   1   7  -9    0.23    2.56
   1   7  -9    5.74    5.27
   1   7  -8   91.96   14.43
   1   7  -8   95.27   13.68
  -1  -7   8   78.71   12.29
   1   7  -7    8.09    4.60
   1   7  -7    2.29    2.83
  -1  -7   7    2.54    2.65
   1   7  -6   50.16   10.25
  -1  -7   6   50.84    8.85
   1   7  -6   58.25    9.96
   1   7  -6   52.03    5.24
  -1  -7   6   50.89    9.62
  -1  -7   5  200.46   18.36
   1   7  -5  215.40   18.26
  -1  -7   5  214.48   17.30
   1   7  -5  262.57   22.46
  -1  -7   5  187.89   10.39
  -1  -7   5  190.35   17.48
   1   7  -5  197.51   12.84
  -1  -7   5  201.81   18.07
   1   7  -4   13.62    5.72
   1   7  -4    8.17    3.22
   1   7  -4    6.52    2.51
  -1  -7   4    0.86    3.15
  -1  -7   4    5.51    1.84
  -1  -7   4    8.36    3.32
  -1  -7   4    7.47    3.93
  -1  -7   4   10.42    3.89
  -1  -7   3  844.31   34.10
  -1  -7   3  913.94   33.63
   1   7  -3  775.08   26.37
   1   7  -3  768.35   33.60
  -1  -7   3  849.27   35.76
  -1  -7   3  776.84   39.63
   1   7  -3  932.04   42.33
  -1  -7   3  784.72   39.17
   1   7  -2  459.37   20.89
   1   7  -2  491.37   27.14
  -1  -7   2  507.76   31.10
  -1  -7   2  584.15   25.77
   1   7  -2  578.69   33.14
  -1  -7   2  603.98   33.61
  -1  -7   2  600.74   27.46
   1   7  -2  581.31   31.89
   1   7  -1   15.53    4.61
   1   7  -1   15.31    5.28
  -1  -7   1   20.21    5.03
  -1  -7   1   19.84    4.48
   1   7  -1    6.56    3.24
  -1  -7   1   22.70    6.62
   1   7  -1   16.45    3.86
  -1  -7   1   12.33    5.47
  -1  -7   1   11.24    3.08
  -1  -7   0  363.04   16.20
   1   7   0  292.15   22.31
  -1  -7   0  410.70   27.44
  -1  -7   0  336.79   18.48
  -1  -7   0  358.06   25.40
   1   7   0  383.13   26.70
  -1  -7   0  351.43   22.23
   1   7   0  341.70   25.99
   1   7   0  345.27   23.04
   1   7   1  483.29   29.66
   1   7   1  473.03   25.99
   1   7   1  396.24   27.21
  -1  -7  -1  501.81   30.43
  -1  -7  -1  424.41   20.86
   1   7   1  504.14   31.56
  -1  -7  -1  473.10   26.66
  -1  -7  -1  458.20   29.11
   1   7   2   85.44   12.04
   1   7   2   71.91   11.45
  -1  -7  -2   72.17   10.94
  -1  -7  -2   83.21    8.30
   1   7   2   73.04    9.33
  -1  -7  -2   72.13   10.54
   1   7   2   79.92   12.18
  -1  -7  -2   75.78   11.25
   1   7   3 2728.10   73.21
   1   7   3 2371.63   81.96
   1   7   3 2439.10   84.91
  -1  -7  -3 2444.61   80.59
   1   7   3 2658.78   82.11
  -1  -7  -3 2412.01   80.19
   1   7   4  367.84   19.42
  -1  -7  -4  378.67   25.26
   1   7   4  330.99   24.06
  -1  -7  -4  333.66   24.33
  -1  -7  -4  278.71   19.78
   1   7   4  304.81   12.15
   1   7   5  232.03   11.02
   1   7   5  258.36   14.63
  -1  -7  -5  211.06   16.36
  -1  -7  -5  240.07   21.45
   1   7   5  247.91   20.28
   1   7   6  245.90   20.22
   1   7   6  251.74   12.23
   1   7   6  290.32   13.81
  -1  -7  -6  279.99   23.76
  -1  -7  -7   -1.36    2.33
  -1  -7  -7    1.80    2.00
   1   7   7   -0.03    2.05
   1   7   7    2.20    1.03
  -1  -7  -8  145.96   11.90
  -1  -7  -8  174.85   20.24
   1   7   8  189.16   17.68
  -1  -7  -9  953.98   51.70
  -1  -7  -9  798.66   30.39
   1   7   9  869.33   41.57
  -1  -7  -9  875.72   40.27
  -1  -7 -10    2.90    3.02
  -1  -7 -10    1.44    3.05
   1   7  10    5.47    4.17
  -1  -7 -11  334.04   26.13
   1   7  11  290.27   23.92
  -1  -7 -11  357.30   32.86
  -1  -7 -12   -3.27    4.24
   1   7  12    3.88    4.14
  -1  -7 -12    3.33    2.82
  -1  -7 -13   20.77    8.26
  -1  -7 -13   28.83   10.08
   1   7  13   29.60    8.08
  -1  -7 -14   51.30   12.01
   1   8 -11   98.35   15.83
  -1  -8  10   16.57    6.76
   1   8 -10   33.12    9.26
   1   8 -10   21.98    7.35
   1   8  -9   44.98   11.37
  -1  -8   9   52.66   10.73
   1   8  -9   64.23   11.69
  -1  -8   8   54.71   10.98
   1   8  -8   62.35   12.12
   1   8  -8   71.14   12.31
   1   8  -7   -3.47    4.76
  -1  -8   7   -3.02    3.69
   1   8  -7    4.32    2.74
   1   8  -6   -2.05    2.47
  -1  -8   6    3.91    3.34
   1   8  -6   -0.31    4.03
   1   8  -5   29.42    5.26
  -1  -8   5   25.69    6.20
  -1  -8   5   27.85    4.32
   1   8  -5   32.34    8.48
  -1  -8   5   34.79    6.93
  -1  -8   5   18.08    5.46
   1   8  -5   37.25    7.63
   1   8  -4   -0.14    3.04
  -1  -8   4    3.73    1.85
  -1  -8   4    0.73    3.56
   1   8  -4    2.58    1.52
  -1  -8   4    7.24    3.49
  -1  -8   4    4.37    2.38
  -1  -8   3  156.50   14.11
   1   8  -3  140.73   13.97
  -1  -8   3  145.81   17.03
   1   8  -3  185.03   18.71
  -1  -8   3  186.32   14.50
   1   8  -3  149.55   10.06
  -1  -8   3  184.02   14.30
  -1  -8   2   23.32    5.42
  -1  -8   2   23.69    4.88
   1   8  -2   19.18    5.73
   1   8  -2   13.63    3.48
  -1  -8   2   12.12    5.14
   1   8  -2   12.36    4.67
   1   8  -2   11.18    4.24
   1   8  -1   32.81    7.52
  -1  -8   1   43.55    7.65
   1   8  -1   53.24   10.91
  -1  -8   1   25.08    7.04
   1   8  -1   37.82    6.14
  -1  -8   1   41.97    5.44
   1   8  -1   31.82    7.20
  -1  -8   0   68.54    5.87
   1   8   0   78.26   12.67
   1   8   0   78.03   11.14
  -1  -8   0   80.67   10.91
  -1  -8   0   72.46   12.02
  -1  -8   0   75.40    8.15
  -1  -8   0   92.08   13.35
   1   8   0   60.06   10.36
  -1  -8  -1    2.41    2.93
   1   8   1    2.31    2.85
  -1  -8  -1    1.80    1.12
   1   8   1    3.22    2.45
  -1  -8  -1    3.61    3.39
  -1  -8  -2   18.05    3.66
  -1  -8  -2   14.44    5.17
   1   8   2   14.27    5.84
   1   8   2   22.13    5.80
  -1  -8  -2   27.69    6.95
  -1  -8  -3  671.28   27.37
  -1  -8  -3  719.97   37.58
   1   8   3  792.56   34.05
   1   8   3  681.60   39.38
  -1  -8  -4   37.57    8.51
   1   8   4   23.13    6.84
  -1  -8  -4   23.35    5.98
   1   8   4   27.24    5.48
   1   8   5  174.79    7.32
   1   8   5  219.70   21.22
   1   8   5  219.74   14.93
  -1  -8  -5  155.94   15.35
  -1  -8  -5  183.35   19.15
  -1  -8  -6    3.57    2.98
   1   8   6    2.66    4.26
   1   8   6    4.10    1.50
   1   8   6    2.04    1.41
  -1  -8  -6   -2.99    3.91
   1   8   7   29.69    4.06
  -1  -8  -7   23.84    5.68
   1   8   7   17.99    4.81
  -1  -8  -7   34.61    9.26
   1   8   7   25.06    3.38
  -1  -8  -8  116.94   11.67
  -1  -8  -8  134.54   18.41
   1   8   8  141.47   16.53
   1   8   8  136.18    9.37
  -1  -8  -9  727.69   35.28
   1   8   9  666.55   25.58
   1   8   9  694.49   39.41
  -1  -8 -10    0.44    2.44
  -1  -8 -10    3.29    3.09
   1   8  10    0.11    3.72
  -1  -8 -11  262.85   22.69
  -1  -8 -11  286.50   29.94
   1   8  11  265.58   23.97
  -1  -8 -12   43.80   12.14
  -1  -8 -12   46.60   10.08
   1   8  12   35.91    8.41
   1   9 -10   89.07   15.13
   1   9  -9  135.99   17.60
  -1  -9   8  303.20   27.51
   1   9  -8  336.51   27.29
   1   9  -8  385.33   32.07
   1   9  -7   38.34   10.34
   1   9  -7   25.61    7.08
  -1  -9   7   35.95    8.97
   1   9  -6  117.90   16.68
  -1  -9   6  116.70   16.52
  -1  -9   5  362.12   29.79
   1   9  -5  501.95   33.59
   1   9  -4    2.55    3.65
  -1  -9   4    1.31    4.02
  -1  -9   4   -1.30    1.38
  -1  -9   3  629.11   31.18
  -1  -9   3  723.63   42.17
   1   9  -3  789.88   26.12
   1   9  -3  852.26   43.91
   1   9  -3  630.96   33.78
  -1  -9   3  801.06   34.72
   1   9  -2  144.63   11.35
  -1  -9   2  134.05   12.33
  -1  -9   2  144.99   17.75
   1   9  -2  164.88   19.48
   1   9  -2  143.52   15.75
   1   9  -2  164.71   17.93
  -1  -9   2  165.49   15.34
  -1  -9   1   19.29    5.51
   1   9  -1   30.49    7.39
   1   9  -1   15.24    4.14
  -1  -9   1   18.56    6.21
   1   9  -1   24.14    8.01
  -1  -9   1   18.92    3.43
  -1  -9   0   27.86    6.72
   1   9   0   27.80    7.12
   1   9   0   17.09    6.98
  -1  -9   0   18.87    4.28
  -1  -9   0   20.32    7.21
  -1  -9  -1   40.49    5.64
  -1  -9  -1   46.94    9.31
  -1  -9  -1   49.15   10.53
   1   9   1   44.67   10.06
   1   9   1   53.42    9.32
   1   9   2   97.76   14.54
  -1  -9  -2   59.79    6.80
  -1  -9  -2   87.53   13.73
  -1  -9  -2   69.82   11.11
   1   9   2   75.93   11.18
   1   9   3  451.62   32.87
  -1  -9  -3  466.58   30.54
   1   9   3  497.39   27.62
  -1  -9  -3  459.01   20.70
   1   9   4   -1.00    3.25
  -1  -9  -4   -1.91    3.95
  -1  -9  -4   -1.71    2.11
   1   9   4   -1.21    1.97
   1   9   5   69.91    8.91
  -1  -9  -5   77.14   13.32
   1   9   5   68.02   12.10
  -1  -9  -6   60.06   11.56
   1   9   6   70.12   12.95
   1   9   6   66.70    8.14
  -1  -9  -7   15.69    6.55
   1   9   7   -1.80    2.87
   1   9   8   17.76    3.89
  -1  -9  -8   25.67    5.71
  -1  -9  -8   34.94   10.04
  -1  -9  -9   94.86   16.53
   1   9   9   93.85   14.61
  -1  -9 -10   23.26    7.75
   1   9  10    3.65    2.83
   1  10  -6   70.38   13.13
  -1 -10   6   43.77   10.10
  -1 -10   5  226.21   24.34
   1  10  -5  301.72   27.08
   1  10  -4   -0.97    2.98
  -1 -10   4    3.01    4.68
   1  10  -3  844.60   45.31
  -1 -10   3  775.61   45.63
  -1 -10   3  776.02   36.46
  -1 -10   2  350.87   24.16
   1  10  -2  367.91   28.22
   1  10  -2  412.18   32.12
  -1 -10   2  350.67   29.36
   1  10  -1   32.99    9.80
   1  10  -1   17.58    5.33
   1  10  -1   20.62    4.80
  -1 -10   1   27.95    6.46
  -1 -10   1   32.79    9.38
   1  10   0  207.53   22.33
   1  10   0  188.39   15.70
   1  10   0  201.25   19.47
  -1 -10   0  212.98   22.32
  -1 -10   0  184.79   18.16
   1  10   1  376.73   26.90
  -1 -10  -1  382.82   30.79
  -1 -10  -1  366.87   26.71
   1  10   1  418.88   32.15
  -1 -10  -2  129.02   15.95
   1  10   2   94.70   12.56
   1  10   2  122.99   17.17
   1  10   3 1272.59   50.94
  -1 -10  -3 1267.11   56.38
   1  10   3 1353.77   62.25
  -1 -10  -4   57.73   11.29
   1  10   4   87.67   11.17
   1  10   4   97.06   15.85
  -1 -10  -5  201.43   21.48
   1  10   5  217.00   17.10
   1  10   5  210.60   23.45
  -1 -10  -6   86.06   14.58
   1  10   6   66.29   12.38
   1  10   7   12.79    5.38
  -1 -10  -7   16.06    6.65
  -1 -10  -8  121.37   17.79
   1  10   8  106.11   17.19
   1  10   9  275.46   27.90
   1  11  -4   14.81    6.47
   1  11  -3  183.69   20.69
  -1 -11   3  183.97   22.28
  -1 -11   2    1.98    3.74
   1  11  -2    6.39    4.43
   1  11  -2   -1.54    5.14
  -1 -11   1   18.32    6.41
  -1 -11   1   21.83    8.72
   1  11  -1   21.42    7.05
   1  11  -1   18.56    7.81
  -1 -11   0   -0.88    2.61
   1  11   0    1.47    4.00
  -1 -11   0    3.26    5.28
   1  11   0    2.19    4.45
   1  11   1   17.49    5.67
  -1 -11  -1   38.16    9.84
   1  11   1   34.44    9.24
  -1 -11  -1   16.83    5.18
   1  11   2   71.26   12.96
  -1 -11  -2   52.71   10.36
   1  11   2   61.21   10.53
  -1 -11  -3  464.38   33.14
   1  11   3  531.68   31.60
   1  11   3  524.15   38.38
   1  11   4    8.08    4.46
  -1 -11  -4    6.27    5.42
   1  11   4    2.86    4.45
  -1 -11  -5   93.51   15.72
   1  11   5  107.57   17.43
   1  11   6   63.76   14.36
  -1 -11  -6   67.07   13.87
   1  11   7   15.70    7.48
   1  12  -1   15.54    4.97
   1  12  -1    8.47    6.01
   1  12   0    5.84    4.57
   1  12   0    9.21    5.46
  -1 -12   0    2.60    2.96
   1  12   1    8.22    3.94
  -1 -12  -1    2.10    3.04
   1  12   1   14.44    6.28
  -1 -12  -2   52.76   10.56
   1  12   2   45.92    9.68
   1  12   2   49.84   11.07
  -1 -12  -3   90.18   14.44
   1  12   3   83.74   15.00
  -1 -12  -4   19.12    7.92
   1  12   4   35.57   10.34
  -2  12   2    1.23    2.30
  -2  12   1   28.05    7.23
   2 -12  -1   10.01    6.38
   2 -12   0   65.46   13.26
  -2  12   0   64.28   11.50
   2 -12   1   85.53   14.26
  -2  12  -1   87.54   13.45
   2 -12   2  223.77   22.27
  -2  11   4  170.91   23.06
   2 -11  -4  165.14   21.46
  -2  11   3   39.99   11.57
  -2  11   3   25.37    6.28
   2 -11  -3   31.72    9.20
  -2  11   2    6.33    7.45
   2 -11  -2    7.16    5.11
  -2  11   2    2.77    2.40
   2 -11  -1    5.28    4.12
  -2  11   1    8.16    4.57
  -2  11   1   10.68    5.80
  -2  11   0   54.02   12.57
   2 -11   0   41.69    9.10
  -2  11   0   47.61    9.31
  -2  11  -1    3.92    4.16
   2 -11   1    1.76    3.65
  -2  11  -1    2.93    5.39
  -2  11  -2   61.22   14.10
   2 -11   2   54.27   10.64
   2 -11   2   60.77   12.72
  -2  11  -2   52.42   10.12
   2 -11   3   16.82    5.51
   2 -11   3   15.22    7.84
  -2  11  -3    1.20    5.62
   2 -11   4   14.13    6.70
  -2  11  -4    9.64    5.39
   2 -11   4    4.49    3.66
   2 -10  -7  172.95   22.75
  -2  10   7  140.38   20.74
   2 -10  -6  222.91   25.36
  -2  10   6  173.22   23.19
  -2  10   5  140.65   13.80
   2 -10  -5  139.83   19.13
  -2  10   5  159.95   22.19
  -2  10   4  750.67   48.45
   2 -10  -4  821.99   48.31
   2 -10  -3   94.20   15.31
  -2  10   3   98.93   16.60
  -2  10   2  153.97   21.13
   2 -10  -2  157.88   19.03
   2 -10  -1  441.93   32.15
  -2  10   1  451.81   36.60
  -2  10   0   13.35    5.89
   2 -10   0   13.87    5.41
   2 -10   1  303.82   25.38
  -2  10  -1  348.70   31.86
   2 -10   1  261.26   25.57
   2 -10   2  339.35   28.87
  -2  10  -2  399.82   34.64
   2 -10   2  361.93   27.30
   2 -10   3    3.94    4.53
  -2  10  -3    2.61    3.02
   2 -10   3   -5.40    3.64
   2 -10   4  144.44   16.10
  -2  10  -4  139.91   17.15
   2 -10   4  130.76   17.49
   2 -10   5  166.12   16.84
  -2  10  -5  163.61   18.66
   2 -10   5  145.92   19.09
   2 -10   6    9.74    6.62
  -2  10  -6    7.30    2.53
  -2  10  -6    3.84    2.82
   2 -10   7   34.60   10.27
  -2  10  -7   25.35    7.55
   2 -10   7   41.70   10.53
   2  -9  -9   25.25    9.36
  -2   9   9   13.93    6.95
   2  -9  -8   50.67   12.32
  -2   9   8   48.49   11.85
  -2   9   7    4.91    4.57
   2  -9  -7    3.02    5.31
   2  -9  -6   76.45   10.47
  -2   9   6   85.01   15.03
   2  -9  -6   89.14   15.88
   2  -9  -5   16.99    7.03
  -2   9   5   14.16    6.60
   2  -9  -4  320.54   28.18
  -2   9   4  292.31   28.08
   2  -9  -3   40.33    9.93
  -2   9   3   33.75    9.21
  -2   9   2   30.75    9.68
   2  -9  -2   33.16    7.83
   2  -9  -1  256.07   23.32
  -2   9   1  299.95   28.55
   2  -9   0   25.79    7.34
  -2   9   0   29.73    9.04
  -2   9  -1  452.97   35.42
   2  -9   1  403.87   30.39
   2  -9   2  440.12   31.98
  -2   9  -2  510.42   37.64
  -2   9  -2  424.95   20.46
   2  -9   2  432.39   28.69
   2  -9   3    2.56    2.96
  -2   9  -3   -1.06    3.24
   2  -9   4  642.39   34.59
   2  -9   4  668.39   40.02
   2  -9   5  380.77   25.31
   2  -9   5  417.34   31.67
  -2   9  -5  483.28   31.92
  -2   9  -5  444.32   22.84
  -2   9  -6   86.65   10.00
  -2   9  -6   70.42   10.64
   2  -9   6   86.71   14.58
   2  -9   6   82.13   10.76
  -2   9  -6   96.16   14.29
   2  -9   7  394.26   31.48
  -2   9  -7  427.68   31.47
  -2   9  -7  361.83   24.24
  -2   9  -7  431.61   25.02
   2  -9   8   51.76   12.31
   2  -9   8   45.60   10.39
  -2   9  -8   58.38   10.98
  -2   9  -8   44.84    8.17
  -2   9  -9   96.12   15.24
   2  -9   9   59.27   12.34
   2  -9   9   57.80   12.72
  -2   8  10  226.26   23.78
   2  -8 -10  238.21   27.80
   2  -8  -9   82.68   16.39
  -2   8   9   63.37   12.41
   2  -8  -8   31.61   10.77
  -2   8   8   11.27    4.32
   2  -8  -7   57.12   12.86
  -2   8   7   54.80   10.89
   2  -8  -6   49.69    3.97
  -2   8   6   55.25   11.38
   2  -8  -5   25.31    7.90
  -2   8   5   23.64    8.17
  -2   8   4  127.49   17.33
   2  -8  -4  156.42   18.74
   2  -8  -3  104.06   15.30
  -2   8   3   82.11   13.90
  -2   8   2    7.13    5.31
   2  -8  -2    8.63    4.53
   2  -8  -1   30.15    7.71
  -2   8   1   36.50    9.75
  -2   8   0   38.08    9.72
   2  -8   0   42.31    9.42
   2  -8   1    4.88    3.00
   2  -8   1    1.98    3.66
  -2   8  -1    7.12    4.76
   2  -8   2   27.33    6.25
  -2   8  -2   27.48    4.63
  -2   8  -2   26.22    6.65
   2  -8   2   31.84    2.86
   2  -8   2   38.97    8.86
  -2   8  -2   30.96    9.81
   2  -8   2   34.33    2.77
  -2   8  -3   40.81    4.80
  -2   8  -3   47.21   11.93
  -2   8  -3   18.58    5.44
   2  -8   3   45.32    8.20
   2  -8   3   44.03    9.88
   2  -8   4   86.41   13.56
  -2   8  -4   59.86    9.35
   2  -8   4   81.90   11.08
  -2   8  -4   77.61    8.08
  -2   8  -4   63.36   12.41
  -2   8  -5  188.00   13.61
   2  -8   5  178.53   18.92
   2  -8   5  157.99   14.84
  -2   8  -5  152.86   14.64
  -2   8  -6   15.09    4.38
  -2   8  -6   17.05    4.84
   2  -8   6   16.37    5.62
  -2   8  -6   18.28    4.50
   2  -8   7   74.86   12.60
  -2   8  -7   96.91   14.04
  -2   8  -7   82.43   10.17
  -2   8  -7   84.26   10.19
  -2   8  -8   -4.65    4.85
  -2   8  -8    1.04    1.75
   2  -8   8   -2.58    5.16
  -2   8  -8    1.20    1.92
   2  -8   8   -1.44    3.83
   2  -8   9    8.12    4.03
  -2   8  -9   13.96    5.30
  -2   8  -9   27.04    6.51
   2  -8   9   16.91    6.54
   2  -8  10  306.93   27.15
  -2   8 -10  369.51   26.27
   2  -8  10  261.10   27.46
  -2   8 -10  343.94   29.71
  -2   8 -11  171.93   20.99
  -2   8 -11  149.42   17.15
   2  -8  11  140.87   18.69
   2  -8  11  131.03   19.58
  -2   8 -12  162.91   18.98
   2  -7 -12  119.61   20.29
  -2   7  11   34.05    8.92
   2  -7 -11   20.70    9.21
   2  -7 -10  545.27   42.74
  -2   7  10  440.34   32.45
   2  -7 -10  491.35   29.79
   2  -7  -9  219.66   26.64
  -2   7   9  184.15   19.82
   2  -7  -9  187.70   16.49
   2  -7  -8   17.99    4.43
   2  -7  -8   17.64    8.52
   2  -7  -8   14.33    2.27
  -2   7   8   19.88    6.76
   2  -7  -7  307.78   14.87
  -2   7   7  296.42   15.41
   2  -7  -7  277.60   14.83
  -2   7   7  325.92   25.89
   2  -7  -7  324.97   18.09
   2  -7  -6  220.29   23.20
  -2   7   6  194.73   10.15
  -2   7   6  201.22   19.92
   2  -7  -6  181.48   12.63
   2  -7  -6  199.64   11.97
  -2   7   5  404.05   29.59
   2  -7  -5  407.41   14.61
   2  -7  -4 1090.75   51.94
  -2   7   4  905.98   47.62
  -2   7   3   83.04   13.15
   2  -7  -3  118.50   15.67
  -2   7   2  363.35   28.81
   2  -7  -2  386.91   27.99
  -2   7   1  643.69   39.35
  -2   7   1  581.98   34.28
   2  -7  -1  656.30   36.27
   2  -7   0   -1.06    2.26
   2  -7   0   -0.12    2.15
  -2   7   0    1.52    2.13
  -2   7   0   -2.62    2.61
   2  -7   1  241.17   20.05
   2  -7   1  250.08   21.14
  -2   7  -1  256.85   24.86
  -2   7  -1  235.64   19.21
  -2   7  -2  181.53   20.65
  -2   7  -2  158.35   14.98
  -2   7  -2  160.77   10.89
   2  -7   2  149.31   14.82
   2  -7   2  171.74   17.65
  -2   7  -3   17.52    6.42
   2  -7   3    8.78    2.56
  -2   7  -3   23.06    3.62
  -2   7  -3   21.31    3.63
   2  -7   3   19.49    6.50
  -2   7  -3   16.97    4.88
   2  -7   4  351.05   21.84
   2  -7   4  390.33   27.37
  -2   7  -4  371.71   29.06
  -2   7  -4  346.34   21.57
  -2   7  -4  401.73   18.65
  -2   7  -5  345.47   18.45
   2  -7   5  304.33   24.32
  -2   7  -5  318.95   19.72
   2  -7   5  327.53   20.08
  -2   7  -6    7.13    2.96
  -2   7  -6    8.17    3.96
  -2   7  -6    7.64    2.77
   2  -7   6   13.90    4.80
  -2   7  -7    3.95    2.14
  -2   7  -7    7.92    3.32
  -2   7  -8    3.20    2.70
   2  -7   8   -2.62    4.08
  -2   7  -8    0.53    1.36
  -2   7  -8    3.38    3.43
  -2   7  -9    8.69    3.71
  -2   7  -9    8.41    5.39
   2  -7   9    3.19    2.65
   2  -7   9    2.78    2.69
  -2   7  -9    7.47    2.53
  -2   7 -10  109.35   13.48
  -2   7 -10  123.05   17.10
   2  -7  10  110.01   14.75
   2  -7  10   88.52   14.56
   2  -7  11   80.34   14.13
  -2   7 -11  102.24   14.16
  -2   7 -11  110.23   16.61
   2  -7  11   62.89   11.47
   2  -7  12   26.54    9.53
  -2   7 -12   33.04    8.08
  -2   7 -12   25.19    8.10
   2  -7  12   20.05    7.05
  -2   7 -13    5.71    5.05
   2  -7  13    6.14    4.98
   2  -6 -13   -4.54    5.39
   2  -6 -13   -0.22    4.65
   2  -6 -12  107.93   20.01
   2  -6 -12   93.95   15.26
  -2   6  12   87.04   13.49
   2  -6 -11   20.40   10.67
   2  -6 -11   10.60    6.24
  -2   6  11    3.15    3.54
  -2   6  10   71.84   12.06
   2  -6 -10   65.58   11.55
   2  -6 -10   84.88   16.75
   2  -6  -9  129.47   19.24
   2  -6  -9  106.24   13.15
  -2   6   9   98.49   13.35
   2  -6  -8   35.80    6.73
  -2   6   8   27.48    6.93
  -2   6   8   38.44    4.23
  -2   6   7   93.59   12.53
   2  -6  -7   75.45    5.46
  -2   6   7   82.31    6.66
  -2   6   7   72.10    8.53
   2  -6  -7   78.71    5.31
   2  -6  -7   71.58    8.95
   2  -6  -6   78.57   13.83
   2  -6  -6   73.49    6.49
  -2   6   6   63.27    6.96
  -2   6   6   64.82    9.90
   2  -6  -6   87.87    8.78
  -2   6   5  104.60    7.67
   2  -6  -5  122.41   16.55
   2  -6  -5  115.51    9.17
  -2   6   5  101.25   12.84
   2  -6  -5  126.45    9.19
   2  -6  -4  631.99   19.38
  -2   6   4  610.59   17.78
  -2   6   4  572.61   33.47
  -2   6   3   88.72   10.66
  -2   6   3   78.05   12.21
   2  -6  -3   92.83   13.03
   2  -6  -3   80.25   12.14
  -2   6   3  107.84   14.22
   2  -6  -2  606.02   34.71
   2  -6  -2  564.02   34.90
  -2   6   2  569.95   35.10
  -2   6   2  567.31   29.66
  -2   6   2  634.66   35.13
   2  -6  -1 1120.13   51.77
  -2   6   1 1094.83   50.64
  -2   6   1  983.08   42.28
  -2   6   1  928.22   43.05
   2  -6  -1  975.59   44.37
  -2   6   0    3.04    3.23
   2  -6   0    5.46    3.19
  -2   6   0    5.34    4.28
   2  -6   0   -0.58    1.89
  -2   6   0   -2.83    3.69
   2  -6   0   10.30    3.45
   2  -6   1  732.77   35.36
   2  -6   1  765.32   37.44
  -2   6  -1  850.32   40.39
   2  -6   1  907.87   45.37
  -2   6  -1  816.41   43.80
  -2   6  -1  680.01   33.60
   2  -6   1  856.53   22.33
   2  -6   2  579.89   35.21
   2  -6   2  539.00   28.15
  -2   6  -2  536.30   21.24
   2  -6   2  615.27   32.63
  -2   6  -2  645.26   34.75
  -2   6  -2  574.50   35.90
  -2   6  -2  626.10   19.77
  -2   6  -2  563.69   27.65
   2  -6   3   39.35    7.96
  -2   6  -3   32.83    4.07
   2  -6   3   23.77    5.25
  -2   6  -3   22.09    6.76
  -2   6  -3   31.61    7.70
  -2   6  -3   39.70    4.54
  -2   6  -3   30.88    5.75
   2  -6   3   29.99    7.32
  -2   6  -4 1611.54   44.08
   2  -6   4 1481.23   49.02
   2  -6   4 1496.62   56.81
  -2   6  -4 1428.01   47.31
  -2   6  -4 1563.56   58.74
   2  -6   4 1403.75   55.82
  -2   6  -5  681.00   27.95
   2  -6   5  678.99   28.60
  -2   6  -5  758.17   27.90
   2  -6   5  675.02   35.25
  -2   6  -5  678.50   35.94
   2  -6   6  354.83   24.20
  -2   6  -6  386.69   20.18
  -2   6  -6  353.17   18.46
  -2   6  -7  450.05   23.26
   2  -6   7  365.12   24.85
   2  -6   7  405.53   27.84
  -2   6  -7  385.43   18.93
  -2   6  -8   16.04    3.64
  -2   6  -8    6.03    2.56
   2  -6   8   12.36    4.80
   2  -6   8    3.51    2.52
  -2   6  -8   10.90    2.98
   2  -6   9   73.91   11.09
  -2   6  -9   78.34    7.58
   2  -6   9   65.03   11.33
  -2   6  -9   84.10   13.29
  -2   6  -9   78.56    7.51
  -2   6  -9   82.20   10.76
   2  -6  10  645.20   39.07
  -2   6 -10  793.23   43.51
  -2   6 -10  679.65   25.07
  -2   6 -10  785.12   37.74
   2  -6  10  733.30   37.84
  -2   6 -11   91.16   14.77
   2  -6  11   86.56   12.45
   2  -6  11   84.39   13.46
  -2   6 -11  103.28   13.48
  -2   6 -12  188.44   21.89
  -2   6 -12  196.23   20.04
   2  -6  12  148.34   18.59
   2  -6  12  187.93   19.30
   2  -6  13   12.41    5.77
  -2   6 -13   17.25    6.29
   2  -6  13   15.15    6.57
  -2   6 -13    5.31    4.43
   2  -6  14   26.93    8.07
  -2   6 -14   41.85   10.80
  -2   6 -14   31.78    8.98
   2  -5 -15  109.30   19.78
   2  -5 -14   21.55    8.11
   2  -5 -14   16.54    7.40
   2  -5 -13   37.53   10.30
   2  -5 -13   23.71    8.60
  -2   5  13   40.74    9.62
   2  -5 -12   87.31   15.38
   2  -5 -12   83.86   16.72
  -2   5  12   85.40   13.39
   2  -5 -11   36.92    9.36
  -2   5  11   46.77    9.40
   2  -5 -11   36.29   10.84
   2  -5 -10  188.76   23.60
  -2   5  10  203.05   18.90
   2  -5 -10  188.45   19.87
   2  -5  -9  104.45   16.73
  -2   5   9  104.32    6.88
  -2   5   9  108.17   13.32
   2  -5  -9  114.99   14.41
  -2   5   8   16.19    2.64
  -2   5   8   21.96    6.30
   2  -5  -8   19.95    6.26
   2  -5  -8   23.63    8.05
   2  -5  -7   43.78   10.70
  -2   5   7   25.94    3.46
   2  -5  -7   33.98    6.66
  -2   5   7   29.61    6.85
   2  -5  -6   31.33    3.07
   2  -5  -6   29.92    3.34
   2  -5  -6   30.34    9.12
   2  -5  -6   39.26    6.72
  -2   5   6   28.68    5.40
  -2   5   6   36.41    7.32
   2  -5  -5    2.86    1.91
   2  -5  -5   -3.06    4.26
  -2   5   5    1.17    2.19
   2  -5  -5    0.05    1.11
  -2   5   5   -3.00    3.86
  -2   5   5   -0.11    1.54
   2  -5  -5    0.64    1.19
   2  -5  -4   93.46    7.56
   2  -5  -4   78.70    6.92
  -2   5   4   79.61    6.52
  -2   5   4   94.65   14.00
   2  -5  -4   79.82   10.73
  -2   5   4   66.79    9.54
  -2   5   4  102.22   10.43
   2  -5  -4   93.32   13.37
  -2   5   3  181.15   17.03
  -2   5   3  196.46   18.78
   2  -5  -3  166.26   15.78
  -2   5   3  181.54   13.97
   2  -5  -3  192.89    8.53
  -2   5   3  181.97    8.34
   2  -5  -3  174.71   17.67
  -2   5   2    3.27    2.49
  -2   5   2    8.32    3.20
   2  -5  -2    2.48    3.51
  -2   5   1  230.08   16.47
   2  -5  -1  187.79   16.65
  -2   5   1  217.99   17.72
   2  -5  -1  210.83   19.69
   2  -5   0    7.18    3.12
   2  -5   0    3.64    2.56
   2  -5   0    6.87    2.11
  -2   5   0    4.10    2.29
  -2   5   0    3.08    1.62
  -2   5  -1   62.73    9.45
   2  -5   1   56.55    8.51
   2  -5   1   45.78    7.30
   2  -5   1   63.21    4.85
  -2   5  -1   54.60    7.44
   2  -5   1   63.76   10.88
   2  -5   2   45.15    8.08
  -2   5  -2   30.72    5.40
  -2   5  -2   45.13    3.94
  -2   5  -2   34.08    4.23
   2  -5   2   45.55    6.92
  -2   5  -2   47.26    8.20
   2  -5   2   32.83    6.89
   2  -5   3   35.30    7.14
   2  -5   3   25.65    5.95
   2  -5   3   32.67    5.38
  -2   5  -3   32.59    3.66
  -2   5  -3   31.63    3.88
  -2   5  -3   40.14    7.48
  -2   5  -3   32.89    5.33
   2  -5   4 1030.50   35.78
   2  -5   4 1033.95   41.58
   2  -5   4 1048.20   42.56
  -2   5  -4 1100.71   32.92
  -2   5  -4  975.36   34.02
  -2   5  -4 1118.23   43.82
  -2   5  -5  606.46   23.80
   2  -5   5  579.51   29.33
  -2   5  -5  530.91   23.10
   2  -5   5  566.90   28.60
  -2   5  -5  562.20   22.67
  -2   5  -5  583.57   29.67
   2  -5   6  185.36   15.54
   2  -5   6  192.69   15.71
  -2   5  -6  188.85   12.15
   2  -5   6  151.22   15.15
  -2   5  -6  203.30   13.70
  -2   5  -6  206.10   16.61
  -2   5  -6  182.79   11.50
  -2   5  -7   94.59   11.31
  -2   5  -7   73.01    6.84
   2  -5   7   78.54    9.90
  -2   5  -7   81.29    9.18
   2  -5   7   86.68   11.27
  -2   5  -7   83.34    7.69
  -2   5  -8    6.65    2.21
  -2   5  -8    9.39    3.86
   2  -5   8   10.43    3.82
   2  -5   8    2.55    2.90
  -2   5  -8    9.34    2.31
  -2   5  -9  122.86    8.68
  -2   5  -9  143.20   16.49
   2  -5   9  121.63   13.05
  -2   5  -9  104.74    8.40
  -2   5  -9  131.54   13.27
   2  -5   9   98.47   12.90
  -2   5 -10  988.29   42.94
  -2   5 -10  939.21   30.29
   2  -5  10  958.69   41.75
   2  -5  10  912.18   43.54
  -2   5 -10  920.91   29.63
  -2   5 -11  144.46    9.55
  -2   5 -11  143.15   17.44
   2  -5  11  148.01   15.60
   2  -5  11  132.63   15.54
  -2   5 -11  139.62   15.86
  -2   5 -12  446.03   32.26
   2  -5  12  403.99   28.21
  -2   5 -12  465.43   30.65
   2  -5  12  413.08   27.63
  -2   5 -13   80.81   12.92
   2  -5  13   73.82   12.02
  -2   5 -13   79.65   13.23
   2  -5  13   82.05   12.68
  -2   5 -14   32.30    7.87
   2  -5  14   39.75    9.26
   2  -5  14   41.71    9.29
  -2   5 -14   53.12   11.12
  -2   5 -15  102.01   16.18
   2  -5  15   97.52   14.23
   2  -4 -15   95.69   17.33
   2  -4 -15  127.65   22.02
   2  -4 -14   36.30    9.42
   2  -4 -14   48.44   13.19
  -2   4  13  111.51   15.04
   2  -4 -13   92.36   16.77
   2  -4 -13  134.90   21.07
  -2   4  12  196.32   19.03
   2  -4 -12  165.57   22.09
   2  -4 -12  185.04   23.04
   2  -4 -11   84.67   15.71
  -2   4  11   95.05   12.28
   2  -4 -11   84.14   14.49
  -2   4  10  695.03   34.91
   2  -4 -10  683.63   44.10
  -2   4  10  689.96   23.54
   2  -4 -10  705.67   41.39
  -2   4   9  254.61   12.21
  -2   4   9  239.94   19.07
   2  -4  -9  243.91   25.14
   2  -4  -9  231.99   21.56
   2  -4  -8  120.36   16.31
  -2   4   8   95.72   11.24
   2  -4  -8   84.57   11.96
  -2   4   8   88.35    6.53
  -2   4   7  656.64   21.30
  -2   4   7  689.68   31.42
  -2   4   7  700.01   40.47
   2  -4  -7  682.52   39.82
   2  -4  -7  635.86   32.45
   2  -4  -6   97.72   14.25
  -2   4   6   89.38    6.46
  -2   4   6   97.67   14.00
   2  -4  -6   95.52   10.59
  -2   4   6   91.80   10.34
   2  -4  -5  352.73   26.16
   2  -4  -5  361.83   11.60
  -2   4   5  392.35   21.93
   2  -4  -5  349.44   19.43
   2  -4  -5  375.76   21.58
   2  -4  -4  794.32   23.16
   2  -4  -4  817.20   34.22
  -2   4   4  803.89   33.69
   2  -4  -4  859.53   29.39
  -2   4   4  777.76   28.36
   2  -4  -3   46.53    4.75
   2  -4  -3   43.35    6.94
  -2   4   3   50.04    5.15
   2  -4  -3   54.58    5.29
  -2   4   3   57.21    9.21
  -2   4   2 1195.60   30.49
   2  -4  -2 1103.68   44.25
  -2   4   2 1192.29   46.03
  -2   4   1  513.54   25.71
  -2   4   1  527.61   23.37
   2  -4  -1  492.83   28.86
   2  -4   0    4.73    2.51
   2  -4   0    3.13    1.28
   2  -4   0    2.40    1.85
  -2   4   0   -1.57    2.28
  -2   4   0    2.77    2.16
   2  -4   0    0.83    1.70
   2  -4   1   49.80    4.33
   2  -4   1   38.93    7.30
   2  -4   1   43.60    6.96
   2  -4   1   39.16    6.07
  -2   4  -1   46.89    6.26
  -2   4  -1   50.73    7.39
  -2   4  -1   46.44    2.80
  -2   4  -2   14.66    2.07
  -2   4  -2   13.02    3.75
  -2   4  -2   10.93    2.57
   2  -4   2   12.26    3.05
  -2   4  -2   13.43    2.45
   2  -4   2   10.93    3.36
   2  -4   2   12.51    4.15
  -2   4  -3   34.71    3.53
   2  -4   3   33.61    5.02
  -2   4  -3   42.64    6.95
  -2   4  -3   39.54    4.18
  -2   4  -3   41.08    5.13
   2  -4   3   40.11    6.94
   2  -4   3   32.01    6.07
  -2   4  -4  675.44   25.03
  -2   4  -4  702.02   24.63
  -2   4  -4  698.55   29.87
   2  -4   4  677.13   30.06
   2  -4   4  704.42   25.46
   2  -4   4  702.47   30.12
  -2   4  -4  751.86   24.72
  -2   4  -5  292.39   13.85
  -2   4  -5  291.00   15.09
   2  -4   5  280.68   17.61
  -2   4  -5  254.32   13.44
   2  -4   5  253.20   16.74
  -2   4  -5  281.00   17.49
   2  -4   6   50.37    7.48
   2  -4   6   48.20    7.14
  -2   4  -6   46.51    5.36
  -2   4  -6   51.69    6.70
  -2   4  -6   55.11    5.50
   2  -4   6   52.79    7.48
  -2   4  -6   47.39    6.81
  -2   4  -7   93.00    9.70
  -2   4  -7   92.68    7.18
   2  -4   7   87.10    9.65
   2  -4   7   82.97   10.05
  -2   4  -7   87.75    7.29
  -2   4  -7   93.71    9.89
   2  -4   7   87.16   10.00
  -2   4  -8   20.77    3.44
   2  -4   8   24.35    1.94
   2  -4   8   18.03    4.82
  -2   4  -8   18.80    3.06
  -2   4  -8   19.91    4.54
  -2   4  -8   16.75    4.59
   2  -4   8   19.49    4.70
  -2   4  -9    7.59    2.50
  -2   4  -9    9.20    3.99
   2  -4   9    6.49    1.30
  -2   4  -9    6.40    1.84
   2  -4   9   13.25    4.85
   2  -4   9    5.61    3.12
  -2   4 -10  369.32   24.31
  -2   4 -10  388.71   27.62
   2  -4  10  383.06   12.99
   2  -4  10  337.80   22.88
  -2   4 -10  344.24   15.13
  -2   4 -10  356.30   16.76
   2  -4  10  361.57   22.39
   2  -4  11   90.48    6.17
  -2   4 -11   69.65   11.53
   2  -4  11   87.82   10.96
   2  -4  11   90.60   11.82
  -2   4 -11   88.16    8.03
  -2   4 -11   82.81    6.80
  -2   4 -11   84.19   11.55
   2  -4  12   86.21   11.27
  -2   4 -12  116.88   15.23
   2  -4  12  111.41   12.98
  -2   4 -12  107.12   14.32
   2  -4  13    4.67    3.31
  -2   4 -13    2.89    4.25
  -2   4 -13   -2.35    2.90
   2  -4  13    2.12    1.83
  -2   4 -14    5.89    3.59
  -2   4 -14    6.41    4.79
   2  -4  14   11.33    4.84
   2  -4  14    4.47    2.04
  -2   4 -15   35.67    8.63
   2  -4  15   35.51    7.79
   2  -4  15   49.35    9.88
   2  -3 -15   48.46   14.95
   2  -3 -14   43.07    9.74
   2  -3 -14   49.75   13.69
  -2   3  14   59.88   11.34
  -2   3  14   48.36    9.48
   2  -3 -13   20.49    7.35
  -2   3  13   22.27    6.06
   2  -3 -13    6.85    5.95
  -2   3  13   18.73    6.21
   2  -3 -12   40.39   10.98
   2  -3 -12   38.65   10.88
  -2   3  12   34.02    7.18
   2  -3 -11   25.98    8.60
   2  -3 -11   37.20   10.27
  -2   3  11   27.84    6.75
  -2   3  10  166.58   15.22
  -2   3  10  152.42   16.59
   2  -3 -10  186.22   20.84
  -2   3  10  169.44   11.43
   2  -3 -10  193.33   21.11
  -2   3   9  214.86   12.03
   2  -3  -9  194.65   20.57
  -2   3   9  214.37   20.03
  -2   3   9  195.68   19.08
  -2   3   9  207.79   16.35
   2  -3  -9  197.24   20.49
  -2   3   8   50.31    9.30
   2  -3  -8   46.86    9.93
   2  -3  -8   48.99    9.35
  -2   3   8   42.48    8.23
  -2   3   8   47.61    4.97
  -2   3   8   43.68    7.09
  -2   3   7  378.34   14.89
   2  -3  -7  350.99   24.01
  -2   3   7  409.25   21.63
  -2   3   7  374.73   26.94
   2  -3  -7  350.55   26.31
  -2   3   6   54.46    6.97
   2  -3  -6   47.58    7.64
  -2   3   6   55.02    4.80
   2  -3  -6   57.42   10.07
  -2   3   6   60.51   10.43
  -2   3   5  305.96   17.28
  -2   3   5  292.18   12.20
  -2   3   5  316.97   23.44
   2  -3  -5  284.00   18.03
  -2   3   4 1003.86   36.92
   2  -3  -4 1051.14   36.90
   2  -3  -4 1146.94   37.92
  -2   3   4 1154.36   47.30
  -2   3   4 1109.50   37.72
   2  -3  -4 1131.31   26.12
   2  -3  -3  178.06   12.57
   2  -3  -3  176.39    7.62
  -2   3   3  174.90    8.64
  -2   3   3  169.86   12.64
  -2   3   3  196.23   16.44
  -2   3   3  172.89   11.23
   2  -3  -3  184.56   11.42
  -2   3   2 2557.82   72.27
   2  -3  -2 2488.27   69.71
   2  -3  -2 2544.64   58.65
   2  -3  -2 2575.39   61.17
  -2   3   2 2628.50   71.36
  -2   3   2 2548.29   61.72
  -2   3   2 2487.54   56.20
  -2   3   1 2118.90   46.17
  -2   3   1 2190.52   56.07
  -2   3   1 2196.09   50.59
  -2   3   1 2078.04   66.22
   2  -3  -1 2018.79   64.07
  -2   3   1 2106.82   60.56
   2  -3  -1 2266.21   54.09
   2  -3  -1 2118.25   52.34
   2  -3   0  182.27   12.52
   2  -3   0  202.99   10.55
  -2   3   0  191.00   16.21
   2  -3   0  171.12   10.07
   2  -3   0  192.76   16.51
  -2   3   0  184.04   11.91
  -2   3   0  193.10   11.98
   2  -3   1  648.72   24.62
   2  -3   1  631.37   25.50
  -2   3  -1  682.78   21.68
  -2   3  -1  676.14   24.28
  -2   3  -1  729.58   28.46
   2  -3   1  667.42   31.22
   2  -3   1  682.76   21.23
   2  -3   1  670.65   23.79
  -2   3  -2  727.82   21.88
   2  -3   2  683.10   25.44
   2  -3   2  726.97   25.14
   2  -3   2  713.89   29.23
   2  -3   2  735.51   28.98
  -2   3  -2  749.60   24.67
  -2   3  -2  699.55   28.70
  -2   3  -3   62.62    5.17
  -2   3  -3   63.10    5.70
   2  -3   3   51.59    5.45
  -2   3  -3   63.19    4.63
   2  -3   3   51.58    6.59
   2  -3   3   56.08    6.82
  -2   3  -3   66.05    7.27
  -2   3  -4 4031.43   91.08
   2  -3   4 4056.45   83.26
   2  -3   4 3715.20   94.99
  -2   3  -4 3634.22   89.45
  -2   3  -4 4003.41   89.70
   2  -3   4 3979.61   96.07
  -2   3  -4 3884.49   94.45
  -2   3  -5 1137.51   35.14
  -2   3  -5 1065.57   31.84
  -2   3  -5 1135.46   31.66
   2  -3   5 1130.40   26.75
  -2   3  -5 1063.14   35.34
   2  -3   5 1136.16   37.38
   2  -3   5 1039.37   35.49
   2  -3   6  593.25   16.70
   2  -3   6  562.90   25.10
  -2   3  -6  598.13   20.13
   2  -3   6  576.68   23.99
  -2   3  -6  534.16   22.97
   2  -3   6  594.71   25.46
  -2   3  -6  616.07   25.03
  -2   3  -6  567.05   20.30
  -2   3  -7   40.24    6.44
  -2   3  -7   40.17    5.71
   2  -3   7   40.70    5.68
   2  -3   7   37.29    3.49
  -2   3  -7   42.62    4.67
  -2   3  -7   39.62    4.65
   2  -3   7   37.09    6.13
   2  -3   8    6.33    2.71
  -2   3  -8    7.48    2.03
   2  -3   8    8.78    2.66
  -2   3  -8    7.97    2.07
  -2   3  -8    7.92    3.06
  -2   3  -8    6.10    2.42
   2  -3   8    7.63    1.69
  -2   3  -9   76.08    9.93
   2  -3   9   78.06    9.28
  -2   3  -9   75.95    8.58
  -2   3  -9   71.78    6.26
   2  -3   9   74.72    8.64
  -2   3  -9   80.61    7.13
  -2   3 -10  947.66   31.42
  -2   3 -10  941.36   42.66
  -2   3 -10  931.13   40.95
  -2   3 -10  889.41   28.33
   2  -3  10  912.17   35.93
   2  -3  10  882.55   35.91
  -2   3 -11   48.77    5.24
  -2   3 -11   40.47    8.39
   2  -3  11   48.65    7.88
  -2   3 -11   54.70    9.24
  -2   3 -11   52.42    6.77
   2  -3  11   46.08    7.32
  -2   3 -12  171.51   10.72
  -2   3 -12  179.85   17.99
  -2   3 -12  164.90   12.78
  -2   3 -12  188.36   18.80
   2  -3  12  184.42   15.64
   2  -3  12  177.32   15.27
  -2   3 -13    4.28    3.85
   2  -3  13    7.69    4.15
  -2   3 -13    7.08    4.01
   2  -3  13    4.88    3.08
   2  -3  14   26.85    6.96
   2  -3  14   26.82    6.35
  -2   3 -14   40.95    8.80
  -2   3 -14   33.07    8.60
  -2   3 -15    7.80    4.73
   2  -3  15    2.20    1.77
   2  -3  15    3.44    3.59
   2  -3  16   73.83   12.44
   2  -2 -14   18.31    7.44
   2  -2 -14   30.30    7.88
  -2   2  14   20.32    6.45
  -2   2  14   20.05    6.45
   2  -2 -13   36.13   11.27
   2  -2 -13   27.65    8.11
  -2   2  13   27.27    7.05
  -2   2  13   35.47    7.79
  -2   2  12   43.67    8.53
   2  -2 -12   40.31    9.55
  -2   2  12   47.03    8.63
   2  -2 -12   42.88   11.57
   2  -2 -11   10.60    4.24
  -2   2  11    6.90    2.45
  -2   2  11    1.50    1.99
  -2   2  11    8.72    3.74
   2  -2 -11    6.82    6.11
  -2   2  10  143.42   14.19
   2  -2 -10  133.32   17.84
  -2   2  10  127.22   10.89
   2  -2 -10  146.53   16.89
  -2   2  10  152.63   14.12
   2  -2  -9   84.35   13.10
  -2   2   9   67.13    7.02
  -2   2   9   79.04   11.04
   2  -2  -9   75.38   11.69
  -2   2   9   72.02    9.75
  -2   2   9   71.90    8.83
   2  -2  -8   -0.05    2.72
   2  -2  -8   -0.34    2.84
  -2   2   8   -3.15    3.30
  -2   2   8    2.93    1.73
  -2   2   8    1.43    2.56
  -2   2   8    2.95    2.00
   2  -2  -7   28.16    6.91
  -2   2   7   31.52    6.87
  -2   2   7   36.25    4.28
  -2   2   7   36.10    5.59
   2  -2  -6    6.60    3.19
  -2   2   6    1.96    1.45
  -2   2   6    6.47    2.32
  -2   2   6    6.80    2.62
  -2   2   6    4.40    1.52
   2  -2  -5   72.41    9.79
  -2   2   5   85.57    7.88
  -2   2   5   87.67    6.06
   2  -2  -5   76.78    9.46
  -2   2   5   81.70    7.77
  -2   2   5   96.37   11.57
  -2   2   4   88.93    7.31
  -2   2   4   87.59    5.93
   2  -2  -4   95.01    9.77
  -2   2   4   88.99    7.74
  -2   2   4   83.66   10.46
   2  -2  -4   92.55    9.97
  -2   2   3   88.91    6.62
   2  -2  -3   81.52    8.17
   2  -2  -3   79.59    3.77
  -2   2   3   81.20    9.55
   2  -2  -3   84.51    8.85
  -2   2   3   73.34    7.84
  -2   2   3   75.10    7.05
   2  -2  -3   83.15    7.22
   2  -2  -2  780.57   29.85
   2  -2  -2  843.14   21.13
  -2   2   2  835.36   28.12
  -2   2   2  806.60   30.59
  -2   2   2  853.41   28.91
   2  -2  -2  842.52   27.88
  -2   2   2  805.83   24.04
   2  -2  -2  824.28   27.96
   2  -2  -1  356.36   17.85
  -2   2   1  344.72   16.49
   2  -2  -1  371.31   17.25
  -2   2   1  370.43   19.32
  -2   2   1  369.71   15.17
   2  -2  -1  369.48   12.35
  -2   2   1  375.71   13.41
  -2   2   0   25.55    3.00
  -2   2   0   24.34    3.32
   2  -2   0   22.03    2.82
  -2   2   0   22.71    3.19
  -2   2   0   25.16    3.67
   2  -2   0   22.14    3.68
   2  -2   0   17.04    4.28
  -2   2   0   30.51    5.79
   2  -2   1  293.99   16.38
  -2   2  -1  275.69   13.65
   2  -2   1  270.97   11.60
   2  -2   1  255.13   11.46
  -2   2  -1  267.82   11.25
   2  -2   1  269.82   12.47
   2  -2   1  267.88   12.38
  -2   2  -1  244.18   14.90
  -2   2  -1  287.58   12.47
  -2   2  -2   80.51    6.98
  -2   2  -2   79.69    5.96
   2  -2   2   82.31    4.90
   2  -2   2   77.15    6.11
  -2   2  -2   80.67    7.43
   2  -2   2   70.64    6.73
   2  -2   2   81.75    7.22
  -2   2  -2   74.35    5.70
  -2   2  -2   82.66    5.58
   2  -2   3   76.64    6.78
   2  -2   3   75.99    4.68
  -2   2  -3   79.08    5.74
  -2   2  -3   75.79    5.29
  -2   2  -3   74.08    6.06
   2  -2   3   76.92    6.69
  -2   2  -3   77.22    5.80
   2  -2   4 3684.77   79.02
   2  -2   4 3620.21   85.36
  -2   2  -4 3671.31   81.76
  -2   2  -4 3628.69   81.91
   2  -2   4 3459.49   83.85
   2  -2   4 3544.44   85.92
  -2   2  -4 3632.38   83.23
   2  -2   5  304.62   14.17
  -2   2  -5  319.31   13.01
   2  -2   5  320.50   12.60
  -2   2  -5  318.81   13.17
  -2   2  -5  298.18   13.70
   2  -2   5  311.38   11.74
   2  -2   5  313.27   15.25
   2  -2   6  635.50   23.34
   2  -2   6  668.84   20.88
  -2   2  -6  649.77   23.05
   2  -2   6  667.43   25.05
  -2   2  -6  683.73   22.15
  -2   2  -6  684.23   26.36
   2  -2   7  233.95   13.25
  -2   2  -7  229.87   12.84
   2  -2   7  229.10   13.66
   2  -2   7  234.94   10.75
  -2   2  -7  238.95   12.06
  -2   2  -7  244.42   15.53
   2  -2   8   -0.39    1.58
  -2   2  -8    2.89    1.94
  -2   2  -8    2.50    1.84
  -2   2  -8    1.24    1.36
   2  -2   8    0.13    1.53
   2  -2   8    0.98    0.70
   2  -2   9  376.70   19.38
  -2   2  -9  397.49   23.48
   2  -2   9  382.23   15.15
   2  -2   9  382.52   19.39
  -2   2  -9  379.63   17.85
  -2   2 -10 1942.29   64.72
   2  -2  10 1834.81   55.87
  -2   2 -10 1921.32   64.05
  -2   2 -10 1908.75   54.80
   2  -2  10 1957.73   49.13
   2  -2  10 1975.02   57.55
  -2   2 -11   14.13    4.79
   2  -2  11   17.36    2.99
  -2   2 -11   17.90    4.27
  -2   2 -11   17.39    4.91
   2  -2  11   15.07    4.12
   2  -2  11   19.74    5.09
  -2   2 -12  679.20   33.53
   2  -2  12  676.32   23.30
   2  -2  12  667.08   29.16
   2  -2  12  686.85   31.36
  -2   2 -12  642.52   36.67
  -2   2 -12  677.72   30.79
  -2   2 -13   67.02   11.72
  -2   2 -13   51.25    8.43
   2  -2  13   47.65    7.02
  -2   2 -13   57.03    9.87
   2  -2  13   64.95    9.68
  -2   2 -14   29.25    6.40
  -2   2 -14   28.18    7.33
  -2   2 -14   31.68    7.52
   2  -2  14   27.02    5.53
   2  -2  14   26.16    6.47
   2  -2  15  176.26   17.41
   2  -2  15  153.62   13.87
  -2   2 -15  141.34   14.21
  -2   2 -15  182.58   21.25
   2  -2  16  133.96   16.02
  -2   1  14    3.66    4.45
  -2   1  14    5.26    4.44
   2  -1 -14    2.16    5.45
  -2   1  13  232.63   20.24
   2  -1 -13  217.28   26.14
  -2   1  13  203.56   18.50
   2  -1 -13  188.26   17.89
  -2   1  12  163.21   16.05
   2  -1 -12  163.96   22.02
   2  -1 -12  129.18   14.35
  -2   1  12  138.06   14.48
   2  -1 -11   97.33   16.28
  -2   1  11   95.37   11.38
   2  -1 -11   93.81   11.73
   2  -1 -11   98.98    8.03
  -2   1  11  104.46   10.15
  -2   1  11  106.46   11.99
  -2   1  10  662.88   28.23
  -2   1  10  665.16   29.44
   2  -1 -10  646.65   23.43
  -2   1  10  691.61   31.68
   2  -1 -10  679.85   33.93
  -2   1  10  684.57   31.27
   2  -1 -10  750.90   43.30
  -2   1   9  249.98   15.39
  -2   1   9  268.42   16.85
  -2   1   9  272.52   17.40
  -2   1   9  264.71   17.58
   2  -1  -9  273.88   24.11
   2  -1  -9  239.88   12.32
   2  -1  -8  366.22   15.19
  -2   1   8  360.55   17.57
  -2   1   8  397.69   21.55
  -2   1   8  367.99   20.50
   2  -1  -8  433.00   28.44
  -2   1   8  350.08   22.13
  -2   1   8  371.13   19.72
  -2   1   7  681.62   30.33
  -2   1   7  634.71   26.18
   2  -1  -7  641.21   21.54
  -2   1   7  684.23   30.26
   2  -1  -7  684.11   31.16
  -2   1   7  668.42   23.75
   2  -1  -7  720.27   36.08
  -2   1   6   62.68    7.92
  -2   1   6   69.53    6.16
   2  -1  -6   77.17    9.33
   2  -1  -6   77.51    5.86
  -2   1   6   78.70    7.48
   2  -1  -6   83.80   10.99
  -2   1   6   70.19    8.79
  -2   1   5    5.36    1.70
   2  -1  -5    8.83    3.37
   2  -1  -5    6.17    1.61
  -2   1   5    2.51    1.24
   2  -1  -5    2.46    1.23
  -2   1   5    8.90    2.75
  -2   1   5    7.12    2.31
  -2   1   4  639.25   28.94
  -2   1   4  665.64   20.54
  -2   1   4  669.81   15.52
  -2   1   4  651.48   22.57
  -2   1   4  633.59   25.09
   2  -1  -4  606.17   25.20
   2  -1  -3    6.60    1.97
  -2   1   3    4.74    2.06
  -2   1   3    8.32    2.41
  -2   1   3   12.03    2.10
  -2   1   3    4.25    1.40
   2  -1  -3    7.61    1.17
  -2   1   3    7.23    0.98
  -2   1   3    8.09    2.41
   2  -1  -3    5.79    2.17
   2  -1  -2  570.57   20.44
  -2   1   2  589.23   17.59
  -2   1   2  493.34   22.47
  -2   1   2  559.18   14.64
  -2   1   2  563.49   18.88
  -2   1   2  560.38   20.88
   2  -1  -2  586.19   15.05
   2  -1  -2  553.12   18.28
   2  -1  -2  566.43   23.28
  -2   1   2  569.53   21.57
   2  -1  -1  439.18   16.08
   2  -1  -1  390.77   19.38
   2  -1  -1  423.29   18.72
  -2   1   1  427.84   16.51
  -2   1   1  453.72   12.79
  -2   1   1  452.53   17.36
   2  -1  -1  436.97   12.76
  -2   1   1  439.02   18.69
  -2   1   1  452.92   18.10
   2  -1  -1  430.00   15.78
  -2   1   0  103.19    6.52
  -2   1   0  103.89    5.24
   2  -1   0   81.12    7.56
   2  -1   0  100.84    6.16
   2  -1   0   99.32    5.21
  -2   1   0   87.33    7.83
  -2   1   0   93.87    6.85
  -2   1   0   93.63    6.19
   2  -1   0   89.77    7.82
  -2   1  -1  523.13   15.76
   2  -1   1  501.02   18.46
  -2   1  -1  516.00   15.68
  -2   1  -1  489.34   16.42
   2  -1   1  502.23   16.07
  -2   1  -1  479.40   17.45
   2  -1   1  504.11   18.00
  -2   1  -1  501.88   16.77
   2  -1   1  525.03   15.88
  -2   1  -2    7.91    1.72
   2  -1   2    5.67    1.81
  -2   1  -2    5.15    1.39
   2  -1   2    6.35    1.44
  -2   1  -2    6.05    1.40
  -2   1  -2    6.94    1.63
  -2   1  -2    4.74    1.32
   2  -1   2    4.50    1.21
   2  -1   2    5.63    1.31
  -2   1  -3   63.69    5.07
   2  -1   3   60.52    4.49
   2  -1   3   58.17    4.46
  -2   1  -3   57.96    4.65
  -2   1  -3   58.78    3.96
   2  -1   3   57.97    4.28
   2  -1   4 1227.24   31.77
  -2   1  -4 1225.32   32.56
   2  -1   4 1170.78   32.39
  -2   1  -4 1269.26   33.80
   2  -1   4 1246.22   33.70
   2  -1   4 1198.99   31.24
  -2   1  -4 1235.80   30.80
  -2   1  -5  382.47   13.89
   2  -1   5  398.22   14.25
  -2   1  -5  395.65   15.92
  -2   1  -5  384.48   14.77
   2  -1   5  404.32   15.93
   2  -1   5  371.96   14.17
   2  -1   6   94.36    6.86
   2  -1   6  100.83    6.56
  -2   1  -6   89.20    6.41
  -2   1  -6   97.53    7.07
   2  -1   6  102.89    7.64
  -2   1  -7  436.43   18.15
   2  -1   7  464.70   16.77
   2  -1   7  467.31   18.92
   2  -1   7  451.16   18.04
   2  -1   8    1.29    1.03
  -2   1  -8    1.13    1.36
   2  -1   8    1.74    1.41
  -2   1  -8    2.05    2.34
   2  -1   8    4.21    2.16
   2  -1   9   17.23    3.78
  -2   1  -9   12.10    3.72
  -2   1  -9   17.54    3.89
   2  -1   9   15.55    2.83
   2  -1   9   13.64    3.21
   2  -1  10  733.22   28.68
   2  -1  10  688.33   26.40
  -2   1 -10  713.01   29.49
  -2   1 -10  696.81   30.50
  -2   1 -10  701.58   34.29
   2  -1  10  691.49   24.23
  -2   1 -11   17.50    6.00
   2  -1  11   12.85    3.43
  -2   1 -11    8.07    2.68
   2  -1  11   12.66    3.94
   2  -1  11   15.29    3.18
   2  -1  12  238.67   15.00
   2  -1  12  238.11   16.93
  -2   1 -12  226.72   16.16
   2  -1  12  238.12   13.29
  -2   1 -12  256.44   22.10
  -2   1 -12  244.05   19.43
  -2   1 -13    8.18    4.40
  -2   1 -13    1.68    2.42
  -2   1 -13    3.43    1.97
   2  -1  13    1.42    1.42
   2  -1  13    6.45    3.43
  -2   1 -14   20.56    4.79
  -2   1 -14   18.38    5.01
   2  -1  14   25.24    5.11
   2  -1  14   21.87    6.22
  -2   1 -15  124.37   17.98
   2  -1  15  105.55   13.23
   2  -1  16  162.30   17.43
  -2   0  15   59.50   11.16
   2   0 -14   19.12    8.50
  -2   0  14   11.17    4.92
  -2   0  14    3.04    3.14
  -2   0  13   51.90    9.65
   2   0 -13   46.49    6.31
   2   0 -13   36.27    6.30
  -2   0  13   35.73    7.79
   2   0 -13   53.80   13.34
   2   0 -12   49.43   11.65
  -2   0  12   55.10    9.34
   2   0 -12   41.73    6.00
   2   0 -12   43.80    6.82
   2   0 -11   22.85    8.15
   2   0 -11   19.28    4.01
  -2   0  11   17.81    2.26
  -2   0  11   16.42    2.59
  -2   0  11   20.04    3.58
  -2   0  11   24.26    5.95
   2   0 -10  364.49   17.65
  -2   0  10  408.23   23.31
  -2   0  10  382.50   13.85
  -2   0  10  393.80   13.65
  -2   0  10  369.78   16.89
  -2   0   9  177.83    8.65
  -2   0   9  185.72   11.27
   2   0  -9  180.50   11.33
   2   0  -9  185.11   13.55
  -2   0   9  180.23   13.90
   2   0  -9  211.18   20.85
  -2   0   9  185.62   14.42
  -2   0   9  182.47    8.59
  -2   0   8  489.18   22.67
  -2   0   8  544.58   24.67
   2   0  -8  513.18   20.24
  -2   0   8  541.28   16.91
  -2   0   8  512.25   20.74
  -2   0   8  498.57   28.62
   2   0  -8  498.74   23.12
   2   0  -8  585.00   33.80
  -2   0   7  714.52   27.24
   2   0  -7  645.42   22.86
  -2   0   7  660.42   25.33
   2   0  -7  658.17   26.10
  -2   0   7  678.20   32.02
  -2   0   7  690.14   25.29
  -2   0   7  681.91   25.89
  -2   0   7  666.92   19.75
   2   0  -7  761.51   37.34
  -2   0   6    3.19    2.00
   2   0  -6    6.21    3.38
   2   0  -6    9.46    2.63
  -2   0   6    4.26    1.58
  -2   0   6   12.87    4.28
  -2   0   6    5.49    1.30
  -2   0   6    4.67    2.40
   2   0  -6    8.56    2.09
  -2   0   5  532.77   20.48
  -2   0   5  538.85   25.30
  -2   0   5  521.25   19.22
   2   0  -5  499.54   18.17
  -2   0   5  518.43   22.97
  -2   0   5  530.05   15.62
   2   0  -5  506.27   19.75
   2   0  -5  557.95   28.35
   2   0  -4 1329.88   36.81
  -2   0   4 1361.63   36.55
  -2   0   4 1359.12   32.84
   2   0  -4 1420.79   36.16
  -2   0   4 1403.90   37.80
  -2   0   4 1396.42   44.41
   2   0  -4 1516.95   49.36
  -2   0   4 1247.95   41.53
   2   0  -3   18.43    2.72
   2   0  -3   19.50    2.68
  -2   0   3   16.88    1.90
   2   0  -3   25.54    5.05
  -2   0   3   22.21    3.26
  -2   0   3   23.26    3.75
  -2   0   3   18.47    2.59
  -2   0   3   19.61    2.57
  -2   0   3   25.60    4.56
   2   0  -2 9412.32  187.76
  -2   0   2 9599.00  188.36
   2   0  -2 8178.98  199.26
  -2   0   2 9999.00  185.72
  -2   0   2 9088.66  190.26
   2   0  -2 9420.20  186.43
  -2   0   2 9209.33  190.09
  -2   0   2 9677.19  186.60
   2   0  -2 9288.11  187.97
  -2   0   2 8437.96  196.91
   2   0  -1 1244.14   43.14
  -2   0   1 1405.18   35.45
  -2   0   1 1471.21   35.43
   2   0  -1 1298.78   44.07
  -2   0   1 1491.46   34.72
   2   0  -1 1494.96   35.41
   2   0  -1 1432.11   32.64
   2   0  -1 1476.15   34.16
   2   0  -1 1405.72   34.97
  -2   0   1 1479.65   33.71
  -2   0   1 1476.80   33.89
   2   0  -1 1451.57   37.31
  -2   0   1 1277.54   42.54
  -2   0   0   48.66    3.80
  -2   0   0   47.47    3.40
   2   0   0   49.95    4.37
   2   0   0   44.75    5.67
  -2   0   0   52.04    3.74
   2   0   0   44.88    3.49
   2   0   0   50.26    3.51
  -2   0   0   45.25    3.58
   2   0   0   48.07    3.66
   2   0   1  590.83   18.38
   2   0   1  596.19   17.21
   2   0   1  568.04   15.67
  -2   0  -1  589.45   16.74
   2   0   1  563.42   20.26
   2   0   2  633.01   19.80
  -2   0  -2  630.60   20.38
  -2   0  -2  644.08   18.46
   2   0   2  640.19   18.65
   2   0   3  304.54   11.73
  -2   0  -3  307.30   12.11
   2   0   3  316.71    8.84
   2   0   3  311.31   11.65
  -2   0  -3  319.85   11.84
  -2   0  -4 5713.08  121.35
   2   0   4 5282.98  116.18
   2   0   4 5758.37  120.13
  -2   0  -4 5629.29  119.99
   2   0   4 5639.15  119.76
   2   0   5  257.59   10.08
  -2   0  -5  266.13   12.17
  -2   0  -5  265.73   11.70
   2   0   5  256.01   11.45
   2   0   5  255.75   11.38
  -2   0  -6  477.74   17.77
   2   0   6  486.96   16.74
  -2   0  -6  482.39   18.94
   2   0   6  484.86   17.49
   2   0   6  493.78   17.82
   2   0   7   15.15    2.74
   2   0   7   11.62    2.44
  -2   0  -7   12.27    2.95
   2   0   7   14.19    2.77
  -2   0  -7   14.95    2.85
   2   0   8    1.52    1.13
  -2   0  -8    0.64    1.56
   2   0   8   -1.02    1.04
   2   0   8    2.25    1.25
   2   0   9   84.34    7.77
  -2   0  -9   72.17    7.35
   2   0   9   82.53    7.28
  -2   0  -9   75.40    9.76
   2   0   9   87.42    7.36
  -2   0 -10  714.28   34.97
   2   0  10  728.80   28.17
  -2   0 -10  682.54   26.85
   2   0  10  699.09   25.22
   2   0  10  747.52   26.34
   2   0  11    0.52    1.80
  -2   0 -11   -0.25    3.06
  -2   0 -11    0.26    1.05
  -2   0 -11   -2.10    2.57
   2   0  11    2.65    1.53
   2   0  11    0.18    1.17
   2   0  12  190.40   14.70
  -2   0 -12  163.62   11.58
   2   0  12  165.56   11.45
   2   0  12  181.99   12.39
  -2   0 -12  158.33   16.80
  -2   0 -12  163.15   17.58
  -2   0 -13   54.64   11.32
  -2   0 -13   40.52    9.17
  -2   0 -13   29.12    4.56
   2   0  13   42.91    5.75
   2   0  13   35.60    7.05
   2   0  13   45.54    6.27
  -2   0 -14    2.84    4.00
   2   0  14    2.82    3.11
  -2   0 -14    0.24    1.07
  -2   0 -14    6.69    4.46
   2   0  14    1.49    1.11
   2   0  15   11.43    4.34
  -2   0 -15    5.02    3.91
  -2   0 -15   15.80    5.66
   2   0  16   42.72    9.14
   2   0  17   25.23    6.42
   2   1 -14   -7.69    7.66
   2   1 -14    0.53    2.27
  -2  -1  14    1.85    3.09
   2   1 -13   19.29    7.68
   2   1 -13   15.42    4.00
  -2  -1  13   25.00    6.87
   2   1 -12   14.11    6.11
  -2  -1  12   15.10    5.42
   2   1 -12    6.64    3.33
   2   1 -12   10.19    2.77
  -2  -1  12   10.59    2.80
   2   1 -11    9.65    3.42
  -2  -1  11   12.63    2.54
   2   1 -11   12.76    4.03
   2   1 -11   10.06    2.82
  -2  -1  11   12.85    4.35
  -2  -1  10   91.66   10.64
   2   1 -10  100.73    9.41
  -2  -1  10   98.27    7.93
   2   1 -10   98.22    8.09
   2   1 -10  118.89   15.93
  -2  -1  10  107.22    6.29
   2   1  -9    5.18    2.57
  -2  -1   9    6.45    1.51
  -2  -1   9    3.94    2.49
   2   1  -9    2.24    1.44
   2   1  -9    7.45    3.68
   2   1  -8  102.48    8.99
  -2  -1   8  111.84   10.37
  -2  -1   8   94.99    9.92
  -2  -1   8  107.95    6.18
   2   1  -8  117.84   14.62
  -2  -1   8  125.17   14.23
   2   1  -8  114.83    7.87
   2   1  -7   40.53    4.22
   2   1  -7   52.85    9.54
  -2  -1   7   42.70    7.90
  -2  -1   7   37.67    5.63
  -2  -1   7   47.41    6.35
   2   1  -7   44.05    5.55
  -2  -1   7   42.87    3.84
   2   1  -6   79.20    5.54
  -2  -1   6   64.81    7.11
  -2  -1   6   81.74    7.86
   2   1  -6   77.60    6.94
  -2  -1   6   78.33    5.42
  -2  -1   6   79.99    6.01
   2   1  -6   84.94   11.39
   2   1  -5  211.99    8.98
  -2  -1   5  240.18   11.17
  -2  -1   5  222.15   12.40
  -2  -1   5  224.72   12.13
   2   1  -5  208.63   11.57
  -2  -1   5  205.93   11.97
   2   1  -5  254.07   18.82
  -2  -1   4  299.93   14.10
  -2  -1   4  319.71   14.41
  -2  -1   4  328.37   14.20
   2   1  -4  320.23   14.13
   2   1  -4  321.60   10.74
  -2  -1   4  348.73   10.28
  -2  -1   4  320.17   14.20
   2   1  -4  361.73   21.67
  -2  -1   3    2.05    1.00
  -2  -1   3    0.78    1.13
  -2  -1   3    0.00    0.60
   2   1  -3    1.02    0.66
  -2  -1   3    0.01    0.70
   2   1  -3    0.51    2.14
   2   1  -3    0.90    1.00
  -2  -1   3    0.22    0.32
  -2  -1   3    1.32    1.13
  -2  -1   2 1121.87   29.29
   2   1  -2 1045.20   29.54
   2   1  -2 1090.09   31.04
  -2  -1   2 1070.88   30.01
   2   1  -2 1094.75   29.05
  -2  -1   2 1049.34   29.67
  -2  -1   2 1100.92   25.97
  -2  -1   2 1076.83   27.22
  -2  -1   2 1115.92   29.24
  -2  -1   1  628.90   17.22
  -2  -1   1  632.31   16.94
  -2  -1   1  618.82   18.05
   2   1  -1  637.53   19.04
   2   1  -1  640.32   20.55
   2   1  -1  623.48   17.23
   2   1  -1  576.72   26.11
   2   1  -1  619.79   19.25
   2   1  -1  618.86   17.93
   2   1  -1  650.50   28.40
  -2  -1   1  632.10   19.94
  -2  -1   1  642.63   18.89
   2   1   0  154.89    7.37
  -2  -1   0  164.14    8.41
   2   1   0  162.78    7.06
   2   1   0  153.02    8.45
   2   1   0  153.11    6.26
   2   1   0  147.65   11.00
  -2  -1   0  146.73    6.69
  -2  -1   0  153.37    6.48
  -2  -1   0  165.37    7.67
   2   1   0  153.19    7.65
   2   1   1   33.85    3.00
  -2  -1  -1   32.46    2.89
   2   1   1   41.05    4.20
   2   1   1   33.21    2.34
  -2  -1  -1   39.35    3.48
  -2  -1  -1   29.82    3.03
  -2  -1  -1   32.50    2.69
   2   1   1   32.72    4.35
   2   1   1   33.88    3.17
  -2  -1  -2  566.17   15.42
   2   1   2  569.68   17.51
  -2  -1  -2  556.64   17.03
   2   1   2  541.17   19.61
   2   1   2  545.16   18.99
   2   1   3  419.41   14.19
   2   1   3  448.21   15.73
  -2  -1  -3  416.71   14.45
  -2  -1  -4 5616.47  121.21
  -2  -1  -4 6031.69  124.82
   2   1   4 5984.87  124.25
   2   1   5  235.88   11.97
  -2  -1  -5  226.50   12.08
   2   1   5  223.64    9.94
  -2  -1  -5  230.05   10.40
   2   1   6  990.54   27.91
  -2  -1  -6 1026.95   28.79
   2   1   6 1005.91   31.15
  -2  -1  -6  958.60   32.22
   2   1   7  306.75   12.89
   2   1   7  331.15   15.83
  -2  -1  -7  306.72   13.56
  -2  -1  -7  319.46   16.85
   2   1   8   22.19    3.99
   2   1   8   23.82    3.84
   2   1   8   20.21    3.14
  -2  -1  -8   19.23    3.26
  -2  -1  -9  697.74   22.47
  -2  -1  -9  697.99   24.50
   2   1   9  696.15   23.23
   2   1   9  726.01   26.32
   2   1   9  740.68   27.55
  -2  -1 -10 1785.23   62.75
   2   1  10 1787.40   47.48
  -2  -1 -10 1746.03   45.37
   2   1  10 1815.80   52.52
   2   1  10 1941.35   53.78
  -2  -1 -10 1929.03   61.39
  -2  -1 -10 1745.85   59.97
   2   1  11   48.70    5.29
  -2  -1 -11   54.99    9.68
  -2  -1 -11   46.92    8.94
  -2  -1 -11   47.98    4.73
   2   1  11   55.16    7.32
   2   1  11   58.46    7.23
  -2  -1 -12  451.85   16.99
   2   1  12  519.13   25.18
   2   1  12  486.49   19.71
   2   1  12  506.53   23.73
  -2  -1 -12  518.28   32.88
  -2  -1 -12  477.83   31.69
  -2  -1 -13   89.12   13.87
  -2  -1 -13   70.20    5.57
   2   1  13   78.16    9.96
  -2  -1 -13   73.89   12.41
   2   1  13   80.94    9.07
   2   1  13   75.42    7.16
   2   1  14   86.36   11.15
   2   1  14   75.27    7.25
  -2  -1 -14   88.18   14.70
  -2  -1 -14   80.06   14.43
  -2  -1 -15  150.88   20.61
  -2  -1 -15  140.32   19.86
   2   1  15  146.48   15.41
  -2  -1 -16   64.04   14.90
   2   1  16   84.01   12.25
   2   1  17   76.95   12.43
   2   2 -14   12.68    4.23
  -2  -2  14   14.05    5.75
  -2  -2  13  259.22   21.75
   2   2 -13  186.16   16.03
   2   2 -13  252.91   27.88
   2   2 -12  132.79   19.47
   2   2 -12  121.28   12.23
  -2  -2  12  121.10   10.56
  -2  -2  12  134.10   14.72
  -2  -2  11   47.49    6.55
   2   2 -11   52.99    3.53
   2   2 -11   55.46    8.16
  -2  -2  11   62.08    9.53
  -2  -2  11   55.50    7.53
   2   2 -11   61.15   12.75
  -2  -2  10  560.46   28.50
   2   2 -10  508.04   25.42
  -2  -2  10  555.36   24.89
   2   2 -10  599.47   38.32
   2   2 -10  525.15   15.19
  -2  -2   9  135.21   10.75
   2   2  -9  125.33   11.50
   2   2  -9  131.05    5.77
  -2  -2   9  144.99   13.14
  -2  -2   8  651.53   28.49
   2   2  -8  630.71   27.30
   2   2  -8  698.08   38.31
  -2  -2   8  651.93   25.39
   2   2  -8  648.77   16.67
   2   2  -7  247.26    7.61
  -2  -2   7  237.39   15.26
  -2  -2   7  230.11   15.64
  -2  -2   7  232.03   13.19
  -2  -2   7  224.77   19.80
   2   2  -7  244.10   15.16
  -2  -2   6   17.01    3.94
  -2  -2   6   15.87    3.02
  -2  -2   6   12.61    3.33
   2   2  -6   16.43    4.94
   2   2  -6   16.53    3.38
  -2  -2   5   55.28    6.15
  -2  -2   5   51.96    6.40
  -2  -2   5   53.86    5.35
   2   2  -5   51.18    6.23
   2   2  -5   50.60    8.40
  -2  -2   4  275.37   12.49
   2   2  -4  279.07   14.37
  -2  -2   4  255.30   13.99
  -2  -2   4  289.42   14.33
  -2  -2   3   13.83    1.59
   2   2  -3   16.22    2.89
  -2  -2   3   13.09    2.65
  -2  -2   3   14.02    1.45
  -2  -2   3   15.45    2.54
  -2  -2   3   14.50    4.14
   2   2  -3   19.44    5.08
   2   2  -3   13.81    2.77
   2   2  -2 1597.23   41.87
   2   2  -2 1544.96   41.97
  -2  -2   2 1619.62   40.80
   2   2  -2 1558.14   42.56
   2   2  -2 1638.29   36.73
  -2  -2   2 1606.27   36.59
  -2  -2   2 1510.00   51.29
  -2  -2   2 1630.20   42.13
   2   2  -2 1770.81   55.14
  -2  -2   2 1453.55   50.79
   2   2  -1   21.52    3.12
   2   2  -1   19.81    4.16
   2   2  -1   23.96    2.57
  -2  -2   1   18.59    2.22
  -2  -2   1   19.76    2.96
   2   2  -1   19.84    2.90
   2   2  -1   20.08    3.11
  -2  -2   1   24.28    4.96
  -2  -2   1   17.28    2.13
  -2  -2   1   15.91    2.84
  -2  -2   1   19.26    4.54
  -2  -2   1   21.17    3.03
   2   2   0    2.29    1.04
  -2  -2   0    1.43    0.82
   2   2   0    2.46    1.09
  -2  -2   0    1.29    0.61
   2   2   0    1.92    1.22
  -2  -2   0   -0.08    0.88
  -2  -2   0    1.53    0.85
  -2  -2   0    1.40    0.68
   2   2   0    1.70    1.64
  -2  -2   0    3.20    1.58
  -2  -2   0    1.54    0.96
   2   2   0    1.74    1.04
   2   2   0   -0.53    1.11
   2   2   1 1448.97   36.10
  -2  -2  -1 1495.16   35.90
  -2  -2  -1 1441.76   39.72
   2   2   1 1382.14   35.08
   2   2   1 1487.58   38.41
   2   2   1 1498.91   40.80
  -2  -2  -1 1519.71   37.71
  -2  -2  -1 1514.51   38.36
   2   2   1 1468.80   42.25
  -2  -2  -1 1450.60   33.88
  -2  -2  -1 1353.57   42.20
   2   2   1 1528.48   38.10
  -2  -2  -2   16.12    2.00
   2   2   2   17.10    2.86
  -2  -2  -2   16.31    2.79
   2   2   2   15.29    2.15
  -2  -2  -2   18.80    2.94
  -2  -2  -2   14.43    2.40
   2   2   2   14.74    1.95
   2   2   2   12.55    2.74
   2   2   2   17.96    2.62
   2   2   2   17.72    2.94
  -2  -2  -3   48.99    3.30
  -2  -2  -3   48.27    4.43
   2   2   3   53.08    4.55
   2   2   3   49.27    5.39
   2   2   3   54.75    4.63
   2   2   3   48.53    4.20
  -2  -2  -4 1086.14   25.87
  -2  -2  -4 1126.96   30.55
   2   2   4 1155.82   34.31
   2   2   4 1112.70   30.01
  -2  -2  -5   36.30    2.32
  -2  -2  -5   39.10    3.97
  -2  -2  -5   38.36    5.36
   2   2   5   35.12    5.08
   2   2   5   32.97    3.60
  -2  -2  -6  109.52    7.10
   2   2   6  102.68    6.69
   2   2   6  105.29    9.00
  -2  -2  -6  108.80    4.15
   2   2   7  266.95   15.55
   2   2   7  264.58   11.70
  -2  -2  -7  285.16   12.57
  -2  -2  -8   -2.29    2.80
  -2  -2  -8    3.32    2.05
   2   2   8    3.48    2.16
  -2  -2  -8    3.31    0.78
  -2  -2  -8    3.50    1.36
   2   2   8    1.59    1.08
  -2  -2  -9  134.39    5.04
   2   2   9  135.99   11.62
  -2  -2  -9  136.37    8.91
  -2  -2  -9  145.57   14.19
   2   2   9  132.74    8.18
  -2  -2  -9  141.09   13.67
  -2  -2 -10  656.36   16.05
  -2  -2 -10  688.91   34.71
   2   2  10  717.42   29.58
   2   2  10  615.91   21.73
  -2  -2 -10  627.49   23.19
   2   2  11   29.95    5.93
  -2  -2 -11   25.05    6.59
  -2  -2 -11   23.58    1.81
   2   2  11   26.21    3.71
  -2  -2 -11   26.00    7.28
   2   2  11   27.21    5.41
  -2  -2 -12  458.54   31.27
   2   2  12  413.99   23.08
   2   2  12  432.13   17.18
   2   2  12  435.88   23.18
  -2  -2 -12  453.56   31.08
  -2  -2 -12  386.28   10.19
  -2  -2 -13   13.62    5.67
   2   2  13   16.44    4.71
   2   2  13   19.70    3.51
  -2  -2 -13   30.36    8.23
  -2  -2 -14   -1.90    3.64
  -2  -2 -14   -1.60    3.94
   2   2  14    1.94    2.22
  -2  -2 -15  225.52   25.98
   2   2  15  193.05   17.75
  -2  -2 -15  204.31   24.94
  -2  -2 -16   49.52   12.71
   2   2  16   49.21    9.37
   2   2  17  101.37   13.94
   2   3 -14   17.34    6.36
  -2  -3  13   70.68   11.48
   2   3 -13   70.68   10.59
   2   3 -13   73.30   14.33
   2   3 -12   74.59   10.72
   2   3 -12  110.79   18.06
  -2  -3  12   85.30   11.79
  -2  -3  12   79.84    9.95
   2   3 -11    5.33    5.30
  -2  -3  11    4.97    3.05
   2   3 -11   10.33    4.63
  -2  -3  11    0.71    1.53
   2   3 -10  600.89   30.40
  -2  -3  10  580.67   24.77
  -2  -3  10  573.39   29.86
   2   3 -10  583.36   39.52
   2   3  -9   29.86    8.58
   2   3  -9   20.08    4.65
  -2  -3   9   30.65    4.79
  -2  -3   9   23.30    5.50
  -2  -3   8  926.10   37.12
   2   3  -8  950.20   38.41
  -2  -3   8  977.94   31.82
  -2  -3   7  657.21   36.95
   2   3  -7  655.43   28.81
   2   3  -7  659.00   29.87
  -2  -3   7  694.87   24.36
   2   3  -7  732.06   37.77
  -2  -3   7  720.41   29.68
  -2  -3   6   52.62    9.43
   2   3  -6   61.45    8.14
   2   3  -6   56.40    9.47
   2   3  -6   70.45    7.96
  -2  -3   6   62.21    5.83
  -2  -3   6   63.51    7.78
  -2  -3   6   49.61    7.14
  -2  -3   5  101.50   12.65
  -2  -3   5  117.91    9.99
   2   3  -5  114.06   10.61
  -2  -3   5  104.87    9.97
  -2  -3   5  124.49    8.04
   2   3  -5  137.07   14.18
   2   3  -4 1527.24   48.13
  -2  -3   4 1576.10   46.46
  -2  -3   4 1624.18   41.60
  -2  -3   3  162.07    5.49
  -2  -3   3  165.19   10.86
   2   3  -3  153.85   11.36
  -2  -3   3  168.55    8.92
  -2  -3   3  162.87   14.53
  -2  -3   3  158.64    9.24
  -2  -3   3  171.20    6.15
   2   3  -3  169.28   10.04
   2   3  -3  161.77    6.46
  -2  -3   3  154.53   14.38
   2   3  -2 5001.84  110.86
   2   3  -2 4848.55  105.11
   2   3  -2 4814.55  113.64
   2   3  -2 5128.90  113.45
  -2  -3   2 4936.69  108.00
  -2  -3   2 5085.47  105.95
  -2  -3   2 4869.83  112.74
  -2  -3   2 4890.84  104.04
  -2  -3   2 4902.52  122.82
   2   3  -2 5278.42  127.59
  -2  -3   2 4599.66  108.74
  -2  -3   2 4621.64  123.32
   2   3  -1  555.80   19.30
  -2  -3   1  558.91   20.74
   2   3  -1  604.54   19.02
  -2  -3   1  587.58   19.00
   2   3  -1  587.87   22.02
   2   3  -1  599.78   22.23
  -2  -3   1  571.24   22.03
   2   3  -1  580.11   21.11
  -2  -3   1  634.87   28.04
  -2  -3   1  579.75   27.92
  -2  -3   1  576.55   22.27
   2   3   0   67.03    5.78
  -2  -3   0   78.42    8.79
   2   3   0   70.30    6.64
   2   3   0   72.41    6.19
  -2  -3   0   70.43    5.80
  -2  -3   0   59.00    7.75
   2   3   0   71.70    7.87
  -2  -3   0   67.54    6.38
  -2  -3   0   65.28    5.50
   2   3   0   63.30    6.47
  -2  -3   0   60.70    6.31
   2   3   0   60.84    6.28
  -2  -3   0   63.39    6.59
  -2  -3  -1   79.65    7.01
  -2  -3  -1   73.09    5.55
   2   3   1   70.93    7.32
   2   3   1   74.89    5.84
   2   3   1   77.16    7.56
  -2  -3  -1   72.51    7.49
   2   3   1   75.24    6.65
  -2  -3  -1   73.63    5.71
  -2  -3  -1   75.75    6.39
   2   3   1   75.78    7.10
  -2  -3  -1   72.39    7.40
   2   3   2  485.00   16.43
  -2  -3  -2  476.46   16.06
   2   3   2  511.39   21.77
  -2  -3  -2  495.76   21.05
  -2  -3  -2  493.38   18.98
   2   3   2  513.25   20.57
   2   3   2  502.70   18.32
  -2  -3  -2  506.02   17.42
   2   3   2  491.40   19.46
  -2  -3  -2  502.40   19.94
   2   3   3  398.91   13.33
  -2  -3  -3  388.39   13.20
   2   3   3  410.09   15.98
  -2  -3  -3  395.80   16.14
   2   3   3  401.46   17.72
   2   3   3  443.51   19.52
   2   3   3  403.74   16.37
   2   3   4 2905.43   64.65
  -2  -3  -4 2888.90   64.53
   2   3   4 3092.04   71.84
   2   3   4 3110.01   70.74
   2   3   4 2981.30   76.70
  -2  -3  -4 2945.31   70.09
   2   3   4 2994.65   71.14
   2   3   5   36.17    4.78
   2   3   5   36.84    4.28
   2   3   5   41.49    6.08
  -2  -3  -5   41.48    4.57
  -2  -3  -5   37.97    2.62
   2   3   6  145.30    8.74
  -2  -3  -6  148.36    8.97
   2   3   6  157.56   12.57
  -2  -3  -7   18.38    4.74
   2   3   7    7.26    2.80
  -2  -3  -7   12.49    2.50
  -2  -3  -7   12.87    4.05
   2   3   7   10.13    2.23
   2   3   7    9.52    2.91
   2   3   8    5.16    1.59
  -2  -3  -8   11.96    4.42
   2   3   8    9.88    3.38
  -2  -3  -8    9.83    3.19
   2   3   8    8.72    1.88
  -2  -3  -8   10.00    2.45
   2   3   9   97.88   10.69
   2   3   9   91.08    7.03
   2   3   9  101.97   10.08
  -2  -3  -9  105.90   12.68
  -2  -3  -9   96.87    7.32
   2   3  10  232.41   17.60
   2   3  10  223.47   11.49
  -2  -3 -10  220.97   11.90
   2   3  10  211.68   15.93
  -2  -3 -10  241.76   20.61
  -2  -3 -11   54.70   10.60
  -2  -3 -11   51.04    5.69
  -2  -3 -11   51.31   10.33
   2   3  11   59.05    5.74
   2   3  11   62.94    8.82
   2   3  12   65.05    6.13
   2   3  12   56.02    8.90
  -2  -3 -12   54.80   10.73
  -2  -3 -12   61.44   11.38
  -2  -3 -13    0.85    4.09
  -2  -3 -13   -2.08    4.89
   2   3  13   -2.16    3.53
   2   3  13    6.38    1.74
   2   3  13    0.96    1.91
  -2  -3 -14   -0.74    4.57
   2   3  14   -1.82    2.85
   2   3  14    6.10    3.20
  -2  -3 -15   38.54   10.23
   2   3  15   30.41    6.66
  -2  -3 -15   40.09   11.37
   2   3  15   34.86    7.89
   2   3  16    3.45    3.80
  -2  -3 -16   15.13    5.31
  -2  -3 -17   44.99   13.81
   2   4 -14   15.28    6.65
   2   4 -13   -2.12    6.75
   2   4 -13   12.64    5.35
  -2  -4  13    6.58    3.60
   2   4 -12   17.80    5.40
   2   4 -12   17.86    6.55
  -2  -4  12   17.07    5.53
   2   4 -11    3.98    3.84
  -2  -4  11    9.22    3.62
   2   4 -11    3.40    4.25
   2   4 -10   98.46   14.79
  -2  -4  10   91.78    8.23
   2   4 -10   99.66   13.10
  -2  -4  10   96.44   11.77
  -2  -4   9   -1.18    3.17
   2   4  -9    1.20    2.35
  -2  -4   9    2.42    1.70
   2   4  -9   -2.36    3.33
   2   4  -8  340.29   23.09
  -2  -4   8  331.11   15.22
  -2  -4   8  325.87   20.73
   2   4  -8  346.16   26.89
   2   4  -7   30.55    7.63
  -2  -4   7   26.07    3.61
   2   4  -7   17.20    4.61
  -2  -4   7   23.20    5.01
  -2  -4   6   29.05    7.03
   2   4  -6   27.58    5.96
   2   4  -6   35.34    8.17
   2   4  -6   36.06    6.24
  -2  -4   6   41.61    4.49
  -2  -4   6   31.43    5.76
  -2  -4   6   36.19    5.60
  -2  -4   5   -0.46    2.21
  -2  -4   5    1.16    1.41
   2   4  -5    2.42    2.20
   2   4  -5    0.35    1.69
   2   4  -5    5.01    3.74
  -2  -4   5    1.74    1.32
  -2  -4   5    1.01    1.63
  -2  -4   4  368.86   24.12
   2   4  -4  399.33   22.16
  -2  -4   4  371.85   14.62
  -2  -4   4  392.04   24.34
   2   4  -4  367.02   11.11
  -2  -4   4  374.40   19.64
  -2  -4   4  386.81   17.84
   2   4  -4  455.33   26.60
   2   4  -4  359.56   19.68
   2   4  -3   55.97    8.82
   2   4  -3   51.07    6.91
   2   4  -3   53.87    4.32
   2   4  -3   51.28    5.51
  -2  -4   3   48.10    4.63
   2   4  -3   42.49    6.59
  -2  -4   3   55.44    8.32
  -2  -4   3   50.32    5.80
  -2  -4   3   57.65    4.51
  -2  -4   3   59.43    7.48
  -2  -4   2 3181.54   88.20
   2   4  -2 3080.67   75.59
   2   4  -2 3074.75   72.14
  -2  -4   2 3124.16   85.88
  -2  -4   2 2927.87   77.76
   2   4  -2 3035.57   81.11
  -2  -4   2 3211.54   72.30
  -2  -4   2 2996.38   79.96
   2   4  -2 3355.93   92.13
   2   4  -1  261.55   15.43
   2   4  -1  245.00   13.60
  -2  -4   1  259.77   17.63
   2   4  -1  255.04   14.53
  -2  -4   1  239.46   15.19
  -2  -4   1  260.47   16.42
   2   4  -1  254.28   13.10
  -2  -4   1  267.80   12.65
   2   4  -1  260.39   15.99
  -2  -4   1  273.41   18.56
  -2  -4   0   66.07    8.24
   2   4   0   62.33    7.32
  -2  -4   0   61.36    6.14
   2   4   0   57.38    6.56
   2   4   0   62.84    7.60
   2   4   0   48.38    5.86
  -2  -4   0   61.53    7.52
  -2  -4   0   52.15    5.68
   2   4   0   60.83    7.65
  -2  -4   0   59.81    7.94
  -2  -4   0   66.16    7.45
  -2  -4   0   54.55    5.97
   2   4   0   64.32    6.74
   2   4   1  246.77   14.24
   2   4   1  251.13   13.33
  -2  -4  -1  221.99   12.00
  -2  -4  -1  232.43   13.14
  -2  -4  -1  228.37   14.38
  -2  -4  -1  261.15   17.15
   2   4   1  220.82   15.51
  -2  -4  -1  254.55   15.05
   2   4   1  246.06   14.65
  -2  -4  -1  284.77   14.93
  -2  -4  -1  255.05   14.16
   2   4   1  232.04   15.78
  -2  -4  -2  526.68   22.22
  -2  -4  -2  566.25   21.57
   2   4   2  548.41   19.83
  -2  -4  -2  518.73   19.07
  -2  -4  -2  522.18   22.88
   2   4   2  524.05   22.53
  -2  -4  -2  502.73   21.76
   2   4   2  519.75   21.21
  -2  -4  -2  518.36   24.43
   2   4   2  572.57   25.88
   2   4   2  538.27   24.02
   2   4   3  850.12   25.46
  -2  -4  -3  839.97   25.60
   2   4   3  859.08   27.83
   2   4   3  865.14   29.64
  -2  -4  -3  878.94   31.57
   2   4   3  843.52   32.53
  -2  -4  -3  875.04   29.24
   2   4   3  892.61   34.09
  -2  -4  -3  846.66   29.27
   2   4   4 3970.35   96.46
  -2  -4  -4 4030.35   95.29
   2   4   4 4190.98   99.01
   2   4   4 3985.29   93.51
   2   4   4 4346.95  105.54
   2   4   4 4011.30   88.71
   2   4   5   73.63    4.40
  -2  -4  -5   73.57    6.81
   2   4   5   73.44    9.34
   2   4   5   77.89    7.64
  -2  -4  -6  804.82   27.10
   2   4   6  814.15   30.12
   2   4   6  836.51   35.77
  -2  -4  -7  266.77   13.54
   2   4   7  264.34   19.07
   2   4   7  275.20   16.47
  -2  -4  -7  296.17   20.39
  -2  -4  -8   25.86    6.48
   2   4   8   30.41    6.38
  -2  -4  -8   30.92    4.31
   2   4   8   30.53    5.72
  -2  -4  -9  654.40   23.51
  -2  -4  -9  722.96   37.03
   2   4   9  698.63   30.23
  -2  -4 -10  723.44   38.69
  -2  -4 -10  652.19   23.37
   2   4  10  683.71   31.46
  -2  -4 -11  102.67   14.51
   2   4  11  109.20   12.13
  -2  -4 -11   99.52    7.84
  -2  -4 -11  122.97   16.28
  -2  -4 -12  351.19   28.70
  -2  -4 -12  412.18   31.84
   2   4  12  357.12   23.89
  -2  -4 -13   43.67   10.48
   2   4  13   39.96    8.11
  -2  -4 -13   25.04    7.91
   2   4  14    8.21    4.86
  -2  -4 -14   11.09    6.86
  -2  -4 -14    7.69    5.76
   2   4  15   63.37   10.26
  -2  -4 -15   86.40   16.24
  -2  -4 -15   96.50   18.58
   2   4  15   68.74   11.82
  -2  -4 -16    8.84    8.17
   2   4  16    2.61    3.06
  -2  -5  13   99.14   14.06
   2   5 -13   97.14   14.92
   2   5 -12   36.58    8.37
  -2  -5  12   40.24    8.74
   2   5 -12   41.22   11.44
   2   5 -11   -1.04    2.96
  -2  -5  11   -3.00    3.62
   2   5 -10  341.65   26.45
  -2  -5  10  303.65   22.81
   2   5 -10  342.45   29.52
  -2  -5   9   -1.85    3.85
   2   5  -9   -0.53    3.13
   2   5  -9    7.37    3.45
  -2  -5   8  456.77   26.19
  -2  -5   8  434.72   16.56
   2   5  -8  460.93   29.57
  -2  -5   8  415.67   23.22
   2   5  -8  501.91   32.82
  -2  -5   7   22.06    4.88
   2   5  -7   33.45    6.98
  -2  -5   7   32.54    5.67
   2   5  -7   38.85    8.92
  -2  -5   7   36.27    4.02
   2   5  -6   35.30    8.05
   2   5  -6   32.08    6.40
  -2  -5   6   34.96    6.71
  -2  -5   6   40.36    8.65
  -2  -5   6   40.73    4.08
  -2  -5   6   31.65    7.54
  -2  -5   6   35.04    5.94
  -2  -5   5  184.85   17.84
  -2  -5   5  198.66   15.77
   2   5  -5  190.26   15.60
  -2  -5   5  222.77   19.02
   2   5  -5  189.26    6.48
  -2  -5   5  198.24   13.82
   2   5  -5  228.70   19.52
   2   5  -5  210.99   17.84
  -2  -5   4  161.32    6.50
   2   5  -4  155.96   14.73
  -2  -5   4  141.42   11.72
   2   5  -4  145.06    9.93
  -2  -5   4  164.16   15.94
  -2  -5   4  167.40   15.61
   2   5  -4  151.74    7.98
  -2  -5   4  159.68   13.79
   2   5  -4  159.75   14.08
   2   5  -4  185.52   16.99
   2   5  -3  219.92   16.37
  -2  -5   3  230.03   11.60
  -2  -5   3  186.93   14.93
   2   5  -3  218.79   17.06
   2   5  -3  182.23   11.65
  -2  -5   3  198.51   14.34
  -2  -5   3  212.03   17.01
   2   5  -3  233.08   19.08
   2   5  -3  205.77   11.11
  -2  -5   3  210.04   17.45
   2   5  -2  584.63   28.31
  -2  -5   2  548.77   26.95
  -2  -5   2  611.06   23.32
  -2  -5   2  536.19   26.76
  -2  -5   2  658.90   30.04
   2   5  -2  562.79   22.86
   2   5  -2  573.32   28.15
   2   5  -2  567.32   22.67
  -2  -5   1   32.37    4.69
   2   5  -1   39.78    5.47
  -2  -5   1   37.75    7.07
   2   5  -1   32.16    6.04
  -2  -5   1   46.55    7.43
   2   5  -1   37.56    5.43
   2   5  -1   38.05    6.71
   2   5  -1   36.69    6.45
  -2  -5   1   36.42    6.42
  -2  -5   1   41.36    6.59
   2   5   0    2.05    1.53
   2   5   0    6.23    2.55
  -2  -5   0    4.20    2.00
   2   5   0    8.80    3.41
  -2  -5   0    2.03    1.29
   2   5   0    4.17    2.40
  -2  -5   0    2.04    1.24
  -2  -5   0    2.30    1.77
  -2  -5   0    4.05    2.35
   2   5   1  293.57   18.50
  -2  -5  -1  299.95   17.07
   2   5   1  278.80   15.71
   2   5   1  322.88   20.81
  -2  -5  -1  319.35   17.09
  -2  -5  -1  263.65   17.80
  -2  -5  -1  316.38   18.61
   2   5   1  309.81   16.93
  -2  -5  -1  347.39   21.59
   2   5   2   75.04    7.41
  -2  -5  -2   67.76    8.18
  -2  -5  -2   86.16   10.34
   2   5   2   75.66    9.47
  -2  -5  -2   69.70    8.04
   2   5   2   73.10    9.32
  -2  -5  -2   68.82    8.09
   2   5   2   73.69    7.32
   2   5   3  169.63   11.03
  -2  -5  -3  191.37   14.50
   2   5   3  199.01   11.57
  -2  -5  -3  183.81   13.32
   2   5   3  196.58   16.01
  -2  -5  -3  201.84   13.82
  -2  -5  -3  187.33   15.09
   2   5   4  841.60   37.39
   2   5   4  826.93   27.63
  -2  -5  -4  792.00   30.65
  -2  -5  -4  913.78   33.02
   2   5   4  837.18   26.27
  -2  -5  -4  850.35   34.94
  -2  -5  -5   38.16    7.23
  -2  -5  -5   35.41    5.24
   2   5   5   35.17    3.72
   2   5   5   41.43    7.83
   2   5   5   39.08    6.38
   2   5   5   36.13    5.01
   2   5   5   38.05    6.06
   2   5   6  136.69    6.30
  -2  -5  -6  125.28    9.85
   2   5   6  137.19   11.70
   2   5   6  145.17   12.24
  -2  -5  -6  140.75   13.96
   2   5   6  143.91   15.06
   2   5   7   35.95    6.16
   2   5   7   23.74    4.69
   2   5   7   24.44    6.34
  -2  -5  -7   33.57    7.45
  -2  -5  -7   25.96    4.36
  -2  -5  -8   25.92    7.02
   2   5   8   33.77    5.98
  -2  -5  -8   27.12    4.28
   2   5   8   25.74    5.48
  -2  -5  -9  292.28   15.17
  -2  -5  -9  345.14   25.82
   2   5   9  313.46   20.13
   2   5  10  433.32   25.20
  -2  -5 -10  413.20   18.36
  -2  -5 -10  477.44   32.60
  -2  -5 -11  141.95    9.80
   2   5  11  141.03   14.54
  -2  -5 -11  170.59   19.81
   2   5  12  331.29   23.51
  -2  -5 -12  346.41   30.57
  -2  -5 -12  310.26   26.89
  -2  -5 -13  115.74   17.14
  -2  -5 -13  125.11   19.14
   2   5  13  133.87   15.08
  -2  -5 -14   20.98    7.15
  -2  -5 -14   18.27    8.86
   2   5  14   21.74    6.69
  -2  -5 -15  239.33   29.74
  -2  -5 -15  207.06   25.76
   2   5  16   10.33    4.07
  -2  -6  13   56.82   11.51
   2   6 -12  166.88   20.68
   2   6 -12  216.77   24.77
   2   6 -11   47.20   10.41
   2   6 -11   39.89   10.69
  -2  -6  11   38.47    8.91
   2   6 -10  539.47   35.75
  -2  -6  10  459.50   30.61
   2   6 -10  538.92   37.65
   2   6  -9    7.11    5.15
   2   6  -9    9.19    4.78
  -2  -6   9    6.45    4.23
  -2  -6   8  762.70   38.38
   2   6  -8  820.84   43.86
   2   6  -8  881.69   45.46
  -2  -6   7  381.02   24.92
  -2  -6   7  358.53   22.12
   2   6  -7  381.11   27.67
   2   6  -7  432.35   29.74
   2   6  -6   44.83    8.96
   2   6  -6   48.86    9.58
  -2  -6   6   49.13    8.45
  -2  -6   6   44.47    7.24
   2   6  -5  211.73   19.28
   2   6  -5  189.49    8.88
  -2  -6   5  195.77   17.70
  -2  -6   5  199.67   17.17
  -2  -6   5  192.80   15.32
   2   6  -5  233.30   20.19
  -2  -6   5  206.30   19.15
  -2  -6   4  815.98   38.88
  -2  -6   4  812.39   24.34
   2   6  -4  852.02   40.72
   2   6  -4  827.91   39.50
   2   6  -4  733.37   26.54
  -2  -6   4  785.51   36.10
  -2  -6   4  830.99   37.65
  -2  -6   4  767.05   33.81
   2   6  -4  765.75   26.28
  -2  -6   3  210.01   17.30
   2   6  -3  220.06   18.36
  -2  -6   3  245.47   18.15
   2   6  -3  207.91   13.11
  -2  -6   3  258.59   14.08
   2   6  -3  218.33   13.39
  -2  -6   3  205.99   16.48
   2   6  -3  214.97   18.29
  -2  -6   3  204.99   17.62
   2   6  -2 2141.69   68.76
  -2  -6   2 2302.09   67.05
   2   6  -2 1944.07   59.74
   2   6  -2 1995.63   58.06
  -2  -6   2 2284.69   60.39
  -2  -6   2 2199.22   69.12
   2   6  -2 2151.32   70.06
  -2  -6   2 2044.60   67.99
  -2  -6   1  103.54   12.09
   2   6  -1   84.46    8.77
   2   6  -1   85.40   10.55
   2   6  -1   75.20    9.04
  -2  -6   1   96.03   10.53
  -2  -6   1   81.57   10.95
   2   6  -1   90.31   11.58
  -2  -6   1   99.66    9.88
   2   6   0   21.48    5.69
  -2  -6   0   34.65    6.70
   2   6   0   23.81    5.55
   2   6   0   28.09    6.16
  -2  -6   0   25.63    5.02
  -2  -6   0   37.27    6.90
  -2  -6   0   30.70    6.71
   2   6   0   21.68    4.81
  -2  -6   0   25.46    5.03
  -2  -6  -1    3.31    2.17
  -2  -6  -1   16.89    4.89
   2   6   1    5.73    2.98
  -2  -6  -1    5.04    1.68
   2   6   1    8.38    3.29
   2   6   1    6.38    2.34
  -2  -6  -1    9.84    3.94
  -2  -6  -1    8.26    2.95
   2   6   2  228.77   18.33
   2   6   2  194.07   14.00
  -2  -6  -2  190.73   17.13
  -2  -6  -2  147.18   13.95
   2   6   2  179.19   11.68
  -2  -6  -2  191.44   15.45
   2   6   2  170.35   15.95
  -2  -6  -2  173.95   14.50
   2   6   3  393.51   19.25
  -2  -6  -3  372.67   22.50
  -2  -6  -3  375.08   21.91
  -2  -6  -3  339.15   22.77
  -2  -6  -3  325.69   20.51
   2   6   3  426.71   25.26
   2   6   3  363.60   16.99
   2   6   3  349.09   24.30
   2   6   3  357.40   22.95
  -2  -6  -4  370.91   21.02
   2   6   4  334.64   16.47
  -2  -6  -4  363.95   21.79
   2   6   4  362.45   23.07
  -2  -6  -4  379.02   23.56
   2   6   4  354.66   21.87
   2   6   4  345.12   24.80
   2   6   4  395.45   17.79
   2   6   5   92.06    7.20
   2   6   5   92.09    7.78
  -2  -6  -5   78.61    9.09
   2   6   5  104.10   11.73
  -2  -6  -5   91.84   11.70
  -2  -6  -5  109.12   11.25
   2   6   5   96.75   12.97
   2   6   5   93.39   10.74
  -2  -6  -6   28.58    6.29
   2   6   6   29.37    6.09
  -2  -6  -6   28.47    5.30
   2   6   6   26.07    3.27
   2   6   6   36.80    6.80
   2   6   6   29.67    4.59
  -2  -6  -7   28.49    5.02
  -2  -6  -7   17.43    4.17
   2   6   7   22.43    5.37
   2   6   7   29.60    5.78
  -2  -6  -8   -0.02    4.21
  -2  -6  -8    3.02    1.78
   2   6   8    5.36    3.86
  -2  -6  -9   64.03   10.97
  -2  -6  -9   70.22    7.71
   2   6   9   74.35   10.32
  -2  -6 -10    2.14    1.59
  -2  -6 -10    1.63    3.45
   2   6  10    1.42    2.44
   2   6  11   68.55   10.28
  -2  -6 -11   85.31   14.47
  -2  -6 -12   68.68   14.19
   2   6  12   67.22   10.74
  -2  -6 -12   67.01   12.50
  -2  -6 -13    1.22    4.90
  -2  -6 -13    1.89    3.07
   2   6  13   -5.01    4.79
  -2  -6 -14    1.35    3.20
  -2  -6 -14    1.31    7.72
   2   6  14   -1.99    4.60
  -2  -6 -15   16.69    8.39
   2   7 -11    5.80    3.75
   2   7 -11    3.42    4.30
   2   7 -10  114.49   17.14
   2   7 -10  109.20   16.92
  -2  -7  10  102.46   14.59
   2   7  -9   26.10    7.44
   2   7  -9   25.23    7.50
  -2  -7   9   33.61    8.29
   2   7  -8  371.45   29.65
   2   7  -8  341.20   28.12
  -2  -7   8  298.95   24.43
   2   7  -7   38.76    8.42
  -2  -7   7   45.42    9.61
   2   7  -7   38.37    9.11
  -2  -7   6   35.95    7.89
   2   7  -6   46.23    9.75
   2   7  -6   38.75    2.87
   2   7  -6   40.04    9.58
   2   7  -5   38.00    8.98
   2   7  -5   35.90    4.51
  -2  -7   5   28.32    6.92
   2   7  -5   39.58    8.49
  -2  -7   5   32.86    7.37
  -2  -7   5   31.27    6.67
  -2  -7   4  446.71   27.76
  -2  -7   4  477.16   19.09
   2   7  -4  457.76   30.37
  -2  -7   4  488.61   27.52
  -2  -7   4  439.61   26.65
  -2  -7   4  432.99   28.05
   2   7  -4  424.13   18.43
   2   7  -4  392.19   19.87
  -2  -7   3  230.61   18.66
   2   7  -3  215.26   19.56
   2   7  -3  207.57   13.71
  -2  -7   3  253.13   18.58
   2   7  -3  191.63   14.38
  -2  -7   3  226.22   19.76
  -2  -7   3  240.85   19.62
  -2  -7   3  287.41   15.98
   2   7  -2 1705.75   63.34
   2   7  -2 1701.08   52.58
  -2  -7   2 1652.04   63.55
   2   7  -2 1528.13   54.79
   2   7  -2 1768.60   62.43
  -2  -7   2 1971.11   65.56
  -2  -7   2 2015.90   60.50
  -2  -7   2 2049.22   57.07
  -2  -7   2 1782.82   60.06
   2   7  -1  152.50   15.72
   2   7  -1  131.27   14.36
   2   7  -1  117.16   10.99
  -2  -7   1  125.01   14.86
  -2  -7   1  136.73   12.59
  -2  -7   1  145.41   15.19
  -2  -7   1  131.60   12.09
   2   7  -1  105.56   12.00
  -2  -7   0   60.43    8.64
   2   7   0   52.97    8.64
   2   7   0   78.15   10.41
   2   7   0   74.60   11.45
   2   7   0   51.29    7.74
  -2  -7   0   73.88    8.23
  -2  -7   0   71.87   11.02
   2   7   0   75.03   11.31
  -2  -7   0   71.60   10.45
   2   7   1  592.61   30.25
   2   7   1  529.76   31.07
  -2  -7  -1  667.72   35.51
  -2  -7  -1  668.24   33.88
   2   7   1  668.81   35.84
  -2  -7  -1  663.20   24.88
   2   7   1  717.52   36.91
  -2  -7  -1  558.96   29.63
   2   7   2  311.64   19.83
  -2  -7  -2  246.66   19.85
   2   7   2  325.40   23.86
   2   7   2  248.46   21.14
  -2  -7  -2  267.05   20.40
  -2  -7  -2  306.81   23.08
   2   7   2  304.53   23.07
  -2  -7  -2  287.27   20.62
   2   7   3  716.17   30.17
  -2  -7  -3  714.06   34.28
  -2  -7  -3  731.25   37.01
   2   7   3  697.51   36.37
   2   7   3  641.72   24.19
  -2  -7  -3  579.16   31.41
   2   7   3  617.45   35.75
  -2  -7  -3  649.91   33.71
   2   7   3  756.80   37.26
  -2  -7  -4 2155.28   70.25
   2   7   4 2110.19   58.82
  -2  -7  -4 1864.97   63.59
  -2  -7  -4 1934.58   66.32
   2   7   4 2039.61   69.23
   2   7   4 2198.82   71.22
   2   7   4 1912.04   53.10
   2   7   5    7.61    2.59
   2   7   5    6.92    3.21
   2   7   5    1.72    2.78
  -2  -7  -5    9.16    4.04
  -2  -7  -5    6.89    3.29
   2   7   5    6.54    2.12
  -2  -7  -5    3.98    2.79
   2   7   6  501.42   19.44
   2   7   6  500.61   20.51
   2   7   6  511.19   29.11
  -2  -7  -6  462.99   30.60
  -2  -7  -6  439.31   24.65
   2   7   7  370.73   13.77
   2   7   7  366.98   17.71
  -2  -7  -7  386.37   28.22
   2   7   7  365.88   24.56
  -2  -7  -7  331.42   20.35
  -2  -7  -8   29.91    7.96
   2   7   8   10.68    3.19
   2   7   8   23.13    6.63
  -2  -7  -8   15.85    4.30
  -2  -7  -9  382.15   30.43
  -2  -7  -9  324.62   19.11
   2   7   9  335.14   24.05
   2   7  10  128.99   15.00
  -2  -7 -10  138.01   19.33
  -2  -7 -11   98.99   14.67
  -2  -7 -11  129.40   18.88
   2   7  11  127.25   15.10
  -2  -7 -12  132.44   17.60
   2   7  12  157.72   17.42
  -2  -7 -12  164.96   22.66
  -2  -7 -13   13.85    5.50
  -2  -7 -13   33.07   10.56
   2   7  13   44.23    9.81
  -2  -7 -14   15.84    6.85
   2   8 -10  138.59   19.52
  -2  -8   9   29.50    7.96
   2   8  -9   40.00   11.05
   2   8  -9   27.31    8.34
   2   8  -8  188.11   22.14
   2   8  -8  149.64   18.14
  -2  -8   8  138.09   17.24
  -2  -8   7   -3.71    4.98
   2   8  -7    0.52    3.79
   2   8  -7    4.80    4.44
   2   8  -6    3.14    2.47
   2   8  -6    9.51    4.77
  -2  -8   6   11.14    4.09
  -2  -8   5    8.45    3.58
   2   8  -5   26.69    8.00
  -2  -8   4   29.47    6.38
   2   8  -4   34.87    6.07
  -2  -8   4   41.14    5.78
   2   8  -4   46.60   10.23
  -2  -8   4   46.37    8.14
   2   8  -4   32.72    4.46
  -2  -8   4   24.80    7.05
  -2  -8   3  181.53   18.84
  -2  -8   3  171.29   16.12
  -2  -8   3  191.94   18.38
   2   8  -3  188.43   19.28
   2   8  -3  154.62   14.01
  -2  -8   3  190.80   14.02
   2   8  -3  174.04   12.65
  -2  -8   3  197.28   16.47
   2   8  -2  258.70   22.01
  -2  -8   2  250.36   17.77
   2   8  -2  209.76   14.95
  -2  -8   2  266.18   21.68
   2   8  -2  178.95   16.21
   2   8  -2  252.58   21.46
  -2  -8   2  242.81   21.94
  -2  -8   2  267.21   17.82
  -2  -8   2  245.13   18.58
  -2  -8   1   63.11    9.10
   2   8  -1   50.68    8.72
  -2  -8   1   66.53    9.20
   2   8  -1   57.38    9.83
   2   8  -1   51.73    7.62
  -2  -8   1   70.38   10.87
  -2  -8   1   62.98    8.09
  -2  -8   1   57.54   10.57
   2   8  -1   49.51    9.30
   2   8   0    6.78    3.83
  -2  -8   0    1.65    1.71
   2   8   0   -0.11    2.22
  -2  -8   0   -0.31    2.69
  -2  -8   0    3.89    2.33
  -2  -8   0    5.38    2.97
   2   8   0    4.22    2.54
  -2  -8   0    3.68    2.73
   2   8   0    1.21    4.05
  -2  -8  -1    0.81    2.14
   2   8   1    3.98    2.09
   2   8   1    5.32    2.95
  -2  -8  -1    4.64    3.94
   2   8   1    8.71    4.14
  -2  -8  -1    1.29    3.12
  -2  -8  -2   97.73   13.85
   2   8   2   77.90   10.22
  -2  -8  -2   68.86   10.59
  -2  -8  -2   75.41   11.19
   2   8   2   86.41   12.80
   2   8   3  345.45   21.60
   2   8   3  322.19   25.56
  -2  -8  -3  325.34   24.13
   2   8   4  218.69   20.63
   2   8   4  223.27   16.08
  -2  -8  -4  203.08   19.18
   2   8   4  186.56   11.03
  -2  -8  -5   18.23    5.69
   2   8   5   26.53    7.65
   2   8   5   19.60    4.18
   2   8   5   17.89    3.18
   2   8   6  171.87   17.68
   2   8   6  201.27   12.85
   2   8   6  176.34   11.31
  -2  -8  -6  171.80   19.00
   2   8   7  180.16   10.42
  -2  -8  -7  181.37   20.21
   2   8   7  165.25   11.28
  -2  -8  -7  146.94   14.27
   2   8   7  163.61   17.45
  -2  -8  -8   -1.93    3.16
  -2  -8  -8   -0.48    1.88
   2   8   8   -2.25    1.59
   2   8   8   -4.02    3.75
   2   8   9  354.65   26.67
   2   8   9  322.84   17.66
  -2  -8  -9  349.04   30.33
  -2  -8 -10   90.27   15.65
   2   8  10  105.94   14.48
   2   8  10  107.81   10.30
  -2  -8 -11  106.30   14.43
  -2  -8 -11   84.08   15.97
   2   8  11  109.29   15.09
  -2  -8 -12  289.32   25.29
   2   8  12  297.13   25.55
  -2  -8 -12  305.81   31.47
  -2  -8 -13  118.28   17.13
   2   9 -10  318.70   30.62
   2   9  -9    2.35    3.62
   2   9  -8  386.79   31.56
  -2  -9   7  134.63   17.48
   2   9  -7  154.52   20.43
  -2  -9   6   19.10    6.84
   2   9  -6   22.53    8.81
   2   9  -5  185.18   21.36
  -2  -9   5  156.24   19.05
   2   9  -4  313.28   26.74
  -2  -9   4  248.48   24.41
  -2  -9   3  209.34   15.57
   2   9  -3  171.54   19.65
   2   9  -3  193.05   13.15
   2   9  -3  159.37   15.31
  -2  -9   3  165.61   19.54
  -2  -9   2  419.02   25.29
   2   9  -2  573.91   35.04
   2   9  -2  422.06   27.43
   2   9  -2  504.69   24.75
  -2  -9   2  482.52   33.70
  -2  -9   2  563.91   28.23
   2   9  -2  555.87   34.72
   2   9  -1    6.63    4.17
  -2  -9   1    5.87    2.48
  -2  -9   1    3.38    1.50
   2   9  -1    1.74    2.02
  -2  -9   1    0.97    3.93
   2   9  -1   -0.14    3.52
  -2  -9   1    6.59    2.91
  -2  -9   0   18.68    4.86
   2   9   0   13.84    5.28
  -2  -9   0   15.27    5.89
   2   9   0   18.60    5.54
  -2  -9   0   17.91    6.93
  -2  -9   0   17.39    3.61
   2   9   0   14.21    5.45
   2   9   1   19.17    5.94
  -2  -9  -1   19.77    5.58
  -2  -9  -1   13.90    3.58
  -2  -9  -1   17.23    7.33
   2   9   1    9.15    4.73
   2   9   2   15.15    5.82
  -2  -9  -2   17.34    5.89
   2   9   2   14.60    5.28
  -2  -9  -2   17.51    6.57
  -2  -9  -3  123.29   15.05
   2   9   3  121.74   13.81
   2   9   3  131.60   16.84
   2   9   4   47.19    7.76
  -2  -9  -4   39.57    8.80
   2   9   4   45.69   10.23
  -2  -9  -5   74.50   12.75
   2   9   5   68.66   11.87
   2   9   5   84.86    9.85
   2   9   6   24.40    4.84
  -2  -9  -6   20.62    5.84
   2   9   6   29.97    8.82
  -2  -9  -7    1.79    3.57
   2   9   7   -2.18    4.04
  -2  -9  -8    1.88    3.40
   2   9   8   -1.56    5.33
  -2  -9  -9   29.88    8.76
   2   9   9   26.77    6.93
  -2  -9 -10    8.60    5.28
   2   9  10    3.67    4.80
   2   9  11   43.86   10.07
   2  10  -5  163.20   20.64
  -2 -10   5  123.56   18.28
   2  10  -4  367.49   30.03
  -2 -10   4  281.98   27.32
   2  10  -3  242.33   24.24
  -2 -10   3  239.55   24.61
   2  10  -2  781.50   43.64
  -2 -10   2  719.27   43.65
   2  10  -2  801.97   44.63
  -2 -10   2  800.95   36.54
   2  10  -1   60.54   11.59
  -2 -10   1   42.62    8.18
   2  10  -1   48.74    7.77
  -2 -10   1   33.37    9.15
   2  10  -1   52.00   11.01
   2  10   0  117.27   15.43
   2  10   0  106.97   12.16
  -2 -10   0  112.15   16.48
   2  10   0  117.25   16.29
  -2 -10   0  126.24   14.52
   2  10   1  512.55   32.24
  -2 -10  -1  499.08   35.24
   2  10   1  458.90   27.72
  -2 -10  -1  502.23   30.95
   2  10   1  544.02   36.07
   2  10   2  119.98   14.73
  -2 -10  -2   98.36   13.79
  -2 -10  -2   93.97   15.50
   2  10   2  112.28   15.76
   2  10   3  449.65   28.05
   2  10   3  444.52   32.73
  -2 -10  -3  400.26   29.02
   2  10   4  420.63   25.95
   2  10   4  381.05   30.83
  -2 -10  -4  365.70   28.53
  -2 -10  -5   23.59    7.71
   2  10   5   29.87    6.36
   2  10   5   25.26    7.44
   2  10   6  207.96   23.04
  -2 -10  -6  218.55   22.89
  -2 -10  -7  159.92   20.40
   2  10   7  146.28   19.79
   2  10   8   19.86    6.95
  -2 -10  -8   15.39    7.09
   2  10   9   90.05   15.21
   2  11  -3  100.10   15.31
   2  11  -2   89.32   14.34
  -2 -11   2   80.91   14.79
   2  11  -1   15.14    6.00
   2  11  -1   11.20    6.80
  -2 -11   1    9.65    6.73
  -2 -11   1    1.57    2.66
  -2 -11   0    9.55    3.94
   2  11   0   23.34    7.96
  -2 -11   0   25.48    8.18
   2  11   0   20.47    7.10
  -2 -11  -1  112.11   14.74
   2  11   1  109.51   14.85
  -2 -11  -1  118.31   17.42
   2  11   1  129.76   17.32
   2  11   2    4.06    1.96
  -2 -11  -2   14.37    6.05
   2  11   2    8.59    3.83
   2  11   2    6.45    3.52
   2  11   3  211.75   19.77
   2  11   3  178.27   21.06
  -2 -11  -3  188.63   20.42
  -2 -11  -4  157.70   19.31
   2  11   4  193.82   17.78
   2  11   4  177.34   21.78
  -2 -11  -5    2.12    4.30
   2  11   5   12.94    5.64
  -2 -11  -6  272.46   26.55
   2  11   6  267.18   27.82
   2  11   7  179.33   22.98
   2  12  -1   14.28    6.95
   2  12  -1   11.38    6.35
   2  12   0   22.39    7.64
   2  12   0   21.98    8.17
  -2 -12  -1   10.33    5.09
   2  12   1    4.69    3.99
   2  12   1   16.13    5.79
   2  12   2    3.90    3.96
  -2 -12  -2   -4.09    4.00
  -2 -12  -3   45.43   10.74
   2  12   3   32.68    9.29
  -2 -12  -4    8.43    5.21
   2  12   4   -4.80    5.90
   2  12   5   37.31   10.57
   3 -12  -2   36.16   10.46
  -3  12   2   38.03    8.95
  -3  12   1   88.31   13.34
   3 -12  -1   72.96   14.29
  -3  12   0  159.74   18.18
   3 -12   0  129.46   19.13
   3 -12   1   27.13    9.66
   3 -12   2   68.85   12.76
   3 -11  -3   43.89    9.76
   3 -11  -3   36.61   10.10
   3 -11  -2   82.23   14.76
   3 -11  -2   64.28   11.75
   3 -11  -1   42.93    9.95
   3 -11  -1   39.38    9.97
  -3  11   1   66.47   13.90
   3 -11   0   70.08   13.45
   3 -11   0   61.01   13.07
  -3  11   0   56.98   13.94
   3 -11   1    3.52    3.04
   3 -11   1    8.04    6.42
  -3  11  -1    2.28    4.91
   3 -11   2   26.53    8.42
   3 -11   2   27.77    9.30
  -3  11  -2   33.88   10.64
   3 -11   3   30.25    8.82
   3 -11   3   15.93    6.29
  -3  11  -3   12.62    5.59
   3 -11   3   11.92    6.12
   3 -11   4   48.15   10.10
  -3  11  -4   41.06    9.68
   3 -10  -6  325.91   31.83
  -3  10   6  266.01   28.93
   3 -10  -5   -2.90    6.07
  -3  10   5   -3.35    5.55
   3 -10  -4  116.96   17.74
  -3  10   4  120.81   19.01
   3 -10  -4   90.22   12.92
   3 -10  -3  372.72   31.86
   3 -10  -3  300.15   24.88
  -3  10   3  406.72   34.90
   3 -10  -2   11.33    6.44
   3 -10  -2    9.03    4.88
  -3  10   2    9.59    6.91
   3 -10  -1  653.95   43.01
   3 -10  -1  584.73   37.45
   3 -10   0  267.64   25.13
   3 -10   0  221.08   22.61
   3 -10   1   58.13   11.56
   3 -10   1   42.94   10.33
  -3  10  -1   53.11   12.81
   3 -10   2   62.55   11.99
   3 -10   2   50.25   10.71
  -3  10  -2   59.86   13.76
   3 -10   2   46.69   10.98
   3 -10   3   70.32   12.26
   3 -10   3   60.78   12.39
   3 -10   3   68.22   13.28
  -3  10  -3   85.62   16.31
   3 -10   4   -2.10    2.82
   3 -10   4    0.06    3.85
   3 -10   4    4.25    4.36
   3 -10   5  342.33   31.79
   3 -10   5  386.44   27.86
   3 -10   6   36.41   10.79
   3 -10   6   49.35   10.18
  -3  10  -6   37.84    9.18
   3 -10   7   23.50    8.34
   3  -9  -8   68.13   15.36
  -3   9   8   65.47   13.78
   3  -9  -7   40.49   11.66
  -3   9   7   25.61    8.02
   3  -9  -6  113.29   18.93
  -3   9   6   79.79   14.65
   3  -9  -5   13.42    7.91
  -3   9   5   14.18    7.34
   3  -9  -5    3.70    2.37
   3  -9  -4   -4.11    5.40
   3  -9  -4    3.73    2.62
  -3   9   4    7.96    4.65
   3  -9  -3  225.70   23.91
  -3   9   3  223.85   24.91
   3  -9  -3  152.11   16.48
   3  -9  -2   40.82   10.13
   3  -9  -2   15.88    6.00
  -3   9   2   45.94   12.41
   3  -9  -1  912.18   47.99
  -3   9   1  996.23   54.31
  -3   9   0  372.97   32.52
   3  -9   0  323.24   26.77
   3  -9   1  103.65   14.82
  -3   9  -1   91.88   10.43
   3  -9   1   84.71   13.46
  -3   9  -1  117.68   18.64
   3  -9   2  173.30   19.04
   3  -9   2  180.37   20.15
   3  -9   2  145.03   18.31
  -3   9  -2  210.19   24.97
   3  -9   3  157.69   18.56
   3  -9   3  155.71   17.33
   3  -9   3  117.14   16.63
  -3   9  -3  169.45   22.29
   3  -9   4  102.18   13.73
   3  -9   4   69.92   13.07
   3  -9   4   93.58   14.86
  -3   9  -4  105.98   17.71
   3  -9   5 1099.97   48.83
   3  -9   5  968.64   53.79
   3  -9   6   70.64   13.62
  -3   9  -6   72.84   11.59
   3  -9   6   95.64   15.13
  -3   9  -7  305.89   23.68
   3  -9   7  290.98   28.47
  -3   9  -8  144.48   18.38
   3  -9   8  129.63   18.04
   3  -9   8   90.37   16.60
  -3   9  -9    6.83    4.49
   3  -9   9   -0.52    4.39
   3  -9   9   -5.79    6.25
   3  -9  10   88.50   14.87
   3  -8 -10    6.21    6.56
  -3   8   9  147.15   19.38
   3  -8  -9  183.90   25.01
   3  -8  -8   67.44   14.88
  -3   8   8   57.06   11.57
   3  -8  -7   99.50   16.81
  -3   8   7   93.80   15.87
   3  -8  -6   35.57    9.87
  -3   8   6   19.35    7.21
  -3   8   5    6.50    2.83
   3  -8  -5    9.07    3.57
   3  -8  -5   17.49    7.60
  -3   8   4   99.50   15.76
   3  -8  -4   93.02   10.93
   3  -8  -4  125.18   17.42
   3  -8  -3   55.18    9.03
  -3   8   3   60.10   12.76
   3  -8  -3   73.68   13.30
   3  -8  -2   57.92   11.93
   3  -8  -2   27.05    5.88
  -3   8   2   50.67   11.08
   3  -8  -1  196.93   20.40
  -3   8   1  237.58   25.10
   3  -8   0   71.71   11.76
  -3   8   0   81.16   14.89
   3  -8   1    4.69    4.74
   3  -8   1   -1.83    4.43
  -3   8  -1   -2.19    3.46
   3  -8   2   95.46   13.11
  -3   8  -2   84.51    9.21
   3  -8   2  116.53    5.59
   3  -8   2   66.25   11.37
   3  -8   2  114.24   15.08
  -3   8  -2  108.31   16.90
   3  -8   3   63.78   10.31
  -3   8  -3   77.40    8.05
   3  -8   3   53.12   10.65
   3  -8   3   88.73    7.00
   3  -8   3   74.80   12.46
  -3   8  -3   73.67   14.10
   3  -8   4    4.55    3.41
   3  -8   4   -3.83    5.25
   3  -8   4    4.94    3.31
  -3   8  -4    3.28    1.50
  -3   8  -4    4.36    1.13
  -3   8  -4    1.40    4.26
   3  -8   5  643.45   37.75
   3  -8   5  554.84   31.47
   3  -8   5  492.85   35.00
  -3   8  -5  537.79   30.12
  -3   8  -5  627.51   24.80
  -3   8  -6   57.73    8.87
   3  -8   6   50.77   10.92
  -3   8  -6   44.63    8.60
  -3   8  -6   61.58    7.58
   3  -8   6   60.22   12.09
  -3   8  -7  104.14   12.59
   3  -8   7   91.89   14.84
   3  -8   7  107.20   15.12
  -3   8  -7  137.07   12.20
   3  -8   8   14.84    5.44
  -3   8  -8   19.24    5.01
   3  -8   8   10.36    3.70
  -3   8  -8   13.25    5.53
  -3   8  -9    5.58    3.78
  -3   8  -9    8.01    4.60
   3  -8   9    2.84    3.80
   3  -8   9    2.38    4.18
  -3   8 -10  149.18   19.32
   3  -8  10  141.32   19.86
  -3   8 -10  147.33   15.62
   3  -8  10  130.45   17.93
   3  -8  11  311.21   30.70
   3  -8  11  336.15   29.65
  -3   8 -11  397.09   27.63
  -3   8 -12   15.31    6.96
   3  -7 -11  122.30   20.81
  -3   7  11   87.48   14.57
   3  -7 -10   38.28   10.77
  -3   7  10   45.28   10.56
  -3   7   9  366.66   29.83
   3  -7  -9  388.51   24.05
   3  -7  -9  418.89   36.70
   3  -7  -8  112.75   18.21
   3  -7  -8  110.63   11.19
  -3   7   8   82.88   13.89
   3  -7  -7  681.99   27.14
   3  -7  -7  616.08   20.42
  -3   7   7  631.19   38.67
  -3   7   6  364.91   16.12
   3  -7  -6  345.67   16.61
  -3   7   6  409.71   30.59
   3  -7  -6  365.32   16.24
   3  -7  -6  413.81   33.75
  -3   7   5    6.01    1.50
   3  -7  -5    4.79    2.65
  -3   7   4   91.51   14.27
   3  -7  -4  121.77   17.11
  -3   7   3  466.82   33.81
   3  -7  -3  459.96   24.45
   3  -7  -2   -7.54    4.18
   3  -7  -2   -1.58    3.13
  -3   7   2    0.40    3.71
   3  -7  -1 1521.25   61.15
  -3   7   1 1694.14   68.59
   3  -7   0  178.18   18.38
   3  -7   0  132.61   13.98
  -3   7  -1   13.67    4.38
   3  -7   1   15.37    5.12
   3  -7   1    9.78    4.68
   3  -7   1    6.96    3.10
  -3   7  -1   15.02    7.23
  -3   7  -2   23.07    5.99
   3  -7   2   20.86    5.28
   3  -7   2   24.56    7.17
  -3   7  -2   22.97    4.57
  -3   7  -2   16.59    5.97
   3  -7   2   28.77    3.76
   3  -7   2    5.81    2.36
  -3   7  -3   70.02    7.48
   3  -7   3   65.38    9.89
   3  -7   3   48.64    8.87
   3  -7   3   86.36   12.60
  -3   7  -3   84.34   13.78
  -3   7  -3   67.85    9.60
  -3   7  -3   86.39    6.16
  -3   7  -4   12.72    2.58
  -3   7  -4   12.93    4.78
  -3   7  -4   11.60    5.42
  -3   7  -4   10.04    2.56
   3  -7   4   13.05    4.06
   3  -7   4   12.81    5.34
   3  -7   4    9.95    4.64
   3  -7   5  355.37   22.44
   3  -7   5  377.97   27.35
   3  -7   5  291.91   24.63
  -3   7  -5  317.92   20.33
  -3   7  -5  367.08   17.60
  -3   7  -6   18.30    4.18
  -3   7  -6   14.68    4.32
   3  -7   6   22.19    7.59
  -3   7  -6   15.72    4.93
   3  -7   6    7.20    2.52
  -3   7  -7   24.65    5.30
   3  -7   7   12.27    4.99
  -3   7  -7   29.38    6.01
   3  -7   7   28.51    7.18
  -3   7  -7   25.28    5.81
  -3   7  -8   26.23    5.57
  -3   7  -8   16.93    4.31
   3  -7   8    6.42    3.46
  -3   7  -8   16.10    4.52
   3  -7   8   22.28    6.28
   3  -7   9    8.08    5.31
  -3   7  -9   10.94    4.59
   3  -7   9    6.10    2.77
  -3   7  -9    9.05    3.06
  -3   7 -10    5.25    3.43
   3  -7  10   -1.04    4.30
  -3   7 -10   -3.33    5.72
   3  -7  10    7.44    5.69
  -3   7 -11  112.88   14.20
   3  -7  11   96.14   14.17
  -3   7 -11  107.13   15.68
   3  -7  11  102.07   16.31
  -3   7 -12    1.79    3.88
   3  -7  12    1.29    3.81
  -3   7 -12   -2.34    5.06
   3  -7  12    1.70    5.27
  -3   7 -13   35.31    8.88
   3  -7  13   54.84   11.24
   3  -6 -13   -1.86    7.71
   3  -6 -12   10.03    4.63
  -3   6  12    0.53    2.97
   3  -6 -11   16.94    8.34
   3  -6 -11   10.02    5.29
  -3   6  11    6.21    3.54
   3  -6 -10   43.42    8.56
  -3   6  10   35.61    8.73
   3  -6 -10   37.20   11.19
   3  -6  -9  217.65   19.23
  -3   6   9  178.94   18.97
   3  -6  -9  251.94   27.79
   3  -6  -8   26.94    6.74
   3  -6  -8   24.25    8.72
  -3   6   8   28.21    6.34
  -3   6   8   24.47    6.61
  -3   6   7  278.18   14.63
   3  -6  -7  286.96    8.99
  -3   6   7  297.84   23.92
   3  -6  -7  257.49    9.27
   3  -6  -7  333.09   29.39
   3  -6  -7  326.43   20.05
  -3   6   6  204.92   19.30
   3  -6  -6  182.56    9.55
  -3   6   6  194.62   13.25
   3  -6  -6  217.94   14.56
   3  -6  -6  239.38   24.55
   3  -6  -5   12.65    2.85
   3  -6  -5   13.65    6.06
   3  -6  -5   18.50    3.49
  -3   6   5   19.21    3.54
  -3   6   5   14.87    5.21
   3  -6  -4   13.47    5.15
  -3   6   4   14.14    5.24
   3  -6  -4   10.68    2.58
  -3   6   4   10.62    2.26
   3  -6  -3  657.47   37.97
  -3   6   3  594.20   36.23
  -3   6   2   17.00    5.01
  -3   6   2   20.66    6.39
  -3   6   2   10.72    4.45
   3  -6  -2   12.59    4.92
   3  -6  -2   18.91    6.32
   3  -6  -1 2527.03   83.90
   3  -6  -1 2957.51   95.31
   3  -6  -1 2397.92   72.97
  -3   6   1 2693.32   81.28
  -3   6   1 3003.88   95.65
  -3   6   1 2567.70   83.01
  -3   6   0  491.16   33.64
   3  -6   0  382.51   26.42
  -3   6   0  442.33   27.45
   3  -6   0  390.56   22.99
   3  -6   0  478.88   33.43
  -3   6   0  449.51   26.65
   3  -6   1  282.68   21.10
  -3   6  -1  354.95   24.95
  -3   6  -1  283.43   17.21
   3  -6   1  300.96   21.97
   3  -6   1  279.92   19.74
   3  -6   1  396.71   15.42
  -3   6  -1  333.40   27.91
   3  -6   1  356.60   28.35
  -3   6  -1  292.23   20.39
   3  -6   2  511.85   19.45
  -3   6  -2  486.26   30.04
  -3   6  -2  429.25   20.61
   3  -6   2  435.69   27.08
  -3   6  -2  470.04   32.89
   3  -6   2  406.86   25.05
   3  -6   2  464.21   32.11
   3  -6   2  388.03   24.61
  -3   6  -2  379.41   22.88
  -3   6  -2  470.28   13.70
  -3   6  -3  265.13   14.71
   3  -6   3  286.16   21.84
  -3   6  -3  285.77   24.65
   3  -6   3  236.22   19.28
  -3   6  -3  327.54   24.47
   3  -6   3  276.49   19.39
   3  -6   3  283.78   23.84
  -3   6  -3  278.15   11.88
  -3   6  -3  262.62   17.95
  -3   6  -4  306.39   14.14
   3  -6   4  294.83   19.81
  -3   6  -4  297.27   18.43
  -3   6  -4  274.35   24.05
  -3   6  -4  306.40   23.94
  -3   6  -4  274.63   13.73
   3  -6   4  337.26   24.02
   3  -6   4  282.31   21.57
  -3   6  -5 3007.04   72.71
   3  -6   5 2721.81   79.22
   3  -6   5 2668.04   87.01
   3  -6   5 3135.80   91.55
  -3   6  -5 2699.23   79.14
  -3   6  -5 3081.67   91.29
  -3   6  -5 2737.65   76.99
  -3   6  -6    8.15    2.75
   3  -6   6   22.96    6.67
  -3   6  -6   17.41    4.36
  -3   6  -6   12.20    4.58
   3  -6   6   26.42    8.31
  -3   6  -7  341.51   19.14
  -3   6  -7  308.28   18.91
   3  -6   7  316.37   24.40
   3  -6   7  295.30   22.84
  -3   6  -7  294.06   17.49
  -3   6  -8  156.71   13.68
   3  -6   8  137.72   15.19
  -3   6  -8  148.49   12.39
   3  -6   8  133.64   15.69
  -3   6  -8  142.74   11.47
   3  -6   9    4.46    3.54
  -3   6  -9    1.92    1.22
   3  -6   9    2.24    2.48
   3  -6  10  141.63   15.93
   3  -6  10  156.75   18.11
  -3   6 -11  287.03   22.56
   3  -6  11  273.60   22.85
  -3   6 -11  312.18   27.19
   3  -6  11  251.33   23.61
  -3   6 -12   26.46    6.79
   3  -6  12   18.97    6.65
  -3   6 -12   18.85    6.60
   3  -6  12   24.94    7.80
   3  -6  13   72.59   12.34
  -3   6 -13  111.32   16.94
   3  -6  13   77.67   13.54
  -3   6 -13   86.78   13.20
  -3   6 -14   16.27    6.26
   3  -6  14   24.35    8.02
  -3   6 -14   13.17    6.41
   3  -6  14   12.30    5.66
   3  -5 -14   67.90   15.63
   3  -5 -14   43.65   11.83
   3  -5 -13   16.57    9.65
   3  -5 -13   12.06    6.31
   3  -5 -12   25.29   10.35
   3  -5 -12   40.05   11.45
  -3   5  12   37.68    8.96
   3  -5 -11   47.17   11.07
   3  -5 -11   23.81    8.34
  -3   5  11   46.47    9.54
   3  -5 -10   10.07    5.62
   3  -5 -10   12.12    5.74
  -3   5  10   14.84    5.83
  -3   5   9  170.58   17.22
   3  -5  -9  125.25   18.09
  -3   5   9  117.76   14.39
   3  -5  -9  164.82   18.05
   3  -5  -8   15.24    6.11
  -3   5   8   10.24    2.37
  -3   5   8   13.21    4.67
   3  -5  -8    7.64    3.62
  -3   5   8   11.90    4.36
  -3   5   7  191.39   15.84
  -3   5   7  196.43   11.69
  -3   5   7  212.38   18.53
   3  -5  -7  220.48   17.82
   3  -5  -7  199.06   21.85
   3  -5  -6    8.64    3.20
  -3   5   6    5.11    1.50
   3  -5  -6    7.56    1.35
   3  -5  -6    3.21    4.07
  -3   5   6    6.33    2.51
  -3   5   5   24.94    4.57
   3  -5  -5   35.70    5.90
   3  -5  -5   20.66    2.83
   3  -5  -5   21.98    7.61
  -3   5   5   16.59    4.66
   3  -5  -4  309.12   13.96
   3  -5  -4  325.81   15.82
  -3   5   4  306.57   22.51
  -3   5   4  315.94   15.87
   3  -5  -4  324.47   23.19
  -3   5   4  368.97   27.74
   3  -5  -4  314.22   25.12
   3  -5  -3  174.97   17.83
  -3   5   3  174.08   18.05
  -3   5   3  174.26    9.88
  -3   5   3  187.61   14.57
   3  -5  -3  169.00   10.69
   3  -5  -3  156.35   16.16
  -3   5   3  177.71   17.69
  -3   5   2   15.48    4.56
   3  -5  -2   18.35    6.08
   3  -5  -2   11.17    3.25
  -3   5   2   15.59    4.37
  -3   5   2   14.10    2.50
   3  -5  -2   16.21    5.39
  -3   5   2    9.97    5.13
   3  -5  -1  741.31   36.41
  -3   5   1  778.05   33.26
  -3   5   1  755.86   35.50
  -3   5   1  802.97   42.42
   3  -5  -1  830.87   42.31
  -3   5   0   40.52    7.11
   3  -5   0   44.81    8.19
  -3   5   0   52.88    8.11
   3  -5   0   54.61    5.60
   3  -5   0   35.44    8.05
  -3   5   0   56.77   10.17
  -3   5  -1    4.37    2.49
   3  -5   1    7.11    3.37
   3  -5   1    1.96    1.88
  -3   5  -1    5.94    2.35
   3  -5   1   -0.20    1.90
  -3   5  -1    2.42    2.56
   3  -5   1    5.89    2.13
  -3   5  -1   -0.20    3.51
  -3   5  -2   86.65    5.08
  -3   5  -2  104.07   12.53
   3  -5   2   77.44    9.90
  -3   5  -2   86.49   12.74
  -3   5  -2   68.77    8.31
   3  -5   2   81.17    9.44
  -3   5  -2   77.01    7.65
   3  -5   2   81.13   12.01
   3  -5   2   82.03    9.73
   3  -5   2  101.02    8.09
  -3   5  -3  179.81    9.24
  -3   5  -3  182.76   18.08
  -3   5  -3  209.52   18.02
  -3   5  -3  183.28   11.65
   3  -5   3  196.46   16.51
   3  -5   3  174.20   14.72
   3  -5   3  197.60   17.84
   3  -5   3  179.80   14.15
  -3   5  -3  194.41   13.88
  -3   5  -4  220.61   11.80
   3  -5   4  213.85   15.18
  -3   5  -4  222.15   11.82
   3  -5   4  212.67   16.83
   3  -5   4  248.00   19.05
   3  -5   4  221.80   18.24
  -3   5  -4  249.86   19.24
  -3   5  -4  243.76   15.05
  -3   5  -5 1048.80   35.81
  -3   5  -5 1047.17   33.66
   3  -5   5  993.50   41.48
   3  -5   5  945.31   41.95
   3  -5   5 1108.00   44.02
  -3   5  -5 1080.82   43.43
  -3   5  -6   21.17    4.06
  -3   5  -6   23.33    5.52
  -3   5  -6   21.36    4.09
   3  -5   6   22.18    5.39
   3  -5   6   23.43    6.04
  -3   5  -7  475.99   22.87
  -3   5  -7  424.53   19.93
  -3   5  -7  444.77   25.61
   3  -5   7  382.48   25.23
   3  -5   7  416.31   25.20
  -3   5  -8  136.77   12.49
  -3   5  -8  114.59   12.39
  -3   5  -8  121.13    9.81
   3  -5   8  115.73   12.71
   3  -5   8  100.24   12.77
  -3   5  -9    2.06    2.18
   3  -5   9    1.32    2.69
  -3   5  -9    7.44    2.55
  -3   5 -10  513.67   28.60
   3  -5  10  490.98   28.23
   3  -5  10  482.22   29.66
  -3   5 -10  431.13   20.13
  -3   5 -11  465.01   28.27
   3  -5  11  392.63   27.70
  -3   5 -11  466.66   32.64
   3  -5  11  417.65   26.94
  -3   5 -12   84.34   13.35
   3  -5  12   79.06   11.78
   3  -5  12   87.18   12.87
  -3   5 -12   81.02   11.94
  -3   5 -13  374.85   28.17
   3  -5  13  357.14   26.24
  -3   5 -13  379.15   30.60
   3  -5  13  369.36   27.22
  -3   5 -14  115.08   16.05
  -3   5 -14  106.17   16.19
   3  -5  14   97.61   13.93
   3  -5  14   99.20   14.68
   3  -5  15   26.59    8.30
  -3   5 -15   24.05    8.24
   3  -5  15   17.70    6.14
   3  -4 -14   49.28   12.08
   3  -4 -14   41.59   15.58
   3  -4 -13  103.62   19.59
   3  -4 -13   61.65   12.97
  -3   4  13   82.86   13.45
  -3   4  12  212.56   20.56
   3  -4 -12  188.24   24.39
   3  -4 -12  193.47   23.07
   3  -4 -11  129.11   19.21
  -3   4  11  110.39   14.01
   3  -4 -11  103.74   17.17
   3  -4 -10   17.51    6.56
   3  -4 -10   17.73    6.37
  -3   4  10   19.59    6.35
  -3   4   9  631.21   24.75
  -3   4   9  703.85   34.62
  -3   4   9  597.22   36.05
   3  -4  -9  727.99   41.46
   3  -4  -9  661.99   41.63
   3  -4  -8    7.77    2.72
   3  -4  -8    5.84    4.45
  -3   4   8    6.86    2.29
  -3   4   8    7.06    3.96
  -3   4   8    2.79    1.71
  -3   4   7 1163.55   35.56
  -3   4   7 1147.54   46.93
  -3   4   7 1236.76   46.51
   3  -4  -7 1180.47   54.55
   3  -4  -7 1254.74   51.01
  -3   4   6  362.01   16.45
  -3   4   6  385.33   23.27
   3  -4  -6  382.76   28.28
  -3   4   6  458.89   32.64
   3  -4  -6  424.38   25.03
   3  -4  -5   51.42    9.35
  -3   4   5   54.32    7.37
  -3   4   5   53.21   10.52
  -3   4   5   43.53    5.03
   3  -4  -5   60.29    8.69
  -3   4   5   58.47    8.45
   3  -4  -5   48.96    3.50
   3  -4  -5   61.73    8.35
  -3   4   4   27.24    6.95
   3  -4  -4   23.78    6.63
   3  -4  -4   34.75    5.59
   3  -4  -4   27.94    5.98
   3  -4  -4   25.28    2.90
  -3   4   4   26.63    4.73
  -3   4   4   29.34    5.86
  -3   4   3  482.10   16.33
  -3   4   3  518.97   29.88
   3  -4  -3  481.78   17.31
  -3   4   3  475.51   20.55
   3  -4  -3  501.15   26.97
  -3   4   3  502.45   27.43
   3  -4  -3  503.30   20.59
  -3   4   2   12.45    3.92
  -3   4   2   12.00    1.79
  -3   4   2   21.46    4.47
  -3   4   2   10.02    2.30
  -3   4   2   11.43    4.07
   3  -4  -2   13.14    2.68
   3  -4  -2   11.28    4.21
  -3   4   1 1888.40   55.11
  -3   4   1 1968.44   46.87
   3  -4  -1 1843.53   66.06
   3  -4  -1 1785.23   50.01
   3  -4  -1 2055.72   53.71
  -3   4   1 2002.57   68.87
  -3   4   1 1836.60   59.17
  -3   4   1 1855.11   41.83
  -3   4   0   59.18    6.78
  -3   4   0   70.05    8.25
  -3   4   0   60.49    8.00
   3  -4   0   66.55    7.15
  -3   4   0   61.50    3.72
   3  -4   0   66.49   10.61
  -3   4   0   60.14   10.48
   3  -4   0   52.15    6.11
  -3   4  -1    1.22    1.05
  -3   4  -1    2.81    1.82
   3  -4   1    0.13    1.54
   3  -4   1    0.06    1.30
   3  -4   1    1.50    2.19
  -3   4  -1   -0.95    2.35
  -3   4  -2  144.16    9.97
   3  -4   2  125.70    9.36
  -3   4  -2  156.27   13.89
   3  -4   2  135.96   11.39
   3  -4   2  150.64   14.99
   3  -4   2  113.25   11.12
  -3   4  -2  133.24   10.72
   3  -4   3  104.83    9.83
   3  -4   3  131.69   12.16
  -3   4  -3  123.64    8.96
  -3   4  -3  127.48   12.49
   3  -4   3  127.87   13.00
  -3   4  -3  124.35   10.00
  -3   4  -4   12.88    2.73
  -3   4  -4   13.49    3.25
   3  -4   4   18.30    4.17
  -3   4  -4   12.92    2.70
   3  -4   4    8.85    2.99
  -3   4  -4    9.30    3.35
   3  -4   4   12.70    4.05
  -3   4  -5  466.98   20.11
   3  -4   5  468.09   24.37
   3  -4   5  474.83   24.77
  -3   4  -5  474.72   23.56
  -3   4  -5  459.56   19.49
  -3   4  -6    0.98    1.59
   3  -4   6    2.02    2.30
  -3   4  -6    0.81    1.42
   3  -4   6    1.13    0.93
   3  -4   6   -0.15    1.57
   3  -4   6    1.04    2.12
  -3   4  -6    4.15    2.44
  -3   4  -7   10.87    3.94
  -3   4  -7    6.94    2.94
   3  -4   7    7.64    2.97
  -3   4  -7    9.72    2.00
   3  -4   7    9.54    1.62
   3  -4   7    8.91    3.35
   3  -4   7   10.70    3.95
  -3   4  -8   12.57    4.02
  -3   4  -8   10.30    2.62
   3  -4   8    4.93    1.83
   3  -4   8   10.12    1.65
   3  -4   8   17.63    5.02
  -3   4  -8    6.58    2.31
   3  -4   9   18.21    5.11
  -3   4  -9   18.23    3.46
   3  -4   9   18.97    4.35
   3  -4   9   18.42    2.40
  -3   4  -9   21.32    4.86
  -3   4  -9   25.01    5.51
  -3   4 -10   43.19    7.63
  -3   4 -10   42.26    5.32
   3  -4  10   46.94    4.19
   3  -4  10   41.46    7.62
   3  -4  10   47.39    8.54
  -3   4 -11   77.34   11.18
   3  -4  11   71.78   10.56
   3  -4  11   78.27    5.83
  -3   4 -11   76.52    7.49
   3  -4  11   60.38    9.22
  -3   4 -12   20.80    6.74
  -3   4 -12   14.42    5.69
   3  -4  12   12.10    4.48
   3  -4  12   22.60    6.22
  -3   4 -13  123.92   15.61
  -3   4 -13  124.29   16.41
   3  -4  13  116.15   13.83
   3  -4  13  106.28   13.56
   3  -4  14   25.71    6.23
   3  -4  14   41.55    8.75
  -3   4 -14   34.68    8.99
  -3   4 -14   37.54    9.44
   3  -4  15    5.55    3.64
  -3   4 -15    5.64    2.84
   3  -4  15   13.34    5.36
   3  -4  16   88.23   14.19
  -3   3  14   27.07    7.29
   3  -3 -14   17.83    5.79
   3  -3 -14   16.61    9.58
   3  -3 -13   39.50   11.69
   3  -3 -13   38.32    9.42
  -3   3  13   29.48    7.21
  -3   3  13   39.49    8.46
   3  -3 -12   22.97    8.01
   3  -3 -12   11.94    3.75
  -3   3  12   12.30    4.87
  -3   3  12   11.73    4.68
   3  -3 -11   92.36   16.91
  -3   3  11  115.85   13.41
   3  -3 -11  117.91   16.45
   3  -3 -10   17.11    7.42
   3  -3 -10    3.87    2.73
  -3   3  10    8.45    2.94
  -3   3  10    7.75    4.47
  -3   3   9  402.85   24.33
  -3   3   9  388.60   18.67
   3  -3  -9  412.07   31.45
   3  -3  -9  371.22   27.87
   3  -3  -8   -3.44    4.56
   3  -3  -8   -0.59    3.80
  -3   3   8   -0.10    1.28
  -3   3   8   -2.52    2.21
  -3   3   8    0.66    2.77
  -3   3   7  969.75   44.93
  -3   3   7 1032.38   32.60
  -3   3   7 1031.17   39.78
   3  -3  -7 1124.97   49.09
  -3   3   7 1090.43   51.86
   3  -3  -7 1113.79   48.54
  -3   3   6  276.84   15.93
  -3   3   6  254.05   17.16
  -3   3   6  262.78   13.28
  -3   3   6  283.36   24.23
   3  -3  -6  283.22   21.32
   3  -3  -6  252.95   20.94
   3  -3  -5   48.10    8.24
  -3   3   5   33.35    4.89
   3  -3  -5   27.50    6.42
  -3   3   5   34.73    8.12
   3  -3  -5   38.09    2.42
  -3   3   5   38.11    4.62
  -3   3   5   41.71    6.54
   3  -3  -4   91.06   11.24
   3  -3  -4  109.23   11.18
  -3   3   4   98.99    7.99
   3  -3  -4  106.54    5.39
  -3   3   4  105.77   10.64
   3  -3  -4   98.55    9.75
  -3   3   4   93.55    9.64
  -3   3   4   95.04   12.39
  -3   3   3 1221.56   34.59
   3  -3  -3 1219.14   31.00
   3  -3  -3 1301.69   41.53
  -3   3   3 1239.50   46.75
  -3   3   3 1161.24   39.57
   3  -3  -3 1156.27   40.80
  -3   3   3 1236.96   43.16
  -3   3   2  556.92   19.22
  -3   3   2  558.87   22.81
   3  -3  -2  566.00   18.42
   3  -3  -2  608.90   27.38
  -3   3   2  597.31   27.90
  -3   3   2  592.22   28.83
   3  -3  -1 4391.18   98.90
   3  -3  -1 4674.85  110.20
  -3   3   1 4291.96  105.10
  -3   3   1 4399.50  103.22
   3  -3  -1 4448.59  115.38
  -3   3   1 4526.40  101.58
  -3   3   1 4254.96  117.32
  -3   3   1 4487.38  109.22
  -3   3   1 4361.62   98.40
  -3   3   0  333.59   22.66
  -3   3   0  293.79   15.21
  -3   3   0  325.74   15.93
   3  -3   0  302.46   13.87
   3  -3   0  332.47   18.15
   3  -3   0  308.72   22.09
  -3   3   0  298.08   13.80
  -3   3   0  305.59   16.82
   3  -3   1  318.89   16.36
  -3   3  -1  333.90   15.80
   3  -3   1  313.18   21.85
  -3   3  -1  344.70   17.90
   3  -3   1  328.12   15.26
  -3   3  -1  327.19   16.77
  -3   3  -1  356.29   22.14
   3  -3   2  416.42   19.57
   3  -3   2  462.36   24.20
   3  -3   2  441.57   19.05
  -3   3  -2  444.79   18.59
   3  -3   2  436.86   20.13
   3  -3   2  459.16   19.41
  -3   3  -2  486.45   23.07
  -3   3  -2  451.66   23.79
  -3   3  -2  466.61   19.77
  -3   3  -3  301.11   14.73
  -3   3  -3  293.37   17.06
   3  -3   3  271.53   16.75
   3  -3   3  271.87   14.81
   3  -3   3  294.70   11.88
  -3   3  -3  276.16   13.68
  -3   3  -3  273.31   14.53
   3  -3   3  271.64   16.38
  -3   3  -4 1126.81   34.04
  -3   3  -4 1144.59   35.76
   3  -3   4 1133.05   39.84
   3  -3   4 1216.14   40.46
  -3   3  -4 1217.24   35.72
  -3   3  -4 1172.07   37.88
   3  -3   4 1201.65   31.23
   3  -3   5 2398.74   54.54
  -3   3  -5 2171.21   59.67
   3  -3   5 2195.63   63.13
   3  -3   5 2400.84   65.53
  -3   3  -5 2344.40   59.57
  -3   3  -5 2321.72   61.30
   3  -3   6   10.24    3.18
  -3   3  -6   13.79    3.04
  -3   3  -6   21.09    4.20
   3  -3   6   13.21    2.27
   3  -3   6   17.00    4.56
   3  -3   6   19.61    4.73
  -3   3  -6   12.30    2.76
  -3   3  -7  364.82   19.50
  -3   3  -7  382.24   16.87
  -3   3  -7  365.60   17.28
   3  -3   7  347.71   19.71
   3  -3   7  379.40   14.38
   3  -3   7  373.78   20.76
  -3   3  -7  375.77   18.12
   3  -3   7  343.71   18.54
  -3   3  -8  183.59   11.08
  -3   3  -8  167.38   11.99
   3  -3   8  178.11    9.51
  -3   3  -8  175.24   14.00
   3  -3   8  166.84   13.34
   3  -3   8  165.02   12.68
   3  -3   9    3.84    1.51
  -3   3  -9    3.35    2.23
  -3   3  -9    6.09    2.19
  -3   3  -9    2.54    2.39
   3  -3   9    3.17    2.67
   3  -3   9    6.52    3.20
  -3   3 -10  177.65   16.00
  -3   3 -10  180.02   11.46
  -3   3 -10  172.50   13.40
   3  -3  10  189.30   11.22
   3  -3  10  182.10   14.24
   3  -3  10  184.30   15.07
  -3   3 -11   69.20    7.34
   3  -3  11   72.54    9.77
  -3   3 -11   88.79   11.87
   3  -3  11   75.50    7.27
   3  -3  11   69.47    8.90
  -3   3 -12   64.44    7.10
  -3   3 -12   68.98   11.07
  -3   3 -12   59.05   10.26
   3  -3  12   70.11    7.54
   3  -3  12   76.24    9.90
   3  -3  12   64.48    9.01
  -3   3 -13   64.48   11.08
   3  -3  13   70.15    9.82
  -3   3 -13   60.03   10.64
   3  -3  13   70.63    7.80
   3  -3  13   52.90    8.81
  -3   3 -14   57.94   11.45
  -3   3 -14   54.84   10.21
   3  -3  14   39.44    7.39
   3  -3  14   50.77    9.20
  -3   3 -15    2.35    4.45
  -3   3 -15    3.06    3.51
   3  -3  15    1.08    2.49
   3  -3  15   -2.74    2.98
   3  -3  16   23.08    6.68
  -3   2  14   -0.02    3.63
   3  -2 -14   15.42    8.02
   3  -2 -13   50.71    9.64
   3  -2 -13   57.10   14.20
  -3   2  13   59.55   10.69
  -3   2  13   44.15    9.32
   3  -2 -12   26.70    8.03
  -3   2  12   28.68    6.81
  -3   2  12   33.27    7.68
   3  -2 -12   36.24    8.37
  -3   2  11   65.99   10.02
   3  -2 -11   45.35   11.82
   3  -2 -11   62.37   10.79
  -3   2  11   57.88    9.27
   3  -2 -10   57.10   12.27
  -3   2  10   60.34    9.00
  -3   2  10   59.69   10.39
  -3   2  10   53.37    9.00
  -3   2  10   46.75    6.51
   3  -2 -10   53.47    9.53
  -3   2  10   49.89    8.18
  -3   2   9  144.09   11.47
  -3   2   9  147.50   13.52
  -3   2   9  158.76   16.79
   3  -2  -9  190.01   21.47
   3  -2  -9  139.44   15.31
   3  -2  -8   23.19    6.86
  -3   2   8   28.60    6.00
   3  -2  -8   17.25    4.84
  -3   2   8   20.75    3.89
  -3   2   8   21.83    4.70
  -3   2   8   23.52    6.21
  -3   2   7  310.11   19.65
  -3   2   7  314.44   15.65
  -3   2   7  347.75   19.20
  -3   2   7  334.36   25.25
   3  -2  -7  335.83   26.12
   3  -2  -7  344.50   22.63
  -3   2   6    8.34    3.70
  -3   2   6    5.91    2.90
  -3   2   6    7.09    2.00
  -3   2   6    7.46    3.37
   3  -2  -6    9.93    4.44
  -3   2   6    6.87    2.27
  -3   2   5  198.01   11.02
  -3   2   5  197.40   13.35
  -3   2   5  197.84   13.60
  -3   2   5  205.92   18.67
   3  -2  -5  201.56   17.75
  -3   2   4  266.33   12.71
  -3   2   4  266.16    9.00
  -3   2   4  234.76   17.57
   3  -2  -4  262.66    9.21
   3  -2  -4  262.69   14.29
  -3   2   4  266.26   15.12
  -3   2   4  260.03   14.96
  -3   2   4  276.47   20.22
   3  -2  -4  270.53   19.10
  -3   2   3  247.60   13.86
  -3   2   3  259.78   12.15
   3  -2  -3  255.81    9.57
  -3   2   3  267.87    9.68
   3  -2  -3  246.66   15.68
   3  -2  -3  234.91   13.39
  -3   2   3  262.30   15.05
  -3   2   3  257.79   16.84
  -3   2   3  266.37   17.57
   3  -2  -3  267.16   17.94
   3  -2  -2  244.85    9.82
   3  -2  -2  238.50   15.63
  -3   2   2  250.89    9.96
   3  -2  -2  240.98   13.69
  -3   2   2  244.59   15.33
  -3   2   2  241.20   15.13
   3  -2  -2  241.59   14.52
  -3   2   2  251.00   15.63
  -3   2   2  269.45   13.94
  -3   2   1 1502.40   52.08
   3  -2  -1 1624.76   52.99
  -3   2   1 1683.66   40.29
  -3   2   1 1652.72   47.22
   3  -2  -1 1596.37   39.95
   3  -2  -1 1644.53   49.25
  -3   2   1 1532.17   45.22
  -3   2   1 1674.32   46.67
  -3   2   1 1593.62   47.31
  -3   2   0   78.76    7.25
  -3   2   0   77.23    7.04
  -3   2   0   85.70    7.25
   3  -2   0   64.12    8.62
  -3   2   0   81.57    5.84
   3  -2   0   76.68    5.81
   3  -2   0   82.56    8.92
  -3   2   0   68.87    8.83
  -3   2  -1    7.03    2.21
  -3   2  -1    4.65    1.56
   3  -2   1    5.14    1.50
  -3   2  -1    7.75    2.29
   3  -2   1    2.92    1.27
   3  -2   1    5.15    1.92
   3  -2   1    4.68    2.44
  -3   2  -1    4.09    1.95
  -3   2  -1    4.39    1.66
   3  -2   2  337.05   15.60
   3  -2   2  345.50   14.02
   3  -2   2  342.67   14.40
  -3   2  -2  338.52   15.34
   3  -2   2  347.30   14.95
  -3   2  -2  352.83   15.37
  -3   2  -2  327.41   16.25
  -3   2  -2  370.16   14.98
   3  -2   2  351.68   18.04
  -3   2  -2  347.69   15.32
   3  -2   2  330.81   16.37
  -3   2  -2  332.47   16.96
  -3   2  -3  322.86   14.62
  -3   2  -3  318.22   14.48
   3  -2   3  325.49   13.17
  -3   2  -3  310.03   14.49
  -3   2  -3  312.40   14.31
   3  -2   3  278.86   14.56
  -3   2  -3  305.68   14.32
   3  -2   3  303.24   15.63
  -3   2  -4  554.67   20.33
   3  -2   4  545.13   18.52
  -3   2  -4  482.67   19.80
  -3   2  -4  527.61   20.14
   3  -2   4  559.22   22.23
   3  -2   4  498.86   20.65
  -3   2  -4  572.14   21.40
  -3   2  -4  538.72   18.97
  -3   2  -5 2176.21   53.28
   3  -2   5 2060.10   50.77
   3  -2   5 2052.40   52.17
   3  -2   5 1963.37   53.26
  -3   2  -5 2160.26   55.70
  -3   2  -5 2001.61   53.20
  -3   2  -5 2000.32   51.10
  -3   2  -6    1.34    1.68
  -3   2  -6    2.86    1.25
   3  -2   6    1.41    1.69
   3  -2   6    2.87    2.25
   3  -2   6   -0.10    0.97
   3  -2   6    2.19    1.62
  -3   2  -7  811.04   28.27
  -3   2  -7  806.66   27.07
   3  -2   7  867.88   27.28
   3  -2   7  856.15   27.08
   3  -2   7  840.56   30.57
   3  -2   7  814.48   28.36
  -3   2  -8  633.70   23.91
   3  -2   8  651.11   23.02
   3  -2   8  668.18   24.13
   3  -2   8  651.92   25.11
   3  -2   8  637.41   26.67
  -3   2  -9    3.85    2.43
   3  -2   9    5.70    2.36
   3  -2   9    1.96    1.98
   3  -2   9    1.39    1.10
  -3   2 -10  819.70   36.32
   3  -2  10  778.34   26.57
   3  -2  10  752.68   30.92
   3  -2  10  715.26   29.54
   3  -2  11  218.04   15.44
   3  -2  11  214.06   15.44
   3  -2  11  223.55   12.89
  -3   2 -11  255.06   20.02
  -3   2 -12  179.37   17.85
  -3   2 -12  155.67   15.70
  -3   2 -12  188.12   15.22
   3  -2  12  165.99   11.20
   3  -2  12  153.13   13.35
   3  -2  12  175.18   14.30
  -3   2 -13  498.24   32.57
  -3   2 -13  517.39   30.19
   3  -2  13  485.66   25.78
  -3   2 -13  514.79   28.09
   3  -2  13  489.68   26.70
   3  -2  14  139.12   13.03
  -3   2 -14  130.39   17.08
  -3   2 -14  156.74   15.89
   3  -2  14  118.87   13.05
  -3   2 -14  149.27   15.37
  -3   2 -14  126.81   15.37
  -3   2 -15   81.88   14.28
  -3   2 -15   59.95   10.02
   3  -2  15   55.96    8.50
   3  -2  15   62.89   10.40
   3  -2  16  151.34   16.53
   3  -2  17    9.09    3.40
   3  -1 -14   25.32    9.52
  -3   1  14   18.81    6.14
  -3   1  13  195.24   19.18
  -3   1  13  172.34   17.62
   3  -1 -12  165.68   15.25
  -3   1  12  197.08   18.21
   3  -1 -12  193.84   25.86
  -3   1  12  162.91   16.07
   3  -1 -11  169.49   15.07
   3  -1 -11  150.66   21.40
  -3   1  11  155.17   14.42
  -3   1  11  170.40   16.02
  -3   1  11  151.71   14.90
   3  -1 -10   31.51    6.41
   3  -1 -10   34.20    9.69
  -3   1  10   35.63    6.36
  -3   1  10   29.44    5.66
  -3   1  10   32.54    6.91
  -3   1  10   36.58    6.85
   3  -1  -9  621.66   29.60
  -3   1   9  674.50   30.54
  -3   1   9  627.40   29.09
  -3   1   9  641.65   30.67
  -3   1   9  615.34   30.78
  -3   1   9  592.46   26.79
   3  -1  -8   95.46   14.22
  -3   1   8   72.24    7.86
  -3   1   8   90.49    9.77
  -3   1   8   80.84   10.76
  -3   1   8   88.48   11.15
  -3   1   8   85.52    9.30
  -3   1   7 1282.52   47.96
  -3   1   7 1278.63   39.83
  -3   1   7 1326.52   42.59
  -3   1   7 1315.92   28.98
  -3   1   7 1360.06   50.99
   3  -1  -7 1341.54   57.84
  -3   1   6  200.90   15.59
  -3   1   6  202.63   11.80
  -3   1   6  192.80   17.10
  -3   1   6  198.22    6.80
  -3   1   6  189.91   12.54
  -3   1   6  163.41   17.55
   3  -1  -6  217.39   19.84
   3  -1  -5    1.82    2.31
  -3   1   5    7.01    3.19
  -3   1   5    5.20    1.04
  -3   1   5    3.33    2.75
  -3   1   5    4.80    1.77
  -3   1   5    0.82    0.96
   3  -1  -5    5.15    2.39
   3  -1  -4    3.91    3.26
  -3   1   4    4.49    2.44
  -3   1   4    9.14    3.20
  -3   1   4    3.56    1.49
   3  -1  -4    7.74    2.67
  -3   1   4    5.45    3.46
  -3   1   4    6.62    1.25
  -3   1   4    4.10    1.61
   3  -1  -3  501.77   20.69
  -3   1   3  527.33   15.31
  -3   1   3  470.96   25.78
   3  -1  -3  548.43   16.33
  -3   1   3  511.77   18.88
  -3   1   3  543.85   20.04
   3  -1  -3  526.13   27.69
  -3   1   3  566.23   24.36
  -3   1   3  547.44   24.26
   3  -1  -2  214.09   10.51
   3  -1  -2  213.82   17.28
   3  -1  -2  219.34   11.78
  -3   1   2  220.17   10.87
   3  -1  -2  226.14    9.25
  -3   1   2  215.90    8.66
  -3   1   2  225.52   12.09
  -3   1   2  220.81   15.51
   3  -1  -2  222.54   16.38
  -3   1   2  221.36   14.66
  -3   1   2  211.36   12.87
  -3   1   1 1499.49   41.83
   3  -1  -1 1450.40   39.59
  -3   1   1 1495.58   44.90
  -3   1   1 1523.63   36.31
  -3   1   1 1459.33   46.40
   3  -1  -1 1461.56   40.43
  -3   1   1 1376.68   46.09
   3  -1  -1 1533.72   36.85
  -3   1   0    9.17    1.65
  -3   1   0    6.93    1.88
   3  -1   0    8.12    2.38
   3  -1   0    5.34    1.85
   3  -1   0    6.95    2.06
  -3   1   0    6.42    2.00
  -3   1   0   11.49    2.92
   3  -1   0   14.09    4.24
   3  -1   0   11.00    1.98
  -3   1   0    8.63    2.18
  -3   1   0    8.09    2.80
  -3   1  -1   35.41    4.16
  -3   1  -1   25.62    2.75
   3  -1   1   27.46    3.73
  -3   1  -1   22.33    3.53
  -3   1  -1   24.76    3.59
  -3   1  -1   24.50    3.03
   3  -1   1   29.59    3.46
   3  -1   1   23.96    4.31
   3  -1   1   22.55    4.16
  -3   1  -1   26.09    4.15
  -3   1  -2  495.58   18.07
   3  -1   2  488.10   17.87
  -3   1  -2  459.52   18.55
   3  -1   2  487.23   17.47
  -3   1  -2  425.61   15.80
  -3   1  -2  487.47   17.01
   3  -1   2  483.15   20.23
   3  -1   2  481.30   18.39
  -3   1  -3  141.93    8.54
   3  -1   3  121.49    7.98
   3  -1   3  129.11    8.05
  -3   1  -3  129.03    8.90
   3  -1   3  111.08    6.70
  -3   1  -3  123.53    8.14
  -3   1  -3  125.52    8.01
  -3   1  -3  129.53    5.97
   3  -1   3  126.99    8.39
  -3   1  -4  246.65   12.31
  -3   1  -4  275.61   12.90
   3  -1   4  258.09   11.92
   3  -1   4  263.74   12.41
  -3   1  -4  252.34    9.31
   3  -1   4  243.16   10.57
   3  -1   5  133.64    7.49
  -3   1  -5  152.03    7.32
   3  -1   5  141.22    9.23
   3  -1   5  146.56    8.90
   3  -1   5  154.81    9.87
  -3   1  -5  160.58    9.90
  -3   1  -5  150.82    9.52
  -3   1  -6   18.83    3.49
   3  -1   6   14.96    3.01
   3  -1   6   15.81    3.15
  -3   1  -6   19.58    2.73
   3  -1   6   19.37    3.07
  -3   1  -6   22.67    3.72
   3  -1   6   17.09    2.69
   3  -1   7   68.90    6.94
   3  -1   7   70.54    6.08
   3  -1   7   64.46    6.01
  -3   1  -7   60.63    6.52
  -3   1  -7   72.88    7.32
   3  -1   8   82.27    7.14
   3  -1   8   85.27    7.99
   3  -1   8   73.67    6.84
   3  -1   9    3.77    1.99
   3  -1   9    5.32    2.58
   3  -1   9    3.56    1.70
   3  -1  10  165.23   12.01
   3  -1  10  144.25   11.32
   3  -1  10  165.87   10.96
  -3   1 -10  148.25   14.53
   3  -1  11   22.56    4.49
  -3   1 -11   33.61    6.36
  -3   1 -11   21.81    6.40
   3  -1  11   27.74    5.36
   3  -1  11   26.23    4.31
   3  -1  12   89.98    9.79
  -3   1 -12   72.36    9.45
   3  -1  12   82.56    8.09
  -3   1 -12   76.17    9.94
  -3   1 -12   75.22   11.49
   3  -1  12   74.39    8.62
   3  -1  13  296.36   19.59
  -3   1 -13  317.85   25.49
  -3   1 -13  290.72   19.68
   3  -1  13  279.56   17.84
   3  -1  13  307.19   16.88
  -3   1 -13  297.89   22.09
  -3   1 -13  282.04   22.39
  -3   1 -14  175.02   19.83
  -3   1 -14  165.13   14.41
  -3   1 -14  185.86   19.14
  -3   1 -14  170.22   17.43
   3  -1  14  165.94   13.71
   3  -1  14  172.18   15.23
  -3   1 -15   46.58   11.19
   3  -1  15   30.16    7.11
  -3   1 -15   37.48    8.36
   3  -1  15   41.32    6.58
   3  -1  16   93.13   12.68
   3  -1  17    4.69    3.69
  -3   0  14    6.62    4.90
   3   0 -13  103.50   19.36
  -3   0  13  102.44   13.92
   3   0 -13   84.30    9.34
  -3   0  13   64.91   10.67
   3   0 -12   70.51    8.21
   3   0 -12   59.66    7.49
  -3   0  12   83.56   11.77
   3   0 -12   95.18   17.50
  -3   0  12   63.21    9.82
   3   0 -11  178.17   13.02
  -3   0  11  203.92   17.50
  -3   0  11  156.50   14.71
   3   0 -11  233.53   26.94
  -3   0  10    9.25    2.80
   3   0 -10    5.99    3.90
  -3   0  10    7.37    2.27
  -3   0  10   10.79    4.11
   3   0 -10    6.28    2.10
  -3   0  10    6.89    1.47
  -3   0  10    5.23    1.24
  -3   0  10    5.47    2.50
  -3   0   9  666.39   29.38
   3   0  -9  685.89   26.44
  -3   0   9  643.55   29.32
  -3   0   9  693.43   31.36
  -3   0   9  692.92   19.88
  -3   0   9  671.67   26.82
   3   0  -9  709.63   45.18
   3   0  -8   48.24    6.05
  -3   0   8   47.71    6.82
  -3   0   8   51.81    7.17
  -3   0   8   48.19    3.99
   3   0  -8   40.53    5.58
  -3   0   8   43.34    6.48
  -3   0   8   42.90    6.22
   3   0  -8   61.21   11.45
  -3   0   7 1642.19   39.95
  -3   0   7 1592.35   58.57
   3   0  -7 1640.03   46.69
   3   0  -7 1603.60   45.86
  -3   0   7 1555.78   48.01
  -3   0   7 1683.18   50.79
  -3   0   7 1734.52   52.29
  -3   0   7 1581.15   47.93
  -3   0   7 1673.31   52.94
   3   0  -7 1826.17   68.96
   3   0  -6  426.74   18.19
   3   0  -6  425.80   18.22
  -3   0   6  444.90   19.63
  -3   0   6  454.07   24.01
  -3   0   6  405.69   20.83
  -3   0   6  429.86   20.17
  -3   0   6  435.43   14.45
  -3   0   6  454.45   26.27
  -3   0   6  417.61   18.82
   3   0  -6  453.62   29.84
  -3   0   5  412.35   23.87
   3   0  -5  402.83   16.87
   3   0  -5  416.01   17.32
  -3   0   5  431.65   18.79
  -3   0   5  429.78   20.13
  -3   0   5  399.68   17.16
  -3   0   5  435.12   14.19
  -3   0   5  389.48   22.37
  -3   0   5  429.79   18.23
   3   0  -5  444.63   28.13
   3   0  -4  480.33   18.27
  -3   0   4  480.60   18.90
  -3   0   4  492.56   20.83
  -3   0   4  496.72   15.57
  -3   0   4  497.45   19.37
  -3   0   4  486.27   22.78
   3   0  -4  507.68   29.37
  -3   0   4  455.93   17.52
   3   0  -4  452.48   17.60
  -3   0   4  485.87   25.48
  -3   0   3 1016.72   30.11
  -3   0   3  988.63   32.16
  -3   0   3  985.10   29.54
   3   0  -3  980.73   28.93
   3   0  -3 1022.56   29.83
  -3   0   3 1071.48   27.10
  -3   0   3  990.75   28.19
   3   0  -3 1066.63   43.41
  -3   0   3 1036.15   33.04
  -3   0   3 1012.11   38.86
  -3   0   2  962.31   29.53
   3   0  -2  807.74   38.27
   3   0  -2  925.22   27.24
  -3   0   2  979.67   25.78
   3   0  -2  932.11   27.84
  -3   0   2  985.99   28.40
  -3   0   2  986.28   27.02
  -3   0   2  856.61   36.85
  -3   0   2  927.62   37.07
  -3   0   2  946.82   26.06
  -3   0   2  927.20   30.02
   3   0  -2  912.05   39.71
   3   0  -2  976.45   26.68
  -3   0   1 3481.07   81.01
   3   0  -1 3688.24   80.26
  -3   0   1 3593.95   80.64
   3   0  -1 3607.64   83.86
  -3   0   1 3628.60   78.48
  -3   0   1 3713.80   79.83
   3   0  -1 3587.91   78.92
  -3   0   1 3412.99   92.28
  -3   0   1 3658.19   80.72
   3   0  -1 3423.64   75.61
  -3   0   0  245.22   11.28
   3   0   0  239.97   12.50
   3   0   0  243.78   11.05
  -3   0   0  251.91   11.07
  -3   0   0  228.97   15.13
   3   0   0  259.02   10.72
   3   0   0  233.06   16.37
  -3   0   0  245.92   10.33
   3   0   0  235.57    9.96
  -3   0   0  248.91   10.09
  -3   0  -1  319.74   12.32
  -3   0  -1  301.75   12.79
   3   0   1  296.84   16.90
   3   0   1  318.30   14.37
   3   0   1  317.16   12.87
  -3   0  -1  293.97   12.54
   3   0   1  292.44   12.20
   3   0   1  315.19   12.44
   3   0   2 1119.99   32.42
  -3   0  -2 1065.40   32.86
   3   0   2 1128.29   30.68
   3   0   2 1072.78   34.94
  -3   0  -2 1114.97   30.05
   3   0   2 1019.43   28.22
  -3   0  -3  169.43    9.16
   3   0   3  170.17   10.30
   3   0   3  175.06    9.35
   3   0   4  877.54   26.77
   3   0   4  876.88   29.23
  -3   0  -4  901.81   27.77
   3   0   4  951.85   27.63
  -3   0  -4  911.87   27.18
   3   0   4  864.62   21.18
   3   0   5  781.31   21.04
  -3   0  -5  814.42   26.78
  -3   0  -5  825.16   26.04
   3   0   5  770.52   25.28
   3   0   5  828.96   26.00
  -3   0  -6   52.80    5.52
   3   0   6   41.37    4.92
   3   0   6   37.20    3.65
   3   0   6   47.48    5.10
  -3   0  -6   42.21    5.38
   3   0   7  351.78   15.94
   3   0   7  338.82   13.81
  -3   0  -7  358.75   16.51
   3   0   7  358.80   16.13
   3   0   8  222.08   12.77
   3   0   8  213.51   12.40
  -3   0  -8  213.78   12.76
   3   0   8  212.61   11.20
   3   0   9    0.44    1.41
   3   0   9    4.37    2.13
  -3   0  -9    1.72    1.72
   3   0   9   -0.74    1.00
   3   0  10   74.77    7.41
  -3   0 -10   87.18    9.67
   3   0  10   81.61    7.98
   3   0  10   78.22    7.61
  -3   0 -11   34.81    7.84
  -3   0 -11   44.06    7.57
  -3   0 -11   36.83    5.93
   3   0  11   43.12    5.92
   3   0  11   41.92    5.95
   3   0  11   37.70    5.54
   3   0  12   77.11    8.73
  -3   0 -12   81.68   12.35
   3   0  12   68.58    7.84
  -3   0 -12   69.79    8.17
   3   0  12   76.28    8.23
  -3   0 -12   79.85   10.79
   3   0  13   85.52    9.91
  -3   0 -13  103.36   14.46
  -3   0 -13   85.06    8.88
   3   0  13   92.90    9.48
   3   0  13   91.13    9.19
  -3   0 -13   93.21   12.67
  -3   0 -13  109.39   13.95
  -3   0 -14   96.20   15.10
  -3   0 -14   95.16   14.34
  -3   0 -14   95.12    9.01
   3   0  14   86.70    8.99
   3   0  14   80.94   10.13
  -3   0 -15   31.52    9.21
  -3   0 -15   27.43    8.90
   3   0  15   38.51    6.26
   3   0  15   26.15    6.35
  -3   0 -16   21.14    8.86
   3   0  16   18.03    5.87
   3   0  17   44.94    9.20
  -3  -1  14    3.55    3.84
   3   1 -13   73.97   16.17
   3   1 -13   61.30    8.38
  -3  -1  13   70.60   11.53
  -3  -1  13   53.96    9.69
   3   1 -12   18.87    8.91
   3   1 -12   15.65    4.33
  -3  -1  12   25.13    6.38
   3   1 -11  123.09    8.63
   3   1 -11  121.98   11.35
  -3  -1  11  152.96   15.25
  -3  -1  11  124.05    8.93
   3   1 -11  164.19   21.77
   3   1 -10   33.21    9.83
  -3  -1  10   28.03    6.60
   3   1 -10   17.29    4.19
  -3  -1  10   20.66    2.76
   3   1 -10   25.39    3.72
  -3  -1  10   29.30    2.95
  -3  -1  10   27.78    4.05
   3   1  -9   64.06    5.78
   3   1  -9   76.14   12.88
   3   1  -9   79.56    8.51
  -3  -1   9   69.20    9.12
  -3  -1   9   57.17    8.29
  -3  -1   9   71.14    5.60
  -3  -1   9   64.48    8.25
  -3  -1   9   66.93    6.27
  -3  -1   9   77.64    5.15
   3   1  -8  107.59    7.33
   3   1  -8  114.38    9.99
  -3  -1   8  123.63   11.49
  -3  -1   8   99.32   10.26
  -3  -1   8  118.32    8.25
  -3  -1   8  114.91    6.49
  -3  -1   8  114.63   10.67
   3   1  -8  117.88   16.43
  -3  -1   8  100.75    7.25
  -3  -1   7  335.63   24.65
   3   1  -7  325.16   16.90
  -3  -1   7  331.98   18.54
  -3  -1   7  302.07   17.64
  -3  -1   7  346.66   12.33
  -3  -1   7  346.12   18.49
  -3  -1   7  331.77   14.75
   3   1  -7  321.54   13.27
  -3  -1   7  331.30   15.82
   3   1  -7  347.34   27.29
   3   1  -6    5.29    2.10
  -3  -1   6    5.23    2.66
  -3  -1   6    5.29    1.58
   3   1  -6    6.45    2.11
  -3  -1   6    7.77    2.62
   3   1  -6    6.86    1.60
  -3  -1   6    9.57    2.71
  -3  -1   6    8.40    1.59
  -3  -1   6    7.87    2.05
  -3  -1   6    8.94    2.86
   3   1  -5    6.06    4.40
  -3  -1   5    6.79    2.27
   3   1  -5    2.82    1.11
  -3  -1   5    7.11    2.54
   3   1  -5    8.70    1.85
  -3  -1   5    5.12    1.20
  -3  -1   5    6.96    2.28
  -3  -1   5    5.59    1.99
  -3  -1   5    5.19    2.03
  -3  -1   4   10.73    2.91
   3   1  -4    9.88    2.61
  -3  -1   4   10.59    2.40
   3   1  -4    9.57    1.95
  -3  -1   4    8.25    2.39
  -3  -1   4   10.36    2.61
  -3  -1   4   10.94    2.26
   3   1  -4   15.20    5.26
  -3  -1   4   10.28    1.80
  -3  -1   3  436.30   16.98
  -3  -1   3  430.39   16.08
  -3  -1   3  431.70   17.68
  -3  -1   3  432.44   16.95
   3   1  -3  413.28   17.13
  -3  -1   3  435.05   14.31
   3   1  -3  464.56   27.99
  -3  -1   3  415.83   17.95
  -3  -1   2  665.08   21.42
   3   1  -2  704.24   23.01
  -3  -1   2  686.78   21.77
   3   1  -2  672.40   24.99
  -3  -1   2  701.00   24.24
  -3  -1   2  714.30   20.32
  -3  -1   2  695.23   21.90
  -3  -1   2  690.84   18.24
   3   1  -2  752.91   36.14
  -3  -1   1 1886.05   49.92
  -3  -1   1 1912.47   46.44
   3   1  -1 1799.25   47.48
  -3  -1   1 1916.62   45.50
   3   1  -1 1810.75   50.54
   3   1  -1 1894.58   46.11
  -3  -1   1 1947.62   47.08
  -3  -1   1 1887.62   45.35
   3   1  -1 1836.95   62.03
   3   1  -1 2000.56   48.28
   3   1   0   43.35    4.43
  -3  -1   0   47.11    3.65
   3   1   0   54.27    5.72
   3   1   0   47.91    3.44
  -3  -1   0   46.61    5.19
   3   1   0   56.51    4.66
  -3  -1   0   48.41    4.30
  -3  -1   0   55.87    4.79
   3   1   0   50.74    4.76
   3   1   0   43.88    6.86
   3   1   1  255.27   16.16
  -3  -1  -1  263.29   11.15
  -3  -1  -1  237.80    8.72
   3   1   1  258.73    8.13
   3   1   1  260.02   13.37
   3   1   1  274.68   11.65
  -3  -1  -1  279.43   11.83
  -3  -1  -1  258.14   11.25
   3   1   2 1048.10   22.36
  -3  -1  -2 1045.11   27.74
  -3  -1  -2 1032.32   29.06
   3   1   2 1021.04   29.16
   3   1   2  997.56   33.79
   3   1   2 1017.32   32.06
   3   1   3  164.06    9.01
   3   1   3  174.20    9.76
   3   1   3  169.44   11.33
  -3  -1  -3  170.64    9.32
   3   1   3  168.89   11.14
   3   1   4 1314.40   36.61
   3   1   4 1301.07   35.19
  -3  -1  -4 1239.22   35.31
  -3  -1  -5 1369.87   40.09
   3   1   5 1305.00   36.83
  -3  -1  -5 1410.69   37.99
   3   1   5 1366.77   39.12
   3   1   6   22.43    3.85
  -3  -1  -6   25.70    3.84
   3   1   6   27.72    3.86
  -3  -1  -7 1502.33   41.30
   3   1   7 1412.92   37.33
   3   1   7 1373.97   39.42
   3   1   7 1509.49   43.09
  -3  -1  -8 1184.15   36.11
   3   1   8 1173.41   33.64
   3   1   8 1196.07   37.97
   3   1   8 1154.24   34.75
   3   1   9  104.01    8.21
   3   1   9  109.33    8.46
   3   1   9  112.94    9.78
  -3  -1  -9  101.82    8.61
  -3  -1  -9  106.70   10.81
   3   1  10  515.18   21.37
   3   1  10  568.19   22.86
   3   1  10  559.92   24.52
  -3  -1 -10  535.24   22.82
  -3  -1 -10  603.12   28.73
  -3  -1 -11   59.75    9.43
  -3  -1 -11   54.17    5.93
   3   1  11   71.47    7.82
   3   1  11   65.87    6.77
  -3  -1 -11   58.67    6.95
   3   1  11   60.23    7.90
  -3  -1 -12  153.88   16.18
  -3  -1 -12  151.62    9.71
   3   1  12  170.11   13.12
   3   1  12  156.27   11.29
   3   1  12  163.71   13.21
  -3  -1 -12  153.08   16.21
  -3  -1 -12  185.19   18.78
  -3  -1 -13  511.20   34.27
   3   1  13  539.65   26.28
  -3  -1 -13  491.10   18.86
   3   1  13  485.64   22.14
  -3  -1 -13  552.97   33.40
  -3  -1 -13  555.04   33.96
  -3  -1 -14  158.07   19.10
   3   1  14  154.57   14.13
   3   1  14  149.09   11.54
  -3  -1 -14  158.01   19.51
  -3  -1 -15   58.03   12.74
  -3  -1 -15   56.33   12.91
   3   1  15   57.74    9.57
  -3  -1 -16   37.32   11.29
   3   1  16   29.32    6.73
   3   1  17   45.35    9.42
   3   2 -14    1.16    2.05
  -3  -2  13  211.68   20.30
   3   2 -13  157.11   14.86
   3   2 -13  215.01   27.67
  -3  -2  12  128.94   15.25
   3   2 -12  119.35   19.88
   3   2 -12  112.41   12.36
  -3  -2  11  142.22   14.94
   3   2 -11  126.96   12.64
   3   2 -11  173.78   22.99
   3   2 -10   46.09   10.59
  -3  -2  10   35.38    5.47
   3   2 -10   33.14    6.23
  -3  -2  10   36.04    6.30
  -3  -2  10   39.46    7.62
  -3  -2   9  401.56   23.59
  -3  -2   9  428.08   21.87
   3   2  -9  398.11   22.04
  -3  -2   9  408.10   20.04
   3   2  -9  471.50   35.27
  -3  -2   8  209.82   15.59
   3   2  -8  199.22   14.49
  -3  -2   8  198.34   13.77
  -3  -2   8  201.58   15.67
  -3  -2   8  204.59   13.30
   3   2  -8  250.44   23.73
  -3  -2   7  688.85   28.74
   3   2  -7  618.33   26.95
  -3  -2   7  633.85   28.61
  -3  -2   7  687.07   26.81
  -3  -2   7  635.17   25.61
   3   2  -7  730.29   41.00
  -3  -2   6   61.89   10.55
  -3  -2   6   66.60    7.69
   3   2  -6   65.89    7.64
  -3  -2   6   75.73    8.46
   3   2  -6   78.96   12.47
  -3  -2   6   70.39    7.30
  -3  -2   6   69.32    4.92
  -3  -2   6   66.90    7.03
  -3  -2   6   66.95    3.40
  -3  -2   6   62.92   11.40
  -3  -2   5  137.70   10.65
   3   2  -5  140.73   10.87
  -3  -2   5  161.67   11.62
  -3  -2   5  162.73   10.88
  -3  -2   5  142.78   10.24
  -3  -2   5  139.48    5.82
  -3  -2   5  138.75   16.05
  -3  -2   5  148.95    8.88
   3   2  -5  163.10   17.10
   3   2  -4   10.07    5.40
  -3  -2   4    1.82    0.98
  -3  -2   4    5.32    1.56
  -3  -2   4    8.14    2.57
  -3  -2   4    3.80    1.00
  -3  -2   4    2.34    1.89
  -3  -2   4    6.90    2.20
   3   2  -4    4.23    2.22
  -3  -2   3  119.45    6.99
  -3  -2   3  131.16    9.10
   3   2  -3  113.45    8.87
  -3  -2   3  119.44    6.09
   3   2  -3  119.62    9.68
  -3  -2   3  124.27    8.95
   3   2  -3  116.49    8.40
  -3  -2   3  132.04    9.24
   3   2  -3  133.25   14.96
  -3  -2   2  304.35   13.87
   3   2  -2  302.06   13.55
  -3  -2   2  304.20   11.65
   3   2  -2  307.59   14.51
   3   2  -2  310.72   15.89
  -3  -2   2  310.59   14.63
   3   2  -2  290.60   11.55
  -3  -2   2  311.48   14.50
  -3  -2   2  294.50   11.11
   3   2  -2  356.31   24.81
  -3  -2   1  369.06   15.69
   3   2  -1  356.86   14.09
   3   2  -1  372.97   17.22
  -3  -2   1  370.95   16.14
   3   2  -1  373.64   13.63
  -3  -2   1  303.41   21.24
   3   2  -1  355.46   15.28
   3   2  -1  351.71   22.61
  -3  -2   1  360.05   14.63
  -3  -2   1  359.49   11.01
  -3  -2   1  358.47   13.22
  -3  -2   0   11.45    2.24
   3   2   0   12.15    2.57
   3   2   0   12.47    2.15
  -3  -2   0   12.46    2.11
   3   2   0   12.85    3.12
  -3  -2   0   10.55    2.24
  -3  -2   0   13.55    2.85
  -3  -2   0   12.81    2.67
   3   2   0   11.45    2.39
   3   2   0    8.01    2.89
  -3  -2   0    8.44    3.57
   3   2   0   13.38    2.38
   3   2   1    4.99    1.54
  -3  -2  -1    2.80    1.30
  -3  -2  -1    3.36    1.00
   3   2   1    2.24    0.94
   3   2   1    5.28    1.56
  -3  -2  -1    3.35    1.37
   3   2   1    4.43    1.95
  -3  -2  -1    3.28    1.47
  -3  -2  -1    1.53    0.95
   3   2   1    4.01    2.62
  -3  -2  -1    8.95    2.69
   3   2   1    1.64    0.42
   3   2   2    7.58    1.92
  -3  -2  -2    5.57    1.67
   3   2   2    7.07    1.66
  -3  -2  -2   10.56    2.52
  -3  -2  -2    9.44    1.93
  -3  -2  -2   10.70    2.20
  -3  -2  -2    6.91    2.70
   3   2   2    5.67    1.74
   3   2   2    8.15    1.44
   3   2   2    6.48    2.40
   3   2   2    7.30    1.86
   3   2   3    7.85    1.91
  -3  -2  -3    8.17    1.72
   3   2   3    9.11    2.24
   3   2   3    9.73    2.20
  -3  -2  -3    5.61    1.95
   3   2   3    7.61    2.33
   3   2   3   10.90    3.33
  -3  -2  -4  153.86    7.28
   3   2   4  139.51    9.89
   3   2   4  131.46    7.57
   3   2   4  135.73    8.61
  -3  -2  -4  157.36    9.50
  -3  -2  -5  101.46    5.57
   3   2   5   88.42    6.83
   3   2   5  108.22    8.96
  -3  -2  -5  102.08    7.53
  -3  -2  -6   80.54    4.78
   3   2   6   91.84    8.64
   3   2   6   83.23    6.65
  -3  -2  -6   80.74    6.97
  -3  -2  -7  406.55   17.21
   3   2   7  351.13   15.65
  -3  -2  -7  380.46   20.10
   3   2   7  401.05   19.82
  -3  -2  -8  494.43   20.13
   3   2   8  447.24   18.60
  -3  -2  -8  499.50   24.62
   3   2   9   10.73    2.79
   3   2   9   12.48    3.40
  -3  -2  -9   11.93    2.79
  -3  -2  -9   14.14    4.42
   3   2  10  226.63   12.60
  -3  -2 -10  220.02    9.68
  -3  -2 -10  253.44   18.75
   3   2  10  230.43   13.68
  -3  -2 -10  220.65   13.31
   3   2  10  246.30   16.42
   3   2  11    9.83    3.49
   3   2  11    7.27    2.36
  -3  -2 -11    8.10    3.14
  -3  -2 -11    6.49    3.99
   3   2  11    7.63    2.06
  -3  -2 -11    9.22    2.64
  -3  -2 -11    6.25    1.38
   3   2  12  135.08   11.71
  -3  -2 -12  121.17    5.43
  -3  -2 -12  144.97   15.90
   3   2  12  124.54    9.44
  -3  -2 -12  109.74    9.81
  -3  -2 -12  139.25   16.24
  -3  -2 -13  567.92   36.97
   3   2  13  557.57   27.35
  -3  -2 -13  609.21   37.00
   3   2  13  548.09   22.67
   3   2  14  202.30   12.93
  -3  -2 -14  208.01   22.91
   3   2  14  217.11   17.10
  -3  -2 -14  237.94   24.24
  -3  -2 -15  186.89   22.97
   3   2  15  178.55   16.34
  -3  -2 -15  226.06   25.29
   3   2  16   90.90   12.38
  -3  -2 -16  109.00   18.59
  -3  -2 -17   16.06    6.78
   3   2  17   21.25    7.06
   3   3 -14   -2.75    3.41
   3   3 -13   99.70   12.41
   3   3 -12  156.62   15.85
   3   3 -12  202.90   25.84
  -3  -3  12  150.29   16.45
  -3  -3  11  139.59   15.30
   3   3 -11  130.20   13.74
   3   3 -11  169.90   22.82
  -3  -3  10  124.56   13.55
   3   3 -10  143.70   19.89
   3   3 -10  101.29   11.92
  -3  -3  10  113.49   10.82
  -3  -3   9  511.52   27.73
   3   3  -9  509.29   27.40
  -3  -3   9  526.71   24.15
   3   3  -9  567.37   39.04
   3   3  -8  182.74   15.24
  -3  -3   8  185.51   12.96
  -3  -3   8  190.05   15.32
   3   3  -8  214.25   22.73
  -3  -3   7 1261.74   44.64
   3   3  -7 1275.96   45.60
  -3  -3   7 1207.63   45.75
  -3  -3   7 1348.93   41.06
   3   3  -6  418.80   22.39
  -3  -3   6  400.43   22.16
  -3  -3   6  441.69   19.41
   3   3  -6  409.72   21.53
  -3  -3   6  396.92   28.94
  -3  -3   6  396.24   29.54
   3   3  -6  496.93   32.39
  -3  -3   6  441.20   21.98
   3   3  -5    1.55    1.79
  -3  -3   5    0.52    3.32
  -3  -3   5    4.13    2.45
  -3  -3   5    0.66    0.36
  -3  -3   5    0.20    1.13
  -3  -3   5   -0.15    2.39
  -3  -3   5    0.60    1.16
   3   3  -5    5.99    2.50
  -3  -3   4  987.20   24.61
  -3  -3   4  908.32   33.59
   3   3  -4  975.02   33.73
  -3  -3   4  982.88   31.28
  -3  -3   4 1032.65   45.73
   3   3  -4 1111.39   48.08
   3   3  -4  946.87   34.60
  -3  -3   4  962.88   33.68
  -3  -3   4  994.64   25.26
  -3  -3   4  869.42   42.91
  -3  -3   3  540.14   16.23
   3   3  -3  516.48   22.97
  -3  -3   3  565.48   22.67
   3   3  -3  522.53   22.74
  -3  -3   3  550.13   20.97
   3   3  -3  527.56   16.78
  -3  -3   3  531.98   16.57
  -3  -3   3  529.99   18.37
  -3  -3   3  603.50   32.07
  -3  -3   3  532.41   23.60
   3   3  -2  741.49   26.06
   3   3  -2  717.61   27.04
  -3  -3   2  734.40   25.25
  -3  -3   2  700.18   27.41
   3   3  -2  732.91   21.67
  -3  -3   2  768.98   36.00
  -3  -3   2  711.77   22.32
  -3  -3   2  726.39   21.71
  -3  -3   2  723.26   26.26
   3   3  -2  736.85   27.73
   3   3  -1 1664.74   46.12
  -3  -3   1 1680.29   46.85
   3   3  -1 1607.87   46.61
  -3  -3   1 1807.04   45.26
   3   3  -1 1614.79   56.74
   3   3  -1 1709.83   43.01
   3   3  -1 1701.05   49.16
  -3  -3   1 1692.89   46.12
  -3  -3   1 1677.98   48.37
  -3  -3   1 1746.21   58.97
  -3  -3   1 1675.25   42.72
  -3  -3   1 1583.92   58.36
  -3  -3   0   62.12    8.79
   3   3   0   60.25    5.98
  -3  -3   0   63.41    5.92
   3   3   0   60.29    6.85
  -3  -3   0   61.00    4.47
  -3  -3   0   54.58    5.24
  -3  -3   0   61.70    6.59
  -3  -3   0   57.18    6.17
   3   3   0   55.39    7.87
   3   3   0   61.18    4.74
   3   3   0   60.95    5.56
  -3  -3   0   51.59    8.33
   3   3   0   62.31    6.02
   3   3   1  435.90   22.73
  -3  -3  -1  444.43   16.96
   3   3   1  443.53   20.75
  -3  -3  -1  444.47   19.94
  -3  -3  -1  453.99   19.18
   3   3   1  476.90   18.69
  -3  -3  -1  384.84   22.37
   3   3   1  450.14   17.63
  -3  -3  -1  458.39   18.07
  -3  -3  -1  451.98   14.08
   3   3   1  446.19   18.04
   3   3   1  444.50   18.26
   3   3   2  950.12   27.99
  -3  -3  -2  941.20   27.34
   3   3   2  935.09   34.68
   3   3   2  924.29   33.82
  -3  -3  -2  962.86   32.84
  -3  -3  -2  962.49   30.67
   3   3   2 1020.90   31.94
  -3  -3  -2  880.83   33.98
   3   3   2  924.73   30.96
   3   3   2  939.47   26.97
  -3  -3  -2  912.49   29.93
   3   3   3   18.31    2.84
   3   3   3   17.22    3.30
   3   3   3   16.97    3.54
  -3  -3  -3   19.43    2.76
   3   3   3   17.01    2.66
   3   3   3   17.68    3.51
  -3  -3  -3   19.90    3.61
  -3  -3  -3   21.48    3.60
   3   3   3   18.23    3.48
  -3  -3  -4  179.46    8.31
   3   3   4  172.15    9.58
   3   3   4  178.26   10.76
  -3  -3  -4  175.70   10.88
   3   3   4  162.62   10.73
   3   3   4  161.95   11.89
   3   3   4  169.83   11.48
   3   3   5   25.51    4.74
  -3  -3  -5   24.64    2.65
   3   3   5   30.73    4.16
   3   3   5   26.43    4.06
  -3  -3  -5   27.62    4.29
   3   3   5   28.82    4.19
  -3  -3  -6    2.54    0.91
   3   3   6    3.51    1.37
   3   3   6    3.87    2.39
   3   3   6    4.07    1.50
  -3  -3  -6    2.41    1.62
  -3  -3  -7  349.21   10.76
   3   3   7  366.22   20.53
  -3  -3  -7  359.57   20.86
   3   3   7  356.60   16.00
  -3  -3  -7  358.16   16.54
   3   3   7  354.75   17.47
   3   3   8  161.85   10.16
  -3  -3  -8  154.10    5.48
  -3  -3  -8  180.40   15.31
  -3  -3  -8  162.58   10.77
   3   3   8  153.50   13.35
   3   3   9   43.71    7.32
  -3  -3  -9   33.62    7.09
  -3  -3  -9   33.81    4.82
  -3  -3  -9   41.56    7.48
   3   3   9   35.95    4.72
  -3  -3 -10    8.53    4.04
  -3  -3 -10    4.00    1.83
  -3  -3 -10   -0.37    2.50
   3   3  10    4.67    1.86
  -3  -3 -11   67.22   11.11
  -3  -3 -11   67.19   10.47
   3   3  11   72.68    7.13
  -3  -3 -11   59.50    6.89
   3   3  12   13.24    4.60
  -3  -3 -12   11.19    3.10
   3   3  12   20.01    3.88
  -3  -3 -13  145.25   18.68
   3   3  13  144.72   14.89
   3   3  13  149.59   13.50
   3   3  13  160.41   11.13
  -3  -3 -13  167.08   19.54
  -3  -3 -14   59.28   12.47
  -3  -3 -14   66.86   13.23
   3   3  14   80.06   11.37
   3   3  14   70.32    9.81
   3   3  15   43.98    8.04
  -3  -3 -15   74.12   14.14
  -3  -3 -15   75.04   14.85
   3   3  15   43.30    9.20
  -3  -3 -16    1.31    6.92
   3   3  16    2.12    2.69
  -3  -3 -17   29.01    9.76
   3   3  17   31.37    7.34
   3   4 -14    4.87    2.60
   3   4 -13   24.95    7.12
   3   4 -12   10.67    4.85
   3   4 -12    9.28    4.39
  -3  -4  12   16.40    5.88
  -3  -4  11   83.37   11.85
   3   4 -11   97.03   17.43
   3   4 -11   78.68   11.68
  -3  -4  10    3.93    3.25
   3   4 -10    6.70    4.27
   3   4 -10    4.87    3.91
   3   4  -9  108.94   16.87
   3   4  -9   86.66   11.92
  -3  -4   9   79.58    8.14
  -3  -4   9   76.90   10.47
   3   4  -8   73.76   13.35
   3   4  -8   54.73    8.74
  -3  -4   8   72.90    7.58
  -3  -4   8   69.75    9.66
   3   4  -7  265.60   19.59
  -3  -4   7  254.56   14.28
  -3  -4   7  250.05   18.01
  -3  -4   7  264.36   16.05
   3   4  -7  287.38   25.32
   3   4  -6   42.68    9.24
   3   4  -6   30.17    5.91
  -3  -4   6   27.08    4.20
  -3  -4   6   34.66    5.37
  -3  -4   6   28.15    5.58
  -3  -4   5   20.10    6.24
   3   4  -5   23.51    6.63
   3   4  -5   10.83    3.71
  -3  -4   5   18.32    4.15
  -3  -4   5   16.79    3.22
  -3  -4   5   19.14    6.27
  -3  -4   5   19.23    4.61
   3   4  -5   23.21    4.75
  -3  -4   5   22.37    4.06
   3   4  -4  135.19   12.16
   3   4  -4  139.25   11.79
  -3  -4   4  141.73   12.00
   3   4  -4  134.91   11.10
  -3  -4   4  147.77    9.94
   3   4  -4  146.45    6.96
   3   4  -4  170.27   17.97
  -3  -4   4  162.45   16.89
  -3  -4   4  156.86   10.27
  -3  -4   4  145.56   11.96
  -3  -4   4  150.94   16.52
   3   4  -3  237.03   15.96
   3   4  -3  228.30   14.64
  -3  -4   3  222.65   12.33
   3   4  -3  220.80   10.11
  -3  -4   3  266.56   20.83
   3   4  -3  231.49   14.91
  -3  -4   3  229.99   12.62
  -3  -4   3  250.50   15.57
  -3  -4   3  221.29    9.36
   3   4  -3  280.78   22.74
  -3  -4   3  241.39   10.97
  -3  -4   3  231.46   20.16
   3   4  -2  538.90   24.65
   3   4  -2  539.43   23.75
  -3  -4   2  542.16   24.15
  -3  -4   2  534.73   20.98
   3   4  -2  544.64   18.97
  -3  -4   2  550.31   22.34
  -3  -4   2  583.96   30.86
  -3  -4   2  538.02   25.65
  -3  -4   2  533.96   19.28
  -3  -4   2  525.63   17.72
  -3  -4   1 1211.00   35.75
  -3  -4   1 1218.85   40.89
   3   4  -1 1221.67   40.69
   3   4  -1 1224.09   40.20
   3   4  -1 1218.84   35.93
  -3  -4   1 1182.93   41.72
  -3  -4   1 1407.92   51.07
  -3  -4   1 1372.18   41.12
  -3  -4   0   62.25    9.10
  -3  -4   0   60.95    6.12
   3   4   0   62.81    8.49
   3   4   0   60.98    7.34
  -3  -4   0   58.40    6.13
  -3  -4   0   59.06    7.44
  -3  -4   0   53.64    7.01
   3   4   0   57.10    6.32
   3   4   0   61.93    6.39
   3   4   0   53.11    6.65
   3   4   0   52.61    6.39
   3   4   1  764.40   26.97
  -3  -4  -1  765.61   25.95
  -3  -4  -1  760.50   29.54
   3   4   1  785.72   28.64
   3   4   1  733.11   30.80
   3   4   1  739.23   31.65
  -3  -4  -1  788.94   32.10
  -3  -4  -1  769.56   33.15
  -3  -4  -1  796.37   24.98
  -3  -4  -1  766.79   27.36
   3   4   1  766.07   29.76
   3   4   1  757.42   30.03
  -3  -4  -2 1259.20   43.22
   3   4   2 1296.61   37.28
  -3  -4  -2 1235.14   35.99
   3   4   2 1259.76   44.78
  -3  -4  -2 1335.86   44.73
  -3  -4  -2 1295.27   40.93
   3   4   2 1301.06   43.08
  -3  -4  -2 1293.29   39.94
   3   4   2 1284.87   42.99
  -3  -4  -2 1302.37   35.91
   3   4   2 1224.03   39.10
   3   4   2 1352.91   42.02
   3   4   3   17.34    4.09
   3   4   3   15.23    3.78
   3   4   3   17.42    2.97
  -3  -4  -3   14.57    3.56
  -3  -4  -3   13.92    2.52
  -3  -4  -3   14.45    3.71
  -3  -4  -3   16.17    3.77
   3   4   3   12.86    2.76
   3   4   3   17.83    3.36
   3   4   4 1039.31   37.37
   3   4   4 1084.17   39.12
   3   4   4 1058.59   30.20
  -3  -4  -4 1062.85   29.62
   3   4   4 1036.27   35.00
  -3  -4  -4 1055.80   34.79
   3   4   4 1111.65   33.92
  -3  -4  -5  548.40   17.94
   3   4   5  567.59   24.14
  -3  -4  -5  563.77   22.90
   3   4   5  591.10   23.17
   3   4   5  550.92   23.20
   3   4   5  588.77   27.62
  -3  -4  -6   77.03    7.68
  -3  -4  -6   67.60    4.75
   3   4   6   76.10    7.76
   3   4   6   77.86    9.63
   3   4   6   70.28    7.13
  -3  -4  -6   68.40    8.82
  -3  -4  -6   75.72    9.30
  -3  -4  -7 1773.92   40.67
   3   4   7 1758.52   58.38
  -3  -4  -7 1748.88   50.21
   3   4   7 1802.26   49.76
   3   4   7 1743.11   51.99
  -3  -4  -7 1772.56   58.65
  -3  -4  -7 1832.03   58.35
   3   4   8  795.92   35.78
  -3  -4  -8  789.06   35.74
   3   4   8  785.70   27.95
  -3  -4  -8  781.70   28.50
   3   4   8  779.59   31.01
  -3  -4  -8  781.88   36.21
  -3  -4  -9  187.19   12.21
  -3  -4  -9  167.27   16.36
   3   4   9  180.91   13.79
  -3  -4  -9  176.08   16.49
   3   4   9  189.42   11.99
  -3  -4 -10  212.48   13.27
   3   4  10  232.21   13.40
   3   4  10  202.27   15.77
  -3  -4 -10  221.43   20.08
   3   4  11    3.67    1.74
  -3  -4 -11    7.27    4.52
  -3  -4 -11    4.88    2.38
   3   4  11    6.22    2.91
   3   4  12  148.76   10.71
  -3  -4 -12  129.91   10.52
   3   4  12  144.87   14.17
  -3  -4 -12  132.26   17.37
  -3  -4 -13  384.16   31.57
   3   4  13  428.46   19.58
   3   4  13  400.71   26.43
  -3  -4 -13  426.87   33.00
   3   4  14   62.77   10.51
  -3  -4 -14   58.52   12.81
  -3  -4 -14   52.34   11.29
   3   4  14   58.14    8.88
   3   4  15   86.53   11.69
  -3  -4 -15   95.78   17.38
  -3  -4 -15  102.07   17.44
   3   4  15  122.33   15.56
  -3  -4 -16   -0.18    5.64
   3   4  16    1.51    2.17
   3   5 -13  113.13   15.84
   3   5 -12   75.65   12.93
   3   5 -11   73.64   12.43
   3   5 -11   99.84   17.42
  -3  -5  11   73.61   11.75
   3   5 -10   72.21   11.90
  -3  -5  10   61.01    9.64
   3   5 -10   54.38   13.18
   3   5  -9  108.50   16.99
   3   5  -9   75.77   12.03
  -3  -5   9   78.72   11.05
  -3  -5   8  141.44   10.12
   3   5  -8  149.99   16.30
  -3  -5   8  136.07   14.37
  -3  -5   8  137.35   12.47
   3   5  -8  180.80   20.93
   3   5  -7  176.20   17.13
  -3  -5   7  165.44   10.69
  -3  -5   7  147.73   14.38
  -3  -5   7  168.62   13.33
   3   5  -7  198.32   21.27
   3   5  -6   25.02    6.44
  -3  -5   6   22.18    3.75
  -3  -5   6   15.21    4.50
   3   5  -6   16.48    5.63
  -3  -5   6   19.64    4.10
   3   5  -5    7.33    5.44
   3   5  -5    3.07    2.86
  -3  -5   5    1.86    1.70
  -3  -5   5    3.40    1.62
  -3  -5   5   12.95    4.84
  -3  -5   5    5.32    2.61
  -3  -5   4   36.43    2.51
  -3  -5   4   41.28    9.21
   3   5  -4   30.11    6.48
   3   5  -4   45.60    9.74
   3   5  -4   29.99    5.31
   3   5  -4   34.03    3.67
  -3  -5   4   34.24    6.29
  -3  -5   4   41.80    3.19
  -3  -5   4   37.72    7.75
  -3  -5   4   35.41    4.61
   3   5  -4   40.92    7.16
  -3  -5   4   36.93    5.62
   3   5  -3    8.10    2.20
   3   5  -3    6.62    2.40
  -3  -5   3    6.61    3.43
  -3  -5   3   12.07    2.26
   3   5  -3   11.35    3.52
  -3  -5   3    6.03    2.51
  -3  -5   3    9.11    3.74
   3   5  -3    8.49    2.93
  -3  -5   3    9.99    4.33
  -3  -5   3    8.75    3.14
  -3  -5   2   50.93    9.16
   3   5  -2   43.38    7.28
  -3  -5   2   45.64    7.16
   3   5  -2   41.77    7.13
  -3  -5   2   43.96    6.52
   3   5  -2   45.90    6.77
  -3  -5   2   51.86    7.26
  -3  -5   2   52.56    8.61
   3   5  -2   43.65    5.27
  -3  -5   2   50.70    5.36
  -3  -5   1   37.29    7.65
   3   5  -1   24.89    5.19
   3   5  -1   26.02    4.43
  -3  -5   1   34.90    4.77
  -3  -5   1   23.52    5.12
  -3  -5   1   32.50    7.02
   3   5  -1   28.75    5.56
  -3  -5   1   33.17    5.39
   3   5  -1   26.98    5.10
  -3  -5   1   22.77    5.40
  -3  -5   1   34.40    5.66
   3   5  -1   33.09    5.24
  -3  -5   0    4.04    2.23
   3   5   0    5.05    2.34
   3   5   0    2.23    1.35
  -3  -5   0    1.16    1.12
  -3  -5   0    3.99    1.28
   3   5   0    6.31    2.92
   3   5   0    6.49    2.42
  -3  -5   0    0.70    2.59
  -3  -5   0   12.18    3.90
  -3  -5   0    5.97    2.29
  -3  -5   0    4.47    1.30
   3   5   0    4.45    2.26
  -3  -5  -1  116.47    9.52
   3   5   1  109.82    9.96
   3   5   1  109.46   10.44
   3   5   1   98.28   10.57
  -3  -5  -1  101.50   10.56
   3   5   1  120.03   11.40
  -3  -5  -1  100.30   11.47
  -3  -5  -1  119.79   11.83
  -3  -5  -1  105.68    9.76
   3   5   1  117.63   11.47
  -3  -5  -1  103.91    9.20
   3   5   2  143.31   10.57
  -3  -5  -2  134.44   10.14
  -3  -5  -2  135.97   13.30
  -3  -5  -2  136.32   11.66
  -3  -5  -2  137.47   11.94
   3   5   2  135.61   12.26
   3   5   2  127.60   11.96
  -3  -5  -2  121.67   10.74
  -3  -5  -2  135.59   10.92
   3   5   2  123.04   11.28
   3   5   3    3.14    1.64
   3   5   3    3.48    1.14
   3   5   3    6.76    2.27
  -3  -5  -3    6.03    2.62
  -3  -5  -3    4.36    1.56
  -3  -5  -3    4.29    2.58
  -3  -5  -3    5.99    2.09
   3   5   3    2.31    1.77
  -3  -5  -3    4.00    2.24
  -3  -5  -3    1.62    1.24
  -3  -5  -4   37.09    6.29
   3   5   4   25.00    5.17
   3   5   4   26.17    3.85
  -3  -5  -4   18.49    4.36
  -3  -5  -4   28.52    3.93
   3   5   4   30.93    5.01
  -3  -5  -4   29.27    5.36
  -3  -5  -5    9.90    3.69
   3   5   5    8.74    2.07
  -3  -5  -5    4.53    2.49
  -3  -5  -5    9.66    1.86
  -3  -5  -5    7.85    2.25
   3   5   5    4.43    1.61
   3   5   5    9.56    3.01
  -3  -5  -6   42.43    7.58
   3   5   6   38.58    7.52
  -3  -5  -6   34.06    6.38
   3   5   6   34.97    5.43
  -3  -5  -6   30.89    5.04
   3   5   6   41.66    6.51
   3   5   7  786.87   31.93
  -3  -5  -7  787.64   30.15
   3   5   7  812.86   32.18
  -3  -5  -7  778.89   37.36
  -3  -5  -7  832.19   37.33
   3   5   8  482.46   23.63
  -3  -5  -8  445.14   21.31
   3   5   8  447.82   23.40
  -3  -5  -8  456.39   27.85
   3   5   9  164.49   13.48
   3   5   9  151.77   13.38
  -3  -5  -9  147.97   16.26
  -3  -5  -9  152.10   11.66
   3   5  10  135.95   12.60
  -3  -5 -10  134.19   10.89
   3   5  10  136.48   13.27
  -3  -5 -10  140.94   16.76
  -3  -5 -11    2.79    4.11
  -3  -5 -11   -1.33    1.82
   3   5  11    2.17    2.46
  -3  -5 -12   68.35   13.07
   3   5  12   75.03   10.64
  -3  -5 -13  587.80   39.96
   3   5  13  624.95   34.21
  -3  -5 -13  620.78   42.09
  -3  -5 -14   45.53   10.80
  -3  -5 -14   60.59   13.20
   3   5  14   62.14   10.96
  -3  -5 -15  199.96   25.08
  -3  -5 -15  221.94   27.47
   3   5  16   36.97    8.07
   3   6 -11    5.30    3.50
   3   6 -11    6.52    3.70
   3   6 -10  173.24   20.11
  -3  -6  10  171.03   18.66
   3   6 -10  193.40   23.61
   3   6  -9  355.58   28.64
  -3  -6   9  298.78   23.78
   3   6  -9  360.56   31.03
   3   6  -8  126.73   17.51
   3   6  -8  141.72   17.06
  -3  -6   8  116.75   14.17
   3   6  -7  690.79   39.14
   3   6  -7  752.93   43.30
  -3  -6   7  712.52   36.09
  -3  -6   7  651.68   30.95
   3   6  -6  232.27   20.99
  -3  -6   6  208.34   18.44
  -3  -6   6  188.01   14.87
   3   6  -6  215.57   21.95
   3   6  -5   46.27   10.04
  -3  -6   5   48.05    8.64
   3   6  -5   47.74    3.86
   3   6  -5   42.99    8.80
  -3  -6   5   53.55    7.67
   3   6  -4  528.02   19.84
   3   6  -4  592.97   32.94
   3   6  -4  528.41   25.23
  -3  -6   4  636.35   34.59
  -3  -6   4  564.04   30.32
  -3  -6   4  523.40   26.74
  -3  -6   4  681.36   19.45
  -3  -6   4  585.72   34.61
   3   6  -3  123.36    9.55
   3   6  -3  118.34   11.09
  -3  -6   3  135.26   13.93
  -3  -6   3  149.98   15.79
   3   6  -3  129.73   14.32
  -3  -6   3  129.10   12.55
  -3  -6   3  134.75   15.25
  -3  -6   3  132.67    9.85
  -3  -6   2  367.31   21.96
  -3  -6   2  320.70   16.88
   3   6  -2  318.27   21.98
   3   6  -2  314.28   17.28
   3   6  -2  288.52   18.46
  -3  -6   2  291.96   21.00
  -3  -6   2  352.70   23.47
   3   6  -2  319.96   22.26
  -3  -6   2  331.38   24.03
   3   6  -1  495.61   27.07
  -3  -6   1  581.90   27.90
   3   6  -1  457.08   24.16
   3   6  -1  476.21   23.54
  -3  -6   1  597.43   30.25
   3   6  -1  478.83   24.68
  -3  -6   1  439.73   26.89
  -3  -6   1  483.76   22.33
   3   6  -1  508.83   28.55
  -3  -6   1  488.38   28.94
   3   6   0    4.49    2.15
  -3  -6   0    0.87    1.38
   3   6   0    0.35    1.72
  -3  -6   0    8.40    3.61
   3   6   0    4.80    2.68
  -3  -6   0    7.54    3.61
  -3  -6   0    4.30    1.98
  -3  -6   0    3.33    2.17
   3   6   0    2.71    2.05
  -3  -6   0    5.17    3.04
   3   6   0    2.19    3.14
   3   6   1  484.33   24.34
   3   6   1  410.76   24.53
   3   6   1  458.44   25.12
  -3  -6  -1  507.47   28.87
   3   6   1  448.71   23.46
  -3  -6  -1  529.94   25.93
  -3  -6  -1  418.61   25.24
  -3  -6  -1  440.97   26.14
  -3  -6  -1  497.84   24.30
   3   6   1  461.79   27.35
  -3  -6  -1  447.76   22.69
   3   6   2  376.99   20.77
   3   6   2  409.30   21.14
   3   6   2  383.24   23.92
  -3  -6  -2  429.77   26.31
  -3  -6  -2  423.55   21.81
  -3  -6  -2  392.61   21.62
  -3  -6  -2  365.38   22.97
   3   6   2  458.04   27.08
  -3  -6  -3   32.59    6.57
  -3  -6  -3   34.00    6.76
   3   6   3   30.80    6.68
   3   6   3   39.15    7.68
   3   6   3   33.98    5.30
   3   6   3   31.46    5.61
  -3  -6  -3   33.42    6.77
  -3  -6  -3   34.30    5.86
   3   6   4    5.71    3.50
  -3  -6  -4    5.18    2.60
   3   6   4    6.60    2.07
   3   6   4    2.58    1.47
  -3  -6  -4    3.41    2.13
   3   6   4    6.53    2.82
  -3  -6  -4    6.41    3.11
   3   6   4    1.29    1.43
  -3  -6  -5   10.67    3.39
   3   6   5   15.82    3.21
   3   6   5   12.03    3.49
   3   6   5   11.92    2.83
   3   6   5   13.15    3.85
  -3  -6  -5    9.84    3.45
   3   6   6   11.80    3.51
  -3  -6  -6   13.76    4.80
   3   6   6   12.63    2.69
   3   6   6    8.99    3.48
  -3  -6  -6    7.95    2.75
   3   6   6   11.16    3.67
   3   6   7  346.63   18.59
   3   6   7  355.87   22.22
   3   6   7  353.71   21.39
  -3  -6  -7  337.80   19.69
  -3  -6  -7  354.05   24.47
  -3  -6  -8   71.10   11.35
   3   6   8   70.33    9.28
  -3  -6  -8   69.12    8.43
   3   6   8   66.41    8.02
   3   6   8   82.48   10.27
  -3  -6  -9   44.72    9.33
  -3  -6  -9   49.94    7.00
   3   6   9   46.88    7.91
  -3  -6 -10   20.81    6.43
   3   6  10   12.65    4.42
  -3  -6 -10   17.49    4.04
  -3  -6 -11   13.75    4.47
   3   6  11   23.52    5.89
  -3  -6 -12   23.90    7.83
   3   6  12   18.92    5.81
  -3  -6 -13  193.35   22.77
   3   6  13  170.07   17.48
  -3  -6 -13  221.80   25.35
  -3  -6 -14   21.90    9.21
   3   6  14   13.36    5.35
  -3  -6 -15   75.82   15.66
   3   7 -10   34.42    9.20
   3   7 -10   36.06    9.34
   3   7  -9   43.54   11.47
   3   7  -9   36.40    9.33
  -3  -7   9   33.02    8.78
   3   7  -8   61.85   11.95
  -3  -7   8   61.82   11.54
   3   7  -8   61.41   13.00
   3   7  -7  194.46   21.35
  -3  -7   7  186.28   18.67
   3   7  -7  205.53   22.13
  -3  -7   6   63.32   10.64
   3   7  -6   78.87   13.64
  -3  -7   6   67.07    9.68
   3   7  -6   70.21   12.15
  -3  -7   5   60.13   10.32
   3   7  -5   70.57   12.07
   3   7  -5   51.61    4.88
  -3  -7   5   57.67    9.03
   3   7  -4  450.33   29.67
   3   7  -4  359.66   20.21
   3   7  -4  369.32   17.72
  -3  -7   4  386.08   24.53
  -3  -7   4  375.86   26.21
  -3  -7   4  467.74   28.94
  -3  -7   4  472.46   17.29
   3   7  -3   82.11   11.86
  -3  -7   3   85.44   12.29
  -3  -7   3   75.90   11.01
   3   7  -3   80.49    9.22
  -3  -7   3  100.69   12.81
   3   7  -3   82.93    8.66
  -3  -7   3  106.77   12.44
  -3  -7   3  103.18    9.18
   3   7  -2  282.70   22.31
   3   7  -2  252.12   17.26
  -3  -7   2  357.02   23.46
  -3  -7   2  354.21   22.62
  -3  -7   2  271.19   21.88
   3   7  -2  264.54   18.31
  -3  -7   2  320.58   17.99
  -3  -7   2  296.22   22.43
   3   7  -1  720.68   35.86
   3   7  -1  659.13   31.21
   3   7  -1  602.53   30.32
  -3  -7   1  688.61   37.04
  -3  -7   1  845.45   36.54
  -3  -7   1  713.10   30.51
  -3  -7   1  827.96   36.16
  -3  -7   1  718.91   36.03
  -3  -7   0   25.44    6.12
   3   7   0   16.15    4.92
  -3  -7   0   11.50    3.85
   3   7   0   14.07    4.10
   3   7   0   21.50    5.94
  -3  -7   0   31.72    6.54
   3   7   0   18.74    4.98
  -3  -7   0   20.24    4.71
  -3  -7   0   15.38    4.61
   3   7   1 1037.45   42.37
   3   7   1  962.72   42.06
  -3  -7  -1 1143.84   48.83
   3   7   1  950.76   42.79
  -3  -7  -1 1089.14   42.61
  -3  -7  -1 1173.47   40.74
   3   7   1 1052.31   47.31
  -3  -7  -1 1015.92   40.54
   3   7   1 1256.61   48.37
  -3  -7  -1  996.57   42.97
   3   7   2  814.74   32.49
   3   7   2  787.84   34.47
  -3  -7  -2  940.31   42.93
  -3  -7  -2  733.56   35.69
   3   7   2  744.53   38.10
   3   7   2  910.51   42.29
  -3  -7  -2  870.67   36.34
  -3  -7  -2  790.07   35.29
   3   7   2  886.60   40.41
  -3  -7  -3   -1.31    2.06
   3   7   3    0.85    2.17
  -3  -7  -3   -0.77    3.14
   3   7   3   -0.20    1.51
  -3  -7  -3    3.08    2.40
   3   7   3    1.87    2.19
   3   7   3    4.52    2.38
   3   7   4  412.07   26.71
   3   7   4  386.63   20.25
  -3  -7  -4  407.46   23.61
   3   7   4  381.59   24.96
   3   7   4  340.20   19.14
  -3  -7  -4  380.30   24.46
   3   7   5   83.45    8.27
   3   7   5   97.88   12.30
   3   7   5   75.76    8.35
   3   7   5   78.30   10.25
  -3  -7  -5   89.68   11.76
  -3  -7  -5   89.97   10.99
   3   7   6   42.64    5.35
  -3  -7  -6   47.31    8.97
   3   7   6   48.09    7.99
   3   7   6   41.16    6.01
  -3  -7  -6   40.49    7.38
   3   7   6   39.10    7.68
   3   7   7 1122.02   32.16
  -3  -7  -7 1028.76   41.57
   3   7   7 1075.35   37.78
   3   7   7 1143.32   45.68
  -3  -7  -7 1140.08   50.02
  -3  -7  -8  168.12   14.59
   3   7   8  175.01   13.19
  -3  -7  -8  200.54   20.21
   3   7   8  179.67   16.29
  -3  -7  -9  158.11   14.12
   3   7   9  177.05   13.69
   3   7   9  183.49   16.96
  -3  -7  -9  192.18   20.20
  -3  -7 -10   34.55    8.59
   3   7  10   26.86    5.56
   3   7  10   26.65    7.08
  -3  -7 -11   -0.60    4.18
   3   7  11    9.21    4.49
  -3  -7 -12   38.44   10.16
   3   7  12   42.32    9.19
  -3  -7 -13  220.31   24.42
   3   7  13  200.97   20.33
  -3  -7 -13  212.17   25.99
  -3  -7 -14    4.59    6.45
  -3  -7 -15   88.89   16.31
   3   8  -9   19.44    7.18
  -3  -8   8   22.61    7.07
   3   8  -8   33.94   10.00
   3   8  -8   18.72    7.41
  -3  -8   7   36.67    8.93
   3   8  -7   56.60   12.07
  -3  -8   6    1.22    3.14
   3   8  -6    1.91    3.07
  -3  -8   5   -0.20    3.35
   3   8  -5    4.02    3.40
  -3  -8   4   45.60    5.46
  -3  -8   4   32.23    7.40
   3   8  -4   34.92    8.69
   3   8  -4   43.37    6.44
  -3  -8   4   37.49    7.94
  -3  -8   3    1.82    2.69
   3   8  -3    0.31    1.73
  -3  -8   3   -0.86    1.19
   3   8  -3   -1.01    3.79
   3   8  -3   -0.81    1.77
  -3  -8   3    0.37    1.66
  -3  -8   3   -4.59    4.54
  -3  -8   2    7.77    3.67
   3   8  -2    4.48    2.60
  -3  -8   2    3.03    2.68
   3   8  -2   -2.12    2.69
  -3  -8   2    4.68    3.56
   3   8  -2    3.51    2.33
  -3  -8   2    0.24    2.12
  -3  -8   2   -0.83    4.28
  -3  -8   1   20.45    5.39
   3   8  -1   15.15    4.83
  -3  -8   1   16.22    4.83
   3   8  -1   13.70    4.82
   3   8  -1   25.39    5.95
  -3  -8   1   30.51    6.92
  -3  -8   1   27.52    5.90
  -3  -8   1   12.90    4.84
   3   8  -1   18.58    5.32
  -3  -8   0   -1.79    1.53
   3   8   0    1.88    1.91
  -3  -8   0    0.38    1.89
   3   8   0   -2.85    4.04
  -3  -8   0   -1.84    2.88
   3   8   0   -2.97    3.52
   3   8   0   -0.88    3.89
  -3  -8   0    1.63    2.04
  -3  -8   0    0.91    2.80
   3   8   1  398.51   25.83
   3   8   1  459.28   28.93
  -3  -8  -1  427.73   29.64
   3   8   1  363.46   24.54
  -3  -8  -1  423.45   21.69
  -3  -8  -1  403.65   25.71
  -3  -8  -1  361.73   23.99
  -3  -8  -1  388.18   24.71
  -3  -8  -2  137.36   14.12
  -3  -8  -2  165.88   17.90
   3   8   2  143.26   15.44
  -3  -8  -2  143.30   14.95
   3   8   2  135.49   14.13
   3   8   2  177.08   17.66
  -3  -8  -2  138.61   14.43
  -3  -8  -3   36.99    7.69
   3   8   3   51.03    8.15
   3   8   3   36.03    5.89
  -3  -8  -3   45.52    9.95
   3   8   3   42.76    8.93
  -3  -8  -3   43.95    8.16
  -3  -8  -3   34.50    6.98
  -3  -8  -4   29.96    7.09
   3   8   4   34.81    8.04
   3   8   4   26.60    5.81
   3   8   4   33.58    5.52
   3   8   5  118.16   10.95
  -3  -8  -5  114.11   14.33
   3   8   5  100.39    9.63
   3   8   5  108.70   13.97
   3   8   6   47.43    6.39
  -3  -8  -6   42.33    9.26
   3   8   6   47.86    6.69
   3   8   6   43.51    8.33
   3   8   7  952.76   31.05
   3   8   7  924.49   34.59
   3   8   7  912.41   43.66
  -3  -8  -7  939.43   47.64
   3   8   8  147.83   16.40
   3   8   8  152.77   12.15
  -3  -8  -8  149.09   18.19
   3   8   9  178.82   13.84
   3   8   9  189.24   18.64
  -3  -8  -9  169.13   20.42
  -3  -8 -10  104.71   16.07
   3   8  10   92.03   10.26
   3   8  10  102.80   13.98
  -3  -8 -11    8.42    7.02
   3   8  11    4.40    3.26
   3   8  11    3.57    3.88
   3   8  12  111.02   14.92
  -3  -8 -13  407.25   32.53
   3   9  -7  283.05   28.52
  -3  -9   7  241.78   24.39
  -3  -9   6   39.88    9.41
   3   9  -6   56.61   12.42
  -3  -9   5   97.78   15.14
   3   9  -5  110.30   16.67
  -3  -9   4  157.97   19.40
   3   9  -4  194.50   21.77
  -3  -9   3   14.91    3.90
   3   9  -3   14.20    6.37
   3   9  -3   14.04    3.98
  -3  -9   3   14.54    5.90
   3   9  -2   65.85   11.89
   3   9  -2   67.65    9.51
  -3  -9   2   64.47   11.71
  -3  -9   2   82.82   10.11
   3   9  -1  109.32   14.99
   3   9  -1   94.43   11.44
   3   9  -1   91.12   12.89
  -3  -9   1   84.82   13.72
  -3  -9   1  104.07   12.18
  -3  -9   0    7.54    2.91
   3   9   0    1.02    2.03
  -3  -9   0   11.78    4.45
   3   9   0   10.72    5.34
  -3  -9   0    4.40    2.56
   3   9   0   12.72    5.84
   3   9   1  254.48   21.66
  -3  -9  -1  255.94   23.70
   3   9   1  236.14   19.74
  -3  -9  -1  252.86   20.51
   3   9   1  293.65   23.81
  -3  -9  -1  239.37   19.02
  -3  -9  -2   38.33    7.72
  -3  -9  -2   31.90    7.50
   3   9   2   41.33    7.86
   3   9   2   42.23    8.83
  -3  -9  -2   43.68   10.07
   3   9   2   44.98    9.81
  -3  -9  -3   18.07    5.12
  -3  -9  -3   27.78    7.00
   3   9   3   21.23    5.86
  -3  -9  -3   29.38    7.87
   3   9   3   28.36    7.34
  -3  -9  -4    9.92    3.67
  -3  -9  -4   25.85    7.09
   3   9   4   25.51    6.28
   3   9   4   28.65    7.66
  -3  -9  -5   -3.38    4.10
   3   9   5    4.18    2.16
   3   9   5    0.97    1.49
   3   9   5    2.57    2.59
  -3  -9  -6   31.44    8.80
   3   9   6   17.30    4.03
   3   9   6   18.24    4.08
   3   9   6   23.04    6.79
   3   9   7  183.03   19.90
  -3  -9  -7  175.91   20.61
  -3  -9  -8   -0.68    4.68
   3   9   8   -5.41    5.83
  -3  -9  -9   64.23   13.30
   3   9   9   64.05   11.81
  -3  -9 -10   14.09    6.26
   3   9  10    1.27    4.78
   3   9  11   -1.91    3.47
   3  10  -5  190.61   23.25
  -3 -10   5  172.10   21.81
   3  10  -4  440.93   34.27
  -3 -10   4  382.18   32.37
  -3 -10   3   21.45    8.32
   3  10  -3   35.47    9.39
   3  10  -2  164.06   19.56
  -3 -10   2  126.48   17.90
   3  10  -1  474.16   33.46
   3  10  -1  480.76   27.27
  -3 -10   1  480.46   35.02
   3  10  -1  504.93   33.25
  -3 -10   1  470.51   27.71
  -3 -10   0    2.12    3.23
   3  10   0    3.60    3.08
   3  10   0    1.56    3.19
   3  10   0    0.06    2.67
   3  10   1  879.33   44.50
  -3 -10  -1  781.04   39.82
  -3 -10  -1  874.15   48.00
   3  10   1  797.10   39.24
   3  10   1  936.81   46.78
   3  10   2  395.44   27.46
  -3 -10  -2  367.95   30.25
   3  10   2  325.02   24.74
   3  10   2  418.44   30.39
  -3 -10  -2  347.48   25.91
  -3 -10  -3   24.93    6.99
   3  10   3   23.63    6.64
   3  10   3   34.33    8.33
   3  10   3   46.50   10.44
   3  10   4  100.04   12.44
  -3 -10  -4   97.27   14.55
   3  10   4  105.04   15.47
   3  10   5   93.20   11.30
  -3 -10  -5   91.01   13.98
   3  10   5  116.27   16.72
  -3 -10  -6   29.79    7.12
   3  10   6   29.18    7.23
   3  10   7  441.12   33.83
  -3 -10  -7  475.03   35.64
  -3 -10  -8    1.38    2.80
   3  10   8    6.14    4.71
   3  10   9   76.46   13.90
   3  10  10   -3.93    6.16
   3  11  -2    3.61    3.24
  -3 -11   2   18.18    7.51
  -3 -11   1   63.61   12.73
   3  11  -1   56.88   11.45
   3  11  -1   45.19    9.93
  -3 -11   0   11.46    5.78
  -3 -11   0   14.24    5.35
   3  11   0    0.53    3.84
   3  11   0   -0.11    4.24
   3  11   1  414.62   30.30
  -3 -11  -1  391.00   32.36
   3  11   1  409.68   31.00
  -3 -11  -1  381.23   27.50
  -3 -11  -2   35.14    8.40
   3  11   2   29.90    8.16
  -3 -11  -2   51.86   12.04
   3  11   2   49.81    9.73
   3  11   2   42.06    9.79
  -3 -11  -3   22.31    6.34
   3  11   3   15.80    5.67
   3  11   3   15.49    5.92
   3  11   3   12.21    4.62
  -3 -11  -4   81.99   13.63
   3  11   4   78.72   11.67
   3  11   4   78.12   14.36
  -3 -11  -5   83.73   13.99
   3  11   5  102.41   16.40
  -3 -11  -6   76.50   14.13
   3  11   6   69.17   13.77
   3  11   7  516.10   38.47
   3  11   8    5.13    3.40
   3  12   0   12.12    5.67
   3  12   0   25.75    7.74
   3  12   1  130.40   16.91
   3  12   1   93.63   15.15
  -3 -12  -2    5.62    5.19
   3  12   2   -0.97    3.61
   3  12   2   -0.76    4.16
  -3 -12  -3   21.37    7.79
   3  12   3   28.03    8.59
  -3 -12  -4   14.80    6.68
   3  12   4    6.87    2.75
   3  12   5   18.59    8.49
   4 -12  -1   -2.06    2.81
   4 -11  -2   43.15   10.06
   4 -11  -1   19.73    8.68
   4 -11  -1    1.21    4.66
   4 -11   0   66.43   13.48
   4 -11   0   53.09   12.01
   4 -11   1   14.42    6.90
   4 -11   1   15.95    7.26
   4 -11   2    6.01    4.63
   4 -11   2    2.07    2.69
   4 -11   3    8.17    5.71
   4 -11   3    2.42    4.38
   4 -11   4   59.32   11.71
   4 -11   5    9.65    3.25
  -4  11  -5   13.96    6.36
   4 -10  -4    8.26    4.07
   4 -10  -4    9.97    7.40
  -4  10   4    9.93    5.80
  -4  10   3  186.90   24.46
   4 -10  -3  181.01   22.82
   4 -10  -2  203.18   23.34
   4 -10  -2  133.98   16.76
  -4  10   2  195.31   24.56
   4 -10  -1   83.56   14.53
   4 -10  -1   65.40   12.02
  -4  10   1   76.32   15.22
  -4  10   0  622.32   44.30
   4 -10   0  549.10   38.08
   4 -10   1   28.18    8.77
   4 -10   1   26.94    8.30
  -4  10  -1   47.85   11.54
   4 -10   2   30.21    8.77
   4 -10   2   29.47    9.76
  -4  10  -2   31.15   10.84
   4 -10   3   97.39   14.72
   4 -10   3   59.60   12.77
  -4  10  -3   98.22   17.67
   4 -10   4   17.40    5.94
   4 -10   4   26.92    8.94
   4 -10   4   21.11    7.67
   4 -10   5   11.38    4.95
   4 -10   5   37.33    9.72
   4 -10   5   21.10    9.21
  -4  10  -5   16.28    7.00
   4 -10   6   45.24   11.37
  -4  10  -6   68.05   12.58
   4 -10   7    2.25    3.15
  -4  10  -7    1.10    2.61
   4  -9  -7    8.28    7.94
  -4   9   7   -8.49    6.99
   4  -9  -6  236.76   27.70
  -4   9   6  175.36   23.33
   4  -9  -5   63.90   13.86
  -4   9   5   23.94    8.99
   4  -9  -4   11.47    7.83
   4  -9  -4   10.43    4.12
  -4   9   4   12.12    6.14
   4  -9  -3   75.56   13.98
   4  -9  -3   55.95    9.26
  -4   9   3   71.71   14.93
   4  -9  -2  196.35   22.61
  -4   9   2  247.20   26.87
   4  -9  -1  126.60   17.94
  -4   9   1  156.72   21.31
   4  -9  -1  120.52   15.20
   4  -9   0  734.09   43.19
  -4   9   0  847.76   51.58
   4  -9   1   55.83   11.71
   4  -9   1   30.20    8.20
  -4   9  -1   51.27   12.09
   4  -9   2  227.44   22.38
   4  -9   2  186.62   20.58
   4  -9   3  406.91   30.15
   4  -9   3  411.27   31.41
  -4   9  -3  478.85   38.81
   4  -9   4   18.21    6.59
   4  -9   4   12.14    5.29
   4  -9   4   22.20    7.62
  -4   9  -4   17.14    5.63
   4  -9   5  407.77   29.08
   4  -9   5  400.46   30.88
  -4   9  -5  367.87   28.10
   4  -9   5  336.26   30.09
   4  -9   6  289.78   28.87
   4  -9   6  372.31   29.65
  -4   9  -6  311.55   25.61
   4  -9   7   22.21    8.02
   4  -9   7    7.24    5.40
  -4   9  -7   15.58    5.82
   4  -9   8  286.84   29.29
  -4   9  -8  273.95   23.38
   4  -9   9  173.43   21.19
   4  -9  10   27.96    8.83
   4  -8  -9   -0.61    6.14
   4  -8  -8  117.20   20.20
  -4   8   8   83.29   15.34
   4  -8  -7   -3.27    4.99
  -4   8   7    1.59    4.41
   4  -8  -6  118.24   19.02
  -4   8   6  108.35   17.07
   4  -8  -5   41.69   10.83
   4  -8  -5   36.32    6.24
  -4   8   5   23.92    8.36
   4  -8  -4   54.38   12.65
   4  -8  -4   42.04    7.31
  -4   8   4   37.05    9.55
   4  -8  -3   12.54    7.44
   4  -8  -3   11.88    4.32
  -4   8   3    9.99    6.08
   4  -8  -2  106.84   15.85
   4  -8  -2   92.74   11.88
   4  -8  -1    5.15    3.93
   4  -8  -1   -0.03    2.50
  -4   8   1   10.72    7.29
   4  -8   0   84.15   13.70
  -4   8   0  104.30   12.49
   4  -8   0   93.86   12.60
   4  -8   1   29.85    7.45
  -4   8  -1   35.58    6.84
   4  -8   1   22.62    6.38
   4  -8   2    3.89    2.61
   4  -8   2    1.03    0.89
   4  -8   2    2.61    1.91
  -4   8  -2    5.04    5.67
   4  -8   3   53.63   10.12
   4  -8   3   57.67   10.83
  -4   8  -3   51.46    7.66
   4  -8   3   30.72    7.68
   4  -8   3   54.54    5.93
  -4   8  -3   60.29   13.33
  -4   8  -4   26.82    3.24
   4  -8   4   21.62    6.99
  -4   8  -4   22.59    4.49
   4  -8   4   12.06    4.82
   4  -8   4   25.91    4.58
   4  -8   4   28.22    8.02
  -4   8  -4   25.37    9.12
   4  -8   5  109.83   13.92
  -4   8  -5  108.47   14.25
   4  -8   5  137.67   17.49
   4  -8   5   94.69   14.93
  -4   8  -5  136.46    9.46
  -4   8  -6  112.23   14.25
   4  -8   6  133.43   17.04
   4  -8   6  109.86   16.10
  -4   8  -6  120.30   10.06
  -4   8  -7    1.51    1.93
   4  -8   7    2.24    3.43
   4  -8   7   -1.69    2.47
  -4   8  -7    5.33    3.81
  -4   8  -8  208.60   19.04
   4  -8   8  229.68   23.09
   4  -8   8  206.15   23.59
  -4   8  -8  243.94   17.01
  -4   8  -9  235.51   19.80
   4  -8   9  285.64   26.04
   4  -8   9  264.83   27.35
  -4   8  -9  297.21   20.22
  -4   8 -10   39.47    7.70
   4  -8  10   40.13   10.67
   4  -8  10   21.94    6.12
   4  -8  11  133.10   18.18
  -4   8 -11  186.84   17.73
   4  -8  12   14.98    6.36
   4  -7 -10   36.28    9.94
  -4   7  10   42.85    9.84
   4  -7  -9   78.53   16.44
  -4   7   9   61.87   11.91
   4  -7  -8  382.60   35.09
  -4   7   8  284.26   26.90
   4  -7  -7   70.27   14.85
  -4   7   7   70.14   13.40
  -4   7   6  655.71   41.11
   4  -7  -6  590.29   22.05
   4  -7  -5  152.87   20.59
  -4   7   5  163.52    9.63
  -4   7   5  136.76   18.02
   4  -7  -4    3.67    4.50
  -4   7   4   -3.34    4.59
   4  -7  -3  243.85   24.18
  -4   7   3  244.73   24.71
   4  -7  -3  210.10   15.41
   4  -7  -2  140.18   17.61
   4  -7  -2  124.72   12.39
  -4   7   2  148.56   18.88
   4  -7  -1  141.84   17.12
  -4   7   1  137.79   14.49
   4  -7  -1  159.37   14.73
   4  -7   0  420.25   29.73
  -4   7   0  460.14   26.33
   4  -7   0  445.85   26.35
   4  -7   1   54.81    9.83
  -4   7  -1   58.56    8.44
   4  -7   1   72.28    6.08
   4  -7   1   57.04    9.37
  -4   7  -1   73.40   13.68
   4  -7   2   88.55    8.03
   4  -7   2   69.25   10.95
   4  -7   2   57.24   10.17
  -4   7  -2   77.26   13.85
   4  -7   3  153.01   16.59
  -4   7  -3  149.50   12.99
   4  -7   3  185.14   12.33
  -4   7  -3  158.69    7.30
   4  -7   3  137.82   15.73
  -4   7  -3  162.99   20.13
   4  -7   3  151.24   16.22
   4  -7   4   28.20    6.80
  -4   7  -4   30.34    5.41
   4  -7   4   28.70    7.39
   4  -7   4   31.57    7.53
   4  -7   4   41.28    6.22
  -4   7  -4   23.86    8.43
  -4   7  -4   37.10    4.26
  -4   7  -5    1.92    0.99
   4  -7   5   11.89    4.61
   4  -7   5    7.42    4.45
  -4   7  -5    5.46    1.88
   4  -7   5    7.55    4.17
  -4   7  -5    4.87    2.78
  -4   7  -6   48.50    6.22
  -4   7  -6   38.07    7.17
   4  -7   6   45.99    9.84
   4  -7   6   37.21    8.50
  -4   7  -6   42.35    8.50
  -4   7  -7    5.69    2.53
  -4   7  -7   11.60    3.93
   4  -7   7   15.46    5.86
   4  -7   7    8.84    4.25
  -4   7  -7   12.01    4.76
  -4   7  -8   57.69    8.18
   4  -7   8   31.44    8.56
   4  -7   8   41.61    9.15
  -4   7  -8   44.82    7.93
  -4   7  -9   94.89   11.39
  -4   7  -9   86.24   10.98
   4  -7   9   99.13   15.72
   4  -7   9   76.23   13.00
  -4   7 -10    7.40    4.42
  -4   7 -10    5.60    3.47
   4  -7  10    3.28    5.17
   4  -7  10    1.69    3.07
   4  -7  11   16.75    5.85
  -4   7 -11   16.92    5.63
   4  -7  11   17.05    8.11
   4  -7  12    0.30    4.09
  -4   7 -12    3.56    3.10
  -4   7 -12   -7.76    7.26
   4  -7  12    7.17    6.74
   4  -7  13   -0.36    2.93
  -4   7 -13    2.35    3.14
   4  -6 -12   18.86    7.66
   4  -6 -11   45.18   11.96
  -4   6  11   39.44    9.70
   4  -6 -10  101.93   14.36
   4  -6 -10   81.26   16.09
  -4   6  10   72.87   13.17
   4  -6  -9    0.40    5.70
  -4   6   9    2.98    2.87
   4  -6  -9    4.08    3.64
   4  -6  -8  145.97   20.57
  -4   6   8  151.74   17.74
   4  -6  -8  172.29   16.23
   4  -6  -7   33.88    6.55
  -4   6   7   37.64    5.85
   4  -6  -7   31.87    9.12
  -4   6   7   38.02    6.66
  -4   6   7   21.41    6.71
   4  -6  -6  478.77   35.74
  -4   6   6  401.13   20.26
   4  -6  -6  439.38   15.69
  -4   6   6  440.84   31.08
   4  -6  -6  452.38   22.58
   4  -6  -5  137.17   17.97
  -4   6   5  134.67   10.66
   4  -6  -5  130.93    8.83
  -4   6   5  144.36   17.30
   4  -6  -4    4.80    3.46
   4  -6  -4    9.69    2.52
  -4   6   4    8.92    2.30
  -4   6   4   15.66    6.06
   4  -6  -3  389.22   29.56
  -4   6   3  372.91   29.46
  -4   6   3  379.74   15.52
   4  -6  -2  214.21   21.59
   4  -6  -2  231.27   15.19
  -4   6   2  246.81   23.72
   4  -6  -1  395.32   27.80
  -4   6   1  383.43   23.96
  -4   6   1  428.83   26.36
   4  -6  -1  387.96   21.35
  -4   6   0 1100.62   43.42
  -4   6   0 1425.28   61.69
  -4   6   0 1161.52   48.93
   4  -6   0 1339.50   37.69
   4  -6   0 1039.00   41.41
   4  -6   0 1069.96   48.30
  -4   6  -1   37.23    7.44
   4  -6   1   24.65    6.29
   4  -6   1   33.16    6.66
   4  -6   1   39.17    5.77
  -4   6  -1   37.36    9.65
  -4   6  -1   26.24    7.06
  -4   6  -2  475.16   33.63
   4  -6   2  452.15   27.66
   4  -6   2  437.72   25.78
  -4   6  -2  533.30   31.95
  -4   6  -2  444.82   25.75
  -4   6  -2  462.70   13.34
  -4   6  -3  832.15   24.35
   4  -6   3  843.24   38.63
  -4   6  -3 1055.69   46.62
   4  -6   3  814.54   39.28
  -4   6  -3  843.86   33.58
   4  -6   3  790.02   37.56
  -4   6  -3  819.82   45.43
   4  -6   3 1001.56   33.77
  -4   6  -3  776.41   35.32
  -4   6  -4   11.98    2.60
  -4   6  -4   12.30    3.92
   4  -6   4   13.76    4.63
  -4   6  -4    9.40    3.75
  -4   6  -4   10.80    3.23
   4  -6   4   10.04    4.71
   4  -6   4   11.61    4.27
  -4   6  -4    7.06    3.85
  -4   6  -4    7.18    4.78
  -4   6  -5  529.04   21.41
   4  -6   5  559.31   28.89
   4  -6   5  493.93   29.94
  -4   6  -5  507.14   27.38
  -4   6  -5  501.42   21.49
   4  -6   5  591.68   32.65
  -4   6  -5  519.78   31.85
  -4   6  -5  533.20   26.58
  -4   6  -6  139.57   10.86
  -4   6  -6  127.78   12.80
   4  -6   6  153.41   16.59
   4  -6   6  127.49   15.01
  -4   6  -6  149.08   15.82
  -4   6  -6  125.23   12.02
  -4   6  -7    8.10    2.77
  -4   6  -7    6.38    2.72
   4  -6   7    4.57    2.76
   4  -6   7   11.26    5.42
  -4   6  -7    9.30    4.24
  -4   6  -8  519.85   25.79
  -4   6  -8  620.65   28.14
  -4   6  -8  520.95   27.56
   4  -6   8  599.37   35.08
   4  -6   8  553.39   33.33
  -4   6  -9  254.21   16.95
  -4   6  -9  289.11   19.56
   4  -6   9  285.72   23.54
   4  -6   9  265.06   23.48
  -4   6  -9  284.33   19.21
  -4   6 -10   68.75    9.80
  -4   6 -10   68.94    9.30
   4  -6  10   57.48   10.28
   4  -6  10   65.92   11.36
  -4   6 -11   51.96    7.86
   4  -6  11   52.77    9.71
  -4   6 -11   61.48   10.04
   4  -6  11   52.19   10.66
  -4   6 -12    7.18    3.36
   4  -6  12    3.91    2.39
   4  -6  12    5.86    5.31
  -4   6 -13    8.99    4.57
   4  -6  13    5.16    3.73
  -4   6 -13    7.49    3.41
   4  -6  13   15.32    6.94
  -4   6 -14  102.43   15.35
   4  -6  14  101.90   15.26
  -4   6 -14  116.26   17.98
   4  -5 -13   -3.75    2.91
   4  -5 -13    5.15    5.41
   4  -5 -12   93.89   16.87
   4  -5 -12   59.56   12.99
  -4   5  12   68.99   13.15
   4  -5 -11   36.43   10.23
   4  -5 -11   53.86   12.07
  -4   5  11   50.89   10.30
   4  -5 -10  104.75   16.42
   4  -5 -10   83.53   15.63
  -4   5  10   76.63   12.72
  -4   5   9    5.41    4.09
   4  -5  -9    2.25    4.35
   4  -5  -9    1.99    2.63
   4  -5  -8   93.17   15.36
  -4   5   8   81.11    8.14
  -4   5   8   63.29   10.21
  -4   5   8   89.82   12.63
   4  -5  -8   99.06   13.56
   4  -5  -7    6.47    2.81
  -4   5   7   10.17    3.17
   4  -5  -7   15.49    6.19
  -4   5   7    4.85    3.39
  -4   5   7    4.57    3.09
  -4   5   6  103.15   11.30
  -4   5   6  104.10    9.05
   4  -5  -6  101.70   15.47
   4  -5  -6  103.18    5.57
  -4   5   6   99.64   12.81
   4  -5  -6  116.62   12.60
   4  -5  -5   92.54   14.52
   4  -5  -5   68.23    5.43
  -4   5   5   68.83   10.79
   4  -5  -5   72.43    8.54
  -4   5   4   81.29    8.58
   4  -5  -4   97.49   14.20
   4  -5  -4   79.26    6.65
  -4   5   4   94.99   13.46
  -4   5   3   12.97    2.95
   4  -5  -3   13.16    6.09
  -4   5   3   10.36    3.60
   4  -5  -3    9.88    2.51
   4  -5  -3    9.90    3.19
  -4   5   3    9.59    4.23
  -4   5   2   40.98    8.67
   4  -5  -2   32.31    7.57
  -4   5   2   37.69    4.67
  -4   5   2   43.27    7.47
   4  -5  -2   41.15    8.65
  -4   5   2   43.34    6.97
  -4   5   2   35.08    8.11
  -4   5   2   35.26    3.06
  -4   5   1   10.27    1.31
  -4   5   1    4.56    2.80
   4  -5  -1    4.20    3.27
  -4   5   1    5.42    2.68
  -4   5   1    5.33    3.38
   4  -5  -1    4.81    1.97
  -4   5   1    6.50    4.44
   4  -5  -1    4.12    3.71
   4  -5   0  186.93   16.73
  -4   5   0  192.68   15.12
  -4   5   0  196.79   16.35
   4  -5   0  202.98   13.86
   4  -5   0  249.08   15.81
   4  -5   0  255.52   23.50
  -4   5   0  272.89   23.99
  -4   5   0  179.61   15.87
  -4   5   0  198.10    7.26
   4  -5   1   70.83    9.71
  -4   5  -1   78.22    9.86
  -4   5  -1   76.29   12.28
   4  -5   1   79.32    8.93
   4  -5   1   99.95    9.78
  -4   5  -1   77.88   10.48
   4  -5   1   99.52   14.79
  -4   5  -1   85.43    5.87
   4  -5   2  303.60   20.39
   4  -5   2  362.90   18.93
  -4   5  -2  292.86   17.97
   4  -5   2  282.14   18.49
  -4   5  -2  346.81   23.76
   4  -5   2  326.86   26.25
  -4   5  -2  336.92   25.96
  -4   5  -2  296.30   19.32
   4  -5   3  429.42   24.66
  -4   5  -3  558.48   30.60
   4  -5   3  471.25   26.20
  -4   5  -3  435.62   22.32
   4  -5   3  549.27   24.08
   4  -5   3  432.81   24.24
   4  -5   3  433.87   29.46
  -4   5  -3  482.93   30.71
  -4   5  -3  454.85   23.94
  -4   5  -4    0.50    0.87
  -4   5  -4    0.51    1.53
  -4   5  -4   -1.21    2.04
   4  -5   4    1.58    1.88
   4  -5   4    1.62    2.71
  -4   5  -4   -1.99    3.12
   4  -5   4    2.20    2.92
   4  -5   4   -2.23    2.86
  -4   5  -4    3.87    3.08
  -4   5  -5  217.65   15.06
   4  -5   5  206.56   17.03
  -4   5  -5  201.78   12.89
  -4   5  -5  189.51   14.85
   4  -5   5  220.38   18.75
  -4   5  -5  223.70   18.03
  -4   5  -5  222.42   12.87
  -4   5  -6  199.03   14.17
   4  -5   6  209.19   18.10
  -4   5  -6  197.26   13.17
  -4   5  -6  200.85   15.18
   4  -5   6  206.59   17.52
  -4   5  -6  204.10   17.09
  -4   5  -7   24.10    5.37
  -4   5  -7   22.11    4.56
   4  -5   7   24.06    6.51
  -4   5  -7   25.16    5.03
  -4   5  -7   17.27    4.52
   4  -5   7   19.80    5.30
  -4   5  -8 1043.53   38.33
  -4   5  -8  946.69   34.87
  -4   5  -8  893.36   39.09
  -4   5  -8  971.53   37.38
   4  -5   8  979.62   43.38
   4  -5   8  948.09   42.22
  -4   5  -9  540.09   27.56
   4  -5   9  489.55   29.09
  -4   5  -9  516.93   25.74
   4  -5   9  528.99   30.93
  -4   5  -9  503.52   23.50
  -4   5 -10  204.42   17.16
   4  -5  10  184.23   17.07
   4  -5  10  207.29   19.17
  -4   5 -10  199.80   15.24
  -4   5 -10  189.87   13.56
  -4   5 -11  218.68   18.84
  -4   5 -11  201.27   15.60
   4  -5  11  214.42   20.15
   4  -5  11  199.06   18.42
  -4   5 -12   -4.22    4.07
  -4   5 -12    1.77    3.00
   4  -5  12    2.20    2.22
   4  -5  12    4.32    4.57
  -4   5 -13   91.24   13.16
   4  -5  13   89.34   13.09
  -4   5 -13   95.99   14.94
   4  -5  13  111.70   15.07
  -4   5 -14  428.58   33.52
  -4   5 -14  424.81   31.04
   4  -5  14  396.84   29.22
   4  -5  14  396.34   28.73
  -4   5 -15   48.64   11.30
   4  -5  15   41.32    9.45
   4  -5  15   43.70    9.73
   4  -4 -13    0.27    4.09
   4  -4 -13    6.98    4.63
   4  -4 -12  250.99   25.67
  -4   4  12  236.69   22.41
   4  -4 -12  266.21   30.08
   4  -4 -11  172.90   20.93
   4  -4 -11  165.77   22.83
  -4   4  11  160.35   17.90
   4  -4 -10   46.01   11.18
   4  -4 -10   29.61    8.86
  -4   4  10   42.56    9.19
   4  -4  -9  164.87   19.56
  -4   4   9  137.56   11.51
  -4   4   9  133.78   15.43
   4  -4  -9  187.98   21.21
   4  -4  -8  273.26   24.51
  -4   4   8  247.90   15.13
  -4   4   8  245.23   20.19
  -4   4   8  222.99   20.73
   4  -4  -8  280.70   24.61
   4  -4  -7  131.08   16.10
  -4   4   7  111.81    9.67
  -4   4   7  125.57   14.01
  -4   4   7  121.75   13.55
   4  -4  -7  148.25   16.54
   4  -4  -6  706.95   38.66
  -4   4   6  636.00   26.34
  -4   4   6  638.73   25.23
  -4   4   6  621.25   31.81
   4  -4  -6  637.86   16.41
  -4   4   6  664.79   33.41
   4  -4  -5  149.90   16.37
  -4   4   5  117.68    9.56
  -4   4   5  121.13    9.59
   4  -4  -5  125.55    6.79
   4  -4  -5  127.38   13.15
  -4   4   5  118.83   13.26
  -4   4   5  128.47   16.75
   4  -4  -5  146.37   13.88
  -4   4   4   35.52    4.82
   4  -4  -4   42.94    6.74
  -4   4   4   37.21    8.35
   4  -4  -4   43.37    8.53
   4  -4  -4   34.16    3.85
   4  -4  -4   33.33    6.73
  -4   4   4   36.52    6.08
  -4   4   4   32.63    6.32
  -4   4   3  206.09   11.16
   4  -4  -3  194.11   17.65
  -4   4   3  202.35   13.91
   4  -4  -3  207.87   10.70
   4  -4  -3  218.37   17.62
  -4   4   3  226.60   19.69
  -4   4   3  194.28   18.12
   4  -4  -2  109.37   12.45
  -4   4   2  117.76   11.86
  -4   4   2  117.18    7.64
   4  -4  -2  112.01   13.21
  -4   4   2   99.71   13.44
  -4   4   2  110.73    9.29
  -4   4   2  103.66   12.10
   4  -4  -2  109.79    8.11
   4  -4  -1   90.32   10.08
  -4   4   1   74.55    9.12
   4  -4  -1   77.26    7.12
  -4   4   1   85.02    8.90
   4  -4  -1   87.80   12.19
  -4   4   1   83.61    7.41
  -4   4   1  106.65   14.16
  -4   4   1   93.27   10.89
  -4   4   1   97.21    6.69
  -4   4   0  174.00   13.23
   4  -4   0  153.35   16.81
  -4   4   0  157.07    9.63
   4  -4   0  161.48   13.69
  -4   4   0  167.31   17.75
  -4   4   0  149.13   13.07
   4  -4   1   53.61    7.74
  -4   4  -1   45.83    6.57
  -4   4  -1   50.45    7.06
   4  -4   1   71.63    8.81
  -4   4  -1   54.66    7.66
   4  -4   1   60.84   10.95
  -4   4  -1   61.17   10.27
  -4   4  -2  132.11   11.56
   4  -4   2  106.94   10.93
  -4   4  -2  123.02   12.67
  -4   4  -2  112.34   10.20
   4  -4   2  127.20   10.66
   4  -4   2  135.63   11.47
   4  -4   2  128.27   14.95
  -4   4  -2  122.65   13.77
  -4   4  -3  180.09   13.32
   4  -4   3  182.98   14.02
   4  -4   3  198.49   14.07
   4  -4   3  171.20   13.77
  -4   4  -3  176.03   12.87
  -4   4  -3  196.41   13.86
   4  -4   3  192.75   13.85
  -4   4  -3  194.80   15.99
  -4   4  -3  197.43   17.26
   4  -4   3  181.31   16.62
  -4   4  -4    2.28    1.61
   4  -4   4    0.89    1.54
  -4   4  -4    5.25    3.15
  -4   4  -4    3.39    1.80
   4  -4   4    1.34    2.32
  -4   4  -4    5.18    2.64
   4  -4   4    6.21    3.92
  -4   4  -5   27.01    5.01
   4  -4   5   27.75    3.70
   4  -4   5   16.74    4.64
   4  -4   5   25.61    5.38
  -4   4  -5   27.80    4.66
   4  -4   5   32.66    6.68
  -4   4  -5   23.46    4.62
  -4   4  -5   23.70    5.04
  -4   4  -6    1.49    2.08
  -4   4  -6   -1.24    1.53
   4  -4   6    1.31    1.07
   4  -4   6    1.08    1.65
   4  -4   6    1.21    2.23
  -4   4  -6    1.62    1.64
   4  -4   6    2.28    2.07
   4  -4   7   23.23    5.04
  -4   4  -7   27.67    5.27
  -4   4  -7   19.63    3.99
  -4   4  -7   23.28    5.10
   4  -4   7   20.59    2.93
   4  -4   7   23.85    5.75
  -4   4  -7   19.10    4.01
  -4   4  -8  280.24   17.79
  -4   4  -8  244.14   16.26
  -4   4  -8  246.08   16.15
   4  -4   8  263.49   11.67
   4  -4   8  251.08   18.18
   4  -4   8  255.33   18.65
  -4   4  -8  260.35   15.32
  -4   4  -9  240.24   17.62
  -4   4  -9  240.14   14.73
  -4   4  -9  222.78   15.45
  -4   4  -9  219.76   15.63
   4  -4   9  252.00   11.51
   4  -4   9  248.09   19.24
   4  -4   9  210.74   16.73
  -4   4 -10   47.74    7.09
  -4   4 -10   40.87    7.39
  -4   4 -10   39.09    6.63
   4  -4  10   34.57    6.69
  -4   4 -10   39.98    5.88
   4  -4  10   37.77    4.32
   4  -4  10   39.95    7.73
  -4   4 -11    9.26    3.41
  -4   4 -11    4.89    2.62
  -4   4 -11    8.22    3.27
   4  -4  11    8.58    3.41
   4  -4  11    6.06    1.81
   4  -4  11    5.36    2.06
  -4   4 -12    1.96    3.32
  -4   4 -12   -0.17    2.61
   4  -4  12    5.17    3.29
   4  -4  12   -0.33    2.34
  -4   4 -13   28.71    7.50
  -4   4 -13   23.52    5.45
  -4   4 -13   34.08    9.44
   4  -4  13   30.35    7.48
   4  -4  13   21.49    6.07
  -4   4 -14  291.55   25.40
  -4   4 -14  293.24   26.30
   4  -4  14  246.26   21.33
   4  -4  14  245.81   21.39
  -4   4 -15   53.22   11.32
   4  -4  15   59.28   11.19
   4  -4  15   57.40   10.90
   4  -4  16  103.26   13.85
   4  -4  16  124.83   16.16
   4  -3 -13    7.87    8.30
   4  -3 -13    5.12    4.43
  -4   3  13    9.45    5.74
   4  -3 -12   60.40   15.04
   4  -3 -12   68.33   12.12
  -4   3  12   75.30   11.55
  -4   3  12   63.73   11.20
   4  -3 -11  121.24   15.47
   4  -3 -11  108.84   19.39
  -4   3  11   98.91   13.43
   4  -3 -10   59.20   14.05
   4  -3 -10   46.19    9.44
  -4   3  10   53.28    9.51
   4  -3  -9  105.76   14.05
   4  -3  -9   98.71   16.19
  -4   3   9   72.52    8.33
  -4   3   9   96.08   12.07
   4  -3  -8  219.66   19.96
  -4   3   8  215.05   16.80
  -4   3   8  204.55   13.89
  -4   3   8  215.95   17.32
   4  -3  -8  243.61   24.42
   4  -3  -7  125.98   14.62
  -4   3   7  137.14   12.54
  -4   3   7  152.07   19.12
  -4   3   7  137.55   15.89
  -4   3   7  115.34    9.83
  -4   3   7  135.21   13.32
   4  -3  -7  145.64   17.31
   4  -3  -6  832.54   39.30
  -4   3   6  782.86   32.26
  -4   3   6  799.69   29.10
  -4   3   6  964.84   49.06
  -4   3   6  788.77   34.61
  -4   3   6  797.05   39.27
   4  -3  -6  922.62   44.10
  -4   3   5  354.29   18.80
   4  -3  -5  361.20   23.58
  -4   3   5  335.21   16.78
  -4   3   5  342.24   22.75
   4  -3  -5  342.78   12.09
  -4   3   5  343.76   21.05
  -4   3   5  371.13   27.94
   4  -3  -5  399.67   25.94
  -4   3   4  221.60   13.80
   4  -3  -4  234.43   18.22
  -4   3   4  229.35   12.98
   4  -3  -4  203.08    9.53
  -4   3   4  237.22   17.23
   4  -3  -4  223.33   15.20
  -4   3   4  231.67   19.74
   4  -3  -4  231.58   18.42
  -4   3   3 1165.24   36.95
   4  -3  -3 1214.26   44.54
  -4   3   3 1175.34   43.12
   4  -3  -3 1170.83   31.92
  -4   3   3 1129.50   41.71
   4  -3  -3 1186.01   41.47
  -4   3   3 1179.09   45.26
  -4   3   3 1220.52   47.22
  -4   3   2  128.95   11.19
   4  -3  -2  122.87    7.95
  -4   3   2  109.11   10.83
   4  -3  -2  110.35   11.32
   4  -3  -2  131.26   12.22
  -4   3   2  107.44   12.82
  -4   3   2  127.87    8.11
  -4   3   2  128.65   12.56
  -4   3   2  129.56    9.71
  -4   3   1  618.02   25.51
   4  -3  -1  732.64   34.11
  -4   3   1  660.96   22.51
   4  -3  -1  616.81   21.89
   4  -3  -1  652.82   31.88
  -4   3   1  654.30   34.54
  -4   3   1  696.98   25.71
  -4   3   1  650.95   29.11
  -4   3   0 1518.37   48.93
  -4   3   0 1482.71   46.44
  -4   3   0 1552.63   45.39
  -4   3   0 1570.76   57.70
   4  -3   0 1487.12   42.45
  -4   3   0 1595.74   43.01
   4  -3   0 1514.79   57.34
  -4   3   0 1519.36   44.21
  -4   3  -1   84.04    8.66
  -4   3  -1   82.40    8.47
  -4   3  -1   83.65    8.32
  -4   3  -1   75.68    6.89
   4  -3   1   90.37    9.94
   4  -3   1   86.14   11.97
  -4   3  -1   91.84   11.01
  -4   3  -2 1695.54   49.72
  -4   3  -2 1763.02   47.60
  -4   3  -2 1641.05   49.60
  -4   3  -2 1653.77   52.41
   4  -3   2 1587.27   51.43
   4  -3   2 1661.96   57.91
  -4   3  -2 1601.68   54.40
  -4   3  -3 1576.87   46.47
   4  -3   3 1524.87   47.08
   4  -3   3 1569.77   42.17
   4  -3   3 1493.21   45.11
  -4   3  -3 1465.89   46.03
  -4   3  -3 1598.22   45.63
   4  -3   3 1476.39   48.05
   4  -3   3 1501.42   51.35
  -4   3  -3 1516.29   50.32
  -4   3  -3 1625.59   49.88
   4  -3   4   58.68    7.78
   4  -3   4   63.12    5.76
  -4   3  -4   62.85    7.10
   4  -3   4   63.44    7.72
  -4   3  -4   68.88    7.78
  -4   3  -4   70.26    7.20
  -4   3  -5  155.32   11.20
   4  -3   5  166.22    9.76
   4  -3   5  160.66   13.02
   4  -3   5  148.78   12.48
  -4   3  -5  160.17   11.07
  -4   3  -6   60.71    6.66
  -4   3  -6   63.67    6.88
   4  -3   6   61.88    7.94
   4  -3   6   61.88    5.79
   4  -3   6   58.68    7.56
   4  -3   6   64.60    8.17
   4  -3   7    7.57    1.50
  -4   3  -7    4.89    1.87
   4  -3   7    9.33    3.38
   4  -3   7    6.36    1.87
  -4   3  -7    5.50    1.52
   4  -3   7    7.20    3.20
  -4   3  -8 1032.00   34.77
  -4   3  -8  993.05   34.02
  -4   3  -8 1018.16   36.12
   4  -3   8 1074.20   31.97
   4  -3   8 1060.10   37.76
   4  -3   8  970.90   38.41
  -4   3  -9  332.11   20.88
  -4   3  -9  302.93   16.64
   4  -3   9  299.14   18.30
  -4   3  -9  308.43   16.91
   4  -3   9  337.73   15.44
  -4   3  -9  321.21   18.32
   4  -3   9  265.11   18.36
  -4   3 -10   93.96   11.18
  -4   3 -10   88.26    8.74
   4  -3  10   90.13   10.00
  -4   3 -10   84.01    8.73
   4  -3  10   94.74    8.15
   4  -3  10   84.80   10.20
  -4   3 -10   93.92    9.90
  -4   3 -11    7.71    3.51
  -4   3 -11    4.94    3.45
  -4   3 -11    5.61    2.66
   4  -3  11    5.44    1.95
   4  -3  11    6.02    3.38
   4  -3  11    7.60    3.40
   4  -3  12   45.51    6.18
  -4   3 -12   43.89    9.26
  -4   3 -12   35.14    6.35
  -4   3 -12   39.67    6.10
   4  -3  12   52.34    8.40
   4  -3  12   37.32    7.19
  -4   3 -13    3.26    3.27
  -4   3 -13    3.83    2.99
   4  -3  13   -0.46    1.67
   4  -3  13   -1.68    2.04
   4  -3  13    3.20    3.11
  -4   3 -14  209.90   21.42
  -4   3 -14  182.09   19.71
   4  -3  14  186.82   17.05
   4  -3  14  209.29   18.20
  -4   3 -15   12.27    4.79
   4  -3  15   24.03    6.64
  -4   3 -15   30.55    8.23
   4  -3  15   18.42    4.93
   4  -3  16   58.63   10.40
   4  -3  16   47.10    8.98
   4  -2 -13    4.43    4.83
  -4   2  13   -2.41    3.37
   4  -2 -12   65.84   10.76
  -4   2  12   70.87   11.18
   4  -2 -12   66.01   15.62
  -4   2  12   65.19   10.67
   4  -2 -11   30.47   10.86
  -4   2  11   42.65    8.18
   4  -2 -11   63.47   10.08
  -4   2  11   51.90    8.98
   4  -2 -10   87.65   11.80
   4  -2 -10   89.65   16.32
  -4   2  10   58.74    8.25
  -4   2  10   75.17   10.84
  -4   2  10   71.77   10.50
   4  -2  -9    6.99    6.46
  -4   2   9    2.51    2.29
   4  -2  -9    4.21    4.08
  -4   2   9    1.02    1.43
  -4   2   9    0.25    1.69
   4  -2  -8   36.79    9.75
  -4   2   8   35.65    8.57
  -4   2   8   35.31    5.67
   4  -2  -8   41.62    7.82
  -4   2   8   26.99    5.82
   4  -2  -7   12.09    6.17
  -4   2   7   11.81    4.31
  -4   2   7    1.90    2.97
  -4   2   7    6.69    2.59
   4  -2  -7   12.76    5.49
  -4   2   7    8.52    5.15
  -4   2   7   11.26    3.79
  -4   2   6  105.51   11.18
   4  -2  -6  115.20   12.22
  -4   2   6  113.13    5.09
  -4   2   6  126.53   12.99
  -4   2   6  117.58    9.61
  -4   2   6  119.09   11.08
  -4   2   6  104.52   13.65
  -4   2   6  130.16   16.27
   4  -2  -6  113.89   15.50
  -4   2   5   89.91   10.02
   4  -2  -5   86.52    9.89
   4  -2  -5   84.96   12.75
  -4   2   5   86.20   12.55
  -4   2   5   83.64    7.85
  -4   2   5   81.00   11.36
  -4   2   5   86.03    5.12
  -4   2   5   87.38    9.99
   4  -2  -5   83.08    5.68
  -4   2   5   99.70    9.89
   4  -2  -4   17.40    5.67
  -4   2   4   15.58    4.24
  -4   2   4    8.80    3.68
  -4   2   4   15.34    3.09
  -4   2   4   12.49    4.10
  -4   2   4   16.77    2.24
  -4   2   4   12.23    3.03
   4  -2  -4   14.23    2.54
   4  -2  -3  103.18    6.60
  -4   2   3   97.17    7.94
  -4   2   3  101.15    6.36
   4  -2  -3   99.16    8.69
  -4   2   3  100.26    9.88
   4  -2  -3  109.28   12.43
  -4   2   3  114.70   11.83
  -4   2   3  102.06   10.11
  -4   2   2   33.91    5.71
  -4   2   2   42.73    6.55
  -4   2   2   38.51    3.92
   4  -2  -2   33.15    4.91
   4  -2  -2   39.81    4.10
   4  -2  -2   36.37    7.78
  -4   2   2   40.63    7.11
  -4   2   2   40.21    6.61
  -4   2   1    4.25    2.39
   4  -2  -1    8.45    2.20
  -4   2   1    7.15    2.98
  -4   2   1    6.39    1.87
   4  -2  -1    5.45    4.83
  -4   2   1    8.42    2.93
   4  -2  -1    6.65    3.34
  -4   2   1    3.72    2.74
  -4   2   0  292.95   16.36
  -4   2   0  279.37   15.82
  -4   2   0  288.12   13.01
   4  -2   0  308.43   21.24
  -4   2   0  284.83   17.91
  -4   2   0  263.64   15.74
   4  -2   0  274.87   18.59
  -4   2   0  298.08   19.27
   4  -2   0  284.22   13.09
   4  -2   1    2.99    1.67
  -4   2  -1   11.66    2.97
   4  -2   1    3.81    1.48
  -4   2  -1    4.66    2.33
  -4   2  -1    4.84    1.72
   4  -2   1    6.59    3.69
   4  -2   1    6.43    2.67
  -4   2  -1    1.19    1.60
  -4   2  -1    4.52    1.76
  -4   2  -2 1760.43   49.40
   4  -2   2 1718.58   47.08
   4  -2   2 1756.05   47.32
  -4   2  -2 1712.25   50.56
  -4   2  -2 1733.75   48.92
   4  -2   2 1666.48   53.32
  -4   2  -2 1801.65   47.13
   4  -2   2 1730.40   54.80
  -4   2  -2 1694.43   50.25
  -4   2  -3  831.14   28.50
   4  -2   3  750.32   24.08
   4  -2   3  825.92   26.83
  -4   2  -3  807.32   27.45
  -4   2  -3  710.83   28.36
  -4   2  -3  832.65   27.45
   4  -2   3  759.03   30.09
   4  -2   3  734.58   30.62
  -4   2  -4   72.12    7.20
   4  -2   4   91.62    7.34
  -4   2  -4   81.20    8.17
   4  -2   4   66.06    6.54
  -4   2  -4   82.21    7.64
   4  -2   4   69.59    7.71
  -4   2  -4   71.65    5.86
   4  -2   5  375.95   18.39
  -4   2  -5  382.30   15.02
  -4   2  -5  397.74   18.90
  -4   2  -5  400.18   18.35
   4  -2   5  393.05   17.02
   4  -2   5  427.78   18.22
   4  -2   5  388.74   19.45
  -4   2  -6  158.63   10.96
  -4   2  -6  164.02    9.19
   4  -2   6  181.30   10.94
   4  -2   6  164.87   10.92
  -4   2  -6  175.05   12.30
   4  -2   6  160.38   11.83
   4  -2   6  154.90   10.77
   4  -2   6  179.61   13.11
  -4   2  -7  127.90    9.92
  -4   2  -7  128.21   10.92
  -4   2  -7  107.01    7.64
   4  -2   7  104.15    8.44
   4  -2   7  119.77    9.29
   4  -2   7  109.73    9.92
   4  -2   7  108.66    8.98
   4  -2   8 2504.78   68.96
  -4   2  -8 2359.60   61.23
   4  -2   8 2535.80   64.72
   4  -2   8 2529.99   64.42
  -4   2  -8 2504.03   67.40
   4  -2   8 2380.58   64.54
   4  -2   9  507.26   21.94
   4  -2   9  502.06   21.29
   4  -2   9  457.27   23.35
  -4   2  -9  487.67   23.34
   4  -2   9  472.25   21.64
   4  -2  10  474.09   22.06
   4  -2  10  469.71   20.86
   4  -2  10  452.95   21.93
  -4   2 -10  467.97   23.66
   4  -2  10  452.20   23.61
  -4   2 -11  168.94   16.22
  -4   2 -11  180.66   14.63
   4  -2  11  164.87   13.03
   4  -2  11  167.43   12.02
   4  -2  11  161.28   12.62
   4  -2  11  157.67   13.64
  -4   2 -12   -0.45    2.95
   4  -2  12    1.40    2.16
   4  -2  12   -4.58    3.27
  -4   2 -12    0.40    1.84
   4  -2  12    1.22    1.89
   4  -2  12    2.37    1.81
  -4   2 -13  144.64   16.87
   4  -2  13  152.31   13.28
  -4   2 -13  148.08   14.74
   4  -2  13  146.26   13.70
   4  -2  13  144.54   13.63
  -4   2 -14  555.28   35.49
  -4   2 -14  529.45   32.34
   4  -2  14  520.53   28.49
   4  -2  14  573.57   28.36
  -4   2 -14  541.07   31.24
   4  -2  14  510.73   28.52
  -4   2 -15   13.63    5.87
  -4   2 -15    8.31    4.96
  -4   2 -15    8.49    3.99
   4  -2  15   14.57    5.55
   4  -2  15   10.23    4.51
   4  -2  16  203.43   17.71
   4  -2  16  184.00   17.77
  -4   1  14  116.37   15.29
   4  -1 -13    4.36    6.28
  -4   1  13    7.49    4.04
   4  -1 -12  222.53   16.98
  -4   1  12  231.47   20.09
  -4   1  12  266.77   22.35
   4  -1 -12  285.05   33.64
   4  -1 -11  232.35   17.12
  -4   1  11  225.55   18.71
  -4   1  11  292.80   22.28
   4  -1 -11  264.78   31.04
   4  -1 -10    3.58    4.45
  -4   1  10   13.73    4.63
   4  -1 -10   10.91    4.07
  -4   1  10    8.58    3.46
  -4   1  10    8.97    3.03
  -4   1  10    3.33    2.20
  -4   1  10   11.84    4.51
   4  -1  -9  215.34   15.68
  -4   1   9  189.87   14.77
  -4   1   9  245.38   18.15
  -4   1   9  198.37   15.83
  -4   1   9  212.17   18.66
   4  -1  -9  242.76   27.01
   4  -1  -8  211.80   15.32
  -4   1   8  231.22    7.38
  -4   1   8  221.85   15.26
  -4   1   8  243.91   17.30
  -4   1   8  201.18   15.19
  -4   1   8  250.36   20.99
   4  -1  -8  251.42   26.49
  -4   1   7   24.98    2.36
   4  -1  -7   27.43    7.38
  -4   1   7   23.85    6.05
  -4   1   7   32.75    5.43
   4  -1  -7   24.38    5.26
  -4   1   7   31.66    5.93
  -4   1   7   17.42    5.88
  -4   1   7   16.92    6.84
  -4   1   7   23.79    4.61
  -4   1   6  468.91   27.02
  -4   1   6  476.13   21.29
  -4   1   6  483.16   25.22
  -4   1   6  424.22   20.99
  -4   1   6  440.94   31.03
  -4   1   6  463.89   29.96
   4  -1  -6  538.20   35.64
  -4   1   6  465.50   14.48
   4  -1  -5   74.53   12.60
  -4   1   5   59.12    8.52
  -4   1   5   81.65    7.72
  -4   1   5   77.15    9.17
  -4   1   5   75.50    7.84
  -4   1   5   71.42    4.85
  -4   1   5   75.52   11.77
  -4   1   5   89.95   11.51
  -4   1   4   18.75    5.05
  -4   1   4   20.24    5.50
  -4   1   4   19.61    3.73
  -4   1   4   19.87    4.61
  -4   1   4   17.42    3.91
   4  -1  -4   11.13    2.13
  -4   1   4   13.93    2.12
  -4   1   4   20.95    5.66
   4  -1  -4   17.51    5.86
   4  -1  -3  263.75   12.07
  -4   1   3  288.01   14.46
  -4   1   3  287.70   15.39
  -4   1   3  279.15   11.31
   4  -1  -3  265.92   21.41
  -4   1   3  296.90   17.92
  -4   1   3  297.40   19.49
  -4   1   2    9.19    3.10
  -4   1   2    3.61    2.14
  -4   1   2    8.07    2.33
   4  -1  -2    2.13    1.01
  -4   1   2    3.54    1.20
   4  -1  -2    5.70    1.52
   4  -1  -2    8.85    4.51
  -4   1   2    4.78    2.40
  -4   1   2    5.84    1.95
   4  -1  -2    7.07    2.08
  -4   1   2    0.35    2.12
  -4   1   1   12.42    2.63
  -4   1   1   10.50    2.99
   4  -1  -1    9.77    2.59
  -4   1   1    7.73    2.36
   4  -1  -1    8.62    1.91
  -4   1   1    8.96    1.96
   4  -1  -1    7.20    3.10
  -4   1   1    8.53    3.29
   4  -1  -1   10.53    2.43
  -4   1   1    6.69    1.92
  -4   1   1    8.16    3.09
  -4   1   0   67.02    6.68
  -4   1   0   59.07    5.23
   4  -1   0   68.35    6.60
   4  -1   0   62.65    6.61
   4  -1   0   65.32    5.69
  -4   1   0   55.61    5.84
  -4   1   0   58.98    7.80
  -4   1   0   66.81    7.28
   4  -1   0   53.52    8.74
   4  -1   0   57.70    6.62
  -4   1  -1  112.02    8.84
   4  -1   1  119.48    9.13
  -4   1  -1  110.18    9.45
   4  -1   1  115.45    7.88
  -4   1  -1  112.52    7.67
   4  -1   1  103.67   11.47
  -4   1  -1  117.59   10.21
   4  -1   1   94.37    9.80
  -4   1  -1  104.97    7.99
  -4   1  -2  476.67   19.46
   4  -1   2  467.87   23.62
   4  -1   2  461.62   19.50
   4  -1   2  462.00   18.14
   4  -1   2  472.68   19.03
  -4   1  -2  438.72   20.51
  -4   1  -2  452.38   16.15
  -4   1  -2  459.67   17.89
   4  -1   2  459.94   20.31
  -4   1  -3  386.66   17.24
   4  -1   3  376.48   17.25
   4  -1   3  372.95   16.82
   4  -1   3  381.44   16.74
  -4   1  -3  367.65   18.34
  -4   1  -3  376.10   16.39
   4  -1   3  358.46   19.82
  -4   1  -3  376.85   12.79
  -4   1  -4   15.73    1.93
   4  -1   4   16.98    3.33
  -4   1  -4   14.50    3.32
   4  -1   4   13.13    2.24
  -4   1  -4   14.46    3.23
   4  -1   4   12.63    2.82
   4  -1   4   15.86    3.29
  -4   1  -5  304.89   10.40
   4  -1   5  305.92   15.57
   4  -1   5  330.65   15.51
  -4   1  -5  344.25   16.26
   4  -1   5  291.03   13.19
  -4   1  -6    1.45    0.94
   4  -1   6    3.99    1.72
  -4   1  -6    0.54    1.22
   4  -1   6    1.45    1.54
   4  -1   6    0.30    1.31
   4  -1   6    1.10    1.83
   4  -1   7   -0.99    1.01
   4  -1   7    3.33    1.58
   4  -1   7    2.95    1.68
  -4   1  -7   -0.88    1.37
   4  -1   7   -0.60    1.14
  -4   1  -8  987.40   34.64
   4  -1   8  914.83   33.81
   4  -1   8  980.27   32.26
  -4   1  -8  964.46   34.69
   4  -1   8  910.96   33.18
   4  -1   8  910.24   29.21
  -4   1  -9  250.18   15.78
  -4   1  -9  245.29   15.92
   4  -1   9  231.73   15.52
   4  -1   9  245.41   14.36
   4  -1   9  240.06   15.33
   4  -1   9  242.55   13.32
   4  -1  10  167.97   11.89
   4  -1  10  165.78   12.84
  -4   1 -10  155.69   13.18
   4  -1  10  152.51   11.06
   4  -1  11    5.46    2.83
  -4   1 -11    3.21    1.87
   4  -1  11    1.95    1.84
   4  -1  11    2.32    1.86
   4  -1  12   10.64    3.49
  -4   1 -12    9.29    3.55
  -4   1 -12   14.47    4.62
   4  -1  12    9.15    3.35
   4  -1  12    9.31    2.90
  -4   1 -13   85.12   13.22
  -4   1 -13  106.41   12.77
   4  -1  13  117.79   11.75
  -4   1 -13  108.12   13.10
   4  -1  13  110.83   11.08
  -4   1 -14  579.19   36.87
  -4   1 -14  520.47   29.34
   4  -1  14  535.22   27.52
  -4   1 -14  572.49   33.27
   4  -1  14  538.29   28.12
   4  -1  15    7.43    3.35
  -4   1 -15   11.06    5.35
  -4   1 -15   18.29    7.13
   4  -1  15   10.34    4.14
  -4   1 -15   12.12    5.16
   4  -1  16  261.03   20.93
  -4   0  14   58.69   10.55
   4   0 -13   12.76    8.69
  -4   0  13    7.79    4.47
   4   0 -12  148.32   23.81
  -4   0  12  147.07   16.39
  -4   0  12  114.04   13.50
  -4   0  11  180.91   17.04
   4   0 -11  152.46   11.66
  -4   0  11  144.00   14.49
   4   0 -11  202.58   27.33
   4   0 -10    0.88    5.74
   4   0 -10   -0.19    1.72
  -4   0  10   -3.17    3.90
  -4   0  10   -2.57    2.19
  -4   0  10   -1.74    2.38
   4   0  -9  245.65   15.32
  -4   0   9  237.22   10.06
  -4   0   9  207.22   16.15
  -4   0   9  251.11   18.63
  -4   0   9  228.87   16.74
  -4   0   9  223.52   16.32
   4   0  -9  282.08   29.46
   4   0  -8  117.38   17.84
  -4   0   8  107.81    6.64
   4   0  -8   98.79    9.29
  -4   0   8   96.01   10.17
  -4   0   8  107.94   11.39
  -4   0   8  101.21    9.97
  -4   0   8  104.89   11.75
   4   0  -7  221.85   13.94
  -4   0   7  227.45   15.23
  -4   0   7  262.50   16.89
  -4   0   7  235.76   10.58
  -4   0   7  249.32   17.28
  -4   0   7  221.28   14.36
  -4   0   7  241.74   19.07
   4   0  -7  286.88   27.26
  -4   0   6 1040.07   45.47
   4   0  -6  981.62   32.17
   4   0  -6  950.68   33.16
  -4   0   6  977.88   34.96
  -4   0   6 1054.21   36.55
  -4   0   6 1001.41   37.93
  -4   0   6 1083.48   31.62
  -4   0   6  986.32   33.35
  -4   0   6 1017.03   28.43
  -4   0   6  887.30   48.39
  -4   0   6  946.96   42.18
   4   0  -6 1168.13   55.67
  -4   0   5  307.87   22.58
   4   0  -5  281.64   14.51
  -4   0   5  301.34   24.97
  -4   0   5  305.26   15.14
   4   0  -5  310.17   15.74
  -4   0   5  288.09   16.00
  -4   0   5  316.10   18.25
  -4   0   5  305.30   16.48
  -4   0   5  334.50   14.77
  -4   0   5  320.80   12.88
  -4   0   5  321.31   20.75
   4   0  -5  335.32   27.27
   4   0  -4 1694.62   46.37
   4   0  -4 1649.56   47.33
  -4   0   4 1731.29   48.97
  -4   0   4 1750.54   43.54
  -4   0   4 1646.81   51.22
  -4   0   4 1717.28   48.17
  -4   0   4 1826.63   46.13
  -4   0   4 1636.98   63.58
  -4   0   4 1670.66   45.75
   4   0  -4 1783.92   68.74
  -4   0   4 1789.34   54.55
  -4   0   4 1721.25   60.81
  -4   0   3 1117.38   37.40
   4   0  -3 1070.63   32.66
  -4   0   3 1106.80   34.41
  -4   0   3 1086.34   37.05
  -4   0   3 1119.55   33.12
  -4   0   3 1153.93   32.64
   4   0  -3 1079.20   32.25
  -4   0   3 1101.60   30.66
   4   0  -3 1074.84   49.71
  -4   0   3 1043.72   31.62
  -4   0   3 1086.32   45.32
  -4   0   2  138.89   10.15
  -4   0   2  133.88    8.82
   4   0  -2  133.59    8.93
  -4   0   2  145.88    9.77
  -4   0   2  142.56    8.56
  -4   0   2  133.95    8.70
   4   0  -2  146.84   16.58
  -4   0   2  142.14    8.20
   4   0  -2  143.37    8.96
  -4   0   2  127.57   13.85
  -4   0   1  326.31   15.64
   4   0  -1  359.71   17.76
  -4   0   1  347.46   13.16
  -4   0   1  339.58   14.86
   4   0  -1  362.79   14.66
   4   0  -1  311.89   23.62
  -4   0   1  352.72   14.20
  -4   0   1  297.19   15.05
   4   0  -1  332.80   11.55
  -4   0   0 1075.68   32.33
   4   0   0 1068.51   34.75
  -4   0   0 1010.26   26.51
  -4   0   0 1070.66   28.12
   4   0   0 1018.59   30.34
  -4   0   0 1014.38   30.87
   4   0   0  999.27   43.65
  -4   0   0 1025.29   29.79
   4   0   0  991.58   27.80
  -4   0  -1    3.87    1.26
  -4   0  -1    4.37    1.76
   4   0   1    2.54    2.57
   4   0   1   -0.27    1.64
   4   0   1    1.93    1.18
  -4   0  -1    1.48    0.56
   4   0   1    0.93    0.98
   4   0   1    0.15    1.42
  -4   0  -1    0.19    1.03
  -4   0  -2 3196.25   66.83
   4   0   2 3354.08   80.51
   4   0   2 3354.55   77.39
  -4   0  -2 3260.33   76.31
   4   0   2 3083.59   85.74
   4   0   2 3172.26   74.72
   4   0   3  898.14   30.95
  -4   0  -3  864.97   31.73
   4   0   3  938.02   29.22
  -4   0  -3  943.24   28.65
   4   0   3  902.80   34.11
   4   0   3  824.36   26.23
  -4   0  -4   69.56    6.50
   4   0   4   64.52    7.00
   4   0   4   69.05    6.59
   4   0   5    8.70    1.50
   4   0   5    7.30    2.56
  -4   0  -5    7.66    2.38
   4   0   5    9.35    2.39
   4   0   6   26.46    4.58
  -4   0  -6   30.46    4.64
   4   0   6   29.49    4.50
   4   0   6   26.50    2.78
   4   0   6   26.63    4.38
   4   0   7   15.25    2.40
  -4   0  -7   19.63    3.79
   4   0   7   14.76    3.43
   4   0   7   14.76    3.94
   4   0   7   16.23    3.45
   4   0   8 1207.32   33.78
   4   0   8 1154.14   38.10
  -4   0  -8 1227.62   40.94
  -4   0  -8 1271.56   39.92
   4   0   8 1259.80   39.26
   4   0   9  186.02   10.69
   4   0   9  192.03   12.98
  -4   0  -9  162.14   12.35
   4   0   9  171.69   12.11
  -4   0  -9  184.41   13.90
   4   0  10  101.24    8.80
   4   0  10  126.49   10.81
  -4   0 -10  115.83   10.61
  -4   0 -10  127.00   11.92
   4   0  10  121.94   10.46
   4   0  11  115.29    9.82
   4   0  11  115.12   10.37
  -4   0 -11  104.52   10.27
   4   0  11  111.86   10.36
  -4   0 -11  116.60   12.30
  -4   0 -12    4.68    2.12
   4   0  12    7.68    3.01
   4   0  12    1.11    1.29
   4   0  12    5.83    2.99
  -4   0 -13    1.01    2.56
  -4   0 -13    3.29    3.12
  -4   0 -13    7.07    2.39
   4   0  13    4.99    2.92
   4   0  13    0.81    1.41
  -4   0 -14  209.57   21.94
   4   0  14  231.50   16.87
  -4   0 -14  200.58   14.93
   4   0  14  199.67   15.30
  -4   0 -14  240.64   21.35
  -4   0 -14  210.48   20.40
  -4   0 -15   -2.34    2.88
  -4   0 -15   10.81    6.02
   4   0  15    2.36    2.95
  -4   0 -15   -2.78    5.03
   4   0  15    4.83    2.84
  -4   0 -16   56.77   12.13
   4   0  16   62.72    9.87
  -4  -1  14   11.06    4.78
   4   1 -13    2.18    2.91
  -4  -1  13    0.79    2.66
   4   1 -12   61.78   16.46
   4   1 -12   57.05    8.33
  -4  -1  12   55.23    9.97
  -4  -1  12   51.56    8.81
   4   1 -11   43.24   12.92
   4   1 -11   30.53    6.08
  -4  -1  11   38.07    7.19
  -4  -1  11   33.32    6.85
  -4  -1  10   15.69    5.22
   4   1 -10   20.23    9.45
   4   1 -10    8.37    2.96
   4   1 -10    8.44    2.04
  -4  -1  10   14.30    4.30
  -4  -1  10   13.58    2.13
   4   1  -9   15.49    7.69
  -4  -1   9   25.82    5.92
   4   1  -9   15.71    3.97
  -4  -1   9   23.66    3.79
   4   1  -9   22.50    3.52
  -4  -1   9   22.27    3.50
  -4  -1   9   22.33    4.98
  -4  -1   9   20.45    2.84
   4   1  -8  108.61   17.62
   4   1  -8   87.05    6.91
   4   1  -8   76.60    8.72
  -4  -1   8   86.20   10.16
  -4  -1   8   96.36    9.11
  -4  -1   8   91.61    6.33
  -4  -1   8   88.23    7.30
  -4  -1   8   86.25    8.95
   4   1  -7   13.31    6.40
  -4  -1   7    3.47    1.28
   4   1  -7    9.66    3.57
  -4  -1   7    5.77    2.59
  -4  -1   7    3.99    2.68
   4   1  -7    6.74    2.28
  -4  -1   7    7.88    3.15
  -4  -1   7    7.05    2.21
  -4  -1   7    5.92    2.82
  -4  -1   7    7.07    1.73
  -4  -1   6  207.91   20.00
   4   1  -6  201.21   10.70
   4   1  -6  200.95   13.45
  -4  -1   6  205.97   14.34
  -4  -1   6  224.87   14.80
  -4  -1   6  217.44   14.95
  -4  -1   6  217.18   10.46
  -4  -1   6  218.91   11.64
  -4  -1   6  171.14   20.41
  -4  -1   6  225.72   12.74
  -4  -1   6  218.73   16.21
   4   1  -6  237.04   24.38
   4   1  -5   66.43   12.21
  -4  -1   5   52.30    9.67
   4   1  -5   49.52    4.99
  -4  -1   5   55.47    6.73
  -4  -1   5   50.46    7.22
   4   1  -5   45.15    5.97
  -4  -1   5   48.82    6.37
  -4  -1   5   53.88    7.15
  -4  -1   5   56.81    4.99
  -4  -1   5   46.23    9.96
  -4  -1   5   51.43    5.27
  -4  -1   5   47.89    5.22
   4   1  -4  162.19   11.24
  -4  -1   4  157.16   11.34
  -4  -1   4  153.60   10.57
  -4  -1   4  167.64   12.19
  -4  -1   4  180.86    9.31
  -4  -1   4  162.32    9.72
  -4  -1   4  167.86    9.17
   4   1  -4  202.02   20.89
  -4  -1   4  163.26   12.07
  -4  -1   4  146.80   16.19
  -4  -1   3  509.10   20.97
   4   1  -3  478.69   20.48
  -4  -1   3  510.45   18.92
  -4  -1   3  493.53   20.91
  -4  -1   3  497.09   19.64
  -4  -1   3  498.62   22.10
  -4  -1   3  519.12   17.84
  -4  -1   3  497.59   16.46
   4   1  -3  549.00   34.62
  -4  -1   3  470.87   29.79
   4   1  -2    9.11    2.54
  -4  -1   2   11.75    2.43
  -4  -1   2    7.27    2.00
   4   1  -2    9.68    3.29
  -4  -1   2    8.64    2.75
   4   1  -2    1.85    2.08
   4   1  -2    9.65    2.31
  -4  -1   2   10.31    1.79
  -4  -1   2    8.37    1.82
  -4  -1   2   12.25    2.58
   4   1  -1   13.95    3.02
  -4  -1   1   10.75    2.53
   4   1  -1    7.83    2.13
  -4  -1   1   13.58    3.37
  -4  -1   1   11.57    2.63
   4   1  -1   14.32    3.08
   4   1  -1   12.28    4.88
   4   1  -1   12.27    2.66
  -4  -1   1   15.64    1.90
  -4  -1   1    7.90    1.93
  -4  -1   1   13.96    2.50
  -4  -1   0  812.00   22.80
  -4  -1   0  801.60   25.88
   4   1   0  768.25   29.24
   4   1   0  815.11   25.98
  -4  -1   0  797.60   25.96
  -4  -1   0  791.90   25.26
   4   1   0  772.09   37.60
   4   1   0  820.29   26.69
  -4  -1  -1    8.74    2.19
  -4  -1  -1    5.83    1.40
   4   1   1    7.40    1.44
   4   1   1    9.84    2.83
   4   1   1    9.34    2.60
   4   1   1    8.14    3.49
   4   1   1    6.58    1.91
  -4  -1  -1    6.67    1.88
  -4  -1  -2 4023.85   89.70
   4   1   2 3908.61   96.04
   4   1   2 3916.26   91.21
  -4  -1  -2 3883.10   90.75
   4   1   2 3728.97  100.78
  -4  -1  -2 3834.60   83.25
  -4  -1  -2 4129.30   91.51
  -4  -1  -3 1081.70   30.78
   4   1   3 1058.47   36.15
   4   1   3 1076.52   32.82
   4   1   3  988.25   37.34
  -4  -1  -3 1067.28   32.48
   4   1   4  206.61   13.89
   4   1   4  214.05   12.33
  -4  -1  -4  222.40   12.20
   4   1   4  210.40   14.60
   4   1   5  342.74   10.33
   4   1   5  367.22   19.90
   4   1   5  344.56   15.78
  -4  -1  -5  383.99   16.98
   4   1   5  375.87   17.46
   4   1   5  350.00    9.51
   4   1   6  319.51   10.36
   4   1   6  295.41   18.90
  -4  -1  -6  316.22   15.86
   4   1   6  315.35   16.40
   4   1   6  309.66   15.21
   4   1   7  297.65   11.25
  -4  -1  -7  319.15   16.15
   4   1   7  299.01   16.42
   4   1   7  294.04   15.17
  -4  -1  -7  302.23   17.10
  -4  -1  -8 3378.86   80.62
   4   1   8 2992.72   77.70
   4   1   8 3087.32   72.31
   4   1   8 3293.88   81.96
  -4  -1  -8 3059.93   83.34
   4   1   9  109.27    7.66
   4   1   9   97.97    9.54
   4   1   9   98.76    8.70
  -4  -1  -9  110.41    9.63
  -4  -1  -9  102.15   10.46
  -4  -1 -10  408.34   23.60
   4   1  10  398.66   17.74
  -4  -1 -10  408.54   20.56
   4   1  10  401.73   19.54
   4   1  10  437.52   21.99
   4   1  11  112.51    9.39
  -4  -1 -11  108.86   12.55
   4   1  11  106.89    9.68
   4   1  11  109.04   10.79
  -4  -1 -11  108.52   10.28
  -4  -1 -12   39.88    7.83
  -4  -1 -12   28.67    5.57
   4   1  12   37.89    6.01
   4   1  12   35.62    5.74
  -4  -1 -13  154.21   18.34
   4   1  13  157.09   12.86
  -4  -1 -13  145.24   10.67
   4   1  13  148.72   12.12
  -4  -1 -13  174.41   17.47
  -4  -1 -14  524.72   36.30
   4   1  14  483.96   25.29
   4   1  14  459.38   23.35
  -4  -1 -14  491.31   32.74
  -4  -1 -14  488.91   33.19
  -4  -1 -15    6.21    3.61
  -4  -1 -15    9.11    4.53
   4   1  15   17.63    5.38
   4   1  15   11.39    3.93
   4   1  16  145.73   15.29
  -4  -1 -16  148.90   20.66
  -4  -1 -17   -4.10    3.56
  -4  -2  14  101.18   13.60
   4   2 -13   19.95    5.69
  -4  -2  13   17.65    6.13
   4   2 -12  145.96   14.49
  -4  -2  12  171.81   18.33
  -4  -2  12  149.07   15.08
  -4  -2  11  181.75   17.88
   4   2 -11  168.49   15.35
   4   2 -11  220.20   28.10
   4   2 -10   25.75   10.74
   4   2 -10    6.13    3.06
  -4  -2  10   17.27    5.41
  -4  -2   9  120.34   12.75
   4   2  -9  102.42   11.32
  -4  -2   9  109.11    9.53
   4   2  -9  141.39   20.79
  -4  -2   8   65.47    8.87
   4   2  -8   65.18   14.31
   4   2  -8   48.46    7.51
  -4  -2   8   51.17    6.49
  -4  -2   8   61.40    8.06
  -4  -2   8   54.10    3.28
  -4  -2   8   57.75    4.00
  -4  -2   7    2.49    0.67
   4   2  -7    2.02    4.45
  -4  -2   7    0.52    0.97
   4   2  -7    2.78    2.28
  -4  -2   7    2.64    2.14
  -4  -2   7    3.07    1.55
  -4  -2   7    5.48    3.12
  -4  -2   6  201.18   14.38
  -4  -2   6  212.49   13.17
   4   2  -6  199.31   14.21
  -4  -2   6  204.20   14.87
  -4  -2   6  198.43    8.54
  -4  -2   6  190.07   13.70
  -4  -2   6  216.77   13.09
   4   2  -6  244.87   24.27
   4   2  -5   33.99    9.24
  -4  -2   5   24.94    7.17
  -4  -2   5   25.77    4.51
  -4  -2   5   26.19    2.98
   4   2  -5   26.05    4.80
  -4  -2   5   26.24    5.07
  -4  -2   5   37.30    5.69
  -4  -2   5   25.41    4.76
  -4  -2   5   25.53    4.14
  -4  -2   5   24.17    7.27
  -4  -2   4  296.50   15.96
   4   2  -4  295.45   16.33
  -4  -2   4  276.56   16.20
  -4  -2   4  288.86   16.37
  -4  -2   4  290.14   11.54
  -4  -2   4  284.58   24.37
  -4  -2   4  280.54   14.98
   4   2  -4  318.33   27.32
  -4  -2   4  256.25   22.69
  -4  -2   4  290.42   14.88
  -4  -2   3   47.69    5.17
   4   2  -3   57.49   11.23
  -4  -2   3   50.41    5.96
   4   2  -3   51.15    6.43
  -4  -2   3   44.73    5.97
  -4  -2   3   48.25    6.18
   4   2  -3   48.29    7.04
  -4  -2   3   46.84    4.30
  -4  -2   3   50.61    5.95
  -4  -2   2   11.30    2.22
   4   2  -2   13.03    3.17
  -4  -2   2   16.35    3.39
  -4  -2   2   11.63    2.41
   4   2  -2    9.76    2.69
  -4  -2   2   10.76    2.63
   4   2  -2   10.70    2.55
   4   2  -2    8.29    4.04
  -4  -2   2   12.30    1.51
  -4  -2   2   13.12    2.97
  -4  -2   2   11.76    1.44
   4   2  -2    9.12    2.17
  -4  -2   1  374.20   15.36
   4   2  -1  377.12   17.35
   4   2  -1  359.98   14.84
   4   2  -1  369.52   19.61
  -4  -2   1  375.73   18.29
   4   2  -1  384.01   15.84
   4   2  -1  395.58   26.80
  -4  -2   1  404.89   17.40
  -4  -2   1  383.90   15.76
  -4  -2   1  387.22   15.08
   4   2   0   47.47    5.33
   4   2   0   53.00    4.54
  -4  -2   0   48.02    6.02
   4   2   0   50.69    5.19
   4   2   0   54.03    6.80
  -4  -2   0   43.48    5.09
  -4  -2   0   47.27    4.97
   4   2   0   46.71    7.87
  -4  -2   0   45.32    4.48
  -4  -2  -1    0.94    0.83
   4   2   1    2.20    1.63
   4   2   1    0.78    0.68
  -4  -2  -1    0.81    1.02
  -4  -2  -1    1.85    1.26
   4   2   1    0.03    1.77
  -4  -2  -1    2.87    2.12
   4   2   1   -0.35    1.78
  -4  -2  -1   -0.88    1.57
   4   2   1    0.37    0.95
   4   2   2  750.45   20.65
  -4  -2  -2  798.77   24.76
   4   2   2  786.28   30.39
   4   2   2  784.82   26.44
   4   2   2  767.15   33.15
  -4  -2  -2  778.96   26.35
  -4  -2  -2  727.11   32.44
   4   2   2  743.36   19.31
  -4  -2  -2  806.60   27.06
  -4  -2  -2  727.40   24.55
  -4  -2  -3  226.00   10.88
   4   2   3  208.77    8.28
  -4  -2  -3  215.83    9.41
   4   2   3  218.20   14.86
  -4  -2  -3  225.41   12.60
   4   2   3  205.36   14.89
   4   2   3  209.06   12.52
   4   2   4   22.53    4.10
  -4  -2  -4   25.06    3.38
   4   2   4   21.98    4.77
   4   2   4   26.11    3.09
  -4  -2  -4   26.93    4.30
   4   2   4   31.58    5.65
  -4  -2  -5  396.91   14.73
   4   2   5  375.31   22.01
   4   2   5  352.31   14.10
  -4  -2  -5  392.41   17.88
   4   2   5  399.22   18.92
   4   2   5  376.46   16.81
   4   2   5  354.13   19.53
   4   2   6   18.24    3.98
  -4  -2  -6   22.15    2.95
   4   2   6   16.53    2.68
   4   2   6   18.33    3.53
  -4  -2  -6   17.87    3.56
  -4  -2  -7   53.08    4.60
  -4  -2  -7   62.37    6.86
   4   2   7   57.36    7.17
   4   2   7   55.21    6.09
  -4  -2  -7   61.39    7.85
   4   2   8 1707.46   52.51
   4   2   8 1620.64   47.22
  -4  -2  -8 1738.62   49.66
  -4  -2  -8 1739.67   54.32
   4   2   9   83.78    6.81
   4   2   9   76.55    7.50
   4   2   9   83.81    9.31
  -4  -2  -9   83.70    8.36
  -4  -2  -9   85.07   10.27
   4   2  10  361.10   17.89
  -4  -2 -10  366.86   19.08
   4   2  10  369.22   16.89
  -4  -2 -10  359.91   22.86
  -4  -2 -11   12.00    4.92
  -4  -2 -11   11.49    3.31
   4   2  11    7.71    2.54
   4   2  11   10.24    3.13
  -4  -2 -12   25.02    6.39
  -4  -2 -12   21.97    3.04
   4   2  12   28.82    5.15
  -4  -2 -12   22.43    4.58
   4   2  12   28.40    5.24
   4   2  13  215.91   15.37
   4   2  13  211.15   14.13
  -4  -2 -13  238.73   22.12
  -4  -2 -13  232.67   21.77
  -4  -2 -14  563.11   37.81
   4   2  14  480.31   25.45
   4   2  14  495.47   23.47
  -4  -2 -14  477.27   33.90
  -4  -2 -14  523.05   35.32
   4   2  15   16.92    5.16
  -4  -2 -15   21.15    8.31
  -4  -2 -15   24.04    8.16
   4   2  16  265.48   20.31
  -4  -2 -16  266.75   28.30
  -4  -2 -17    6.42    5.50
   4   3 -13    2.59    2.46
   4   3 -12  199.63   18.60
   4   3 -12  235.78   30.21
  -4  -3  12  195.91   19.82
  -4  -3  11  130.70   15.28
   4   3 -11  127.09   14.13
   4   3 -11  159.88   23.89
   4   3 -10   52.10   13.64
   4   3 -10   30.94    6.39
  -4  -3  10   45.01    8.38
  -4  -3   9  344.72   23.10
   4   3  -9  334.94   22.26
  -4  -3   9  330.71   20.03
  -4  -3   8  190.69   16.11
   4   3  -8  191.64   15.97
  -4  -3   8  189.35   14.50
  -4  -3   8  163.42   13.50
   4   3  -8  217.72   25.11
   4   3  -7   47.25    7.71
  -4  -3   7   44.62    7.18
  -4  -3   7   51.97    7.21
  -4  -3   7   40.94    6.48
   4   3  -6  964.03   38.19
  -4  -3   6 1037.44   36.43
  -4  -3   6  929.30   36.05
  -4  -3   6 1000.36   24.38
  -4  -3   6 1026.69   25.04
  -4  -3   6 1012.48   38.27
   4   3  -5   53.00   11.06
  -4  -3   5   39.45    9.14
  -4  -3   5   41.55    6.53
   4   3  -5   47.27    7.11
  -4  -3   5   44.49    6.93
   4   3  -5   47.23    6.69
  -4  -3   5   41.01    5.89
  -4  -3   5   43.47    3.61
  -4  -3   5   44.67    6.57
  -4  -3   5   40.41    9.23
  -4  -3   5   48.43    5.05
  -4  -3   4 1410.21   38.57
   4   3  -4 1338.88   45.34
  -4  -3   4 1505.19   61.31
  -4  -3   4 1339.85   45.00
   4   3  -4 1398.15   44.12
  -4  -3   4 1447.13   44.13
  -4  -3   4 1415.47   35.77
  -4  -3   4 1386.09   45.07
  -4  -3   4 1481.27   37.90
  -4  -3   4 1377.86   44.39
  -4  -3   4 1255.34   57.83
  -4  -3   3  800.35   24.30
  -4  -3   3  768.16   23.34
   4   3  -3  762.65   30.12
  -4  -3   3  763.52   29.71
   4   3  -3  737.83   28.07
   4   3  -3  763.50   31.92
  -4  -3   3  758.39   29.75
  -4  -3   3  803.00   29.19
   4   3  -3  789.27   24.39
  -4  -3   3  824.07   42.06
  -4  -3   3  768.34   22.73
  -4  -3   3  801.65   29.24
  -4  -3   3  773.28   41.72
  -4  -3   2   48.79    4.74
   4   3  -2   49.54    6.42
  -4  -3   2   49.69    6.28
   4   3  -2   39.96    4.58
   4   3  -2   43.52    6.50
  -4  -3   2   42.15    8.29
  -4  -3   2   46.52    6.33
  -4  -3   2   43.93    4.50
  -4  -3   2   50.46    4.25
  -4  -3   2   47.74    5.84
   4   3  -1   47.09    5.40
   4   3  -1   42.26    5.70
   4   3  -1   49.70    6.98
   4   3  -1   46.52    5.10
  -4  -3   1   46.63    4.83
  -4  -3   1   40.60    5.06
  -4  -3   1   37.16    5.55
  -4  -3   1   40.66    5.57
   4   3  -1   39.37    8.30
  -4  -3   1   47.80    2.88
  -4  -3   1   41.43    8.33
   4   3   0  588.14   21.28
   4   3   0  571.17   22.86
   4   3   0  598.11   26.71
  -4  -3   0  592.90   24.57
   4   3   0  593.94   21.93
   4   3   0  585.97   31.84
  -4  -3   0  589.05   21.16
  -4  -3   0  616.99   32.79
  -4  -3   0  573.10   22.66
  -4  -3   0  569.44   23.51
   4   3   1   46.25    4.91
   4   3   1   41.95    5.22
  -4  -3  -1   43.62    5.46
  -4  -3  -1   36.60    4.76
   4   3   1   42.08    6.65
   4   3   1   46.66    5.53
  -4  -3  -1   50.27    6.13
   4   3   1   39.52    7.47
   4   3   1   46.09    3.91
  -4  -3  -1   33.53    6.43
   4   3   2 2587.12   64.80
  -4  -3  -2 2779.08   64.37
   4   3   2 2535.15   75.35
   4   3   2 2616.11   73.61
  -4  -3  -2 2655.42   69.09
  -4  -3  -2 2633.37   67.64
  -4  -3  -2 2640.12   66.58
   4   3   2 2534.41   59.88
   4   3   2 2587.80   63.22
   4   3   2 2651.85   67.60
   4   3   3   56.34    5.71
  -4  -3  -3   41.12    5.51
  -4  -3  -3   50.05    4.98
  -4  -3  -3   60.03    6.22
   4   3   3   46.41    7.00
   4   3   3   53.26    6.52
  -4  -3  -3   55.69    6.44
   4   3   3   49.35    4.37
   4   3   3   48.58    5.45
   4   3   3   48.39    7.21
   4   3   4   19.80    3.99
   4   3   4   16.61    3.30
   4   3   4   21.17    5.13
  -4  -3  -4   20.16    3.00
  -4  -3  -4   20.48    3.99
   4   3   4   20.31    4.03
   4   3   4   15.91    3.81
   4   3   4   19.97    3.07
   4   3   5   53.73    7.23
  -4  -3  -5   62.30    5.14
  -4  -3  -5   54.35    6.40
   4   3   5   53.75    5.55
   4   3   5   60.29    6.68
   4   3   5   61.15    7.64
   4   3   5   56.91    6.25
   4   3   6   29.29    5.46
  -4  -3  -6   29.95    5.04
  -4  -3  -6   29.18    3.34
  -4  -3  -6   32.46    6.11
   4   3   6   28.38    4.62
   4   3   6   29.47    4.24
  -4  -3  -7   52.64    4.31
  -4  -3  -7   52.18    6.41
   4   3   7   58.13    5.86
   4   3   7   50.19    6.14
   4   3   7   66.08    8.39
  -4  -3  -7   59.09    8.16
   4   3   8  682.08   25.54
  -4  -3  -8  638.82   19.10
  -4  -3  -8  673.51   26.75
   4   3   8  672.12   30.47
  -4  -3  -8  682.06   31.20
  -4  -3  -9   -2.42    1.96
  -4  -3  -9    0.27    1.73
  -4  -3  -9    1.30    0.82
   4   3   9    1.43    1.42
  -4  -3 -10   50.98    3.41
  -4  -3 -10   50.44    8.95
   4   3  10   43.62    5.85
  -4  -3 -10   52.59    6.74
  -4  -3 -11   55.19   10.01
  -4  -3 -11   42.80    2.61
  -4  -3 -11   48.39    2.90
  -4  -3 -11   54.10    9.28
  -4  -3 -11   56.74    7.42
   4   3  11   53.65    6.70
   4   3  12   -0.76    1.63
  -4  -3 -12    1.31    2.89
  -4  -3 -12    2.12    2.09
   4   3  12    0.24    1.19
  -4  -3 -13   47.32   10.26
  -4  -3 -13   29.45    8.21
   4   3  13   31.21    5.60
   4   3  13   31.45    5.78
  -4  -3 -14  147.25   19.79
   4   3  14  133.48   12.71
   4   3  14  130.88   11.07
   4   3  14  132.36   14.88
  -4  -3 -14  149.01   18.63
  -4  -3 -15   18.81    7.79
  -4  -3 -15   26.05    8.46
   4   3  15   20.30    5.38
   4   3  15    9.46    4.63
  -4  -3 -16  100.42   17.30
   4   3  16   69.62   10.15
  -4  -3 -17    3.50    4.28
   4   4 -13    1.06    3.29
   4   4 -12   36.27    7.75
   4   4 -11   11.01    5.56
  -4  -4  11   25.12    7.07
   4   4 -11   10.70    4.37
  -4  -4  10   17.61    5.41
   4   4 -10   19.39    6.47
   4   4 -10   11.03    7.42
   4   4  -9   46.41   12.23
  -4  -4   9   35.70    7.52
   4   4  -9   28.99    7.28
  -4  -4   8   50.51    8.52
   4   4  -8   45.71    8.83
  -4  -4   8   44.34    6.56
   4   4  -8   58.83   12.39
  -4  -4   7    6.24    3.32
   4   4  -7    4.15    2.58
   4   4  -7    8.02    3.91
  -4  -4   7    4.19    1.46
  -4  -4   7   -0.82    1.55
  -4  -4   7   11.49    3.35
   4   4  -6  279.02   19.88
  -4  -4   6  261.93   15.81
  -4  -4   6  242.22   18.13
  -4  -4   6  263.36   14.95
  -4  -4   6  293.65   19.11
   4   4  -5   16.83    6.72
   4   4  -5   20.61    5.59
  -4  -4   5   20.60    2.44
  -4  -4   5   24.58    4.43
  -4  -4   5   13.50    3.85
  -4  -4   5   20.13    4.65
  -4  -4   5   20.31    3.83
  -4  -4   4 1015.86   48.78
  -4  -4   4  908.25   26.04
   4   4  -4  923.00   37.48
  -4  -4   4  920.83   36.17
   4   4  -4  909.81   35.35
   4   4  -4  885.56   36.81
   4   4  -4  891.85   27.02
  -4  -4   4  946.77   32.93
  -4  -4   4  926.41   37.35
  -4  -4   4  959.46   26.93
  -4  -4   4  954.50   29.94
  -4  -4   4  991.94   36.53
  -4  -4   4  967.42   48.75
  -4  -4   3  366.67   14.46
   4   4  -3  389.25   21.57
  -4  -4   3  391.99   16.64
  -4  -4   3  385.07   20.59
   4   4  -3  385.96   20.27
   4   4  -3  376.55   21.50
  -4  -4   3  381.26   18.84
   4   4  -3  371.00   15.36
  -4  -4   3  378.49   21.60
  -4  -4   3  434.92   29.56
  -4  -4   3  388.14   15.48
  -4  -4   3  389.03   20.56
  -4  -4   3  399.00   29.31
   4   4  -2   28.01    4.99
  -4  -4   2   26.78    7.80
  -4  -4   2   21.27    3.63
   4   4  -2   20.92    4.90
  -4  -4   2   22.82    4.54
   4   4  -2   15.32    4.58
  -4  -4   2   15.93    4.02
  -4  -4   2   18.91    6.07
  -4  -4   2   29.49    5.35
  -4  -4   2   19.09    3.28
  -4  -4   2   17.55    3.45
   4   4  -2   21.72    3.50
   4   4  -1  112.09   10.51
  -4  -4   1  120.52    7.66
  -4  -4   1  108.85    9.67
   4   4  -1  111.53   11.33
  -4  -4   1  111.25    9.59
   4   4  -1  103.40   13.21
  -4  -4   1  111.34   11.02
  -4  -4   1  133.39   15.00
   4   4  -1  113.09    8.58
  -4  -4   1  124.52   10.76
  -4  -4   1  107.57    8.25
  -4  -4   1  107.79   13.91
   4   4   0  879.71   31.48
   4   4   0  934.40   41.28
   4   4   0  850.20   31.98
   4   4   0  886.22   30.53
  -4  -4   0  875.17   31.11
  -4  -4   0  903.98   34.05
   4   4   0  925.23   36.22
  -4  -4   0  891.54   33.56
  -4  -4   0  962.40   43.02
  -4  -4   0  891.48   29.80
  -4  -4   0  935.01   24.80
   4   4   0  924.82   25.63
  -4  -4   0  833.52   41.22
   4   4   1   90.78    8.42
   4   4   1  110.87   11.27
  -4  -4  -1   91.56    9.75
   4   4   1  109.27    8.27
   4   4   1   99.87    8.87
  -4  -4  -1  105.70    9.91
   4   4   1   93.12   11.33
  -4  -4  -1   94.64   11.61
  -4  -4  -1   99.64    5.84
  -4  -4  -1  102.24    8.69
   4   4   1  102.06    8.97
   4   4   2 3572.38   89.03
   4   4   2 3627.86   89.11
   4   4   2 3750.68   91.96
  -4  -4  -2 3829.73   93.55
   4   4   2 3842.17  100.10
  -4  -4  -2 3970.16   98.22
  -4  -4  -2 3490.80  100.34
   4   4   2 3679.95   92.94
   4   4   2 3645.22   99.68
  -4  -4  -2 3754.60   91.34
   4   4   3  649.04   29.68
   4   4   3  678.55   24.42
  -4  -4  -3  661.41   23.29
  -4  -4  -3  659.92   27.93
   4   4   3  671.64   32.43
  -4  -4  -3  691.63   27.56
   4   4   3  678.36   28.58
   4   4   3  679.39   27.68
  -4  -4  -3  652.96   26.93
   4   4   3  673.88   23.66
   4   4   4  186.92   11.04
  -4  -4  -4  175.79   10.10
   4   4   4  188.11   14.05
   4   4   4  198.99   17.10
  -4  -4  -4  190.88   13.17
   4   4   4  207.26   13.45
   4   4   4  223.46   15.56
   4   4   4  188.05   13.76
   4   4   4  199.04   11.44
  -4  -4  -4  182.82   13.54
   4   4   5  190.77   13.82
  -4  -4  -5  181.67    9.75
   4   4   5  182.18   13.44
   4   4   5  199.51   15.21
  -4  -4  -5  170.97   12.47
   4   4   5  201.22   13.13
   4   4   5  185.05   11.35
  -4  -4  -5  185.57   14.28
  -4  -4  -6  312.42   12.83
   4   4   6  324.14   17.81
  -4  -4  -6  315.13   17.65
   4   4   6  313.36   17.05
   4   4   6  315.51   18.41
  -4  -4  -6  319.89   19.75
   4   4   6  325.70   20.71
  -4  -4  -7  434.12   15.04
  -4  -4  -7  439.38   21.29
   4   4   7  438.63   20.51
   4   4   7  433.72   20.45
   4   4   7  474.61   26.11
   4   4   7  426.35   20.35
  -4  -4  -7  447.39   24.85
  -4  -4  -8 1898.64   44.70
  -4  -4  -8 1989.72   64.09
   4   4   8 1912.81   55.88
  -4  -4  -8 1850.14   55.59
   4   4   8 1903.16   54.52
  -4  -4  -9   10.70    4.33
  -4  -4  -9   15.74    5.32
  -4  -4  -9   10.53    1.55
   4   4   9   15.02    3.50
   4   4   9    8.42    2.73
  -4  -4  -9   10.25    3.25
   4   4   9    7.24    2.70
  -4  -4 -10  272.38   16.88
   4   4  10  298.53   16.81
   4   4  10  281.47   18.41
  -4  -4 -10  309.71   22.98
  -4  -4 -10  283.51   22.35
  -4  -4 -11   31.61    7.86
  -4  -4 -11   25.73    6.41
  -4  -4 -11   24.76    5.00
   4   4  11   23.28    4.61
   4   4  11   20.13    5.36
  -4  -4 -12    0.12    3.04
  -4  -4 -12   -1.95    4.41
  -4  -4 -12    3.59    2.22
   4   4  12    1.00    1.81
   4   4  12   -0.47    2.10
   4   4  13  108.71   10.17
   4   4  13   96.03   12.34
  -4  -4 -13  106.20   16.10
   4   4  14  137.24   13.37
   4   4  14  151.14   16.34
  -4  -4 -14  177.04   21.56
  -4  -4 -15   80.98   15.56
  -4  -4 -15   65.35   13.68
   4   4  15   56.73    8.81
   4   4  15   62.24   10.94
   4   4  16   66.89   10.15
  -4  -4 -16   66.42   14.35
   4   5 -12  146.60   18.36
   4   5 -11   44.95   13.00
   4   5 -11   30.61    8.33
  -4  -5  11   41.05    9.14
   4   5 -10   47.49   12.38
  -4  -5  10   30.83    7.82
   4   5 -10   43.03    9.20
   4   5  -9   50.40   12.71
   4   5  -9   43.83    9.22
  -4  -5   9   40.82    8.70
   4   5  -8   49.31   10.96
   4   5  -8   37.28    8.49
  -4  -5   8   34.27    7.18
  -4  -5   7   41.44    5.88
   4   5  -7   48.90    9.26
  -4  -5   7   41.33    6.35
  -4  -5   7   32.12    6.64
   4   5  -7   38.98    9.59
   4   5  -6  116.17   17.30
   4   5  -6  114.46   13.43
  -4  -5   6  106.71    9.52
  -4  -5   6  110.95    9.88
  -4  -5   6  113.14   12.34
   4   5  -5   24.24    7.18
   4   5  -5   18.48    6.01
  -4  -5   5   22.05    4.35
  -4  -5   5   24.53    5.50
  -4  -5   5   26.52    4.61
  -4  -5   4  258.02   10.08
   4   5  -4  260.90   19.80
   4   5  -4  255.49   18.03
  -4  -5   4  247.96   14.83
   4   5  -4  251.83   11.85
  -4  -5   4  261.23   18.39
  -4  -5   4  261.46   15.22
  -4  -5   4  278.49   10.82
   4   5  -3    6.31    2.29
  -4  -5   3    1.66    2.34
  -4  -5   3    5.81    1.81
   4   5  -3    6.53    3.39
  -4  -5   3    2.53    0.88
  -4  -5   3    2.28    1.59
   4   5  -3    7.37    3.31
  -4  -5   3    4.39    2.98
  -4  -5   3   -0.13    1.60
  -4  -5   3    6.56    3.73
  -4  -5   3    4.93    2.25
   4   5  -3    5.52    1.93
   4   5  -2   15.32    3.08
  -4  -5   2   17.71    5.99
  -4  -5   2   17.90    3.27
   4   5  -2   14.17    4.59
  -4  -5   2   15.61    3.18
  -4  -5   2   15.88    4.16
  -4  -5   2   13.20    4.18
   4   5  -2   15.23    4.07
  -4  -5   2   17.35    4.52
  -4  -5   2   18.03    5.21
   4   5  -2   17.47    4.44
  -4  -5   2   18.94    4.13
   4   5  -1  203.32   15.10
   4   5  -1  222.80   16.01
  -4  -5   1  194.74   14.00
  -4  -5   1  206.98   15.62
   4   5  -1  198.41   15.68
   4   5  -1  192.15   12.64
  -4  -5   1  187.02   15.68
  -4  -5   1  225.12   19.86
  -4  -5   1  222.10   13.23
  -4  -5   1  197.80   12.55
  -4  -5   1  200.34   19.14
   4   5   0   93.68    9.77
  -4  -5   0   94.07    9.08
  -4  -5   0   99.06    7.82
   4   5   0   95.65   10.89
   4   5   0  101.73   12.48
   4   5   0   90.73    8.96
  -4  -5   0   99.51   10.89
  -4  -5   0   87.40   10.29
  -4  -5   0  123.89   13.91
  -4  -5   0   77.20    8.22
   4   5   0   98.05    8.23
  -4  -5   0  101.69   13.23
   4   5   0   89.43    9.85
  -4  -5  -1   74.61   10.92
   4   5   1   85.90    9.22
  -4  -5  -1   75.97    7.85
   4   5   1   82.14    8.76
   4   5   1   86.61   10.53
  -4  -5  -1   85.07   10.34
   4   5   1   86.24   10.72
  -4  -5  -1   93.28   10.38
   4   5   1   86.17    9.29
  -4  -5  -1   87.58   11.51
  -4  -5  -1   82.00    6.91
  -4  -5  -1   85.32    8.80
   4   5   2 1108.03   37.28
  -4  -5  -2 1057.80   35.23
   4   5   2 1129.09   44.99
  -4  -5  -2 1254.28   45.69
   4   5   2 1132.42   41.45
  -4  -5  -2 1096.15   40.94
  -4  -5  -2 1156.58   44.84
  -4  -5  -2 1130.85   33.47
  -4  -5  -2 1100.52   38.81
   4   5   2 1133.21   39.91
   4   5   2 1078.84   43.06
   4   5   3   21.25    5.08
   4   5   3   17.37    3.48
  -4  -5  -3   11.47    3.50
   4   5   3   13.61    4.10
  -4  -5  -3   22.80    5.04
   4   5   3   11.37    3.73
   4   5   3   13.49    3.17
  -4  -5  -3   20.45    4.84
   4   5   4   22.97    5.48
   4   5   4   20.15    3.70
  -4  -5  -4   13.97    3.76
   4   5   4   31.51    6.09
   4   5   4   17.27    3.88
  -4  -5  -4   21.68    4.51
   4   5   5    1.08    1.87
   4   5   5    2.61    1.61
  -4  -5  -5    0.43    1.51
  -4  -5  -5    2.80    1.25
  -4  -5  -5    1.04    1.47
   4   5   5    6.44    2.98
  -4  -5  -6  140.41   13.80
  -4  -5  -6  145.40    8.91
   4   5   6  149.75   12.48
   4   5   6  154.28   11.81
  -4  -5  -6  156.90   12.70
  -4  -5  -6  143.84   13.71
  -4  -5  -7  210.30   10.48
  -4  -5  -7  219.52   15.49
   4   5   7  221.41   15.75
  -4  -5  -7  219.29   18.02
   4   5   7  250.32   15.69
  -4  -5  -7  235.38   18.15
  -4  -5  -8 1325.24   33.98
   4   5   8 1296.21   45.34
   4   5   8 1316.62   45.25
  -4  -5  -8 1324.32   44.70
  -4  -5  -8 1342.19   52.16
   4   5   8 1294.97   44.46
  -4  -5  -8 1304.04   50.89
  -4  -5  -9   12.72    5.31
  -4  -5  -9    4.95    2.22
   4   5   9    7.69    2.94
   4   5   9   15.06    3.99
  -4  -5  -9    7.39    2.82
   4   5   9    6.43    2.07
   4   5  10  284.33   18.58
  -4  -5 -10  280.52   17.91
   4   5  10  305.74   17.86
   4   5  10  307.56   19.97
  -4  -5 -10  305.74   24.45
  -4  -5 -10  331.73   25.03
   4   5  11  128.48   12.57
  -4  -5 -11  136.84   12.18
   4   5  11  143.10   11.94
   4   5  11  137.40   13.75
  -4  -5 -11  149.08   17.26
  -4  -5 -12    8.06    5.02
   4   5  12    9.30    3.54
   4   5  13  309.36   22.92
  -4  -5 -13  336.80   29.37
  -4  -5 -14  248.22   27.25
   4   5  14  270.90   22.50
  -4  -5 -15   65.57   13.86
  -4  -5 -15   91.26   16.62
   4   5  15   87.08   11.46
   4   6 -10  129.74   19.56
   4   6 -10  107.82   16.14
  -4  -6  10  105.83   15.37
   4   6  -9  271.74   25.33
  -4  -6   9  268.91   23.16
   4   6  -9  268.43   28.94
   4   6  -8  138.54   17.04
   4   6  -8  143.81   20.74
  -4  -6   8  141.32   15.96
   4   6  -7   44.43   10.63
   4   6  -7   54.13   10.37
  -4  -6   7   56.18   10.41
   4   6  -6  599.73   35.53
  -4  -6   6  581.08   32.18
  -4  -6   6  539.53   26.59
   4   6  -5    0.80    3.12
  -4  -6   5    6.62    4.10
   4   6  -5    0.59    1.01
  -4  -6   5    3.85    2.52
  -4  -6   4  815.41   23.02
   4   6  -4  921.58   42.59
   4   6  -4  800.48   35.82
   4   6  -4  789.57   26.86
  -4  -6   4  880.60   39.39
  -4  -6   4  823.66   33.91
   4   6  -3  249.92   20.34
   4   6  -3  222.74   17.39
  -4  -6   3  268.57   22.64
   4   6  -3  209.03   12.70
  -4  -6   3  222.66   18.10
  -4  -6   3  257.80   17.04
  -4  -6   3  223.06   12.57
   4   6  -2   16.96    3.59
  -4  -6   2   22.92    6.13
  -4  -6   2   25.77    4.29
  -4  -6   2   18.00    4.93
   4   6  -2   28.93    6.41
   4   6  -2   28.76    6.36
   4   6  -2   22.35    5.51
  -4  -6   2   37.41    8.01
  -4  -6   2   32.48    5.77
  -4  -6   1   14.08    5.68
   4   6  -1   11.41    3.43
  -4  -6   1    1.40    2.43
  -4  -6   1    7.97    2.66
   4   6  -1   14.31    5.02
   4   6  -1    1.09    2.22
   4   6  -1    4.90    3.30
  -4  -6   1   11.35    5.15
  -4  -6   1    7.96    2.91
   4   6   0  335.81   21.15
  -4  -6   0  287.74   17.93
   4   6   0  332.69   18.68
   4   6   0  302.76   21.15
   4   6   0  317.34   19.44
  -4  -6   0  297.58   21.88
  -4  -6   0  333.58   17.79
  -4  -6   0  315.70   18.67
  -4  -6   0  306.22   17.25
   4   6   0  321.36   21.72
  -4  -6   0  325.96   24.33
   4   6   1  139.13   12.48
   4   6   1  148.28   13.07
  -4  -6  -1  116.33   10.78
   4   6   1  136.18   13.95
  -4  -6  -1  130.59   11.87
  -4  -6  -1  143.50   14.97
   4   6   1  129.11   13.45
   4   6   1  137.59   13.14
  -4  -6  -1  149.87   14.83
  -4  -6  -1  142.05   10.84
  -4  -6  -1  143.86   11.69
   4   6   1  131.65   13.75
  -4  -6  -1  122.17   14.24
   4   6   2  536.23   25.84
  -4  -6  -2  534.53   24.11
  -4  -6  -2  564.43   27.42
   4   6   2  524.30   30.37
  -4  -6  -2  622.28   32.43
   4   6   2  531.15   28.10
   4   6   2  542.82   28.85
  -4  -6  -2  609.64   30.02
  -4  -6  -2  580.03   24.14
   4   6   2  622.21   29.31
   4   6   2  572.26   30.38
  -4  -6  -2  549.19   25.80
  -4  -6  -3    3.62    2.65
   4   6   3    8.41    4.13
   4   6   3    6.83    2.88
  -4  -6  -3    1.40    1.86
  -4  -6  -3    2.89    1.16
   4   6   3    8.72    3.46
   4   6   3    4.06    3.15
  -4  -6  -3    6.27    3.42
  -4  -6  -3    3.14    2.50
   4   6   3    5.44    2.21
  -4  -6  -3    6.03    2.44
  -4  -6  -4    1.97    2.25
   4   6   4    0.72    2.17
   4   6   4    0.96    1.63
   4   6   4    4.72    2.90
  -4  -6  -4    0.18    1.71
  -4  -6  -4    5.94    2.95
   4   6   4    1.04    1.34
   4   6   5  105.90    9.01
  -4  -6  -5  114.39   11.76
   4   6   5  105.09   12.31
   4   6   5  104.80   11.02
   4   6   5  113.58   11.02
  -4  -6  -5  105.65   11.90
  -4  -6  -5  139.77   13.51
   4   6   6    9.41    3.38
  -4  -6  -6   12.07    4.42
   4   6   6    9.18    2.44
  -4  -6  -6    6.94    2.83
   4   6   6    7.45    2.78
   4   6   6   14.62    3.81
  -4  -6  -6   12.21    3.75
  -4  -6  -7   96.82   10.60
   4   6   7   93.83   11.16
   4   6   7   98.15   10.36
  -4  -6  -7   86.79   12.06
   4   6   7   96.85   10.72
  -4  -6  -7  103.25   13.07
   4   6   8  158.23   14.69
  -4  -6  -8  160.86   13.85
   4   6   8  167.55   14.45
  -4  -6  -8  145.59   15.68
   4   6   8  141.19   12.55
  -4  -6  -9   17.55    6.27
   4   6   9   21.58    5.42
  -4  -6  -9   10.12    3.27
   4   6   9   22.40    5.66
   4   6   9   21.20    5.26
  -4  -6 -10   38.29    9.41
   4   6  10   38.83    7.22
  -4  -6 -11   11.22    5.56
   4   6  11   -1.11    2.52
  -4  -6 -12    7.96    4.68
   4   6  12   11.59    4.33
  -4  -6 -13   60.77   12.45
   4   6  13   66.20   10.81
  -4  -6 -14   30.84    9.53
   4   6  14   44.70    9.14
   4   7  -9   54.55   13.60
   4   7  -9   53.13   11.40
  -4  -7   9   64.81   12.25
   4   7  -8   69.10   14.51
   4   7  -8   74.57   13.61
  -4  -7   8   75.29   12.13
   4   7  -7    4.27    3.69
  -4  -7   7    5.54    5.04
   4   7  -6  370.55   28.87
  -4  -7   6  357.14   26.32
   4   7  -5    6.98    4.77
  -4  -7   5    2.95    2.17
   4   7  -4  883.43   45.27
   4   7  -4  767.08   36.27
  -4  -7   4  901.73   43.08
   4   7  -4  793.44   29.28
  -4  -7   4  945.08   39.12
   4   7  -3  273.39   23.03
   4   7  -3  275.75   20.00
  -4  -7   3  293.25   19.88
   4   7  -3  262.66   15.80
  -4  -7   3  263.35   21.66
  -4  -7   3  291.12   15.69
   4   7  -2   13.96    3.76
  -4  -7   2   14.55    4.19
  -4  -7   2   27.38    6.87
  -4  -7   2   19.52    4.36
   4   7  -2   10.12    4.63
   4   7  -2   20.96    5.52
  -4  -7   2   22.83    5.41
   4   7  -1  275.84   21.39
   4   7  -1  241.39   19.21
  -4  -7   1  326.58   23.92
  -4  -7   1  249.73   21.22
   4   7  -1  264.85   18.36
  -4  -7   1  316.31   19.44
  -4  -7   1  271.38   17.08
   4   7   0  573.43   30.96
   4   7   0  521.70   29.94
  -4  -7   0  554.71   33.10
   4   7   0  594.90   30.19
  -4  -7   0  596.44   27.72
  -4  -7   0  557.86   26.77
  -4  -7   0  579.41   33.90
   4   7   1  208.62   17.13
   4   7   1  169.21   16.41
  -4  -7  -1  209.76   19.34
  -4  -7  -1  183.96   14.14
   4   7   1  174.35   15.72
  -4  -7  -1  209.44   17.20
   4   7   1  164.96   15.89
   4   7   1  195.53   18.27
  -4  -7  -1  194.24   15.24
  -4  -7  -1  181.55   17.91
   4   7   2 2608.08   76.13
  -4  -7  -2 3020.16   87.79
   4   7   2 2509.73   81.89
   4   7   2 2472.54   80.65
   4   7   2 2430.78   75.72
  -4  -7  -2 2761.30   73.76
   4   7   2 2577.02   83.23
  -4  -7  -2 2578.87   75.73
  -4  -7  -2 2243.14   79.13
   4   7   3   98.69   10.68
   4   7   3  109.57   12.53
   4   7   3  108.89   13.73
  -4  -7  -3   92.47   12.76
   4   7   3   92.36   10.70
   4   7   3  125.71   14.69
  -4  -7  -3  110.76   10.74
  -4  -7  -3  101.28   11.61
   4   7   4  111.71   10.51
   4   7   4  117.71   14.07
   4   7   4  101.66   12.38
  -4  -7  -4  111.61   12.51
   4   7   4  110.55   11.61
   4   7   5  249.66   15.66
   4   7   5  279.97   21.89
   4   7   5  256.51   17.80
   4   7   5  240.80   18.54
  -4  -7  -5  265.60   20.17
   4   7   6  187.57   12.52
   4   7   6  209.35   18.64
   4   7   6  169.07   14.26
   4   7   6  207.56   16.76
  -4  -7  -6  204.13   18.81
   4   7   7  296.15   19.09
   4   7   7  325.11   23.72
   4   7   7  325.31   22.16
  -4  -7  -7  331.53   24.75
   4   7   8  571.49   27.89
   4   7   8  583.16   30.66
  -4  -7  -8  627.37   36.14
  -4  -7  -9   49.52   10.02
   4   7   9   40.66    7.23
   4   7   9   42.65    8.31
   4   7  10  113.07   12.01
   4   7  10  113.80   13.47
  -4  -7 -10  113.79   15.91
  -4  -7 -11   24.15    6.68
   4   7  11   23.17    6.02
   4   7  11   29.89    7.44
  -4  -7 -12   -3.95    4.71
   4   7  12    4.84    2.83
   4   7  12    6.31    4.71
  -4  -7 -13   70.34   14.63
   4   7  13   71.00   11.45
  -4  -8   7    5.10    3.50
   4   8  -7   12.33    5.99
  -4  -8   6   45.37    9.79
   4   8  -6   40.50   10.68
  -4  -8   5   52.57   10.83
   4   8  -5   47.79   11.40
   4   8  -4  208.84   21.41
   4   8  -4  194.66   15.97
  -4  -8   4  167.40   18.55
  -4  -8   3   -2.62    4.64
  -4  -8   3    3.79    2.33
   4   8  -3    0.11    2.87
   4   8  -3    5.69    3.52
   4   8  -2   11.38    3.82
  -4  -8   2   12.66    3.14
   4   8  -2   11.54    5.63
   4   8  -2   10.42    4.25
  -4  -8   2   11.67    3.88
  -4  -8   2   15.41    3.74
   4   8  -1    9.64    4.01
  -4  -8   1   14.05    4.39
   4   8  -1   13.19    5.42
   4   8  -1   13.48    4.75
  -4  -8   1    7.69    3.49
  -4  -8   1   14.86    4.88
  -4  -8   1    8.13    4.53
   4   8   0  180.00   17.74
  -4  -8   0  194.12   16.92
   4   8   0  151.39   15.86
   4   8   0  177.38   16.84
  -4  -8   0  185.22   19.49
   4   8   0  196.75   17.11
  -4  -8   0  184.51   15.80
  -4  -8   0  171.67   15.21
   4   8   1  163.92   16.66
   4   8   1  167.08   16.78
  -4  -8  -1  191.71   19.72
  -4  -8  -1  205.34   16.47
  -4  -8  -1  187.27   15.69
   4   8   1  210.57   18.22
  -4  -8  -1  176.20   15.85
   4   8   2  434.12   26.95
  -4  -8  -2  524.92   32.88
   4   8   2  458.29   29.65
  -4  -8  -2  420.55   24.71
   4   8   2  502.66   29.48
  -4  -8  -2  427.62   26.21
  -4  -8  -2  399.18   27.28
  -4  -8  -3    3.49    1.89
   4   8   3   12.13    4.09
   4   8   3    5.89    3.04
  -4  -8  -3   12.09    5.87
   4   8   3   15.30    6.10
  -4  -8  -3    9.42    2.91
  -4  -8  -3   10.77    3.75
   4   8   3    5.26    2.90
  -4  -8  -4   35.09    7.75
   4   8   4   41.11    7.45
   4   8   4   32.77    8.71
  -4  -8  -4   43.94    7.82
   4   8   4   32.96    6.31
   4   8   4   34.20    7.63
   4   8   5  109.45   11.02
   4   8   5  112.78   11.40
   4   8   5  104.65   13.70
  -4  -8  -5  117.74   14.28
   4   8   6  101.13   13.25
   4   8   6  110.79   10.39
   4   8   6   97.95   10.66
  -4  -8  -6  114.36   14.59
   4   8   7  328.21   17.54
   4   8   7  340.82   24.47
  -4  -8  -7  382.80   27.95
   4   8   7  326.67   20.41
   4   8   8  620.76   34.01
   4   8   8  541.93   27.65
  -4  -8  -8  642.88   38.18
  -4  -8  -9   13.92    6.63
   4   8   9   11.67    3.80
   4   8   9   16.63    5.47
   4   8  10  228.97   17.55
   4   8  10  222.71   20.46
  -4  -8 -10  252.63   25.06
   4   8  11  195.41   16.37
   4   8  11  212.01   20.13
  -4  -8 -11  205.17   23.48
   4   8  12    4.07    3.50
   4   9  -6  265.22   27.28
  -4  -9   6  244.46   24.95
   4   9  -5    2.18    4.00
  -4  -9   5    4.79    2.99
   4   9  -4  317.80   28.92
  -4  -9   4  292.89   26.55
   4   9  -3   35.85    9.22
  -4  -9   3   25.50    7.41
  -4  -9   2    7.66    3.36
   4   9  -2    4.23    3.27
   4   9  -2    8.47    3.35
  -4  -9   2   -0.89    4.35
  -4  -9   1    3.89    3.18
   4   9  -1    2.68    3.79
   4   9  -1    3.87    3.77
  -4  -9   1    0.64    2.57
  -4  -9   0   58.47    9.17
   4   9   0   58.79   10.96
   4   9   0   61.29    9.97
  -4  -9   0   74.99   12.29
   4   9   0   65.80   10.59
   4   9   1  103.96   13.82
   4   9   1  111.15   14.07
  -4  -9  -1  110.75   15.81
   4   9   1  120.96   14.50
  -4  -9  -1  104.80   12.72
   4   9   2  183.83   18.11
  -4  -9  -2  199.23   20.91
   4   9   2  166.82   17.78
   4   9   2  210.33   19.36
  -4  -9  -2  161.20   16.67
  -4  -9  -3   27.68    7.02
   4   9   3   35.60    7.44
  -4  -9  -3   51.18   10.77
   4   9   3   26.04    7.88
   4   9   3   42.61    8.97
  -4  -9  -4   -2.02    3.64
   4   9   4    3.59    3.25
   4   9   4    6.56    4.80
   4   9   4    4.92    2.64
   4   9   4    1.44    3.16
  -4  -9  -5   -0.69    2.60
   4   9   5    4.63    2.37
   4   9   5    6.68    3.05
   4   9   5   11.82    5.02
  -4  -9  -6    6.54    4.23
   4   9   6    6.14    2.80
   4   9   6    5.66    2.21
   4   9   6   -2.04    3.90
  -4  -9  -7   65.74   11.90
   4   9   7   69.42    9.03
   4   9   7   83.30   13.32
  -4  -9  -8   22.03    6.92
   4   9   8   23.08    5.96
  -4  -9  -9   32.09    8.45
   4   9   9   25.68    6.63
  -4  -9 -10   31.39    8.52
   4   9  10   32.60    7.67
   4   9  11   12.99    4.79
   4  10  -4  459.79   36.56
  -4 -10   4  398.60   33.45
   4  10  -3  146.50   19.72
  -4 -10   3  132.20   18.45
   4  10  -2   -3.84    5.08
  -4 -10   2    3.48    4.31
   4  10  -1  230.04   23.61
  -4 -10   1  240.93   24.59
   4  10   0  347.53   28.08
   4  10   0  310.55   23.81
  -4 -10   0  349.21   29.29
   4  10   0  365.05   26.55
  -4 -10   0  322.26   23.29
   4  10   1  208.22   21.38
  -4 -10  -1  230.00   23.64
   4  10   1  180.71   18.35
   4  10   1  203.39   19.89
  -4 -10  -1  186.95   18.37
   4  10   2  619.96   36.57
  -4 -10  -2  724.59   42.93
   4  10   2  585.38   35.59
   4  10   2  715.92   38.80
  -4 -10  -2  575.03   35.04
  -4 -10  -3    2.59    2.39
   4  10   3    1.50    2.06
  -4 -10  -3    5.53    5.19
   4  10   3    0.52    2.82
   4  10   3    3.04    3.73
  -4 -10  -4   36.23    8.25
   4  10   4   64.87   10.42
   4  10   4   55.60   10.78
   4  10   4   47.73   10.35
   4  10   5  165.24   18.96
   4  10   5  152.18   14.98
   4  10   5  139.50   18.17
  -4 -10  -5  137.73   17.59
  -4 -10  -6   32.06    8.67
   4  10   6   13.40    5.82
   4  10   7  157.40   19.27
  -4 -10  -7  167.74   20.44
  -4 -10  -8   78.48   14.74
   4  10   8   69.88   13.57
   4  10   9   25.11    7.62
   4  10  10   27.57    7.37
   4  11  -1   66.39   12.39
  -4 -11   1   83.17   14.73
   4  11   0   87.66   14.76
  -4 -11   0   92.31   15.48
   4  11   1  138.60   17.61
  -4 -11  -1  132.96   18.20
   4  11   1  131.81   16.35
  -4 -11  -1  117.26   14.99
   4  11   2  320.12   26.93
  -4 -11  -2  360.92   30.95
   4  11   2  303.46   24.90
   4  11   2  333.22   27.05
  -4 -11  -2  308.11   25.36
   4  11   3    5.45    3.43
  -4 -11  -3   15.87    6.33
   4  11   3   21.56    6.63
   4  11   3    6.18    3.29
  -4 -11  -4   65.12   12.59
   4  11   4   59.08   11.97
   4  11   4   78.14   13.64
   4  11   5  230.53   23.67
   4  11   5  251.62   24.41
  -4 -11  -5  253.16   25.05
  -4 -11  -6   44.85   10.73
   4  11   6   38.83   10.31
   4  11   7  215.32   23.82
   4  11   8  165.23   21.22
   4  12   1   53.33   10.57
   4  12   2   14.09    5.85
  -4 -12  -4   11.74    6.14
   5 -11  -1   11.32    3.96
   5 -11   0    4.46    3.98
   5 -11   1    9.92    5.66
   5 -11   2   85.06   15.24
   5 -11   2   44.90   10.98
   5 -11   3   21.55    8.64
   5 -11   4   88.84   15.43
  -5  11  -4   78.08   15.01
   5 -11   5   -4.70    6.21
  -5  11  -5    1.15    3.96
   5 -10  -3  138.00   16.13
   5 -10  -2  238.98   26.25
   5 -10  -2  173.10   18.90
  -5  10   2  265.82   29.10
   5 -10  -1   -5.92    5.70
   5 -10  -1   -3.46    3.36
  -5  10   1    6.04    5.36
   5 -10   0   52.29   12.56
   5 -10   0   33.85    9.30
  -5  10   0   65.18   14.78
   5 -10   1   91.72   14.68
   5 -10   1  138.96   19.41
  -5  10  -1  159.37   23.06
   5 -10   2   18.48    7.96
   5 -10   2   11.97    6.77
  -5  10  -2   33.26   10.78
   5 -10   3  220.32   23.78
  -5  10  -3  238.17   28.71
   5 -10   4   70.22   13.20
   5 -10   4   55.12   12.90
  -5  10  -4   87.79   15.03
   5 -10   5   -8.27    5.23
   5 -10   5    1.90    3.65
   5 -10   5   -4.13    6.13
  -5  10  -5    4.81    4.36
   5 -10   6   -2.75    4.58
  -5  10  -6    5.24    4.17
   5 -10   7   10.97    5.70
  -5  10  -7    9.58    5.01
   5  -9  -5  149.06   22.16
  -5   9   5  143.84   21.56
   5  -9  -4   80.48   16.02
   5  -9  -4   68.26    9.67
  -5   9   4  113.03   18.31
   5  -9  -3  203.78   24.44
   5  -9  -3  173.22   16.59
  -5   9   3  228.12   26.17
   5  -9  -2  287.30   28.69
   5  -9  -2  242.42   21.00
   5  -9  -1   -1.08    4.37
   5  -9  -1   -0.97    2.67
  -5   9   1    5.30    4.41
   5  -9   0  125.19   18.15
   5  -9   0  109.48   15.02
  -5   9   0  145.82   20.92
   5  -9   1  315.21   28.29
   5  -9   1  248.79   23.59
  -5   9  -1  355.51   33.19
   5  -9   2   -2.32    3.48
   5  -9   2    7.02    5.34
  -5   9  -2   -3.92    6.92
   5  -9   3  750.39   44.36
   5  -9   3  695.33   43.29
   5  -9   4  285.86   25.78
  -5   9  -4  292.12   26.24
   5  -9   4  254.02   25.83
   5  -9   5  149.57   19.03
   5  -9   5  103.15   14.82
   5  -9   5   94.74   15.88
  -5   9  -5  107.40   15.58
   5  -9   6  152.06   19.29
  -5   9  -6  133.77   17.28
   5  -9   6  103.79   16.38
   5  -9   7   74.56   13.32
   5  -9   7   68.56   13.70
  -5   9  -7   41.40    9.96
   5  -9   8   26.70    8.07
  -5   9  -8   29.87    7.81
   5  -9   9  454.26   34.46
   5  -9  10   38.68   10.59
   5  -8  -7   55.91   14.05
  -5   8   7   16.11    4.95
   5  -8  -6   27.38    9.41
  -5   8   6   13.13    5.01
   5  -8  -5   60.24   12.90
  -5   8   5   67.36   14.27
   5  -8  -4   64.79   14.29
   5  -8  -4   54.90    8.01
  -5   8   4   52.45   11.79
   5  -8  -3   15.72    6.13
   5  -8  -3   17.68    4.95
  -5   8   3    7.41    4.98
   5  -8  -2   40.16    9.94
   5  -8  -2   38.52    7.40
  -5   8   2   52.88   12.45
   5  -8  -1   16.83    5.14
   5  -8  -1   12.17    5.35
  -5   8   1   15.43    8.09
   5  -8   0   44.87   10.08
   5  -8   0   49.71    9.09
   5  -8   1   74.39   12.72
  -5   8  -1   97.62   12.46
   5  -8   1   81.39   11.96
   5  -8   2   43.41   10.06
  -5   8  -2   42.93    8.00
   5  -8   2   57.34   10.55
  -5   8  -2   66.81   13.86
   5  -8   2   66.27    6.67
   5  -8   3  352.99   28.44
   5  -8   3  451.53   21.07
   5  -8   3  332.91   27.16
  -5   8  -3  457.03   37.42
   5  -8   4  132.60   16.65
   5  -8   4  150.15   18.14
  -5   8  -4  127.27   16.20
   5  -8   4  135.33   17.52
   5  -8   4  183.54   13.57
  -5   8  -4  150.53   20.76
   5  -8   5   27.91    7.27
   5  -8   5   26.55    7.93
   5  -8   5   28.21    5.79
  -5   8  -5   25.37    6.66
   5  -8   5   29.57    7.98
   5  -8   6    5.16    2.87
   5  -8   6   15.26    4.41
   5  -8   6    7.99    4.30
  -5   8  -6   11.68    5.82
   5  -8   7   45.09   10.46
   5  -8   7   76.43   13.62
  -5   8  -7   53.03   10.37
   5  -8   8   43.69   10.96
   5  -8   8   38.39    9.97
  -5   8  -8   34.51    8.32
   5  -8   9  667.02   41.28
  -5   8  -9  593.41   35.35
   5  -8   9  610.92   42.63
   5  -8  10   25.10    7.52
   5  -8  11  198.32   22.71
   5  -8  12   75.55   13.64
   5  -7  -9   53.36   13.09
  -5   7   9   41.38   10.55
   5  -7  -8  173.58   23.58
  -5   7   8  170.22   22.03
   5  -7  -7   64.32   13.75
  -5   7   7   63.83   13.08
   5  -7  -6   40.81   11.51
  -5   7   6   32.79    9.45
   5  -7  -5  376.07   32.84
  -5   7   5  382.97   32.11
   5  -7  -4   82.94   14.57
   5  -7  -4   71.99    8.09
  -5   7   4   84.57   14.51
   5  -7  -3  343.24   29.81
   5  -7  -3  347.59   19.97
   5  -7  -2  167.87   19.86
   5  -7  -2  164.97   14.15
  -5   7   2  205.46   23.18
   5  -7  -1   13.19    4.63
   5  -7  -1   10.93    3.64
   5  -7   0   20.06    5.72
  -5   7   0   28.44    6.99
   5  -7   0   24.07    6.09
  -5   7   0   29.38    8.27
   5  -7   1  101.04   14.40
  -5   7  -1   99.28   12.20
   5  -7   1  104.22   12.73
   5  -7   1  130.97   10.62
  -5   7  -1  107.19   17.07
   5  -7   2   14.30    5.86
  -5   7  -2    5.43    3.07
   5  -7   2    7.24    3.84
   5  -7   2   15.47    4.00
  -5   7  -2   13.64    5.91
   5  -7   3  215.91   20.70
  -5   7  -3  229.78   18.33
   5  -7   3  229.61   20.61
  -5   7  -3  267.47   26.36
  -5   7  -3  246.45    9.13
  -5   7  -4   79.53    6.16
   5  -7   4   92.82   10.15
   5  -7   4   73.96   11.64
   5  -7   4   74.14   12.24
   5  -7   4   87.16   12.38
  -5   7  -4   77.79   11.58
  -5   7  -4   75.62   14.07
   5  -7   5    1.97    2.69
  -5   7  -5    1.14    0.92
   5  -7   5    3.62    3.07
  -5   7  -5   -0.03    1.23
   5  -7   5    7.57    3.89
  -5   7  -5    0.21    3.55
  -5   7  -6   71.37    7.40
   5  -7   6   68.02   12.26
   5  -7   6   68.02   11.72
  -5   7  -6   65.59   10.79
  -5   7  -7   17.78    4.01
   5  -7   7   20.01    6.27
   5  -7   7   19.74    6.05
  -5   7  -7   16.58    5.15
  -5   7  -8   18.08    4.20
   5  -7   8   18.26    7.79
   5  -7   8   11.21    5.00
  -5   7  -8   10.22    4.37
  -5   7  -9  207.34   16.37
   5  -7   9  218.82   21.41
  -5   7  -9  154.76   16.38
   5  -7   9  177.50   20.99
  -5   7 -10   36.78    7.47
   5  -7  10   38.02   10.47
   5  -7  10   37.38    9.67
  -5   7 -10   34.40    7.68
  -5   7 -11   31.48    7.79
   5  -7  11   24.24    8.16
   5  -7  11   22.06    5.54
  -5   7 -12    1.85    3.41
   5  -7  12   -5.46    6.17
  -5   7 -13   13.62    5.40
   5  -7  13   -1.16    4.28
   5  -6 -11   73.45   15.49
   5  -6 -10   52.27   13.63
  -5   6  10   60.29   12.05
   5  -6  -9   15.33    7.92
  -5   6   9   -1.27    3.86
   5  -6  -8  112.67   18.56
  -5   6   8   91.44   14.78
   5  -6  -8   89.41   11.90
   5  -6  -7   52.42   11.98
  -5   6   7   54.04   11.75
   5  -6  -6    7.73    6.36
   5  -6  -6    5.06    1.40
  -5   6   6    7.71    3.68
  -5   6   6    3.28    2.37
   5  -6  -5  464.12   34.06
   5  -6  -5  393.64   17.34
  -5   6   5  453.24   33.31
   5  -6  -4   51.55   11.26
  -5   6   4   43.74   10.11
   5  -6  -3  935.43   48.09
   5  -6  -3  845.40   31.64
  -5   6   3  917.21   30.84
  -5   6   3  961.48   50.48
   5  -6  -2  551.27   34.87
   5  -6  -2  491.33   23.80
   5  -6  -1   17.53    5.76
  -5   6   1   17.67    5.21
   5  -6  -1    8.25    3.74
  -5   6   1   14.38    6.14
   5  -6   0  231.13   21.10
   5  -6   0  227.01   16.95
  -5   6   0  240.91   19.46
  -5   6   0  319.80   28.09
   5  -6   0  296.69   17.91
  -5   6  -1  587.48   14.76
   5  -6   1  580.87   33.52
  -5   6  -1  549.80   29.86
   5  -6   1  537.74   28.02
  -5   6  -1  560.58   33.58
  -5   6  -1  547.19   15.04
  -5   6  -2    1.11    1.99
  -5   6  -2    7.36    1.40
   5  -6   2    7.39    3.25
  -5   6  -2    7.45    3.26
   5  -6   2   12.57    4.61
   5  -6   2   11.15    3.99
  -5   6  -2    1.26    2.59
  -5   6  -3 2671.61   63.29
   5  -6   3 2492.70   83.17
  -5   6  -3 3097.81   93.00
   5  -6   3 3155.69   80.56
  -5   6  -3 2574.58   82.15
   5  -6   3 2470.98   80.35
  -5   6  -3 2858.10   96.40
  -5   6  -4  232.34   12.04
   5  -6   4  240.91   19.79
   5  -6   4  217.17   19.16
  -5   6  -4  210.32   18.13
   5  -6   4  227.98   19.36
   5  -6   4  291.57   18.99
  -5   6  -4  222.68   20.85
  -5   6  -4  216.81   22.37
  -5   6  -5  109.31    8.65
   5  -6   5  103.93   13.16
  -5   6  -5   77.17    9.34
   5  -6   5  108.38   11.74
   5  -6   5   94.93   12.86
  -5   6  -5   77.29   11.98
  -5   6  -5   74.93   10.78
  -5   6  -6  120.28    9.98
   5  -6   6   94.61   13.02
   5  -6   6  121.83   14.50
  -5   6  -6   91.78   11.77
  -5   6  -6  117.20   14.14
  -5   6  -7   69.57    8.10
   5  -6   7   67.05   11.32
   5  -6   7   81.90   12.35
  -5   6  -7   73.10   10.62
  -5   6  -8   60.70    8.00
   5  -6   8   61.38   11.61
   5  -6   8   59.60   10.55
  -5   6  -8   58.51    9.50
  -5   6  -9  679.98   31.56
   5  -6   9  642.46   37.37
  -5   6  -9  594.46   31.85
   5  -6   9  644.76   37.93
  -5   6 -10   -0.17    3.13
  -5   6 -10    6.97    3.19
   5  -6  10    4.93    4.33
   5  -6  10    9.29    5.16
  -5   6 -11   57.73    9.25
  -5   6 -11   71.36   10.62
   5  -6  11   76.20   13.32
   5  -6  11   52.18   10.45
   5  -6  12   -3.56    4.78
  -5   6 -12    3.69    2.20
   5  -6  12    9.86    5.24
   5  -6  13    3.64    3.44
  -5   6 -13    3.61    2.27
   5  -6  13    3.08    3.54
   5  -6  14    5.33    3.27
  -5   6 -14    3.70    2.50
   5  -5 -12   -1.72    4.96
   5  -5 -11   63.51   13.58
   5  -5 -11   56.69   12.78
  -5   5  11   49.06   10.43
   5  -5 -10   31.01    9.45
   5  -5 -10   53.18   13.23
  -5   5  10   35.35    9.19
   5  -5  -9    3.41    4.81
   5  -5  -9    7.70    5.19
  -5   5   9    5.08    3.39
   5  -5  -8    0.20    2.02
   5  -5  -8   -1.96    4.69
  -5   5   8    1.72    2.44
   5  -5  -7   18.70    5.66
  -5   5   7   23.00    4.79
   5  -5  -7   30.45    9.26
  -5   5   7   25.71    6.24
  -5   5   7   14.25    5.22
  -5   5   6   92.94    9.53
   5  -5  -6   98.53   15.20
   5  -5  -6   94.51    6.16
  -5   5   6   88.63   11.11
  -5   5   6   98.81   14.06
   5  -5  -5  117.95   16.08
  -5   5   5  105.87    8.89
  -5   5   5  104.65    9.94
  -5   5   5  112.12   11.75
  -5   5   5  134.19   16.64
   5  -5  -5  101.95    7.38
  -5   5   4   10.59    2.68
   5  -5  -4   19.71    7.61
   5  -5  -4    9.40    2.48
  -5   5   4    8.22    4.84
  -5   5   3  189.31   10.49
   5  -5  -3  211.86   20.18
  -5   5   3  219.92   21.72
  -5   5   2   58.89    5.30
   5  -5  -2   64.99   10.08
  -5   5   2   66.16    8.90
  -5   5   2   72.50   10.45
  -5   5   2   59.70    6.84
   5  -5  -2   62.51   11.18
  -5   5   2   75.42   12.66
   5  -5  -1   37.31    7.78
   5  -5  -1   54.17    8.05
  -5   5   1   53.71    8.91
  -5   5   1   50.12    8.03
   5  -5  -1   43.00    5.88
   5  -5  -1   43.49    9.07
  -5   5   1   61.38   11.90
  -5   5   1   42.91    4.30
   5  -5   0  105.89   12.92
  -5   5   0   98.95   11.51
  -5   5   0   93.03   11.18
   5  -5   0   87.79    9.25
   5  -5   0  108.20   11.95
   5  -5   0  123.93   16.39
  -5   5   0   99.90   14.64
  -5   5   0  103.30    7.29
   5  -5   1  264.43   20.38
  -5   5  -1  266.37   19.17
  -5   5  -1  273.87   20.46
   5  -5   1  342.66   21.80
   5  -5   1  255.70   16.86
   5  -5   1  326.69   27.58
  -5   5  -1  312.03   26.04
  -5   5  -1  283.57   14.29
  -5   5  -2   24.21    6.35
   5  -5   2   23.37    5.55
  -5   5  -2   18.52    5.11
   5  -5   2   20.10    5.56
  -5   5  -2   24.41    5.65
   5  -5   2   27.90    6.38
   5  -5   2   29.24    8.32
  -5   5  -2   28.15    7.85
  -5   5  -3 1144.53   43.99
   5  -5   3 1073.37   44.53
  -5   5  -3 1069.58   43.31
   5  -5   3 1096.89   42.64
  -5   5  -3 1346.05   51.90
   5  -5   3 1294.43   45.66
   5  -5   3 1167.31   53.85
  -5   5  -3 1168.12   52.20
  -5   5  -4  265.65   18.31
   5  -5   4  246.64   18.84
   5  -5   4  234.69   18.01
  -5   5  -4  238.12   17.99
   5  -5   4  277.82   18.90
  -5   5  -4  282.00   21.62
   5  -5   4  229.27   17.97
  -5   5  -5  172.18   14.16
   5  -5   5  139.10   14.27
  -5   5  -5  150.20   13.02
  -5   5  -5  150.34   13.98
   5  -5   5  139.77   14.39
  -5   5  -5  159.53   15.26
  -5   5  -6   61.40    8.40
   5  -5   6   70.70   10.43
   5  -5   6   61.39    9.35
  -5   5  -6   58.02    8.51
  -5   5  -6   52.94    8.48
  -5   5  -7  131.60   12.27
  -5   5  -7  140.86   11.78
   5  -5   7  143.80   15.47
  -5   5  -7  137.43   13.55
   5  -5   7  148.38   15.55
  -5   5  -7  136.27   13.39
  -5   5  -8  310.47   19.12
  -5   5  -8  292.21   20.15
  -5   5  -8  271.28   19.54
   5  -5   8  297.70   22.58
   5  -5   8  300.80   22.84
  -5   5  -9 1296.47   46.70
  -5   5  -9 1182.38   46.79
   5  -5   9 1145.70   50.65
   5  -5   9 1351.92   35.05
   5  -5   9 1212.09   51.52
   5  -5  10   -0.35    2.02
  -5   5 -10    7.61    4.06
  -5   5 -10    3.96    2.78
   5  -5  10    6.53    1.76
  -5   5 -11  373.34   24.82
   5  -5  11  318.16   24.97
   5  -5  11  333.96   24.90
  -5   5 -11  353.68   23.22
  -5   5 -12  140.19   15.95
   5  -5  12  128.35   15.20
   5  -5  12  129.30   16.05
  -5   5 -12  134.07   14.29
  -5   5 -13   -3.99    4.46
   5  -5  13    6.47    3.29
   5  -5  13   -1.49    3.11
  -5   5 -14  187.22   19.84
   5  -5  14  157.42   18.47
   5  -5  14  161.31   18.13
  -5   5 -15  166.61   21.40
   5  -4 -13   81.33   18.44
   5  -4 -12    5.55    5.05
   5  -4 -12    8.64    4.80
  -5   4  12   -0.16    2.50
   5  -4 -11  270.86   26.49
  -5   4  11  277.31   25.01
   5  -4 -11  306.48   32.21
   5  -4 -10  111.28   18.41
   5  -4 -10   98.63   14.89
  -5   4  10   81.84   13.04
   5  -4  -9  166.77   19.34
  -5   4   9  159.55   17.54
   5  -4  -9  194.02   23.09
   5  -4  -8  242.96   22.88
  -5   4   8  230.40   20.68
   5  -4  -8  230.15   23.35
   5  -4  -7  147.78   17.04
  -5   4   7  101.75   10.85
  -5   4   7  113.75   10.64
  -5   4   7  114.92   14.21
   5  -4  -7  123.56   15.91
   5  -4  -6    6.07    2.33
  -5   4   6    4.97    2.61
  -5   4   6    6.37    3.08
   5  -4  -6   11.45    4.64
   5  -4  -6    8.38    1.73
  -5   4   6    7.61    4.05
  -5   4   6    5.79    2.95
  -5   4   5  337.97   18.47
   5  -4  -5  376.18   26.32
  -5   4   5  336.39   18.45
   5  -4  -5  348.52   13.99
  -5   4   5  325.61   22.02
  -5   4   5  342.37   24.97
  -5   4   4   29.61    5.05
  -5   4   4   33.08    5.08
   5  -4  -4   37.88    8.71
   5  -4  -4   30.07    4.11
  -5   4   4   31.38    6.13
   5  -4  -4   30.80    6.54
  -5   4   4   36.08    8.43
  -5   4   3  753.80   27.46
   5  -4  -3  778.61   37.27
   5  -4  -3  741.54   25.30
   5  -4  -3  730.70   35.17
  -5   4   3  703.97   39.16
   5  -4  -2  105.90   12.63
  -5   4   2  100.54   11.76
   5  -4  -2  103.57   12.90
  -5   4   2   95.41   13.81
  -5   4   2  105.62   12.94
  -5   4   2   89.33    8.13
  -5   4   1   29.88    4.68
  -5   4   1   32.34    6.49
   5  -4  -1   40.72    8.27
   5  -4  -1   30.90    6.37
  -5   4   1   43.46    6.69
  -5   4   1   37.09    6.58
   5  -4  -1   42.05    8.09
  -5   4   1   35.29    5.71
  -5   4   1   45.21    9.25
   5  -4   0  154.32   14.65
  -5   4   0  168.56   14.66
  -5   4   0  176.73   13.80
   5  -4   0  216.63   18.29
   5  -4   0  197.81   19.76
  -5   4   0  187.79   19.21
  -5   4   0  171.45   12.12
  -5   4   0  165.65   14.91
  -5   4  -1  125.51   12.58
   5  -4   1  126.18   10.60
   5  -4   1  133.38   13.23
  -5   4  -1  125.68   12.33
  -5   4  -1  138.30   12.93
   5  -4   1  155.26   15.06
   5  -4   1  141.81   17.17
  -5   4  -1  157.05   16.55
   5  -4   2    0.48    3.19
  -5   4  -2    3.33    2.98
   5  -4   2    4.57    2.84
   5  -4   2    0.32    1.93
  -5   4  -2    6.07    2.45
   5  -4   2    5.04    3.08
  -5   4  -2    6.55    3.18
  -5   4  -2   -0.07    2.59
  -5   4  -3  593.04   27.82
   5  -4   3  582.44   28.55
  -5   4  -3  571.58   27.45
   5  -4   3  552.53   26.13
  -5   4  -3  636.14   31.20
   5  -4   3  629.30   30.15
   5  -4   3  608.39   34.45
  -5   4  -3  581.63   31.89
  -5   4  -4   14.17    3.94
  -5   4  -4   14.20    4.03
   5  -4   4   17.16    4.43
   5  -4   4   14.11    3.52
   5  -4   4   13.68    4.66
  -5   4  -4   14.02    4.25
   5  -4   4   10.32    4.23
   5  -4   5    2.01    1.54
  -5   4  -5    2.52    2.54
   5  -4   5    3.07    1.99
  -5   4  -5    3.54    2.33
  -5   4  -5   -0.53    2.50
   5  -4   5    2.11    1.82
   5  -4   5    6.72    2.50
  -5   4  -5    1.89    2.42
  -5   4  -6  126.97   11.39
   5  -4   6  136.39    9.26
   5  -4   6  133.27   13.24
  -5   4  -6  125.48   11.99
   5  -4   6  112.93   12.08
  -5   4  -6  139.96   12.03
  -5   4  -7   65.85    8.14
  -5   4  -7   63.06    7.81
   5  -4   7   58.63    6.03
   5  -4   7   63.40    9.26
   5  -4   7   62.02    9.07
  -5   4  -7   63.45    8.62
  -5   4  -8    9.57    2.96
   5  -4   8   12.22    2.87
   5  -4   8    5.50    1.98
  -5   4  -8    9.91    2.90
   5  -4   8   13.80    4.02
  -5   4  -8   11.18    3.80
  -5   4  -9  340.53   21.42
  -5   4  -9  335.67   19.29
  -5   4  -9  314.08   18.42
   5  -4   9  372.86   16.24
   5  -4   9  332.73   22.58
  -5   4  -9  329.32   20.82
   5  -4   9  317.96   21.96
  -5   4 -10    0.92    1.60
  -5   4 -10    3.07    1.27
  -5   4 -10    4.67    2.98
   5  -4  10    3.37    2.51
   5  -4  10    3.53    1.58
   5  -4  10    5.93    3.11
  -5   4 -11   92.11   11.86
   5  -4  11   90.10   11.57
   5  -4  11   96.67    7.90
  -5   4 -11   94.55   11.28
   5  -4  11   82.88   11.68
  -5   4 -12   10.00    3.89
   5  -4  12    2.39    2.11
   5  -4  12    8.87    3.76
  -5   4 -13    1.57    2.34
  -5   4 -13    0.38    2.15
   5  -4  13    0.63    2.42
   5  -4  13    5.38    3.02
  -5   4 -14  133.61   16.75
   5  -4  14  119.29   14.61
   5  -4  14  105.68   14.23
   5  -4  15   88.38   12.85
  -5   4 -15  106.23   16.63
   5  -4  15  113.12   15.16
   5  -3 -13   79.01   18.80
  -5   3  13   58.79   11.64
   5  -3 -12    3.74    6.27
   5  -3 -12   -0.42    2.95
  -5   3  12    0.38    2.94
   5  -3 -11  159.36   17.40
   5  -3 -11  174.40   25.66
  -5   3  11  159.55   16.92
  -5   3  11  154.24   17.09
   5  -3 -10   65.13   15.31
   5  -3 -10   68.11   11.48
  -5   3  10   54.00   10.15
   5  -3  -9  154.36   16.67
   5  -3  -9  140.83   20.84
  -5   3   9  148.24   15.55
   5  -3  -8  178.57   17.39
  -5   3   8  160.91   13.36
  -5   3   8  147.23   15.46
   5  -3  -8  199.26   23.58
  -5   3   7  124.28   12.84
   5  -3  -7  136.16   15.02
  -5   3   7  132.83   11.63
  -5   3   7  120.47   13.45
   5  -3  -7  141.56   18.37
   5  -3  -6   22.38    7.19
  -5   3   6    8.69    2.91
  -5   3   6   11.30    3.29
   5  -3  -6   19.87    6.13
  -5   3   6   13.50    4.57
  -5   3   6    3.88    2.36
  -5   3   5  899.96   36.14
   5  -3  -5  964.20   40.73
  -5   3   5  896.35   33.27
   5  -3  -5  909.20   27.11
  -5   3   5  932.77   40.47
  -5   3   5  867.79   41.26
  -5   3   5  996.97   49.23
   5  -3  -5  943.07   45.09
  -5   3   4    1.53    2.14
  -5   3   4    6.56    3.98
  -5   3   4    2.63    1.75
   5  -3  -4    0.95    1.78
  -5   3   4    1.92    0.92
   5  -3  -4    1.25    1.23
  -5   3   4    2.18    2.13
   5  -3  -4    0.73    1.66
  -5   3   4   -0.36    3.61
   5  -3  -3 1855.84   60.33
  -5   3   3 1745.27   52.29
  -5   3   3 1872.75   61.41
  -5   3   3 1876.05   48.40
  -5   3   3 1870.76   60.88
   5  -3  -3 1837.32   57.47
  -5   3   3 1883.27   66.02
   5  -3  -3 1847.07   48.28
  -5   3   3 1989.82   66.49
  -5   3   3 1863.32   56.16
   5  -3  -2  525.90   27.19
   5  -3  -2  532.14   26.82
  -5   3   2  565.54   28.34
  -5   3   2  563.70   20.92
   5  -3  -2  549.75   20.78
   5  -3  -2  632.96   35.43
  -5   3   2  564.90   32.84
  -5   3   2  598.02   30.50
  -5   3   2  568.25   25.94
  -5   3   1    4.54    3.03
  -5   3   1    0.72    1.22
   5  -3  -1   -1.32    2.38
  -5   3   1    4.21    2.54
  -5   3   1    1.17    0.79
   5  -3  -1   -0.18    2.23
   5  -3  -1    1.06    2.54
  -5   3   1    1.15    2.24
  -5   3   0  122.75   12.00
   5  -3   0  110.42   11.10
  -5   3   0  123.54   10.09
  -5   3   0  108.34   11.16
  -5   3   0  108.28   10.53
  -5   3   0  114.53    8.76
   5  -3   0  133.05   15.05
   5  -3   0   91.17   12.20
  -5   3   0  107.23   12.99
  -5   3   0  118.43   11.53
  -5   3  -1  792.55   32.70
  -5   3  -1  763.48   32.54
  -5   3  -1  747.48   29.37
  -5   3  -1  801.89   28.35
   5  -3   1  880.11   39.96
   5  -3   1  837.07   41.46
  -5   3  -1  792.91   36.36
  -5   3  -2  317.83   18.84
   5  -3   2  300.45   18.46
   5  -3   2  331.04   17.01
  -5   3  -2  293.62   17.61
  -5   3  -2  328.22   19.25
  -5   3  -2  352.36   17.29
   5  -3   2  319.92   21.64
   5  -3   2  298.06   16.54
   5  -3   2  322.09   23.90
  -5   3  -2  330.10   20.91
  -5   3  -3 2891.53   76.60
   5  -3   3 2722.63   81.47
   5  -3   3 2845.85   72.07
  -5   3  -3 2538.35   74.50
  -5   3  -3 3070.54   80.02
   5  -3   3 2766.12   74.24
  -5   3  -3 2954.45   74.29
   5  -3   3 2782.02   83.90
  -5   3  -4  110.08   10.32
  -5   3  -4  113.77   10.00
   5  -3   4  117.81    9.13
  -5   3  -4   99.77   10.04
   5  -3   4   99.24    9.70
   5  -3   4  100.76   11.37
  -5   3  -4  103.93    9.73
   5  -3   4   92.54   11.13
  -5   3  -5   69.87    7.90
   5  -3   5   68.51    6.79
   5  -3   5   61.54    7.35
  -5   3  -5   59.67    7.82
  -5   3  -5   64.40    7.84
   5  -3   5   64.23    7.96
  -5   3  -5   32.88    6.31
  -5   3  -5   64.24    6.96
   5  -3   5   58.02    8.29
   5  -3   6   13.74    4.11
  -5   3  -6   29.99    4.40
  -5   3  -6   29.06    5.17
   5  -3   6   31.39    4.57
  -5   3  -6   28.47    5.33
   5  -3   6   25.51    5.24
   5  -3   6   31.15    5.85
  -5   3  -6   25.98    5.30
  -5   3  -7   99.71    9.66
  -5   3  -7   89.68    7.88
   5  -3   7  100.57    8.37
  -5   3  -7   82.84    9.34
   5  -3   7   87.49    9.80
   5  -3   7   77.12    9.44
   5  -3   7   84.03   10.17
   5  -3   8  120.05   11.50
  -5   3  -8  129.82   11.28
  -5   3  -8  118.07    9.30
   5  -3   8  142.28   10.27
   5  -3   8  121.45   12.32
  -5   3  -8  120.04   11.52
  -5   3  -9  518.89   24.34
  -5   3  -9  486.14   21.25
   5  -3   9  500.57   26.65
   5  -3   9  543.90   22.14
  -5   3  -9  490.75   25.48
   5  -3   9  506.50   25.60
  -5   3 -10   15.65    4.44
  -5   3 -10   11.48    3.05
   5  -3  10    9.11    2.94
   5  -3  10   10.17    2.82
   5  -3  10   14.08    4.80
  -5   3 -11   34.57    6.83
  -5   3 -11   29.81    6.55
   5  -3  11   28.89    6.09
   5  -3  11   41.28    5.87
   5  -3  11   32.69    7.18
  -5   3 -12   13.16    4.69
  -5   3 -12   13.66    4.62
   5  -3  12    8.03    3.28
   5  -3  12   17.82    4.27
   5  -3  12    6.25    2.69
  -5   3 -13   14.94    5.22
  -5   3 -13    9.09    2.97
   5  -3  13   16.85    5.34
   5  -3  13   21.39    4.62
   5  -3  13   13.79    4.91
  -5   3 -14   33.64    8.74
  -5   3 -14   18.39    5.12
   5  -3  14   32.07    7.06
   5  -3  14   23.15    6.31
  -5   3 -15   25.54    7.98
  -5   3 -15   16.78    5.44
   5  -3  15   21.27    6.95
   5  -3  15   20.89    5.92
   5  -3  16   29.84    7.47
  -5   2  13   31.66    7.82
   5  -2 -12   11.93    7.27
  -5   2  12   12.27    4.47
   5  -2 -11   96.45   20.05
   5  -2 -11   80.16   11.08
  -5   2  11   76.65   11.63
  -5   2  11   65.88   10.94
   5  -2 -10   13.50    7.99
  -5   2  10    7.31    4.21
   5  -2 -10    3.46    2.67
  -5   2  10    8.69    4.52
   5  -2  -9   51.69   12.97
  -5   2   9   34.34    7.14
   5  -2  -9   37.09    6.92
  -5   2   9   30.72    6.75
   5  -2  -8    3.70    4.25
  -5   2   8    8.28    3.01
   5  -2  -8    3.72    1.84
  -5   2   8   10.81    4.05
   5  -2  -7  101.29   11.17
  -5   2   7  113.96   10.88
  -5   2   7  118.20   17.13
  -5   2   7  122.07    5.68
  -5   2   7  108.54   11.88
   5  -2  -7  144.83   20.09
  -5   2   6  114.14   12.53
   5  -2  -6  118.22   11.79
  -5   2   6  114.96   10.47
  -5   2   6  113.13    6.54
  -5   2   6   92.89   13.56
  -5   2   6  118.94   11.91
  -5   2   6  109.68   16.19
   5  -2  -6  121.03   17.35
  -5   2   5  194.30   16.22
   5  -2  -5  209.35   15.73
  -5   2   5  195.94   13.46
  -5   2   5  194.87    9.34
  -5   2   5  186.91   18.66
   5  -2  -5  186.47   10.57
  -5   2   5  169.61   14.48
  -5   2   5  199.53   19.76
   5  -2  -5  184.51   20.00
  -5   2   4   19.24    5.27
  -5   2   4   15.25    5.24
  -5   2   4   15.69    3.49
   5  -2  -4   16.47    4.47
  -5   2   4   17.07    4.92
  -5   2   4   13.99    2.56
   5  -2  -4   15.70    2.99
  -5   2   4   15.76    5.29
  -5   2   4   14.18    3.89
   5  -2  -3  828.97   33.39
  -5   2   3  816.13   30.47
  -5   2   3  869.09   26.40
  -5   2   3  878.51   37.65
  -5   2   3  838.00   35.50
   5  -2  -3  902.78   27.44
  -5   2   3  849.92   38.85
   5  -2  -3  854.79   30.79
  -5   2   3  866.46   38.06
  -5   2   3  851.88   36.66
   5  -2  -2  158.87   12.63
  -5   2   2  164.03   11.31
  -5   2   2  158.39   13.53
  -5   2   2  174.89    9.81
   5  -2  -2  143.49   17.54
   5  -2  -2  159.34    9.86
   5  -2  -2  156.12   11.51
  -5   2   2  159.30   15.35
  -5   2   2  173.22   15.14
  -5   2   2  156.17   13.87
  -5   2   1   71.79    8.90
   5  -2  -1   86.80    9.15
  -5   2   1   80.78    6.78
  -5   2   1   81.49    9.36
  -5   2   1   76.40    8.10
   5  -2  -1   79.48    6.95
   5  -2  -1   82.16   12.77
   5  -2  -1   81.40    9.07
  -5   2   1   85.72   10.69
  -5   2   1   71.92    9.85
  -5   2   0   29.03    4.12
  -5   2   0   30.46    6.35
  -5   2   0   29.69    5.31
   5  -2   0   31.59    5.97
  -5   2   0   34.17    5.86
   5  -2   0   29.05    7.23
  -5   2   0   26.21    4.86
   5  -2   0   29.29    5.72
  -5   2   0   34.81    6.12
  -5   2  -1  595.06   25.87
   5  -2   1  604.13   25.00
  -5   2  -1  590.69   21.83
  -5   2  -1  591.28   22.48
   5  -2   1  601.25   32.81
   5  -2   1  563.56   31.14
  -5   2  -1  575.80   26.33
  -5   2  -2  147.31   11.65
   5  -2   2  150.34   11.21
  -5   2  -2  155.53   10.67
  -5   2  -2  135.91    9.96
   5  -2   2  122.80   13.27
  -5   2  -2  158.01   12.23
   5  -2   2  155.02   15.07
  -5   2  -3 2901.86   76.09
   5  -2   3 2998.25   74.63
  -5   2  -3 3036.63   74.07
   5  -2   3 2894.39   74.02
  -5   2  -3 2750.26   73.01
   5  -2   3 2756.03   82.85
   5  -2   3 2784.48   79.72
  -5   2  -4  182.85   12.93
   5  -2   4  185.74   12.11
  -5   2  -4  170.29   12.57
  -5   2  -4  188.81   12.57
   5  -2   4  174.08   15.04
  -5   2  -4  177.92   10.17
   5  -2   4  166.72   13.47
  -5   2  -5  268.27   15.90
   5  -2   5  250.59   14.46
   5  -2   5  235.05   12.19
  -5   2  -5  237.93   15.21
  -5   2  -5  254.82   15.41
   5  -2   5  234.84   15.72
  -5   2  -5  233.65   10.91
  -5   2  -6  473.28   21.74
  -5   2  -6  436.55   15.77
   5  -2   6  465.50   20.60
   5  -2   6  482.30   21.44
   5  -2   6  409.93   19.72
  -5   2  -6  458.37   22.14
  -5   2  -6  414.94   21.34
   5  -2   6  425.84   21.65
   5  -2   6  424.57   22.28
  -5   2  -7  185.42   13.23
  -5   2  -7  171.69    9.22
   5  -2   7  179.81   12.36
   5  -2   7  176.63   12.50
  -5   2  -7  186.32   13.88
  -5   2  -7  179.11   13.72
   5  -2   7  173.83   13.41
   5  -2   7  175.53   12.48
   5  -2   7  186.90   14.40
  -5   2  -8  638.93   27.30
   5  -2   8  637.61   28.63
  -5   2  -8  626.14   21.64
   5  -2   8  668.67   26.55
   5  -2   8  673.41   26.87
  -5   2  -8  628.05   28.30
   5  -2   8  616.22   25.78
   5  -2   9 1265.01   41.13
   5  -2   9 1191.15   40.32
   5  -2   9 1215.76   43.57
   5  -2   9 1210.85   40.31
  -5   2  -9 1249.65   44.21
  -5   2 -10   18.14    4.75
   5  -2  10   15.14    4.46
   5  -2  10   15.70    3.96
   5  -2  10   13.53    3.54
   5  -2  10   14.70    3.90
   5  -2  11  439.73   25.11
  -5   2 -11  505.52   26.66
   5  -2  11  487.54   23.83
   5  -2  11  481.29   23.11
   5  -2  11  452.17   23.15
  -5   2 -12  167.31   17.43
   5  -2  12  195.98   14.95
  -5   2 -12  197.55   17.12
   5  -2  12  192.76   15.17
   5  -2  12  195.04   16.31
  -5   2 -13    3.56    3.34
  -5   2 -13    1.11    2.10
   5  -2  13    5.19    3.27
   5  -2  13    8.56    4.23
   5  -2  13    3.19    2.39
  -5   2 -14  201.63   21.34
   5  -2  14  253.76   17.95
   5  -2  14  215.36   18.39
  -5   2 -14  238.56   20.40
   5  -2  14  209.73   17.14
  -5   2 -15   40.49    9.80
  -5   2 -15   36.61    8.30
   5  -2  15   44.85    8.76
   5  -2  15   41.20    7.78
   5  -2  16   65.99   10.67
  -5   1  13  130.45   16.00
   5  -1 -12   -1.95    3.63
  -5   1  12   -1.34    3.10
  -5   1  12    1.68    3.72
   5  -1 -11  243.34   17.31
  -5   1  11  274.92   22.37
  -5   1  11  229.27   19.85
   5  -1 -11  275.31   34.52
   5  -1 -10    6.01    6.09
  -5   1  10    7.42    4.09
   5  -1 -10    5.75    3.13
  -5   1  10    6.92    2.59
  -5   1  10    3.12    1.83
   5  -1  -9  220.64   16.23
  -5   1   9  256.98   19.59
  -5   1   9  226.58   17.97
  -5   1   9  273.33   23.50
   5  -1  -9  287.90   32.13
   5  -1  -8  156.81   21.95
   5  -1  -8  133.69   11.84
  -5   1   8  144.09   13.66
  -5   1   8  136.02    6.59
  -5   1   8  137.47   13.10
  -5   1   8  140.70   17.24
   5  -1  -7   59.77   13.49
  -5   1   7   64.96   12.12
  -5   1   7   67.01    8.40
   5  -1  -7   59.89    7.87
  -5   1   7   59.54    4.68
  -5   1   7   62.85    8.47
  -5   1   7   63.32    8.39
   5  -1  -6   12.59    5.26
  -5   1   6   12.19    4.69
  -5   1   6   21.35    6.85
  -5   1   6   10.48    3.38
   5  -1  -6   17.61    4.15
  -5   1   6   16.34    2.58
  -5   1   6   14.90    4.24
  -5   1   6   17.37    4.49
  -5   1   5  398.42   26.15
   5  -1  -5  389.80   19.97
  -5   1   5  360.20   19.50
  -5   1   5  390.74   19.14
  -5   1   5  372.06   28.44
  -5   1   5  374.42   20.13
  -5   1   5  386.79   14.76
  -5   1   5  397.93   26.58
   5  -1  -5  412.72   32.81
   5  -1  -4   14.91    5.70
  -5   1   4   19.91    5.74
  -5   1   4   22.98    6.02
  -5   1   4   14.17    3.38
   5  -1  -4   16.46    3.81
  -5   1   4   16.23    4.34
  -5   1   4   12.79    2.38
   5  -1  -4   13.69    3.04
  -5   1   4   14.44    5.28
  -5   1   4   12.71    3.10
  -5   1   4   13.42    3.51
   5  -1  -3  707.08   24.65
  -5   1   3  724.24   27.64
  -5   1   3  687.19   30.77
  -5   1   3  696.36   26.84
  -5   1   3  719.37   23.10
  -5   1   3  652.02   35.76
  -5   1   3  733.96   30.32
  -5   1   3  745.76   36.31
  -5   1   3  710.09   32.02
  -5   1   2   -0.30    2.44
  -5   1   2    2.00    1.56
  -5   1   2    5.26    3.14
  -5   1   2    8.02    1.78
   5  -1  -2    1.47    2.32
   5  -1  -2    4.29    2.27
  -5   1   2    3.86    2.77
   5  -1  -2    7.36    2.14
  -5   1   2    8.92    2.83
  -5   1   2    4.41    2.70
  -5   1   1   91.11    9.32
  -5   1   1  105.49    8.87
   5  -1  -1  100.43    9.99
  -5   1   1   94.37    8.46
  -5   1   1   99.63    7.44
   5  -1  -1   92.78   14.03
   5  -1  -1   92.45    7.42
  -5   1   1  103.75   10.33
   5  -1  -1   93.56    7.51
  -5   1   1   83.99   11.43
  -5   1   0  565.37   24.25
   5  -1   0  530.97   24.18
  -5   1   0  545.22   22.55
  -5   1   0  555.57   20.62
   5  -1   0  530.83   33.55
   5  -1   0  556.10   23.05
  -5   1   0  562.26   23.19
  -5   1   0  481.28   28.88
  -5   1  -1  205.28   13.43
   5  -1   1  193.43   13.27
  -5   1  -1  194.79   11.39
   5  -1   1  206.08   18.69
   5  -1   1  181.15   14.62
  -5   1  -1  201.40   11.61
  -5   1  -2  149.42   11.30
   5  -1   2  128.46   13.72
   5  -1   2  147.54   11.46
  -5   1  -2  148.18    8.18
  -5   1  -2  153.67   10.15
   5  -1   2  126.27   11.69
  -5   1  -3  549.57   23.08
   5  -1   3  541.92   23.36
   5  -1   3  568.26   22.91
  -5   1  -3  509.26   17.54
   5  -1   3  518.35   27.75
  -5   1  -3  548.30   21.83
   5  -1   3  508.53   23.06
  -5   1  -4    1.10    0.55
  -5   1  -4   -2.06    2.16
  -5   1  -4    2.10    1.77
   5  -1   4    0.75    1.05
   5  -1   4    0.69    2.02
   5  -1   4    4.24    2.23
   5  -1   4    3.07    1.52
  -5   1  -5    3.29    2.21
   5  -1   5   -0.25    1.29
  -5   1  -5    1.46    0.84
  -5   1  -5    2.31    0.72
   5  -1   5    4.05    2.10
   5  -1   5    1.24    1.84
  -5   1  -6   16.19    3.94
   5  -1   6   21.51    4.38
  -5   1  -6   17.58    4.01
   5  -1   6   18.82    4.27
   5  -1   6   16.19    2.61
   5  -1   6   18.89    3.65
   5  -1   7  116.14   10.31
   5  -1   7  102.37    9.39
  -5   1  -7  110.08   10.17
   5  -1   7  112.23   10.17
  -5   1  -7  107.99   10.21
   5  -1   7  114.50    8.09
   5  -1   8  173.48   13.23
   5  -1   8  206.53   14.34
   5  -1   8  183.38   12.94
  -5   1  -8  206.19   14.42
  -5   1  -8  166.54   13.58
   5  -1   8  188.84   11.12
   5  -1   9  447.97   19.14
   5  -1   9  488.16   23.90
   5  -1   9  479.25   22.53
  -5   1  -9  442.73   23.86
   5  -1   9  439.12   22.71
  -5   1 -10    5.15    2.76
   5  -1  10   11.32    3.29
   5  -1  10    9.80    3.54
   5  -1  10    7.92    2.16
   5  -1  10   10.47    2.97
  -5   1 -11  215.54   16.90
   5  -1  11  206.25   16.12
   5  -1  11  222.32   16.08
   5  -1  11  189.59   13.20
   5  -1  12  181.53   15.71
   5  -1  12  182.17   15.05
  -5   1 -12  180.75   16.24
   5  -1  12  171.57   13.07
  -5   1 -13    1.20    3.37
  -5   1 -13    9.77    4.88
   5  -1  13    0.65    4.34
   5  -1  13    7.17    3.69
   5  -1  13    1.58    1.54
  -5   1 -14  203.58   21.70
   5  -1  14  242.92   19.55
   5  -1  14  223.38   17.73
  -5   1 -14  214.54   19.72
   5  -1  14  211.56   16.36
  -5   1 -15   52.94   10.96
   5  -1  15   68.70    9.92
  -5   1 -15   51.10   10.34
   5  -1  15   55.94    8.54
   5  -1  15   70.88   10.66
   5  -1  16  123.30   13.56
  -5   1 -16  121.15   17.43
  -5   0  13   89.20   12.79
  -5   0  12    4.70    4.21
  -5   0  12   -1.70    3.21
  -5   0  11  350.86   25.62
  -5   0  11  315.08   22.60
   5   0 -10   36.65   13.11
   5   0 -10   30.15    5.17
  -5   0  10   29.36    6.82
  -5   0  10   23.01    5.46
  -5   0  10   35.03    5.01
   5   0  -9  352.14   18.62
  -5   0   9  394.58   24.76
  -5   0   9  391.16   18.11
  -5   0   9  336.58   21.12
   5   0  -9  433.32   40.44
   5   0  -8  260.04   15.38
  -5   0   8  282.38   19.82
  -5   0   8  291.05   15.19
  -5   0   8  260.60   12.04
  -5   0   8  255.42   17.06
  -5   0   8  287.38   22.40
   5   0  -8  312.88   32.53
  -5   0   7  503.62   25.50
  -5   0   7  510.12   21.07
  -5   0   7  450.60   22.67
  -5   0   7  475.76   17.81
  -5   0   7  508.15   31.57
   5   0  -7  554.42   42.30
   5   0  -6  103.80   17.63
  -5   0   6   83.21    9.25
  -5   0   6  102.72   10.31
  -5   0   6   95.19    8.20
  -5   0   6   91.35    6.92
  -5   0   6   92.59    8.86
  -5   0   6   92.13   12.53
  -5   0   5  933.16   34.47
  -5   0   5  959.88   34.21
  -5   0   5  917.93   37.18
  -5   0   5  937.12   30.84
  -5   0   5  932.56   28.37
  -5   0   5  845.01   46.98
  -5   0   5  902.68   31.73
   5   0  -5  973.41   54.24
  -5   0   5  942.94   40.92
  -5   0   5  883.44   44.10
   5   0  -4   83.44   14.21
  -5   0   4   86.05   12.47
  -5   0   4   80.29    8.55
  -5   0   4   78.52    7.89
  -5   0   4   77.12    9.11
  -5   0   4   85.71    7.77
  -5   0   4   82.92    6.77
  -5   0   4   81.12   12.61
  -5   0   4   78.72    7.58
  -5   0   4   80.97    9.71
  -5   0   3 2272.27   66.57
  -5   0   3 2337.13   63.12
  -5   0   3 2387.10   60.81
  -5   0   3 2271.82   66.70
  -5   0   3 2407.28   60.82
  -5   0   3 2339.68   58.19
   5   0  -3 2305.03   60.58
  -5   0   3 2202.58   78.63
  -5   0   3 2365.25   62.18
  -5   0   2  455.62   22.13
  -5   0   2  495.88   21.50
  -5   0   2  496.93   19.06
  -5   0   2  485.78   23.62
  -5   0   2  497.34   20.15
   5   0  -2  487.75   20.15
  -5   0   2  448.01   29.19
  -5   0   2  488.79   18.87
  -5   0   2  462.05   21.61
   5   0  -2  420.37   32.85
  -5   0   2  399.09   28.20
  -5   0   1   23.59    3.42
  -5   0   1   22.82    6.38
  -5   0   1   20.25    3.72
   5   0  -1   28.38    5.24
   5   0  -1   25.18    2.80
   5   0  -1   16.35    6.42
  -5   0   1   28.94    6.87
  -5   0   1   27.04    4.16
  -5   0   1   25.84    4.29
  -5   0   1   25.69    3.46
  -5   0   0  245.78   14.52
  -5   0   0  276.10   11.08
   5   0   0  256.30   16.12
  -5   0   0  259.29   14.02
   5   0   0  280.42   23.60
   5   0   0  248.07   10.72
  -5   0   0  261.44   10.87
  -5   0   0  258.14   13.17
  -5   0  -1  591.48   22.22
  -5   0  -1  601.31   23.98
  -5   0  -1  575.12   16.91
   5   0   1  573.11   25.39
   5   0   1  610.41   23.71
  -5   0  -1  573.04   22.92
   5   0   1  630.97   34.08
   5   0   1  543.28   22.68
  -5   0  -2  452.84   20.00
  -5   0  -2  426.64   12.10
   5   0   2  436.09   21.41
   5   0   2  432.88   19.53
   5   0   2  413.73   25.91
   5   0   2  428.71   19.21
  -5   0  -2  460.30   19.13
   5   0   3 1702.74   58.37
   5   0   3 1790.14   52.91
   5   0   3 1827.07   50.22
  -5   0  -3 1746.06   48.93
   5   0   3 1695.03   47.18
   5   0   4    3.87    1.75
  -5   0  -4    7.28    2.49
   5   0   4   10.31    4.30
   5   0   4    4.85    1.39
   5   0   4    8.30    2.51
   5   0   5   31.98    5.79
  -5   0  -5   31.78    4.87
   5   0   5   27.75    6.20
   5   0   5   24.92    4.33
  -5   0  -6   17.01    3.89
   5   0   6   13.84    3.41
   5   0   6   14.67    3.87
  -5   0  -6   10.42    2.65
   5   0   6   19.36    3.91
   5   0   7   86.84    9.68
   5   0   7   89.62    8.73
  -5   0  -7   85.77    8.79
  -5   0  -7   82.48    9.03
   5   0   7   82.45    8.33
   5   0   7   80.31    5.32
   5   0   8  153.27   13.40
   5   0   8  143.21   11.59
  -5   0  -8  151.87   12.17
   5   0   8  160.74   12.05
  -5   0  -8  139.21   12.26
   5   0   8  143.18    8.02
  -5   0  -9   34.41    6.62
   5   0   9   39.55    7.21
  -5   0  -9   36.29    6.20
   5   0   9   37.79    6.22
   5   0   9   34.87    4.10
   5   0   9   28.35    5.15
  -5   0 -10   62.92    8.65
   5   0  10   65.28    8.03
   5   0  10   65.09    9.44
   5   0  10   57.38    7.37
   5   0  10   57.38    6.02
   5   0  11   39.51    5.45
  -5   0 -11   40.87    7.06
   5   0  11   29.66    6.34
   5   0  11   37.28    6.36
  -5   0 -12   51.32    8.81
   5   0  12   36.72    7.08
   5   0  12   47.29    7.25
   5   0  12   48.87    6.50
   5   0  13    2.66    2.44
  -5   0 -13    0.83    2.16
   5   0  13   -0.12    1.73
  -5   0 -14   57.46   11.40
   5   0  14   48.68    7.48
  -5   0 -14   39.24    8.57
   5   0  14   42.54    7.15
   5   0  15    5.69    2.83
  -5   0 -15    3.11    4.89
  -5   0 -15    2.17    3.03
   5   0  15    5.57    3.15
  -5   0 -16   28.98    8.46
  -5   0 -16   28.79    8.43
   5   0  16   20.32    6.13
   5   0  16   22.00    5.36
   5   1 -12   18.86    9.96
  -5  -1  12   12.33    4.38
   5   1 -11   55.92   16.88
   5   1 -11   37.22    7.11
  -5  -1  11   57.02    9.87
  -5  -1  11   38.50    7.34
   5   1 -10    1.18    6.58
   5   1 -10   12.84    4.08
  -5  -1  10   10.96    4.05
  -5  -1  10   16.80    5.86
   5   1  -9  121.68   21.02
   5   1  -9   84.64   10.02
  -5  -1   9  104.88   12.45
  -5  -1   9   95.61    7.13
  -5  -1   9   81.47    9.66
   5   1  -8   19.59    7.43
  -5  -1   8   16.77    4.41
  -5  -1   8   14.68    3.73
   5   1  -8   24.04    5.06
  -5  -1   8   15.66    3.29
  -5  -1   8   15.48    4.43
  -5  -1   8   15.42    2.84
   5   1  -7   78.40   15.76
   5   1  -7   73.45    8.68
  -5  -1   7   64.28    9.48
  -5  -1   7   69.43    8.90
  -5  -1   7   74.58    6.44
  -5  -1   7   68.97    6.64
  -5  -1   7   57.52    7.24
   5   1  -6   57.21   12.37
  -5  -1   6   36.93    7.09
   5   1  -6   45.19    6.66
  -5  -1   6   41.65    6.54
  -5  -1   6   42.58    4.93
  -5  -1   6   44.82    5.37
  -5  -1   6   48.96    5.91
   5   1  -5  393.03   20.52
  -5  -1   5  403.79   21.53
  -5  -1   5  426.64   21.04
  -5  -1   5  432.52   23.18
  -5  -1   5  438.07   17.49
  -5  -1   5  405.45   17.88
  -5  -1   5  393.82   17.57
   5   1  -5  490.59   37.85
  -5  -1   5  429.48   24.30
  -5  -1   4  154.74   10.18
   5   1  -4  135.13   11.10
  -5  -1   4  146.05   11.84
  -5  -1   4  151.86   11.11
  -5  -1   4  136.39   12.23
  -5  -1   4  144.13    9.36
  -5  -1   4  125.09   16.62
  -5  -1   4  143.85    9.20
   5   1  -4  147.83   20.13
  -5  -1   4  135.73   16.85
  -5  -1   4  140.87   12.23
  -5  -1   3 1150.27   39.26
   5   1  -3 1135.08   38.25
  -5  -1   3 1203.16   39.56
  -5  -1   3 1176.29   36.78
  -5  -1   3 1200.37   41.76
  -5  -1   3 1168.12   35.83
  -5  -1   3 1219.67   35.07
  -5  -1   3 1120.43   53.01
  -5  -1   3 1233.93   33.82
  -5  -1   3 1020.10   50.62
  -5  -1   2  180.66   12.25
  -5  -1   2  188.95   12.71
  -5  -1   2  182.02   10.85
  -5  -1   2  194.54   11.65
   5   1  -2  200.28   15.09
  -5  -1   2  193.70   14.12
  -5  -1   2  203.70   11.42
   5   1  -2  172.49   20.30
  -5  -1   2  173.05   18.32
  -5  -1   2  188.80   10.16
  -5  -1   2  139.17   16.85
  -5  -1   1   20.67    6.08
  -5  -1   1   22.41    3.97
   5   1  -1   20.56    4.60
  -5  -1   1   24.23    3.94
  -5  -1   1   19.39    4.39
   5   1  -1   25.78    7.18
  -5  -1   1   23.91    1.83
  -5  -1   1   24.21    3.48
  -5  -1   1   18.10    3.44
  -5  -1   0  244.68   13.71
  -5  -1   0  224.97   10.59
   5   1   0  247.45   16.35
   5   1   0  252.64   13.88
  -5  -1   0  242.38   13.09
   5   1   0  268.63   23.17
  -5  -1   0  244.50   13.45
  -5  -1   0  192.91   18.90
  -5  -1  -1  803.55   28.35
   5   1   1  790.48   32.00
   5   1   1  834.64   28.62
  -5  -1  -1  801.03   27.79
   5   1   1  785.90   39.79
  -5  -1  -1  850.05   28.62
   5   1   1  818.78   20.84
  -5  -1  -1  787.11   22.54
   5   1   2  651.57   28.07
   5   1   2  638.75   24.61
  -5  -1  -2  681.93   24.88
  -5  -1  -2  665.39   24.60
   5   1   2  650.60   33.18
  -5  -1  -2  597.19   17.51
   5   1   2  650.32   20.59
   5   1   3 2635.11   72.85
   5   1   3 2687.84   68.41
   5   1   3 2546.38   77.49
   5   1   3 2540.84   61.59
  -5  -1  -3 2722.57   68.05
   5   1   4   79.51    9.12
   5   1   4   85.61    8.21
  -5  -1  -4   76.36    7.69
   5   1   4   69.16    8.93
   5   1   5  445.70   23.67
   5   1   5  449.43   20.93
  -5  -1  -5  458.80   20.81
   5   1   5  430.91   24.11
   5   1   5  435.89   19.94
   5   1   6 1028.05   39.94
   5   1   6 1030.19   36.01
  -5  -1  -6 1100.09   36.07
   5   1   6  975.55   33.94
  -5  -1  -6 1039.01   37.12
   5   1   7   66.66    9.25
   5   1   7   70.92    8.08
  -5  -1  -7   73.94    8.00
  -5  -1  -7   67.66    8.21
   5   1   7   64.27    7.31
   5   1   7   65.67    3.90
   5   1   8  662.00   19.91
   5   1   8  708.82   33.82
  -5  -1  -8  727.21   29.05
   5   1   8  717.35   29.21
   5   1   8  636.46   26.67
  -5  -1  -8  686.74   30.11
   5   1   9  858.17   26.17
   5   1   9  889.40   40.11
  -5  -1  -9  942.83   34.87
   5   1   9  927.27   35.09
   5   1   9  865.55   32.68
  -5  -1  -9  897.87   36.67
   5   1  10   49.70    5.23
  -5  -1 -10   35.31    6.84
  -5  -1 -10   52.26    7.40
   5   1  10   45.84    6.79
   5   1  11  398.18   17.96
  -5  -1 -11  435.75   25.81
   5   1  11  397.01   21.25
   5   1  12  276.61   15.61
   5   1  12  294.80   18.23
  -5  -1 -12  271.99   21.29
   5   1  13    2.71    1.73
  -5  -1 -13    3.70    3.16
   5   1  13    1.54    1.84
   5   1  14  120.59   11.81
   5   1  14  137.09   12.79
  -5  -1 -14  120.64   15.40
  -5  -1 -15    2.76    3.75
  -5  -1 -15   -1.37    5.15
   5   1  15    2.07    2.25
  -5  -1 -15   -1.27    3.71
   5   1  15    0.75    1.68
  -5  -1 -16   71.38   14.08
  -5  -1 -16   70.82   14.11
  -5  -1 -17   75.35   15.39
   5   2 -13   90.79   12.25
   5   2 -12    0.17    2.22
  -5  -2  12   -1.08    2.65
  -5  -2  11  231.16   21.11
   5   2 -11  201.78   18.14
  -5  -2  11  217.01   17.71
   5   2 -10   10.01    3.35
  -5  -2  10    8.10    4.39
  -5  -2  10    4.49    2.49
  -5  -2   9  212.17   18.12
   5   2  -9  188.08   16.24
  -5  -2   9  183.13   14.35
   5   2  -9  226.66   29.54
   5   2  -8   65.46   14.98
   5   2  -8   53.72    8.10
  -5  -2   8   54.79    8.84
  -5  -2   8   44.86    6.17
  -5  -2   8   50.38    4.14
  -5  -2   8   57.29    7.35
  -5  -2   7  176.60   14.75
   5   2  -7  174.11   14.69
  -5  -2   7  183.28    9.13
  -5  -2   7  174.53   12.26
  -5  -2   7  185.81   12.58
  -5  -2   7  218.00   14.45
  -5  -2   6   16.81    2.56
   5   2  -6   11.05    5.13
  -5  -2   6   18.69    4.47
   5   2  -6    9.53    3.24
  -5  -2   6   15.44    4.10
  -5  -2   6   16.94    4.80
  -5  -2   6   16.13    3.60
  -5  -2   6   16.33    3.41
  -5  -2   5  160.12   12.72
   5   2  -5  150.62   12.66
  -5  -2   5  150.02   13.07
  -5  -2   5  151.56   11.19
  -5  -2   5  145.07    8.68
  -5  -2   5  157.00    9.65
   5   2  -5  192.97   23.13
  -5  -2   5  161.51   13.10
  -5  -2   4  147.28   11.44
  -5  -2   4  150.66   11.82
   5   2  -4  138.72   11.72
  -5  -2   4  154.78   12.67
  -5  -2   4  152.60   12.81
  -5  -2   4  157.43   11.22
  -5  -2   4  149.85   18.84
  -5  -2   4  144.31    8.74
  -5  -2   4  141.82    8.12
  -5  -2   4  130.76   17.50
  -5  -2   3  365.06   17.80
  -5  -2   3  380.08   18.38
   5   2  -3  374.31   19.63
  -5  -2   3  381.44   19.90
   5   2  -3  367.30   22.39
  -5  -2   3  387.51   20.70
  -5  -2   3  372.77   15.57
  -5  -2   3  367.47   17.93
  -5  -2   3  340.15   27.84
  -5  -2   3  384.25   13.03
  -5  -2   3  288.91   26.31
  -5  -2   2    4.08    1.56
  -5  -2   2   -1.45    3.15
   5   2  -2    4.96    2.20
  -5  -2   2    4.10    2.58
  -5  -2   2    5.80    2.47
  -5  -2   2    5.62    2.01
   5   2  -2    2.15    2.33
  -5  -2   2    3.51    2.13
  -5  -2   2    2.64    1.15
   5   2  -2   -1.45    3.04
  -5  -2   2    7.60    4.38
   5   2  -2    2.59    1.44
  -5  -2   1   91.84    7.79
   5   2  -1   85.51    8.40
   5   2  -1   90.40   10.26
  -5  -2   1   86.52    9.27
   5   2  -1   85.04    7.73
  -5  -2   1   80.79    7.91
  -5  -2   1   78.05   12.29
  -5  -2   1   80.18    6.93
   5   2  -1   82.75   13.40
  -5  -2   1   86.04    7.28
   5   2   0   99.11    8.74
   5   2   0  111.14   11.24
  -5  -2   0   98.63    9.95
   5   2   0  104.99    8.57
  -5  -2   0  105.83    8.99
  -5  -2   0  103.59    8.17
   5   2   0   92.41   13.10
  -5  -2   0   99.02    7.43
  -5  -2  -1  101.68    8.44
   5   2   1  104.47   10.77
   5   2   1   87.76    5.82
  -5  -2  -1  100.56   10.26
   5   2   1  106.88    8.76
  -5  -2  -1  107.32    9.11
  -5  -2  -1   94.33    7.98
   5   2   1  107.63    9.32
   5   2   1   87.36   12.15
  -5  -2  -1  101.90    7.12
   5   2   2  276.71   10.06
   5   2   2  313.20   19.26
   5   2   2  296.28   15.77
  -5  -2  -2  278.45   15.46
  -5  -2  -2  255.35   12.49
   5   2   2  266.36   20.77
   5   2   2  289.78    8.62
   5   2   2  286.95    9.47
  -5  -2  -2  262.90   14.68
   5   2   3  524.07   28.24
  -5  -2  -3  526.93   22.44
   5   2   3  497.21   13.78
  -5  -2  -3  520.11   16.95
   5   2   3  505.36   25.84
   5   2   3  520.62   22.51
  -5  -2  -3  521.59   22.41
   5   2   4    9.35    3.74
  -5  -2  -4    9.96    2.93
   5   2   4   10.23    1.05
   5   2   4    6.98    3.34
   5   2   4   10.84    2.96
   5   2   5   31.38    5.39
   5   2   5   22.91    5.32
  -5  -2  -5   33.80    5.27
   5   2   5   20.74    4.01
   5   2   5   30.34    6.21
   5   2   5   26.23    1.97
  -5  -2  -6  194.78   10.73
   5   2   6  180.03   15.89
   5   2   6  198.13   13.87
   5   2   6  162.32    8.36
   5   2   6  185.63   12.34
  -5  -2  -6  186.22   13.65
   5   2   6  191.22   15.40
  -5  -2  -6  195.05   13.34
  -5  -2  -7  109.25    7.66
   5   2   7   99.86    5.19
   5   2   7   89.44    8.64
   5   2   7   96.82    6.45
   5   2   7  104.80   10.24
   5   2   7   86.38   11.19
  -5  -2  -7  100.11   10.34
  -5  -2  -7  107.48    9.78
  -5  -2  -8  414.09   21.05
  -5  -2  -8  418.26   16.50
   5   2   8  413.94   14.19
   5   2   8  419.04   15.56
   5   2   8  384.16   25.95
   5   2   8  403.20   19.83
   5   2   8  407.81   22.28
  -5  -2  -8  399.26   22.87
  -5  -2  -9  144.23   12.16
  -5  -2  -9  125.41    8.24
   5   2   9  138.62    8.11
   5   2   9  136.78   11.08
  -5  -2  -9  134.02   13.14
  -5  -2 -10   48.09    8.39
   5   2  10   48.16    5.09
  -5  -2 -10   45.22    6.92
   5   2  10   47.09    6.47
   5   2  11  504.08   20.42
   5   2  11  480.69   23.25
  -5  -2 -11  487.96   28.85
   5   2  12  408.33   19.54
   5   2  12  424.15   21.91
  -5  -2 -12  431.92   28.39
   5   2  13   20.02    4.51
  -5  -2 -13   14.08    6.27
   5   2  13   23.88    5.25
   5   2  14  252.86   16.94
   5   2  14  256.39   17.31
  -5  -2 -14  243.87   23.37
  -5  -2 -14  282.98   25.27
  -5  -2 -15   13.05    7.09
  -5  -2 -15    2.26    3.91
  -5  -2 -15    1.67    4.56
   5   2  15   -0.86    1.85
   5   2  15    4.13    2.87
  -5  -2 -16   88.43   16.37
  -5  -2 -17  217.13   26.76
   5   3 -12    4.32    3.34
   5   3 -11  273.10   21.81
  -5  -3  11  246.71   19.05
  -5  -3  11  290.89   23.91
   5   3 -10    6.82    7.01
   5   3 -10    2.50    3.74
  -5  -3  10    7.76    4.67
  -5  -3  10    3.22    2.62
  -5  -3   9  379.30   25.36
   5   3  -9  354.83   23.99
  -5  -3   8  314.92   21.76
   5   3  -8  298.41   21.37
  -5  -3   8  294.41   18.47
   5   3  -8  364.99   35.49
  -5  -3   7  166.47   14.90
   5   3  -7  185.21   23.57
   5   3  -7  162.60   14.79
  -5  -3   7  164.46   13.30
  -5  -3   7  179.79    7.45
  -5  -3   7  178.12    8.34
   5   3  -6  150.68   14.14
  -5  -3   6  171.97   13.99
  -5  -3   6  164.37   13.21
  -5  -3   6  163.74    8.29
  -5  -3   6  183.68   11.90
   5   3  -6  209.08   25.15
  -5  -3   6  174.42   14.61
   5   3  -5  649.89   30.48
  -5  -3   5  736.65   30.59
  -5  -3   5  670.90   28.96
  -5  -3   5  669.50   21.54
  -5  -3   5  693.39   26.79
  -5  -3   5  675.45   29.90
  -5  -3   4  180.16   11.90
   5   3  -4  189.83   14.56
  -5  -3   4  183.58   13.90
  -5  -3   4  159.33   12.80
  -5  -3   4  176.86    9.76
  -5  -3   4  180.85    8.97
  -5  -3   4  158.34   12.61
  -5  -3   3 1323.07   39.08
   5   3  -3 1313.09   44.63
  -5  -3   3 1335.33   44.73
   5   3  -3 1202.72   47.17
  -5  -3   3 1322.23   44.51
   5   3  -3 1232.95   40.88
  -5  -3   3 1350.71   43.63
  -5  -3   3 1339.56   37.06
  -5  -3   3 1337.33   31.52
  -5  -3   3 1340.22   32.72
  -5  -3   3 1423.66   61.59
  -5  -3   3 1355.37   43.17
  -5  -3   3 1249.03   59.15
  -5  -3   2  189.30   11.40
   5   3  -2  195.41   14.10
  -5  -3   2  202.95   14.10
   5   3  -2  211.70   16.58
   5   3  -2  177.25   11.98
  -5  -3   2  214.79   14.71
   5   3  -2  185.30   11.60
  -5  -3   2  217.61   21.56
  -5  -3   2  196.19   11.02
  -5  -3   2  215.13   14.26
  -5  -3   2  206.61   13.27
  -5  -3   2  171.76   19.75
  -5  -3   1   15.07    5.82
  -5  -3   1   10.66    2.77
   5   3  -1   11.34    3.26
  -5  -3   1   12.01    3.22
  -5  -3   1    7.72    2.47
   5   3  -1    5.99    3.28
  -5  -3   1    9.94    3.44
  -5  -3   1    7.72    2.51
   5   3  -1    9.44    3.62
  -5  -3   1    4.23    1.71
   5   3  -1    8.57    2.55
   5   3   0  269.12   15.77
  -5  -3   0  289.49   15.90
   5   3   0  280.63   13.50
   5   3   0  298.40   19.65
  -5  -3   0  262.60   16.93
   5   3   0  270.89   14.97
  -5  -3   0  288.44   14.59
  -5  -3   0  280.43   16.19
  -5  -3   0  282.25   14.90
   5   3   0  285.15   23.75
  -5  -3   0  282.41   23.45
  -5  -3   0  270.97   23.27
   5   3   1  266.33   15.35
  -5  -3  -1  296.43   15.40
   5   3   1  269.99   12.64
   5   3   1  283.65   19.07
  -5  -3  -1  273.15   17.33
   5   3   1  276.59   15.46
  -5  -3  -1  290.18   16.39
   5   3   1  272.08   21.99
   5   3   1  282.83   16.97
  -5  -3  -1  280.32   15.02
  -5  -3  -1  259.28   21.69
  -5  -3  -1  287.33   15.16
   5   3   2  209.32   10.26
   5   3   2  206.30   12.87
  -5  -3  -2  199.19   12.20
   5   3   2  204.20   16.19
   5   3   2  211.91   13.62
  -5  -3  -2  205.69   13.22
  -5  -3  -2  207.74   13.87
   5   3   2  239.02   19.15
  -5  -3  -2  177.70   17.33
   5   3   2  208.72    8.73
  -5  -3  -2  204.12   12.93
   5   3   3  351.97   13.79
  -5  -3  -3  331.44   17.80
   5   3   3  364.43   22.41
  -5  -3  -3  318.54   16.08
   5   3   3  381.64   19.35
  -5  -3  -3  355.69   18.64
   5   3   3  336.61   22.40
   5   3   3  351.66   12.74
   5   3   4    2.59    1.98
  -5  -3  -4   -1.68    1.73
   5   3   4    3.29    3.20
  -5  -3  -4   -0.28    1.16
   5   3   4    1.51    2.24
   5   3   4   -1.90    3.11
   5   3   4    1.96    1.29
   5   3   4    0.19    0.73
  -5  -3  -5   42.57    6.47
  -5  -3  -5   38.83    5.99
   5   3   5   46.32    6.37
   5   3   5   37.40    4.49
   5   3   5   41.89    4.92
   5   3   5   43.47    6.68
   5   3   5   37.07    6.72
   5   3   5   43.95    7.71
  -5  -3  -6   53.83    5.25
   5   3   6   67.43    8.31
  -5  -3  -6   50.95    7.45
   5   3   6   67.23   10.46
   5   3   6   50.92    5.70
   5   3   6   57.97    7.13
   5   3   6   62.46    8.76
  -5  -3  -6   58.34    7.45
   5   3   7    9.80    3.24
  -5  -3  -7    5.10    1.81
  -5  -3  -7    8.73    2.09
   5   3   7    4.18    4.61
  -5  -3  -7    9.04    3.06
   5   3   7    5.74    2.61
   5   3   7    8.18    2.39
   5   3   7    9.94    3.56
  -5  -3  -8   24.00    5.60
  -5  -3  -8   26.28    3.44
   5   3   8   26.09    4.14
   5   3   8   30.72    5.05
  -5  -3  -8   21.11    5.03
  -5  -3  -9    0.78    0.61
   5   3   9    3.07    1.64
   5   3   9    1.42    1.29
  -5  -3  -9    0.31    1.47
  -5  -3 -10   20.40    5.69
  -5  -3 -10   26.70    3.25
  -5  -3 -10   25.43    5.20
   5   3  10   23.70    4.70
  -5  -3 -11   77.49    5.28
  -5  -3 -11   72.92   11.22
   5   3  11   80.41    7.48
   5   3  11   70.16    8.26
   5   3  12  105.85   10.29
   5   3  12  132.99   10.49
  -5  -3 -12  114.43   14.72
  -5  -3 -13    7.41    5.16
  -5  -3 -13    2.11    3.10
   5   3  13    5.28    3.01
   5   3  13    3.74    2.14
  -5  -3 -14   31.50    9.45
  -5  -3 -14   22.02    6.88
   5   3  14   24.80    5.35
   5   3  14   14.16    3.89
  -5  -3 -15   15.68    6.32
  -5  -3 -15    3.44    3.51
   5   3  15    9.63    4.93
  -5  -3 -16   25.30    8.66
   5   4 -11   48.46    9.88
  -5  -4  10    7.30    5.33
   5   4 -10    2.93    4.07
   5   4 -10   12.76    5.64
   5   4  -9  130.27   22.01
   5   4  -9  102.87   13.50
  -5  -4   9  114.77   13.79
  -5  -4   8   19.29    5.53
   5   4  -8   20.80    5.40
   5   4  -7  154.71   22.33
   5   4  -7  149.41   15.15
  -5  -4   7  144.28   12.91
  -5  -4   7  129.39   10.50
  -5  -4   7  137.86   14.07
   5   4  -6   21.17    8.75
   5   4  -6   19.67    5.47
  -5  -4   6   21.97    2.43
  -5  -4   6   31.43    5.79
  -5  -4   6   22.72    3.93
  -5  -4   6   14.19    4.72
   5   4  -5  349.06   22.72
  -5  -4   5  377.43   20.81
  -5  -4   5  363.95   14.31
  -5  -4   5  342.12   15.95
  -5  -4   5  351.85   21.68
  -5  -4   5  403.51   16.27
  -5  -4   4  178.86   10.74
   5   4  -4  160.54   14.50
   5   4  -4  186.20   16.47
   5   4  -4  162.11   13.42
  -5  -4   4  180.46   13.78
  -5  -4   4  175.47   14.73
  -5  -4   4  189.68   10.30
  -5  -4   4  170.05    9.86
  -5  -4   4  159.57   13.66
  -5  -4   3  974.88   30.54
   5   4  -3  979.82   38.69
   5   4  -3  964.72   35.80
   5   4  -3 1012.16   41.63
  -5  -4   3  973.07   36.26
   5   4  -3  922.68   31.03
  -5  -4   3 1005.06   38.65
  -5  -4   3  990.54   30.32
  -5  -4   3  952.59   28.84
  -5  -4   3  957.37   36.67
  -5  -4   2  192.27   11.28
   5   4  -2  192.93   14.92
  -5  -4   2  214.66   15.17
   5   4  -2  199.39   13.71
   5   4  -2  208.98   17.30
  -5  -4   2  213.50   14.78
   5   4  -2  197.62   12.22
  -5  -4   2  177.92   14.62
  -5  -4   2  232.62   22.37
  -5  -4   2  217.30    8.09
  -5  -4   2  194.06   14.22
  -5  -4   2  189.93   11.56
  -5  -4   2  204.00   21.38
  -5  -4   1    4.44    2.69
  -5  -4   1    4.67    2.01
   5   4  -1    5.88    2.99
  -5  -4   1    8.14    3.12
   5   4  -1    4.29    2.18
  -5  -4   1    6.86    3.60
   5   4  -1    4.86    3.45
  -5  -4   1    5.63    2.52
   5   4  -1    5.48    4.49
  -5  -4   1    2.73    1.16
  -5  -4   1    8.45    4.88
   5   4  -1    7.02    2.62
   5   4   0  571.15   25.74
  -5  -4   0  572.86   24.76
   5   4   0  601.89   30.43
  -5  -4   0  592.31   23.60
   5   4   0  583.50   34.94
   5   4   0  576.49   24.17
  -5  -4   0  569.82   26.54
  -5  -4   0  679.28   37.53
  -5  -4   0  583.90   25.84
  -5  -4   0  571.12   34.91
   5   4   1  432.48   19.39
   5   4   1  431.30   21.31
  -5  -4  -1  443.52   20.53
   5   4   1  455.94   25.94
  -5  -4  -1  422.84   21.89
   5   4   1  447.52   21.55
  -5  -4  -1  426.69   22.30
   5   4   1  465.85   29.21
  -5  -4  -1  460.40   29.64
  -5  -4  -1  429.80   20.10
  -5  -4  -1  408.31   28.31
   5   4   2  817.66   38.71
   5   4   2  767.55   29.37
  -5  -4  -2  801.28   28.69
   5   4   2  780.79   36.44
  -5  -4  -2  807.66   33.15
   5   4   2  824.17   31.66
  -5  -4  -2  799.65   31.87
  -5  -4  -2  774.28   38.51
  -5  -4  -2  802.60   30.29
   5   4   2  772.74   26.08
   5   4   2  789.94   27.99
   5   4   3 1331.94   42.04
  -5  -4  -3 1389.19   40.99
   5   4   3 1444.49   53.43
  -5  -4  -3 1421.14   46.12
   5   4   3 1437.60   46.79
  -5  -4  -3 1361.80   45.61
   5   4   3 1432.44   46.34
   5   4   3 1360.86   51.33
  -5  -4  -3 1349.33   44.56
   5   4   3 1361.81   38.37
   5   4   3 1360.55   41.16
   5   4   4   23.76    4.94
  -5  -4  -4   16.38    4.48
   5   4   4   23.67    6.12
   5   4   4   20.09    3.81
  -5  -4  -4   21.06    4.52
   5   4   4   10.02    3.43
   5   4   4   11.09    3.70
   5   4   4   19.53    3.43
   5   4   5  603.87   33.88
  -5  -4  -5  625.37   27.41
   5   4   5  607.81   28.80
   5   4   5  599.14   26.26
   5   4   5  538.79   28.10
   5   4   5  566.94   24.74
  -5  -4  -5  591.44   27.48
   5   4   5  581.02   22.24
  -5  -4  -6  806.84   26.64
   5   4   6  889.52   43.79
  -5  -4  -6  851.45   33.62
   5   4   6  908.51   37.22
   5   4   6  867.84   32.92
   5   4   6  860.48   32.57
   5   4   6  823.44   35.70
  -5  -4  -6  860.07   35.69
  -5  -4  -7    6.61    3.34
  -5  -4  -7    6.34    1.92
  -5  -4  -7    6.68    2.80
   5   4   7    4.80    2.69
   5   4   7    4.66    2.02
   5   4   7    6.58    2.48
   5   4   7    1.74    2.15
  -5  -4  -8  424.84   15.90
   5   4   8  426.24   21.09
  -5  -4  -8  436.85   22.79
  -5  -4  -8  434.89   25.46
   5   4   8  419.58   21.36
   5   4   8  402.20   24.02
   5   4   8  391.31   20.29
  -5  -4  -9   96.39    6.35
   5   4   9   92.39    9.48
  -5  -4  -9   93.09   10.22
   5   4   9  104.44   10.11
  -5  -4  -9   99.84   12.56
  -5  -4 -10   86.32    5.52
   5   4  10   93.52   10.37
  -5  -4 -10   89.69   12.28
   5   4  10   90.01    9.61
   5   4  11  357.98   19.73
   5   4  11  373.52   22.43
  -5  -4 -11  354.83   26.86
   5   4  11  364.88   20.29
   5   4  12  195.56   16.80
  -5  -4 -12  224.77   21.34
  -5  -4 -12  235.71   21.82
   5   4  12  206.21   15.15
  -5  -4 -13   18.99    6.39
  -5  -4 -13   23.39    7.01
   5   4  13   22.53    5.12
   5   4  13   31.56    6.93
   5   4  13   26.74    4.97
  -5  -4 -14   40.04    9.98
  -5  -4 -14   29.02    8.44
   5   4  14   37.64    6.67
   5   4  14   29.31    5.77
   5   4  14   33.24    7.44
  -5  -4 -15   27.22    8.03
   5   4  15   21.97    6.46
   5   5 -10   40.67   12.95
   5   5 -10   19.45    6.53
  -5  -5  10   25.90    7.84
   5   5  -9  103.76   19.68
   5   5  -9   70.04   11.99
  -5  -5   9   83.61   12.36
   5   5  -8   44.22   12.70
   5   5  -8   42.02    9.20
  -5  -5   8   19.51    6.20
   5   5  -7   83.63   16.19
   5   5  -7   70.55   11.22
  -5  -5   7   66.13   10.03
   5   5  -6    2.01    3.49
  -5  -5   6    0.44    1.33
  -5  -5   6   -2.27    3.87
  -5  -5   5   41.87    6.40
   5   5  -5   33.97    7.73
  -5  -5   5   50.86    8.52
  -5  -5   5   49.35    6.17
  -5  -5   4  100.28    7.19
   5   5  -4  102.07   12.54
   5   5  -4  101.16   12.25
   5   5  -4   92.62    7.80
  -5  -5   4   92.98    9.88
  -5  -5   4  100.95    8.76
  -5  -5   4  108.94   12.08
  -5  -5   4  101.08    7.89
  -5  -5   4  104.41    6.96
  -5  -5   3   89.64    7.26
   5   5  -3   88.61   11.60
   5   5  -3  100.08   12.30
  -5  -5   3  100.29   10.07
   5   5  -3  105.69    8.69
  -5  -5   3  119.04   12.32
  -5  -5   3  110.47    8.98
  -5  -5   3  107.27    8.64
   5   5  -2    2.95    2.05
  -5  -5   2    0.03    1.44
   5   5  -2    0.14    2.29
  -5  -5   2    3.60    2.97
   5   5  -2   -3.34    3.14
  -5  -5   2    0.50    0.78
   5   5  -2    0.02    1.43
  -5  -5   1   13.44    3.39
   5   5  -1    9.40    3.09
  -5  -5   1   10.76    3.54
   5   5  -1   14.91    5.06
  -5  -5   1   17.89    5.52
  -5  -5   1   12.48    2.02
   5   5  -1    5.47    2.19
   5   5  -1   14.99    3.80
   5   5   0   24.90    4.81
  -5  -5   0   22.45    6.69
  -5  -5   0   16.17    4.09
  -5  -5   0   24.99    4.45
   5   5   0   23.46    5.20
  -5  -5   0   25.25    5.07
   5   5   0   25.36    5.84
   5   5   0   24.51    5.10
   5   5   0   27.08    6.72
  -5  -5   0   23.95    2.65
  -5  -5   0   19.28    6.07
  -5  -5  -1   50.97    9.25
  -5  -5  -1   52.54    6.89
   5   5   1   54.49    7.44
   5   5   1   54.02    9.15
   5   5   1   59.43    7.72
   5   5   1   47.11    8.97
  -5  -5  -1   59.61    7.36
   5   5   1   60.18    5.66
  -5  -5  -1   51.19    9.79
  -5  -5  -1   51.65    8.27
   5   5   2  139.31   11.60
  -5  -5  -2  127.65   10.50
   5   5   2  124.08   14.13
  -5  -5  -2  140.67   13.60
   5   5   2  132.40   12.18
  -5  -5  -2  130.40   12.55
   5   5   2  121.51   13.32
  -5  -5  -2  126.09   11.31
   5   5   2  139.69   10.61
  -5  -5  -2  123.90   14.64
   5   5   3  176.57   12.85
  -5  -5  -3  165.32   11.55
  -5  -5  -3  183.15   15.33
   5   5   3  194.25   18.11
  -5  -5  -3  161.35   13.80
   5   5   3  158.80   14.17
   5   5   3  173.66   16.08
  -5  -5  -3  171.41   13.59
   5   5   3  175.00   12.48
   5   5   4    3.36    1.94
   5   5   4    2.93    2.26
  -5  -5  -4    3.12    3.62
  -5  -5  -4    1.22    2.00
  -5  -5  -4    2.34    1.77
   5   5   4    1.52    2.02
  -5  -5  -4    1.64    1.34
   5   5   4    0.40    2.32
   5   5   4    1.95    1.40
   5   5   4    3.07    3.12
   5   5   5  234.78   21.79
  -5  -5  -5  241.81   17.09
   5   5   5  224.09   17.58
   5   5   5  228.85   16.69
  -5  -5  -5  244.75   17.83
   5   5   6  606.74   37.02
   5   5   6  609.27   27.83
  -5  -5  -6  575.87   29.70
   5   5   6  571.02   29.04
  -5  -5  -7    0.61    1.90
  -5  -5  -7    1.97    1.53
   5   5   7    0.70    1.78
   5   5   7    1.74    2.15
   5   5   7    2.83    1.33
  -5  -5  -8  245.72   11.94
   5   5   8  263.74   17.41
   5   5   8  242.41   18.04
   5   5   8  282.08   17.18
  -5  -5  -8  281.34   21.36
  -5  -5  -9  100.15    6.69
   5   5   9  103.21   10.53
   5   5   9  104.50   11.01
   5   5   9  110.81   12.10
   5   5   9  108.01   10.91
  -5  -5  -9  106.82   13.54
  -5  -5  -9  100.20   12.93
  -5  -5 -10   28.28    7.11
  -5  -5 -10   24.61    6.65
  -5  -5 -10   21.14    2.41
   5   5  10   20.24    4.84
   5   5  10   25.13    5.60
   5   5  10   22.39    5.18
   5   5  11  614.86   29.46
   5   5  11  664.16   29.65
   5   5  11  624.05   31.03
  -5  -5 -11  636.92   37.52
  -5  -5 -11  676.78   38.00
   5   5  12  340.43   20.48
   5   5  12  321.97   22.48
  -5  -5 -12  355.07   28.27
  -5  -5 -12  353.14   28.35
  -5  -5 -13   77.21   13.85
   5   5  13   65.15    8.75
   5   5  13   76.80   10.95
   5   5  14  141.25   16.19
  -5  -5 -14  155.43   20.62
   5   6  -9  222.83   23.31
  -5  -6   9  225.90   21.82
   5   6  -9  265.68   31.24
   5   6  -8  186.75   20.56
  -5  -6   8  177.09   18.46
   5   6  -7   47.62   10.20
  -5  -6   7   51.58    9.73
   5   6  -6  182.22   19.04
  -5  -6   6  169.82   17.32
   5   6  -5  257.15   22.32
  -5  -6   5  252.94   20.83
  -5  -6   4  161.41    8.73
   5   6  -4  175.07   17.89
   5   6  -4  161.10   16.22
   5   6  -4  153.41   10.42
  -5  -6   4  194.25   17.46
  -5  -6   4  186.05   13.65
  -5  -6   4  170.19    9.42
   5   6  -3  417.89   27.36
   5   6  -3  416.35   26.63
   5   6  -3  381.19   19.21
  -5  -6   3  419.75   26.02
  -5  -6   3  434.25   18.61
  -5  -6   2   34.43    7.62
   5   6  -2   31.34    6.91
  -5  -6   2   37.98    5.63
   5   6  -2   49.70    8.99
  -5  -6   2   45.17    5.84
  -5  -6   2   43.08    5.74
   5   6  -2   39.09    5.98
   5   6  -1   21.01    4.86
  -5  -6   1   21.82    4.30
  -5  -6   1   22.39    4.97
   5   6  -1   22.02    6.24
  -5  -6   1   19.70    4.24
   5   6  -1   22.57    6.45
   5   6  -1   29.67    6.33
  -5  -6   1   26.43    6.90
  -5  -6   1   23.67    3.64
   5   6   0  193.46   16.37
   5   6   0  189.05   16.16
   5   6   0  182.93   17.70
   5   6   0  203.59   15.31
  -5  -6   0  185.20   16.97
   5   6   0  179.46   18.18
  -5  -6   0  235.48   21.14
  -5  -6   0  205.05   11.25
  -5  -6   0  195.91   14.37
  -5  -6   0  197.25   13.61
   5   6   1   11.63    3.58
  -5  -6  -1   18.24    4.35
   5   6   1    8.79    3.82
   5   6   1   11.68    4.23
  -5  -6  -1   15.96    4.28
   5   6   1   15.52    5.21
   5   6   1   13.96    4.89
  -5  -6  -1   22.29    5.63
  -5  -6  -1   14.41    2.89
  -5  -6  -1    6.74    2.81
   5   6   1   16.66    3.74
  -5  -6  -2   71.21   11.52
   5   6   2   79.71   10.04
   5   6   2   79.98    9.66
  -5  -6  -2   68.39    8.17
  -5  -6  -2   94.32   12.07
   5   6   2   74.16   11.81
   5   6   2   73.42   10.97
  -5  -6  -2   67.65    8.85
   5   6   2   84.67    9.51
  -5  -6  -2   82.28   11.43
   5   6   2   81.18   10.24
   5   6   3   94.42    9.89
  -5  -6  -3   74.90    8.29
  -5  -6  -3  106.60   12.52
   5   6   3   92.30   13.01
   5   6   3   91.17   11.79
   5   6   3   96.68   10.16
  -5  -6  -3   92.54   10.57
   5   6   3   82.82   10.60
  -5  -6  -4    5.18    3.14
   5   6   4    9.27    3.32
  -5  -6  -4    4.56    2.70
  -5  -6  -4    5.45    2.06
  -5  -6  -4    2.80    2.45
   5   6   4    4.43    2.75
   5   6   4    5.37    2.56
   5   6   4    6.49    3.33
   5   6   5   91.90    9.08
  -5  -6  -5   78.36    7.79
   5   6   5   95.40   13.95
   5   6   5   85.09   10.91
   5   6   5  102.51   12.10
  -5  -6  -5   86.92   10.74
  -5  -6  -5   98.02   11.74
   5   6   6   56.89    9.00
  -5  -6  -6   59.11    9.25
   5   6   6   45.79   10.56
   5   6   6   57.78    8.87
  -5  -6  -6   71.48   10.33
   5   6   6   57.24    7.91
   5   6   7    5.41    2.97
  -5  -6  -7    1.31    2.25
  -5  -6  -7   -0.36    2.80
   5   6   7    0.37    1.55
   5   6   7    1.41    1.96
  -5  -6  -8    6.74    3.77
  -5  -6  -8    2.68    2.05
  -5  -6  -8    3.69    1.40
   5   6   8    5.37    2.94
   5   6   8    4.06    3.01
   5   6   8    3.79    2.98
  -5  -6  -9   12.89    5.10
  -5  -6  -9    8.48    3.88
   5   6   9    7.66    3.76
   5   6   9   18.07    4.94
   5   6   9    8.65    3.80
  -5  -6 -10   35.66    8.66
  -5  -6 -10   20.80    6.76
   5   6  10   24.32    6.00
   5   6  10   14.97    3.98
   5   6  11  200.07   17.69
   5   6  11  166.88   15.72
  -5  -6 -11  178.58   19.95
  -5  -6 -12  101.67   16.09
   5   6  12  104.31   13.34
   5   6  12  111.65   13.39
  -5  -6 -13   30.57    9.98
   5   6  13   29.79    7.01
   5   6  14   11.91    5.50
   5   7  -8   88.30   15.44
  -5  -7   8   70.43   12.65
   5   7  -7   21.43    7.74
  -5  -7   7   32.03    7.85
   5   7  -6  121.65   16.90
  -5  -7   6  142.74   16.65
   5   7  -5  261.61   24.42
  -5  -7   5  211.18   20.24
   5   7  -4  132.18   16.43
   5   7  -4  110.17   13.31
  -5  -7   4  103.64   13.76
   5   7  -3  606.80   35.75
   5   7  -3  581.07   32.70
   5   7  -3  528.31   24.46
  -5  -7   3  568.23   33.39
  -5  -7   3  584.90   23.94
   5   7  -2  180.84   18.19
   5   7  -2  136.67   15.11
   5   7  -2  121.24   11.48
  -5  -7   2  134.36   15.50
  -5  -7   2  171.63   12.82
  -5  -7   2  154.97   12.04
  -5  -7   1   55.83   10.07
   5   7  -1   37.92    6.64
  -5  -7   1   51.04    6.95
   5   7  -1   62.86   10.22
   5   7  -1   51.51    9.27
  -5  -7   1   60.24    7.06
   5   7   0  585.06   32.46
   5   7   0  609.51   34.25
  -5  -7   0  599.68   34.86
   5   7   0  568.15   29.78
  -5  -7   0  611.23   25.00
  -5  -7   0  610.31   27.89
   5   7   1  198.67   17.73
   5   7   1  186.96   18.90
  -5  -7  -1  193.23   18.72
   5   7   1  190.74   18.21
   5   7   1  187.68   16.54
  -5  -7  -1  202.76   13.22
   5   7   1  220.95   15.70
  -5  -7  -1  205.72   15.66
  -5  -7  -1  233.01   20.02
   5   7   2  316.89   21.30
   5   7   2  307.10   24.72
  -5  -7  -2  384.70   26.62
   5   7   2  300.04   22.65
  -5  -7  -2  380.60   24.99
  -5  -7  -2  323.11   21.49
  -5  -7  -2  336.66   20.80
   5   7   2  321.78   23.66
   5   7   3  285.97   19.51
  -5  -7  -3  264.29   17.29
  -5  -7  -3  351.57   24.93
   5   7   3  286.28   24.37
   5   7   3  300.05   21.83
  -5  -7  -3  311.05   21.26
   5   7   3  299.72   22.58
  -5  -7  -3  286.08   20.02
  -5  -7  -4   11.76    4.65
   5   7   4    4.71    2.95
  -5  -7  -4    3.67    1.26
  -5  -7  -4    0.73    3.75
  -5  -7  -4    5.35    4.51
   5   7   4    6.10    2.68
   5   7   4    5.70    3.15
   5   7   4    5.20    2.55
   5   7   4    4.98    2.80
   5   7   5  519.66   25.15
  -5  -7  -5  486.08   23.01
   5   7   5  516.91   35.10
   5   7   5  529.73   29.06
   5   7   5  568.43   32.30
   5   7   5  509.19   27.75
  -5  -7  -5  531.53   30.39
  -5  -7  -5  522.04   29.32
   5   7   6  442.94   22.06
   5   7   6  465.45   34.08
   5   7   6  441.86   25.93
   5   7   6  491.60   29.57
   5   7   6  443.52   25.53
  -5  -7  -6  447.20   28.97
  -5  -7  -6  456.01   28.23
  -5  -7  -7    5.75    3.44
   5   7   7    2.89    2.37
  -5  -7  -7    5.49    2.74
   5   7   7   10.00    4.06
   5   7   7   11.69    4.26
   5   7   8   68.53   10.49
  -5  -7  -8   73.26   11.38
   5   7   8   69.17    9.76
   5   7   8   74.08   10.27
  -5  -7  -9    7.98    5.52
   5   7   9    4.25    3.02
   5   7   9    9.30    4.50
  -5  -7 -10   21.89    6.53
   5   7  10   22.01    6.25
   5   7  10   29.07    6.98
   5   7  11  261.23   20.27
   5   7  11  239.28   19.97
  -5  -7 -11  277.69   26.13
  -5  -7 -12   63.45   13.69
   5   7  12   64.40    9.85
   5   7  12   59.72   10.51
   5   7  13   55.70    9.82
   5   7  13   52.09    9.95
   5   7  14   -0.13    2.46
  -5  -8   7    8.83    4.13
  -5  -8   6   17.35    6.22
   5   8  -6   21.93    8.88
  -5  -8   5   19.66    6.49
   5   8  -5    4.86    4.18
  -5  -8   4   28.49    7.47
   5   8  -4   51.23   11.14
   5   8  -4   33.61    7.33
  -5  -8   3   40.28    9.48
   5   8  -3   55.03   11.57
   5   8  -3   36.55    8.12
  -5  -8   2   -0.80    2.62
   5   8  -2    0.96    3.18
   5   8  -2   -0.62    2.74
  -5  -8   2    4.99    4.92
  -5  -8   1   45.62    7.46
   5   8  -1   57.27   10.88
   5   8  -1   47.11    9.46
  -5  -8   1   46.76    9.76
   5   8   0  132.46   15.63
   5   8   0  143.87   16.49
  -5  -8   0  132.46   16.75
  -5  -8   0  130.56   12.85
  -5  -8  -1    4.26    2.10
   5   8   1   11.54    4.76
   5   8   1    9.76    3.87
  -5  -8  -1    7.69    3.39
  -5  -8  -2   94.91   13.83
   5   8   2   80.17   11.29
   5   8   2   90.22   13.12
  -5  -8  -2   87.97    9.72
   5   8   2  101.78   11.83
   5   8   2   86.41   11.81
  -5  -8  -2   86.15   11.12
   5   8   3  232.10   18.57
  -5  -8  -3  228.73   21.51
   5   8   3  188.64   17.39
   5   8   3  212.74   21.38
   5   8   3  268.01   20.10
  -5  -8  -3  220.30   18.84
  -5  -8  -4   -1.15    2.14
   5   8   4    1.74    1.87
   5   8   4    1.34    4.00
   5   8   4   -4.34    4.08
   5   8   4    6.28    3.01
   5   8   5  504.64   26.31
   5   8   5  517.89   35.96
   5   8   5  476.60   27.57
   5   8   5  482.39   29.39
  -5  -8  -5  454.11   29.10
   5   8   6  399.04   22.11
   5   8   6  403.42   32.46
   5   8   6  387.73   24.45
   5   8   6  385.19   26.14
  -5  -8  -6  375.35   26.83
  -5  -8  -7    7.87    5.05
   5   8   7    7.72    3.98
   5   8   7    3.82    3.07
   5   8   8  152.43   14.99
   5   8   8  162.00   16.47
  -5  -8  -8  181.65   19.69
  -5  -8  -9   77.83   13.03
   5   8   9   67.58   11.02
   5   8   9   46.26    7.83
  -5  -8 -10   44.06   10.29
   5   8  10   35.27    6.98
   5   8  10   35.52    8.51
   5   8  11  490.74   28.93
   5   8  11  512.25   32.26
  -5  -8 -11  562.67   38.92
   5   8  12   77.10   12.00
  -5  -9   5   60.31   12.15
  -5  -9   4   61.41   11.70
   5   9  -4   47.29   10.81
   5   9  -3  104.50   16.33
  -5  -9   3  106.59   15.92
   5   9  -2    3.30    3.24
   5   9  -2    4.14    3.53
  -5  -9   2    3.80    3.03
  -5  -9   1   19.58    5.04
   5   9  -1   28.00    7.67
   5   9  -1   46.44    9.37
  -5  -9   1   24.24    7.78
  -5  -9   0   62.95    9.42
   5   9   0   54.39   11.37
   5   9   0   47.62   10.07
  -5  -9   0   65.40   12.30
  -5  -9  -1   -2.69    3.67
   5   9   1   -2.20    2.56
   5   9   1   -2.81    4.61
  -5  -9  -1   -5.33    3.83
   5   9   1   -2.43    2.13
  -5  -9  -2    7.68    3.96
   5   9   2    1.30    2.22
   5   9   2    3.79    3.03
  -5  -9  -2   11.51    4.81
   5   9   2    9.73    3.75
  -5  -9  -3   -4.18    3.40
   5   9   3    3.24    2.14
  -5  -9  -3    7.46    3.69
   5   9   3    9.76    5.41
   5   9   3    5.51    3.20
  -5  -9  -4    7.98    3.90
   5   9   4   11.44    4.42
   5   9   4    6.76    4.70
   5   9   4   12.95    4.54
   5   9   4   12.86    5.23
   5   9   5  113.39   12.96
  -5  -9  -5  106.12   14.51
   5   9   5  123.08   17.13
   5   9   5   91.47   11.76
   5   9   5  126.78   15.31
  -5  -9  -6   31.14    8.15
   5   9   6   44.38    7.61
   5   9   6   39.19   10.14
   5   9   6   42.40    7.79
   5   9   6   39.79    8.35
  -5  -9  -7   23.31    6.83
   5   9   7   18.15    5.08
   5   9   7   13.74    4.66
  -5  -9  -8   -0.52    4.68
   5   9   8    0.68    3.01
  -5  -9  -9    5.66    4.08
   5   9   9   -1.43    4.09
   5   9  10   11.32    4.34
   5   9  11  196.44   20.71
  -5 -10   3  300.68   28.69
   5  10  -2   67.21   13.29
  -5 -10   2   66.04   13.22
   5  10  -1  176.04   21.10
  -5 -10   1  169.68   20.75
   5  10   0  353.91   29.98
   5  10   0  430.20   29.72
  -5 -10   0  410.49   32.34
  -5 -10  -1   14.77    4.61
   5  10   1   13.47    6.22
   5  10   1   12.63    4.48
  -5 -10  -1   29.48    9.28
  -5 -10  -2   86.83   14.33
   5  10   2  104.66   14.68
   5  10   2   86.13   14.27
   5  10   2  117.90   14.21
  -5 -10  -2  109.99   14.52
   5  10   3  168.76   18.24
  -5 -10  -3  164.89   19.76
   5  10   3  153.94   18.65
   5  10   3  186.62   18.58
  -5 -10  -3  154.62   17.41
  -5 -10  -4    1.45    2.34
   5  10   4    1.06    2.85
   5  10   4    1.64    3.22
   5  10   4    1.31    2.74
   5  10   5  299.37   22.84
   5  10   5  324.92   29.42
   5  10   5  334.02   26.14
  -5 -10  -5  294.92   26.05
  -5 -10  -6   70.75   12.53
   5  10   6   91.13   15.96
   5  10   6  100.80   14.60
  -5 -10  -7   25.31    7.64
   5  10   7   17.00    7.50
   5  10   7   11.85    5.40
   5  10   8   -1.11    4.35
   5  10   9   -4.69    4.50
   5  10  10    8.33    5.24
   5  11   0  101.77   15.73
  -5 -11   0   98.21   16.06
   5  11   1   11.86    5.68
  -5 -11  -1    7.00    5.32
  -5 -11  -2   68.90   11.78
   5  11   2   83.15   14.08
  -5 -11  -2   75.25   13.87
   5  11   3  113.34   15.12
   5  11   3  141.23   17.97
  -5 -11  -3  129.97   17.02
  -5 -11  -4   -4.36    5.35
   5  11   4    9.97    5.94
   5  11   5  429.88   34.00
  -5 -11  -5  379.29   30.89
   5  11   6  153.76   20.65
   6 -11   0    9.61    5.21
   6 -11   1    2.49    4.98
   6 -10  -1   54.41   11.00
   6 -10   0    4.79    5.18
   6 -10   1   17.83    7.24
   6 -10   1   20.45    8.62
   6 -10   2   80.52   14.19
   6 -10   2   58.01   12.37
   6 -10   3    4.18    4.88
   6 -10   3    6.33    5.75
  -6  10  -3   -4.84    5.32
   6 -10   4  136.30   19.45
   6 -10   4  105.22   17.83
  -6  10  -4  118.51   17.75
  -6  10  -5    8.62    4.59
  -6  10  -6    0.57    4.05
   6 -10   7    8.82    6.22
  -6  10  -7    0.90    2.90
  -6   9   4  245.42   28.33
   6  -9  -3    1.88    4.51
  -6   9   3    2.04    4.62
   6  -9  -2  478.59   39.02
   6  -9  -2  407.91   27.65
   6  -9  -1  112.32   18.19
   6  -9  -1  112.25   14.49
  -6   9   1  151.26   22.02
   6  -9   0   14.77    8.08
   6  -9   0   24.11    7.24
  -6   9   0   15.14    8.03
   6  -9   1  178.26   22.04
   6  -9   1  133.76   16.98
   6  -9   2  190.47   22.56
   6  -9   2  147.88   18.97
  -6   9  -2  224.73   27.19
   6  -9   3  141.28   18.91
  -6   9  -3  151.96   19.52
   6  -9   3  123.43   17.51
   6  -9   4  528.50   37.35
  -6   9  -4  571.68   38.66
   6  -9   4  506.02   36.97
   6  -9   5   35.12   10.65
  -6   9  -5   12.25    5.80
  -6   9  -6  143.83   18.59
   6  -9   6  117.70   18.07
   6  -9   7  153.57   19.87
  -6   9  -7  130.81   18.03
   6  -9   8   23.59    8.32
  -6   9  -8    8.93    4.21
   6  -9   9  131.26   18.31
   6  -9  10   97.92   15.86
   6  -8  -6   40.60   11.83
  -6   8   6   51.18   12.54
   6  -8  -5   42.79   11.82
  -6   8   5   48.34   11.45
   6  -8  -4   74.00   14.97
  -6   8   4  106.69   17.89
   6  -8  -3   -3.57    3.16
   6  -8  -3    4.42    2.91
  -6   8   3   -0.36    4.98
   6  -8  -2   75.08   14.59
   6  -8  -2   68.04    9.80
  -6   8   2   93.10   16.35
   6  -8  -1   37.05    9.56
   6  -8  -1   19.43    6.11
  -6   8   1   22.52    9.07
   6  -8   0   29.45    8.37
   6  -8   0   26.02    7.15
  -6   8   0   42.89   11.88
   6  -8   1    1.38    2.65
   6  -8   1    8.84    4.17
  -6   8  -1    8.56    4.74
   6  -8   2  123.21   17.51
   6  -8   2   92.39   13.50
  -6   8  -2  125.92   19.52
   6  -8   3   49.96   10.63
   6  -8   3   53.90   10.92
  -6   8  -3   50.04   10.28
  -6   8  -3   60.98   13.11
   6  -8   4  275.10   25.58
  -6   8  -4  287.13   25.56
   6  -8   4  269.72   25.03
   6  -8   5   35.18    9.84
   6  -8   5   44.56    7.74
  -6   8  -5   21.75    6.95
   6  -8   6   69.40   12.41
   6  -8   6   52.61   11.23
   6  -8   6   68.74   10.13
  -6   8  -6   64.15   11.96
   6  -8   7  205.96   23.71
   6  -8   7  271.42   25.12
  -6   8  -7  234.15   23.07
   6  -8   7  273.70   21.15
   6  -8   8    5.76    4.44
   6  -8   8   10.15    5.02
  -6   8  -8    2.11    2.77
   6  -8   9  213.69   22.46
  -6   8  -9  145.64   17.70
   6  -8  10  159.13   19.94
  -6   8 -10  138.19   17.25
   6  -8  11    7.04    4.91
   6  -7  -8  185.69   24.95
  -6   7   8  175.60   23.16
   6  -7  -7  127.53   19.42
  -6   7   7   99.49   16.85
   6  -7  -6   50.71   12.55
  -6   7   6   28.01    9.47
   6  -7  -5   35.82    9.95
  -6   7   5   29.37    9.59
   6  -7  -4  196.85   23.39
   6  -7  -4  185.03   13.66
  -6   7   4  211.53   24.53
   6  -7  -3   25.16    5.12
   6  -7  -3   31.09    8.67
  -6   7   3   28.60    9.17
   6  -7  -2  378.74   31.15
   6  -7  -2  356.52   21.73
   6  -7  -1   52.89   11.12
   6  -7  -1   60.33    8.85
   6  -7   0   -3.12    4.03
   6  -7   0   -2.73    3.77
  -6   7   0   -1.38    4.28
   6  -7   1   10.72    5.30
   6  -7   1    0.12    3.55
   6  -7   1    6.20    2.99
  -6   7  -1   12.01    7.62
   6  -7   2   87.08   13.86
  -6   7  -2  100.97   13.76
   6  -7   2   89.23   12.49
   6  -7   2  133.80   12.83
  -6   7  -2  116.18   17.82
  -6   7  -3    1.86    0.71
   6  -7   3    2.57    4.37
  -6   7  -3    1.47    1.93
   6  -7   3    0.25    2.96
   6  -7   3    5.15    3.14
  -6   7  -3    4.83    4.11
  -6   7  -3    7.39    4.92
  -6   7  -4  117.44    7.89
   6  -7   4  123.72   15.95
  -6   7  -4  121.20   13.95
  -6   7  -4  128.28   15.59
   6  -7   4  121.50   15.32
   6  -7   4  147.48   14.04
  -6   7  -5    9.36    2.69
   6  -7   5   14.98    6.50
   6  -7   5    9.02    3.60
  -6   7  -5    5.24    3.02
  -6   7  -6    1.41    1.88
   6  -7   6    1.13    3.06
   6  -7   6    3.89    4.41
   6  -7   6    3.14    3.72
  -6   7  -6    0.12    2.37
  -6   7  -7   13.67    3.66
   6  -7   7   17.18    7.35
   6  -7   7   11.88    5.96
   6  -7   7   29.45    7.17
  -6   7  -7   11.53    5.34
  -6   7  -8   32.52    5.80
   6  -7   8   27.10    7.41
   6  -7   8   41.71   10.54
  -6   7  -8   29.33    7.83
  -6   7  -9   27.81    5.89
   6  -7   9   37.82   10.34
   6  -7   9   26.21    8.45
  -6   7  -9   16.63    6.20
  -6   7 -10   20.11    5.18
   6  -7  10   18.11    7.07
   6  -7  10   20.88    7.06
  -6   7 -10   11.51    5.25
  -6   7 -11   -4.31    3.87
  -6   7 -11    6.23    3.93
   6  -7  11  -10.20    6.67
   6  -7  12   66.69   12.97
   6  -6  -9    4.53    7.15
  -6   6   9    0.59    3.02
   6  -6  -8  165.52   22.14
  -6   6   8  129.51   19.15
   6  -6  -7  109.71   17.78
  -6   6   7   92.14   15.81
   6  -6  -6   46.32   11.25
  -6   6   6   38.00    9.67
   6  -6  -5   50.78   11.12
  -6   6   5   41.21   10.35
   6  -6  -4  432.09   32.66
   6  -6  -4  366.35   18.63
  -6   6   4  393.30   21.29
   6  -6  -3   47.30   10.80
  -6   6   3   53.79    6.91
   6  -6  -3   48.90    6.68
  -6   6   3   48.27   11.06
  -6   6   2  839.91   24.44
   6  -6  -2  872.12   46.63
   6  -6  -2  800.75   32.50
  -6   6   1  137.49    7.15
   6  -6  -1  126.78   16.52
   6  -6  -1  125.17   11.88
  -6   6   1  168.31   20.59
  -6   6   0    6.29    1.57
   6  -6   0    6.68    2.84
   6  -6   0    5.69    2.74
   6  -6   0    1.07    2.78
  -6   6   0    1.96    2.73
   6  -6   1  420.09   29.74
  -6   6  -1  388.35   26.73
   6  -6   1  381.54   23.63
  -6   6  -1  485.88   35.22
  -6   6  -1  451.62   16.75
   6  -6   2  132.16   15.86
  -6   6  -2  145.40   15.57
  -6   6  -2  154.52   16.35
   6  -6   2  124.26   13.16
  -6   6  -2  155.54   17.38
   6  -6   2  185.20   16.38
  -6   6  -2  148.24   18.79
  -6   6  -2  142.44    9.97
   6  -6   3  311.84   24.33
  -6   6  -3  308.86   22.94
  -6   6  -3  310.55   23.45
  -6   6  -3  330.90   25.88
   6  -6   3  285.35   21.38
   6  -6   3  393.11   24.60
  -6   6  -3  351.98   29.22
   6  -6   4  556.84   33.09
  -6   6  -4  546.35   30.95
  -6   6  -4  487.10   30.37
   6  -6   4  510.90   30.35
   6  -6   4  634.88   32.23
  -6   6  -4  628.54   36.40
  -6   6  -5   10.53    3.47
  -6   6  -5   16.97    5.89
   6  -6   5   14.01    4.04
   6  -6   5   23.35    6.71
  -6   6  -5   19.28    6.18
  -6   6  -6  191.71   13.04
   6  -6   6  210.47   18.92
  -6   6  -6  185.70   17.90
   6  -6   6  208.66   19.46
   6  -6   6  257.60   20.66
  -6   6  -6  197.74   19.03
  -6   6  -7  285.41   17.21
   6  -6   7  306.04   23.83
  -6   6  -7  245.80   20.89
   6  -6   7  263.21   22.33
  -6   6  -8    0.45    2.24
   6  -6   8    6.10    4.06
   6  -6   8   -1.95    2.33
  -6   6  -8    3.29    2.64
  -6   6  -9   85.64   10.09
   6  -6   9   72.99   12.11
   6  -6   9   79.69   12.64
  -6   6  -9   61.93   10.45
  -6   6 -10   27.80    7.04
  -6   6 -10   41.17    7.89
   6  -6  10   26.86    6.91
   6  -6  10   28.74    7.54
  -6   6 -11    2.06    3.81
  -6   6 -11    3.06    2.58
   6  -6  11   -3.50    4.90
   6  -6  11    6.98    4.83
  -6   6 -12   56.71   10.51
  -6   6 -12   54.87    9.66
   6  -6  12   45.03    9.80
   6  -6  12   47.77   10.21
  -6   6 -13   76.37   12.34
  -6   6 -14    3.51    3.26
   6  -5 -11    0.17    4.45
   6  -5 -10   75.55   14.79
  -6   5  10   64.23   12.41
   6  -5  -9   -1.88    3.61
  -6   5   9   -7.13    6.90
   6  -5  -8   46.30   11.18
  -6   5   8   32.86    8.25
   6  -5  -7   13.95    5.96
  -6   5   7   26.05    7.54
   6  -5  -6  110.60   15.73
  -6   5   6  109.29   16.24
  -6   5   5    8.43    2.79
   6  -5  -5    8.97    4.50
   6  -5  -5    9.36    2.44
  -6   5   5    4.36    2.42
  -6   5   5    9.32    4.98
  -6   5   4   82.15    8.20
   6  -5  -4   69.66   12.09
  -6   5   4   78.52    9.89
  -6   5   4   81.27   13.54
  -6   5   3   12.41    2.95
   6  -5  -3    9.15    2.63
   6  -5  -3    4.73    3.75
  -6   5   3   14.53    4.12
  -6   5   3   16.34    6.72
  -6   5   2  237.90   13.37
   6  -5  -2  259.54   22.17
   6  -5  -2  218.95   14.33
  -6   5   2  223.34   15.59
  -6   5   2  251.85   24.70
   6  -5  -1   71.27    8.48
   6  -5  -1   78.60   12.03
  -6   5   1   88.79   10.94
   6  -5  -1   93.67   12.32
  -6   5   1   78.36    7.53
  -6   5   0    4.58    1.98
   6  -5   0    9.59    5.05
  -6   5   0   -1.81    2.36
   6  -5   0    5.80    3.11
  -6   5   0   10.93    3.95
   6  -5   0    7.71    4.03
  -6   5   0   13.47    4.87
   6  -5   1  106.94   13.58
  -6   5  -1  113.04   13.41
  -6   5  -1  107.34   12.80
  -6   5  -1  113.05   13.19
   6  -5   1  139.45   15.42
   6  -5   1   96.87   10.41
  -6   5  -1  127.42   16.57
  -6   5  -1  114.77   10.10
   6  -5   2  141.27   15.09
   6  -5   2  140.83   12.97
  -6   5  -2  146.29   14.91
  -6   5  -2  141.91   14.50
  -6   5  -2  146.85   15.55
   6  -5   2  175.61   17.08
  -6   5  -2  161.48   18.33
   6  -5   3  189.06   17.70
  -6   5  -3  211.52   18.39
  -6   5  -3  197.29   17.17
   6  -5   3  184.90   15.47
  -6   5  -3  214.95   19.13
   6  -5   3  246.73   19.90
  -6   5  -3  216.34   20.76
  -6   5  -4  526.69   29.80
  -6   5  -4  532.19   29.58
   6  -5   4  512.23   28.27
   6  -5   4  653.74   33.35
  -6   5  -4  614.18   33.51
  -6   5  -5   12.07    4.21
   6  -5   5   11.31    4.32
  -6   5  -5   19.32    5.58
   6  -5   5   20.08    6.15
  -6   5  -5   19.50    5.16
   6  -5   6  365.14   23.69
  -6   5  -6  355.42   23.87
   6  -5   6  356.96   24.27
  -6   5  -6  385.45   24.06
   6  -5   7  660.07   33.68
  -6   5  -7  617.73   32.44
   6  -5   7  606.84   33.09
  -6   5  -7  582.36   29.66
  -6   5  -8    5.06    3.16
   6  -5   8    4.74    2.05
   6  -5   8   -1.32    2.82
   6  -5   8   -1.74    2.68
  -6   5  -8    1.55    3.07
  -6   5  -9  312.97   20.56
   6  -5   9  321.12   15.23
   6  -5   9  287.43   23.06
   6  -5   9  326.77   24.46
  -6   5  -9  284.73   21.78
  -6   5 -10   88.50   11.65
  -6   5 -10   95.04   11.69
   6  -5  10   91.75   13.18
   6  -5  10   97.07   13.40
  -6   5 -11   38.85    8.03
  -6   5 -11   41.64    8.12
   6  -5  11   39.31    8.54
   6  -5  11   29.76    7.30
  -6   5 -12  469.18   29.49
   6  -5  12  421.28   29.81
  -6   5 -12  432.81   28.61
   6  -5  12  419.86   30.31
  -6   5 -13  224.28   21.13
   6  -5  13  198.16   20.89
   6  -5  13  211.70   21.03
  -6   5 -14   51.92   10.82
   6  -4 -11   17.53    7.56
   6  -4 -11   14.24    6.28
  -6   4  11   11.21    5.91
   6  -4 -10  173.63   19.67
  -6   4  10  192.71   21.05
   6  -4 -10  187.43   24.27
   6  -4  -9   -0.06    7.48
   6  -4  -9   -0.22    2.85
  -6   4   9    1.45    2.69
   6  -4  -8  279.43   24.37
  -6   4   8  238.45   22.78
   6  -4  -8  288.25   27.30
   6  -4  -7  100.72   14.10
  -6   4   7   74.33   12.10
  -6   4   6   49.97    7.85
   6  -4  -6   43.48    8.76
   6  -4  -6   48.48    5.01
  -6   4   6   55.40   10.83
  -6   4   5   20.33    4.46
   6  -4  -5   19.97    6.38
   6  -4  -5   20.16    3.72
  -6   4   5   19.45    5.80
  -6   4   5   27.74    8.14
  -6   4   4  206.00   14.88
   6  -4  -4  206.22   19.23
  -6   4   4  191.71   16.81
  -6   4   4  195.76   20.41
  -6   4   3   51.98    7.06
   6  -4  -3   46.32    8.79
  -6   4   3   41.26    7.33
   6  -4  -3   52.16    8.40
  -6   4   3   57.53   10.97
   6  -4  -2  204.83   18.31
   6  -4  -2  204.83   12.95
  -6   4   2  216.49   16.42
   6  -4  -2  220.80   18.73
  -6   4   2  253.47   23.26
  -6   4   2  233.11   15.36
  -6   4   1   40.41    6.24
   6  -4  -1   28.14    6.53
  -6   4   1   38.27    6.61
   6  -4  -1   31.66    5.20
   6  -4  -1   45.66    9.35
  -6   4   1   37.45    6.59
   6  -4  -1   38.95    8.38
  -6   4   1   38.18    8.87
  -6   4   0   13.37    4.06
   6  -4   0   13.31    5.10
  -6   4   0   13.91    4.65
  -6   4   0   17.27    4.48
   6  -4   0   15.53    3.66
   6  -4   0   18.08    6.44
  -6   4   0   14.10    4.38
   6  -4   0    9.74    4.32
  -6   4   0   13.59    4.34
  -6   4  -1   22.86    4.94
   6  -4   1   18.77    4.98
  -6   4  -1    9.85    3.32
  -6   4  -1   21.25    5.16
   6  -4   1   24.23    5.88
   6  -4   1   14.43    3.84
  -6   4  -1   13.41    4.31
   6  -4   1   11.83    4.55
  -6   4  -1   12.92    4.44
   6  -4   2   59.21    7.93
  -6   4  -2   74.34   10.29
   6  -4   2   66.79    9.62
   6  -4   2   87.91   12.53
  -6   4  -2   58.62    8.50
   6  -4   2   67.39   11.92
  -6   4  -2   64.02    9.18
  -6   4  -2   83.34   11.71
  -6   4  -3    2.55    2.88
  -6   4  -3    0.57    2.46
   6  -4   3    2.68    1.61
   6  -4   3    1.22    2.76
  -6   4  -3    2.15    2.42
   6  -4   3   -2.48    4.67
  -6   4  -3    6.33    4.49
  -6   4  -4   27.88    6.11
  -6   4  -4   43.46    8.22
   6  -4   4   35.78    6.22
   6  -4   4   44.55    8.27
   6  -4   4   34.74    8.26
  -6   4  -4   48.15    7.76
   6  -4   5   21.24    4.43
  -6   4  -5   23.46    5.64
  -6   4  -5   17.64    4.32
   6  -4   5   12.36    3.98
   6  -4   5   26.61    6.71
  -6   4  -5   19.58    5.13
   6  -4   6   44.77    5.81
   6  -4   6   39.59    6.76
  -6   4  -6   31.83    6.68
   6  -4   6   33.37    6.68
   6  -4   6   51.59    9.81
  -6   4  -6   39.66    7.27
  -6   4  -6   40.65    6.28
  -6   4  -7  146.53   11.94
   6  -4   7  169.84   11.57
   6  -4   7  163.45   14.57
  -6   4  -7  162.74   14.85
   6  -4   7  141.37   14.14
   6  -4   8    5.19    2.17
   6  -4   8   -0.95    1.91
   6  -4   8   -0.89    2.74
  -6   4  -8    1.78    1.28
  -6   4  -8    2.16    2.02
  -6   4  -9   33.34    7.11
  -6   4  -9   25.78    4.64
   6  -4   9   32.46    5.00
   6  -4   9   25.06    5.89
   6  -4   9   30.92    6.78
  -6   4 -10   21.54    5.44
  -6   4 -10   24.15    4.89
   6  -4  10   24.22    4.30
   6  -4  10   10.93    3.33
   6  -4  10   17.17    5.68
  -6   4 -11    5.44    3.15
  -6   4 -11    4.11    3.52
   6  -4  11    0.90    1.49
   6  -4  11    4.92    3.37
   6  -4  11    4.25    2.24
  -6   4 -12  255.56   21.45
   6  -4  12  255.13   20.87
  -6   4 -12  264.89   21.49
   6  -4  12  234.42   21.06
  -6   4 -13  195.35   19.61
   6  -4  13  184.19   18.88
   6  -4  13  184.59   18.23
  -6   4 -13  219.90   20.11
  -6   4 -14   47.13   10.67
   6  -4  14   59.34   10.94
   6  -3 -12   86.44   19.65
  -6   3  12   68.82   12.76
   6  -3 -11    6.80    7.03
   6  -3 -11   10.70    5.58
  -6   3  11   -1.70    4.37
   6  -3 -10  162.37   17.42
  -6   3  10  185.95   18.23
  -6   3  10  150.84   17.81
   6  -3 -10  202.84   27.37
   6  -3  -9    9.40    6.35
   6  -3  -9   13.43    4.85
  -6   3   9   18.11    6.48
   6  -3  -8  290.08   23.01
  -6   3   8  295.00   23.89
   6  -3  -8  302.66   30.60
   6  -3  -7  244.92   20.48
  -6   3   7  228.67   20.21
   6  -3  -7  243.83   25.37
   6  -3  -6   30.22    6.82
  -6   3   6   19.33    5.14
  -6   3   5  301.02   20.71
   6  -3  -5  299.45   21.71
  -6   3   5  305.63   14.01
   6  -3  -5  289.13   14.55
  -6   3   5  301.86   23.90
  -6   3   4  416.92   24.19
   6  -3  -4  385.30   24.84
  -6   3   4  416.41   17.62
   6  -3  -4  418.53   18.11
  -6   3   4  395.70   26.22
   6  -3  -4  403.19   22.29
  -6   3   4  418.00   28.77
   6  -3  -3  210.08   17.41
  -6   3   3  198.97   14.41
  -6   3   3  235.15   12.86
  -6   3   3  228.00   18.58
   6  -3  -3  219.68   16.08
  -6   3   3  234.44   21.34
  -6   3   3  241.28   17.74
   6  -3  -2 1214.48   46.84
  -6   3   2 1221.28   45.14
  -6   3   2 1271.89   38.45
  -6   3   2 1242.28   47.74
   6  -3  -2 1403.17   61.93
   6  -3  -2 1256.37   45.55
  -6   3   2 1381.36   56.31
  -6   3   2 1279.04   47.08
   6  -3  -1  256.53   18.76
  -6   3   1  254.61   19.40
   6  -3  -1  261.70   14.86
  -6   3   1  266.42   18.07
   6  -3  -1  327.58   27.17
  -6   3   1  256.41   14.52
  -6   3   1  278.76   19.12
   6  -3  -1  272.50   19.55
  -6   3   1  280.15   22.55
  -6   3   1  278.19   19.51
  -6   3   1  286.32   20.87
  -6   3   0  121.49   13.06
   6  -3   0  134.59   13.28
  -6   3   0  135.87   11.14
  -6   3   0  144.37   14.13
  -6   3   0  126.54   12.21
  -6   3   0  153.10   11.09
   6  -3   0  135.86   10.73
   6  -3   0  195.49   20.30
  -6   3   0  133.80   12.62
   6  -3   0  139.14   14.91
  -6   3   0  163.62   16.05
  -6   3   0  135.42   13.82
  -6   3  -1  814.84   35.79
   6  -3   1  798.41   34.67
  -6   3  -1  858.24   37.35
  -6   3  -1  817.97   31.43
  -6   3  -1  773.20   33.22
  -6   3  -1  846.36   30.48
   6  -3   1  772.12   30.16
   6  -3   1  868.02   42.77
  -6   3  -1  837.37   37.40
  -6   3  -2   76.45    9.62
   6  -3   2   70.24    8.11
  -6   3  -2   78.62   10.49
  -6   3  -2   64.79    8.59
  -6   3  -2   71.81    8.55
  -6   3  -2   81.78    8.53
   6  -3   2   78.89    8.42
   6  -3   2   68.50   10.97
  -6   3  -2   87.22   10.78
   6  -3   2   75.26   12.19
  -6   3  -3  229.43   16.51
   6  -3   3  208.47   14.20
  -6   3  -3  213.35   17.15
  -6   3  -3  203.95   15.46
  -6   3  -3  217.07   16.23
  -6   3  -3  231.58   15.07
   6  -3   3  198.84   14.49
   6  -3   3  198.11   18.45
   6  -3   3  203.03   19.16
  -6   3  -4  379.95   21.58
   6  -3   4  382.66   19.54
  -6   3  -4  306.37   21.36
  -6   3  -4  342.32   20.63
  -6   3  -4  375.96   20.20
   6  -3   4  365.81   20.44
   6  -3   4  375.51   25.54
  -6   3  -4  356.56   19.62
   6  -3   4  367.72   24.62
  -6   3  -5   19.88    4.72
   6  -3   5   14.48    3.27
  -6   3  -5    9.23    3.28
   6  -3   5   18.03    4.40
  -6   3  -5   13.13    2.84
   6  -3   5   14.23    5.07
   6  -3   5    5.53    2.08
  -6   3  -5   16.89    4.42
   6  -3   6  361.84   18.01
   6  -3   6  407.14   19.86
  -6   3  -6  393.55   22.68
   6  -3   6  374.05   21.99
   6  -3   6  396.55   26.79
   6  -3   6  369.04   23.44
  -6   3  -6  360.03   16.76
  -6   3  -7  350.12   15.95
   6  -3   7  399.13   19.60
   6  -3   7  350.33   19.18
  -6   3  -7  360.64   22.01
   6  -3   7  355.59   21.81
  -6   3  -8   -0.30    2.38
  -6   3  -8    0.90    1.07
   6  -3   8    0.29    1.41
   6  -3   8   -3.31    2.68
   6  -3   8   -0.46    2.57
  -6   3  -9    1.33    1.76
   6  -3   9    3.27    2.67
  -6   3  -9    5.75    2.22
   6  -3   9    6.13    2.22
   6  -3   9    4.12    1.64
   6  -3  10    8.54    3.39
  -6   3 -10    8.68    3.66
   6  -3  10    8.99    3.36
   6  -3  10    8.10    4.00
  -6   3 -11    3.78    3.35
   6  -3  11   -1.57    3.37
   6  -3  11    4.70    2.74
   6  -3  11   -2.86    3.14
  -6   3 -12  178.93   18.06
   6  -3  12  182.88   13.86
   6  -3  12  173.96   17.05
   6  -3  12  171.49   15.69
  -6   3 -12  200.15   18.05
  -6   3 -13  114.40   14.89
  -6   3 -13   93.04   12.84
   6  -3  13  107.32   13.43
   6  -3  13   94.58   11.87
  -6   3 -14   -2.61    6.08
  -6   3 -14    9.22    4.74
   6  -3  14   10.74    4.70
   6  -3  15    4.84    4.36
   6  -2 -12   70.50   18.63
  -6   2  12   93.11   14.11
   6  -2 -11    4.93    5.78
  -6   2  11    4.98    4.09
   6  -2 -10   53.76   14.78
   6  -2 -10   44.09    8.11
  -6   2  10   37.17    7.82
  -6   2  10   43.67    7.35
  -6   2  10   36.85    8.47
   6  -2  -9   11.00    7.75
  -6   2   9   18.15    5.69
   6  -2  -9    6.27    3.05
  -6   2   9    4.44    2.40
  -6   2   9   14.52    5.04
   6  -2  -8   73.06   16.39
   6  -2  -8   59.36    9.17
  -6   2   8   55.46    8.63
  -6   2   8   65.33    8.77
  -6   2   8   57.50    9.54
   6  -2  -7   46.89   12.07
   6  -2  -7   46.01    7.84
  -6   2   7   52.65    7.51
  -6   2   7   56.28    9.19
   6  -2  -6   69.12    9.26
  -6   2   6   86.05    9.93
  -6   2   6   79.46    6.25
  -6   2   6   90.75   11.39
  -6   2   5    4.56    2.47
  -6   2   5    3.32    2.03
   6  -2  -5    0.75    3.02
  -6   2   5    2.37    0.99
   6  -2  -5    3.19    1.46
  -6   2   5    4.16    1.46
  -6   2   5   -1.00    3.24
   6  -2  -4  117.85   12.02
  -6   2   4  124.50   11.50
  -6   2   4  116.66    8.35
   6  -2  -4  123.07    9.34
  -6   2   4  126.11   15.49
  -6   2   4  115.11   13.47
  -6   2   4  114.64   14.46
  -6   2   4  114.96   13.53
  -6   2   3   14.64    5.18
  -6   2   3   14.54    3.50
  -6   2   3   21.62    6.28
   6  -2  -3   12.83    3.88
  -6   2   3   12.93    2.87
  -6   2   3   13.70    5.04
   6  -2  -3   10.69    3.09
  -6   2   3   12.00    3.49
  -6   2   3    5.27    1.91
   6  -2  -2  350.88   20.62
  -6   2   2  374.41   19.56
  -6   2   2  359.16   22.82
  -6   2   2  346.40   19.78
  -6   2   2  359.41   16.55
   6  -2  -2  399.31   32.84
  -6   2   2  346.45   23.94
   6  -2  -2  359.40   18.46
  -6   2   2  375.93   24.87
  -6   2   2  337.89   23.81
  -6   2   2  362.64   23.47
  -6   2   1   71.18    9.55
  -6   2   1   70.91   10.69
  -6   2   1   69.90    7.77
   6  -2  -1   60.74    8.02
  -6   2   1   64.52    8.21
  -6   2   1   62.54    8.88
  -6   2   1   63.94    6.60
  -6   2   1   79.06   10.44
   6  -2  -1   76.83   14.10
   6  -2  -1   68.79    8.14
  -6   2   1   68.99    9.91
  -6   2   0  174.26   14.59
   6  -2   0  144.81   12.64
  -6   2   0  154.74   14.36
  -6   2   0  144.81   12.30
   6  -2   0  176.91   20.35
   6  -2   0  152.27   11.05
  -6   2   0  175.13   15.30
   6  -2   0  165.90   14.12
  -6   2   0  153.88   10.71
  -6   2   0  158.55   13.74
  -6   2   0  154.52   15.95
  -6   2  -1  538.85   25.95
  -6   2  -1  486.48   21.22
   6  -2   1  508.21   24.55
  -6   2  -1  476.06   20.19
  -6   2  -1  499.87   26.86
  -6   2  -1  481.64   23.74
   6  -2   1  491.72   21.88
   6  -2   1  539.30   34.52
  -6   2  -1  481.15   25.92
   6  -2   1  482.85   28.12
  -6   2  -1  509.26   24.12
  -6   2  -2  109.77   10.74
   6  -2   2  112.50   10.58
  -6   2  -2  107.87   11.78
  -6   2  -2   92.39    8.34
  -6   2  -2  101.83   10.13
  -6   2  -2   99.64    9.07
   6  -2   2   94.45    9.08
   6  -2   2   99.91   12.68
   6  -2   2   87.90   13.12
  -6   2  -2   99.09    9.70
  -6   2  -3  372.91   20.67
   6  -2   3  366.48   19.77
  -6   2  -3  342.51   21.90
  -6   2  -3  339.93   19.65
  -6   2  -3  367.13   18.67
  -6   2  -3  331.91   17.83
   6  -2   3  305.15   23.53
   6  -2   3  364.06   19.01
   6  -2   3  331.76   22.80
  -6   2  -4  670.43   28.54
   6  -2   4  599.11   26.41
  -6   2  -4  585.53   30.02
  -6   2  -4  581.07   27.07
  -6   2  -4  628.55   26.25
   6  -2   4  607.91   26.36
   6  -2   4  601.13   33.49
  -6   2  -4  605.47   21.78
   6  -2   4  570.07   29.15
  -6   2  -5    2.66    1.03
  -6   2  -5    4.07    1.97
   6  -2   5    1.50    1.77
  -6   2  -5    3.61    1.87
  -6   2  -5    2.35    1.48
   6  -2   5    4.49    2.24
   6  -2   5    0.54    2.66
   6  -2   5    2.03    2.38
  -6   2  -5    2.81    1.89
  -6   2  -6 1378.37   45.50
  -6   2  -6 1232.48   32.78
   6  -2   6 1373.98   43.87
  -6   2  -6 1314.33   45.59
   6  -2   6 1293.30   44.78
   6  -2   6 1342.35   53.23
   6  -2   6 1310.28   46.47
  -6   2  -7  890.96   25.52
   6  -2   7 1006.07   35.72
   6  -2   7  911.08   29.82
   6  -2   7 1032.34   36.55
   6  -2   7  948.03   36.96
  -6   2  -7  911.08   37.18
   6  -2   7  948.80   37.95
  -6   2  -8   44.29    7.66
   6  -2   8   55.72    7.34
   6  -2   8   44.67    7.45
   6  -2   8   44.09    6.09
   6  -2   9  315.22   18.58
   6  -2   9  284.99   19.42
   6  -2   9  283.02   17.53
  -6   2  -9  292.37   20.05
  -6   2 -10   77.30   10.38
   6  -2  10   55.32    7.49
   6  -2  10   66.92    8.43
   6  -2  10   71.13    9.76
  -6   2 -11   58.34    9.43
   6  -2  11   56.18    7.68
   6  -2  11   68.33    8.90
   6  -2  11   61.56    9.33
   6  -2  12  760.49   33.04
  -6   2 -12  679.40   35.54
   6  -2  12  682.80   31.32
   6  -2  12  725.50   35.04
   6  -2  13  181.95   15.36
   6  -2  13  168.94   16.34
  -6   2 -13  172.06   17.32
   6  -2  13  183.20   15.48
  -6   2 -14  110.11   15.75
   6  -2  14  128.22   13.25
  -6   2 -14  159.70   17.23
   6  -2  14  125.53   14.60
  -6   2 -15   36.41    8.75
   6  -2  15   32.45    7.59
   6  -2  16    3.43    3.61
  -6   1  12   69.35   11.70
   6  -1 -11   41.16   14.62
  -6   1  11   30.76    8.01
  -6   1  11   29.79    7.44
   6  -1 -10  202.46   15.92
  -6   1  10  202.89   19.35
  -6   1  10  180.36   17.58
   6  -1 -10  245.07   33.66
   6  -1  -9    5.70    7.84
  -6   1   9    9.18    4.15
   6  -1  -9   16.25    4.61
  -6   1   9   15.28    5.04
  -6   1   9    8.58    3.35
   6  -1  -8  194.97   15.29
  -6   1   8  219.70   17.79
  -6   1   8  210.80   14.82
  -6   1   8  189.14   16.63
   6  -1  -8  201.78   28.10
   6  -1  -7   69.99   15.55
   6  -1  -7   72.00    8.95
  -6   1   7   79.93   14.59
  -6   1   7   76.11   10.09
  -6   1   7   77.57    8.67
  -6   1   7   67.16    5.84
  -6   1   7   61.18    9.00
   6  -1  -6   94.83   16.80
   6  -1  -6   79.62    9.31
  -6   1   6   62.22   12.46
  -6   1   6   79.89    9.74
  -6   1   6   66.87    8.21
  -6   1   6   77.65    6.50
  -6   1   6   84.65   10.21
  -6   1   5   60.13   10.70
  -6   1   5   55.94    7.58
   6  -1  -5   46.88    7.13
  -6   1   5   54.31    5.52
  -6   1   5   55.05    7.05
  -6   1   5   56.20    8.00
  -6   1   4   71.45   11.58
   6  -1  -4   63.24    8.10
  -6   1   4   85.09    8.83
  -6   1   4   77.41    8.40
  -6   1   4   65.85    6.26
  -6   1   4   59.03    8.14
  -6   1   4   81.86   11.49
  -6   1   3   23.34    5.98
  -6   1   3   33.08    5.63
  -6   1   3   31.29    6.36
   6  -1  -3   27.25    5.44
  -6   1   3   28.23    4.27
  -6   1   3   31.52    7.85
  -6   1   3   32.02    5.48
  -6   1   3   32.53    6.49
  -6   1   2  107.60   11.68
   6  -1  -2  108.47   10.24
  -6   1   2  115.21   10.32
  -6   1   2  102.76   11.42
  -6   1   2  113.91   10.25
  -6   1   2  107.81    8.52
  -6   1   2  101.92   13.53
   6  -1  -2  119.83   18.09
   6  -1  -2  105.70    8.04
  -6   1   2  120.27   12.03
  -6   1   2  108.67   14.13
  -6   1   1   76.17    9.36
  -6   1   1   67.03   11.18
  -6   1   1   72.66    8.09
  -6   1   1   71.15    9.37
  -6   1   1   66.55    7.77
  -6   1   1   64.60    6.62
   6  -1  -1   68.45   13.05
   6  -1  -1   65.43    6.25
  -6   1   1   62.83    7.86
  -6   1   1   80.50   11.39
  -6   1   0   12.01    5.22
  -6   1   0    5.95    2.25
  -6   1   0   18.91    4.74
   6  -1   0   11.60    4.15
  -6   1   0   12.77    4.53
  -6   1   0    8.83    2.36
   6  -1   0    8.65    2.54
   6  -1   0   10.05    4.51
  -6   1   0   10.74    4.30
   6  -1   0    8.29    2.98
  -6   1   0    7.82    2.96
  -6   1   0    8.92    2.54
  -6   1  -1   86.02    9.33
   6  -1   1   90.12    9.85
  -6   1  -1   81.85    9.96
  -6   1  -1   85.37    8.86
   6  -1   1   96.24    8.79
  -6   1  -1   87.55   11.23
  -6   1  -1   85.14    8.02
   6  -1   1  102.34   14.88
   6  -1   1   92.31    9.78
  -6   1  -1   84.92    7.56
  -6   1  -2   12.15    3.34
   6  -1   2   14.05    4.15
  -6   1  -2   17.78    4.79
   6  -1   2   19.08    3.87
  -6   1  -2   19.93    3.18
  -6   1  -2   16.52    3.46
   6  -1   2   14.99    5.80
   6  -1   2   12.94    3.77
  -6   1  -2   16.50    4.19
  -6   1  -3   34.52    5.68
   6  -1   3   31.91    5.68
  -6   1  -3   29.82    6.36
  -6   1  -3   33.56    5.20
   6  -1   3   32.73    5.36
   6  -1   3   28.25    6.16
   6  -1   3   32.82    6.29
  -6   1  -3   27.32    3.52
  -6   1  -3   30.82    5.36
  -6   1  -4   23.37    4.54
   6  -1   4   22.49    4.77
  -6   1  -4   21.58    5.57
  -6   1  -4   23.91    4.76
   6  -1   4   26.00    4.73
   6  -1   4   21.51    6.41
   6  -1   4   24.13    4.65
  -6   1  -4   23.33    1.79
   6  -1   4   18.51    3.99
  -6   1  -4   31.64    5.72
  -6   1  -5   13.47    3.51
  -6   1  -5   13.93    3.84
   6  -1   5   12.23    3.77
  -6   1  -5    9.05    2.98
  -6   1  -5   14.29    3.59
   6  -1   5   16.04    4.02
   6  -1   5   18.34    5.96
   6  -1   5   16.07    3.72
   6  -1   5   13.03    3.75
  -6   1  -6  405.93   21.36
   6  -1   6  370.87   20.86
   6  -1   6  398.10   20.76
  -6   1  -6  379.48   20.62
  -6   1  -6  357.08   20.72
   6  -1   6  380.21   20.42
   6  -1   6  380.53   25.45
   6  -1   6  380.09   20.55
   6  -1   7  343.96   11.27
   6  -1   7  370.76   20.87
   6  -1   7  367.57   20.01
   6  -1   7  341.38   19.79
  -6   1  -7  341.91   20.58
   6  -1   7  364.90   20.50
  -6   1  -8   19.18    4.78
   6  -1   8   27.62    5.73
   6  -1   8   21.98    5.54
   6  -1   8   18.36    3.05
   6  -1   9   23.16    3.94
  -6   1  -9   18.50    5.28
   6  -1   9   11.97    3.85
   6  -1   9   19.83    4.82
  -6   1 -10    7.31    3.99
   6  -1  10    4.35    1.81
   6  -1  10    2.99    2.68
   6  -1  10    2.10    3.16
  -6   1 -11   33.64    6.81
   6  -1  11   37.32    5.79
   6  -1  11   49.77    8.29
   6  -1  11   39.25    7.40
   6  -1  12  740.01   34.88
   6  -1  12  733.35   34.17
  -6   1 -12  723.05   36.43
   6  -1  12  688.86   29.12
   6  -1  13  260.03   19.82
   6  -1  13  215.33   18.06
  -6   1 -13  216.21   19.63
   6  -1  13  221.50   15.77
   6  -1  14  157.15   15.88
   6  -1  14  149.22   15.06
  -6   1 -14  143.34   16.57
  -6   1 -15   71.11   13.54
  -6   1 -15   49.84    9.87
   6  -1  15   56.39    9.52
   6  -1  15   58.05    9.56
   6  -1  16    1.12    3.01
   6   0 -11   34.91   13.06
  -6   0  11   40.09    9.52
  -6   0  11   40.91    8.22
   6   0 -10  124.47   23.82
  -6   0  10  139.35   15.78
  -6   0  10  118.08   13.73
   6   0  -9   37.78   13.33
   6   0  -9   43.85    6.48
  -6   0   9   59.77   10.06
  -6   0   9   39.35    7.75
  -6   0   9   46.87    6.25
   6   0  -8  389.19   20.21
  -6   0   8  418.27   25.63
  -6   0   8  433.84   20.38
  -6   0   8  380.50   22.79
   6   0  -8  423.12   41.49
   6   0  -7  298.45   17.38
  -6   0   7  325.93   21.04
  -6   0   7  328.24   17.54
  -6   0   7  321.82   14.94
  -6   0   7  311.80   19.37
  -6   0   7  271.86   25.13
   6   0  -7  344.19   36.05
   6   0  -6   29.55    9.38
  -6   0   6   27.41    7.24
   6   0  -6   30.25    5.37
  -6   0   6   29.10    4.23
  -6   0   6   23.95    5.02
  -6   0   6   24.09    5.46
  -6   0   6   25.44    4.91
   6   0  -5  356.54   18.47
  -6   0   5  351.99   19.81
  -6   0   5  369.62   18.47
  -6   0   5  342.70   16.15
  -6   0   5  347.08   19.48
  -6   0   5  352.07   25.04
  -6   0   4  389.48   19.77
  -6   0   4  370.81   18.71
  -6   0   4  368.49   17.11
  -6   0   4  391.96   20.87
  -6   0   4  379.00   24.19
  -6   0   3  154.22   13.95
  -6   0   3  181.39   13.60
  -6   0   3  173.95   11.86
  -6   0   3  177.03   12.39
  -6   0   3  163.45   10.75
  -6   0   3  170.12   19.32
  -6   0   3  163.93   13.35
  -6   0   3  155.91   18.35
  -6   0   2  883.92   35.43
  -6   0   2  919.43   33.88
  -6   0   2  888.24   29.79
  -6   0   2  919.78   37.40
  -6   0   2  913.16   32.25
  -6   0   2  925.41   30.44
   6   0  -2  783.50   50.31
  -6   0   2  862.99   44.58
  -6   0   2  908.90   32.13
  -6   0   2  728.92   42.58
  -6   0   1  131.69   11.60
  -6   0   1  147.01   11.65
  -6   0   1  145.75    9.32
   6   0  -1  131.08   12.84
  -6   0   1  124.71   12.43
  -6   0   1  153.24   11.40
  -6   0   1  137.69   10.08
   6   0  -1  153.19   20.02
   6   0  -1  136.44   10.55
  -6   0   1  139.54   16.16
   6   0  -1  134.30    7.18
  -6   0   1  135.39    8.60
  -6   0   1  120.74   15.67
  -6   0   0  518.81   23.87
  -6   0   0  511.26   22.92
  -6   0   0  528.08   18.27
   6   0   0  491.62   25.55
  -6   0   0  498.42   26.02
  -6   0   0  505.07   21.48
  -6   0   0  511.08   22.58
   6   0   0  515.35   22.18
   6   0   0  533.38   37.00
  -6   0   0  523.13   31.17
   6   0   0  478.76   16.54
  -6   0   0  508.26   16.86
  -6   0   0  430.20   30.29
  -6   0  -1  710.44   28.77
  -6   0  -1  684.14   27.17
  -6   0  -1  688.38   20.49
  -6   0  -1  705.60   35.57
   6   0   1  687.89   30.67
  -6   0  -1  671.85   31.20
  -6   0  -1  680.79   27.26
  -6   0  -1  692.29   26.37
   6   0   1  672.40   26.54
   6   0   1  704.94   40.72
   6   0   1  674.83   24.24
  -6   0  -2   34.00    2.91
  -6   0  -2   38.26    5.45
  -6   0  -2   33.06    5.47
   6   0   2   37.71    6.73
  -6   0  -2   33.81    6.56
  -6   0  -2   36.73    5.44
   6   0   2   36.65    5.46
   6   0   2   32.68    7.79
  -6   0  -2   36.70    7.50
   6   0   2   29.64    5.09
   6   0   2   23.92    4.72
  -6   0  -2   37.33    5.67
  -6   0  -3   20.09    4.26
  -6   0  -3   31.55    5.46
   6   0   3   22.53    4.95
  -6   0  -3   23.51    4.34
  -6   0  -3   24.96    5.68
   6   0   3   28.52    4.92
   6   0   3   16.96    5.42
   6   0   3   23.66    4.53
   6   0   3   20.25    3.96
  -6   0  -4  111.37   10.46
   6   0   4  111.57   10.03
   6   0   4  120.90   11.68
  -6   0  -4  127.28   12.71
   6   0   4  111.61   10.19
  -6   0  -4  122.27   10.49
   6   0   4  117.36   13.73
   6   0   4  114.16    9.52
  -6   0  -5    2.48    1.91
   6   0   5    4.38    2.44
  -6   0  -5    3.03    1.78
   6   0   5    3.87    2.31
   6   0   5    5.91    4.86
   6   0   5    6.85    2.71
   6   0   5    4.11    2.29
  -6   0  -6  750.65   30.44
   6   0   6  724.86   32.17
   6   0   6  748.61   30.39
   6   0   6  768.87   30.22
  -6   0  -6  727.88   30.95
   6   0   6  716.77   36.18
   6   0   7  388.33   22.93
   6   0   7  413.09   21.58
  -6   0  -7  390.54   21.21
   6   0   7  369.01   20.25
  -6   0  -7  396.39   22.14
  -6   0  -8   10.51    3.86
   6   0   8    9.37    3.36
   6   0   8   16.28    4.13
   6   0   8   10.15    1.45
   6   0   9   85.24   10.83
   6   0   9   79.03    9.46
  -6   0  -9   91.79   10.79
   6   0   9   88.53    6.52
  -6   0 -10    2.23    2.53
   6   0  10    4.35    1.96
   6   0  10    1.42    1.87
   6   0  10    1.33    2.09
  -6   0 -11    1.75    2.49
   6   0  11   -2.68    3.78
   6   0  11   -1.34    0.98
   6   0  11    2.81    2.49
   6   0  12  329.04   23.85
   6   0  12  310.29   20.47
  -6   0 -12  316.24   23.20
   6   0  12  302.73   16.27
  -6   0 -13   62.74   10.50
   6   0  13   71.03   11.18
   6   0  13   69.54    9.53
   6   0  13   64.77    7.67
  -6   0 -14   34.23    8.86
   6   0  14   39.72    8.05
   6   0  14   45.91    8.08
  -6   0 -15    0.42    3.61
  -6   0 -15    5.20    3.75
   6   0  15    1.20    2.89
   6   0  15    3.64    3.23
  -6   0 -16   -2.39    3.40
   6   0  16    3.14    2.59
   6   0  16    1.49    2.02
   6   1 -11   11.57   10.37
  -6  -1  11    1.89    3.23
   6   1 -10   89.43   20.59
  -6  -1  10   70.96   11.50
  -6  -1  10   74.39   10.26
   6   1  -9   -0.05    7.20
  -6  -1   9   -2.24    2.77
  -6  -1   9    9.32    5.18
  -6  -1   8   98.62    8.22
  -6  -1   8   88.58    9.93
  -6  -1   8   92.65   11.64
  -6  -1   7   53.25    8.35
   6   1  -7   64.04   15.14
  -6  -1   7   76.42   11.77
  -6  -1   7   65.83    6.73
  -6  -1   7   53.20    6.21
  -6  -1   7   59.58    7.58
   6   1  -6   17.60    7.89
  -6  -1   6   15.91    4.45
  -6  -1   6   14.32    4.83
  -6  -1   6   18.55    3.77
  -6  -1   6   18.52    4.10
  -6  -1   6   20.09    3.75
  -6  -1   5  157.16   12.81
  -6  -1   5  176.95   11.44
  -6  -1   5  143.78   10.93
  -6  -1   5  176.89   11.92
  -6  -1   5  145.16   14.76
  -6  -1   4  111.14    9.98
  -6  -1   4  101.36    8.74
  -6  -1   4  100.58    8.88
  -6  -1   4  109.61    8.95
  -6  -1   4  113.50   11.89
  -6  -1   3   40.93    5.80
  -6  -1   3   29.17    8.21
  -6  -1   3   45.67    7.06
  -6  -1   3   41.39    7.19
  -6  -1   3   44.25    5.78
  -6  -1   3   39.08    5.27
  -6  -1   3   38.97    5.36
  -6  -1   2  613.25   27.02
  -6  -1   2  646.77   23.97
  -6  -1   2  592.34   26.55
  -6  -1   2  615.42   24.60
   6   1  -2  596.03   30.50
  -6  -1   2  595.17   28.99
  -6  -1   2  609.83   24.26
   6   1  -2  579.87   41.96
   6   1  -2  612.40   26.35
  -6  -1   2  582.10   37.49
  -6  -1   2  621.77   18.41
  -6  -1   2  499.70   35.37
  -6  -1   1   55.53   11.02
  -6  -1   1   87.43    8.77
  -6  -1   1   75.49    6.72
  -6  -1   1   79.76    8.52
  -6  -1   1   76.52    9.57
   6   1  -1   74.16    9.62
  -6  -1   1   87.24    8.23
  -6  -1   1   86.34    8.29
   6   1  -1   83.73    8.58
   6   1  -1   88.66   15.60
  -6  -1   1   83.36   13.10
  -6  -1   0  830.75   31.70
  -6  -1   0  855.73   26.41
  -6  -1   0  851.57   31.61
   6   1   0  869.60   36.53
   6   1   0  858.72   31.85
  -6  -1   0  867.23   35.60
  -6  -1   0  857.61   30.76
  -6  -1   0  855.58   30.48
   6   1   0  921.78   49.08
   6   1   0  880.87   31.98
  -6  -1   0  866.68   43.36
  -6  -1   0  703.89   41.22
  -6  -1  -1 1027.44   35.60
  -6  -1  -1 1070.56   35.39
   6   1   1 1041.86   40.09
  -6  -1  -1  966.08   38.80
   6   1   1 1017.35   35.37
  -6  -1  -1 1042.04   34.89
  -6  -1  -1  985.79   34.30
   6   1   1 1047.20   35.39
   6   1   1 1057.19   50.82
  -6  -1  -1 1043.45   46.66
   6   1   1  960.01   23.09
  -6  -1  -1 1010.59   27.92
  -6  -1  -2   32.42    5.36
  -6  -1  -2   33.28    5.11
  -6  -1  -2   26.32    4.78
   6   1   2   29.74    6.00
  -6  -1  -2   24.77    5.31
  -6  -1  -2   32.60    5.20
   6   1   2   33.66    5.47
   6   1   2   29.26    8.01
  -6  -1  -2   30.52    2.98
  -6  -1  -2   29.69    6.86
   6   1   2   26.60    3.72
   6   1   2   34.87    5.50
  -6  -1  -3  286.37   15.76
   6   1   3  303.29   19.38
  -6  -1  -3  236.56   17.89
   6   1   3  288.62   16.75
  -6  -1  -3  302.12   16.70
  -6  -1  -3  266.21   16.04
   6   1   3  273.47   15.90
   6   1   3  265.15   21.71
   6   1   3  261.58   13.33
  -6  -1  -4  711.95   26.37
   6   1   4  691.33   31.64
   6   1   4  710.67   28.68
  -6  -1  -4  694.83   28.10
   6   1   4  653.67   26.89
  -6  -1  -4  685.35   28.49
   6   1   4  623.67   34.07
   6   1   4  642.52   23.46
  -6  -1  -5    3.65    1.86
  -6  -1  -5    4.72    2.22
   6   1   5    6.75    3.75
  -6  -1  -5    3.52    1.76
   6   1   5    7.27    2.89
   6   1   5    2.39    2.24
   6   1   5    3.18    1.95
   6   1   6 2090.49   66.30
   6   1   6 2150.91   62.08
  -6  -1  -6 2122.98   61.08
   6   1   6 2052.16   59.77
  -6  -1  -6 2110.30   62.88
   6   1   6 1918.21   67.70
   6   1   7  578.69   30.34
   6   1   7  593.57   27.00
  -6  -1  -7  589.12   26.87
   6   1   7  558.62   25.54
  -6  -1  -7  574.13   27.71
   6   1   7  559.99   31.34
   6   1   8   87.68   11.41
   6   1   8   86.44    9.32
  -6  -1  -8   72.18    9.63
   6   1   9  168.54   16.51
   6   1   9  177.09   13.60
  -6  -1  -9  157.35   14.54
   6   1   9  143.34    7.11
  -6  -1 -10    3.79    3.71
   6   1  10    1.98    2.35
   6   1  10    7.17    3.36
   6   1  10    3.47    1.06
  -6  -1 -11   69.31   10.75
   6   1  11   66.13    8.62
   6   1  11   55.06    5.67
   6   1  11   62.79   10.46
   6   1  12  858.12   43.48
   6   1  12  848.53   35.62
  -6  -1 -12  833.65   40.74
   6   1  12  798.45   28.26
   6   1  13   44.81    6.11
  -6  -1 -13   56.12   10.06
   6   1  13   30.95    7.10
   6   1  13   52.84    8.29
   6   1  14  113.70   15.60
   6   1  14  116.01   12.45
  -6  -1 -14  115.41   15.38
  -6  -1 -15    6.63    4.66
   6   1  15   -2.48    2.85
   6   1  15    0.72    2.39
  -6  -1 -16   10.47    6.74
  -6  -1 -16    2.86    3.70
   6   1  16    0.72    2.88
   6   1  16    7.12    3.89
  -6  -1 -17   10.83    6.68
   6   2 -11   26.33    7.14
   6   2 -10   46.45    8.61
  -6  -2  10   63.17   10.53
   6   2  -9   13.21    4.26
  -6  -2   9   15.76    5.59
  -6  -2   9   10.68    3.40
   6   2  -8  125.87   23.32
  -6  -2   8  101.25   12.76
   6   2  -8  100.08   12.01
  -6  -2   8   99.58   10.08
   6   2  -7   57.72   14.36
   6   2  -7   60.54    9.03
  -6  -2   7   52.08    8.57
  -6  -2   7   63.11    5.86
  -6  -2   7   52.86    6.94
  -6  -2   7   51.93    6.43
  -6  -2   6    3.51    1.98
  -6  -2   6    4.01    3.27
   6   2  -6    0.23    2.69
  -6  -2   6    0.38    2.59
  -6  -2   6   -0.78    1.24
  -6  -2   6   -0.61    1.33
  -6  -2   5   17.54    3.37
   6   2  -5   17.05    4.42
  -6  -2   5   19.38    4.96
  -6  -2   5   25.32    5.47
  -6  -2   5   21.40    4.32
  -6  -2   5   22.01    3.86
  -6  -2   4   37.56    4.85
   6   2  -4   43.88    7.29
  -6  -2   4   39.78    6.66
  -6  -2   4   45.57    6.65
  -6  -2   4   35.35    5.61
  -6  -2   4   37.34    4.40
  -6  -2   3   20.36    3.75
   6   2  -3   12.46    4.11
  -6  -2   3   16.51    4.14
  -6  -2   3   18.22    4.18
   6   2  -3   10.73    3.84
  -6  -2   3   15.74    4.50
  -6  -2   3   15.52    3.89
  -6  -2   3   15.20    1.51
  -6  -2   3   11.44    1.73
  -6  -2   2   69.22    7.51
  -6  -2   2   64.71    7.52
   6   2  -2   50.83    7.30
  -6  -2   2   61.81    8.57
   6   2  -2   70.58   10.19
  -6  -2   2   75.05    7.20
  -6  -2   2   66.87    7.54
   6   2  -2   62.11   12.92
  -6  -2   1   17.25    3.51
  -6  -2   1   19.52    6.72
  -6  -2   1   21.35    3.90
  -6  -2   1   13.84    3.44
  -6  -2   1   20.13    4.10
   6   2  -1   15.19    4.37
  -6  -2   1   18.84    4.91
  -6  -2   1   18.20    4.05
   6   2  -1   20.32    4.59
   6   2  -1   13.20    5.76
  -6  -2   1   28.86    8.30
   6   2  -1   17.50    3.84
  -6  -2   0   89.94   13.98
  -6  -2   0  102.59    9.20
  -6  -2   0  111.17    9.95
   6   2   0  112.13   12.31
  -6  -2   0  102.53   11.10
   6   2   0   99.53    9.32
  -6  -2   0  109.70    9.80
  -6  -2   0   96.84    8.65
   6   2   0  109.06   10.19
  -6  -2   0  117.56   15.36
   6   2   0  128.41   16.92
  -6  -2   0   91.41    7.59
  -6  -2  -1  170.32   12.33
   6   2   1  167.23   15.09
  -6  -2  -1  173.13   14.61
   6   2   1  177.52   12.65
  -6  -2  -1  176.65   12.83
  -6  -2  -1  180.43   12.27
   6   2   1  184.77   13.49
   6   2   1  178.40   20.17
  -6  -2  -1  172.87   18.38
  -6  -2  -1  166.44    9.80
  -6  -2  -2    6.08    2.81
  -6  -2  -2    7.04    2.44
  -6  -2  -2    4.83    2.21
   6   2   2   -0.80    1.84
  -6  -2  -2    4.33    2.89
  -6  -2  -2    1.47    1.70
   6   2   2    3.87    3.71
   6   2   2    4.76    2.26
  -6  -2  -3  113.10    9.35
   6   2   3  104.10   11.65
  -6  -2  -3   93.81    6.41
   6   2   3  116.14   10.50
  -6  -2  -3   93.80    9.46
   6   2   3   92.51    9.38
  -6  -2  -3   95.07    9.47
   6   2   3   93.88   13.02
   6   2   3  105.87    6.61
  -6  -2  -4   55.97    7.33
  -6  -2  -4   55.68    6.44
   6   2   4   66.70    9.75
  -6  -2  -4   57.77    7.29
   6   2   4   62.12    7.55
   6   2   4   44.47    8.56
   6   2   4   51.06    7.04
  -6  -2  -5    4.81    2.38
  -6  -2  -5   -1.82    1.66
   6   2   5    2.80    3.10
  -6  -2  -5    0.30    1.54
   6   2   5   -1.28    2.29
   6   2   5    2.96    2.92
   6   2   5    3.20    2.77
  -6  -2  -6 1368.94   40.20
   6   2   6 1331.91   51.69
   6   2   6 1400.12   46.69
  -6  -2  -6 1411.87   46.07
   6   2   6 1291.20   43.31
  -6  -2  -6 1317.65   46.22
   6   2   6 1228.44   50.24
  -6  -2  -7  479.30   19.84
   6   2   7  475.70   28.71
  -6  -2  -7  419.02   23.80
  -6  -2  -7  449.47   23.30
   6   2   7  438.02   21.93
   6   2   7  426.92   26.77
  -6  -2  -8   98.41    8.15
   6   2   8  104.92   13.19
   6   2   8   96.38   12.28
   6   2   8   97.16    9.71
  -6  -2  -8  101.73   11.42
   6   2   8   82.26    5.15
   6   2   8   88.43    4.00
  -6  -2  -9    7.30    1.90
   6   2   9   15.57    2.22
   6   2   9    7.50    3.66
   6   2   9   10.42    2.20
   6   2   9   18.14    4.43
   6   2  10   85.98    6.27
  -6  -2 -10   89.12   11.62
   6   2  10   83.45    6.63
   6   2  10   94.45   13.61
   6   2  10   89.11    9.65
   6   2  11  114.51    8.18
   6   2  11  108.23   14.74
   6   2  11  125.01   11.74
  -6  -2 -11  115.45   14.16
   6   2  12 1026.70   32.70
   6   2  12 1026.17   51.40
   6   2  12 1016.85   39.27
  -6  -2 -12 1003.73   46.34
   6   2  13   62.04    7.30
  -6  -2 -13   56.65   10.70
   6   2  13   61.71   11.61
   6   2  13   68.06    9.26
   6   2  14  221.92   23.80
   6   2  14  224.51   17.20
  -6  -2 -14  231.48   22.62
  -6  -2 -15   39.52   10.62
   6   2  15   29.48    8.37
   6   2  15   41.25    7.72
  -6  -2 -16    1.82    3.32
  -6  -2 -16   10.29    6.52
   6   3 -11   72.09   12.03
   6   3 -10  186.53   28.55
   6   3 -10  156.28   16.69
  -6  -3  10  159.42   17.82
   6   3  -9   11.53    5.81
  -6  -3   9    4.12    2.95
   6   3  -9    5.09    3.53
   6   3  -8  355.79   24.73
  -6  -3   8  382.17   20.01
  -6  -3   8  413.96   26.28
   6   3  -7  182.46   26.51
   6   3  -7  137.01   14.38
  -6  -3   7  154.72   11.10
  -6  -3   7  172.56   15.99
  -6  -3   6   60.90    8.90
   6   3  -6   47.53    8.17
  -6  -3   6   64.45    5.79
  -6  -3   6   63.48    6.31
   6   3  -5  370.19   22.94
  -6  -3   5  356.70   20.59
  -6  -3   5  371.67   16.12
  -6  -3   5  369.74   15.09
  -6  -3   5  371.40   14.29
  -6  -3   5  375.30   22.19
  -6  -3   5  355.98   20.48
  -6  -3   4  174.52   13.04
   6   3  -4  179.28   15.24
  -6  -3   4  178.34   13.83
  -6  -3   4  177.87   10.95
  -6  -3   4  194.31    8.51
  -6  -3   4  178.17    7.70
  -6  -3   4  196.92   14.63
  -6  -3   3   37.62    6.07
  -6  -3   3   34.45    4.82
   6   3  -3   38.45    6.91
  -6  -3   3   27.75    4.73
  -6  -3   3   39.39    6.82
   6   3  -3   37.12    7.57
  -6  -3   3   37.76    6.04
  -6  -3   2  408.19   19.64
   6   3  -2  391.92   22.03
   6   3  -2  440.86   26.55
   6   3  -2  399.06   19.95
  -6  -3   2  414.69   23.35
   6   3  -2  409.01   34.27
  -6  -3   2  406.04   21.59
  -6  -3   2  409.97   18.61
  -6  -3   2  423.00   20.73
  -6  -3   1   19.06    3.87
   6   3  -1   24.68    5.13
  -6  -3   1   15.50    3.81
   6   3  -1   16.60    5.30
  -6  -3   1   15.36    4.52
  -6  -3   1   22.63    4.60
   6   3  -1   18.16    6.99
  -6  -3   1   16.19    3.55
   6   3  -1   13.53    3.35
   6   3   0  742.69   30.94
  -6  -3   0  851.44   31.68
   6   3   0  822.81   37.24
   6   3   0  722.39   25.61
  -6  -3   0  775.76   33.88
   6   3   0  742.22   29.83
  -6  -3   0  777.44   31.66
   6   3   0  827.97   45.75
   6   3   0  814.74   33.52
  -6  -3   0  794.96   29.06
  -6  -3   0  808.28   44.06
  -6  -3   0  779.75   28.63
  -6  -3   0  746.36   42.92
  -6  -3  -1  178.45   12.65
   6   3   1  153.07    9.27
   6   3   1  190.63   17.01
  -6  -3  -1  165.33   14.32
   6   3   1  160.62   12.36
  -6  -3  -1  170.12   13.21
   6   3   1  173.44   19.02
   6   3   1  172.63   13.76
  -6  -3  -1  162.96   11.92
  -6  -3  -1  143.35   17.29
  -6  -3  -1  152.30   11.04
  -6  -3  -1  126.75   16.01
  -6  -3  -2   21.24    3.99
  -6  -3  -2   21.58    4.62
   6   3   2   20.36    2.97
  -6  -3  -2   24.83    4.67
   6   3   2   17.80    4.82
  -6  -3  -2   23.75    4.96
   6   3   2   23.29    4.81
   6   3   2   19.50    6.77
  -6  -3  -2   13.29    4.19
   6   3   2   29.25    5.57
  -6  -3  -3   16.63    3.65
  -6  -3  -3   21.62    4.12
   6   3   3   18.27    5.14
  -6  -3  -3   23.99    4.99
   6   3   3   15.54    2.35
   6   3   3   18.16    4.61
  -6  -3  -3   19.11    3.43
   6   3   3   15.95    5.58
   6   3   3   19.58    2.30
   6   3   3   19.81    4.47
  -6  -3  -4   32.17    5.92
   6   3   4   36.88    3.18
  -6  -3  -4   28.69    4.51
   6   3   4   31.78    7.57
  -6  -3  -4   34.34    5.85
   6   3   4   36.84    5.95
   6   3   4   35.16    7.48
   6   3   4   27.74    3.27
   6   3   4   42.25    6.87
  -6  -3  -5    5.65    2.80
  -6  -3  -5    7.25    2.53
   6   3   5    6.77    1.26
   6   3   5    4.45    3.22
  -6  -3  -5    6.58    2.97
   6   3   5    7.85    3.17
   6   3   5    6.59    3.41
   6   3   5    7.04    2.20
   6   3   5    9.23    3.52
  -6  -3  -6  560.50   22.12
   6   3   6  605.64   34.10
   6   3   6  590.02   26.31
   6   3   6  546.22   30.27
  -6  -3  -6  570.56   27.95
   6   3   6  585.34   16.78
  -6  -3  -7   45.01    5.34
  -6  -3  -7   41.05    7.32
   6   3   7   33.98    7.51
   6   3   7   42.42    6.41
   6   3   7   45.07    4.37
   6   3   7   42.51    8.03
   6   3   8   10.41    2.24
  -6  -3  -8    7.24    3.03
   6   3   8    8.35    3.33
   6   3   8   11.98    4.06
   6   3   8   10.30    4.30
   6   3   9   94.48    5.96
   6   3   9   85.87    7.74
   6   3   9   92.13   13.52
   6   3   9   84.06    9.38
   6   3   9   94.72   12.55
  -6  -3  -9  107.15   12.71
   6   3  10   -0.04    0.74
  -6  -3 -10    0.93    2.70
   6   3  10    2.91    3.82
   6   3  10    1.92    1.95
   6   3  10    3.48    2.36
  -6  -3 -11   11.10    4.24
  -6  -3 -11    3.97    1.60
   6   3  11   13.04    3.85
   6   3  11   11.55    2.59
   6   3  12  342.98   16.46
   6   3  12  352.31   20.96
  -6  -3 -12  315.56   25.57
  -6  -3 -13    3.53    3.28
   6   3  13    5.80    3.20
  -6  -3 -14   75.23   12.88
   6   3  14   57.89    8.59
  -6  -3 -15    0.10    2.54
  -6  -3 -15    0.81    3.81
   6   3  15    2.65    2.77
  -6  -3 -16   -0.49    5.89
   6   4 -10   27.35    7.74
  -6  -4   9   22.36    6.97
   6   4  -9   19.32   10.59
   6   4  -9   13.09    5.59
   6   4  -8  143.63   24.51
   6   4  -8  109.80   14.10
  -6  -4   8  123.80   14.30
   6   4  -7   73.55   11.35
  -6  -4   7   81.91   11.33
   6   4  -6   47.98    8.84
  -6  -4   6   61.60    6.06
  -6  -4   6   65.17    5.46
  -6  -4   6   71.94   10.25
   6   4  -5  192.46   17.45
  -6  -4   5  226.29   12.09
  -6  -4   5  251.11   11.13
  -6  -4   5  220.83   17.20
  -6  -4   5  245.22   14.94
  -6  -4   4  122.59   10.40
   6   4  -4  132.35   13.58
   6   4  -4  126.00   15.16
  -6  -4   4  131.20    9.36
  -6  -4   4  127.01    5.86
  -6  -4   4  142.49    7.35
  -6  -4   4  123.83   12.25
  -6  -4   3   63.76    6.89
   6   4  -3   57.17    8.67
   6   4  -3   66.21    8.17
   6   4  -3   68.87   10.76
  -6  -4   3   65.73    6.75
  -6  -4   3   60.39    8.39
   6   4  -3   45.21    6.12
  -6  -4   2  628.76   25.55
   6   4  -2  659.06   30.91
   6   4  -2  691.30   35.65
   6   4  -2  655.32   27.63
  -6  -4   2  654.98   30.49
   6   4  -2  638.18   26.48
  -6  -4   2  657.60   25.25
  -6  -4   2  657.90   29.06
  -6  -4   1   30.54    5.11
   6   4  -1   32.25    6.18
   6   4  -1   36.23    5.75
   6   4  -1   28.73    6.77
  -6  -4   1   46.07    7.13
  -6  -4   1   34.70    6.48
   6   4  -1   32.64    8.60
   6   4  -1   31.06    5.48
   6   4   0 1289.99   44.59
   6   4   0 1274.30   50.94
  -6  -4   0 1241.11   45.94
   6   4   0 1245.62   42.19
   6   4   0 1353.57   59.99
  -6  -4   0 1223.74   40.33
  -6  -4   0 1232.83   42.68
   6   4   1  879.08   34.82
  -6  -4  -1  889.40   33.62
   6   4   1  872.28   40.89
   6   4   1  874.80   34.14
   6   4   1  943.49   46.90
  -6  -4  -1  896.03   34.59
  -6  -4  -1  969.12   47.89
  -6  -4  -1  849.77   32.32
  -6  -4  -2    6.97    2.96
   6   4   2    4.71    2.25
  -6  -4  -2    3.75    2.10
   6   4   2    3.05    2.23
   6   4   2    8.30    2.87
   6   4   2    2.59    2.44
  -6  -4  -2    3.24    3.18
  -6  -4  -2    2.67    2.07
   6   4   2    3.27    1.05
   6   4   2    7.65    3.11
   6   4   3  117.68    8.40
  -6  -4  -3  106.64    9.57
   6   4   3  125.23   14.50
  -6  -4  -3  130.82   11.40
   6   4   3  124.83   11.82
   6   4   3  126.72   12.13
   6   4   3  124.98   14.98
  -6  -4  -3   99.16   10.25
   6   4   3  115.28    7.64
   6   4   4  538.48   20.22
  -6  -4  -4  535.65   22.73
  -6  -4  -4  546.41   22.95
   6   4   4  574.97   33.07
   6   4   4  590.73   28.24
   6   4   4  563.70   26.90
   6   4   4  519.88   30.90
  -6  -4  -4  529.02   26.12
   6   4   4  541.04   19.52
  -6  -4  -5   52.95    6.21
  -6  -4  -5   53.36    7.91
   6   4   5   62.29   10.85
   6   4   5   59.28    7.90
   6   4   5   53.94    5.55
   6   4   5   57.90    9.10
   6   4   5   53.41    5.56
  -6  -4  -6 1813.13   50.36
   6   4   6 1989.76   71.82
   6   4   6 1710.55   62.07
   6   4   6 1839.37   57.28
  -6  -4  -6 1833.79   60.08
   6   4   6 1888.70   50.69
  -6  -4  -7  291.82   14.70
   6   4   7  350.03   27.48
   6   4   7  320.92   19.40
   6   4   7  289.38   21.41
   6   4   7  310.22   16.65
   6   4   7  304.28   16.19
  -6  -4  -7  308.57   21.14
   6   4   8   69.66   12.32
   6   4   8   85.51    9.48
   6   4   8   74.90    8.10
   6   4   8   71.85    8.13
  -6  -4  -8   88.03   11.17
   6   4   8   64.21   10.00
  -6  -4  -9    5.33    3.32
   6   4   9    9.89    3.45
   6   4   9   10.46    4.15
   6   4   9   12.80    3.88
   6   4   9    6.29    1.36
  -6  -4 -10   28.08    7.07
  -6  -4 -10   22.59    3.43
   6   4  10   23.21    7.64
   6   4  10   24.67    5.48
   6   4  10   21.48    4.21
   6   4  10   25.69    5.35
   6   4  10   22.03    6.01
  -6  -4 -11   50.77    9.59
   6   4  11   57.07    8.30
   6   4  11   61.04    8.54
   6   4  12  440.08   20.02
   6   4  12  458.57   24.94
   6   4  12  448.40   26.07
  -6  -4 -12  501.48   33.07
  -6  -4 -13    3.68    4.51
  -6  -4 -13   -6.78    5.33
   6   4  13    0.49    2.27
   6   4  13   -3.93    3.98
  -6  -4 -14   63.35   12.77
  -6  -4 -14   58.58   12.13
   6   4  14   57.81    8.76
   6   4  14   49.88    8.96
  -6  -4 -15   -2.29    3.07
   6   4  15    2.92    2.93
   6   5  -9    4.92    4.95
  -6  -5   9   -0.82    3.37
   6   5  -8   46.43   10.37
  -6  -5   8   66.12   11.16
   6   5  -7    4.20    3.51
  -6  -5   7   -2.51    3.11
   6   5  -6   15.29    5.36
  -6  -5   6   13.49    4.13
   6   5  -5    9.10    4.39
  -6  -5   5   13.39    2.72
  -6  -5   5    9.92    4.97
  -6  -5   4   22.51    3.90
   6   5  -4   21.57    6.68
   6   5  -4   16.96    5.88
  -6  -5   4   27.20    6.37
  -6  -5   3   32.49    5.09
   6   5  -3   28.70    6.75
  -6  -5   3   30.27    4.71
   6   5  -3   36.82    7.76
  -6  -5   3   28.62    6.53
   6   5  -3   29.13    5.00
  -6  -5   2   63.13    6.92
   6   5  -2   47.20    8.16
   6   5  -2   64.66    8.44
   6   5  -2   61.89    7.57
   6   5  -2   77.92   11.96
  -6  -5   2   69.81    9.64
  -6  -5   2   70.79    7.67
  -6  -5   1    6.42    2.85
   6   5  -1    2.15    1.85
  -6  -5   1    5.32    2.89
   6   5  -1    8.38    4.55
   6   5  -1    5.79    2.81
   6   5  -1    2.39    3.04
   6   5  -1    4.85    1.89
   6   5   0  467.31   25.69
   6   5   0  431.73   22.07
   6   5   0  477.47   30.12
   6   5   0  452.44   23.54
   6   5   0  462.60   32.99
  -6  -5   0  452.26   25.25
  -6  -5   0  463.07   22.30
   6   5   1   96.43    9.48
   6   5   1   96.96   10.80
   6   5   1   92.72   12.62
   6   5   1   91.76   10.19
  -6  -5  -1  106.63   11.91
   6   5   1  110.14   14.89
  -6  -5  -1   95.93    9.82
   6   5   2    4.18    2.36
  -6  -5  -2    8.06    3.40
   6   5   2    3.05    1.65
  -6  -5  -2    6.02    2.46
   6   5   2   -2.76    3.91
   6   5   2    3.45    2.37
  -6  -5  -2    2.04    1.87
   6   5   2    4.69    1.23
  -6  -5  -3    9.75    3.86
   6   5   3    9.53    3.63
  -6  -5  -3    7.83    2.83
  -6  -5  -3    6.21    3.06
   6   5   3    7.27    4.14
   6   5   3    5.09    3.70
   6   5   3    7.10    2.28
  -6  -5  -4  181.73   12.84
  -6  -5  -4  192.55   14.71
   6   5   4  197.40   19.61
   6   5   4  184.37   17.78
  -6  -5  -4  178.89   15.03
   6   5   4  187.45   12.04
   6   5   4  196.33   13.56
  -6  -5  -5   53.02    6.44
  -6  -5  -5   46.85    7.88
   6   5   5   53.64   10.88
   6   5   5   52.57    7.72
   6   5   5   48.21    6.67
   6   5   5   55.03    9.79
   6   5   5   44.49    5.67
  -6  -5  -6 1367.66   42.07
   6   5   6 1443.63   62.80
   6   5   6 1337.13   53.40
   6   5   6 1445.60   50.18
  -6  -5  -6 1419.23   52.02
   6   5   6 1538.51   48.33
  -6  -5  -7   79.21    7.38
  -6  -5  -7   83.24   10.95
   6   5   7   92.81   14.84
   6   5   7   90.43   10.62
   6   5   7   92.67   11.67
   6   5   7   94.81   10.08
   6   5   7   92.91    8.99
   6   5   8   85.63   14.52
   6   5   8   85.10   10.15
   6   5   8   95.70    9.57
  -6  -5  -8   98.95   12.65
   6   5   8   76.56   11.03
   6   5   9  104.67   16.71
   6   5   9  110.51   11.54
   6   5   9   92.63   10.21
  -6  -5  -9  118.24   14.44
   6   5   9   85.35   11.55
  -6  -5 -10   72.12   11.81
   6   5  10   72.07    9.44
   6   5  10   92.22   10.34
   6   5  10   75.47   11.49
   6   5  11  189.76   15.75
   6   5  11  191.50   18.44
   6   5  11  185.53   16.03
  -6  -5 -11  199.56   20.46
  -6  -5 -11  209.68   20.53
   6   5  12  740.41   33.78
   6   5  12  723.67   39.36
   6   5  12  713.15   35.03
  -6  -5 -12  816.15   44.35
  -6  -5 -12  734.71   42.13
  -6  -5 -13    2.13    3.57
  -6  -5 -13   -6.27    5.50
   6   5  13    2.23    1.95
   6   5  13    4.17    3.50
   6   5  14  175.74   17.64
   6   5  14  176.07   15.65
  -6  -5 -14  194.61   22.55
  -6  -5 -14  179.46   21.76
   6   6  -8  251.62   24.83
  -6  -6   8  221.99   21.83
   6   6  -7   54.49   10.64
  -6  -6   7   76.75   12.50
   6   6  -6  108.59   14.86
  -6  -6   6  100.90   13.79
   6   6  -5  187.87   19.68
  -6  -6   5  191.95   18.42
   6   6  -4   87.07   12.98
   6   6  -4  102.72   14.11
  -6  -6   4   73.81   11.37
  -6  -6   3    4.26    1.99
   6   6  -3    5.23    3.47
  -6  -6   3    5.57    2.16
  -6  -6   3    1.17    2.52
   6   6  -3    2.66    2.48
   6   6  -3    0.22    1.78
   6   6  -2  244.69   20.54
   6   6  -2  221.94   20.57
   6   6  -2  237.91   16.12
  -6  -6   2  199.99   17.84
  -6  -6   2  233.43   15.39
  -6  -6   2  242.50   14.26
  -6  -6   1    3.05    2.38
   6   6  -1    4.47    2.34
  -6  -6   1    4.93    2.27
   6   6  -1    7.23    4.73
   6   6  -1    3.23    2.62
   6   6   0  220.62   17.03
   6   6   0  237.30   18.89
   6   6   0  242.70   21.61
   6   6   0  251.52   23.70
  -6  -6   0  231.12   19.39
   6   6   0  236.92   17.27
  -6  -6   0  219.65   15.97
   6   6   1   24.30    5.25
   6   6   1   26.75    6.43
  -6  -6  -1   24.33    5.26
   6   6   1   26.46    7.13
   6   6   1   23.79    5.56
   6   6   1   28.92    7.68
  -6  -6  -1   26.39    6.31
   6   6   2    8.94    3.70
  -6  -6  -2   10.86    3.45
   6   6   2    5.68    2.67
   6   6   2    4.69    3.14
   6   6   2   10.33    4.76
  -6  -6  -2    4.79    3.14
   6   6   2    4.69    1.83
   6   6   3   92.26   10.96
   6   6   3  111.58   15.47
  -6  -6  -3  103.18   12.50
   6   6   3   96.52   13.03
  -6  -6  -3   94.63   11.34
   6   6   3   95.69    9.38
   6   6   3   94.41   10.88
   6   6   4   21.48    4.87
  -6  -6  -4   19.57    4.79
  -6  -6  -4   25.30    4.91
  -6  -6  -4   22.60    5.57
   6   6   4   22.51    6.65
   6   6   4   18.98    5.44
   6   6   4   12.37    3.69
   6   6   4   26.27    5.93
  -6  -6  -5   33.23    7.01
  -6  -6  -5   34.56    5.54
   6   6   5   45.67   10.00
   6   6   5   30.67    6.04
   6   6   5   34.12    7.19
  -6  -6  -6  273.56   15.79
   6   6   6  318.66   27.81
   6   6   6  284.04   22.04
   6   6   6  325.63   18.69
   6   6   6  288.20   20.18
  -6  -6  -6  280.90   21.41
  -6  -6  -7    3.22    2.07
  -6  -6  -7    4.19    1.82
   6   6   7    6.71    2.88
   6   6   7   -1.58    4.21
   6   6   7    3.06    2.06
   6   6   7    9.76    2.86
  -6  -6  -8    7.57    2.95
   6   6   8   10.34    4.30
  -6  -6  -8    5.36    3.01
  -6  -6  -8   12.73    3.06
   6   6   8   12.07    6.55
   6   6   8    4.56    2.03
   6   6   8   17.94    5.23
  -6  -6  -9   40.97    9.09
  -6  -6  -9   45.77    9.24
   6   6   9   24.74    7.96
   6   6   9   34.42    7.46
   6   6   9   46.66    7.67
  -6  -6 -10   30.76    8.10
  -6  -6 -10   29.87    8.46
   6   6  10   28.17    6.99
   6   6  10   24.45    5.47
  -6  -6 -11   58.20   11.22
  -6  -6 -11   41.56   10.47
   6   6  11   49.46    9.67
   6   6  11   41.12    7.41
   6   6  12  217.91   20.27
   6   6  12  185.34   17.13
  -6  -6 -12  222.14   23.74
  -6  -6 -12  241.62   24.07
   6   6  13   12.40    6.20
   6   6  13    2.98    2.51
   6   6  14   70.45   12.34
   6   6  14   75.50   11.78
  -6  -7   7   35.56    9.90
   6   7  -6  135.10   18.13
  -6  -7   6  144.00   17.38
   6   7  -5  208.17   22.11
  -6  -7   5  188.57   19.60
  -6  -7   4   84.88   12.85
   6   7  -4   98.38   14.78
   6   7  -4   78.62   12.67
  -6  -7   3   76.51   11.80
   6   7  -3   93.22   14.04
   6   7  -3   90.65   13.27
   6   7  -2  442.62   30.05
   6   7  -2  423.85   29.64
  -6  -7   2  387.94   27.69
  -6  -7   2  480.34   22.38
  -6  -7   1   -1.65    3.06
  -6  -7   1    0.74    1.51
   6   7  -1    0.65    2.46
  -6  -7   1   -0.68    2.19
   6   7  -1    2.12    3.32
   6   7  -1    2.63    2.54
   6   7   0 1366.40   54.73
   6   7   0 1323.17   57.88
  -6  -7   0 1345.09   56.25
  -6  -7   0 1348.41   48.51
  -6  -7   0 1319.02   45.83
   6   7   1  298.36   22.40
   6   7   1  294.48   24.92
  -6  -7  -1  330.36   25.21
   6   7   1  294.93   25.11
  -6  -7  -1  303.32   20.44
  -6  -7  -1  295.97   19.21
  -6  -7  -2   10.93    4.39
   6   7   2    4.01    2.24
   6   7   2    1.31    2.77
  -6  -7  -2    4.65    3.36
   6   7   2    7.38    5.06
  -6  -7  -2    6.54    2.76
   6   7   2    3.46    4.37
   6   7   2    4.78    2.10
   6   7   3  102.54   11.90
  -6  -7  -3  103.83   13.72
   6   7   3   86.02   13.84
   6   7   3   94.02   13.05
   6   7   3  124.17   11.58
  -6  -7  -3   89.21   11.47
  -6  -7  -3   96.78   11.34
   6   7   3   86.30   12.01
   6   7   4  308.08   20.63
  -6  -7  -4  334.72   24.17
   6   7   4  278.96   25.95
   6   7   4  310.99   23.81
  -6  -7  -4  296.49   21.93
  -6  -7  -4  293.16   21.10
   6   7   4  313.65   22.68
  -6  -7  -5   77.01   10.61
   6   7   5   88.27   10.31
  -6  -7  -5   87.28    9.24
   6   7   5   96.18   15.31
   6   7   5   72.41   11.24
   6   7   5   91.78   10.70
  -6  -7  -5  106.12   13.02
   6   7   5   90.15   11.86
  -6  -7  -6  774.26   30.99
   6   7   6  831.13   48.58
   6   7   6  809.11   39.66
   6   7   6  868.91   40.43
   6   7   6  803.86   35.58
  -6  -7  -6  826.46   40.73
  -6  -7  -6  786.31   38.67
  -6  -7  -7    1.14    2.86
  -6  -7  -7    9.01    4.49
   6   7   7    8.23    3.81
   6   7   7    7.11    4.75
   6   7   7    6.07    3.81
   6   7   7    4.64    2.65
  -6  -7  -8   44.10    9.27
  -6  -7  -8   18.18    5.55
   6   7   8   13.77    4.69
   6   7   8   33.00    7.35
   6   7   8   27.94    6.19
  -6  -7  -9   10.04    6.17
  -6  -7  -9    5.94    2.88
   6   7   9    3.02    3.92
   6   7   9   -0.80    2.62
   6   7   9    6.50    3.65
  -6  -7 -10    8.18    5.15
  -6  -7 -10   18.13    6.10
   6   7  10   30.10    7.27
   6   7  10   30.83    7.44
  -6  -7 -11   56.85   11.43
   6   7  11   51.03    9.36
   6   7  11   73.30   11.44
   6   7  12  106.47   14.43
   6   7  12  111.31   14.06
   6   7  13    3.47    2.29
   6   7  13   12.57    6.21
   6   7  14   33.29    8.78
  -6  -8   6   49.16   11.32
  -6  -8   5    4.60    2.95
   6   8  -5    6.72    4.81
  -6  -8   4   10.77    2.83
   6   8  -4   34.90    9.68
   6   8  -4   24.82    6.50
  -6  -8   3    0.64    3.86
   6   8  -3    5.97    5.57
   6   8  -3    2.01    2.35
   6   8  -2  133.51   17.56
   6   8  -2  148.85   17.60
  -6  -8   2  126.39   16.55
  -6  -8   1   28.01    5.57
   6   8  -1   29.44    7.58
   6   8  -1   31.10    8.37
  -6  -8   1   16.26    6.16
   6   8   0  284.17   24.36
   6   8   0  303.64   25.75
  -6  -8   0  277.28   24.64
  -6  -8   0  281.01   19.63
   6   8   1   75.28   11.93
   6   8   1   85.42   13.41
  -6  -8  -1   83.23   13.03
  -6  -8  -1   83.72   10.62
  -6  -8  -2   -3.26    2.76
   6   8   2    0.02    2.65
   6   8   2    3.21    3.40
  -6  -8  -2   -2.80    3.56
   6   8   2    3.84    3.05
  -6  -8  -3   55.86    9.35
   6   8   3   50.78    9.21
   6   8   3   47.65   10.32
  -6  -8  -3   50.12    9.87
   6   8   3   40.63    8.75
   6   8   4  247.84   19.74
  -6  -8  -4  283.27   23.35
   6   8   4  215.88   23.33
   6   8   4  204.57   19.48
   6   8   4  285.67   19.91
  -6  -8  -4  228.64   19.56
   6   8   5  121.17   13.10
   6   8   5  131.66   18.53
   6   8   5   96.66   12.99
   6   8   5  143.54   14.44
  -6  -8  -5  109.00   13.86
   6   8   6  919.81   52.80
   6   8   6  838.50   41.01
   6   8   6  838.61   39.60
  -6  -8  -6  844.30   42.32
  -6  -8  -7   29.84    7.68
   6   8   7   28.91    8.84
   6   8   7   28.36    6.89
   6   8   7   30.22    7.05
  -6  -8  -8   82.52   13.00
   6   8   8   83.37   16.02
   6   8   8   76.17   11.34
   6   8   8   66.67    9.91
   6   8   9  205.53   25.94
   6   8   9  147.57   16.24
   6   8   9  156.55   16.32
  -6  -8  -9  174.01   19.81
  -6  -8 -10   43.26   10.33
   6   8  10   55.39    9.47
   6   8  10   72.67   11.69
   6   8  11  186.58   18.48
   6   8  11  196.22   19.04
   6   8  12  309.78   24.91
   6   8  13   41.14    9.68
  -6  -9   4   26.45    7.60
   6   9  -3    4.52    4.86
  -6  -9   3   -0.43    3.53
   6   9  -2   44.02   10.01
   6   9  -2   57.20   10.72
  -6  -9   2   57.93   11.51
   6   9  -1   15.18    6.89
   6   9  -1   29.25    8.36
  -6  -9   1   18.66    6.30
   6   9   0  162.31   19.08
   6   9   0  141.57   17.69
  -6  -9   0  182.21   20.50
  -6  -9   0  138.85   14.40
  -6  -9  -1   -3.42    3.68
   6   9   1   -2.42    3.35
   6   9   1    5.82    5.99
  -6  -9  -1    1.78    2.42
  -6  -9  -2   -2.12    2.90
   6   9   2   -0.73    3.11
   6   9   2    5.36    4.07
  -6  -9  -2    8.11    5.09
  -6  -9  -3   24.91    6.37
   6   9   3   25.90    7.15
  -6  -9  -3   17.54    5.29
   6   9   3   21.24    7.00
   6   9   3   18.39    6.07
  -6  -9  -4   19.60    6.34
   6   9   4   22.34    6.16
   6   9   4   14.61    6.14
   6   9   4   26.56    6.83
  -6  -9  -5   65.22   10.94
   6   9   5   62.00    9.75
   6   9   5   54.16   11.96
   6   9   5   55.35    9.46
   6   9   5   54.85    9.25
   6   9   6  124.62   13.36
   6   9   6  119.52   18.51
   6   9   6  122.50   14.38
   6   9   6  122.42   14.96
  -6  -9  -6  122.31   16.15
  -6  -9  -7   -0.53    3.26
   6   9   7    2.29    1.91
   6   9   7    0.06    2.02
  -6  -9  -8    8.89    4.07
   6   9   8    1.81    3.88
   6   9   9    1.32    5.28
   6   9  10   20.92    5.59
   6   9  11   67.26   11.59
  -6 -10   2  270.35   27.12
   6  10  -1   21.50    7.68
  -6 -10   1   11.94    5.29
   6  10   0  408.21   32.37
  -6 -10   0  413.91   32.67
   6  10   1   66.82   13.19
   6  10   1   59.67   11.93
  -6 -10  -1   86.38   14.69
  -6 -10  -2    1.31    2.46
   6  10   2   -2.96    2.63
   6  10   2    1.90    3.36
  -6 -10  -2    7.95    5.64
  -6 -10  -3   56.82    9.93
   6  10   3   58.54   10.59
  -6 -10  -3   66.39   13.03
   6  10   3   62.00   12.35
  -6 -10  -4   94.50   14.17
   6  10   4  106.00   13.86
   6  10   4   84.45   15.00
  -6 -10  -5   76.65   12.76
   6  10   5   70.98   13.81
   6  10   6  200.28   24.18
  -6 -10  -6  202.54   21.77
  -6 -10  -7   13.75    5.48
   6  10   7   14.71    7.18
  -6 -11  -1   41.00   10.49
   6  11   2   -0.94    3.06
  -6 -11  -2   -4.01    3.08
   6  11   3  128.73   17.08
   6  11   3  150.97   19.21
  -6 -11  -4  125.59   17.28
   6  11   4  139.14   19.33
   6  11   5  113.64   18.11
   7 -10   0   17.24    5.85
   7 -10   1   22.26    7.41
   7 -10   2   24.75    8.21
   7  -9  -1  232.92   21.08
  -7   9   1  347.23   34.16
   7  -9   0   68.56   15.10
   7  -9   0   42.54    9.48
  -7   9   0   57.42   13.48
   7  -9   1  220.92   25.82
   7  -9   1  193.71   20.89
   7  -9   2  330.26   31.53
  -7   9  -2  317.93   29.86
   7  -9   2  295.62   26.66
   7  -9   3  -11.14    7.93
   7  -9   3   -1.96    4.04
  -7   9  -3    7.36    5.53
  -7   9  -3   -1.51    5.77
   7  -9   4   88.90   15.02
   7  -9   4   76.57   14.18
  -7   9  -4   94.87   16.40
  -7   9  -5  169.78   21.81
   7  -9   5  133.60   19.33
  -7   9  -6   -0.87    5.20
  -7   9  -7  255.52   26.48
  -7   9  -8  131.33   19.23
  -7   8   5   10.69    7.19
  -7   8   4    7.90    7.41
   7  -8  -3   31.41    9.23
  -7   8   3   40.81   12.62
   7  -8  -2   11.44    4.23
  -7   8   2   25.49    8.03
   7  -8  -1   53.88   12.20
   7  -8  -1   49.49    9.01
   7  -8   0   85.18   15.43
   7  -8   0   56.89   10.11
  -7   8   0   76.83   15.21
   7  -8   1   68.89   13.96
   7  -8   1   52.27   10.02
  -7   8  -1   55.43   11.50
  -7   8  -1   84.22   15.16
   7  -8   2  120.17   17.87
   7  -8   2   99.49   13.89
  -7   8  -2   99.22   15.95
  -7   8  -2  126.14   19.80
   7  -8   3    2.87    3.20
   7  -8   3    8.17    5.27
  -7   8  -3    5.17    3.43
  -7   8  -3   -7.27    8.39
   7  -8   4    4.17    3.82
  -7   8  -4    5.39    4.46
   7  -8   5   95.66   14.87
  -7   8  -5  106.22   15.62
   7  -8   6   -0.03    4.86
  -7   8  -6    1.22    4.47
  -7   8  -7  502.83   35.90
   7  -8   7  431.04   34.26
   7  -8   8  144.91   18.48
  -7   8  -8  135.08   18.29
   7  -8   9   57.42   11.72
  -7   8  -9   37.89    8.92
  -7   8 -10  105.76   16.39
  -7   7   7  148.65   21.69
   7  -7  -6  115.37   19.10
  -7   7   6  121.66   19.41
   7  -7  -5   17.12    9.13
  -7   7   5    7.14    5.10
   7  -7  -4   66.24   13.26
  -7   7   4   66.26   14.02
   7  -7  -3   56.15   12.41
   7  -7  -3   75.64    9.44
  -7   7   3   75.65   14.74
   7  -7  -2   -1.66    6.00
   7  -7  -2    3.69    2.76
  -7   7   2   -1.98    4.87
   7  -7  -1   86.97   14.96
   7  -7  -1   78.59   10.66
  -7   7   1  102.33   17.15
   7  -7   0   19.36    7.87
   7  -7   0   27.05    6.71
  -7   7   0   32.58    9.18
   7  -7   1   25.02    7.94
   7  -7   1   27.25    7.00
   7  -7   1   38.19    7.55
  -7   7  -1   23.03    8.15
  -7   7  -1   37.33   11.39
   7  -7   2   69.18   13.28
   7  -7   2  101.83   12.25
   7  -7   2   60.94    9.97
  -7   7  -2   65.12   12.06
  -7   7  -2   82.23   15.28
   7  -7   3    6.88    4.31
   7  -7   3    6.50    2.57
   7  -7   3   13.49    5.05
  -7   7  -3    8.42    4.91
  -7   7  -3    1.77    4.08
   7  -7   4   42.23    9.17
   7  -7   4   62.03    9.86
  -7   7  -4   53.33   10.86
   7  -7   5    9.30    4.58
  -7   7  -5   18.64    6.62
   7  -7   6   31.65    7.82
  -7   7  -6   48.47   10.30
  -7   7  -7  122.70   16.07
   7  -7   7  103.34   15.60
   7  -7   8   88.74   13.44
   7  -7   8   74.83   13.72
   7  -7   8  112.08   15.05
  -7   7  -8   83.49   13.91
   7  -7   9    2.26    4.07
   7  -7   9   -1.15    3.91
   7  -7   9    3.40    4.52
  -7   7  -9   -0.63    4.88
   7  -7  10    6.11    4.61
  -7   7 -10    9.38    4.84
  -7   7 -11   12.56    5.32
   7  -6  -8   -2.38    3.92
  -7   6   8   -2.28    6.71
   7  -6  -7  193.24   23.50
  -7   6   7  162.53   22.11
   7  -6  -6   96.83   16.09
  -7   6   6   81.47   15.33
   7  -6  -5   80.15   14.74
  -7   6   5   82.90   15.45
   7  -6  -4  264.13   26.80
   7  -6  -4  244.97   15.65
  -7   6   4  310.09   29.42
   7  -6  -3   61.87   12.21
   7  -6  -3   41.89    6.23
  -7   6   3   47.87   11.23
   7  -6  -2   91.14   14.21
   7  -6  -2   99.89   10.64
  -7   6   2  132.81   19.03
   7  -6  -1  494.79   34.41
   7  -6  -1  441.68   24.56
   7  -6   0   60.17   11.57
   7  -6   0   59.22    8.95
   7  -6   0   75.15   11.03
  -7   6   0   53.76   10.34
  -7   6   0   77.75   14.14
   7  -6   1  972.73   49.35
  -7   6  -1  992.60   47.79
   7  -6   1  910.54   40.39
   7  -6   2  297.96   25.45
  -7   6  -2  337.43   25.92
   7  -6   2  288.20   21.24
  -7   6  -2  361.98   30.27
   7  -6   3   -0.90    2.49
   7  -6   3    1.07    2.40
   7  -6   3   -0.16    2.46
  -7   6  -3   -0.19    3.60
  -7   6  -3   -1.93    3.90
  -7   6  -4   75.90   11.74
   7  -6   4   66.17   10.56
   7  -6   4   82.90   12.25
  -7   6  -4   93.67   13.28
  -7   6  -5  122.74   14.96
  -7   6  -5  127.70   15.49
   7  -6   5  156.45   17.00
   7  -6   5  179.34   18.23
   7  -6   6    1.13    2.41
   7  -6   6    4.24    2.43
  -7   6  -6    6.63    3.99
  -7   6  -7  538.74   33.77
   7  -6   7  566.29   35.00
  -7   6  -8   86.55   10.21
   7  -6   8   71.92   11.48
   7  -6   8   84.83   13.18
   7  -6   8   86.25   14.18
  -7   6  -8   80.53   12.58
  -7   6  -9   19.77    5.35
   7  -6   9   24.04    7.39
   7  -6   9   13.85    5.02
  -7   6  -9   23.85    6.87
  -7   6 -10    0.33    2.51
  -7   6 -10    4.48    3.06
   7  -6  10    0.26    2.04
   7  -6  10   -4.73    4.08
  -7   6 -11    6.29    3.65
  -7   6 -11    7.17    3.91
   7  -6  11    7.06    4.73
  -7   6 -12    3.96    4.64
  -7   6 -12    5.30    3.78
  -7   6 -13  167.74   18.04
  -7   5  10   -4.57    2.65
   7  -5  -9   20.39    7.57
  -7   5   9   22.87    7.73
   7  -5  -8   18.21    6.72
  -7   5   8    8.09    5.75
   7  -5  -7   58.73   12.54
  -7   5   7   54.16   11.80
   7  -5  -6   35.90    9.08
  -7   5   6   11.77    5.12
   7  -5  -5    1.42    3.70
  -7   5   5   -3.62    5.19
   7  -5  -4   19.64    5.87
   7  -5  -4   18.16    3.73
  -7   5   4   23.32    7.98
   7  -5  -3   71.58   12.49
   7  -5  -3   71.79    8.20
  -7   5   3   76.56    9.99
  -7   5   3   80.66   15.12
  -7   5   2   35.62    5.78
   7  -5  -2   30.47    7.71
   7  -5  -2   28.91    5.40
  -7   5   2   31.60    6.09
  -7   5   2   46.62   11.10
   7  -5  -1  196.06   20.05
  -7   5   1  197.40   18.64
   7  -5  -1  177.66   14.18
   7  -5  -1  253.14   22.93
  -7   5   1  255.80   24.71
  -7   5   1  196.64   13.87
  -7   5   0   15.33    3.38
   7  -5   0   19.73    6.50
   7  -5   0   21.29    5.30
   7  -5   0   14.74    6.13
  -7   5   0   24.42    7.17
  -7   5   0   19.53    6.73
   7  -5   1  380.79   27.40
  -7   5  -1  391.58   26.49
  -7   5  -1  417.87   26.74
   7  -5   1  368.49   22.28
  -7   5  -1  461.09   32.43
  -7   5  -1  410.38   22.48
   7  -5   2  355.97   25.81
  -7   5  -2  328.97   23.97
   7  -5   2  334.98   21.88
  -7   5  -2  363.66   25.82
  -7   5  -2  383.23   28.74
  -7   5  -2  380.26   21.97
  -7   5  -3    0.30    2.89
  -7   5  -3    0.97    2.18
   7  -5   3   -0.37    2.11
   7  -5   3    3.92    3.56
  -7   5  -3    0.78    1.80
  -7   5  -3    6.81    5.54
  -7   5  -4   27.42    5.93
  -7   5  -4   37.74    8.61
   7  -5   4   28.03    6.30
   7  -5   4   28.11    6.60
  -7   5  -4   23.93    6.05
  -7   5  -5  266.76   22.50
  -7   5  -5  286.41   22.29
   7  -5   5  292.27   21.80
  -7   5  -5  283.62   21.44
   7  -5   6   43.01    8.40
  -7   5  -6   46.95    8.96
   7  -5   6   68.69   11.84
  -7   5  -6   35.61    6.91
  -7   5  -6   52.28    9.48
  -7   5  -7 1295.49   53.02
   7  -5   7 1250.22   52.66
  -7   5  -7 1259.71   46.79
   7  -5   8  183.73   12.87
   7  -5   8  165.37   15.70
  -7   5  -8  157.19   16.92
   7  -5   8  168.94   17.61
   7  -5   9  147.47   11.16
   7  -5   9  157.42   15.97
   7  -5   9  132.55   15.91
  -7   5  -9  122.50   14.88
  -7   5 -10   99.98   13.50
  -7   5 -10  127.94   13.77
   7  -5  10  125.30   14.84
   7  -5  10  131.91   16.34
  -7   5 -11   30.41    7.72
   7  -5  11   29.91    8.61
  -7   5 -12  123.63   14.88
   7  -5  12  118.27   16.21
  -7   5 -12  109.86   15.24
  -7   5 -13  424.46   29.67
  -7   5 -13  379.86   29.34
  -7   5 -14    3.25    4.21
   7  -4 -10   61.48   11.04
  -7   4  10   44.38   10.23
   7  -4  -9  104.81   15.32
  -7   4   9   91.81   15.53
   7  -4  -8    2.61    2.63
  -7   4   8    2.06    2.92
   7  -4  -7  164.64   18.60
  -7   4   7  135.13   18.35
   7  -4  -6   76.34   12.43
  -7   4   6   80.00   13.78
   7  -4  -5   77.88   11.97
  -7   4   5   82.67   14.06
  -7   4   4   42.09    7.32
   7  -4  -4   44.54    9.13
  -7   4   4   38.22    9.52
  -7   4   3   63.69    8.81
   7  -4  -3   72.70   11.54
   7  -4  -3   64.45    7.67
  -7   4   3   65.69    9.92
  -7   4   3   68.34   10.33
  -7   4   3   78.64   13.35
  -7   4   2   63.09    8.67
   7  -4  -2   49.02    9.08
   7  -4  -2   52.64    7.22
  -7   4   2   61.19    9.18
   7  -4  -2   57.11    9.31
  -7   4   2   51.03    8.79
  -7   4   2   72.99   12.63
  -7   4   1   79.68    9.87
   7  -4  -1   85.73   11.79
  -7   4   1   77.10    8.38
   7  -4  -1   70.83    8.32
  -7   4   1   73.63   10.00
   7  -4  -1   83.98   14.13
   7  -4  -1   75.07   11.77
  -7   4   1   76.26   10.35
  -7   4   1   85.08   13.08
  -7   4   1   72.98    9.59
  -7   4   0   30.28    6.25
   7  -4   0   28.71    6.92
  -7   4   0   31.07    5.99
  -7   4   0   24.15    4.92
   7  -4   0   25.81    5.26
   7  -4   0   32.80    7.99
   7  -4   0   23.11    7.04
  -7   4   0   26.29    6.11
  -7   4   0   33.85    7.61
   7  -4   1  213.14   18.71
  -7   4  -1  211.06   17.96
  -7   4  -1  220.99   17.21
   7  -4   1  217.02   15.73
   7  -4   1  282.43   25.25
   7  -4   1  238.19   22.83
  -7   4  -1  226.75   20.37
  -7   4  -1  210.99   17.48
   7  -4   2   30.46    5.89
   7  -4   2   38.85    9.30
  -7   4  -2   23.84    4.95
   7  -4   2   34.79    9.19
  -7   4  -2   29.82    6.46
  -7   4  -2   35.49    7.95
  -7   4  -3   15.51    4.68
  -7   4  -3   25.36    6.67
   7  -4   3   18.50    4.71
   7  -4   3   22.52    7.52
   7  -4   3   22.88    7.20
  -7   4  -3   20.98    5.86
  -7   4  -4  152.75   16.39
  -7   4  -4  149.79   14.91
   7  -4   4  140.64   13.51
   7  -4   4  165.31   18.47
  -7   4  -4  158.68   14.87
   7  -4   5   56.27    7.34
  -7   4  -5   55.30   10.13
   7  -4   5   52.01    8.50
  -7   4  -5   60.58    8.38
   7  -4   5   63.46   11.27
  -7   4  -5   50.45    8.48
   7  -4   6    7.44    3.17
  -7   4  -6    6.82    3.47
   7  -4   6    6.59    3.35
   7  -4   6   12.16    6.28
  -7   4  -6    6.09    1.92
  -7   4  -6    2.87    2.06
  -7   4  -7  342.82   18.30
   7  -4   7  380.02   19.96
  -7   4  -7  365.38   24.58
   7  -4   7  366.51   24.42
   7  -4   7  435.39   30.80
  -7   4  -8   61.07    7.08
   7  -4   8   70.31    8.09
   7  -4   8   71.23    9.18
   7  -4   8   66.32   10.20
   7  -4   8   76.86   13.39
  -7   4  -8   70.16   10.72
  -7   4  -9   21.62    5.48
   7  -4   9   28.12    5.03
   7  -4   9   33.36    6.88
   7  -4   9   23.22    6.10
  -7   4 -10    3.39    3.19
   7  -4  10    2.20    1.60
   7  -4  10    5.00    4.56
   7  -4  10    4.70    3.59
  -7   4 -11   48.97    9.48
   7  -4  11   41.60    6.14
   7  -4  11   46.04    9.49
   7  -4  11   38.36    8.05
  -7   4 -12   52.56   10.05
  -7   4 -12   54.78    9.90
   7  -4  12   38.22    8.79
  -7   4 -13  384.62   28.04
   7  -4  13  339.86   26.93
  -7   4 -13  357.49   27.45
  -7   4 -14    4.44    4.54
  -7   4 -14   -0.69    3.77
   7  -3 -10   42.68    8.68
  -7   3  10   27.83    8.00
   7  -3  -9   92.38   13.20
  -7   3   9  110.89   13.40
  -7   3   9  116.47   14.30
  -7   3   9  116.46   15.86
   7  -3  -8   -0.79    2.66
  -7   3   8   -0.51    2.69
  -7   3   8   -4.03    5.42
   7  -3  -7  372.58   26.35
  -7   3   7  373.51   24.62
  -7   3   7  388.47   29.73
   7  -3  -6   62.50   10.23
  -7   3   6   80.40   10.68
  -7   3   6   86.66   13.82
   7  -3  -5  261.85   21.05
  -7   3   5  266.75   20.02
  -7   3   5  260.37   24.20
   7  -3  -4  352.54   24.24
  -7   3   4  312.48   21.88
  -7   3   4  346.02   16.93
   7  -3  -4  309.49   19.66
  -7   3   4  337.51   27.27
  -7   3   4  347.08   23.82
   7  -3  -3   83.11   11.31
  -7   3   3   92.08   11.15
  -7   3   3   81.21    7.90
   7  -3  -3   86.22    8.62
   7  -3  -3   96.62   10.43
  -7   3   3   89.83   13.52
  -7   3   3   83.52   11.30
  -7   3   2   18.36    5.14
   7  -3  -2   24.40    5.98
  -7   3   2   23.77    4.49
   7  -3  -2   23.15    4.51
   7  -3  -2   21.37    7.63
  -7   3   2   12.65    4.18
   7  -3  -2   20.35    4.83
  -7   3   2   29.47    5.72
  -7   3   2   32.83    8.28
   7  -3  -1  672.21   33.38
  -7   3   1  664.83   32.09
  -7   3   1  638.28   26.50
   7  -3  -1  669.07   27.66
  -7   3   1  670.44   33.76
   7  -3  -1  662.57   31.90
  -7   3   1  747.10   37.75
  -7   3   1  716.57   35.65
  -7   3   0   -0.65    2.61
   7  -3   0   10.40    4.38
  -7   3   0    1.81    2.39
  -7   3   0    1.29    1.24
   7  -3   0    1.14    1.54
   7  -3   0   -0.68    5.76
  -7   3   0   -0.18    1.96
   7  -3   0    3.94    3.04
  -7   3   0    1.55    2.42
  -7   3   0   -0.08    3.10
  -7   3  -1 1211.85   42.77
  -7   3  -1 1234.22   46.83
  -7   3  -1 1255.49   42.34
   7  -3   1 1253.38   43.20
   7  -3   1 1266.34   53.73
  -7   3  -1 1379.71   49.90
  -7   3  -1 1320.70   52.31
  -7   3  -2  268.04   21.44
  -7   3  -2  270.62   19.10
  -7   3  -2  262.81   17.88
  -7   3  -2  273.54   17.01
   7  -3   2  278.30   17.63
   7  -3   2  338.95   27.86
   7  -3   2  271.54   24.21
  -7   3  -2  278.34   19.44
  -7   3  -3    0.77    1.60
   7  -3   3    5.46    3.12
  -7   3  -3    2.65    2.49
   7  -3   3    1.79    2.27
   7  -3   3    5.55    4.17
   7  -3   3    0.11    2.53
  -7   3  -3    5.48    3.25
  -7   3  -4    4.39    2.55
   7  -3   4    1.93    1.55
  -7   3  -4    1.69    1.98
   7  -3   4    7.65    3.82
   7  -3   4   -0.34    4.59
   7  -3   4    3.51    3.50
  -7   3  -4    3.16    3.01
   7  -3   5  151.94   12.75
  -7   3  -5  128.49   15.03
  -7   3  -5  135.85   13.38
   7  -3   5  145.80   13.50
   7  -3   5  150.65   17.88
   7  -3   5  144.71   16.16
  -7   3  -5  130.07    9.98
  -7   3  -6   18.98    3.25
   7  -3   6   21.71    4.84
  -7   3  -6   17.54    6.12
   7  -3   6   29.12    6.53
   7  -3   6   34.37    9.37
  -7   3  -6   20.03    5.18
  -7   3  -7  704.92   23.49
   7  -3   7  776.68   31.18
  -7   3  -7  690.33   33.96
   7  -3   7  706.49   33.82
   7  -3   7  731.60   41.36
  -7   3  -8   13.03    4.54
   7  -3   8   19.68    4.02
   7  -3   8   12.16    3.49
   7  -3   8   12.73    4.51
  -7   3  -8   15.50    2.85
   7  -3   8   21.21    7.69
  -7   3  -9    2.54    3.55
  -7   3  -9    1.31    0.88
   7  -3   9    0.61    1.75
   7  -3   9    2.35    1.16
   7  -3   9   -0.87    1.58
  -7   3 -10   12.71    5.01
   7  -3  10   15.52    4.46
   7  -3  10    8.03    4.55
   7  -3  10   10.57    4.08
  -7   3 -11   20.44    5.86
   7  -3  11   32.21    6.11
   7  -3  11   31.51    7.68
   7  -3  11   19.96    4.73
  -7   3 -12    7.84    3.40
   7  -3  12   13.89    4.26
   7  -3  12    7.88    4.11
   7  -3  13  142.84   16.53
  -7   3 -13  137.32   16.56
  -7   3 -14   -0.16    3.65
  -7   3 -14    4.17    3.85
   7  -3  14    1.79    3.21
   7  -2 -11    3.99    7.46
   7  -2 -10    1.61    2.14
  -7   2  10   -0.79    2.32
   7  -2  -9   47.71    8.64
  -7   2   9   53.89   10.26
  -7   2   9   50.89    8.16
  -7   2   9   42.81    8.87
   7  -2  -8   17.84    5.12
  -7   2   8    7.46    2.31
  -7   2   8    6.65    3.45
  -7   2   8    8.96    4.24
   7  -2  -7   82.92   10.91
  -7   2   7   91.94   11.57
  -7   2   7   83.07   10.55
  -7   2   7   67.23   11.09
   7  -2  -6    7.28    4.26
  -7   2   6    2.50    2.01
  -7   2   6    7.21    2.93
   7  -2  -5  128.17   13.44
  -7   2   5  133.83   13.06
  -7   2   5  126.22    9.41
  -7   2   5  150.21   17.00
   7  -2  -4   93.51   11.46
  -7   2   4  109.05   11.44
  -7   2   4  106.00    8.89
   7  -2  -4  105.26    9.57
  -7   2   4   94.38   13.46
   7  -2  -3  119.53   12.61
  -7   2   3  112.45   11.64
  -7   2   3  128.15    9.89
   7  -2  -3  131.90   10.73
   7  -2  -3  118.39   10.19
  -7   2   3  139.44   15.45
  -7   2   3  124.89   15.17
  -7   2   2    0.13    2.24
   7  -2  -2    3.71    2.87
  -7   2   2    2.94    1.89
   7  -2  -2    0.62    1.26
   7  -2  -2   -4.67    6.07
   7  -2  -2    3.13    1.80
  -7   2   2    3.24    2.84
  -7   2   2    5.97    3.26
  -7   2   1  440.65   23.89
  -7   2   1  410.41   19.91
   7  -2  -1  429.27   20.97
   7  -2  -1  479.98   38.19
  -7   2   1  419.00   27.29
   7  -2  -1  401.78   20.92
  -7   2   1  448.18   25.14
  -7   2   1  453.25   29.70
  -7   2   0   -5.21    4.56
  -7   2   0    3.05    2.16
   7  -2   0    2.30    1.74
   7  -2   0   -1.72    5.15
  -7   2   0    1.14    1.68
   7  -2   0    0.18    1.24
  -7   2   0    3.80    2.79
  -7   2   0   -0.85    2.31
   7  -2   1 1598.02   53.55
  -7   2  -1 1527.79   45.12
  -7   2  -1 1477.98   51.03
  -7   2  -1 1515.10   47.28
   7  -2   1 1502.64   48.03
   7  -2   1 1672.03   71.15
  -7   2  -1 1513.25   55.35
   7  -2   1 1519.02   54.82
  -7   2  -1 1572.45   49.33
  -7   2  -1 1423.78   58.84
   7  -2   2  412.52   22.97
  -7   2  -2  436.45   26.70
  -7   2  -2  373.26   18.98
  -7   2  -2  417.00   23.09
  -7   2  -2  419.57   20.96
   7  -2   2  413.01   21.66
   7  -2   2  413.35   31.96
   7  -2   2  405.36   27.40
   7  -2   3   -0.03    1.96
  -7   2  -3    2.87    3.02
   7  -2   3    5.09    2.52
   7  -2   3    0.11    3.04
   7  -2   3    1.49    2.00
  -7   2  -3    2.26    2.37
  -7   2  -3    0.75    2.08
   7  -2   4  144.61   12.76
  -7   2  -4  134.70   14.83
  -7   2  -4  130.36   12.74
   7  -2   4  140.05   12.53
   7  -2   4  152.28   17.51
  -7   2  -4  146.06    9.46
   7  -2   4  148.58   15.65
   7  -2   5  481.76   24.35
  -7   2  -5  437.34   27.88
  -7   2  -5  453.02   25.03
   7  -2   5  447.32   23.83
   7  -2   5  421.75   30.47
   7  -2   5  441.41   26.34
  -7   2  -5  430.37   14.36
  -7   2  -6  174.62    7.03
   7  -2   6  185.17   14.63
  -7   2  -6  168.27   15.01
   7  -2   6  184.19   15.09
   7  -2   6  182.62   19.65
   7  -2   6  176.04   15.86
   7  -2   7 1774.74   56.48
  -7   2  -7 1636.70   58.05
   7  -2   7 1771.43   58.05
   7  -2   7 1826.44   69.91
   7  -2   7 1767.15   59.92
  -7   2  -8   80.85   10.71
   7  -2   8   95.92   10.47
   7  -2   8   98.55   11.69
   7  -2   8   94.96   14.39
   7  -2   9  190.11   11.14
   7  -2   9  203.99   15.67
   7  -2   9  199.39   17.02
  -7   2  -9  180.49   16.73
   7  -2  10  133.43   12.86
   7  -2  10  119.09   10.59
   7  -2  10  142.60   14.54
  -7   2 -10  129.46   14.51
  -7   2 -11   60.58   10.33
   7  -2  11   62.20    8.73
   7  -2  11   63.01   10.17
   7  -2  11   51.28    7.85
   7  -2  12  173.52   15.40
   7  -2  12  157.48   16.17
  -7   2 -12  180.16   17.95
   7  -2  13  325.85   21.93
   7  -2  13  293.92   22.90
  -7   2 -13  291.01   24.09
  -7   2 -14    2.39    3.38
   7  -2  14    5.43    3.86
  -7   2 -15   65.81   11.58
   7  -2  15   66.89   10.89
   7  -1 -10   64.02   17.36
  -7   1  10   51.76    9.83
   7  -1  -9   66.62    9.51
  -7   1   9   62.67   10.34
  -7   1   9   48.47    9.25
  -7   1   8    9.47    4.17
   7  -1  -8   15.47    5.08
  -7   1   8   12.37    4.25
  -7   1   8   14.92    4.77
   7  -1  -7  151.06   13.83
  -7   1   7  176.90   16.04
  -7   1   7  181.58   14.44
  -7   1   7  173.96   16.70
   7  -1  -6    6.98    3.65
  -7   1   6   11.58    3.86
  -7   1   6    3.23    2.43
  -7   1   6   12.84    4.02
   7  -1  -5   98.45   10.84
  -7   1   5  104.24   10.88
  -7   1   5  105.71   10.86
  -7   1   5  111.05    8.89
  -7   1   5  133.77   14.64
  -7   1   4    2.71    2.14
   7  -1  -4   10.54    3.95
  -7   1   4    8.20    2.28
   7  -1  -4    4.60    2.10
  -7   1   4    7.68    3.34
  -7   1   4    6.99    2.89
  -7   1   3   86.02    8.84
  -7   1   3   90.93    9.90
  -7   1   3   74.17    7.56
   7  -1  -3   77.11    8.54
  -7   1   3   88.27   10.99
  -7   1   3   86.84   11.93
  -7   1   2  235.64   18.96
  -7   1   2  236.78   14.22
  -7   1   2  253.29   16.81
  -7   1   2  231.63   14.00
   7  -1  -2  249.63   28.50
   7  -1  -2  251.63   15.50
  -7   1   2  270.98   17.69
  -7   1   2  239.16   22.65
  -7   1   1  129.12   13.34
  -7   1   1  129.09    9.42
  -7   1   1  132.30   12.03
  -7   1   1  128.69   10.41
   7  -1  -1  127.74   10.90
   7  -1  -1  126.30   19.57
   7  -1  -1  126.74    9.00
  -7   1   1  137.70   10.81
  -7   1   1  114.11   15.39
  -7   1   0    9.57    4.36
  -7   1   0   22.14    5.44
   7  -1   0   11.74    3.20
  -7   1   0   18.40    3.90
   7  -1   0   15.62    3.78
  -7   1   0   21.68    6.33
   7  -1   0   14.60    2.99
  -7   1   0   18.96    4.04
  -7   1   0   20.53    4.40
  -7   1  -1  351.37   21.32
   7  -1   1  363.27   22.22
  -7   1  -1  345.64   20.22
  -7   1  -1  364.04   18.84
   7  -1   1  392.38   32.31
  -7   1  -1  366.04   25.09
   7  -1   1  342.88   19.20
   7  -1   1  330.82   18.63
  -7   1  -1  323.29   25.88
  -7   1  -2   28.48    5.76
   7  -1   2   19.55    4.76
  -7   1  -2   36.58    7.57
  -7   1  -2   23.70    3.68
  -7   1  -2   23.44    4.52
   7  -1   2   17.09    3.86
   7  -1   2   34.29    8.89
   7  -1   2   18.12    4.82
  -7   1  -2   23.19    5.22
  -7   1  -3   32.54    2.84
   7  -1   3   32.69    6.65
  -7   1  -3   33.85    4.78
  -7   1  -3   22.23    5.74
  -7   1  -3   29.54    5.33
   7  -1   3   30.61    5.59
   7  -1   3   36.01   10.67
   7  -1   3   22.05    6.26
  -7   1  -3   29.89    5.69
   7  -1   4   94.58   10.67
  -7   1  -4   91.38   11.73
  -7   1  -4   93.35   10.35
   7  -1   4   99.15   10.19
   7  -1   4  121.45   15.77
   7  -1   4  100.36   11.70
   7  -1   5  181.34   14.83
  -7   1  -5  162.97   16.38
  -7   1  -5  170.68   14.39
   7  -1   5  156.67   13.32
   7  -1   5  166.01   18.39
   7  -1   5  171.95   14.58
  -7   1  -6   58.21    8.22
   7  -1   6   62.15    8.80
   7  -1   6   61.52    8.12
   7  -1   6   65.56    8.98
   7  -1   6   59.65   11.11
   7  -1   7  925.48   37.66
   7  -1   7  874.79   36.22
  -7   1  -7  867.21   37.56
   7  -1   7  925.83   45.97
   7  -1   7  828.44   35.95
  -7   1  -8   39.22    7.16
   7  -1   8   36.25    6.74
   7  -1   8   45.88    7.58
   7  -1   8   44.87   10.48
   7  -1   8   32.13    6.51
  -7   1  -9   50.89    8.48
   7  -1   9   55.65    8.30
   7  -1   9   40.16    6.98
  -7   1 -10   77.85   11.20
   7  -1  10   71.29   10.14
   7  -1  10   58.78    5.44
   7  -1  10   63.93    9.34
  -7   1 -11   72.56   11.10
   7  -1  11   81.70   10.72
   7  -1  11   61.49    6.99
   7  -1  11   77.85   10.33
   7  -1  12  230.20   18.85
   7  -1  12  199.90   17.62
  -7   1 -12  201.23   18.90
   7  -1  13  437.24   27.54
   7  -1  13  455.62   27.99
  -7   1 -13  407.45   29.14
  -7   1 -14   36.87    8.50
   7  -1  14   41.58    8.62
   7  -1  14   36.00    7.63
   7  -1  15  185.36   17.97
   7  -1  15  173.99   17.37
  -7   1 -15  175.64   20.32
  -7   1 -16  106.80   16.10
   7  -1  16  111.93   14.34
   7   0 -10   77.79   19.15
  -7   0  10   85.54   13.24
  -7   0   9  301.76   23.59
  -7   0   8   15.82    5.63
  -7   0   8   20.48    5.55
  -7   0   8   13.35    3.68
  -7   0   7  457.57   26.44
  -7   0   7  420.77   21.63
  -7   0   7  398.33   24.70
  -7   0   6   21.60    7.06
  -7   0   6   24.67    5.52
  -7   0   6   21.59    5.29
  -7   0   6   26.57    5.13
  -7   0   5  564.85   27.14
  -7   0   5  602.20   26.26
  -7   0   5  517.08   22.61
  -7   0   5  529.23   28.43
  -7   0   5  548.04   33.97
  -7   0   4  366.56   20.16
  -7   0   4  363.33   19.66
  -7   0   4  316.76   16.93
  -7   0   4  310.46   20.48
  -7   0   4  347.52   24.46
  -7   0   3  177.20   16.37
  -7   0   3  181.46   12.93
  -7   0   3  181.04   13.42
  -7   0   3  171.89   12.33
   7   0  -3  156.50   12.83
  -7   0   3  181.41   13.32
  -7   0   2   31.51    6.77
  -7   0   2   25.44    4.59
   7   0  -2   24.75    9.02
   7   0  -2   27.08    5.02
  -7   0   2   21.96    4.09
  -7   0   2   24.60    3.85
  -7   0   2   29.85    5.42
  -7   0   1  510.76   26.72
  -7   0   1  530.99   21.11
   7   0  -1  545.91   29.83
  -7   0   1  517.91   24.56
  -7   0   1  523.16   23.24
   7   0  -1  565.92   43.05
   7   0  -1  568.01   25.27
  -7   0   1  525.71   18.11
  -7   0   1  468.80   34.74
  -7   0   0   24.12    6.92
  -7   0   0   35.16    6.09
   7   0   0   31.00    6.38
  -7   0   0   34.01    4.31
  -7   0   0   35.15    5.55
   7   0   0   40.60    6.31
   7   0   0   32.78    3.41
   7   0   0   29.39    7.50
  -7   0   0   34.74    5.75
  -7   0  -1 1196.83   42.84
  -7   0  -1 1193.21   32.34
   7   0   1 1187.53   45.71
  -7   0  -1 1136.54   40.78
  -7   0  -1 1204.64   40.02
   7   0   1 1152.11   40.05
   7   0   1 1218.51   60.44
  -7   0  -1 1172.82   51.43
   7   0   1 1120.24   33.06
  -7   0  -2  100.12   10.56
  -7   0  -2   95.54    5.61
  -7   0  -2  105.04   10.10
   7   0   2   98.80   11.57
   7   0   2  103.53   10.33
  -7   0  -2   94.31   11.74
  -7   0  -2   85.84    9.72
  -7   0  -2  103.37    9.95
   7   0   2   97.02    9.80
  -7   0  -2   88.84   12.88
   7   0   2   90.24   14.65
   7   0   2   96.83    9.12
  -7   0  -3   31.56    6.15
  -7   0  -3   30.42    5.36
  -7   0  -3   29.49    5.64
   7   0   3   30.59    6.41
  -7   0  -3   29.93    6.83
  -7   0  -3   29.90    5.37
   7   0   3   26.93    5.19
   7   0   3   31.20    8.31
  -7   0  -3   29.12    1.98
   7   0   3   37.84    6.22
   7   0   3   27.75    5.45
  -7   0  -4   43.10    6.85
   7   0   4   59.12    8.76
  -7   0  -4   47.91    8.53
   7   0   4   46.63    6.81
   7   0   4   41.68    8.83
   7   0   4   49.49    7.14
   7   0   5  140.86   13.73
  -7   0  -5  126.60   12.16
   7   0   5  137.71   12.22
   7   0   5  137.98   16.25
   7   0   5  120.04   10.97
   7   0   6   88.84   10.89
   7   0   6   89.22   10.12
  -7   0  -6   88.63   10.31
   7   0   6   87.11   12.77
   7   0   6   77.92    8.93
   7   0   7  227.44   17.81
   7   0   7  209.51   15.85
  -7   0  -7  231.82   17.43
   7   0   7  219.61   20.94
   7   0   7  211.82   15.42
  -7   0  -8    7.14    3.97
   7   0   8    9.15    3.90
   7   0   8   11.00    3.85
   7   0   8   11.06    4.47
  -7   0  -9    0.12    2.39
   7   0   9    5.95    3.62
   7   0   9    1.10    2.24
  -7   0 -10    6.42    3.48
   7   0  10    2.24    2.47
   7   0  10   -1.86    3.43
  -7   0 -11   35.35    7.67
   7   0  11   26.87    6.92
   7   0  11   22.81    5.24
  -7   0 -12   37.23    8.32
   7   0  12   43.67    9.14
   7   0  12   26.40    6.38
  -7   0 -13   42.43    9.57
   7   0  13   42.18    9.26
   7   0  13   44.80    7.97
  -7   0 -14    8.09    4.45
   7   0  14    5.26    4.18
   7   0  14    7.13    3.33
  -7   0 -15   40.56    9.74
   7   0  15   50.93    9.86
   7   0  15   38.43    8.13
  -7   0 -16   34.94    9.71
   7   0  16   15.12    5.32
   7   0  16   35.51    7.48
  -7  -1  10   13.31    6.38
  -7  -1   9   57.58    9.96
  -7  -1   8   16.09    5.24
  -7  -1   7  196.41   17.21
  -7  -1   7  217.61   13.79
  -7  -1   7  212.40   16.21
  -7  -1   6    6.17    4.77
  -7  -1   6    1.72    1.23
  -7  -1   6   -0.91    1.70
  -7  -1   6   -1.23    3.13
  -7  -1   6   -0.65    2.27
  -7  -1   5  282.74   19.00
  -7  -1   5  333.88   17.84
  -7  -1   5  285.33   16.77
  -7  -1   5  314.36   18.54
  -7  -1   5  284.41   22.68
  -7  -1   4  190.72   14.26
  -7  -1   4  175.24   12.63
  -7  -1   4  176.25   12.96
  -7  -1   4  152.09   11.60
  -7  -1   4  173.63   16.37
  -7  -1   3  152.46   14.36
  -7  -1   3  176.90   12.80
  -7  -1   3  182.33   12.92
  -7  -1   3  160.78   12.39
  -7  -1   3  158.79    8.50
  -7  -1   2   29.47    5.98
   7   1  -2   20.81    5.98
  -7  -1   2   17.09    4.05
   7   1  -2   14.23    6.66
   7   1  -2   20.96    4.67
  -7  -1   2   18.21    3.68
  -7  -1   2   18.71    4.10
  -7  -1   1  739.30   31.77
  -7  -1   1  776.09   27.11
   7   1  -1  737.19   35.91
  -7  -1   1  731.96   29.62
  -7  -1   1  732.64   29.77
   7   1  -1  684.78   48.48
   7   1  -1  750.42   31.45
  -7  -1   0   77.32    6.76
  -7  -1   0   77.41    9.15
   7   1   0   87.36   11.28
  -7  -1   0   86.36    8.96
  -7  -1   0   84.86    9.06
   7   1   0   76.83    9.18
   7   1   0   83.79   15.78
  -7  -1  -1 1804.32   56.69
   7   1   1 1861.51   62.68
   7   1   1 1886.90   57.37
  -7  -1  -1 1811.37   55.19
  -7  -1  -1 1946.28   56.18
   7   1   1 1872.04   56.42
   7   1   1 1851.55   78.11
  -7  -1  -1 1860.08   46.81
  -7  -1  -2  312.71   18.99
  -7  -1  -2  329.49   18.69
   7   1   2  336.89   22.45
   7   1   2  345.24   19.90
  -7  -1  -2  345.74   19.32
  -7  -1  -2  316.03   18.78
   7   1   2  338.40   19.27
   7   1   2  362.36   29.63
   7   1   2  325.18   12.55
  -7  -1  -2  304.80   12.22
  -7  -1  -3    4.48    2.90
  -7  -1  -3    9.64    3.33
  -7  -1  -3    7.44    2.56
   7   1   3    8.66    3.58
  -7  -1  -3    8.96    3.55
   7   1   3    4.31    2.09
   7   1   3    1.87    2.41
   7   1   3    8.33    2.90
   7   1   3    7.02    2.53
  -7  -1  -4  445.13   21.70
   7   1   4  447.44   26.52
   7   1   4  444.46   22.62
  -7  -1  -4  441.98   23.34
   7   1   4  413.35   29.60
   7   1   4  433.87   20.16
  -7  -1  -5  416.45   20.47
   7   1   5  395.00   24.94
   7   1   5  387.37   21.29
  -7  -1  -5  391.30   22.32
   7   1   5  365.42   26.96
   7   1   5  366.06   18.43
  -7  -1  -6  321.98   17.78
   7   1   6  332.41   22.66
   7   1   6  313.16   19.14
  -7  -1  -6  328.17   20.78
   7   1   6  303.41   24.30
   7   1   6  283.57   16.72
  -7  -1  -7 1875.83   54.24
   7   1   7 1835.13   64.18
   7   1   7 1768.26   56.99
  -7  -1  -7 1899.17   61.29
   7   1   7 1759.75   67.56
  -7  -1  -8   12.72    4.76
   7   1   8   16.05    6.32
   7   1   8   10.34    3.62
   7   1   8   14.06    6.01
   7   1   9  128.10   14.55
   7   1   9  129.70   12.65
  -7  -1  -9  116.15   13.36
   7   1   9  137.99   16.69
   7   1  10  178.93   18.62
   7   1  10  184.21   15.60
  -7  -1 -10  176.02   16.56
  -7  -1 -11   43.71    8.57
   7   1  11   55.82   10.21
   7   1  11   43.03    7.80
   7   1  12  150.82   17.55
   7   1  12  166.31   15.45
  -7  -1 -12  159.30   16.87
   7   1  13  111.98   15.34
   7   1  13  115.68   13.02
  -7  -1 -13  116.17   15.47
  -7  -1 -14   54.60   11.02
   7   1  14   47.59   10.44
   7   1  14   32.52    7.11
  -7  -1 -15   48.88   10.96
   7   1  15   62.12   12.14
   7   1  15   35.38    7.12
  -7  -1 -16   52.79   11.57
   7   1  16   42.04   10.37
   7   1  16   42.43    8.23
  -7  -2   9  101.07   14.17
  -7  -2   8   13.71    4.87
  -7  -2   7  100.02   12.53
  -7  -2   6   17.76    3.55
  -7  -2   6   13.08    4.63
  -7  -2   5  126.72   12.57
  -7  -2   5  118.27    9.71
  -7  -2   5  129.48    9.46
  -7  -2   5   95.29   12.06
  -7  -2   4    2.70    1.76
  -7  -2   4    5.23    3.16
  -7  -2   4    4.08    2.63
  -7  -2   4    4.61    2.29
  -7  -2   4    2.78    1.04
  -7  -2   4    3.65    0.90
  -7  -2   3  109.27   11.52
  -7  -2   3   95.61    9.88
   7   2  -3  109.19   13.76
  -7  -2   3   94.52    8.86
  -7  -2   3   88.60    9.51
  -7  -2   2   99.10   10.41
   7   2  -2  127.22   14.94
  -7  -2   2  123.92   11.24
  -7  -2   2  110.10    9.60
   7   2  -2  109.96   19.73
  -7  -2   2  114.50   10.05
  -7  -2   1  109.55   10.85
   7   2  -1  123.34   13.99
  -7  -2   1  111.29   10.84
  -7  -2   1  117.45   10.12
   7   2  -1  106.47   11.12
   7   2  -1  135.72   20.38
  -7  -2   1  102.67    8.97
  -7  -2   0  128.87   11.55
   7   2   0  130.09   14.55
   7   2   0  120.19   11.26
  -7  -2   0  126.99   11.52
  -7  -2   0  118.73   10.52
   7   2   0  133.44   20.08
   7   2   0  126.02   11.94
  -7  -2   0  113.95    8.99
  -7  -2  -1  494.08   24.37
   7   2   1  521.71   29.63
   7   2   1  511.31   24.97
  -7  -2  -1  480.19   23.20
   7   2   1  565.90   38.61
   7   2   1  527.35   25.84
  -7  -2  -1  480.83   19.46
  -7  -2  -2   10.26    2.88
  -7  -2  -2   12.61    2.71
  -7  -2  -2   12.27    3.56
   7   2   2   14.88    5.02
   7   2   2   13.77    4.21
   7   2   2    9.24    4.61
   7   2   2   13.10    3.57
  -7  -2  -3   42.52    6.62
  -7  -2  -3   38.86    5.98
  -7  -2  -3   35.18    3.95
   7   2   3   23.60    5.80
   7   2   3   37.73    6.44
   7   2   3   40.19    2.78
   7   2   3   38.06    9.01
   7   2   3   31.81    3.68
   7   2   3   29.38    5.88
  -7  -2  -4    2.53    1.86
  -7  -2  -4    7.51    2.81
   7   2   4   -4.04    3.99
   7   2   4    8.13    3.62
   7   2   4    5.26    3.92
   7   2   4    3.43    1.62
  -7  -2  -5  267.17   15.87
   7   2   5  275.22   21.82
   7   2   5  275.86   17.81
  -7  -2  -5  289.46   19.09
   7   2   5  270.07   22.94
  -7  -2  -6  307.03   16.89
   7   2   6  334.52   24.19
   7   2   6  298.50   18.57
  -7  -2  -6  301.09   20.24
   7   2   6  293.23   23.77
  -7  -2  -7  553.99   23.80
   7   2   7  579.43   33.23
   7   2   7  547.84   26.57
  -7  -2  -7  507.72   27.85
   7   2   7  497.69   31.88
  -7  -2  -8    1.37    2.06
  -7  -2  -8    8.33    2.76
   7   2   8    9.88    5.03
   7   2   8    8.18    3.51
   7   2   8    7.99    4.95
  -7  -2  -9  180.86   12.35
   7   2   9  184.51   18.98
   7   2   9  178.93   14.77
   7   2   9  177.44   18.61
  -7  -2  -9  176.10   16.42
  -7  -2 -10  309.40   16.66
   7   2  10  337.23   26.59
   7   2  10  310.73   20.19
   7   2  10  315.58   25.58
  -7  -2 -10  304.78   22.84
  -7  -2 -11   51.65    6.25
  -7  -2 -11   41.43    8.57
   7   2  11   50.11    9.96
   7   2  11   50.43    8.14
   7   2  12  357.73   29.22
   7   2  12  311.18   21.14
  -7  -2 -12  316.45   25.23
   7   2  13  177.75   20.79
   7   2  13  172.59   15.49
  -7  -2 -13  204.96   20.86
  -7  -2 -14   64.97   11.90
   7   2  14   53.17   11.31
   7   2  14   44.41    8.18
   7   2  15  255.65   26.39
   7   2  15  209.30   18.04
  -7  -2 -15  200.13   22.91
   7   2  16  161.12   16.37
  -7  -2 -16  175.47   21.40
   7   3  -9  162.11   17.54
  -7  -3   9  169.15   18.18
  -7  -3   8   14.00    4.53
   7   3  -8   10.21    4.37
   7   3  -7  336.99   24.38
  -7  -3   7  374.16   25.23
  -7  -3   6    1.53    1.12
  -7  -3   6    8.04    3.75
   7   3  -6    5.70    3.81
   7   3  -5  446.20   27.00
  -7  -3   5  439.90   19.85
  -7  -3   5  473.63   26.08
  -7  -3   4  187.46   15.36
   7   3  -4  186.25   16.52
  -7  -3   4  189.54   12.44
  -7  -3   4  190.61   15.36
  -7  -3   3  157.46   13.16
   7   3  -3  154.34   14.64
   7   3  -3  166.17   17.82
  -7  -3   3  150.62   11.27
  -7  -3   3  159.24   13.27
  -7  -3   2   26.49    4.78
   7   3  -2   27.55    6.09
  -7  -3   2   35.44    5.81
   7   3  -2   21.54    6.20
  -7  -3   2   31.96    5.63
  -7  -3   1  281.90   17.52
   7   3  -1  307.02   23.50
   7   3  -1  257.75   17.26
   7   3  -1  305.64   30.13
  -7  -3   1  296.93   16.89
  -7  -3   1  284.29   16.76
  -7  -3   0   71.56    8.54
   7   3   0   72.60    8.62
   7   3   0   66.93   10.48
  -7  -3   0   71.64    8.35
   7   3   0   63.89    8.83
   7   3   0   76.60   14.25
  -7  -3   0   67.06    7.63
   7   3   1  448.66   28.64
   7   3   1  453.05   23.86
   7   3   1  533.40   36.91
   7   3   1  478.35   25.57
  -7  -3  -1  455.21   22.60
  -7  -3  -1  447.59   20.82
  -7  -3  -2   14.19    3.06
  -7  -3  -2   14.64    4.15
   7   3   2   19.69    5.87
   7   3   2   13.64    4.28
   7   3   2   13.16    5.56
   7   3   2   12.69    4.05
  -7  -3  -3   17.22    4.35
   7   3   3   20.74    5.04
   7   3   3    7.29    2.94
  -7  -3  -3    9.21    2.59
   7   3   3   16.68    6.43
  -7  -3  -4    5.06    3.03
  -7  -3  -4    6.89    2.58
   7   3   4    1.99    3.09
   7   3   4   -0.17    1.67
   7   3   4    3.72    1.15
   7   3   4    5.17    1.90
  -7  -3  -5   69.53    9.06
  -7  -3  -5   61.76    7.24
   7   3   5   75.54   11.54
   7   3   5   67.77    8.94
   7   3   5   69.41    5.83
   7   3   5   69.79   11.37
  -7  -3  -6   52.47    8.59
  -7  -3  -6   48.21    6.19
   7   3   6   49.90    9.95
   7   3   6   52.33    7.85
   7   3   6   52.26    5.51
   7   3   6   57.70   10.43
  -7  -3  -7  102.47    9.15
   7   3   7  119.37   15.46
   7   3   7  103.90   11.02
  -7  -3  -7  109.38   12.60
   7   3   7  107.37   13.66
  -7  -3  -8    9.47    3.58
  -7  -3  -8   10.87    3.05
   7   3   8   14.31    5.85
   7   3   8   12.61    4.00
   7   3   8    8.84    4.94
  -7  -3  -9    2.40    2.96
  -7  -3  -9    4.52    1.47
   7   3   9    9.49    4.95
   7   3   9    3.12    2.44
   7   3   9    4.14    4.16
  -7  -3 -10   41.56    8.72
  -7  -3 -10   35.27    5.02
   7   3  10   44.90   11.20
   7   3  10   33.89    6.79
   7   3  10   39.05    8.97
   7   3  10   32.32    2.54
  -7  -3 -11   11.87    5.49
   7   3  11   29.10    8.51
   7   3  11   11.37    3.55
   7   3  11   11.92    6.43
  -7  -3 -12   52.65   10.43
   7   3  12   68.21   13.67
   7   3  12   57.60    8.96
  -7  -3 -13    3.13    3.81
   7   3  13   11.10    6.09
   7   3  13    9.60    4.01
  -7  -3 -14   16.70    7.33
   7   3  14   23.08    8.45
   7   3  14   25.91    6.31
  -7  -3 -15   70.49   13.57
   7   3  15   79.60   11.14
  -7  -4   9  107.06   14.51
   7   4  -8    2.51    2.74
  -7  -4   8    7.98    5.19
   7   4  -7  192.66   19.62
  -7  -4   7  228.41   19.68
   7   4  -6    7.82    4.23
  -7  -4   6    2.44    2.12
   7   4  -5  334.81   24.63
  -7  -4   5  337.67   16.49
  -7  -4   5  338.38   22.53
   7   4  -4  179.69   17.06
  -7  -4   4  184.98   12.24
  -7  -4   4  174.12   15.64
  -7  -4   3  100.63    9.99
   7   4  -3   92.08   11.97
   7   4  -3  104.01   14.36
  -7  -4   3   99.75    9.11
  -7  -4   3   92.24   10.65
  -7  -4   2   96.28    9.81
   7   4  -2   94.39   11.83
   7   4  -2  116.69   14.71
   7   4  -2   93.12   10.09
  -7  -4   2  103.28    9.67
  -7  -4   2  123.13   12.02
  -7  -4   1  558.32   25.77
   7   4  -1  595.66   30.17
   7   4  -1  638.24   36.04
   7   4  -1  573.98   27.12
   7   4  -1  632.74   43.66
  -7  -4   1  561.59   25.20
  -7  -4   1  595.62   27.78
   7   4   0  188.80   16.04
   7   4   0  196.83   19.23
   7   4   0  190.02   12.56
   7   4   0  197.77   15.36
   7   4   0  193.16   22.64
  -7  -4   0  198.25   14.16
  -7  -4   0  194.85   14.61
   7   4   1 1207.87   52.54
   7   4   1 1232.99   44.48
   7   4   1 1243.18   59.48
  -7  -4  -1 1172.56   42.12
  -7  -4  -1 1160.00   41.29
   7   4   2  164.16   10.32
   7   4   2  188.58   18.83
  -7  -4  -2  181.08   14.62
   7   4   2  160.14   19.41
   7   4   2  177.99   15.54
  -7  -4  -2  163.55   13.58
   7   4   3   14.01    2.68
  -7  -4  -3   24.85    5.28
   7   4   3   24.87    6.98
  -7  -4  -3   14.83    3.92
   7   4   3   19.42    5.14
   7   4   3   15.38    5.38
   7   4   4  345.83   13.81
  -7  -4  -4  355.54   17.05
   7   4   4  359.03   27.41
   7   4   4  361.30   22.26
   7   4   4  350.78   27.13
  -7  -4  -4  337.56   21.15
   7   4   4  356.28   13.94
   7   4   5  195.94    9.19
  -7  -4  -5  211.01   14.01
   7   4   5  241.12   22.54
   7   4   5  201.94   16.21
   7   4   5  186.01   19.22
  -7  -4  -5  196.47   16.10
   7   4   5  206.82   11.07
   7   4   6  329.31   12.09
  -7  -4  -6  333.66   17.70
   7   4   6  389.96   29.56
   7   4   6  347.79   21.58
   7   4   6  326.72   25.20
  -7  -4  -6  344.51   22.59
   7   4   6  364.73   16.48
  -7  -4  -7  422.05   20.00
   7   4   7  497.31   34.13
   7   4   7  450.97   24.83
   7   4   7  431.95   28.91
  -7  -4  -7  429.82   26.48
   7   4   7  449.59   14.59
  -7  -4  -8    9.01    4.59
  -7  -4  -8    5.74    2.48
   7   4   8   10.42    3.48
   7   4   8    5.83    1.19
   7   4   8    1.63    3.12
   7   4   8    8.69    3.17
  -7  -4  -9  109.43    8.99
   7   4   9  132.24   18.23
   7   4   9  116.91   12.23
   7   4   9  125.93   15.07
   7   4   9  123.91   10.90
  -7  -4  -9  147.62   15.78
   7   4  10  195.46   22.76
   7   4  10  182.51   15.60
   7   4  10  192.35   19.44
   7   4  10  174.81   14.11
  -7  -4 -10  181.53   18.59
  -7  -4 -11   11.93    5.28
   7   4  11    1.63    4.45
   7   4  11    8.08    4.09
   7   4  11    8.59    3.13
   7   4  11    5.42    3.01
  -7  -4 -12   68.66   12.33
   7   4  12   55.02   12.93
   7   4  12   65.68    9.64
   7   4  12   63.44    9.37
   7   4  12   67.01   11.39
  -7  -4 -13    0.14    2.60
   7   4  13   -5.22    6.27
   7   4  13   -4.25    3.35
   7   4  13   11.34    4.59
   7   4  13    2.86    5.07
  -7  -4 -14   55.05   12.17
   7   4  14   32.54    9.48
   7   4  14   40.70    7.89
   7   4  14   44.43    8.85
   7   4  15   64.86   10.05
   7   4  15   49.32    9.64
  -7  -5   8   -0.14    3.89
   7   5  -7   44.59   10.24
  -7  -5   7   40.07    8.79
   7   5  -6   29.92    8.14
  -7  -5   6   32.01    7.14
   7   5  -5   71.17   11.47
  -7  -5   5   81.24   11.62
  -7  -5   4    9.84    3.05
   7   5  -4    5.81    3.18
   7   5  -4   15.43    6.90
  -7  -5   4    9.32    5.22
   7   5  -3   81.47   11.98
   7   5  -3   79.49    9.41
   7   5  -3   80.53   12.79
  -7  -5   3   87.13    8.79
  -7  -5   3  104.03   12.26
  -7  -5   2    4.43    2.51
   7   5  -2    3.22    3.67
  -7  -5   2    0.78    1.19
  -7  -5   2    3.19    2.84
   7   5  -2    4.74    3.92
   7   5  -2    2.51    1.54
  -7  -5   1   87.87    9.39
   7   5  -1   89.95   11.62
   7   5  -1  103.02   10.55
   7   5  -1   96.28   10.70
   7   5  -1  109.01   14.69
  -7  -5   1   99.74   11.43
   7   5  -1  104.82   17.23
  -7  -5   1  105.85   10.21
   7   5   0  103.25   12.24
   7   5   0   92.30    9.49
   7   5   0  112.10   15.31
   7   5   0   94.07   10.66
  -7  -5   0   88.24   10.63
   7   5   0   76.56   13.52
  -7  -5   0   95.79    9.95
   7   5   1  289.05   20.38
   7   5   1  272.30   16.36
   7   5   1  340.63   26.71
  -7  -5  -1  264.05   19.59
   7   5   1  325.37   28.31
  -7  -5  -1  275.96   18.21
  -7  -5  -2   17.50    4.57
   7   5   2   18.34    4.93
   7   5   2    9.27    4.02
   7   5   2   22.26    7.19
  -7  -5  -2   16.08    4.45
  -7  -5  -3    3.77    3.04
  -7  -5  -3   -0.91    2.37
   7   5   3    3.26    2.68
   7   5   4  289.29   15.35
  -7  -5  -4  286.83   18.28
   7   5   4  324.72   27.26
   7   5   4  283.36   24.53
  -7  -5  -4  281.29   19.76
   7   5   4  286.09   14.49
   7   5   5  152.79   10.52
   7   5   5  165.48   19.56
   7   5   5  150.25   14.46
   7   5   5  145.28   16.69
  -7  -5  -5  162.66   15.09
   7   5   5  142.98   10.17
  -7  -5  -6  218.75   14.24
   7   5   6  244.13   24.57
   7   5   6  218.31   17.68
   7   5   6  224.86   21.21
  -7  -5  -6  224.42   18.68
   7   5   6  235.86   13.35
  -7  -5  -7  367.85   18.82
   7   5   7  449.60   34.30
   7   5   7  421.11   24.71
   7   5   7  382.64   27.31
   7   5   7  401.83   19.85
  -7  -5  -7  400.96   26.18
   7   5   7  414.33   18.85
  -7  -5  -8    4.02    2.43
  -7  -5  -8    6.95    2.03
   7   5   8    0.73    3.23
   7   5   8    7.29    3.23
   7   5   8    2.99    3.86
   7   5   8    2.28    1.85
   7   5   9  282.34   28.30
   7   5   9  270.35   19.72
   7   5   9  218.99   20.23
   7   5   9  268.31   17.33
  -7  -5  -9  274.24   22.81
   7   5  10  483.58   39.16
   7   5  10  484.43   27.20
   7   5  10  421.91   29.53
   7   5  10  442.19   24.20
  -7  -5 -10  420.16   30.26
  -7  -5 -11   -0.80    3.61
   7   5  11   -3.32    6.81
   7   5  11    9.64    3.77
   7   5  11    5.35    4.67
   7   5  11    3.08    2.42
   7   5  12  236.82   28.11
   7   5  12  239.26   19.07
   7   5  12  204.39   20.77
   7   5  12  229.85   18.29
  -7  -5 -12  254.47   24.41
  -7  -5 -13   42.34   10.97
  -7  -5 -13   47.96   11.04
   7   5  13   36.59   10.89
   7   5  13   33.99    7.19
   7   5  13   41.74   10.23
   7   5  13   32.17    7.62
   7   5  14   35.08    7.59
   7   5  14   38.76    9.50
   7   5  14   33.52    7.02
  -7  -6   7  178.83   19.75
   7   6  -6   40.76   10.13
  -7  -6   6   41.15    9.09
   7   6  -5  183.12   20.24
  -7  -6   5  167.80   17.66
   7   6  -4   59.00   11.01
  -7  -6   4   62.22   10.65
   7   6  -4   40.37   10.34
   7   6  -3   15.58    5.80
  -7  -6   3   23.86    4.97
  -7  -6   3   21.91    6.32
   7   6  -3   15.64    5.93
  -7  -6   2   32.91    7.46
   7   6  -2   38.07    8.20
  -7  -6   2   40.22    6.58
   7   6  -2   33.95    8.94
  -7  -6   1   64.19    9.83
   7   6  -1   68.11   11.01
   7   6  -1   68.59   11.97
  -7  -6   1   67.90    8.66
  -7  -6   0   84.55   11.40
   7   6   0   58.63    9.66
   7   6   0   69.89   12.20
   7   6   0   75.34   13.66
  -7  -6   0   70.79    9.08
   7   6   1  144.18   15.01
   7   6   1  119.49   12.25
   7   6   1  175.22   19.51
  -7  -6  -1  145.86   15.54
   7   6   1  141.18   18.38
  -7  -6  -1  172.13   14.44
  -7  -6  -2   -0.31    2.54
   7   6   2    0.88    2.07
   7   6   2   -3.62    5.57
   7   6   2    7.80    6.02
  -7  -6  -2    1.84    2.41
   7   6   2    0.47    2.11
   7   6   3    3.18    3.10
  -7  -6  -3   -0.52    2.23
   7   6   3   -0.97    2.86
   7   6   3    1.56    1.82
  -7  -6  -3    1.25    2.10
   7   6   3    1.70    2.65
   7   6   3    1.64    1.26
  -7  -6  -4    4.16    1.99
   7   6   4    6.20    2.51
  -7  -6  -4    8.94    3.68
   7   6   4   10.06    6.81
   7   6   4    8.78    5.69
   7   6   4   12.31    3.38
  -7  -6  -5   11.43    4.29
   7   6   5    9.79    4.08
   7   6   5   20.89    6.98
   7   6   5   14.20    3.59
  -7  -6  -6   42.96    8.30
   7   6   6   54.68   12.55
   7   6   6   43.42    9.17
  -7  -6  -7   15.06    5.31
   7   6   7   13.10    6.54
   7   6   7   16.66    5.63
   7   6   7    7.56    2.77
  -7  -6  -8   17.25    5.69
   7   6   8    5.32    3.49
   7   6   8   10.86    3.88
   7   6   8   12.33    3.72
  -7  -6  -9   58.61   11.02
   7   6   9   70.46   14.96
   7   6   9   68.16    9.22
   7   6   9   47.97    9.61
  -7  -6 -10  104.54   15.14
   7   6  10   97.79   18.44
   7   6  10  107.97   14.41
   7   6  10  124.74   12.64
  -7  -6 -10  113.77   15.34
  -7  -6 -11   -1.12    3.23
  -7  -6 -11   -5.79    5.17
   7   6  11   -5.27    7.22
   7   6  11    2.12    3.68
   7   6  11    1.40    1.89
  -7  -6 -12   37.03    9.77
  -7  -6 -12   37.53    9.58
   7   6  12   42.16   12.26
   7   6  12   49.40   10.30
   7   6  12   41.53    7.94
   7   6  13    3.18    3.94
   7   6  13    6.48    3.95
   7   6  14    9.13    5.71
  -7  -7   6    3.85    3.03
  -7  -7   5  249.42   23.05
   7   7  -4  182.05   20.35
   7   7  -4  189.63   20.98
  -7  -7   4  171.24   18.87
  -7  -7   3   62.75   10.72
   7   7  -3   60.11   12.13
   7   7  -3   62.20   11.99
   7   7  -2  199.20   20.73
   7   7  -2  165.69   19.47
  -7  -7   2  175.25   18.33
  -7  -7   2  187.31   15.12
   7   7  -1  347.21   27.08
   7   7  -1  350.89   28.53
  -7  -7   1  310.69   25.00
  -7  -7   1  323.52   21.16
  -7  -7   1  342.22   19.90
   7   7   0  135.83   15.78
   7   7   0  126.05   17.15
  -7  -7   0  117.76   14.89
  -7  -7   0  122.32   13.06
  -7  -7   0  131.61   12.31
   7   7   1  371.91   26.59
   7   7   1  397.92   31.49
  -7  -7  -1  388.76   27.59
   7   7   1  391.55   31.06
  -7  -7  -1  358.67   23.23
  -7  -7  -1  362.27   21.94
   7   7   2   67.59   10.77
  -7  -7  -2   64.61    9.51
   7   7   2   72.72   13.49
  -7  -7  -2   77.80   11.87
   7   7   2   68.95   12.21
   7   7   3   57.49    9.44
  -7  -7  -3   42.87    8.17
   7   7   3   59.30   12.11
  -7  -7  -3   62.74   10.91
   7   7   3   56.77   10.96
   7   7   4  339.96   23.36
  -7  -7  -4  342.27   24.55
   7   7   4  364.90   30.75
   7   7   4  324.13   26.46
  -7  -7  -4  285.92   22.25
   7   7   4  386.59   20.17
  -7  -7  -5   46.89    8.94
   7   7   5   46.02   10.79
   7   7   5   41.81    9.06
   7   7   6  118.81   18.44
   7   7   6  115.28   14.95
   7   7   6  125.20   12.47
  -7  -7  -6  112.66   14.43
  -7  -7  -6  113.00   13.73
  -7  -7  -7   73.23   11.33
  -7  -7  -7   55.07   10.58
   7   7   7   50.84   11.79
   7   7   7   70.78   11.38
   7   7   7   64.56    8.84
  -7  -7  -8   11.60    5.09
  -7  -7  -8   10.27    4.20
   7   7   8    7.89    4.45
   7   7   8    5.24    4.20
   7   7   8    3.38    1.62
  -7  -7  -9  105.38   14.74
   7   7   9  103.76   18.53
   7   7   9  118.33   12.84
   7   7   9   95.91   13.94
  -7  -7  -9  107.52   15.33
  -7  -7 -10   78.29   13.41
  -7  -7 -10   88.63   13.85
   7   7  10   94.81   18.08
   7   7  10   92.16   11.60
   7   7  10   83.46   12.45
   7   7  11    5.27    3.26
   7   7  11    3.91    3.43
   7   7  12   27.40    7.76
   7   7  12   12.66    5.40
   7   7  13    6.34    5.61
   7   7  13    9.31    5.16
  -7  -8   5   33.27    8.52
  -7  -8   4    7.02    3.76
  -7  -8   3   -5.59    6.25
   7   8  -3    2.32    5.22
   7   8  -3   -0.67    2.77
  -7  -8   2   34.75    8.74
   7   8  -2   40.78   10.14
   7   8  -2   52.57   11.00
   7   8  -1   75.38   13.00
   7   8  -1   65.93   12.84
  -7  -8   1   56.88   11.45
  -7  -8   0   54.48    8.41
   7   8   0   62.60   11.74
   7   8   0   63.74   12.65
  -7  -8   0   56.89   10.90
   7   8   1  244.89   22.52
   7   8   1  251.99   25.36
  -7  -8  -1  259.49   23.38
  -7  -8  -1  220.92   18.81
  -7  -8  -1  202.63   17.08
  -7  -8  -2   25.08    6.15
   7   8   2   31.06    7.67
  -7  -8  -2   26.99    6.85
   7   8   2   19.35    6.81
  -7  -8  -2   27.00    7.62
   7   8   2   34.81    8.72
  -7  -8  -3   53.97    9.28
   7   8   3   65.38   10.98
  -7  -8  -3   55.14    9.61
   7   8   3   58.73   11.88
  -7  -8  -3   63.35   11.24
   7   8   3   65.11   11.74
   7   8   4  303.03   23.13
  -7  -8  -4  344.74   25.95
   7   8   4  344.92   30.93
   7   8   4  322.17   26.37
  -7  -8  -4  306.23   23.83
  -7  -8  -4  334.76   24.09
  -7  -8  -5   48.38    9.14
  -7  -8  -5   58.03    9.99
   7   8   5   45.08   11.73
   7   8   5   47.52    9.81
   7   8   6  174.56   22.45
   7   8   6  137.08   16.92
  -7  -8  -6  144.49   17.22
  -7  -8  -6  156.21   17.27
   7   8   7  169.54   23.18
   7   8   7  167.75   18.30
  -7  -8  -7  185.56   19.97
  -7  -8  -7  173.15   18.37
  -7  -8  -8    6.68    5.15
  -7  -8  -8   -2.44    3.49
   7   8   8    5.93    3.43
   7   8   8   -0.52    2.60
   7   8   9  296.97   31.71
   7   8   9  256.70   22.89
   7   8   9  280.50   21.54
  -7  -8  -9  274.74   26.00
  -7  -8  -9  293.31   26.27
   7   8  10  257.65   23.11
   7   8  10  260.04   21.51
   7   8  11    1.78    4.72
   7   8  11    8.10    4.76
  -7  -9   3    2.84    4.98
  -7  -9   2   25.38    7.99
   7   9  -1   12.90    6.00
   7   9  -1   19.69    7.29
  -7  -9   1   11.98    5.88
   7   9   0   24.96    8.46
   7   9   0   18.15    6.92
  -7  -9   0   25.10    8.52
   7   9   1    7.65    4.01
   7   9   1   18.58    7.45
  -7  -9  -1   14.30    6.39
  -7  -9  -2    6.67    4.07
   7   9   2   -2.07    2.90
   7   9   2    5.58    4.41
  -7  -9  -2   -0.13    3.44
  -7  -9  -3    6.14    3.72
   7   9   3   15.80    6.75
  -7  -9  -3   14.02    6.20
   7   9   3   26.42    9.27
   7   9   3    8.99    3.94
  -7  -9  -4   27.24    6.94
   7   9   4   43.26    8.71
   7   9   4   42.06   12.18
   7   9   4   41.15    9.27
  -7  -9  -5   -1.14    2.97
   7   9   5    1.26    3.01
   7   9   5    3.34    4.63
   7   9   5   -4.23    3.93
  -7  -9  -6    2.66    2.99
   7   9   6   20.69    9.30
   7   9   6   15.84    6.20
  -7  -9  -7   12.51    5.17
   7   9   7   14.71    8.01
   7   9   7    3.83    2.46
  -7 -10   1   82.51   14.92
  -7 -10   0   49.84   11.71
   7  10   1  151.69   20.07
   7  10   1  177.23   21.46
  -7 -10  -1  162.71   20.05
   7  10   2    9.00    5.59
   7  10   2   31.07    9.37
  -7 -10  -2   22.41    6.40
  -7 -10  -3   55.49   10.67
   7  10   3   80.79   13.73
  -7 -10  -3   81.81   14.00
   7  10   3   93.92   16.34
   7  10   4  146.43   17.70
  -7 -10  -4  111.25   15.19
   7  10   4  121.02   18.97
  -7 -10  -5   -6.54    4.31
   7  10   5    0.64    4.61
   8  -9   0  188.51   20.25
   8  -9   1   16.52    6.43
   8  -9   2  334.06   28.48
   8  -9   3   51.23   11.47
  -8   8   3   18.30    7.30
  -8   8   2   59.38   13.96
   8  -8  -1    3.78    2.07
  -8   8   1   -2.39    5.80
   8  -8   0  103.22   13.59
  -8   8   0  143.82   21.49
   8  -8   1   -3.22    6.06
   8  -8   1    6.29    4.93
  -8   8  -1    5.08    4.74
  -8   8  -1   -4.83    6.12
   8  -8   2  200.41   24.21
  -8   8  -2  249.03   26.08
   8  -8   2  189.59   20.21
  -8   8  -2  265.14   28.92
   8  -8   3   70.83   12.86
  -8   8  -3   89.36   15.33
  -8   8  -3   87.37   17.00
   8  -8   4   -0.78    4.26
  -8   8  -4    4.00    3.69
   8  -8   5   92.32   14.90
  -8   8  -5  108.60   17.01
  -8   8  -6   92.87   15.64
  -8   8  -7   64.45   13.00
  -8   8  -8  304.40   28.84
  -8   8  -9   19.42    8.81
  -8   7   5   -2.96    5.78
  -8   7   4  181.05   24.09
   8  -7  -3   46.57   12.02
  -8   7   3   64.30   14.44
   8  -7  -2   22.06    9.30
   8  -7  -2   26.98    6.01
  -8   7   2   14.83    6.91
  -8   7   2   21.47    8.07
   8  -7  -1   12.33    5.42
   8  -7  -1   10.73    4.67
  -8   7   1   -2.00    3.82
  -8   7   1    1.22    3.03
   8  -7   0  105.79   17.17
   8  -7   0   82.68   11.54
  -8   7   0   79.43   13.97
  -8   7   0  116.75   18.34
   8  -7   1    0.62    3.71
   8  -7   1    0.91    2.20
  -8   7  -1    1.45    2.33
  -8   7  -1   -1.16    5.36
   8  -7   2  119.12   17.71
   8  -7   2  108.69   14.46
  -8   7  -2  102.25   15.88
  -8   7  -2  128.69   19.89
   8  -7   3    6.85    4.77
   8  -7   3    6.97    4.54
  -8   7  -3    6.91    4.88
  -8   7  -3   10.03    5.08
   8  -7   4    8.63    4.14
  -8   7  -4    8.85    5.36
   8  -7   5   18.17    6.18
   8  -7   5   11.47    5.41
  -8   7  -5    5.75    4.82
   8  -7   6   71.24   12.55
   8  -7   6   93.91   13.74
  -8   7  -6   78.55   13.64
   8  -7   7    9.06    6.22
   8  -7   7    7.41    3.30
  -8   7  -7    9.69    4.61
   8  -7   8   94.73   14.45
  -8   7  -8   66.08   12.44
   8  -7   9   19.42    6.55
  -8   7  -9    4.49    4.88
  -8   7 -10   15.66    6.67
   8  -7  10   26.05    8.82
  -8   7 -11   48.44   11.40
   8  -7  11   94.70   16.88
  -8   6   7    6.06    5.93
  -8   6   6  287.15   30.43
   8  -6  -5    6.00    5.13
  -8   6   5    8.39    8.05
   8  -6  -4  315.82   29.81
  -8   6   4  285.61   26.98
   8  -6  -3  131.10   18.86
   8  -6  -3  108.77   11.32
  -8   6   3  163.02   22.08
  -8   6   3  119.50   16.54
   8  -6  -2   60.57   13.12
   8  -6  -2   67.52    9.26
  -8   6   2   68.95   12.02
  -8   6   2   92.59   16.15
   8  -6  -1  100.58   16.13
   8  -6  -1  110.58   12.07
  -8   6   1   99.85   14.77
  -8   6   1  120.13   18.00
   8  -6   0  257.88   25.28
  -8   6   0  270.72   24.40
   8  -6   0  261.84   19.66
   8  -6   0  335.17   26.46
  -8   6   0  291.26   27.68
   8  -6   1   48.00   11.09
   8  -6   1   45.87    8.29
   8  -6   1   55.72   10.56
  -8   6  -1   58.44   11.56
  -8   6  -1   41.02   10.13
   8  -6   2  536.63   36.63
  -8   6  -2  584.49   36.48
   8  -6   2  492.65   29.93
  -8   6  -2  614.93   40.43
   8  -6   3   70.43   10.77
   8  -6   3   87.67   13.21
  -8   6  -3   71.19   11.83
   8  -6   4    8.46    4.11
   8  -6   4   17.99    6.47
  -8   6  -4    8.80    4.47
   8  -6   5  109.74   14.67
   8  -6   5  136.94   17.40
  -8   6  -5  106.72   14.87
   8  -6   6   55.22   10.85
   8  -6   6   79.33   12.92
  -8   6  -6   66.45   11.81
   8  -6   7   37.53    9.00
   8  -6   7   49.07   11.02
  -8   6  -7   34.84    8.81
  -8   6  -8  125.01   16.71
   8  -6   8  141.97   17.78
   8  -6   8  180.62   21.12
  -8   6  -9    2.46    1.69
   8  -6   9    0.37    2.65
  -8   6  -9   -0.52    3.39
  -8   6 -10    6.66    2.79
  -8   6 -10   12.93    5.10
   8  -6  10   12.59    7.74
  -8   6 -11   19.64    7.49
  -8   6 -11   30.77    7.33
  -8   6 -12    9.11    5.74
  -8   5   8   67.33   12.20
  -8   5   8   64.22   14.66
   8  -5  -7    9.57    5.82
  -8   5   7    5.96    3.75
  -8   5   7   13.70    7.34
   8  -5  -6   62.26   12.37
  -8   5   6   63.19   11.64
  -8   5   6   65.66   13.76
   8  -5  -5   -0.17    4.73
  -8   5   5    1.63    4.38
  -8   5   5    1.23    5.60
   8  -5  -4   94.29   15.14
  -8   5   4   90.71   13.55
  -8   5   4   92.85   16.35
   8  -5  -3   58.10   11.91
   8  -5  -3   57.50    8.05
  -8   5   3   36.91    8.79
  -8   5   3   66.78   13.85
   8  -5  -2   31.91    8.67
   8  -5  -2   20.98    5.02
  -8   5   2   29.69    7.22
  -8   5   2   22.59    7.33
   8  -5  -1   -0.50    2.60
   8  -5  -1    0.49    1.65
   8  -5  -1    3.57    3.02
  -8   5   1   -1.76    2.28
  -8   5   1    2.24    4.94
   8  -5   0  249.58   22.94
  -8   5   0  239.78   21.61
   8  -5   0  215.36   16.92
   8  -5   0  287.12   26.66
  -8   5   0  282.30   25.65
   8  -5   1   63.95   12.02
   8  -5   1   49.15    8.47
   8  -5   1   67.57   12.04
  -8   5  -1   41.49    8.80
  -8   5  -1   62.03   11.65
  -8   5  -2  513.52   31.98
  -8   5  -2  565.34   33.35
   8  -5   2  485.04   27.99
  -8   5  -2  555.33   35.44
   8  -5   3  101.11   12.43
  -8   5  -3  115.87   14.51
   8  -5   3  120.78   16.75
  -8   5  -3   90.09   13.15
  -8   5  -4   30.12    7.09
   8  -5   4   34.27    7.40
   8  -5   4   34.89    9.61
  -8   5  -4   33.29    7.96
  -8   5  -5  301.88   24.15
   8  -5   5  266.52   21.65
   8  -5   5  345.14   28.67
  -8   5  -6  103.91   14.08
   8  -5   6  108.78   14.22
   8  -5   6  120.19   16.78
  -8   5  -7  186.77   19.15
   8  -5   7  181.38   18.24
  -8   5  -8  357.26   27.09
   8  -5   8  357.40   27.13
   8  -5   8  414.73   33.02
  -8   5  -9    4.61    4.71
   8  -5   9    1.87    1.70
   8  -5   9    8.23    5.96
   8  -5   9    2.53    4.56
   8  -5  10  213.59   21.60
  -8   5 -10  193.34   20.58
  -8   5 -11  270.44   21.98
  -8   5 -11  258.16   24.43
   8  -5  11  329.98   31.82
  -8   5 -12    1.80    3.09
  -8   5 -12    2.19    5.07
  -8   5 -13   84.39   14.03
  -8   5 -13  100.05   14.21
   8  -4  -9   39.55    9.48
  -8   4   9   33.89    7.80
   8  -4  -8   97.63   14.80
  -8   4   8   74.96   11.83
  -8   4   8   72.76   14.60
   8  -4  -7    6.10    4.38
  -8   4   7   -5.63    4.52
  -8   4   7    3.27    3.99
   8  -4  -6  139.26   17.47
  -8   4   6  124.05   15.20
  -8   4   6  148.67   20.30
   8  -4  -5    4.64    4.37
  -8   4   5    3.61    3.92
  -8   4   5    7.59    4.61
   8  -4  -4  106.51   14.94
   8  -4  -4  108.20   10.47
  -8   4   4  129.69   17.85
  -8   4   4   91.95   12.93
   8  -4  -3   21.04    6.34
   8  -4  -3   23.83    5.07
  -8   4   3   12.02    4.92
  -8   4   3   22.32    7.46
   8  -4  -2   83.41   12.80
   8  -4  -2   66.34    8.38
  -8   4   2   71.69   10.95
  -8   4   2   77.47   12.90
  -8   4   1    8.08    3.72
   8  -4  -1   17.69    6.55
   8  -4  -1   12.47    4.00
   8  -4  -1   16.68    7.93
  -8   4   1   15.60    5.47
  -8   4   1   14.51    5.73
   8  -4   0   89.91   12.87
  -8   4   0   85.04   10.41
  -8   4   0   90.60   12.54
   8  -4   0   74.90    9.39
   8  -4   0  105.94   16.75
  -8   4   0   90.72   13.11
  -8   4   0   92.11   11.92
  -8   4  -1    2.89    2.54
   8  -4   1    3.27    2.34
   8  -4   1    9.83    3.31
  -8   4  -1    0.42    2.19
  -8   4  -1    6.22    4.10
  -8   4  -1   13.04    4.90
  -8   4  -2   81.48   11.42
   8  -4   2   76.64    9.97
   8  -4   2  107.61   16.78
  -8   4  -2  104.19   13.19
  -8   4  -2   80.04   10.94
  -8   4  -2   81.69   11.33
  -8   4  -3   14.43    4.60
   8  -4   3    6.15    4.27
   8  -4   3    9.44    6.43
  -8   4  -3   19.48    6.04
  -8   4  -4    1.32    2.33
   8  -4   4   10.67    3.68
  -8   4  -4    5.47    2.77
   8  -4   5   22.48    5.35
  -8   4  -5   24.00    5.40
   8  -4   5   17.38    5.23
   8  -4   5   21.42    5.50
  -8   4  -5   19.11    5.55
   8  -4   6   71.30    9.06
   8  -4   6   63.39   10.05
   8  -4   6   83.30   14.68
  -8   4  -6   76.56   11.49
   8  -4   7   40.85    7.02
   8  -4   7   34.18    7.56
   8  -4   7   46.89   11.14
  -8   4  -7   37.84    7.58
   8  -4   8  131.52   12.24
  -8   4  -8  111.99   14.39
   8  -4   8  130.85   15.38
   8  -4   8  140.28   19.22
  -8   4  -9    9.06    4.47
   8  -4   9    0.48    1.65
   8  -4   9    2.23    4.76
   8  -4   9    7.27    6.96
  -8   4 -10   74.34   12.15
   8  -4  10   88.79    9.83
   8  -4  10   93.78   13.66
   8  -4  11  200.44   20.12
  -8   4 -11  179.62   19.44
  -8   4 -12    4.09    2.54
   8  -4  12    7.69    4.76
  -8   4 -13  155.01   18.06
  -8   4 -13  113.62   16.30
  -8   4 -14   17.33    6.26
   8  -3  -9   85.55   12.97
   8  -3  -8  102.16   13.90
  -8   3   8  105.90   13.55
  -8   3   8   84.82   12.09
   8  -3  -7   33.20    8.38
  -8   3   7   26.44    6.76
  -8   3   7   29.93    6.89
  -8   3   7   18.35    5.75
   8  -3  -6  296.57   23.58
  -8   3   6  299.36   22.36
  -8   3   6  316.11   28.31
   8  -3  -5   12.93    5.13
   8  -3  -5    8.94    3.02
  -8   3   5   17.01    5.49
  -8   3   5   21.90    7.33
   8  -3  -4  498.43   30.26
  -8   3   4  476.06   28.38
   8  -3  -4  473.30   23.73
  -8   3   4  514.44   34.68
   8  -3  -3  226.71   19.89
  -8   3   3  212.90   18.22
  -8   3   3  230.12   15.03
   8  -3  -3  229.73   15.78
   8  -3  -3  216.97   16.31
  -8   3   3  245.55   22.67
   8  -3  -2   30.29    7.42
  -8   3   2   28.56    4.94
   8  -3  -2   30.23    5.63
   8  -3  -2   34.48   10.02
   8  -3  -2   21.29    5.16
  -8   3   2   22.58    6.00
  -8   3   2   29.29    7.52
  -8   3   1  190.93   16.96
   8  -3  -1  180.85   14.15
   8  -3  -1  199.94   25.67
   8  -3  -1  176.89   15.20
  -8   3   1  214.50   18.68
  -8   3   1  188.53   18.48
  -8   3   0  253.29   17.06
  -8   3   0  237.76   19.08
   8  -3   0  242.50   17.07
   8  -3   0  293.23   29.85
   8  -3   0  241.66   19.23
  -8   3   0  283.42   20.86
  -8   3   0  252.74   21.93
  -8   3  -1   67.87   11.14
  -8   3  -1   85.77    9.79
   8  -3   1   74.68    9.31
   8  -3   1   90.10   15.87
  -8   3  -1   91.19   11.22
   8  -3   1   87.96   12.15
  -8   3  -1   80.31   10.83
  -8   3  -2  464.05   27.63
  -8   3  -2  501.81   26.08
   8  -3   2  489.81   25.74
   8  -3   2  475.70   32.21
   8  -3   3   59.48    8.98
  -8   3  -3   75.52    9.45
   8  -3   3   57.51    8.55
   8  -3   3   52.37   12.29
   8  -3   3   52.15   10.80
  -8   3  -3   64.32   10.26
  -8   3  -4   13.95    3.86
   8  -3   4   15.00    4.58
   8  -3   4   12.73    4.63
   8  -3   4   10.85    6.77
   8  -3   4    8.43    4.13
  -8   3  -4   13.16    5.10
   8  -3   5  156.77   14.12
  -8   3  -5  131.30   13.85
   8  -3   5  154.70   14.83
   8  -3   5  150.95   19.59
  -8   3  -5  130.74    9.45
  -8   3  -6   44.41    4.61
   8  -3   6   44.48    7.37
   8  -3   6   44.99    8.27
   8  -3   6   59.81   12.81
  -8   3  -6   39.82    7.81
  -8   3  -7   11.74    4.84
   8  -3   7   11.64    3.73
   8  -3   7   17.67    5.68
   8  -3   7   24.95    7.73
  -8   3  -8   22.03    6.77
   8  -3   8   25.49    5.74
   8  -3   8   28.41    7.39
   8  -3   8   21.95    9.73
  -8   3  -9   -1.46    2.47
   8  -3   9    8.38    3.63
   8  -3   9    7.05    4.01
   8  -3   9    5.50    4.91
  -8   3 -10   42.80    9.04
   8  -3  10   42.16    7.09
   8  -3  10   49.62    9.36
   8  -3  10   47.99   11.62
  -8   3 -11   92.87   13.93
   8  -3  11  108.76   11.63
   8  -3  11  107.88   14.34
  -8   3 -12    8.99    4.60
   8  -3  12   -0.05    2.02
   8  -3  12   10.63    4.96
  -8   3 -13    0.76    4.11
   8  -3  13    0.45    3.56
  -8   3 -14   -8.62    5.02
   8  -2  -8  104.20   13.14
  -8   2   8  100.83   13.50
  -8   2   8  101.59   12.13
   8  -2  -7   11.72    5.06
  -8   2   7    8.68    3.62
  -8   2   7    1.36    3.61
  -8   2   7    5.80    2.86
   8  -2  -6   95.82   12.60
  -8   2   6   98.62   11.86
  -8   2   6  104.81   12.51
  -8   2   6  103.81   15.46
   8  -2  -5   -0.20    2.87
   8  -2  -5    1.94    2.18
  -8   2   5    1.67    2.83
  -8   2   5   -0.51    2.54
  -8   2   5    4.19    3.06
   8  -2  -4  196.64   17.17
  -8   2   4  204.22   15.76
  -8   2   4  195.56   16.76
   8  -2  -4  180.04   14.22
  -8   2   4  210.30   20.09
  -8   2   3   76.26    8.22
   8  -2  -3   72.18    8.74
  -8   2   3   78.83   10.15
  -8   2   3   86.57   11.77
  -8   2   2   30.40    5.33
   8  -2  -2   30.09    6.16
   8  -2  -2   35.13   10.40
   8  -2  -2   30.83    5.24
  -8   2   2   24.56    6.03
  -8   2   2   28.99    5.67
  -8   2   1  109.53   12.26
  -8   2   1   95.04    9.65
   8  -2  -1   94.54    9.98
   8  -2  -1  139.38   21.58
   8  -2  -1  108.78    9.95
  -8   2   1  108.86   11.21
  -8   2   0  298.27   20.48
   8  -2   0  284.94   18.20
   8  -2   0  275.85   17.61
  -8   2   0  291.73   18.13
   8  -2   1  123.90   13.62
  -8   2  -1  142.32   11.29
  -8   2  -1  144.79   14.05
   8  -2   1  137.50   12.43
   8  -2   1  168.24   22.06
   8  -2   1  129.00   13.02
  -8   2  -1  136.24   16.70
   8  -2   2  739.16   34.66
  -8   2  -2  693.04   28.35
  -8   2  -2  694.95   33.13
   8  -2   2  725.06   31.81
   8  -2   2  696.79   46.32
   8  -2   2  654.67   35.16
   8  -2   3  113.13   12.54
  -8   2  -3   94.96   11.49
  -8   2  -3  101.62    9.72
   8  -2   3  102.05   11.12
   8  -2   3  109.98   17.07
   8  -2   3   81.34   13.08
   8  -2   4  223.40   17.67
  -8   2  -4  224.89   18.29
   8  -2   4  222.46   17.02
   8  -2   4  235.83   25.16
  -8   2  -4  227.93   11.76
   8  -2   4  204.29   20.51
   8  -2   5  665.04   31.57
  -8   2  -5  633.05   32.26
   8  -2   5  616.66   30.39
   8  -2   5  617.29   40.92
   8  -2   5  616.28   35.42
  -8   2  -5  606.22   16.10
  -8   2  -6   67.43    9.71
   8  -2   6   68.27    9.18
   8  -2   6   70.29    9.91
   8  -2   6   74.82   13.66
   8  -2   6   66.33   11.12
   8  -2   7  287.37   20.04
  -8   2  -7  258.23   20.38
   8  -2   7  254.77   19.41
   8  -2   7  278.34   26.76
   8  -2   8  301.79   20.58
   8  -2   8  292.21   21.33
  -8   2  -8  290.54   22.05
   8  -2   8  324.03   29.14
  -8   2  -9    3.65    3.28
   8  -2   9   -1.06    2.86
   8  -2   9    1.72    2.43
   8  -2   9    6.23    6.84
   8  -2  10  414.41   24.97
   8  -2  10  390.19   26.13
  -8   2 -10  388.42   27.37
   8  -2  10  473.18   36.37
   8  -2  11  330.27   22.38
   8  -2  11  283.35   22.47
  -8   2 -11  287.05   23.90
  -8   2 -12   12.30    4.20
   8  -2  12    9.04    4.74
   8  -2  12   13.75    4.78
  -8   2 -13   66.22   12.34
   8  -2  13   67.62   10.07
   8  -2  13   58.59   10.32
  -8   2 -14    4.02    3.22
  -8   2 -15   17.25    4.70
  -8   1   9   31.10    7.90
  -8   1   8  113.77   14.11
  -8   1   7    1.83    2.81
  -8   1   7    3.45    1.84
  -8   1   6   67.98   11.33
  -8   1   6   67.12    9.44
  -8   1   6   71.06   10.13
  -8   1   5   31.24    6.51
  -8   1   5   29.56    7.60
  -8   1   5   25.80    5.70
  -8   1   4   79.11    9.45
  -8   1   4   69.17    7.78
   8  -1  -4   63.71    8.64
  -8   1   4   75.22   10.34
  -8   1   4   75.87    9.71
  -8   1   3   24.20    4.91
  -8   1   3   29.49    5.15
   8  -1  -3   30.79    6.03
  -8   1   3   35.51    6.72
  -8   1   3   35.92    6.84
  -8   1   2   46.38    6.28
  -8   1   2   46.87    6.70
   8  -1  -2   50.38    7.33
   8  -1  -2   54.19   14.52
  -8   1   2   56.65    7.04
  -8   1   2   57.90    8.17
  -8   1   1   -0.42    1.81
   8  -1  -1   -0.30    1.38
   8  -1  -1    0.33    5.03
   8  -1  -1    4.08    1.97
  -8   1   1    2.09    2.33
  -8   1   1    3.48    2.07
  -8   1   0   59.11    6.21
   8  -1   0   54.02    9.03
   8  -1   0   64.46    8.32
   8  -1   0   62.14   14.52
   8  -1   0   63.56    6.39
  -8   1   0   54.76    8.37
  -8   1  -1    3.25    1.12
   8  -1   1    6.81    3.80
   8  -1   1    5.16    3.21
   8  -1   1    0.41    3.40
   8  -1   1    5.82    2.64
  -8   1  -1    1.33    1.68
  -8   1  -2   79.78    5.82
  -8   1  -2   81.64    7.33
   8  -1   2   83.65   11.12
  -8   1  -2   69.10    9.52
   8  -1   2   83.39    9.67
   8  -1   2   78.89   15.18
   8  -1   2   66.83    8.71
  -8   1  -3   26.21    2.65
   8  -1   3   23.63    5.89
   8  -1   3   19.52    4.92
   8  -1   3   26.01    8.35
  -8   1  -3   21.37    3.26
   8  -1   3   24.98    6.17
  -8   1  -3   22.49    5.50
  -8   1  -4   20.12    5.46
   8  -1   4   15.05    4.82
   8  -1   4    9.80    3.60
   8  -1   4   14.76    5.88
   8  -1   4    8.23    2.92
   8  -1   5  151.51   14.73
  -8   1  -5  152.63   14.55
   8  -1   5  154.30   14.10
   8  -1   5  149.07   19.20
   8  -1   5  136.58   14.73
  -8   1  -6   31.08    6.80
   8  -1   6   32.01    7.00
   8  -1   6   28.89    5.76
   8  -1   6   26.64    7.61
   8  -1   6   25.16    5.67
  -8   1  -7   50.36    8.66
   8  -1   7   58.39    8.87
   8  -1   7   47.39    8.03
   8  -1   7   56.51   12.10
   8  -1   7   53.07    8.38
  -8   1  -8   74.40   11.02
   8  -1   8   89.26   11.50
   8  -1   8   75.48   10.52
   8  -1   8  101.88   15.98
  -8   1  -9    0.75    2.05
   8  -1   9   -5.55    3.61
   8  -1   9    0.51    2.69
   8  -1   9    3.36    3.21
   8  -1  10  443.51   27.07
   8  -1  10  382.65   25.31
  -8   1 -10  396.70   27.47
   8  -1  10  444.21   34.88
   8  -1  11  486.71   29.23
   8  -1  11  484.74   29.12
  -8   1 -11  444.66   30.05
   8  -1  11  517.72   38.76
  -8   1 -12    9.40    4.42
   8  -1  12    8.61    2.72
   8  -1  12   17.77    6.09
  -8   1 -13   92.74   14.54
   8  -1  13   84.86   12.31
   8  -1  13   83.30   11.82
  -8   1 -14    6.40    3.86
   8  -1  14    5.08    3.65
   8  -1  14    6.69    4.17
  -8   1 -15   30.79    8.67
  -8   0   9  158.00   17.56
  -8   0   8   57.12    9.87
  -8   0   7   47.01    8.44
  -8   0   7   44.51    7.07
  -8   0   6  313.79   21.78
  -8   0   6  299.88   19.22
  -8   0   5   30.41    6.22
  -8   0   5   34.99    6.41
  -8   0   4  413.21   22.88
  -8   0   4  409.85   22.96
  -8   0   4  433.88   21.78
  -8   0   3  179.19   13.72
  -8   0   3  171.87   14.22
  -8   0   3  158.78   12.76
   8   0  -3  172.16   14.90
  -8   0   3  169.21   10.81
  -8   0   2   -0.56    1.69
   8   0  -2   -0.44    5.80
   8   0  -2    1.17    2.19
  -8   0   2    2.10    1.45
  -8   0   2   -2.39    2.48
  -8   0   1  195.46   12.54
   8   0  -1  179.59   17.65
  -8   0   1  196.80   15.39
   8   0  -1  196.69   27.34
   8   0  -1  194.99   15.14
  -8   0   0  150.77   10.00
   8   0   0  158.01   16.25
  -8   0   0  158.35   13.60
   8   0   0  143.76   13.04
   8   0   0  140.01   22.04
  -8   0  -1   59.57    5.55
   8   0   1   65.93   10.53
   8   0   1   55.80    7.87
   8   0   1   55.81    4.87
   8   0   1   60.14   13.27
  -8   0  -1   54.57    8.12
  -8   0  -2  221.99    9.84
   8   0   2  232.38   19.20
  -8   0  -2  216.33   16.47
   8   0   2  213.60   15.78
   8   0   2  229.98   25.70
   8   0   2  198.35   12.16
  -8   0  -3   27.88    5.65
   8   0   3   25.25    6.14
   8   0   3   35.68    6.54
  -8   0  -3   27.83    2.20
   8   0   3   27.30    9.06
  -8   0  -3   21.53    2.31
   8   0   3   29.68    5.73
   8   0   4  105.33   12.60
  -8   0  -4  117.93   12.44
   8   0   4  109.81   11.53
   8   0   4  126.86   17.99
   8   0   4  106.68   12.32
   8   0   5  239.46   19.21
  -8   0  -5  217.90   17.51
   8   0   5  232.53   17.26
   8   0   5  229.07   23.87
   8   0   5  222.08   17.20
  -8   0  -6    9.04    2.90
   8   0   6   11.76    4.77
   8   0   6   17.97    4.94
   8   0   6    9.32    4.35
   8   0   6   10.07    4.15
  -8   0  -7   11.30    4.31
   8   0   7   19.13    5.40
   8   0   7   15.74    4.37
   8   0   7   12.05    5.29
   8   0   7   14.88    4.56
  -8   0  -8   11.25    4.33
   8   0   8   15.03    4.56
   8   0   8   11.51    4.03
   8   0   8   10.47    6.43
   8   0   8   13.72    3.74
  -8   0  -9    7.33    3.63
   8   0   9    0.59    2.96
   8   0   9    1.53    1.75
   8   0   9    7.96    5.93
   8   0  10  149.09   16.33
   8   0  10  165.20   15.48
  -8   0 -10  152.58   16.36
   8   0  10  171.35   20.67
   8   0  11  112.15   14.47
   8   0  11  123.85   13.69
  -8   0 -11  123.64   15.18
   8   0  11  115.98   17.82
  -8   0 -12   -2.58    3.74
   8   0  12    2.62    2.90
  -8   0 -13    3.95    4.25
   8   0  13    5.44    2.38
   8   0  13    5.69    4.14
  -8   0 -14    0.82    2.77
   8   0  14    1.50    2.89
   8   0  14   -0.70    2.91
  -8   0 -15   15.84    7.05
   8   0  15   14.27    5.33
   8   0  15    4.33    3.25
  -8  -1   9   36.23    8.91
  -8  -1   8   92.62   13.11
  -8  -1   7   12.57    4.83
  -8  -1   6  120.14   13.58
  -8  -1   6  116.55   10.85
  -8  -1   5   16.18    4.04
  -8  -1   5   14.56    4.35
  -8  -1   4  296.89   19.32
  -8  -1   4  295.96   18.26
  -8  -1   3  141.08   12.21
  -8  -1   3  141.01   12.29
  -8  -1   2    5.33    2.34
   8   1  -2   17.43    7.31
  -8  -1   2    9.66    3.59
   8   1  -2   10.15    3.44
  -8  -1   1  366.37   18.15
   8   1  -1  338.88   25.52
  -8  -1   1  369.32   21.21
   8   1  -1  403.11   38.74
   8   1  -1  368.28   22.44
  -8  -1   0  259.87   13.97
   8   1   0  284.98   22.25
  -8  -1   0  248.44   17.30
   8   1   0  283.67   31.15
   8   1   0  296.15   19.31
   8   1   1  105.65   13.28
  -8  -1  -1  114.80   11.59
   8   1   1  110.98   11.63
   8   1   1  123.31   19.43
  -8  -1  -1  112.46    8.10
   8   1   2  662.52   35.10
  -8  -1  -2  679.44   30.66
   8   1   2  691.87   30.83
   8   1   2  740.35   47.08
   8   1   2  613.86   16.16
  -8  -1  -2  659.07   20.79
   8   1   3   63.91   10.37
  -8  -1  -3   71.08    9.53
   8   1   3   68.87    9.16
   8   1   3   75.27   14.02
   8   1   3   56.33    6.02
   8   1   4  431.12   27.23
  -8  -1  -4  402.60   23.64
   8   1   4  397.70   22.93
   8   1   4  430.84   33.35
   8   1   4  373.07   20.95
   8   1   5  606.70   33.63
   8   1   5  577.23   28.48
  -8  -1  -5  568.22   29.51
   8   1   5  564.25   37.68
   8   1   5  574.93   26.65
  -8  -1  -6   19.13    5.34
   8   1   6   25.36    7.18
   8   1   6   19.77    4.85
   8   1   6   22.14    6.48
   8   1   6   26.18    5.33
   8   1   7  175.07   17.89
   8   1   7  163.59   14.75
  -8  -1  -7  168.99   16.05
   8   1   7  164.07   19.43
   8   1   7  159.64   13.32
  -8  -1  -8   54.83    9.20
   8   1   8   47.43    9.30
   8   1   8   63.15    9.33
   8   1   8   65.00   12.28
   8   1   8   58.19    8.42
  -8  -1  -9   -1.94    2.48
   8   1   9    2.40    3.28
   8   1   9    1.37    2.48
   8   1   9    2.14    4.97
   8   1  10  596.28   35.77
   8   1  10  579.83   30.72
  -8  -1 -10  583.73   33.61
   8   1  10  564.77   38.46
   8   1  11  239.20   22.38
   8   1  11  229.06   18.84
  -8  -1 -11  239.83   21.81
   8   1  11  227.24   24.21
  -8  -1 -12   16.01    5.61
   8   1  12   29.59    8.61
   8   1  12   28.24    6.88
   8   1  12   31.71    9.46
  -8  -1 -13   -1.92    3.27
   8   1  13    8.75    4.19
   8   1  13    2.25    2.65
  -8  -1 -14   -3.25    3.79
   8   1  14    4.97    4.31
   8   1  14   -0.74    2.00
  -8  -1 -15    8.55    5.70
   8   1  15    4.52    4.10
   8   1  15    7.28    3.71
  -8  -2   8   52.54   10.28
  -8  -2   7    9.50    4.70
  -8  -2   6   43.47    8.36
  -8  -2   5    2.28    1.96
  -8  -2   5   10.20    3.87
  -8  -2   4   57.43    7.37
  -8  -2   4   65.72    8.79
  -8  -2   3   19.26    4.27
  -8  -2   3   29.08    5.68
  -8  -2   3   23.92    5.95
  -8  -2   2   12.24    3.60
  -8  -2   2   12.82    3.66
  -8  -2   2   12.30    4.58
   8   2  -2   11.82    4.74
   8   2  -2    9.89    8.57
  -8  -2   1   44.90    6.27
  -8  -2   1   38.48    6.54
  -8  -2   1   35.09    6.53
   8   2  -1   40.83    9.13
   8   2  -1   39.68   11.94
   8   2  -1   49.51    8.28
  -8  -2   0   24.56    5.42
   8   2   0   43.42    9.01
   8   2   0   27.64    6.08
   8   2   0   40.71   12.07
  -8  -2   0   26.67    4.35
  -8  -2  -1    0.96    2.32
   8   2   1    1.78    4.33
  -8  -2  -1    4.40    2.52
   8   2   1    1.16    1.85
   8   2   1   -2.85    3.08
   8   2   2  110.36   13.99
  -8  -2  -2   93.42   10.66
   8   2   2   96.09   11.24
  -8  -2  -2   88.29    7.52
   8   2   2   96.34   15.67
  -8  -2  -3   25.75    6.02
   8   2   3   20.04    6.61
   8   2   3   24.75    5.63
  -8  -2  -3   22.33    2.95
   8   2   3   24.92    9.32
   8   2   4  335.63   25.40
   8   2   4  372.63   22.15
  -8  -2  -4  335.54   21.66
   8   2   4  347.46   29.54
   8   2   4  314.84   16.01
   8   2   5  467.68   30.43
   8   2   5  474.60   25.61
  -8  -2  -5  475.29   26.61
   8   2   5  448.42   33.42
   8   2   5  461.41   21.11
  -8  -2  -6    5.41    3.87
   8   2   6   -2.12    4.07
   8   2   6    6.86    3.99
   8   2   6   -1.55    3.20
   8   2   6    4.54    2.31
  -8  -2  -7   23.49    5.97
   8   2   7   19.72    6.33
   8   2   7   29.48    6.01
   8   2   7   23.81    7.04
   8   2   8  179.40   19.50
   8   2   8  163.44   14.85
  -8  -2  -8  163.77   16.27
   8   2   8  161.67   18.87
  -8  -2  -9   17.97    6.09
   8   2   9    9.68    5.32
   8   2   9   10.80    4.14
   8   2   9    6.22    4.02
   8   2  10  845.74   45.84
   8   2  10  816.24   37.27
   8   2  10  847.82   46.85
  -8  -2 -10  838.86   41.76
   8   2  11  353.86   29.53
   8   2  11  344.77   23.04
   8   2  11  373.77   30.62
  -8  -2 -11  348.13   26.69
  -8  -2 -12   66.68   11.75
   8   2  12   69.52   12.91
   8   2  12   60.71    9.65
   8   2  12   63.57   12.83
  -8  -2 -13   81.20   13.28
   8   2  13   86.89   14.70
   8   2  13   69.50   10.58
   8   2  13   45.47   11.71
  -8  -2 -14    4.52    3.74
   8   2  14    8.64    5.81
   8   2  14    6.65    4.11
   8   2  15   33.81    7.98
  -8  -3   8   30.75    7.66
  -8  -3   7   77.40   11.90
  -8  -3   6  157.31   16.02
  -8  -3   5   22.71    6.22
  -8  -3   5   19.24    4.10
  -8  -3   4  199.13   13.99
  -8  -3   4  192.86   16.23
   8   3  -3   55.75   11.64
  -8  -3   3   56.24    7.59
  -8  -3   3   50.60    7.55
  -8  -3   2   41.89    6.79
  -8  -3   2   36.77    6.48
   8   3  -2   33.40    8.72
  -8  -3   2   34.49    6.05
  -8  -3   1   85.47   10.09
   8   3  -1   85.83   13.15
  -8  -3   1   70.91    8.59
   8   3  -1  116.13   20.21
  -8  -3   1   80.49    8.82
   8   3   0   89.83   13.45
  -8  -3   0   89.85   10.09
   8   3   0  100.73   18.04
  -8  -3   0   82.29    8.90
  -8  -3  -1    3.62    2.59
  -8  -3  -1    1.59    1.27
   8   3   1   -1.00    2.38
   8   3   1    0.92    2.25
  -8  -3  -2   43.46    6.17
  -8  -3  -2   48.96    7.78
   8   3   2   51.07   10.11
   8   3   2   45.69    7.95
   8   3   2   51.75   11.42
  -8  -3  -3    5.51    3.07
   8   3   3   -2.09    2.74
   8   3   3   -2.94    3.19
  -8  -3  -3    2.56    1.73
   8   3   3    7.77    4.79
   8   3   4  171.43   18.67
   8   3   4  149.91   14.42
   8   3   4  138.92   18.26
  -8  -3  -4  142.28   13.61
   8   3   4  111.11    5.17
  -8  -3  -5   60.63    9.20
   8   3   5   46.38    9.93
   8   3   5   77.93   10.34
   8   3   5   72.36    5.45
   8   3   5   59.72   11.64
   8   3   5   78.67    7.13
  -8  -3  -6    2.42    1.57
   8   3   6    0.11    4.07
   8   3   6    2.39    1.92
   8   3   6   -3.55    4.32
   8   3   6    1.10    1.26
  -8  -3  -7   43.95    8.42
   8   3   7   44.99   10.43
   8   3   7   36.71    7.13
   8   3   7   34.01    8.53
  -8  -3  -8    7.99    4.17
   8   3   8   10.87    6.54
   8   3   8    4.48    3.42
   8   3   8    0.57    3.19
  -8  -3  -9    1.24    2.71
   8   3   9   -2.66    2.87
   8   3   9   -0.45    3.28
   8   3  10  298.75   28.00
   8   3  10  297.07   20.99
   8   3  10  257.88   24.75
  -8  -3 -10  288.89   23.51
  -8  -3 -11  101.00   14.31
   8   3  11  100.68   16.18
   8   3  11  104.55   12.36
   8   3  11   99.31   14.93
  -8  -3 -12   26.84    8.14
   8   3  12   17.79    7.64
   8   3  12   18.22    5.81
   8   3  12   13.15    6.12
  -8  -3 -13    1.55    2.47
   8   3  13    3.10    3.48
   8   3  13    5.68    3.86
   8   3  13    4.80    4.85
   8   3  14    2.53    5.76
   8   3  14    5.28    3.04
   8   3  15   26.27    7.30
  -8  -4   8   16.47    4.89
  -8  -4   7   57.21   10.15
   8   4  -6  126.29   15.97
  -8  -4   6  140.99   15.70
   8   4  -5   25.71    7.11
  -8  -4   5   20.06    5.18
   8   4  -4  288.92   23.24
  -8  -4   4  282.90   16.88
  -8  -4   4  312.21   21.83
   8   4  -3  152.43   16.23
   8   4  -3  136.65   18.06
  -8  -4   3  122.78   11.14
  -8  -4   3  136.10   13.65
   8   4  -2   73.28   13.05
  -8  -4   2   95.52    9.98
  -8  -4   2   87.01   10.73
  -8  -4   1  444.40   24.47
   8   4  -1  507.94   34.04
   8   4  -1  472.69   40.79
  -8  -4   1  465.18   23.77
  -8  -4   1  489.01   25.71
   8   4   0  149.65   17.91
  -8  -4   0  122.72   11.86
  -8  -4   0  115.50   11.76
   8   4   0  144.75   21.19
  -8  -4  -1   63.99    8.86
   8   4   1   71.64   12.66
  -8  -4  -1   66.85    8.66
   8   4   1   85.91   15.42
   8   4   2  489.27   33.72
  -8  -4  -2  515.36   26.00
   8   4   2  513.08   37.78
   8   4   2  492.34   28.76
  -8  -4  -2  468.29   25.46
  -8  -4  -3   20.99    5.15
   8   4   3   14.44    6.08
  -8  -4  -3   14.95    4.14
   8   4   3   14.29    4.92
   8   4   3   14.54    6.11
   8   4   4  726.80   42.22
   8   4   4  699.51   34.27
   8   4   4  682.43   42.24
  -8  -4  -4  664.76   32.68
   8   4   5  478.07   34.49
   8   4   5  517.06   28.61
   8   4   5  460.47   33.44
  -8  -4  -5  472.12   27.49
   8   4   5  485.32   17.09
  -8  -4  -6    2.66    2.16
   8   4   6    4.71    3.68
   8   4   6    2.12    2.09
   8   4   6    5.18    5.01
   8   4   6    3.26    1.68
  -8  -4  -7   13.68    4.64
   8   4   7   15.27    7.34
   8   4   7    9.80    4.09
   8   4   7    9.80    4.30
  -8  -4  -8   46.19    9.05
   8   4   8   41.82   10.37
   8   4   8   62.46    9.56
   8   4   8   31.92    8.48
   8   4   8   42.97    6.15
  -8  -4  -9   10.64    4.55
   8   4   9   14.85    8.34
   8   4   9   -0.52    2.45
   8   4   9    8.56    4.09
   8   4   9    9.05    3.81
   8   4  10  444.02   36.37
   8   4  10  448.65   26.74
   8   4  10  429.85   32.00
   8   4  10  439.30   23.26
  -8  -4 -10  473.48   31.54
  -8  -4 -11   65.53   11.45
   8   4  11   69.42   14.73
   8   4  11   63.74    9.80
   8   4  11   62.68   12.23
   8   4  11   60.80    8.52
  -8  -4 -12   20.66    7.76
   8   4  12   24.34    9.79
   8   4  12   12.99    4.36
   8   4  12   13.31    7.15
   8   4  12   10.67    4.15
  -8  -4 -13    2.17    2.72
   8   4  13    1.35    3.37
   8   4  13    8.11    3.85
   8   4  13   -0.09    2.37
   8   4  14    4.60    3.59
   8   4  14    3.61    3.20
  -8  -5   7    2.66    3.18
  -8  -5   6   23.47    6.84
   8   5  -5   -3.01    2.82
  -8  -5   5    3.28    3.20
   8   5  -4   26.66    7.24
  -8  -5   4   50.33   10.10
  -8  -5   3   10.38    3.43
   8   5  -3    3.78    3.59
  -8  -5   3   13.98    5.61
  -8  -5   2   39.22    6.47
   8   5  -2   39.50    8.34
  -8  -5   2   41.41    7.86
   8   5  -2   30.52    8.84
   8   5  -1   71.72   11.41
  -8  -5   1   64.53    9.85
   8   5  -1   67.78   12.41
  -8  -5   1   69.42    8.90
  -8  -5   0   40.84    7.40
  -8  -5   0   27.61    5.52
   8   5   0   37.69    7.77
   8   5   0   41.76    9.64
   8   5   0   51.15   12.88
  -8  -5  -1    0.03    2.68
  -8  -5  -1    0.49    2.24
   8   5   1    8.93    6.31
   8   5   1    4.94    2.18
   8   5   1    5.75    7.27
   8   5   2  123.02   10.01
   8   5   2  144.65   18.93
  -8  -5  -2  151.92   14.43
  -8  -5  -2  143.10   13.73
   8   5   2  138.58   19.00
  -8  -5  -3   -1.71    2.93
   8   5   3    5.37    3.92
  -8  -5  -3    1.92    1.49
   8   5   3    2.87    2.47
  -8  -5  -4  605.69   26.75
   8   5   4  664.12   41.97
   8   5   4  571.52   38.25
  -8  -5  -4  548.53   30.19
   8   5   5  234.74   19.33
   8   5   5  208.96   21.95
  -8  -5  -5  233.45   19.24
   8   5   5  218.96   11.84
  -8  -5  -6    3.57    3.72
   8   5   6    7.00    5.90
   8   5   6   -1.03    2.13
   8   5   6    2.49    2.74
   8   5   6   -0.91    1.74
  -8  -5  -7   70.97   11.33
   8   5   7   60.38   12.41
   8   5   7   71.73   10.42
   8   5   7   44.05    9.74
   8   5   8  170.73   22.52
   8   5   8  156.03   15.57
   8   5   8  131.92   16.70
   8   5   8  153.64   11.97
  -8  -5  -8  165.33   17.61
  -8  -5  -9   31.68    7.89
   8   5   9   38.82   11.05
   8   5   9   29.70    6.63
   8   5   9   16.74    4.95
   8   5   9   34.29    5.84
   8   5  10  875.39   54.75
   8   5  10  810.35   38.68
   8   5  10  763.25   43.40
   8   5  10  754.12   33.09
  -8  -5 -10  834.84   44.09
   8   5  11  123.42   19.61
   8   5  11  108.40   13.16
   8   5  11  102.50   11.52
  -8  -5 -11  124.68   16.75
   8   5  11  108.68   15.61
  -8  -5 -12   73.65   13.56
   8   5  12   59.74   10.16
   8   5  12   63.96   12.51
   8   5  12   67.84    9.75
   8   5  13   46.15    8.87
   8   5  13   43.53   10.27
   8   5  13   42.66    8.09
   8   5  14   24.94    6.90
   8   5  14   23.99    6.81
  -8  -6   6   95.13   14.72
  -8  -6   5    1.75    4.44
   8   6  -4   90.83   14.55
  -8  -6   4  105.54   13.97
   8   6  -3   10.74    5.52
  -8  -6   3    3.71    2.36
   8   6  -3   14.21    7.12
  -8  -6   2   16.81    5.49
   8   6  -2   22.43    7.25
  -8  -6   2   16.85    4.50
   8   6  -2    9.90    5.23
  -8  -6   1   42.48    8.15
  -8  -6   1   42.04    7.25
   8   6  -1   51.79    9.95
   8   6  -1   37.12    9.78
  -8  -6   0   16.27    5.24
  -8  -6   0   17.32    4.89
   8   6   0   20.46    6.43
   8   6   0   23.42    8.09
   8   6   0   12.92    5.25
  -8  -6  -1   16.27    4.70
   8   6   1   11.74    4.90
   8   6   1   11.46    6.30
   8   6   1    9.51    5.36
  -8  -6  -1    9.67    3.58
  -8  -6  -2   13.21    3.93
   8   6   2   37.36   10.70
   8   6   2   25.82    8.69
  -8  -6  -2   28.09    6.81
  -8  -6  -3    4.22    2.96
   8   6   3    3.07    4.19
  -8  -6  -3   10.63    4.81
   8   6   3   -1.21    3.10
  -8  -6  -4  171.73   15.28
   8   6   4  156.39   20.58
   8   6   4  150.28   19.15
  -8  -6  -4  148.03   15.43
  -8  -6  -5   47.26    8.73
   8   6   5   67.55   13.47
   8   6   5   53.44   10.76
  -8  -6  -6   -0.88    2.59
   8   6   6   -2.51    4.90
   8   6   6   -0.05    2.52
  -8  -6  -7   20.16    6.52
   8   6   7   27.82    9.68
   8   6   7   30.83    8.80
  -8  -6  -8   22.37    7.01
   8   6   8   22.93    9.60
   8   6   8   21.24    7.70
   8   6   8   21.31    4.63
  -8  -6  -9   15.89    5.82
   8   6   9   26.90    9.26
   8   6   9   12.51    4.51
   8   6   9   20.01    5.09
   8   6  10  282.79   22.33
   8   6  10  263.67   24.38
   8   6  10  297.06   19.91
  -8  -6 -10  267.24   25.16
   8   6  11   26.02    6.43
   8   6  11   18.19    6.36
   8   6  11   21.61    5.78
   8   6  12   29.10    7.50
   8   6  12   23.74    7.34
   8   6  12   19.04    4.95
   8   6  13    9.34    4.80
   8   6  13    9.66    4.24
  -8  -7   5   11.94    5.17
  -8  -7   4  170.32   19.05
  -8  -7   3   51.28    9.79
   8   7  -3   44.88   11.00
   8   7  -2  285.06   25.96
   8   7  -2  239.25   24.92
  -8  -7   2  224.82   21.58
   8   7  -1  239.02   23.31
   8   7  -1  261.10   25.97
  -8  -7   1  227.67   21.42
  -8  -7   1  235.78   18.44
   8   7   0   75.33   12.25
  -8  -7   0   71.22   10.22
   8   7   0   81.77   14.64
  -8  -7   0   71.84   12.04
   8   7   1   25.77    7.43
  -8  -7  -1   20.08    5.65
   8   7   1   17.95    7.07
   8   7   1   34.57   10.25
  -8  -7  -1   19.60    6.15
   8   7   2  230.13   20.99
   8   7   2  221.25   24.80
  -8  -7  -2  264.46   22.30
   8   7   2  226.66   24.68
  -8  -7  -2  224.04   19.28
  -8  -7  -3   -2.49    2.67
   8   7   3    1.58    4.74
  -8  -7  -3    0.02    2.64
   8   7   3    0.56    4.16
   8   7   4  496.43   38.67
   8   7   4  472.11   34.67
  -8  -7  -4  448.12   28.75
  -8  -7  -5   92.36   13.01
   8   7   5  101.46   17.76
   8   7   5   86.06   14.32
  -8  -7  -6    2.73    3.51
   8   7   6    1.78    4.96
   8   7   6    0.85    3.62
  -8  -7  -7   -3.40    3.54
   8   7   7   -4.00    4.38
   8   7   7    0.09    3.59
  -8  -7  -8   40.97    8.82
   8   7   8   51.74   13.15
   8   7   8   36.70    9.14
  -8  -7  -9   36.80    9.14
  -8  -7  -9   22.76    7.25
   8   7   9   25.37    8.97
   8   7   9   19.59    7.09
   8   7  10  184.36   20.49
   8   7  11    4.67    3.14
   8   7  12   14.04    5.63
  -8  -8   4   53.15   11.09
  -8  -8   3   -0.55    5.09
  -8  -8   2   38.76    9.26
   8   8  -2   43.25   10.43
   8   8  -1   89.85   15.01
   8   8  -1   96.24   15.88
  -8  -8   1   97.14   14.80
   8   8   0   19.96    6.67
  -8  -8   0   25.84    6.54
   8   8   0   18.44    6.77
  -8  -8   0   23.91    6.99
  -8  -8  -1   11.73    4.22
   8   8   1   12.99    5.43
  -8  -8  -1   12.80    4.84
   8   8   1    9.05    4.23
  -8  -8  -1   14.67    5.52
   8   8   2  213.16   21.57
   8   8   2  199.92   24.19
  -8  -8  -2  246.91   22.56
   8   8   2  185.79   22.04
  -8  -8  -2  184.95   18.13
  -8  -8  -2  198.48   18.07
  -8  -8  -3    3.68    3.21
   8   8   3    6.20    6.00
  -8  -8  -3    3.38    2.81
   8   8   3    6.34    3.75
   8   8   3    3.89    3.22
   8   8   4  557.37   41.60
   8   8   4  493.22   35.42
  -8  -8  -4  458.30   30.55
  -8  -8  -4  471.64   29.68
   8   8   5  153.35   22.62
   8   8   5  155.97   19.12
  -8  -8  -5  153.95   17.48
  -8  -8  -5  133.35   15.91
  -8  -8  -6    1.07    3.11
  -8  -8  -6    0.13    3.41
   8   8   6    4.06    5.87
   8   8   6    0.40    2.99
  -8  -8  -7   89.95   13.65
  -8  -8  -7   82.37   13.32
   8   8   7   97.12   18.25
   8   8   7   83.12   13.01
   8   8   8  106.45   15.75
  -8  -8  -8  128.41   16.68
   8   8   9   45.84    9.36
   8   8  10  421.88   31.57
  -8  -9   1   -5.64    6.30
   8   9   0    9.23    4.21
  -8  -9   0    5.12    3.28
   8   9   1   13.90    6.76
   8   9   1   11.44    5.88
   8   9   2   31.72    9.79
   8   9   2   31.42   10.51
  -8  -9  -3   14.40    4.88
   8   9   3   12.53    6.09
   8   9   3   22.73    7.15
   8   9   3   20.92    6.40
   8   9   4  112.15   18.71
   8   9   4  106.52   16.11
  -8  -9  -4  107.39   14.75
  -8  -9  -5   13.50    4.89
   8   9   5   10.86    7.15
   8   9   5    7.74    4.53
  -8  -9  -6    1.02    4.04
   8   9   6   -9.04    6.16
   8   9   7    4.13    3.64
   9  -8   0   16.76    5.94
   9  -8   1   37.16    8.86
   9  -8   2    4.65    5.19
   9  -8   3  112.84   16.23
  -9   7   4   -0.67    4.80
  -9   7   3   33.91   11.01
  -9   7   2   37.25   10.57
   9  -7  -1   10.38    4.79
  -9   7   1    0.63    5.37
   9  -7   0   14.54    4.93
  -9   7   0   32.23   10.30
   9  -7   1   23.61    7.09
  -9   7  -1   30.59   10.04
   9  -7   2   12.57    5.85
  -9   7  -2   13.27    6.38
   9  -7   3   23.81    7.05
  -9   7  -3    8.74    5.06
   9  -7   4   42.28    9.82
  -9   7  -4   32.89    9.25
   9  -7   5   11.65    5.73
  -9   7  -5    8.14    4.41
  -9   7  -6   39.84   11.25
  -9   6   5   95.21   17.12
  -9   6   4   10.67    7.19
  -9   6   3  262.84   28.25
   9  -6  -2  119.30   18.51
   9  -6  -2   99.26   11.85
  -9   6   2  110.35   16.50
  -9   6   2  139.67   20.27
   9  -6  -1  133.04   18.97
   9  -6  -1   88.58   11.69
  -9   6   1  122.26   17.07
  -9   6   1  123.21   18.24
   9  -6   0  146.90   19.70
  -9   6   0  151.83   19.11
   9  -6   0  132.34   14.87
   9  -6   0  207.83   21.98
  -9   6   0  171.48   21.26
   9  -6   1   51.62    9.01
   9  -6   1   71.08   13.16
  -9   6  -1   64.45   12.35
  -9   6  -1   84.15   14.61
   9  -6   2   23.07    6.37
   9  -6   2   27.95    7.22
  -9   6  -2   21.29    7.36
  -9   6  -2   24.96    8.86
  -9   6  -3  153.33   19.02
   9  -6   3  170.19   17.84
   9  -6   3  211.12   22.76
   9  -6   4   24.03    7.26
   9  -6   4   36.41   10.51
  -9   6  -4   44.34   10.94
  -9   6  -5  145.30   18.65
   9  -6   5  166.28   18.61
   9  -6   6  104.17   14.87
  -9   6  -6  113.91   16.22
   9  -6   7   -2.27    4.36
   9  -6   7   -3.39    5.34
  -9   6  -7   -0.46    3.23
   9  -6   8    0.75    3.25
  -9   6  -8    4.64    4.68
   9  -6   9   26.54    8.09
  -9   6  -9   14.43    7.04
  -9   6 -10    8.29    2.61
   9  -6  10   21.99    9.42
   9  -6  11  134.47   20.34
   9  -5  -5   82.25   14.79
  -9   5   5   59.34   11.61
  -9   5   5   70.71   14.69
  -9   5   4   -0.02    3.04
  -9   5   4    0.40    3.94
   9  -5  -3  110.51   16.45
  -9   5   3   82.84   13.07
  -9   5   3   96.87   16.65
   9  -5  -2   56.51   12.00
   9  -5  -2   39.40    7.18
  -9   5   2   45.81    9.53
  -9   5   2   52.22   11.54
   9  -5  -1   17.53    6.95
   9  -5  -1   22.76    6.17
  -9   5   1   20.15    7.16
  -9   5   1   22.96    7.35
  -9   5   0  172.33   19.20
   9  -5   0  147.43   14.87
  -9   5   0  182.68   20.50
   9  -5   1   28.64    6.49
   9  -5   1   43.01   10.75
  -9   5  -1   33.80    8.02
  -9   5  -1   34.55    9.37
   9  -5   2   12.83    4.20
   9  -5   2    9.86    5.35
  -9   5  -2   22.41    7.41
  -9   5  -3  307.89   25.44
   9  -5   3  274.14   21.81
   9  -5   4   11.29    5.53
   9  -5   4   17.31    7.18
  -9   5  -4    7.98    4.45
  -9   5  -5  536.55   34.99
   9  -5   5  518.11   32.30
  -9   5  -6  312.48   26.20
   9  -5   6  323.06   25.57
   9  -5   7    1.86    3.51
   9  -5   7    1.76    4.17
  -9   5  -7    4.23    3.91
   9  -5   8   82.95   13.31
   9  -5   8   88.46   16.03
  -9   5  -8   66.00   12.13
  -9   5  -9   96.31   14.73
   9  -5   9   96.32   14.69
   9  -5   9  136.58   20.85
  -9   5 -10   22.85    8.09
   9  -5  10   25.22    8.96
  -9   5 -11  352.33   30.11
   9  -5  11  489.54   40.83
  -9   5 -12   31.00    8.62
  -9   5 -12   30.11    7.57
   9  -4  -7    4.78    3.68
  -9   4   7    2.85    3.01
   9  -4  -6   23.12    8.80
  -9   4   6    4.45    2.20
   9  -4  -5   48.12   10.40
  -9   4   5   41.51    8.45
  -9   4   4    8.65    3.77
  -9   4   4    8.83    4.35
   9  -4  -3   34.61    8.95
   9  -4  -3   33.98    6.55
  -9   4   3   19.88    5.86
  -9   4   3   39.41    9.33
   9  -4  -2   29.19    6.35
  -9   4   2   33.57    7.91
  -9   4   2   35.16    8.29
   9  -4  -1    8.26    3.36
   9  -4  -1   18.11    8.81
  -9   4   1    5.99    4.60
  -9   4   1   12.07    5.50
   9  -4   0   14.24    4.11
   9  -4   0   14.64    6.83
  -9   4   0   18.34    6.02
  -9   4   0   14.59    5.60
   9  -4   1   43.11    7.70
   9  -4   1   61.71   13.56
  -9   4  -1   37.57    8.88
  -9   4  -1   52.90    9.87
   9  -4   2   51.65    8.62
  -9   4  -2   46.14    9.23
   9  -4   3   30.47    6.65
   9  -4   3   42.87   12.19
  -9   4  -3   46.98    9.39
   9  -4   4   22.29    5.69
   9  -4   4   31.70   10.36
  -9   4  -4   30.66    7.38
  -9   4  -5  131.07   16.03
   9  -4   5  131.74   14.77
   9  -4   5  155.05   21.75
   9  -4   6  113.36   12.65
   9  -4   6  108.85   14.01
   9  -4   6  134.26   19.57
  -9   4  -6  103.23   14.39
   9  -4   7   -0.47    2.04
   9  -4   7    3.57    4.61
   9  -4   7   -5.35    6.00
  -9   4  -7   -3.23    2.38
  -9   4  -8    3.11    2.22
   9  -4   8    6.65    4.08
   9  -4   8    7.45    5.11
   9  -4   8    3.27    4.67
  -9   4  -9   67.83   11.57
   9  -4   9   77.83   10.16
   9  -4   9   62.27   11.34
   9  -4   9   75.04   15.21
  -9   4 -10    3.09    2.46
   9  -4  10    2.90    2.75
   9  -4  10    9.14    6.11
   9  -4  10    7.83    5.53
  -9   4 -11  343.30   29.14
   9  -4  11  517.98   42.11
  -9   4 -12   76.31   13.48
  -9   4 -13   61.24   13.21
   9  -3  -8   99.26   14.79
   9  -3  -7    4.43    4.45
  -9   3   7    2.70    2.78
  -9   3   7    0.49    2.75
   9  -3  -6   84.72   13.08
  -9   3   6   89.59   11.92
  -9   3   6   90.57   12.86
  -9   3   5  118.69   13.12
  -9   3   5  116.50   14.42
   9  -3  -4    4.20    3.10
  -9   3   4    9.30    4.81
  -9   3   4    8.15    3.91
  -9   3   3  355.78   25.34
   9  -3  -3  331.00   20.97
  -9   3   3  367.61   26.99
   9  -3  -2   51.34    8.07
  -9   3   2   39.32    7.83
  -9   3   2   58.17    9.93
  -9   3   1  184.98   17.64
   9  -3  -1  168.06   14.82
  -9   3   1  185.55   16.91
  -9   3   0  167.22   17.20
   9  -3   0  166.67   14.80
  -9   3   0  191.30   16.60
   9  -3   1   54.97    8.59
   9  -3   1   62.07   15.20
  -9   3  -1   74.03   11.40
   9  -3   2    1.64    2.25
   9  -3   2    3.13    3.42
   9  -3   2    2.19    2.40
  -9   3  -2    1.30    3.45
  -9   3  -3  133.32   14.97
   9  -3   3  120.27   13.22
   9  -3   3  159.28   22.59
   9  -3   4   -2.61    2.68
   9  -3   4    0.36    2.96
  -9   3  -4    2.74    3.01
   9  -3   5  393.13   25.00
  -9   3  -5  378.12   26.48
   9  -3   5  356.91   24.39
   9  -3   5  414.93   36.20
   9  -3   6   55.54    8.58
   9  -3   6   47.94    8.68
   9  -3   6   61.55   13.28
  -9   3  -6   55.07    9.98
  -9   3  -7   13.99    5.29
   9  -3   7   16.72    5.34
   9  -3   7    8.27    3.40
   9  -3   7    9.08    4.49
  -9   3  -8   26.12    7.29
   9  -3   8   25.66    5.79
   9  -3   8   23.63    5.77
   9  -3   8    8.78    3.40
  -9   3  -9   19.45    6.54
   9  -3   9    9.30    3.82
   9  -3   9   18.36    6.11
   9  -3   9   20.79    7.81
  -9   3 -10    4.92    4.42
   9  -3  10    2.87    3.03
   9  -3  10    1.31    2.82
   9  -3  11  188.51   16.57
   9  -3  11  176.06   18.92
  -9   3 -11  160.46   18.72
   9  -3  11  230.29   28.14
  -9   3 -12    4.74    4.38
   9  -3  12   24.95   11.22
  -9   3 -13   -0.38    4.05
  -9   2   7    2.04    2.92
  -9   2   7    3.38    4.04
  -9   2   6   34.37    7.94
  -9   2   6   31.90    7.12
  -9   2   5   90.80   11.53
  -9   2   5   91.85   12.23
   9  -2  -4    0.14    2.09
  -9   2   4    1.10    2.14
  -9   2   4    4.11    3.83
  -9   2   3  184.03   14.86
  -9   2   3  178.10   16.90
   9  -2  -3  196.21   15.96
  -9   2   3  205.20   17.25
  -9   2   2   40.71    6.35
   9  -2  -2   55.50    8.45
  -9   2   2   54.31    8.22
  -9   2   2   49.51    9.16
  -9   2   1  291.15   16.99
  -9   2   1  294.43   21.63
   9  -2  -1  258.23   18.65
  -9   2   1  290.41   18.21
  -9   2   0  297.62   16.06
  -9   2   0  282.62   21.46
   9  -2   0  274.57   19.03
   9  -2   0  340.79   36.11
  -9   2  -1   71.39    6.89
   9  -2   1   62.43    9.11
   9  -2   1   98.27   18.90
   9  -2   1   67.11    8.94
  -9   2  -1   75.11   10.88
   9  -2   2   31.47    7.24
   9  -2   2   29.92    6.35
  -9   2  -2   33.42    4.13
   9  -2   2   39.29   11.54
   9  -2   2   26.01    6.17
  -9   2  -2   32.57    7.40
   9  -2   3  446.79   27.38
  -9   2  -3  403.79   14.99
  -9   2  -3  403.73   26.30
   9  -2   3  410.17   24.73
   9  -2   3  492.46   40.13
   9  -2   3  418.30   28.57
   9  -2   4    4.79    4.00
   9  -2   4   -0.10    1.76
   9  -2   4    8.85    6.41
  -9   2  -4    3.00    0.97
   9  -2   4    8.79    4.76
  -9   2  -4   -3.04    3.77
   9  -2   5  992.76   42.74
  -9   2  -5  937.24   43.07
   9  -2   5  951.20   41.56
   9  -2   5  956.31   57.07
   9  -2   5  907.78   48.62
   9  -2   6  325.43   22.65
  -9   2  -6  298.61   23.11
   9  -2   6  281.80   21.40
   9  -2   6  309.05   30.77
  -9   2  -7    6.35    4.29
   9  -2   7   12.18    4.72
   9  -2   7    6.66    2.47
  -9   2  -8   42.24    9.05
   9  -2   8   49.38    9.10
   9  -2   8   54.55    9.39
   9  -2   8   54.76   13.26
   9  -2   9  139.81   14.71
   9  -2   9  140.91   15.55
  -9   2  -9  141.35   16.80
   9  -2   9  161.68   22.49
  -9   2 -10   54.25   10.12
   9  -2  10   41.50    8.08
   9  -2  10   38.41    8.62
   9  -2  10   54.62   13.57
   9  -2  11  445.94   27.85
   9  -2  11  466.45   30.59
  -9   2 -11  427.13   31.22
   9  -2  11  514.28   41.70
  -9   2 -12   16.56    5.88
   9  -2  12   35.76    8.00
   9  -2  12   30.73    8.09
  -9   2 -13   40.67   10.16
   9  -2  13   42.49    8.59
  -9   1   8   26.73    6.87
  -9   1   7    1.43    2.47
  -9   1   6    4.83    3.07
  -9   1   6    3.20    2.07
  -9   1   5   47.72    8.22
  -9   1   5   42.08    8.44
  -9   1   4   39.76    7.03
   9  -1  -4   44.92    7.72
  -9   1   4   51.34    8.35
   9  -1  -3   68.13    9.21
  -9   1   3   61.41    8.45
  -9   1   3   68.27   10.17
   9  -1  -2    2.55    6.28
   9  -1  -2    1.84    1.88
  -9   1   2    0.15    1.45
  -9   1   2   -3.42    3.26
   9  -1  -1   52.47    8.71
   9  -1  -1   82.38   18.64
  -9   1   1   57.32    7.06
  -9   1   1   57.97    9.16
  -9   1   0   28.93    4.53
   9  -1   0   20.67    4.96
  -9   1   0   19.01    5.22
  -9   1  -1   40.17    4.93
   9  -1   1   45.15    9.02
   9  -1   1   47.83    7.76
   9  -1   1   66.19   15.13
   9  -1   1   36.14    5.11
  -9   1  -1   44.30    8.06
  -9   1  -2   47.51    4.67
   9  -1   2   58.57   10.42
   9  -1   2   60.78    9.13
   9  -1   2   62.41   13.60
   9  -1   2   45.28    6.50
  -9   1  -2   49.35    8.43
  -9   1  -3  133.49    6.42
   9  -1   3  125.38   14.59
  -9   1  -3  119.55   13.39
   9  -1   3  128.78   13.11
   9  -1   3  138.39   21.45
   9  -1   3  122.14   12.92
  -9   1  -4   -0.21    3.12
   9  -1   4    7.66    4.55
   9  -1   4    0.47    2.78
   9  -1   4   -6.19    6.48
   9  -1   4    0.15    2.15
   9  -1   5  557.35   31.47
  -9   1  -5  558.39   30.93
   9  -1   5  564.57   30.02
   9  -1   5  574.33   42.90
   9  -1   5  495.99   32.70
   9  -1   6  158.78   16.33
  -9   1  -6  122.18   13.93
   9  -1   6  134.59   14.21
   9  -1   6  130.83   19.37
   9  -1   6  128.41   15.55
  -9   1  -7   -3.98    3.79
   9  -1   7    1.74    2.58
   9  -1   7   -3.37    2.53
   9  -1   7    0.57    3.21
  -9   1  -8   10.99    4.69
   9  -1   8    0.22    3.54
   9  -1   8   10.43    5.14
   9  -1   8   -0.15    3.43
   9  -1   9  122.48   14.38
   9  -1   9  122.87   14.74
  -9   1  -9  130.23   15.56
   9  -1   9  144.51   20.62
  -9   1 -10   85.44   13.55
   9  -1  10   77.29   11.69
   9  -1  10   75.40   11.14
   9  -1  10   85.67   16.56
   9  -1  11  743.87   38.89
   9  -1  11  724.97   38.59
  -9   1 -11  727.84   41.57
   9  -1  11  797.31   52.12
  -9   1 -12    8.60    5.61
   9  -1  12    9.72    4.66
   9  -1  12    7.53    3.67
   9  -1  12   21.45    9.92
  -9   1 -13   74.76   13.56
   9  -1  13   88.06   12.80
  -9   1 -14   91.73   15.51
   9  -1  14   90.76   13.29
  -9   0   8   45.65    9.29
  -9   0   7   29.78    7.35
  -9   0   6  117.24   13.93
  -9   0   6  115.22   12.49
  -9   0   5  166.66   15.52
  -9   0   5  156.75   14.50
  -9   0   4    2.68    2.13
  -9   0   4    1.16    2.40
  -9   0   3  236.58   16.84
  -9   0   3  246.79   18.78
   9   0  -3  231.84   18.71
   9   0  -2   24.32   10.88
   9   0  -2    7.44    2.66
  -9   0   2   21.70    4.63
  -9   0   2   15.51    4.91
  -9   0   1  269.61   15.84
  -9   0   1  272.09   19.64
   9   0  -1  328.31   37.46
   9   0  -1  257.94   19.48
  -9   0   0   98.35    8.66
   9   0   0  111.01   14.76
  -9   0   0   97.46   11.71
   9   0   0   86.13   11.02
   9   0   0  117.21   21.43
  -9   0  -1  101.01    7.98
   9   0   1   98.32   13.59
  -9   0  -1  108.13   12.26
   9   0   1  104.43   11.60
   9   0   1  116.72   19.86
  -9   0  -2   78.35   10.34
  -9   0  -2   82.28    6.80
   9   0   2   74.48   11.44
   9   0   2   63.39    9.11
   9   0   2   66.77    5.90
   9   0   2   85.15   17.29
  -9   0  -2   70.63    5.55
   9   0   3  108.08   13.82
  -9   0  -3   92.41   11.77
   9   0   3  100.74   11.58
   9   0   3  115.52   20.09
   9   0   3   89.40    8.73
  -9   0  -4   20.77    5.43
   9   0   4   11.81    4.81
   9   0   4   14.75    4.57
   9   0   4   13.72    7.51
   9   0   4   17.24    4.94
   9   0   5  213.70   19.56
  -9   0  -5  200.95   17.78
   9   0   5  211.78   17.51
   9   0   5  212.45   25.83
   9   0   5  180.36   17.21
  -9   0  -6   12.39    4.13
   9   0   6   16.82    5.51
   9   0   6   16.13    4.62
   9   0   6    9.31    4.10
   9   0   6   15.66    5.29
  -9   0  -7   13.47    4.89
   9   0   7   18.40    5.66
   9   0   7   14.19    5.14
   9   0   7    6.77    4.01
   9   0   7    7.66    3.32
  -9   0  -8   39.70    8.19
   9   0   8   37.21    8.45
   9   0   8   42.36    8.04
   9   0   8   46.41   12.10
  -9   0  -9   43.65    8.84
   9   0   9   37.41    7.96
   9   0   9   44.56    8.12
   9   0   9   26.09    7.04
  -9   0 -10    9.94    2.65
   9   0  10   13.38    4.20
   9   0  10   12.37    4.81
   9   0  10   12.45    8.16
   9   0  11  149.35   16.96
   9   0  11  138.35   15.47
  -9   0 -11  131.84   16.57
   9   0  11  168.17   22.75
  -9   0 -12    4.16    2.63
   9   0  12   -0.92    2.81
   9   0  12    2.14    2.11
  -9   0 -13   19.17    7.21
   9   0  13    9.25    5.37
   9   0  13   21.15    6.80
   9   0  14    0.18    3.84
  -9  -1   8   16.28    6.50
  -9  -1   7   16.98    5.44
  -9  -1   6   79.72   11.78
  -9  -1   5  150.38   15.12
  -9  -1   5  137.62   13.04
  -9  -1   4    0.71    2.68
  -9  -1   4   -0.17    2.38
  -9  -1   3  342.54   20.70
  -9  -1   3  308.79   20.32
  -9  -1   2    9.15    3.30
  -9  -1   2   10.25    3.67
   9   1  -2   11.58    7.59
   9   1  -2   -1.41    3.13
  -9  -1   1  518.85   23.50
   9   1  -1  513.97   33.87
  -9  -1   1  498.60   26.86
   9   1  -1  560.00   49.51
   9   1  -1  509.83   28.62
   9   1   0  325.65   26.46
  -9  -1   0  306.78   20.68
   9   1   0  356.60   37.12
   9   1   0  317.78   21.81
  -9  -1   0  308.82   16.20
  -9  -1  -1   50.29    8.15
   9   1   1   60.55   10.64
   9   1   1   54.76    8.47
   9   1   1   64.29   15.15
  -9  -1  -1   60.40    6.07
   9   1   2  125.25   15.52
  -9  -1  -2  119.85   12.70
   9   1   2  107.37   12.34
   9   1   2  105.89   18.37
  -9  -1  -2  119.61    7.93
   9   1   3  384.32   27.74
  -9  -1  -3  392.88   24.42
   9   1   3  396.48   24.20
   9   1   3  437.48   37.37
   9   1   3  371.97   12.40
  -9  -1  -4   16.25    5.64
   9   1   4   21.60    7.65
   9   1   4   24.13    6.16
   9   1   4   18.37    7.28
   9   1   4   21.92    4.45
   9   1   5 1362.14   56.82
   9   1   5 1384.00   50.79
  -9  -1  -5 1397.99   52.32
   9   1   5 1337.99   66.64
   9   1   5 1194.13   46.81
   9   1   6  130.58   15.87
   9   1   6  126.06   13.56
  -9  -1  -6  109.57   13.23
   9   1   6  154.44   21.00
   9   1   6  118.77   12.33
  -9  -1  -7   -0.99    2.05
   9   1   7    0.12    3.13
   9   1   7   -2.59    1.91
   9   1   7    3.02    3.64
   9   1   7   -0.28    1.50
  -9  -1  -8   40.10    8.71
   9   1   8   38.95    8.43
   9   1   8   43.39    8.12
   9   1   8   41.94   10.91
  -9  -1  -9   98.72   13.32
   9   1   9  104.21   14.96
   9   1   9  102.14   12.74
   9   1   9   99.46   16.24
  -9  -1 -10   71.91   11.93
   9   1  10   73.80   12.63
   9   1  10   70.67   10.54
   9   1  10   73.82   14.35
   9   1  11  341.92   28.14
   9   1  11  320.03   23.86
   9   1  11  304.95   30.44
  -9  -1 -11  321.19   26.26
  -9  -1 -12    2.15    4.05
   9   1  12    0.17    2.98
   9   1  12    3.46    3.31
   9   1  12    1.47    3.81
  -9  -1 -13    7.67    4.31
   9   1  13   14.10    5.65
   9   1  14   16.63    7.48
  -9  -2   7   -1.10    2.98
  -9  -2   6    2.59    3.82
  -9  -2   5   51.03    8.64
  -9  -2   4   30.20    5.78
  -9  -2   4   35.06    7.03
  -9  -2   3   54.45    8.32
  -9  -2   3   71.66    9.36
  -9  -2   2   10.66    3.65
  -9  -2   2    8.21    3.86
   9   2  -2   14.36    6.66
   9   2  -1  181.38   19.92
   9   2  -1  202.17   29.12
  -9  -2   1  160.91   14.50
   9   2  -1  156.98   16.05
  -9  -2   1  163.33   12.77
  -9  -2   0   38.92    6.91
   9   2   0   48.83   10.70
   9   2   0   39.58    7.65
   9   2   0   53.90   15.73
  -9  -2   0   31.66    4.77
  -9  -2  -1   80.50    9.97
   9   2   1   77.98   12.68
   9   2   1  108.94   12.83
   9   2   1   99.88   18.50
  -9  -2  -1   92.54    8.68
  -9  -2  -2   18.71    5.38
  -9  -2  -2   20.77    3.69
   9   2   2   35.49    9.34
   9   2   2   19.59    5.26
   9   2   2   16.60    6.35
   9   2   3  257.18   23.02
   9   2   3  243.88   19.26
  -9  -2  -3  228.27   18.46
   9   2   3  261.14   28.37
   9   2   4   74.88   12.69
  -9  -2  -4   87.21   11.58
   9   2   4   85.71   11.29
   9   2   4   80.66   15.06
   9   2   5  527.16   34.33
   9   2   5  544.08   29.60
   9   2   5  522.74   39.30
  -9  -2  -5  513.85   29.94
   9   2   6  106.78   15.22
   9   2   6  126.11   13.74
  -9  -2  -6  127.48   14.33
   9   2   6  126.08   19.00
  -9  -2  -7    5.24    2.69
   9   2   7    7.78    5.20
   9   2   7    0.72    1.96
   9   2   7   -3.33    6.49
   9   2   8  119.52   16.45
   9   2   8  112.92   13.06
  -9  -2  -8  110.93   14.27
   9   2   8   94.21   15.71
   9   2   9  190.03   21.14
   9   2   9  180.07   16.95
   9   2   9  186.06   22.59
  -9  -2  -9  205.54   19.84
   9   2  10  191.76   21.31
   9   2  10  189.39   17.72
   9   2  10  152.42   20.55
  -9  -2 -10  188.98   19.76
   9   2  11  550.95   38.28
   9   2  11  458.66   29.00
   9   2  11  546.36   40.13
  -9  -2 -11  497.57   33.75
  -9  -2 -12   -5.45    5.52
   9   2  12    4.40    4.95
   9   2  12   -3.85    2.50
   9   2  12    7.91    5.11
   9   2  13  133.51   19.10
   9   2  13  100.49   13.59
  -9  -3   7   49.90   10.06
  -9  -3   6   90.61   12.78
  -9  -3   5  140.40   14.93
  -9  -3   4   -0.96    2.75
  -9  -3   4    0.01    3.17
  -9  -3   3  138.93   12.96
  -9  -3   3  153.07   14.29
  -9  -3   2    4.01    2.64
   9   3  -2    1.81    2.78
  -9  -3   2   -2.49    3.17
   9   3  -1  200.22   21.38
  -9  -3   1  197.71   15.95
   9   3  -1  199.31   28.00
  -9  -3   1  193.27   14.80
  -9  -3   0   25.22    5.87
  -9  -3   0   31.91    5.98
   9   3   0   38.25    9.51
   9   3   0   42.01   13.60
  -9  -3  -1   64.82    9.33
   9   3   1   49.66   10.33
  -9  -3  -1   62.50    7.50
   9   3   1   63.37    9.98
   9   3   1   63.83   15.31
  -9  -3  -2   23.18    4.29
  -9  -3  -2   18.41    4.58
   9   3   2   22.37    6.71
   9   3   2    8.48    3.19
   9   3   2   14.67    4.85
  -9  -3  -3   59.98    9.13
   9   3   3   66.08   12.33
   9   3   3   61.94    9.97
   9   3   3   65.99   14.85
  -9  -3  -4   21.86    5.61
   9   3   4   23.21    8.71
   9   3   4   12.63    4.22
   9   3   4   22.36    9.57
   9   3   5  199.74   21.79
   9   3   5  183.54   16.92
   9   3   5  185.67   22.34
  -9  -3  -5  196.75   17.39
  -9  -3  -6    1.27    1.78
   9   3   6   -1.43    5.13
   9   3   6   -3.29    3.60
   9   3   6   -0.62    3.67
   9   3   6    1.55    1.18
  -9  -3  -7    9.37    4.20
   9   3   7   -1.75    5.20
   9   3   7    5.80    3.92
   9   3   7   11.73    3.29
  -9  -3  -8    6.58    4.50
   9   3   8    2.75    3.37
   9   3   8    3.87    3.35
   9   3   8   -1.50    4.33
   9   3   8    1.02    2.05
  -9  -3  -9   55.07   10.57
   9   3   9   46.87   11.37
   9   3   9   42.56    8.29
   9   3   9   39.68    9.86
   9   3   9   47.65    6.56
  -9  -3 -10   51.46   10.42
   9   3  10   47.61   11.40
   9   3  10   46.38    8.84
   9   3  10   42.21   11.42
  -9  -3 -11   91.67   14.16
   9   3  11  131.87   19.36
   9   3  11  102.77   13.19
   9   3  11   98.19   16.53
  -9  -3 -12    5.30    5.27
   9   3  12   -2.24    5.65
   9   3  12   -1.91    3.47
   9   3  12   -4.35    3.01
   9   3  13   26.93    6.96
  -9  -4   7   31.50    7.46
  -9  -4   6   92.65   13.30
  -9  -4   5  115.24   14.52
  -9  -4   4    3.07    2.07
   9   4  -3  351.22   30.86
  -9  -4   3  323.74   20.08
  -9  -4   3  331.31   22.87
  -9  -4   2    4.01    3.12
   9   4  -2    8.33    4.47
  -9  -4   2   10.68    4.97
   9   4  -1  471.31   34.83
   9   4  -1  426.52   40.61
  -9  -4   1  400.12   23.42
  -9  -4   1  427.92   24.68
   9   4   0  204.36   22.50
   9   4   0  213.02   27.51
  -9  -4   0  181.90   15.34
  -9  -4   0  189.40   15.32
  -9  -4  -1   44.91    7.15
  -9  -4  -1   56.05    8.75
   9   4   1   52.71   11.46
   9   4   1   63.61   14.39
  -9  -4  -2   44.47    8.03
   9   4   2   56.38   11.36
   9   4   2   45.90   12.02
  -9  -4  -2   55.58    7.99
   9   4   3  319.18   28.41
   9   4   3  275.96   28.67
   9   4   3  291.87   22.27
  -9  -4  -3  248.37   19.80
   9   4   4   91.31   15.26
  -9  -4  -4   97.69   12.41
   9   4   4  100.00   13.02
   9   4   4  103.34   17.15
   9   4   5  550.55   38.90
   9   4   5  513.65   30.51
   9   4   5  534.45   38.97
  -9  -4  -5  535.60   30.75
  -9  -4  -6   26.71    6.71
   9   4   6   14.36    5.34
   9   4   6   24.84    6.39
   9   4   6   19.87    6.91
  -9  -4  -7    1.25    2.73
   9   4   7    1.77    2.92
   9   4   7    0.68    2.23
   9   4   7   -5.81    3.49
  -9  -4  -8   55.18   10.28
   9   4   8   57.76   12.62
   9   4   8   49.59    9.23
   9   4   8   47.48   10.51
  -9  -4  -9   52.22   10.45
   9   4   9   57.10   13.81
   9   4   9   53.15    9.84
   9   4   9   43.96   10.48
  -9  -4 -10   51.42   10.06
   9   4  10   66.51   14.79
   9   4  10   49.89    9.38
   9   4  10   46.87   11.16
   9   4  10   53.30    7.93
  -9  -4 -11   86.96   14.19
   9   4  11   99.10   17.68
   9   4  11   78.37   11.83
   9   4  11   77.56   14.11
   9   4  11   69.33    9.43
   9   4  12    5.32    3.42
   9   4  12    9.96    2.86
   9   4  13    8.93    4.03
  -9  -5   6   14.74    5.79
  -9  -5   5   76.18   12.55
  -9  -5   4    5.71    4.19
  -9  -5   3   73.75   11.23
   9   5  -3   70.08   14.01
  -9  -5   2   12.80    3.61
  -9  -5   2   26.15    6.59
   9   5  -2   18.83    8.28
   9   5  -1  181.77   21.70
  -9  -5   1  147.41   15.12
  -9  -5   1  155.49   14.42
  -9  -5   0   35.03    7.12
  -9  -5   0   47.84    7.81
   9   5   0   58.55   12.33
   9   5   0   72.03   16.22
  -9  -5  -1   47.72    7.92
   9   5   1   61.22   13.26
   9   5   1   56.36   13.87
  -9  -5  -1   61.47    9.51
  -9  -5  -2   69.18   10.06
   9   5   2   72.29   14.26
   9   5   2   70.57   14.59
   9   5   3  251.62   26.34
   9   5   3  219.93   25.15
  -9  -5  -3  217.00   18.75
  -9  -5  -4   65.26    9.76
   9   5   4   67.38   13.58
   9   5   4   60.22   13.14
   9   5   5  544.86   39.96
   9   5   5  464.87   36.10
   9   5   5  479.84   30.50
  -9  -5  -5  462.20   29.02
  -9  -5  -6   63.42   10.41
   9   5   6   61.66   12.70
   9   5   6   56.89    9.90
   9   5   6   57.67   12.59
  -9  -5  -7   27.08    7.41
   9   5   7   20.25    8.23
   9   5   7   20.02    6.05
   9   5   7   27.13    8.55
   9   5   8  291.85   30.65
   9   5   8  240.65   20.77
   9   5   8  229.51   24.70
  -9  -5  -8  244.04   22.44
  -9  -5  -9  113.45   15.68
   9   5   9  122.76   20.08
   9   5   9  104.44   13.38
   9   5   9   86.96   14.98
   9   5  10  192.21   25.82
   9   5  10  153.85   16.52
  -9  -5 -10  166.87   19.49
   9   5  10  143.61   19.04
   9   5  11  191.92   18.69
   9   5  11  167.48   21.00
  -9  -6   5   52.44   10.72
  -9  -6   4   -2.57    4.41
  -9  -6   3   54.99   10.17
   9   6  -3   69.20   13.85
  -9  -6   2    7.44    3.60
   9   6  -2   25.32    9.24
  -9  -6   1   80.34   11.79
   9   6  -1   88.55   16.19
  -9  -6   1   79.56   10.34
  -9  -6   0    4.98    3.47
   9   6   0   12.99    6.59
  -9  -6  -1   32.16    7.05
   9   6   1   18.96    6.88
   9   6   1   13.21    6.44
  -9  -6  -2    9.19    4.42
   9   6   2   16.30    7.11
   9   6   2    5.26    3.99
  -9  -6  -3   31.25    7.27
   9   6   3   49.43   12.14
   9   6   3   24.10    9.10
  -9  -6  -4   46.59    9.03
   9   6   4   50.01   12.33
   9   6   4   37.76   10.08
  -9  -6  -5   49.53    9.62
   9   6   5   62.04   13.52
   9   6   5   87.01   15.35
  -9  -6  -6    0.30    2.30
   9   6   6   -3.42    7.79
   9   6   6    1.08    3.47
  -9  -6  -7    4.46    2.21
   9   6   7   10.65    7.06
   9   6   7    2.47    5.16
  -9  -6  -8   34.49    8.45
   9   6   8   52.01   13.46
   9   6   8   40.69    9.40
   9   6   9   41.02   10.30
   9   6  10   58.72   10.51
   9   6  10   65.43   12.83
   9   7  -3  208.26   24.64
   9   7  -2   15.10    7.17
   9   7  -1  213.68   25.22
   9   7   0   99.00   14.99
  -9  -7   0   81.22   11.31
   9   7   0   94.69   16.86
  -9  -7  -1   13.68    4.69
   9   7   1    9.36    6.49
   9   7   1    5.53    3.84
   9   7   2   94.91   17.09
   9   7   2   98.05   16.96
  -9  -7  -2   94.94   13.01
   9   7   3  102.79   18.46
   9   7   3  110.74   18.04
  -9  -7  -3  103.34   13.81
  -9  -7  -4   50.04    9.69
   9   7   4   48.63   12.48
   9   7   4   59.41   12.78
   9   7   5  129.66   20.05
   9   7   5  126.62   18.65
  -9  -7  -5  123.88   15.46
  -9  -7  -6   -4.48    4.95
   9   7   6   -8.02    8.17
   9   7   6   -6.72    6.00
  -9  -7  -7    6.07    4.15
   9   7   7    8.97    6.50
   9   7   8   37.03    9.53
   9   7   9   -0.21    4.20
   9   7  10   30.11    9.56
   9   8  -1  116.53   18.85
   9   8   0   38.91   10.56
  -9  -8  -1    1.96    2.48
   9   8   1   -2.62    5.24
  -9  -8  -2   95.00   13.01
   9   8   2  125.94   19.35
   9   8   2  103.07   17.72
   9   8   3  158.29   22.58
   9   8   3  144.03   20.11
  -9  -8  -3  120.97   15.35
  -9  -8  -3  154.46   16.15
  -9  -8  -4   68.68   11.14
  -9  -8  -4   62.77   11.21
   9   8   4   61.30   13.88
   9   8   4   46.00   11.41
   9   8   5  231.33   25.00
  -9  -8  -5  190.25   19.99
  -9  -8  -5  204.11   19.80
  -9  -8  -6   26.28    6.72
   9   8   6   35.57    9.97
   9   8   7   54.35   11.33
   9   8   8  241.64   25.33
   9   8   9   31.09    9.86
   9   9   3    9.81    4.28
 -10   7   0   36.21   10.83
  10  -7   1    7.23    5.19
 -10   7  -1    9.19    4.78
  10  -7   2   16.93    5.49
  10  -7   3   28.72    7.61
 -10   6   1   -5.21    4.15
  10  -6   0  194.22   18.70
 -10   6   0  230.95   24.73
  10  -6   1   68.88   10.83
 -10   6  -1   93.75   15.48
  10  -6   2    7.84    3.78
  10  -6   3   11.26    4.66
  10  -6   3   27.83    8.08
  10  -6   4   86.32   13.51
  10  -6   4  154.33   20.73
  10  -6   5   11.25    5.81
  10  -6   5   -3.47    3.60
  10  -6   6  178.78   23.13
  10  -6   7   12.88    6.29
  10  -6   8   -0.33    5.84
  10  -6   9   -4.86    6.54
  10  -5  -1    4.16    3.25
 -10   5   1    7.67    5.39
  10  -5   0  163.98   16.80
 -10   5   0  211.86   21.99
 -10   5  -1  141.84   18.15
  10  -5   1  111.30   13.91
  10  -5   1  143.30   20.83
  10  -5   2   13.60    3.91
 -10   5  -2   10.01    5.13
  10  -5   3   50.96    9.69
 -10   5  -3   50.60   11.16
 -10   5  -4  189.46   21.31
  10  -5   4  181.97   18.66
  10  -5   5   48.22    9.90
  10  -5   5   51.95   13.15
 -10   5  -5   40.46    9.34
 -10   5  -6  412.75   32.19
  10  -5   6  406.37   30.01
  10  -5   6  502.34   41.22
  10  -5   7   63.97   15.08
  10  -5   8   47.40   13.50
  10  -5   9  212.59   26.68
  10  -5  10   47.10   12.92
 -10   4   5    5.08    2.75
 -10   4   3   10.51    5.54
  10  -4  -2   49.24    8.47
 -10   4   2   44.34    9.56
  10  -4  -1    3.03    3.44
 -10   4   1   -1.40    3.76
  10  -4   0   44.96    8.19
  10  -4   0   79.58   17.32
 -10   4   0   63.64   11.26
 -10   4   0   71.25   11.54
  10  -4   1    6.86    3.84
  10  -4   1    6.72    4.76
 -10   4  -1    9.00    4.97
  10  -4   2   27.93    6.84
 -10   4  -2   35.13    9.28
  10  -4   3    9.37    3.39
  10  -4   3    9.41    6.85
 -10   4  -3   14.08    5.18
  10  -4   4   76.66   11.64
 -10   4  -4   78.13   12.43
  10  -4   5   21.06    6.80
  10  -4   5   10.79    7.20
 -10   4  -5   13.47    5.33
 -10   4  -6  144.24   17.90
  10  -4   6  153.04   17.16
 -10   4  -7    8.99    4.20
  10  -4   7   20.00    5.68
  10  -4   7   17.30    5.63
  10  -4   7   12.18    6.17
 -10   4  -8    7.70    6.40
  10  -4   8    5.08    3.55
  10  -4   8   -4.47    5.35
  10  -4   8    0.62    6.63
 -10   4  -9   59.52   12.09
  10  -4   9   78.83   11.32
  10  -4  10   80.89   16.51
 -10   3   5  106.65   13.19
 -10   3   5   99.86   14.48
 -10   3   4   77.73   10.73
 -10   3   4   98.13   13.98
 -10   3   3   17.87    4.86
 -10   3   3   10.50    5.02
 -10   3   2  178.05   14.69
 -10   3   2  197.45   19.76
  10  -3  -2  170.00   15.77
 -10   3   1    7.94    3.18
  10  -3  -1    6.50    4.14
  10  -3  -1   -2.54    6.34
 -10   3   1    4.33    3.81
 -10   3   0  230.66   21.41
  10  -3   0  235.03   19.02
  10  -3   1   59.59    9.56
 -10   3  -1   68.65   11.10
  10  -3   2   25.93    6.07
 -10   3  -2   28.69    7.27
  10  -3   3   16.49    5.90
  10  -3   3   -0.11    6.58
 -10   3  -3   11.08    4.59
  10  -3   4   71.43   10.80
  10  -3   4   80.06   11.42
  10  -3   4   81.90   17.44
 -10   3  -4   63.16   11.41
  10  -3   5   10.91    4.88
  10  -3   5   16.98    5.98
  10  -3   5   10.63    6.66
 -10   3  -5    3.95    3.86
 -10   3  -6   78.76   12.75
  10  -3   6   84.81   12.05
  10  -3   6   63.57   10.54
  10  -3   6   85.71   18.15
 -10   3  -7   11.71    5.74
  10  -3   7   16.98    5.38
  10  -3   7    7.14    4.09
  10  -3   7   11.03    8.35
 -10   3  -8   -0.93    2.87
  10  -3   8    3.97    3.02
  10  -3   8   -2.12    2.80
 -10   3  -9   22.23    7.08
  10  -3   9   20.99    5.78
  10  -3   9   14.14    6.16
  10  -3   9   13.76    5.70
 -10   3 -10   23.35    6.78
  10  -3  10   25.57    6.43
  10  -3  10   33.88   10.13
  10  -3  11    2.03    2.01
 -10   2   6   31.61    7.12
 -10   2   6   29.54    7.84
 -10   2   5   31.14    7.37
 -10   2   5   46.27    9.13
 -10   2   4   99.16   12.08
 -10   2   4  102.02   13.49
 -10   2   3    6.93    4.05
  10  -2  -3    7.75    4.15
 -10   2   3    6.54    4.74
 -10   2   2  214.64   15.99
 -10   2   2  211.95   19.46
  10  -2  -2  230.95   19.15
 -10   2   1   12.50    3.20
  10  -2  -1   13.83    5.09
  10  -2  -1    5.66    5.42
 -10   2   1    6.70    4.20
 -10   2   0  369.35   26.07
  10  -2   0  318.69   22.43
 -10   2  -1  158.42   16.64
  10  -2   1  148.02   15.05
  10  -2   1  172.66   26.97
  10  -2   2    1.98    3.17
  10  -2   2    7.25    8.56
 -10   2  -2    0.64    2.56
  10  -2   3  171.04   17.85
 -10   2  -3  154.33   16.74
  10  -2   3  189.58   17.28
  10  -2   3  208.04   27.73
  10  -2   4  231.02   21.00
 -10   2  -4  204.76   19.90
  10  -2   4  221.63   19.13
  10  -2   4  266.61   31.52
 -10   2  -5   99.55   13.47
  10  -2   5  108.22   13.79
  10  -2   5   84.14   11.75
  10  -2   5   84.07   18.22
  10  -2   6  386.23   26.78
 -10   2  -6  383.42   27.67
  10  -2   6  359.31   25.79
  10  -2   6  401.67   38.63
 -10   2  -7   13.18    4.04
  10  -2   7   16.39    5.33
  10  -2   7   25.09    6.57
  10  -2   7   23.54   10.34
 -10   2  -8   85.35   13.07
  10  -2   8   75.50   11.25
  10  -2   8   78.13   11.91
  10  -2   8   67.09   15.23
  10  -2   9  184.15   18.36
  10  -2   9  191.74   19.47
 -10   2  -9  152.52   18.31
  10  -2   9  186.69   25.80
 -10   2 -10   17.11    6.53
  10  -2  10   23.56    6.96
  10  -2  10   13.34    4.40
  10  -2  10   13.00    5.67
 -10   2 -11   78.34   13.66
  10  -2  11   71.47   11.54
  10  -2  12   49.13    9.54
 -10   1   6   13.26    5.66
 -10   1   5   19.05    5.36
 -10   1   5   13.06    5.01
 -10   1   4   65.09    9.52
 -10   1   4   73.84   11.06
 -10   1   3   14.02    4.79
  10  -1  -3   10.65    4.47
 -10   1   3    9.08    3.44
 -10   1   2   49.07    7.31
  10  -1  -2   48.72    8.53
 -10   1   2   51.27    9.17
 -10   1   1    5.92    2.57
  10  -1  -1    3.32    3.44
  10  -1  -1    2.01    4.35
 -10   1   1   -1.58    3.29
  10  -1   0   73.16   10.60
  10  -1   0   54.41   16.02
 -10   1   0   60.19   10.07
  10  -1   1   20.85    5.92
  10  -1   1   22.91    5.84
  10  -1   1   33.25   13.11
 -10   1  -1   23.77    6.26
 -10   1  -2   33.50    7.52
  10  -1   2   25.22    7.79
  10  -1   2   35.53    7.34
  10  -1   2   34.61   12.27
 -10   1  -3   12.20    4.34
  10  -1   3   16.18    5.70
  10  -1   3   21.08    5.92
  10  -1   3    5.67    8.06
 -10   1  -4   88.94   12.44
  10  -1   4   98.75   13.69
  10  -1   4  103.54   12.77
  10  -1   4  102.03   19.37
 -10   1  -5   50.13    9.94
  10  -1   5   41.77    9.03
  10  -1   5   42.02    8.20
  10  -1   5   36.31   11.60
  10  -1   6  189.06   18.65
 -10   1  -6  181.54   18.43
  10  -1   6  175.33   17.45
  10  -1   6  186.02   26.22
 -10   1  -7   27.57    6.86
  10  -1   7   39.17    9.43
  10  -1   7   36.99    8.38
  10  -1   7   24.63    8.64
 -10   1  -8   53.33   10.19
  10  -1   8   60.26   11.03
  10  -1   8   60.67   10.72
  10  -1   8   43.67   12.42
  10  -1   9  349.90   26.58
  10  -1   9  325.79   25.42
 -10   1  -9  325.34   26.48
  10  -1   9  334.20   34.67
 -10   1 -10   22.92    7.21
  10  -1  10   32.78    7.92
  10  -1  10   39.70    8.99
  10  -1  10   30.71   10.34
 -10   1 -11   80.21   13.27
  10  -1  11   85.78   12.85
  10  -1  12   89.56   13.26
  10  -1  13    8.33    4.94
 -10   0   6  104.64   13.62
 -10   0   5   82.36   11.13
 -10   0   5   82.27   11.32
 -10   0   4   78.12   10.53
 -10   0   4   59.31    9.64
 -10   0   3   14.58    4.81
 -10   0   3   17.44    5.00
 -10   0   2  119.46   11.44
 -10   0   2  107.88   13.09
  10   0  -2  124.41   14.32
 -10   0   1   32.10    7.45
  10   0  -1   26.60    9.58
  10   0  -1   25.53    6.35
  10   0   0  163.03   19.11
 -10   0   0  149.46   15.48
  10   0   0  209.53   31.10
  10   0   0  155.93   15.85
 -10   0  -1   38.92    8.05
  10   0   1   31.88    8.74
  10   0   1   38.76    7.84
  10   0   1   45.98   13.39
 -10   0  -2    5.07    3.54
  10   0   2    7.63    5.47
  10   0   2    2.16    2.26
  10   0   2   -6.72    4.90
 -10   0  -3   50.03    8.78
  10   0   3   44.55    8.80
  10   0   3   51.04    8.93
  10   0   3   39.17   12.24
 -10   0  -4   41.24    8.57
  10   0   4   38.15    8.95
  10   0   4   33.44    7.17
  10   0   4   39.35   11.20
 -10   0  -5   -0.26    2.15
  10   0   5    1.05    2.46
  10   0   5    0.59    3.22
  10   0   5    2.36    4.80
 -10   0  -6   38.04    8.54
  10   0   6   40.70    9.42
  10   0   6   39.25    8.35
  10   0   6   34.68   10.90
 -10   0  -7   -1.19    3.05
  10   0   7    0.23    3.55
  10   0   7    6.89    4.68
  10   0   7    6.68    5.61
 -10   0  -8   18.28    5.90
  10   0   8   22.14    7.05
  10   0   8   20.76    6.04
  10   0   8   12.16    5.08
 -10   0  -9   35.08    8.97
  10   0   9   49.99   10.23
  10   0   9   60.30   10.45
  10   0   9   39.50   12.03
 -10   0 -10   13.74    6.10
  10   0  10   16.39    6.18
  10   0  10   23.14    7.21
  10   0  10   24.38   10.71
 -10   0 -11    4.82    3.35
  10   0  11    1.35    5.06
  10   0  12   -5.59    5.63
  10   0  13   -1.33    4.19
 -10  -1   6   63.99   10.75
 -10  -1   5   97.35   12.39
 -10  -1   4   58.61    9.19
 -10  -1   4   72.56   10.13
 -10  -1   3   54.87    9.26
 -10  -1   3   53.36    8.08
 -10  -1   2  243.71   19.32
 -10  -1   2  266.23   17.85
 -10  -1   1   16.93    5.24
  10   1  -1   15.04    9.94
  10   1  -1   10.32    4.26
  10   1   0  362.79   29.27
 -10  -1   0  346.11   23.66
  10   1   0  425.03   43.13
  10   1   0  347.38   24.64
  10   1   1  140.24   17.47
 -10  -1  -1  112.52   13.24
  10   1   1  120.41   13.93
  10   1   1  129.29   23.22
 -10  -1  -2    0.51    2.82
  10   1   2    1.59    2.97
  10   1   2   -0.86    2.19
  10   1   2   -6.38    5.69
  10   1   3  248.02   23.34
 -10  -1  -3  250.01   20.35
  10   1   3  206.21   18.64
  10   1   3  260.52   31.71
  10   1   4  171.69   19.40
  10   1   4  153.88   15.73
 -10  -1  -4  154.43   16.14
  10   1   4  154.17   23.82
  10   1   5  119.59   15.94
  10   1   5  113.80   13.75
 -10  -1  -5  104.15   13.47
  10   1   5   94.60   18.30
  10   1   6  147.87   18.13
  10   1   6  143.53   15.55
 -10  -1  -6  161.92   17.47
  10   1   6  155.02   22.48
 -10  -1  -7   27.52    7.38
  10   1   7   16.39    5.79
  10   1   7   14.12    4.51
  10   1   7   19.72    9.21
  10   1   8  135.77   17.38
  10   1   8  127.54   15.01
 -10  -1  -8  129.75   15.89
  10   1   8  138.11   21.20
  10   1   9  230.71   23.38
  10   1   9  202.06   19.35
 -10  -1  -9  210.44   20.88
  10   1   9  190.81   25.18
 -10  -1 -10    5.65    2.66
  10   1  10    4.13    3.32
  10   1  10    7.30    3.70
  10   1  10   10.28    7.78
 -10  -1 -11   13.72    5.69
  10   1  11   12.20    5.75
  10   1  11   24.25    6.54
  10   1  12    1.42    3.77
 -10  -2   6   13.71    5.01
 -10  -2   5   16.93    5.29
 -10  -2   4   55.24    9.13
 -10  -2   3    1.20    2.38
 -10  -2   2   29.62    6.69
 -10  -2   1   11.06    3.63
  10   2  -1   13.32    6.70
  10   2  -1   11.38    9.29
 -10  -2   0   78.42   10.49
  10   2   0   81.51   14.07
  10   2   0   99.84   20.21
  10   2   0   74.66   11.51
 -10  -2  -1   39.72    7.89
  10   2   1   35.58    9.36
  10   2   1   39.98    8.35
  10   2   1   51.63   14.49
 -10  -2  -2    5.79    3.25
  10   2   2    1.37    4.78
  10   2   2   12.21    4.99
  10   2   2    9.05    7.28
  10   2   3  145.93   18.76
  10   2   3  148.70   15.81
 -10  -2  -3  143.60   15.38
  10   2   3  179.50   25.16
 -10  -2  -4   76.04   11.46
  10   2   4   70.00   13.33
  10   2   4   80.71   11.80
  10   2   4   78.40   15.88
 -10  -2  -5   29.40    7.48
  10   2   5   19.34    6.65
  10   2   5   37.03    7.96
  10   2   5   21.60    7.18
  10   2   6  231.22   23.70
  10   2   6  216.24   19.42
  10   2   6  227.04   27.21
 -10  -2  -6  214.81   19.86
 -10  -2  -7   13.93    4.49
  10   2   7   16.24    6.25
  10   2   7   11.68    5.31
  10   2   7   14.03    7.25
  10   2   8  265.99   26.20
  10   2   8  208.67   19.34
  10   2   8  251.59   28.45
 -10  -2  -8  223.80   21.29
  10   2   9  430.32   33.96
  10   2   9  382.80   27.02
  10   2   9  378.10   35.23
 -10  -2  -9  363.62   28.39
 -10  -2 -10    5.48    3.91
  10   2  10    5.16    4.48
  10   2  10    5.34    2.38
  10   2  10    6.48    6.87
  10   2  11   58.68   12.75
 -10  -3   3    9.89    3.56
  10   3  -2   90.98   16.12
 -10  -3   2   84.60   11.02
 -10  -3   1    8.03    3.57
  10   3  -1   19.24    7.69
  10   3  -1    6.24    6.01
 -10  -3   0   42.44    8.00
  10   3   0   59.57   12.50
  10   3   0   54.28   14.81
 -10  -3  -1    8.14    3.53
  10   3   1    7.07    3.15
  10   3   1    9.66    3.95
  10   3   1   11.47    7.90
 -10  -3  -2   -4.14    2.91
  10   3   2   -3.81    3.18
  10   3   2   -1.06    3.59
  10   3   2    5.35    7.17
 -10  -3  -3   17.64    5.57
  10   3   3   45.36   11.12
  10   3   3   29.40    7.19
  10   3   3   29.74    9.51
 -10  -3  -4   18.77    5.98
  10   3   4   19.50    7.17
  10   3   4   19.47    5.76
  10   3   4    9.36    8.05
 -10  -3  -5   -1.10    3.35
  10   3   5    3.54    4.50
  10   3   5   -2.54    4.05
  10   3   5   -8.50    7.95
 -10  -3  -6   15.34    5.79
  10   3   6   11.80    5.72
  10   3   6    4.95    3.65
  10   3   6    3.32    2.99
 -10  -3  -7    6.56    4.90
  10   3   7   11.86    6.61
  10   3   7    2.41    2.48
  10   3   7    3.51    4.06
 -10  -3  -8   56.88   10.84
  10   3   8   91.93   16.33
  10   3   8   68.96   11.13
  10   3   8   60.65   13.86
 -10  -3  -9  111.26   15.27
  10   3   9  110.62   17.36
  10   3   9  119.15   14.85
  10   3   9  112.48   18.55
  10   3  10   -2.77    5.63
  10   3  10   -3.26    3.68
  10   3  10   -0.31    3.58
  10   4  -2  166.17   22.60
 -10  -4   2  148.90   14.46
 -10  -4   1   30.70    6.78
  10   4  -1   28.73    9.40
  10   4   0  286.73   28.16
  10   4   0  277.73   33.58
 -10  -4   0  246.72   19.43
 -10  -4  -1   75.90   10.76
  10   4   1   73.85   14.35
  10   4   1   82.56   18.32
 -10  -4  -2   39.47    8.28
  10   4   2   43.57   11.16
  10   4   2   43.61   11.10
  10   4   3  281.15   28.20
  10   4   3  281.66   31.01
  10   4   3  291.92   23.99
 -10  -4  -3  241.85   20.66
 -10  -4  -4   51.17    9.73
  10   4   4   56.83   13.16
  10   4   4   48.56    9.29
  10   4   4   62.48   14.61
 -10  -4  -5   13.49    5.15
  10   4   5    7.37    4.74
  10   4   5   11.11    5.07
  10   4   5   16.24    8.57
 -10  -4  -6   65.64   10.95
  10   4   6   70.48   14.73
  10   4   6   75.06   11.93
  10   4   6   73.41   14.98
 -10  -4  -7    1.67    2.54
  10   4   7   -1.25    5.18
  10   4   7    7.04    2.93
  10   4   7   -3.61    3.47
  10   4   8  131.43   20.37
  10   4   8  178.57   18.20
  10   4   8  168.33   22.77
 -10  -4  -8  174.31   19.09
  10   4   9  120.08   15.16
  10   4   9   99.09   17.50
  10   5  -2   60.25   12.81
 -10  -5   1   -0.10    1.72
  10   5  -1    4.52    4.75
 -10  -5   0   68.53    9.98
  10   5   0   81.28   15.23
  10   5   0   76.78   17.50
 -10  -5  -1   21.35    5.84
  10   5   1   43.87   12.18
  10   5   1   34.51   12.03
 -10  -5  -2   50.87    9.41
  10   5   2   58.61   13.61
  10   5   3  173.63   22.74
 -10  -5  -3  145.21   15.80
  10   5   3  173.58   24.15
 -10  -5  -4   49.43    9.37
  10   5   4   77.32   15.36
  10   5   4   80.83   16.00
 -10  -5  -5   27.27    6.56
  10   5   5   34.68   11.33
  10   5   5   28.94    7.55
  10   5   5   23.52    7.12
  10   5   6  178.86   24.06
  10   5   6  153.04   21.67
  10   5   6  182.85   18.92
 -10  -5  -6  155.90   17.62
 -10  -5  -7    3.46    3.79
  10   5   7   -2.27    4.68
  10   5   7   -0.16    3.35
  10   5   7    4.09    3.37
  10   5   8  369.14   33.39
 -10  -6   0   16.16    5.30
  10   6   0   11.89    6.55
 -10  -6  -1    1.38    2.21
  10   6   1    5.96    5.99
 -10  -6  -2    8.96    4.35
  10   6   2   -0.20    4.13
  10   6   2    8.39    8.19
 -10  -6  -3   42.35    9.24
  10   6   3   62.05   14.10
  10   6   3   56.90   14.44
 -10  -6  -4   12.00    5.29
  10   6   4    7.71    6.66
  10   6   4   15.44    7.97
 -10  -6  -5    9.64    4.96
  10   6   5   -0.56    4.52
 -10  -6  -6   12.28    5.82
  10   6   6   20.90    9.25
  10   6   7   -4.76    3.68
 -10  -7  -2   67.19   11.27
 -10  -7  -3   90.01   13.34
 -10  -7  -4    9.48    4.39
  11  -5   0    5.78    3.01
  11  -5   1  134.15   15.91
  11  -5   1  180.38   24.30
  11  -5   2   35.11    8.59
  11  -5   2   61.85   14.30
  11  -5   3   55.81   11.44
  11  -5   3   93.32   18.23
  11  -5   4  234.17   29.47
  11  -5   5   27.95   10.32
  11  -5   6   32.54   11.65
  11  -5   7  173.51   26.08
  11  -4   0   11.48    4.85
  11  -4   0   11.71    6.07
  11  -4   1   24.87    6.37
  11  -4   1   34.35   11.63
  11  -4   2   18.72    5.14
  11  -4   2   32.99   10.94
  11  -4   3    5.91    4.05
  11  -4   3   -5.67    9.25
  11  -4   4   46.96    9.68
  11  -4   4   81.77   18.22
  11  -4   5   11.30    4.51
  11  -4   5   24.11   11.41
  11  -4   6    8.36    9.34
  11  -4   7   87.49   18.41
  11  -4   8   -4.23    4.48
  11  -4   9  180.85   17.85
  11  -3  -1   58.77   10.30
  11  -3   0   -2.35    3.34
  11  -3   0    4.74    8.55
  11  -3   1   71.70   11.26
  11  -3   1   88.79   19.44
  11  -3   2   26.97    7.45
  11  -3   2   44.58   14.66
  11  -3   3   44.11    8.96
  11  -3   3   79.47   18.20
  11  -3   4   23.54    6.89
  11  -3   4   29.05   11.40
  11  -3   5   28.15    6.71
  11  -3   5   22.09    6.13
  11  -3   6   20.45    5.97
  11  -3   6    9.11    4.41
  11  -3   6   14.50    7.24
  11  -3   7    6.31    3.45
  11  -3   7   13.57    8.28
  11  -3   8    3.90    3.34
  11  -3   8   -4.52    6.08
  11  -3   9   95.73   13.18
  11  -3  10   26.90    6.87
  11  -2  -2   70.09   11.02
 -11   2   2   80.23   12.43
  11  -2  -1   91.28   12.54
 -11   2   1   91.93   13.53
  11  -2   0    6.78    4.87
  11  -2   0    1.48    6.20
 -11   2   0    5.75    4.38
 -11   2  -1  218.51   20.85
  11  -2   1  189.43   18.30
  11  -2   2   33.56    7.85
  11  -2   2   41.41   14.31
 -11   2  -2   29.83    7.83
 -11   2  -3  192.77   19.89
  11  -2   3  164.48   17.39
  11  -2   4  311.43   25.61
 -11   2  -4  275.34   24.17
  11  -2   4  232.34   21.23
  11  -2   4  314.39   36.49
 -11   2  -5   27.95    7.70
  11  -2   5   33.67    8.95
  11  -2   5   27.32    7.49
  11  -2   5   51.79   14.73
 -11   2  -6   27.82    8.23
  11  -2   6   13.09    5.26
  11  -2   6   21.44    6.02
  11  -2   6   31.22   12.63
  11  -2   7  141.80   16.81
  11  -2   7  157.97   25.88
  11  -2   8   -0.06    2.89
  11  -2   8    9.94    9.95
  11  -2   9  268.94   23.52
  11  -2  10  112.51   14.65
  11  -2  11    5.38    3.65
 -11   1   3    1.86    2.49
  11  -1  -2    9.48    3.20
 -11   1   2    8.81    4.83
  11  -1  -1   39.51   14.60
  11  -1  -1   25.55    7.00
 -11   1   1   24.27    6.85
 -11   1   0    3.70    2.87
  11  -1   0    7.11    3.68
 -11   1  -1   62.09   10.55
  11  -1   1   52.40    9.29
  11  -1   1   72.08   18.70
 -11   1  -2    8.70    4.94
  11  -1   2   11.48    5.41
  11  -1   2    9.28    4.90
  11  -1   2   15.16    8.44
 -11   1  -3  113.62   14.88
  11  -1   3  128.71   17.14
  11  -1   3  121.45   14.75
  11  -1   3  134.09   24.66
 -11   1  -4  100.44   14.17
  11  -1   4  107.85   15.58
  11  -1   4   99.66   13.53
  11  -1   4  113.49   22.11
 -11   1  -5   29.33    7.66
  11  -1   5   33.18    8.69
  11  -1   5   20.06    7.14
  11  -1   5   16.59    9.36
 -11   1  -6   -2.52    4.40
  11  -1   6    9.99    4.88
  11  -1   6    2.15    4.21
  11  -1   6    2.69    4.23
 -11   1  -7  111.43   15.62
  11  -1   7  105.61   14.55
  11  -1   7  119.46   15.15
  11  -1   7  132.28   23.75
  11  -1   8    7.79    5.47
  11  -1   8   18.31   11.48
  11  -1   9  485.57   33.03
  11  -1  10  106.83   15.29
  11  -1  11    2.95    2.29
 -11   0   3   -1.71    3.38
 -11   0   2   35.07    7.83
  11   0  -2   41.15    9.18
 -11   0   1   74.61   11.67
  11   0  -1   78.46   12.08
 -11   0   0   26.22    7.01
  11   0   0   35.39    7.93
  11   0   0   24.37   10.21
 -11   0  -1   46.38    9.38
  11   0   1   50.36   10.41
  11   0   1   51.95    9.70
  11   0   1   42.83   15.10
 -11   0  -2   -6.32    4.14
  11   0   2    7.75    5.90
  11   0   2    0.40    2.43
  11   0   2   14.72    9.84
 -11   0  -3   42.27    8.99
  11   0   3   53.85   11.68
  11   0   3   39.85    8.60
  11   0   3   47.31   12.19
 -11   0  -4   33.38    7.56
  11   0   4   18.13    6.26
  11   0   4   27.46    7.22
  11   0   4   40.98   14.41
 -11   0  -5   25.67    7.24
  11   0   5   30.53    8.57
  11   0   5   27.66    7.31
  11   0   5   21.84    6.81
 -11   0  -6   24.90    7.55
  11   0   6   29.72    8.21
  11   0   6   34.43    8.00
  11   0   6   29.22   11.06
 -11   0  -7   24.35    6.97
  11   0   7   20.50    6.90
  11   0   7   19.40    5.67
  11   0   7   39.65   11.45
  11   0   8    4.84    4.08
  11   0   9  109.71   16.06
  11   0  10   40.10   10.14
 -11  -1   3   35.77    8.01
 -11  -1   2  115.07   13.99
 -11  -1   1   97.77   12.72
  11   1  -1   69.83   11.67
 -11  -1   0   20.54    6.31
  11   1   0   22.94    9.74
  11   1   0   17.30    6.29
  11   1   1  203.74   23.06
 -11  -1  -1  184.85   18.54
  11   1   1  203.74   19.75
 -11  -1  -2   12.59    5.21
  11   1   2   21.84    8.65
  11   1   2   23.25    6.76
  11   1   2   20.70    9.95
  11   1   3  425.06   32.66
 -11  -1  -3  419.84   28.67
  11   1   3  491.11   46.35
  11   1   3  384.59   27.84
  11   1   4  156.17   19.22
  11   1   4  152.66   17.20
 -11  -1  -4  145.60   17.01
  11   1   4  131.27   24.16
 -11  -1  -5   34.76    8.70
  11   1   5   37.08   10.41
  11   1   5   34.74    8.10
  11   1   5   39.31   11.61
 -11  -1  -6    7.47    2.56
  11   1   6   14.52    6.52
  11   1   6    3.16    3.82
  11   1   6    8.24    8.37
 -11  -1  -7   84.75   13.74
  11   1   7  113.18   16.48
  11   1   7   99.97   13.87
  11   1   7   94.02   19.09
  11   1   8    9.27    5.68
 -11  -2   2   20.02    6.48
 -11  -2   1   65.98   10.71
 -11  -2   0   19.54    6.31
  11   2   0    8.89    3.42
  11   2   1  133.06   19.20
 -11  -2  -1  140.36   15.84
  11   2   1  117.88   15.55
 -11  -2  -2    3.70    2.70
  11   2   2   -1.69    4.32
  11   2   2    6.07    4.04
  11   2   2    2.30    7.44
  11   2   3  175.02   21.47
  11   2   3  204.43   29.63
  11   2   3  179.92   18.61
 -11  -2  -3  177.89   18.62
  11   2   4  167.87   21.03
  11   2   4  139.94   16.57
 -11  -2  -4  181.72   18.90
  11   2   4  191.11   28.29
 -11  -2  -5   18.02    5.91
  11   2   5   26.76    8.82
  11   2   5   21.19    6.33
  11   2   5    3.76    4.63
 -11  -2  -6   11.64    4.88
  11   2   6   28.14    9.73
  11   2   6   29.35    8.12
  11   2   6    7.53    4.74
  11   2   7  201.22   23.71
 -11  -2  -7  170.13   19.31
 -11  -3   1   47.22    8.55
 -11  -3   0   10.14    3.77
 -11  -3  -1   29.21    7.38
 -11  -3  -2   -3.34    4.35
  11   3   2   -2.59    4.05
 -11  -3  -3   90.82   13.01
  11   3   3   95.14   13.98
 -11  -3  -4   12.10    5.52
  11   3   4   22.28    8.92
  11   3   4   15.84    5.66
  11   3   4   15.89    7.34
 -11  -3  -5   21.71    6.26
  11   3   5   24.63    6.85
 -11  -3  -6   18.08    6.61
 -11  -4   0    6.02    4.23
 -11  -4  -1  141.08   15.65
 -11  -4  -2    5.23    4.39
 -11  -4  -3  216.57   20.21
 -11  -4  -4   43.96    8.92
 -11  -4  -5   15.19    5.59
 -11  -5  -1  101.70   13.11
 -11  -5  -2    2.80    2.39
 -11  -5  -3  171.93   18.36
  12  -3   1    2.84    2.37
  12  -2   0   50.65    9.89
  12  -2   1   13.96    5.96
  12  -1   0   57.45   10.77
  12  -1   1    3.05    2.31
  12   0   0   10.69    4.26
  12   0   1    0.44    3.60
   0   0   0    0.00    0.00
TITL LS015_Mo in P-1
REM P-1 (#2 in standard setting)
CELL 0.71073   9.067824   9.214459  12.631365  86.9256  75.4755  89.2211
ZERR    4.00   0.000246   0.000288   0.000414   0.0026   0.0026   0.0024
LATT  1
SFAC C H N O
UNIT 44.00 40.00 4.00 4.00
TREF
HKLF 4
END
_computing_structure_solution     'SHELXT 2014/5 (Sheldrick, 2014)'
_computing_structure_solution     'SHELXT 2014/5 (Sheldrick, 2014)'
;
_shelx_hkl_checksum              41631
_shelx_res_file
;
TITL ls015_mo_a.res in P-1
    x.res
    created by SHELXL-2018/3 at 09:52:39 on 04-May-2020
REM Old TITL ls015_mo_a.res in P-1
REM SHELXT solution in P-1
REM R1 0.076, Rweak 0.006, Alpha 0.079, Orientation as input
REM Formula found by SHELXT: C13 N3 Bi Br2
CELL 0.71073  9.2145 9.0678 12.6314 75.476 86.926 89.221
ZERR 1 0.0003 0.0002 0.0004 0.003 0.003 0.002
LATT 1
SFAC C H Bi Br N
UNIT 24 36 2 10 8
SIZE 0.15 0.14 0.07
L.S. 18
PLAN  20
TEMP -113
CONF
BOND $H
fmap 2
acta
HTAB N1 Br4
EQIV $2 x-1, y, z
HTAB N2 Br4
HTAB N2 Br2_$2
EQIV $3 -x+1, -y+1, -z+1
EQIV $1 -x+1, -y+1, -z
HTAB N3 Br5_$1
HTAB N4 Br3_$1
EQIV $4 -x, -y+1, -z
HTAB N4 Br5_$4
WGHT    0.023900
EXTI    0.001913
FVAR       0.22228
BI1   3    0.509235    0.391346    0.180091    11.00000    0.01270    0.02202 =
         0.01806   -0.00686   -0.00008    0.00003
BR1   4    0.499069    0.108925    0.317945    11.00000    0.02713    0.02682 =
         0.03497   -0.00079    0.00079    0.00156
BR2   4    0.541013    0.537210    0.343779    11.00000    0.02434    0.04575 =
         0.02718   -0.02122   -0.00147   -0.00193
BR3   4    0.809134    0.367059    0.149584    11.00000    0.01266    0.03233 =
         0.03836   -0.01046    0.00157    0.00028
BR4   4    0.196580    0.425655    0.206819    11.00000    0.01241    0.03025 =
         0.03082   -0.01082   -0.00031    0.00217
BR5   4    0.474745    0.285019   -0.020288    11.00000    0.04102    0.02640 =
         0.02386   -0.01101   -0.00182   -0.00511
N1    5    0.142312    0.647371    0.391660    11.00000    0.02198    0.02244 =
         0.02405   -0.00441    0.00470    0.00331
AFIX  43
H1    2    0.182106    0.594938    0.347717    11.00000   -1.20000
AFIX   0
N2    5   -0.081944    0.584232    0.341741    11.00000    0.02254    0.02467 =
         0.02547   -0.01009   -0.00004    0.00367
AFIX  93
H21   2   -0.038140    0.531909    0.299312    11.00000   -1.20000
H22   2   -0.177440    0.589217    0.346206    11.00000   -1.20000
AFIX   0
C1    1   -0.003732    0.655858    0.399184    11.00000    0.02193    0.01422 =
         0.01644    0.00200   -0.00023    0.00385
C2    1   -0.068592    0.741870    0.469569    11.00000    0.02249    0.01625 =
         0.01952    0.00002   -0.00043    0.00186
C3    1    0.022339    0.805684    0.527643    11.00000    0.03447    0.02044 =
         0.02320   -0.00511   -0.00217    0.00146
AFIX  43
H31   2   -0.018820    0.860328    0.576999    11.00000   -1.20000
AFIX   0
C4    1    0.173518    0.793710    0.517273    11.00000    0.02602    0.03016 =
         0.03785   -0.00995   -0.01062   -0.00173
AFIX  43
H4    2    0.233970    0.840133    0.558281    11.00000   -1.20000
AFIX   0
C5    1    0.232310    0.714534    0.447533    11.00000    0.02241    0.02990 =
         0.03548   -0.00218   -0.00403   -0.00201
AFIX  43
H5    2    0.334778    0.706145    0.437882    11.00000   -1.20000
AFIX   0
C6    1   -0.230315    0.758647    0.477795    11.00000    0.02558    0.03394 =
         0.02855   -0.01274    0.00248    0.00395
AFIX 137
H61   2   -0.264979    0.808926    0.405592    11.00000   -1.50000
H62   2   -0.256672    0.820236    0.529537    11.00000   -1.50000
H63   2   -0.275192    0.657767    0.503642    11.00000   -1.50000
AFIX   0
N3    5    0.156501    0.816508    0.097029    11.00000    0.03935    0.03285 =
         0.04906    0.00638    0.01765    0.00999
AFIX  43
H3    2    0.203006    0.755442    0.062552    11.00000   -1.20000
AFIX   0
N4    5   -0.054265    0.731800    0.044965    11.00000    0.06379    0.03682 =
         0.03575   -0.01535    0.01426   -0.01018
AFIX  93
H41   2   -0.003796    0.673130    0.010658    11.00000   -1.20000
H42   2   -0.149760    0.732884    0.044756    11.00000   -1.20000
AFIX   0
C7    1    0.012582    0.817295    0.096211    11.00000    0.04399    0.02310 =
         0.02694    0.00391    0.00815   -0.00615
C8    1   -0.067401    0.916400    0.151824    11.00000    0.03634    0.02089 =
         0.01896   -0.00248   -0.00125    0.00137
C9    1    0.014631    1.001436    0.199775    11.00000    0.02852    0.03266 =
         0.03660    0.00065   -0.00625    0.00394
AFIX  43
H9    2   -0.034406    1.068018    0.237036    11.00000   -1.20000
AFIX   0
C10   1    0.164547    0.998222    0.198348    11.00000    0.05598    0.03573 =
         0.04994    0.00361   -0.02092   -0.01189
AFIX  43
H10   2    0.215978    1.061851    0.232809    11.00000   -1.20000
AFIX   0
C11   1    0.238903    0.900459    0.145715    11.00000    0.04447    0.03213 =
         0.04750    0.00530    0.00839   -0.00207
AFIX  43
H11   2    0.341889    0.892861    0.143944    11.00000   -1.20000
AFIX   0
C12   1   -0.227578    0.918467    0.154018    11.00000    0.03307    0.04401 =
         0.04093   -0.00855    0.00092   -0.00112
AFIX 137
H121  2   -0.259677    0.944393    0.078855    11.00000   -1.50000
H122  2   -0.264395    0.994630    0.191737    11.00000   -1.50000
H123  2   -0.265109    0.817750    0.192919    11.00000   -1.50000
AFIX   0
HKLF 4 1 0 -1 0 -1 0 0 0 0 -1
REM  ls015_mo_a.res in P-1
REM wR2 = 0.0592, GooF = S = 1.059, Restrained GooF = 1.059 for all data
REM R1 = 0.0282 for 4575 Fo > 4sig(Fo) and 0.0347 for all 5122 data
REM 202 parameters refined using 0 restraints
END
WGHT      0.0239      0.0000
REM Highest difference peak  1.523,  deepest hole -1.772,  1-sigma level  0.178
Q1    1   0.4146  0.3976  0.1800  11.00000  0.05    1.52
Q2    1   0.5995  0.3903  0.1776  11.00000  0.05    1.43
Q3    1   0.5145  0.4306  0.1011  11.00000  0.05    1.29
Q4    1   0.5087  0.3469  0.2561  11.00000  0.05    1.28
Q5    1   0.5061  0.4824  0.1889  11.00000  0.05    1.12
Q6    1   0.5079  0.3580  0.1201  11.00000  0.05    1.03
Q7    1   0.5091  0.3002  0.1781  11.00000  0.05    0.96
Q8    1   0.2987  0.4299  0.2142  11.00000  0.05    0.92
Q9    1   0.0843  0.7834  0.0563  11.00000  0.05    0.90
Q10   1   0.5114  0.4387  0.2315  11.00000  0.05    0.89
Q11   1   0.0623  1.0667  0.2501  11.00000  0.05    0.85
Q12   1   0.5427  0.4948  0.4290  11.00000  0.05    0.84
Q13   1   0.5188  0.0807  0.2626  11.00000  0.05    0.84
Q14   1   0.8043  0.2782  0.1303  11.00000  0.05    0.82
Q15   1   0.4218  0.1141  0.2967  11.00000  0.05    0.80
Q16   1   0.8147  0.4098  0.0670  11.00000  0.05    0.77
Q17   1   0.6466  0.5097  0.3544  11.00000  0.05    0.75
Q18   1   0.2054  0.5112  0.1954  11.00000  0.05    0.72
Q19   1   0.1269  0.8888  0.1360  11.00000  0.05    0.70
Q20   1   0.6967  0.3878  0.1694  11.00000  0.05    0.68
;
_shelx_res_checksum              15258
loop_
_space_group_symop_operation_xyz
'x, y, z'
'-x, -y, -z'
loop_
_atom_site_type_symbol
_atom_site_label
_atom_site_fract_x
_atom_site_fract_y
_atom_site_fract_z
_atom_site_U_iso_or_equiv
_atom_site_adp_type
_atom_site_calc_flag
_atom_site_occupancy
_atom_site_disorder_assembly
_atom_site_disorder_group
Bi Bi1 0.50924(2) 0.39135(2) 0.18009(2) 0.01729(6) Uani d 1 . .
Br Br1 0.49907(5) 0.10892(4) 0.31794(3) 0.03099(11) Uani d 1 . .
Br Br2 0.54101(5) 0.53721(5) 0.34378(3) 0.03024(11) Uani d 1 . .
Br Br3 0.80913(4) 0.36706(5) 0.14958(4) 0.02761(10) Uani d 1 . .
Br Br4 0.19658(4) 0.42565(5) 0.20682(3) 0.02398(10) Uani d 1 . .
Br Br5 0.47475(5) 0.28502(5) -0.02029(3) 0.02953(11) Uani d 1 . .
N N1 0.1423(4) 0.6474(4) 0.3917(3) 0.0233(7) Uani d 1 . .
H H1 0.182106 0.594938 0.347717 0.028 Uiso calc 1 . .
N N2 -0.0819(4) 0.5842(4) 0.3417(3) 0.0236(7) Uani d 1 . .
H H21 -0.038140 0.531909 0.299312 0.028 Uiso calc 1 . .
H H22 -0.177440 0.589217 0.346206 0.028 Uiso calc 1 . .
C C1 -0.0037(4) 0.6559(4) 0.3992(3) 0.0186(8) Uani d 1 . .
C C2 -0.0686(4) 0.7419(4) 0.4696(3) 0.0203(8) Uani d 1 . .
C C3 0.0223(5) 0.8057(4) 0.5276(3) 0.0261(9) Uani d 1 . .
H H31 -0.018820 0.860328 0.576999 0.031 Uiso calc 1 . .
C C4 0.1735(5) 0.7937(5) 0.5173(4) 0.0307(10) Uani d 1 . .
H H4 0.233970 0.840133 0.558282 0.037 Uiso calc 1 . .
C C5 0.2323(5) 0.7145(5) 0.4475(4) 0.0302(10) Uani d 1 . .
H H5 0.334778 0.706145 0.437882 0.036 Uiso calc 1 . .
C C6 -0.2303(5) 0.7586(5) 0.4778(3) 0.0287(10) Uani d 1 . .
H H61 -0.264979 0.808926 0.405592 0.043 Uiso calc 1 . .
H H62 -0.256672 0.820236 0.529537 0.043 Uiso calc 1 . .
H H63 -0.275192 0.657767 0.503642 0.043 Uiso calc 1 . .
N N3 0.1565(5) 0.8165(4) 0.0970(3) 0.0442(11) Uani d 1 . .
H H3 0.203006 0.755442 0.062552 0.053 Uiso calc 1 . .
N N4 -0.0543(5) 0.7318(4) 0.0450(3) 0.0449(11) Uani d 1 . .
H H41 -0.003796 0.673130 0.010658 0.054 Uiso calc 1 . .
H H42 -0.149760 0.732884 0.044756 0.054 Uiso calc 1 . .
C C7 0.0126(6) 0.8173(5) 0.0962(4) 0.0335(11) Uani d 1 . .
C C8 -0.0674(5) 0.9164(4) 0.1518(3) 0.0259(9) Uani d 1 . .
C C9 0.0146(5) 1.0014(5) 0.1998(4) 0.0341(11) Uani d 1 . .
H H9 -0.034406 1.068018 0.237036 0.041 Uiso calc 1 . .
C C10 0.1645(6) 0.9982(6) 0.1983(4) 0.0490(15) Uani d 1 . .
H H10 0.215978 1.061851 0.232809 0.059 Uiso calc 1 . .
C C11 0.2389(6) 0.9005(5) 0.1457(4) 0.0445(13) Uani d 1 . .
H H11 0.341889 0.892861 0.143944 0.053 Uiso calc 1 . .
C C12 -0.2276(5) 0.9185(5) 0.1540(4) 0.0398(12) Uani d 1 . .
H H121 -0.259677 0.944393 0.078855 0.060 Uiso calc 1 . .
H H122 -0.264395 0.994630 0.191737 0.060 Uiso calc 1 . .
H H123 -0.265109 0.817750 0.192919 0.060 Uiso calc 1 . .
loop_
_atom_site_aniso_label
_atom_site_aniso_U_11
_atom_site_aniso_U_22
_atom_site_aniso_U_33
_atom_site_aniso_U_12
_atom_site_aniso_U_13
_atom_site_aniso_U_23
Bi1 0.01270(9) 0.02202(9) 0.01806(9) 0.00003(6) -0.00008(6) -0.00686(6)
Br1 0.0271(3) 0.0268(2) 0.0350(3) 0.00156(19) 0.0008(2) -0.00079(19)
Br2 0.0243(2) 0.0457(3) 0.0272(2) -0.0019(2) -0.00147(18) -0.02122(19)
Br3 0.0127(2) 0.0323(2) 0.0384(2) 0.00028(17) 0.00157(18) -0.01046(19)
Br4 0.0124(2) 0.0303(2) 0.0308(2) 0.00217(16) -0.00031(17) -0.01082(17)
Br5 0.0410(3) 0.0264(2) 0.0239(2) -0.00511(19) -0.00182(19) -0.01101(17)
N1 0.022(2) 0.0224(17) 0.0241(17) 0.0033(14) 0.0047(15) -0.0044(14)
N2 0.023(2) 0.0247(17) 0.0255(18) 0.0037(14) 0.0000(15) -0.0101(14)
C1 0.022(2) 0.0142(18) 0.0164(18) 0.0039(16) -0.0002(16) 0.0020(14)
C2 0.022(2) 0.0163(18) 0.0195(19) 0.0019(16) -0.0004(17) 0.0000(15)
C3 0.034(3) 0.020(2) 0.023(2) 0.0015(18) -0.0022(19) -0.0051(17)
C4 0.026(3) 0.030(2) 0.038(3) -0.0017(19) -0.011(2) -0.010(2)
C5 0.022(2) 0.030(2) 0.035(2) -0.0020(19) -0.004(2) -0.0022(19)
C6 0.026(3) 0.034(2) 0.029(2) 0.0040(19) 0.0025(19) -0.0127(19)
N3 0.039(3) 0.033(2) 0.049(3) 0.0100(19) 0.018(2) 0.0064(19)
N4 0.064(3) 0.037(2) 0.036(2) -0.010(2) 0.014(2) -0.0153(19)
C7 0.044(3) 0.023(2) 0.027(2) -0.006(2) 0.008(2) 0.0039(18)
C8 0.036(3) 0.021(2) 0.019(2) 0.0014(19) -0.0012(19) -0.0025(16)
C9 0.029(3) 0.033(2) 0.037(3) 0.004(2) -0.006(2) 0.001(2)
C10 0.056(4) 0.036(3) 0.050(3) -0.012(3) -0.021(3) 0.004(2)
C11 0.044(3) 0.032(3) 0.048(3) -0.002(2) 0.008(3) 0.005(2)
C12 0.033(3) 0.044(3) 0.041(3) -0.001(2) 0.001(2) -0.009(2)
loop_
_atom_type_symbol
_atom_type_description
_atom_type_scat_dispersion_real
_atom_type_scat_dispersion_imag
_atom_type_scat_source
C C 0.0033 0.0016 'International Tables Vol C Tables 4.2.6.8 and 6.1.1.4'
H H 0.0000 0.0000 'International Tables Vol C Tables 4.2.6.8 and 6.1.1.4'
Bi Bi -4.1077 10.2566 'International Tables Vol C Tables 4.2.6.8 and 6.1.1.4'
Br Br -0.2901 2.4595 'International Tables Vol C Tables 4.2.6.8 and 6.1.1.4'
N N 0.0061 0.0033 'International Tables Vol C Tables 4.2.6.8 and 6.1.1.4'
loop_
_geom_angle_atom_site_label_1
_geom_angle_atom_site_label_2
_geom_angle_atom_site_label_3
_geom_angle_site_symmetry_1
_geom_angle_site_symmetry_3
_geom_angle
_geom_angle_publ_flag
Br1 Bi1 Br2 . . 94.306(14) ?
Br1 Bi1 Br3 . . 90.383(13) ?
Br2 Bi1 Br3 . . 91.286(13) ?
Br1 Bi1 Br4 . . 91.388(13) ?
Br2 Bi1 Br4 . . 88.747(13) ?
Br3 Bi1 Br4 . . 178.221(12) ?
Br1 Bi1 Br5 . . 95.067(13) ?
Br2 Bi1 Br5 . . 170.620(13) ?
Br3 Bi1 Br5 . . 89.036(13) ?
Br4 Bi1 Br5 . . 90.642(13) ?
Br1 Bi1 Br5 . 2_665 179.186(13) ?
Br2 Bi1 Br5 . 2_665 85.969(13) ?
Br3 Bi1 Br5 . 2_665 88.844(13) ?
Br4 Bi1 Br5 . 2_665 89.383(13) ?
Br5 Bi1 Br5 . 2_665 84.665(12) ?
Bi1 Br5 Bi1 . 2_665 95.335(12) y
C1 N1 C5 . . 124.3(4) ?
C1 N1 H1 . . 117.9 ?
C5 N1 H1 . . 117.9 ?
C1 N2 H21 . . 120.0 ?
C1 N2 H22 . . 120.0 ?
H21 N2 H22 . . 120.0 ?
N2 C1 N1 . . 119.4(3) ?
N2 C1 C2 . . 122.5(4) ?
N1 C1 C2 . . 118.0(4) ?
C3 C2 C1 . . 117.4(4) ?
C3 C2 C6 . . 122.7(4) ?
C1 C2 C6 . . 119.9(4) ?
C2 C3 C4 . . 122.6(4) ?
C2 C3 H31 . . 118.7 ?
C4 C3 H31 . . 118.7 ?
C5 C4 C3 . . 118.7(4) ?
C5 C4 H4 . . 120.6 ?
C3 C4 H4 . . 120.6 ?
C4 C5 N1 . . 119.0(4) ?
C4 C5 H5 . . 120.5 ?
N1 C5 H5 . . 120.5 ?
C2 C6 H61 . . 109.5 ?
C2 C6 H62 . . 109.5 ?
H61 C6 H62 . . 109.5 ?
C2 C6 H63 . . 109.5 ?
H61 C6 H63 . . 109.5 ?
H62 C6 H63 . . 109.5 ?
C7 N3 C11 . . 126.4(5) ?
C7 N3 H3 . . 116.8 ?
C11 N3 H3 . . 116.8 ?
C7 N4 H41 . . 120.0 ?
C7 N4 H42 . . 120.0 ?
H41 N4 H42 . . 120.0 ?
N4 C7 N3 . . 120.5(5) ?
N4 C7 C8 . . 121.2(5) ?
N3 C7 C8 . . 118.3(4) ?
C9 C8 C7 . . 115.4(4) ?
C9 C8 C12 . . 124.8(4) ?
C7 C8 C12 . . 119.8(4) ?
C8 C9 C10 . . 124.6(5) ?
C8 C9 H9 . . 117.7 ?
C10 C9 H9 . . 117.7 ?
C9 C10 C11 . . 118.9(5) ?
C9 C10 H10 . . 120.5 ?
C11 C10 H10 . . 120.5 ?
N3 C11 C10 . . 116.3(5) ?
N3 C11 H11 . . 121.8 ?
C10 C11 H11 . . 121.8 ?
C8 C12 H121 . . 109.5 ?
C8 C12 H122 . . 109.5 ?
H121 C12 H122 . . 109.5 ?
C8 C12 H123 . . 109.5 ?
H121 C12 H123 . . 109.5 ?
H122 C12 H123 . . 109.5 ?
loop_
_geom_bond_atom_site_label_1
_geom_bond_atom_site_label_2
_geom_bond_site_symmetry_2
_geom_bond_distance
_geom_bond_publ_flag
Bi1 Br1 . 2.7114(4) y
Bi1 Br2 . 2.7491(4) y
Bi1 Br3 . 2.7830(4) y
Bi1 Br4 . 2.9043(4) y
Bi1 Br5 . 2.9590(4) y
Bi1 Br5 2_665 3.1172(4) y
N1 C1 . 1.347(5) ?
N1 C5 . 1.360(5) ?
N1 H1 . 0.8800 ?
N2 C1 . 1.331(5) y
N2 H21 . 0.8800 ?
N2 H22 . 0.8800 ?
C1 C2 . 1.426(5) ?
C2 C3 . 1.366(6) ?
C2 C6 . 1.497(6) ?
C3 C4 . 1.397(6) ?
C3 H31 . 0.9500 ?
C4 C5 . 1.357(6) ?
C4 H4 . 0.9500 ?
C5 H5 . 0.9500 ?
C6 H61 . 0.9800 ?
C6 H62 . 0.9800 ?
C6 H63 . 0.9800 ?
N3 C7 . 1.327(6) ?
N3 C11 . 1.355(7) ?
N3 H3 . 0.8800 ?
N4 C7 . 1.306(6) y
N4 H41 . 0.8800 ?
N4 H42 . 0.8800 ?
C7 C8 . 1.445(6) ?
C8 C9 . 1.354(6) ?
C8 C12 . 1.475(6) ?
C9 C10 . 1.381(7) ?
C9 H9 . 0.9500 ?
C10 C11 . 1.388(8) ?
C10 H10 . 0.9500 ?
C11 H11 . 0.9500 ?
C12 H121 . 0.9800 ?
C12 H122 . 0.9800 ?
C12 H123 . 0.9800 ?
loop_
_geom_hbond_atom_site_label_D
_geom_hbond_atom_site_label_H
_geom_hbond_atom_site_label_A
_geom_hbond_site_symmetry_A
_geom_hbond_distance_DH
_geom_hbond_distance_HA
_geom_hbond_distance_DA
_geom_hbond_angle_DHA
_geom_hbond_publ_flag
N1 H1 Br4 . 0.88 2.62 3.456(3) 158 yes
N2 H21 Br4 . 0.88 2.68 3.496(3) 154 yes
N2 H22 Br2 1_455 0.88 2.65 3.504(4) 165 yes
N3 H3 Br5 2_665 0.88 3.02 3.653(4) 130 yes
N4 H41 Br3 2_665 0.88 2.72 3.521(4) 152 yes
N4 H42 Br5 2_565 0.88 3.04 3.912(5) 173 yes
loop_
_geom_torsion_atom_site_label_1
_geom_torsion_atom_site_label_2
_geom_torsion_atom_site_label_3
_geom_torsion_atom_site_label_4
_geom_torsion_site_symmetry_1
_geom_torsion_site_symmetry_2
_geom_torsion_site_symmetry_3
_geom_torsion_site_symmetry_4
_geom_torsion
_geom_torsion_publ_flag
C5 N1 C1 N2 . . . . -179.2(4) ?
C5 N1 C1 C2 . . . . 0.6(5) ?
N2 C1 C2 C3 . . . . 177.6(3) ?
N1 C1 C2 C3 . . . . -2.2(5) ?
N2 C1 C2 C6 . . . . -2.2(6) ?
N1 C1 C2 C6 . . . . 178.0(3) ?
C1 C2 C3 C4 . . . . 2.2(6) ?
C6 C2 C3 C4 . . . . -178.0(4) ?
C2 C3 C4 C5 . . . . -0.6(6) ?
C3 C4 C5 N1 . . . . -1.2(6) ?
C1 N1 C5 C4 . . . . 1.2(6) ?
C11 N3 C7 N4 . . . . 179.2(4) ?
C11 N3 C7 C8 . . . . 0.1(7) ?
N4 C7 C8 C9 . . . . -178.6(4) ?
N3 C7 C8 C9 . . . . 0.4(6) ?
N4 C7 C8 C12 . . . . 1.8(6) ?
N3 C7 C8 C12 . . . . -179.1(4) ?
C7 C8 C9 C10 . . . . -0.1(7) ?
C12 C8 C9 C10 . . . . 179.4(4) ?
C8 C9 C10 C11 . . . . -0.8(7) ?
C7 N3 C11 C10 . . . . -1.0(7) ?
C9 C10 C11 N3 . . . . 1.3(7) ?

_cod_database_fobs_code 2022115
